
 OpenBabel03242519263D

 40 43  0  0  0  0  0  0  0  0999 V2000
   37.2210   26.7250   42.1150 C   0  0  0  0  0  0  0  0  0  0  0  0
   37.0810   27.1420   43.4570 C   0  0  0  0  0  0  0  0  0  0  0  0
   37.3240   28.4860   43.8100 C   0  0  0  0  0  0  0  0  0  0  0  0
   37.6910   29.3200   42.7870 N   0  0  0  0  0  0  0  0  0  0  0  0
   37.8160   28.8770   41.4970 C   0  0  0  0  0  0  0  0  0  0  0  0
   37.5830   27.6110   41.1860 N   0  0  0  0  0  0  0  0  0  0  0  0
   36.7970   26.5520   44.3170 H   0  0  0  0  0  0  0  0  0  0  0  0
   37.2360   28.8620   44.8000 H   0  0  0  0  0  0  0  0  0  0  0  0
   36.9450   25.3010   41.8730 C   0  0  0  0  0  0  0  0  0  0  0  0
   38.0060   24.4080   42.3360 C   0  0  0  0  0  0  0  0  0  0  0  0
   38.7390   23.7080   41.2550 C   0  0  0  0  0  0  0  0  0  0  0  0
   37.8190   22.9820   40.2840 C   0  0  0  0  0  0  0  0  0  0  0  0
   36.5400   23.7110   39.9820 C   0  0  0  0  0  0  0  0  0  0  0  0
   36.6550   25.1730   40.3670 C   0  0  0  0  0  0  0  0  0  0  0  0
   35.9610   25.0060   42.3410 H   0  0  0  0  0  0  0  0  0  0  0  0
   38.7550   25.0090   42.9010 H   0  0  0  0  0  0  0  0  0  0  0  0
   37.6670   23.6340   43.0860 H   0  0  0  0  0  0  0  0  0  0  0  0
   39.4780   24.2720   40.6950 H   0  0  0  0  0  0  0  0  0  0  0  0
   39.3210   22.8760   41.7550 H   0  0  0  0  0  0  0  0  0  0  0  0
   38.3530   22.8860   39.3090 H   0  0  0  0  0  0  0  0  0  0  0  0
   37.5580   21.9550   40.6530 H   0  0  0  0  0  0  0  0  0  0  0  0
   36.2720   23.7020   38.9080 H   0  0  0  0  0  0  0  0  0  0  0  0
   35.6670   23.3010   40.5360 H   0  0  0  0  0  0  0  0  0  0  0  0
   37.4050   25.7050   39.7580 H   0  0  0  0  0  0  0  0  0  0  0  0
   35.6730   25.6490   40.2040 H   0  0  0  0  0  0  0  0  0  0  0  0
   38.2270   29.8970   40.5340 C   0  0  0  0  0  0  0  0  0  0  0  0
   37.3730   30.1710   39.5230 N   0  0  0  0  0  0  0  0  0  0  0  0
   37.8950   31.1280   38.7390 C   0  0  0  0  0  0  0  0  0  0  0  0
   39.0980   31.4480   39.2830 N   0  0  0  0  0  0  0  0  0  0  0  0
   39.3070   30.6980   40.3820 N   0  0  0  0  0  0  0  0  0  0  0  0
   37.5050   31.6000   37.8430 H   0  0  0  0  0  0  0  0  0  0  0  0
   39.0320   33.9920   40.8530 Cl  0  0  0  0  0  0  0  0  0  0  0  0
   40.1300   33.6070   39.5450 C   0  0  0  0  0  0  0  0  0  0  0  0
   40.0830   32.3940   38.8750 C   0  0  0  0  0  0  0  0  0  0  0  0
   40.9240   32.0430   37.8390 C   0  0  0  0  0  0  0  0  0  0  0  0
   40.8300   31.0780   37.3620 H   0  0  0  0  0  0  0  0  0  0  0  0
   41.8710   32.9790   37.4620 C   0  0  0  0  0  0  0  0  0  0  0  0
   42.5340   32.7090   36.6500 H   0  0  0  0  0  0  0  0  0  0  0  0
   41.9230   34.1870   38.1260 C   0  0  0  0  0  3  0  0  0  0  0  0
   41.0800   34.5360   39.1620 C   0  0  0  0  0  3  0  0  0  0  0  0
  1  2  1  0  0  0  0
  2  3  2  0  0  0  0
  2  7  1  0  0  0  0
  3  8  1  0  0  0  0
  4  3  1  0  0  0  0
  5  4  2  0  0  0  0
  6  5  1  0  0  0  0
  6  1  2  0  0  0  0
  9  1  1  0  0  0  0
  9 10  1  0  0  0  0
  9 15  1  0  0  0  0
 10 16  1  0  0  0  0
 10 17  1  0  0  0  0
 11 19  1  0  0  0  0
 11 10  1  0  0  0  0
 12 21  1  0  0  0  0
 12 11  1  0  0  0  0
 13 12  1  0  0  0  0
 13 14  1  0  0  0  0
 13 23  1  0  0  0  0
 14  9  1  0  0  0  0
 18 11  1  0  0  0  0
 20 12  1  0  0  0  0
 22 13  1  0  0  0  0
 24 14  1  0  0  0  0
 25 14  1  0  0  0  0
 26  5  1  0  0  0  0
 27 26  1  0  0  0  0
 28 29  1  0  0  0  0
 28 27  2  0  0  0  0
 29 30  1  0  0  0  0
 30 26  2  0  0  0  0
 31 28  1  0  0  0  0
 33 32  1  0  0  0  0
 34 29  1  0  0  0  0
 34 33  2  0  0  0  0
 35 34  1  0  0  0  0
 36 35  1  0  0  0  0
 37 35  2  0  0  0  0
 37 39  1  0  0  0  0
 38 37  1  0  0  0  0
 39 40  2  0  0  0  0
 40 33  1  0  0  0  0
M  END
>  <minimizedAffinity>
-6.20782185

$$$$

 OpenBabel03242519263D

 40 43  0  0  0  0  0  0  0  0999 V2000
   37.2470   28.4510   41.7290 C   0  0  0  0  0  0  0  0  0  0  0  0
   35.9420   28.5740   41.2040 C   0  0  0  0  0  0  0  0  0  0  0  0
   35.5950   29.6970   40.4240 C   0  0  0  0  0  0  0  0  0  0  0  0
   36.5870   30.6210   40.2250 N   0  0  0  0  0  0  0  0  0  0  0  0
   37.8420   30.4650   40.7520 C   0  0  0  0  0  0  0  0  0  0  0  0
   38.1470   29.4030   41.4810 N   0  0  0  0  0  0  0  0  0  0  0  0
   35.1070   27.8950   41.3130 H   0  0  0  0  0  0  0  0  0  0  0  0
   34.6330   29.8490   40.0010 H   0  0  0  0  0  0  0  0  0  0  0  0
   37.4840   27.2390   42.5280 C   0  0  0  0  0  0  0  0  0  0  0  0
   38.2980   27.4700   43.7210 C   0  0  0  0  0  0  0  0  0  0  0  0
   39.6380   26.8380   43.6860 C   0  0  0  0  0  0  0  0  0  0  0  0
   39.5880   25.3530   43.3550 C   0  0  0  0  0  0  0  0  0  0  0  0
   38.5490   24.9820   42.3350 C   0  0  0  0  0  0  0  0  0  0  0  0
   38.0950   26.2060   41.5650 C   0  0  0  0  0  0  0  0  0  0  0  0
   36.5040   26.7600   42.8170 H   0  0  0  0  0  0  0  0  0  0  0  0
   38.4580   28.5670   43.8350 H   0  0  0  0  0  0  0  0  0  0  0  0
   37.7980   27.1730   44.6890 H   0  0  0  0  0  0  0  0  0  0  0  0
   40.4080   27.3120   43.0870 H   0  0  0  0  0  0  0  0  0  0  0  0
   40.0300   26.8690   44.7470 H   0  0  0  0  0  0  0  0  0  0  0  0
   40.5690   25.0660   42.9090 H   0  0  0  0  0  0  0  0  0  0  0  0
   39.4160   24.7310   44.2730 H   0  0  0  0  0  0  0  0  0  0  0  0
   38.9160   24.2660   41.5740 H   0  0  0  0  0  0  0  0  0  0  0  0
   37.6390   24.5320   42.7880 H   0  0  0  0  0  0  0  0  0  0  0  0
   38.9080   26.6400   40.9590 H   0  0  0  0  0  0  0  0  0  0  0  0
   37.2790   25.9020   40.8870 H   0  0  0  0  0  0  0  0  0  0  0  0
   38.7740   31.5500   40.4510 C   0  0  0  0  0  0  0  0  0  0  0  0
   38.4110   32.7980   40.8220 N   0  0  0  0  0  0  0  0  0  0  0  0
   39.3740   33.6680   40.4810 C   0  0  0  0  0  0  0  0  0  0  0  0
   40.3510   32.9360   39.8860 N   0  0  0  0  0  0  0  0  0  0  0  0
   39.9910   31.6390   39.8650 N   0  0  0  0  0  0  0  0  0  0  0  0
   39.4360   34.7440   40.6140 H   0  0  0  0  0  0  0  0  0  0  0  0
   42.6210   32.7940   41.8280 Cl  0  0  0  0  0  0  0  0  0  0  0  0
   42.7160   33.2990   40.1540 C   0  0  0  0  0  0  0  0  0  0  0  0
   41.6030   33.3310   39.3290 C   0  0  0  0  0  0  0  0  0  0  0  0
   41.6250   33.7210   38.0050 C   0  0  0  0  0  0  0  0  0  0  0  0
   40.7170   33.7210   37.4210 H   0  0  0  0  0  0  0  0  0  0  0  0
   42.8520   34.0990   37.4890 C   0  0  0  0  0  0  0  0  0  0  0  0
   42.8750   34.4060   36.4510 H   0  0  0  0  0  0  0  0  0  0  0  0
   43.9630   34.0680   38.3060 C   0  0  0  0  0  3  0  0  0  0  0  0
   43.9380   33.6780   39.6290 C   0  0  0  0  0  3  0  0  0  0  0  0
  1  9  1  0  0  0  0
  2  7  1  0  0  0  0
  2  1  2  0  0  0  0
  3  2  1  0  0  0  0
  4  3  2  0  0  0  0
  4  5  1  0  0  0  0
  5  6  2  0  0  0  0
  6  1  1  0  0  0  0
  8  3  1  0  0  0  0
  9 15  1  0  0  0  0
  9 10  1  0  0  0  0
 10 16  1  0  0  0  0
 10 17  1  0  0  0  0
 11 10  1  0  0  0  0
 11 19  1  0  0  0  0
 12 11  1  0  0  0  0
 12 21  1  0  0  0  0
 13 23  1  0  0  0  0
 13 12  1  0  0  0  0
 14 13  1  0  0  0  0
 14  9  1  0  0  0  0
 18 11  1  0  0  0  0
 20 12  1  0  0  0  0
 22 13  1  0  0  0  0
 24 14  1  0  0  0  0
 25 14  1  0  0  0  0
 26  5  1  0  0  0  0
 26 27  1  0  0  0  0
 28 31  1  0  0  0  0
 28 27  2  0  0  0  0
 29 28  1  0  0  0  0
 30 29  1  0  0  0  0
 30 26  2  0  0  0  0
 33 32  1  0  0  0  0
 34 29  1  0  0  0  0
 34 33  2  0  0  0  0
 35 34  1  0  0  0  0
 36 35  1  0  0  0  0
 37 35  2  0  0  0  0
 37 39  1  0  0  0  0
 38 37  1  0  0  0  0
 39 40  2  0  0  0  0
 40 33  1  0  0  0  0
M  END
>  <minimizedAffinity>
-6.14989853

$$$$

 OpenBabel03242519263D

 40 43  0  0  0  0  0  0  0  0999 V2000
   40.5240   33.1950   39.9390 C   0  0  0  0  0  0  0  0  0  0  0  0
   39.8140   34.4150   39.9720 C   0  0  0  0  0  0  0  0  0  0  0  0
   38.4220   34.4180   40.2030 C   0  0  0  0  0  0  0  0  0  0  0  0
   37.8400   33.1910   40.3870 N   0  0  0  0  0  0  0  0  0  0  0  0
   38.5640   32.0290   40.3470 C   0  0  0  0  0  0  0  0  0  0  0  0
   39.8700   32.0490   40.1300 N   0  0  0  0  0  0  0  0  0  0  0  0
   40.1940   35.4180   39.8380 H   0  0  0  0  0  0  0  0  0  0  0  0
   37.8310   35.3000   40.2400 H   0  0  0  0  0  0  0  0  0  0  0  0
   41.9670   33.3220   39.6860 C   0  0  0  0  0  0  0  0  0  0  0  0
   42.3190   34.4580   38.8340 C   0  0  0  0  0  0  0  0  0  0  0  0
   42.8490   34.0880   37.5000 C   0  0  0  0  0  0  0  0  0  0  0  0
   44.0030   33.0990   37.5700 C   0  0  0  0  0  0  0  0  0  0  0  0
   43.8580   32.0560   38.6430 C   0  0  0  0  0  0  0  0  0  0  0  0
   42.4200   31.9670   39.1110 C   0  0  0  0  0  0  0  0  0  0  0  0
   42.5340   33.3800   40.6600 H   0  0  0  0  0  0  0  0  0  0  0  0
   41.4040   35.0700   38.6630 H   0  0  0  0  0  0  0  0  0  0  0  0
   43.0410   35.1860   39.3060 H   0  0  0  0  0  0  0  0  0  0  0  0
   42.1410   33.7600   36.7450 H   0  0  0  0  0  0  0  0  0  0  0  0
   43.3170   35.0260   37.0750 H   0  0  0  0  0  0  0  0  0  0  0  0
   44.0380   32.5410   36.6050 H   0  0  0  0  0  0  0  0  0  0  0  0
   44.9850   33.6210   37.7190 H   0  0  0  0  0  0  0  0  0  0  0  0
   44.1280   31.0360   38.3050 H   0  0  0  0  0  0  0  0  0  0  0  0
   44.4770   32.2710   39.5420 H   0  0  0  0  0  0  0  0  0  0  0  0
   41.7440   31.6130   38.3150 H   0  0  0  0  0  0  0  0  0  0  0  0
   42.3750   31.2510   39.9500 H   0  0  0  0  0  0  0  0  0  0  0  0
   37.7830   30.8110   40.5520 C   0  0  0  0  0  0  0  0  0  0  0  0
   36.4450   30.9490   40.6800 N   0  0  0  0  0  0  0  0  0  0  0  0
   35.8820   29.7430   40.8530 C   0  0  0  0  0  0  0  0  0  0  0  0
   36.9000   28.8440   40.8320 N   0  0  0  0  0  0  0  0  0  0  0  0
   38.0670   29.4910   40.6480 N   0  0  0  0  0  0  0  0  0  0  0  0
   34.8430   29.4590   40.9900 H   0  0  0  0  0  0  0  0  0  0  0  0
   37.3240   27.9080   43.6400 Cl  0  0  0  0  0  0  0  0  0  0  0  0
   37.0820   26.8950   42.2330 C   0  0  0  0  0  0  0  0  0  0  0  0
   36.8930   27.4240   40.9670 C   0  0  0  0  0  0  0  0  0  0  0  0
   36.6980   26.6700   39.8280 C   0  0  0  0  0  0  0  0  0  0  0  0
   36.5560   27.1520   38.8710 H   0  0  0  0  0  0  0  0  0  0  0  0
   36.6960   25.2950   39.9850 C   0  0  0  0  0  0  0  0  0  0  0  0
   36.5440   24.6980   39.0950 H   0  0  0  0  0  0  0  0  0  0  0  0
   36.8840   24.7630   41.2440 C   0  0  0  0  0  3  0  0  0  0  0  0
   37.0780   25.5190   42.3810 C   0  0  0  0  0  3  0  0  0  0  0  0
  1  2  2  0  0  0  0
  1  6  1  0  0  0  0
  2  3  1  0  0  0  0
  3  8  1  0  0  0  0
  3  4  2  0  0  0  0
  5  4  1  0  0  0  0
  5 26  1  0  0  0  0
  6  5  2  0  0  0  0
  7  2  1  0  0  0  0
  9  1  1  0  0  0  0
  9 15  1  0  0  0  0
 10 17  1  0  0  0  0
 10  9  1  0  0  0  0
 11 12  1  0  0  0  0
 11 10  1  0  0  0  0
 12 21  1  0  0  0  0
 12 13  1  0  0  0  0
 13 14  1  0  0  0  0
 13 23  1  0  0  0  0
 14  9  1  0  0  0  0
 14 25  1  0  0  0  0
 16 10  1  0  0  0  0
 18 11  1  0  0  0  0
 19 11  1  0  0  0  0
 20 12  1  0  0  0  0
 22 13  1  0  0  0  0
 24 14  1  0  0  0  0
 26 30  2  0  0  0  0
 26 27  1  0  0  0  0
 27 28  2  0  0  0  0
 28 31  1  0  0  0  0
 29 28  1  0  0  0  0
 29 34  1  0  0  0  0
 30 29  1  0  0  0  0
 33 40  1  0  0  0  0
 33 32  1  0  0  0  0
 34 33  2  0  0  0  0
 35 37  2  0  0  0  0
 35 34  1  0  0  0  0
 36 35  1  0  0  0  0
 37 39  1  0  0  0  0
 38 37  1  0  0  0  0
 39 40  2  0  0  0  0
M  END
>  <minimizedAffinity>
-6.09527922

$$$$

 OpenBabel03242519263D

 40 43  0  0  0  0  0  0  0  0999 V2000
   32.3330   29.4580   36.5320 C   0  0  0  0  0  0  0  0  0  0  0  0
   32.8320   29.5260   35.2130 C   0  0  0  0  0  0  0  0  0  0  0  0
   34.1780   29.1980   34.9470 C   0  0  0  0  0  0  0  0  0  0  0  0
   34.9310   28.8240   36.0280 N   0  0  0  0  0  0  0  0  0  0  0  0
   34.4100   28.7700   37.2940 C   0  0  0  0  0  0  0  0  0  0  0  0
   33.1440   29.0810   37.5220 N   0  0  0  0  0  0  0  0  0  0  0  0
   32.3080   29.8090   34.3110 H   0  0  0  0  0  0  0  0  0  0  0  0
   34.6140   29.2290   33.9780 H   0  0  0  0  0  0  0  0  0  0  0  0
   30.9180   29.8270   36.6820 C   0  0  0  0  0  0  0  0  0  0  0  0
   30.5220   30.9840   35.8800 C   0  0  0  0  0  0  0  0  0  0  0  0
   30.1740   32.1910   36.6670 C   0  0  0  0  0  0  0  0  0  0  0  0
   29.1430   31.9180   37.7520 C   0  0  0  0  0  0  0  0  0  0  0  0
   29.3010   30.5890   38.4360 C   0  0  0  0  0  0  0  0  0  0  0  0
   30.6870   30.0250   38.1910 C   0  0  0  0  0  0  0  0  0  0  0  0
   30.2540   28.9460   36.4430 H   0  0  0  0  0  0  0  0  0  0  0  0
   31.3710   31.2620   35.2150 H   0  0  0  0  0  0  0  0  0  0  0  0
   29.6750   30.7810   35.1600 H   0  0  0  0  0  0  0  0  0  0  0  0
   30.9870   32.7770   37.0840 H   0  0  0  0  0  0  0  0  0  0  0  0
   29.6430   32.8900   35.9540 H   0  0  0  0  0  0  0  0  0  0  0  0
   29.2700   32.6880   38.5490 H   0  0  0  0  0  0  0  0  0  0  0  0
   28.0960   31.9840   37.3530 H   0  0  0  0  0  0  0  0  0  0  0  0
   29.1880   30.6430   39.5360 H   0  0  0  0  0  0  0  0  0  0  0  0
   28.5760   29.8270   38.0740 H   0  0  0  0  0  0  0  0  0  0  0  0
   31.4750   30.6460   38.6490 H   0  0  0  0  0  0  0  0  0  0  0  0
   30.7320   29.0170   38.6410 H   0  0  0  0  0  0  0  0  0  0  0  0
   35.3560   28.3610   38.3310 C   0  0  0  0  0  0  0  0  0  0  0  0
   36.2310   27.3800   38.0170 N   0  0  0  0  0  0  0  0  0  0  0  0
   37.0260   27.1320   39.0700 C   0  0  0  0  0  0  0  0  0  0  0  0
   36.6280   27.9810   40.0530 N   0  0  0  0  0  0  0  0  0  0  0  0
   35.6060   28.7360   39.6070 N   0  0  0  0  0  0  0  0  0  0  0  0
   37.8370   26.4200   39.1920 H   0  0  0  0  0  0  0  0  0  0  0  0
   38.8420   29.9820   40.2580 Cl  0  0  0  0  0  0  0  0  0  0  0  0
   38.1410   29.0690   41.5770 C   0  0  0  0  0  0  0  0  0  0  0  0
   37.1130   28.1600   41.3810 C   0  0  0  0  0  0  0  0  0  0  0  0
   36.5270   27.4170   42.3860 C   0  0  0  0  0  0  0  0  0  0  0  0
   35.7290   26.7260   42.1600 H   0  0  0  0  0  0  0  0  0  0  0  0
   37.0160   27.6090   43.6670 C   0  0  0  0  0  0  0  0  0  0  0  0
   36.5600   27.0290   44.4590 H   0  0  0  0  0  0  0  0  0  0  0  0
   38.0390   28.5130   43.8670 C   0  0  0  0  0  3  0  0  0  0  0  0
   38.6220   29.2550   42.8610 C   0  0  0  0  0  3  0  0  0  0  0  0
  1  9  1  0  0  0  0
  1  6  1  0  0  0  0
  2  1  2  0  0  0  0
  3  2  1  0  0  0  0
  3  4  2  0  0  0  0
  4  5  1  0  0  0  0
  5  6  2  0  0  0  0
  5 26  1  0  0  0  0
  7  2  1  0  0  0  0
  8  3  1  0  0  0  0
  9 14  1  0  0  0  0
 10 11  1  0  0  0  0
 10  9  1  0  0  0  0
 11 18  1  0  0  0  0
 11 12  1  0  0  0  0
 12 13  1  0  0  0  0
 12 20  1  0  0  0  0
 13 22  1  0  0  0  0
 14 13  1  0  0  0  0
 14 25  1  0  0  0  0
 14 24  1  0  0  0  0
 15  9  1  0  0  0  0
 16 10  1  0  0  0  0
 17 10  1  0  0  0  0
 19 11  1  0  0  0  0
 21 12  1  0  0  0  0
 23 13  1  0  0  0  0
 26 30  2  0  0  0  0
 27 26  1  0  0  0  0
 27 28  2  0  0  0  0
 28 31  1  0  0  0  0
 28 29  1  0  0  0  0
 29 34  1  0  0  0  0
 30 29  1  0  0  0  0
 32 33  1  0  0  0  0
 33 40  1  0  0  0  0
 34 33  2  0  0  0  0
 34 35  1  0  0  0  0
 35 37  2  0  0  0  0
 36 35  1  0  0  0  0
 37 39  1  0  0  0  0
 37 38  1  0  0  0  0
 40 39  2  0  0  0  0
M  END
>  <minimizedAffinity>
-5.98054266

$$$$

 OpenBabel03242519263D

 40 43  0  0  0  0  0  0  0  0999 V2000
   37.5100   26.7370   40.6600 C   0  0  0  0  0  0  0  0  0  0  0  0
   36.5750   26.1070   39.8090 C   0  0  0  0  0  0  0  0  0  0  0  0
   36.1810   26.7290   38.6060 C   0  0  0  0  0  0  0  0  0  0  0  0
   36.7560   27.9440   38.3400 N   0  0  0  0  0  0  0  0  0  0  0  0
   37.6600   28.5230   39.1920 C   0  0  0  0  0  0  0  0  0  0  0  0
   38.0160   27.9220   40.3160 N   0  0  0  0  0  0  0  0  0  0  0  0
   36.0790   25.1570   39.9440 H   0  0  0  0  0  0  0  0  0  0  0  0
   35.4840   26.3090   37.9240 H   0  0  0  0  0  0  0  0  0  0  0  0
   37.8370   25.9920   41.8850 C   0  0  0  0  0  0  0  0  0  0  0  0
   38.0170   26.8420   43.0610 C   0  0  0  0  0  0  0  0  0  0  0  0
   39.4030   26.8900   43.5820 C   0  0  0  0  0  0  0  0  0  0  0  0
   39.9960   25.5100   43.8280 C   0  0  0  0  0  0  0  0  0  0  0  0
   39.6070   24.4790   42.8050 C   0  0  0  0  0  0  0  0  0  0  0  0
   39.0780   25.1450   41.5500 C   0  0  0  0  0  0  0  0  0  0  0  0
   37.0500   25.2090   42.0910 H   0  0  0  0  0  0  0  0  0  0  0  0
   37.7330   27.8850   42.7920 H   0  0  0  0  0  0  0  0  0  0  0  0
   37.3290   26.5940   43.9220 H   0  0  0  0  0  0  0  0  0  0  0  0
   40.1250   27.5000   43.0490 H   0  0  0  0  0  0  0  0  0  0  0  0
   39.3370   27.3470   44.6150 H   0  0  0  0  0  0  0  0  0  0  0  0
   41.1060   25.5960   43.7660 H   0  0  0  0  0  0  0  0  0  0  0  0
   39.7220   25.1170   44.8420 H   0  0  0  0  0  0  0  0  0  0  0  0
   40.4530   23.8450   42.4760 H   0  0  0  0  0  0  0  0  0  0  0  0
   38.8090   23.7920   43.1640 H   0  0  0  0  0  0  0  0  0  0  0  0
   39.8530   25.7380   41.0360 H   0  0  0  0  0  0  0  0  0  0  0  0
   38.7310   24.3550   40.8620 H   0  0  0  0  0  0  0  0  0  0  0  0
   38.1650   29.8250   38.7600 C   0  0  0  0  0  0  0  0  0  0  0  0
   37.3760   30.5530   37.9390 N   0  0  0  0  0  0  0  0  0  0  0  0
   37.9810   31.7140   37.6450 C   0  0  0  0  0  0  0  0  0  0  0  0
   39.1700   31.6970   38.3010 N   0  0  0  0  0  0  0  0  0  0  0  0
   39.2900   30.5430   38.9850 N   0  0  0  0  0  0  0  0  0  0  0  0
   37.6580   32.5430   37.0230 H   0  0  0  0  0  0  0  0  0  0  0  0
   38.9240   33.6060   40.5900 Cl  0  0  0  0  0  0  0  0  0  0  0  0
   40.1910   33.5920   39.3820 C   0  0  0  0  0  0  0  0  0  0  0  0
   40.2190   32.6620   38.3540 C   0  0  0  0  0  0  0  0  0  0  0  0
   41.1940   32.6080   37.3780 C   0  0  0  0  0  0  0  0  0  0  0  0
   41.1520   31.8550   36.6060 H   0  0  0  0  0  0  0  0  0  0  0  0
   42.2000   33.5560   37.4520 C   0  0  0  0  0  0  0  0  0  0  0  0
   42.9670   33.5180   36.6890 H   0  0  0  0  0  0  0  0  0  0  0  0
   42.1770   34.4830   38.4730 C   0  0  0  0  0  3  0  0  0  0  0  0
   41.2010   34.5340   39.4480 C   0  0  0  0  0  3  0  0  0  0  0  0
  1  9  1  0  0  0  0
  2  7  1  0  0  0  0
  2  1  2  0  0  0  0
  3  2  1  0  0  0  0
  4  3  2  0  0  0  0
  4  5  1  0  0  0  0
  5  6  2  0  0  0  0
  6  1  1  0  0  0  0
  8  3  1  0  0  0  0
  9 15  1  0  0  0  0
  9 10  1  0  0  0  0
 10 11  1  0  0  0  0
 10 17  1  0  0  0  0
 11 12  1  0  0  0  0
 11 19  1  0  0  0  0
 12 21  1  0  0  0  0
 13 23  1  0  0  0  0
 13 12  1  0  0  0  0
 14  9  1  0  0  0  0
 14 13  1  0  0  0  0
 16 10  1  0  0  0  0
 18 11  1  0  0  0  0
 20 12  1  0  0  0  0
 22 13  1  0  0  0  0
 24 14  1  0  0  0  0
 25 14  1  0  0  0  0
 26 30  2  0  0  0  0
 26  5  1  0  0  0  0
 27 26  1  0  0  0  0
 28 27  2  0  0  0  0
 28 29  1  0  0  0  0
 29 34  1  0  0  0  0
 29 30  1  0  0  0  0
 31 28  1  0  0  0  0
 33 40  1  0  0  0  0
 33 32  1  0  0  0  0
 34 33  2  0  0  0  0
 35 37  2  0  0  0  0
 35 34  1  0  0  0  0
 36 35  1  0  0  0  0
 37 39  1  0  0  0  0
 38 37  1  0  0  0  0
 39 40  2  0  0  0  0
M  END
>  <minimizedAffinity>
-5.79842901

$$$$

 OpenBabel03242519263D

 40 43  0  0  0  0  0  0  0  0999 V2000
   36.6160   27.3000   39.4460 C   0  0  0  0  0  0  0  0  0  0  0  0
   36.9010   25.9520   39.1390 C   0  0  0  0  0  0  0  0  0  0  0  0
   36.1420   25.2720   38.1620 C   0  0  0  0  0  0  0  0  0  0  0  0
   35.1480   25.9980   37.5610 N   0  0  0  0  0  0  0  0  0  0  0  0
   34.9030   27.3060   37.8870 C   0  0  0  0  0  0  0  0  0  0  0  0
   35.6280   27.9250   38.8060 N   0  0  0  0  0  0  0  0  0  0  0  0
   37.6610   25.3120   39.5640 H   0  0  0  0  0  0  0  0  0  0  0  0
   36.3050   24.2600   37.8860 H   0  0  0  0  0  0  0  0  0  0  0  0
   37.4720   27.8960   40.4830 C   0  0  0  0  0  0  0  0  0  0  0  0
   38.2420   26.9150   41.2470 C   0  0  0  0  0  0  0  0  0  0  0  0
   37.8430   26.7880   42.6690 C   0  0  0  0  0  0  0  0  0  0  0  0
   37.8070   28.1230   43.4000 C   0  0  0  0  0  0  0  0  0  0  0  0
   37.2990   29.2680   42.5700 C   0  0  0  0  0  0  0  0  0  0  0  0
   36.5440   28.7570   41.3590 C   0  0  0  0  0  0  0  0  0  0  0  0
   38.1650   28.6620   40.0280 H   0  0  0  0  0  0  0  0  0  0  0  0
   38.1050   25.9140   40.7790 H   0  0  0  0  0  0  0  0  0  0  0  0
   39.3600   27.0740   41.2130 H   0  0  0  0  0  0  0  0  0  0  0  0
   36.9380   26.2320   42.8950 H   0  0  0  0  0  0  0  0  0  0  0  0
   38.6740   26.2180   43.1810 H   0  0  0  0  0  0  0  0  0  0  0  0
   37.0980   28.0280   44.2550 H   0  0  0  0  0  0  0  0  0  0  0  0
   38.8170   28.4020   43.8000 H   0  0  0  0  0  0  0  0  0  0  0  0
   36.5890   29.9240   43.1120 H   0  0  0  0  0  0  0  0  0  0  0  0
   38.1140   29.9220   42.1880 H   0  0  0  0  0  0  0  0  0  0  0  0
   35.6250   28.2150   41.6400 H   0  0  0  0  0  0  0  0  0  0  0  0
   36.2600   29.6250   40.7390 H   0  0  0  0  0  0  0  0  0  0  0  0
   33.7990   27.9250   37.1560 C   0  0  0  0  0  0  0  0  0  0  0  0
   32.9950   27.1070   36.4420 N   0  0  0  0  0  0  0  0  0  0  0  0
   32.0360   27.8290   35.8420 C   0  0  0  0  0  0  0  0  0  0  0  0
   32.2580   29.1210   36.1960 N   0  0  0  0  0  0  0  0  0  0  0  0
   33.3360   29.1870   37.0000 N   0  0  0  0  0  0  0  0  0  0  0  0
   31.2200   27.5230   35.1940 H   0  0  0  0  0  0  0  0  0  0  0  0
   30.5880   30.2050   38.4270 Cl  0  0  0  0  0  0  0  0  0  0  0  0
   30.7540   30.8930   36.8260 C   0  0  0  0  0  0  0  0  0  0  0  0
   31.5570   30.3150   35.8550 C   0  0  0  0  0  0  0  0  0  0  0  0
   31.7210   30.8170   34.5800 C   0  0  0  0  0  0  0  0  0  0  0  0
   32.3640   30.3130   33.8730 H   0  0  0  0  0  0  0  0  0  0  0  0
   31.0300   31.9760   34.2740 C   0  0  0  0  0  0  0  0  0  0  0  0
   31.1550   32.3740   33.2750 H   0  0  0  0  0  0  0  0  0  0  0  0
   30.2300   32.5550   35.2370 C   0  0  0  0  0  3  0  0  0  0  0  0
   30.0670   32.0510   36.5110 C   0  0  0  0  0  3  0  0  0  0  0  0
  1  9  1  0  0  0  0
  2  1  1  0  0  0  0
  2  7  1  0  0  0  0
  3  2  2  0  0  0  0
  4  5  2  0  0  0  0
  4  3  1  0  0  0  0
  5  6  1  0  0  0  0
  6  1  2  0  0  0  0
  8  3  1  0  0  0  0
  9 10  1  0  0  0  0
  9 14  1  0  0  0  0
 10 11  1  0  0  0  0
 11 18  1  0  0  0  0
 11 19  1  0  0  0  0
 11 12  1  0  0  0  0
 12 21  1  0  0  0  0
 12 20  1  0  0  0  0
 13 22  1  0  0  0  0
 13 12  1  0  0  0  0
 14 24  1  0  0  0  0
 14 13  1  0  0  0  0
 15  9  1  0  0  0  0
 16 10  1  0  0  0  0
 17 10  1  0  0  0  0
 23 13  1  0  0  0  0
 25 14  1  0  0  0  0
 26  5  1  0  0  0  0
 27 26  1  0  0  0  0
 28 29  1  0  0  0  0
 28 27  2  0  0  0  0
 29 30  1  0  0  0  0
 30 26  2  0  0  0  0
 31 28  1  0  0  0  0
 33 32  1  0  0  0  0
 34 29  1  0  0  0  0
 34 33  2  0  0  0  0
 35 34  1  0  0  0  0
 36 35  1  0  0  0  0
 37 35  2  0  0  0  0
 37 39  1  0  0  0  0
 38 37  1  0  0  0  0
 39 40  2  0  0  0  0
 40 33  1  0  0  0  0
M  END
>  <minimizedAffinity>
-5.76577234

$$$$

 OpenBabel03242519263D

 40 43  0  0  0  0  0  0  0  0999 V2000
   37.6190   28.4870   40.9940 C   0  0  0  0  0  0  0  0  0  0  0  0
   36.2540   28.8500   40.9980 C   0  0  0  0  0  0  0  0  0  0  0  0
   35.8800   30.2040   40.8680 C   0  0  0  0  0  0  0  0  0  0  0  0
   36.9070   31.1020   40.7430 N   0  0  0  0  0  0  0  0  0  0  0  0
   38.2200   30.7110   40.7440 C   0  0  0  0  0  0  0  0  0  0  0  0
   38.5490   29.4340   40.8670 N   0  0  0  0  0  0  0  0  0  0  0  0
   35.3890   28.2080   41.0910 H   0  0  0  0  0  0  0  0  0  0  0  0
   34.8730   30.5410   40.8630 H   0  0  0  0  0  0  0  0  0  0  0  0
   37.8810   27.0480   41.1410 C   0  0  0  0  0  0  0  0  0  0  0  0
   37.7350   26.2920   39.8980 C   0  0  0  0  0  0  0  0  0  0  0  0
   36.5920   25.3490   39.8790 C   0  0  0  0  0  0  0  0  0  0  0  0
   36.5740   24.4100   41.0770 C   0  0  0  0  0  0  0  0  0  0  0  0
   37.0100   25.0460   42.3670 C   0  0  0  0  0  0  0  0  0  0  0  0
   36.9490   26.5580   42.2640 C   0  0  0  0  0  0  0  0  0  0  0  0
   38.9080   26.8770   41.5780 H   0  0  0  0  0  0  0  0  0  0  0  0
   37.5770   27.0110   39.0620 H   0  0  0  0  0  0  0  0  0  0  0  0
   38.6610   25.7240   39.5880 H   0  0  0  0  0  0  0  0  0  0  0  0
   35.5980   25.7580   39.7300 H   0  0  0  0  0  0  0  0  0  0  0  0
   36.7630   24.6620   38.9960 H   0  0  0  0  0  0  0  0  0  0  0  0
   35.5220   24.0790   41.2400 H   0  0  0  0  0  0  0  0  0  0  0  0
   37.2120   23.5040   40.9010 H   0  0  0  0  0  0  0  0  0  0  0  0
   36.3690   24.7770   43.2290 H   0  0  0  0  0  0  0  0  0  0  0  0
   38.0540   24.7850   42.6480 H   0  0  0  0  0  0  0  0  0  0  0  0
   35.9180   26.9240   42.1320 H   0  0  0  0  0  0  0  0  0  0  0  0
   37.3520   26.9820   43.2010 H   0  0  0  0  0  0  0  0  0  0  0  0
   39.1860   31.8000   40.6120 C   0  0  0  0  0  0  0  0  0  0  0  0
   38.6980   33.0590   40.5860 N   0  0  0  0  0  0  0  0  0  0  0  0
   39.7100   33.9330   40.4680 C   0  0  0  0  0  0  0  0  0  0  0  0
   40.8460   33.1910   40.4210 N   0  0  0  0  0  0  0  0  0  0  0  0
   40.5330   31.8840   40.5090 N   0  0  0  0  0  0  0  0  0  0  0  0
   39.7060   35.0170   40.4140 H   0  0  0  0  0  0  0  0  0  0  0  0
   41.8000   33.3540   37.5910 Cl  0  0  0  0  0  0  0  0  0  0  0  0
   42.7450   33.6870   39.0270 C   0  0  0  0  0  0  0  0  0  0  0  0
   42.2110   33.5840   40.3020 C   0  0  0  0  0  0  0  0  0  0  0  0
   42.9130   33.8350   41.4630 C   0  0  0  0  0  0  0  0  0  0  0  0
   42.4320   33.7340   42.4250 H   0  0  0  0  0  0  0  0  0  0  0  0
   44.2370   34.2150   41.3200 C   0  0  0  0  0  0  0  0  0  0  0  0
   44.7920   34.4130   42.2280 H   0  0  0  0  0  0  0  0  0  0  0  0
   44.7720   34.3190   40.0540 C   0  0  0  0  0  3  0  0  0  0  0  0
   44.0680   34.0670   38.8940 C   0  0  0  0  0  3  0  0  0  0  0  0
  1  2  1  0  0  0  0
  1  9  1  0  0  0  0
  2  7  1  0  0  0  0
  3  2  2  0  0  0  0
  4  5  2  0  0  0  0
  4  3  1  0  0  0  0
  5  6  1  0  0  0  0
  6  1  2  0  0  0  0
  8  3  1  0  0  0  0
  9 15  1  0  0  0  0
  9 14  1  0  0  0  0
 10  9  1  0  0  0  0
 11 10  1  0  0  0  0
 11 12  1  0  0  0  0
 12 20  1  0  0  0  0
 12 13  1  0  0  0  0
 13 23  1  0  0  0  0
 13 22  1  0  0  0  0
 14 13  1  0  0  0  0
 14 25  1  0  0  0  0
 16 10  1  0  0  0  0
 17 10  1  0  0  0  0
 18 11  1  0  0  0  0
 19 11  1  0  0  0  0
 21 12  1  0  0  0  0
 24 14  1  0  0  0  0
 26  5  1  0  0  0  0
 27 26  1  0  0  0  0
 28 27  2  0  0  0  0
 29 28  1  0  0  0  0
 29 30  1  0  0  0  0
 30 26  2  0  0  0  0
 31 28  1  0  0  0  0
 32 33  1  0  0  0  0
 33 34  1  0  0  0  0
 34 29  1  0  0  0  0
 34 35  2  0  0  0  0
 35 36  1  0  0  0  0
 37 35  1  0  0  0  0
 37 38  1  0  0  0  0
 39 37  2  0  0  0  0
 40 33  2  0  0  0  0
 40 39  1  0  0  0  0
M  END
>  <minimizedAffinity>
-5.75023794

$$$$

 OpenBabel03242519263D

 40 43  0  0  0  0  0  0  0  0999 V2000
   40.5540   32.7890   39.3970 C   0  0  0  0  0  0  0  0  0  0  0  0
   39.5480   33.6990   39.7870 C   0  0  0  0  0  0  0  0  0  0  0  0
   38.5320   33.2930   40.6780 C   0  0  0  0  0  0  0  0  0  0  0  0
   38.5990   31.9970   41.1160 N   0  0  0  0  0  0  0  0  0  0  0  0
   39.5930   31.1430   40.7130 C   0  0  0  0  0  0  0  0  0  0  0  0
   40.5370   31.5450   39.8770 N   0  0  0  0  0  0  0  0  0  0  0  0
   39.4240   34.7310   39.4900 H   0  0  0  0  0  0  0  0  0  0  0  0
   37.7480   33.9280   41.0090 H   0  0  0  0  0  0  0  0  0  0  0  0
   41.5530   33.3290   38.4620 C   0  0  0  0  0  0  0  0  0  0  0  0
   41.8070   32.4680   37.3080 C   0  0  0  0  0  0  0  0  0  0  0  0
   43.1590   31.8630   37.2740 C   0  0  0  0  0  0  0  0  0  0  0  0
   44.2740   32.8870   37.4290 C   0  0  0  0  0  0  0  0  0  0  0  0
   43.9650   33.9960   38.3950 C   0  0  0  0  0  0  0  0  0  0  0  0
   42.8130   33.6090   39.3010 C   0  0  0  0  0  0  0  0  0  0  0  0
   41.2510   34.3610   38.1160 H   0  0  0  0  0  0  0  0  0  0  0  0
   41.0740   31.6290   37.3230 H   0  0  0  0  0  0  0  0  0  0  0  0
   41.6210   32.9640   36.3100 H   0  0  0  0  0  0  0  0  0  0  0  0
   43.3550   31.0190   37.9270 H   0  0  0  0  0  0  0  0  0  0  0  0
   43.3000   31.4620   36.2260 H   0  0  0  0  0  0  0  0  0  0  0  0
   45.1680   32.3630   37.8420 H   0  0  0  0  0  0  0  0  0  0  0  0
   44.5510   33.3470   36.4440 H   0  0  0  0  0  0  0  0  0  0  0  0
   44.8100   34.2410   39.0680 H   0  0  0  0  0  0  0  0  0  0  0  0
   43.6730   34.9420   37.8880 H   0  0  0  0  0  0  0  0  0  0  0  0
   43.0680   32.7600   39.9560 H   0  0  0  0  0  0  0  0  0  0  0  0
   42.5690   34.4790   39.9360 H   0  0  0  0  0  0  0  0  0  0  0  0
   39.5070   29.7940   41.2690 C   0  0  0  0  0  0  0  0  0  0  0  0
   40.1660   29.5590   42.4250 N   0  0  0  0  0  0  0  0  0  0  0  0
   39.9790   28.2830   42.7980 C   0  0  0  0  0  0  0  0  0  0  0  0
   39.1870   27.7230   41.8480 N   0  0  0  0  0  0  0  0  0  0  0  0
   38.8940   28.6430   40.9080 N   0  0  0  0  0  0  0  0  0  0  0  0
   40.3480   27.7370   43.6610 H   0  0  0  0  0  0  0  0  0  0  0  0
   36.5440   27.3450   43.1960 Cl  0  0  0  0  0  0  0  0  0  0  0  0
   37.4470   26.1270   42.3210 C   0  0  0  0  0  0  0  0  0  0  0  0
   38.6690   26.4000   41.7270 C   0  0  0  0  0  0  0  0  0  0  0  0
   39.4190   25.4760   41.0280 C   0  0  0  0  0  0  0  0  0  0  0  0
   40.3660   25.7600   40.5900 H   0  0  0  0  0  0  0  0  0  0  0  0
   38.8950   24.1990   40.9250 C   0  0  0  0  0  0  0  0  0  0  0  0
   39.4790   23.4710   40.3780 H   0  0  0  0  0  0  0  0  0  0  0  0
   37.6790   23.9230   41.5140 C   0  0  0  0  0  3  0  0  0  0  0  0
   36.9320   24.8480   42.2130 C   0  0  0  0  0  3  0  0  0  0  0  0
  1  2  2  0  0  0  0
  1  6  1  0  0  0  0
  2  3  1  0  0  0  0
  3  8  1  0  0  0  0
  3  4  2  0  0  0  0
  5  4  1  0  0  0  0
  5 26  1  0  0  0  0
  6  5  2  0  0  0  0
  7  2  1  0  0  0  0
  9 14  1  0  0  0  0
  9  1  1  0  0  0  0
 10 16  1  0  0  0  0
 10  9  1  0  0  0  0
 11 10  1  0  0  0  0
 11 12  1  0  0  0  0
 11 18  1  0  0  0  0
 12 20  1  0  0  0  0
 12 13  1  0  0  0  0
 13 22  1  0  0  0  0
 13 14  1  0  0  0  0
 14 25  1  0  0  0  0
 14 24  1  0  0  0  0
 15  9  1  0  0  0  0
 17 10  1  0  0  0  0
 19 11  1  0  0  0  0
 21 12  1  0  0  0  0
 23 13  1  0  0  0  0
 26 27  1  0  0  0  0
 27 28  2  0  0  0  0
 28 31  1  0  0  0  0
 29 28  1  0  0  0  0
 30 26  2  0  0  0  0
 30 29  1  0  0  0  0
 33 32  1  0  0  0  0
 34 29  1  0  0  0  0
 34 33  2  0  0  0  0
 35 34  1  0  0  0  0
 36 35  1  0  0  0  0
 37 35  2  0  0  0  0
 37 39  1  0  0  0  0
 38 37  1  0  0  0  0
 39 40  2  0  0  0  0
 40 33  1  0  0  0  0
M  END
>  <minimizedAffinity>
-5.65638447

$$$$

 OpenBabel03242519263D

 40 43  0  0  0  0  0  0  0  0999 V2000
   36.5700   24.5450   39.8800 C   0  0  0  0  0  0  0  0  0  0  0  0
   37.1030   23.6660   40.8470 C   0  0  0  0  0  0  0  0  0  0  0  0
   37.7480   24.1790   41.9920 C   0  0  0  0  0  0  0  0  0  0  0  0
   37.8130   25.5440   42.0850 N   0  0  0  0  0  0  0  0  0  0  0  0
   37.2830   26.3640   41.1240 C   0  0  0  0  0  0  0  0  0  0  0  0
   36.6810   25.8620   40.0570 N   0  0  0  0  0  0  0  0  0  0  0  0
   37.0950   22.5850   40.8500 H   0  0  0  0  0  0  0  0  0  0  0  0
   38.1700   23.5720   42.7550 H   0  0  0  0  0  0  0  0  0  0  0  0
   35.9270   23.8900   38.7310 C   0  0  0  0  0  0  0  0  0  0  0  0
   35.5290   24.8160   37.6710 C   0  0  0  0  0  0  0  0  0  0  0  0
   34.0640   24.9560   37.4920 C   0  0  0  0  0  0  0  0  0  0  0  0
   33.3530   23.6210   37.3270 C   0  0  0  0  0  0  0  0  0  0  0  0
   33.9090   22.5150   38.1790 C   0  0  0  0  0  0  0  0  0  0  0  0
   34.7500   23.0810   39.3060 C   0  0  0  0  0  0  0  0  0  0  0  0
   36.5980   23.0860   38.3100 H   0  0  0  0  0  0  0  0  0  0  0  0
   35.9260   25.8270   37.9160 H   0  0  0  0  0  0  0  0  0  0  0  0
   35.9830   24.5890   36.6620 H   0  0  0  0  0  0  0  0  0  0  0  0
   33.5210   25.5650   38.2080 H   0  0  0  0  0  0  0  0  0  0  0  0
   33.9160   25.4700   36.4960 H   0  0  0  0  0  0  0  0  0  0  0  0
   32.2940   23.7520   37.6500 H   0  0  0  0  0  0  0  0  0  0  0  0
   33.3620   23.2780   36.2580 H   0  0  0  0  0  0  0  0  0  0  0  0
   33.1270   21.9000   38.6670 H   0  0  0  0  0  0  0  0  0  0  0  0
   34.5610   21.8160   37.6110 H   0  0  0  0  0  0  0  0  0  0  0  0
   34.1500   23.6760   40.0150 H   0  0  0  0  0  0  0  0  0  0  0  0
   35.2010   22.2360   39.8550 H   0  0  0  0  0  0  0  0  0  0  0  0
   37.4490   27.7950   41.3770 C   0  0  0  0  0  0  0  0  0  0  0  0
   37.3410   28.2130   42.6570 N   0  0  0  0  0  0  0  0  0  0  0  0
   37.5250   29.5410   42.7150 C   0  0  0  0  0  0  0  0  0  0  0  0
   37.7520   29.9470   41.4390 N   0  0  0  0  0  0  0  0  0  0  0  0
   37.7060   28.8830   40.6140 N   0  0  0  0  0  0  0  0  0  0  0  0
   37.5110   30.2220   43.5600 H   0  0  0  0  0  0  0  0  0  0  0  0
   40.3850   31.0860   42.2850 Cl  0  0  0  0  0  0  0  0  0  0  0  0
   39.2070   31.8550   41.2420 C   0  0  0  0  0  0  0  0  0  0  0  0
   38.0100   31.2440   40.9050 C   0  0  0  0  0  0  0  0  0  0  0  0
   37.0500   31.8070   40.0890 C   0  0  0  0  0  0  0  0  0  0  0  0
   36.1380   31.2720   39.8680 H   0  0  0  0  0  0  0  0  0  0  0  0
   37.3240   33.0660   39.5840 C   0  0  0  0  0  0  0  0  0  0  0  0
   36.5750   33.5130   38.9430 H   0  0  0  0  0  0  0  0  0  0  0  0
   38.5150   33.6780   39.9160 C   0  0  0  0  0  3  0  0  0  0  0  0
   39.4730   33.1130   40.7330 C   0  0  0  0  0  3  0  0  0  0  0  0
  1  6  2  0  0  0  0
  1  2  1  0  0  0  0
  2  7  1  0  0  0  0
  2  3  2  0  0  0  0
  3  4  1  0  0  0  0
  3  8  1  0  0  0  0
  5 26  1  0  0  0  0
  5  4  2  0  0  0  0
  6  5  1  0  0  0  0
  9 14  1  0  0  0  0
  9  1  1  0  0  0  0
 10 16  1  0  0  0  0
 10  9  1  0  0  0  0
 11 10  1  0  0  0  0
 11 18  1  0  0  0  0
 12 11  1  0  0  0  0
 12 20  1  0  0  0  0
 12 13  1  0  0  0  0
 13 22  1  0  0  0  0
 13 14  1  0  0  0  0
 14 25  1  0  0  0  0
 14 24  1  0  0  0  0
 15  9  1  0  0  0  0
 17 10  1  0  0  0  0
 19 11  1  0  0  0  0
 21 12  1  0  0  0  0
 23 13  1  0  0  0  0
 26 27  1  0  0  0  0
 27 28  2  0  0  0  0
 28 31  1  0  0  0  0
 29 28  1  0  0  0  0
 30 26  2  0  0  0  0
 30 29  1  0  0  0  0
 33 32  1  0  0  0  0
 34 33  1  0  0  0  0
 34 29  1  0  0  0  0
 35 34  2  0  0  0  0
 36 35  1  0  0  0  0
 37 39  2  0  0  0  0
 37 35  1  0  0  0  0
 38 37  1  0  0  0  0
 39 40  1  0  0  0  0
 40 33  2  0  0  0  0
M  END
>  <minimizedAffinity>
-5.63191652

$$$$
