
 OpenBabel03242523393D

 37 41  0  0  1  0  0  0  0  0999 V2000
   46.7900   32.6580   45.0550 C   0  0  2  0  0  0  0  0  0  0  0  0
   47.3970   31.5390   44.9740 N   0  0  2  0  0  4  0  0  0  0  0  0
   47.4000   30.3060   44.7510 C   0  0  0  0  0  0  0  0  0  0  0  0
   47.7970   30.1900   46.0600 N   0  0  0  0  0  0  0  0  0  0  0  0
   47.0150   30.9610   46.8920 C   0  0  2  0  0  3  0  0  0  0  0  0
   46.8060   30.4300   48.1980 C   0  0  0  0  0  0  0  0  0  0  0  0
   45.9920   31.1260   49.0040 C   0  0  0  0  0  0  0  0  0  0  0  0
   45.3690   32.2790   48.6620 C   0  0  0  0  0  0  0  0  0  0  0  0
   45.6650   32.6840   47.3570 C   0  0  0  0  0  0  0  0  0  0  0  0
   46.4630   32.1430   46.3540 C   0  0  1  0  0  0  0  0  0  0  0  0
   47.6720   33.3990   45.4270 H   0  0  0  0  0  0  0  0  0  0  0  0
   48.2520   31.7910   44.3130 H   0  0  0  0  0  0  0  0  0  0  0  0
   46.4390   29.7840   44.5510 H   0  0  0  0  0  0  0  0  0  0  0  0
   48.1120   29.7120   44.0950 H   0  0  0  0  0  0  0  0  0  0  0  0
   48.6100   29.5730   46.3900 H   0  0  0  0  0  0  0  0  0  0  0  0
   47.2650   29.5280   48.5430 H   0  0  0  0  0  0  0  0  0  0  0  0
   45.8360   30.7070   50.0150 H   0  0  0  0  0  0  0  0  0  0  0  0
   44.7380   32.7770   49.3440 H   0  0  0  0  0  0  0  0  0  0  0  0
   45.0990   33.6040   47.2290 H   0  0  0  0  0  0  0  0  0  0  0  0
   44.5240   35.5810   45.0620 C   0  0  0  0  0  0  0  0  0  0  0  0
   44.2510   35.5730   43.6770 C   0  0  0  0  0  0  0  0  0  0  0  0
   44.8420   34.5790   42.9230 C   0  0  0  0  0  0  0  0  0  0  0  0
   45.6330   33.6970   43.5780 N   0  0  0  0  0  0  0  0  0  0  0  0
   45.8870   33.7220   44.9210 C   0  0  0  0  0  0  0  0  0  0  0  0
   45.3090   34.6590   45.5380 N   0  0  0  0  0  0  0  0  0  0  0  0
   44.0920   36.3330   45.7090 H   0  0  0  0  0  0  0  0  0  0  0  0
   43.5960   36.3540   43.3170 H   0  0  0  0  0  0  0  0  0  0  0  0
   44.5010   34.5490   41.2040 S   0  0  0  0  0  0  0  0  0  0  0  0
   42.3890   35.3520   38.9260 Cl  0  0  0  0  0  0  0  0  0  0  0  0
   42.0940   33.9610   39.9270 C   0  0  0  0  0  0  0  0  0  0  0  0
   42.9940   33.5930   40.9210 C   0  0  0  0  0  0  0  0  0  0  0  0
   42.7200   32.4740   41.6970 C   0  0  0  0  0  0  0  0  0  0  0  0
   43.4280   32.1800   42.4840 H   0  0  0  0  0  0  0  0  0  0  0  0
   41.5770   31.7290   41.5000 C   0  0  0  0  0  0  0  0  0  0  0  0
   41.4000   30.8680   42.1250 H   0  0  0  0  0  0  0  0  0  0  0  0
   40.7030   32.1260   40.5020 C   0  0  0  0  0  3  0  0  0  0  0  0
   40.9440   33.2260   39.7150 C   0  0  0  0  0  3  0  0  0  0  0  0
  1 11  1  1  0  0  0
  1 10  1  0  0  0  0
  2 12  1  1  0  0  0
  2  1  1  0  0  0  0
  2 10  1  0  0  0  0
  3  2  1  0  0  0  0
  3  4  1  0  0  0  0
  4 15  1  0  0  0  0
  4  5  1  0  0  0  0
  5  6  1  6  0  0  0
  6 16  1  0  0  0  0
  6  7  2  0  0  0  0
  7 17  1  0  0  0  0
  8  7  1  0  0  0  0
  8 18  1  0  0  0  0
  9  8  2  0  0  0  0
 10  5  1  0  0  0  0
 10  9  1  6  0  0  0
 13  3  1  0  0  0  0
 14  3  1  0  0  0  0
 19  9  1  0  0  0  0
 20 25  1  0  0  0  0
 20 26  1  0  0  0  0
 21 20  2  0  0  0  0
 22 23  2  0  0  0  0
 22 21  1  0  0  0  0
 23 24  1  0  0  0  0
 24  1  1  0  0  0  0
 24 25  2  0  0  0  0
 27 21  1  0  0  0  0
 28 22  1  0  0  0  0
 29 30  1  0  0  0  0
 30 31  1  0  0  0  0
 31 28  1  0  0  0  0
 31 32  2  0  0  0  0
 32 33  1  0  0  0  0
 34 32  1  0  0  0  0
 34 35  1  0  0  0  0
 36 34  2  0  0  0  0
 37 30  2  0  0  0  0
 37 36  1  0  0  0  0
M  END
>  <minimizedAffinity>
-5.90290689

>  <minimizedRMSD>
0.291281283

$$$$
