
 OpenBabel03252500433D

 34 36  0  0  1  0  0  0  0  0999 V2000
   47.5750   35.2260   41.6810 C   0  0  1  0  0  0  0  0  0  0  0  0
   49.0790   35.4170   41.5490 C   0  0  0  0  0  0  0  0  0  0  0  0
   48.2600   34.9110   40.3830 C   0  0  1  0  0  0  0  0  0  0  0  0
   47.0640   36.2170   41.7300 H   0  0  0  0  0  0  0  0  0  0  0  0
   49.7400   34.6780   42.0660 H   0  0  0  0  0  0  0  0  0  0  0  0
   49.5210   36.4060   41.4490 H   0  0  0  0  0  0  0  0  0  0  0  0
   48.1790   35.6030   39.5130 H   0  0  0  0  0  0  0  0  0  0  0  0
   47.1390   34.0580   42.4670 C   0  0  0  0  0  0  0  0  0  0  0  0
   46.6430   33.3140   41.7840 H   0  0  0  0  0  0  0  0  0  0  0  0
   48.0170   33.5050   42.8920 H   0  0  0  0  0  0  0  0  0  0  0  0
   46.2760   34.3720   43.6180 C   0  0  0  0  0  0  0  0  0  0  0  0
   45.4810   35.4690   43.4220 C   0  0  0  0  0  0  0  0  0  0  0  0
   44.6100   35.9000   44.4390 C   0  0  0  0  0  0  0  0  0  0  0  0
   44.6310   35.1460   45.5950 N   0  0  0  0  0  0  0  0  0  0  0  0
   45.4240   34.0690   45.7590 C   0  0  0  0  0  0  0  0  0  0  0  0
   46.2310   33.6980   44.7750 N   0  0  0  0  0  0  0  0  0  0  0  0
   45.3170   36.1650   42.6100 H   0  0  0  0  0  0  0  0  0  0  0  0
   43.9250   36.7330   44.4500 H   0  0  0  0  0  0  0  0  0  0  0  0
   45.3470   33.5630   46.7120 H   0  0  0  0  0  0  0  0  0  0  0  0
   48.3830   33.5890   40.0460 O   0  0  0  0  0  0  0  0  0  0  0  0
   48.3580   34.6240   37.5870 O   0  0  0  0  0  0  0  0  0  0  0  0
   48.5470   33.3470   38.3890 P   0  0  1  0  0  0  0  0  0  0  0  0
   50.1310   32.7820   38.0900 O   0  0  0  0  0  0  0  0  0  0  0  0
   50.8110   33.4710   38.2670 H   0  0  0  0  0  0  0  0  0  0  0  0
   47.4470   32.1560   37.9030 O   0  0  0  0  0  0  0  0  0  0  0  0
   44.8230   33.2580   37.2530 Cl  0  0  0  0  0  0  0  0  0  0  0  0
   45.8830   32.3350   36.2110 C   0  0  0  0  0  0  0  0  0  0  0  0
   47.1160   31.8450   36.5920 C   0  0  0  0  0  0  0  0  0  0  0  0
   47.8940   31.1250   35.7090 C   0  0  0  0  0  0  0  0  0  0  0  0
   48.8410   30.7750   36.0730 H   0  0  0  0  0  0  0  0  0  0  0  0
   47.3930   30.9110   34.4260 C   0  0  0  0  0  0  0  0  0  0  0  0
   48.0260   30.3390   33.7470 H   0  0  0  0  0  0  0  0  0  0  0  0
   46.1550   31.4010   34.0370 C   0  0  0  0  0  0  0  0  0  0  0  0
   45.3710   32.1310   34.9370 C   0  0  0  0  0  0  0  0  0  0  0  0
  1  4  1  1  0  0  0
  1  8  1  0  0  0  0
  2  1  1  0  0  0  0
  2  5  1  0  0  0  0
  3  7  1  6  0  0  0
  3  2  1  0  0  0  0
  3  1  1  0  0  0  0
  6  2  1  0  0  0  0
  8 10  1  0  0  0  0
  8 11  1  0  0  0  0
  9  8  1  0  0  0  0
 11 16  1  0  0  0  0
 12 11  2  0  0  0  0
 12 13  1  0  0  0  0
 13 18  1  0  0  0  0
 13 14  2  0  0  0  0
 14 15  1  0  0  0  0
 15 19  1  0  0  0  0
 16 15  2  0  0  0  0
 17 12  1  0  0  0  0
 20  3  1  0  0  0  0
 22 21  2  6  0  0  0
 22 20  1  0  0  0  0
 23 24  1  0  0  0  0
 23 22  1  0  0  0  0
 25 22  1  0  0  0  0
 27 28  1  0  0  0  0
 27 26  1  0  0  0  0
 28 25  1  0  0  0  0
 29 30  1  0  0  0  0
 29 28  2  0  0  0  0
 31 29  1  0  0  0  0
 32 31  1  0  0  0  0
 33 31  2  0  0  0  0
 33 34  1  0  0  0  0
 34 27  2  0  0  0  0
M  END
>  <minimizedAffinity>
-5.18007565

>  <minimizedRMSD>
0.847075462

$$$$
