
 OpenBabel03252506373D

 44 47  0  0  1  0  0  0  0  0999 V2000
   44.4830   35.6930   45.0310 C   0  0  0  0  0  0  0  0  0  0  0  0
   45.1240   35.6520   43.7830 C   0  0  0  0  0  0  0  0  0  0  0  0
   46.0160   34.6640   43.5320 C   0  0  0  0  0  0  0  0  0  0  0  0
   46.2340   33.7630   44.5190 N   0  0  0  0  0  0  0  0  0  0  0  0
   45.6260   33.8070   45.6960 C   0  0  0  0  0  0  0  0  0  0  0  0
   44.7460   34.7660   45.9670 N   0  0  0  0  0  0  0  0  0  0  0  0
   45.9390   32.8010   46.6740 N   0  0  0  0  0  0  0  0  0  0  0  0
   45.2050   32.5880   47.8660 C   0  0  0  0  0  0  0  0  0  0  0  0
   46.2790   32.2230   48.8760 C   0  0  0  0  0  0  0  0  0  0  0  0
   47.5500   32.0830   48.1000 C   0  0  0  0  0  0  0  0  0  0  0  0
   47.0410   31.8610   46.6750 C   0  0  1  0  0  0  0  0  0  0  0  0
   43.7720   36.4930   45.2080 H   0  0  0  0  0  0  0  0  0  0  0  0
   46.5220   34.6090   42.5830 H   0  0  0  0  0  0  0  0  0  0  0  0
   44.3670   31.9780   47.9690 H   0  0  0  0  0  0  0  0  0  0  0  0
   44.8700   33.6170   48.2170 H   0  0  0  0  0  0  0  0  0  0  0  0
   46.0350   31.1910   49.2650 H   0  0  0  0  0  0  0  0  0  0  0  0
   46.3160   32.8630   49.7540 H   0  0  0  0  0  0  0  0  0  0  0  0
   48.1410   31.2340   48.4540 H   0  0  0  0  0  0  0  0  0  0  0  0
   48.0930   33.0600   48.1860 H   0  0  0  0  0  0  0  0  0  0  0  0
   47.8510   32.1530   45.9990 H   0  0  0  0  0  0  0  0  0  0  0  0
   44.7900   36.6800   42.8360 N   0  0  0  0  0  0  0  0  0  0  0  0
   45.6210   36.9760   42.2610 H   0  0  0  0  0  0  0  0  0  0  0  0
   43.8830   37.1230   42.6750 H   0  0  0  0  0  0  0  0  0  0  0  0
   46.4850   30.1810   46.5140 S   0  0  0  0  0  0  0  0  0  0  0  0
   46.5430   30.1850   43.1780 O   0  0  0  0  0  0  0  0  0  0  0  0
   45.6040   29.8480   43.9170 C   0  0  0  0  0  0  0  0  0  0  0  0
   45.2270   29.8670   45.3480 C   0  0  1  0  0  0  0  0  0  0  0  0
   44.5200   28.5420   45.5000 C   0  0  0  0  0  0  0  0  0  0  0  0
   43.5350   28.6970   44.3390 C   0  0  0  0  0  0  0  0  0  0  0  0
   44.4460   29.2280   43.3310 N   0  0  0  0  0  0  0  0  0  0  0  0
   44.3470   30.5720   45.3090 H   0  0  0  0  0  0  0  0  0  0  0  0
   44.0350   28.4020   46.4650 H   0  0  0  0  0  0  0  0  0  0  0  0
   45.2380   27.7500   45.2290 H   0  0  0  0  0  0  0  0  0  0  0  0
   43.1840   27.7090   44.0010 H   0  0  0  0  0  0  0  0  0  0  0  0
   42.7160   29.3910   44.5930 H   0  0  0  0  0  0  0  0  0  0  0  0
   43.1470   31.6570   42.3530 Cl  0  0  0  0  0  0  0  0  0  0  0  0
   43.4910   30.2240   41.4030 C   0  0  0  0  0  0  0  0  0  0  0  0
   44.1170   29.0880   41.9300 C   0  0  0  0  0  0  0  0  0  0  0  0
   44.3770   27.9730   41.1630 C   0  0  0  0  0  0  0  0  0  0  0  0
   44.8650   27.1440   41.6570 H   0  0  0  0  0  0  0  0  0  0  0  0
   43.9950   27.9970   39.8230 C   0  0  0  0  0  0  0  0  0  0  0  0
   44.2050   27.1100   39.2270 H   0  0  0  0  0  0  0  0  0  0  0  0
   43.3740   29.1200   39.2970 C   0  0  0  0  0  3  0  0  0  0  0  0
   43.1150   30.2350   40.0650 C   0  0  0  0  0  3  0  0  0  0  0  0
  1 12  1  0  0  0  0
  1  6  1  0  0  0  0
  2  1  2  0  0  0  0
  3  2  1  0  0  0  0
  3  4  2  0  0  0  0
  4  5  1  0  0  0  0
  5  6  2  0  0  0  0
  5  7  1  0  0  0  0
  7 11  1  0  0  0  0
  7  8  1  0  0  0  0
  8 14  1  0  0  0  0
  8 15  1  0  0  0  0
  8  9  1  0  0  0  0
  9 16  1  0  0  0  0
  9 17  1  0  0  0  0
 10 19  1  0  0  0  0
 10 18  1  0  0  0  0
 10  9  1  0  0  0  0
 11 20  1  6  0  0  0
 11 10  1  0  0  0  0
 13  3  1  0  0  0  0
 21  2  1  0  0  0  0
 22 21  1  0  0  0  0
 23 21  1  0  0  0  0
 24 11  1  0  0  0  0
 25 26  2  0  0  0  0
 26 27  1  0  0  0  0
 27 31  1  1  0  0  0
 27 28  1  0  0  0  0
 27 24  1  0  0  0  0
 28 32  1  0  0  0  0
 29 35  1  0  0  0  0
 29 28  1  0  0  0  0
 30 26  1  0  0  0  0
 30 29  1  0  0  0  0
 33 28  1  0  0  0  0
 34 29  1  0  0  0  0
 37 38  1  0  0  0  0
 37 36  1  0  0  0  0
 38 30  1  0  0  0  0
 39 40  1  0  0  0  0
 39 38  2  0  0  0  0
 41 39  1  0  0  0  0
 42 41  1  0  0  0  0
 43 41  2  0  0  0  0
 43 44  1  0  0  0  0
 44 37  2  0  0  0  0
M  END
>  <minimizedAffinity>
-5.12786388

>  <minimizedRMSD>
1.22521627

$$$$
