
 OpenBabel03242521103D

 19 20  0  0  0  0  0  0  0  0999 V2000
   45.3880   32.8540   47.5600 S   0  0  0  0  0  0  0  0  0  0  0  0
   45.1860   35.1690   44.2600 C   0  0  0  0  0  0  0  0  0  0  0  0
   46.2480   34.6150   43.4810 C   0  0  0  0  0  0  0  0  0  0  0  0
   46.9620   33.5550   44.0310 C   0  0  0  0  0  0  0  0  0  0  0  0
   46.6290   33.0970   45.2620 N   0  0  0  0  0  0  0  0  0  0  0  0
   45.6050   33.6470   45.9860 C   0  0  0  0  0  0  0  0  0  0  0  0
   44.9020   34.6720   45.4730 N   0  0  0  0  0  0  0  0  0  0  0  0
   44.5770   35.9920   43.9150 H   0  0  0  0  0  0  0  0  0  0  0  0
   46.4240   35.0620   42.5130 H   0  0  0  0  0  0  0  0  0  0  0  0
   47.7520   33.1510   43.4450 H   0  0  0  0  0  0  0  0  0  0  0  0
   45.0700   29.8320   46.7790 Cl  0  0  0  0  0  0  0  0  0  0  0  0
   46.5380   30.4170   47.5570 C   0  0  0  0  0  0  0  0  0  0  0  0
   46.7330   31.7350   47.9220 C   0  0  0  0  0  0  0  0  0  0  0  0
   47.9250   32.0780   48.5260 C   0  0  0  0  0  0  0  0  0  0  0  0
   48.0080   33.1430   48.7870 H   0  0  0  0  0  0  0  0  0  0  0  0
   48.9070   31.1400   48.7650 C   0  0  0  0  0  0  0  0  0  0  0  0
   49.8250   31.4630   49.2430 H   0  0  0  0  0  0  0  0  0  0  0  0
   48.6870   29.8120   48.3870 C   0  0  0  0  0  0  0  0  0  0  0  0
   47.4900   29.4300   47.7730 C   0  0  0  0  0  0  0  0  0  0  0  0
  1 13  1  0  0  0  0
  2  7  1  0  0  0  0
  3  4  1  0  0  0  0
  3  2  2  0  0  0  0
  4  5  2  0  0  0  0
  5  6  1  0  0  0  0
  6  1  1  0  0  0  0
  7  6  2  0  0  0  0
  8  2  1  0  0  0  0
  9  3  1  0  0  0  0
 10  4  1  0  0  0  0
 11 12  1  0  0  0  0
 12 19  2  0  0  0  0
 12 13  1  0  0  0  0
 13 14  2  0  0  0  0
 14 16  1  0  0  0  0
 14 15  1  0  0  0  0
 16 17  1  0  0  0  0
 18 16  2  0  0  0  0
 19 18  1  0  0  0  0
M  END
>  <minimizedAffinity>
-4.01584578

>  <minimizedRMSD>
2.44186258

$$$$
