
 OpenBabel03242523103D

 46 50  0  0  1  0  0  0  0  0999 V2000
   45.1350   36.0700   43.4870 C   0  0  0  0  0  0  0  0  0  0  0  0
   45.9050   34.9200   43.3040 C   0  0  0  0  0  0  0  0  0  0  0  0
   45.9870   34.0100   44.3100 C   0  0  0  0  0  0  0  0  0  0  0  0
   45.2980   34.2910   45.4370 N   0  0  0  0  0  0  0  0  0  0  0  0
   44.5580   35.3790   45.6360 C   0  0  0  0  0  0  0  0  0  0  0  0
   44.4810   36.2580   44.6610 N   0  0  0  0  0  0  0  0  0  0  0  0
   45.0640   36.8010   42.6920 H   0  0  0  0  0  0  0  0  0  0  0  0
   43.9930   35.6410   46.5200 H   0  0  0  0  0  0  0  0  0  0  0  0
   46.5330   34.7640   42.0670 N   0  0  0  0  0  0  0  0  0  0  0  0
   47.8530   35.1420   41.8140 C   0  0  0  0  0  0  0  0  0  0  0  0
   48.3830   34.7110   40.4620 C   0  0  0  0  0  0  0  0  0  0  0  0
   47.9890   33.4600   40.0350 N   0  0  0  0  0  0  0  0  0  0  0  0
   46.6690   33.0930   40.2430 C   0  0  0  0  0  0  0  0  0  0  0  0
   45.8980   34.2020   40.9100 C   0  0  0  0  0  0  0  0  0  0  0  0
   47.9150   36.2640   41.8230 H   0  0  0  0  0  0  0  0  0  0  0  0
   48.5930   34.8390   42.6050 H   0  0  0  0  0  0  0  0  0  0  0  0
   48.0820   35.4840   39.7070 H   0  0  0  0  0  0  0  0  0  0  0  0
   49.4980   34.7520   40.5340 H   0  0  0  0  0  0  0  0  0  0  0  0
   48.6640   32.7630   39.7260 H   0  0  0  0  0  0  0  0  0  0  0  0
   46.4660   32.1460   40.7850 H   0  0  0  0  0  0  0  0  0  0  0  0
   46.1660   32.9390   39.2470 H   0  0  0  0  0  0  0  0  0  0  0  0
   45.6320   34.9970   40.1690 H   0  0  0  0  0  0  0  0  0  0  0  0
   44.9280   33.7730   41.2500 H   0  0  0  0  0  0  0  0  0  0  0  0
   46.6600   32.3170   45.8080 C   0  0  0  0  0  0  0  0  0  0  0  0
   46.6730   32.7980   44.4780 C   0  0  0  0  0  0  0  0  0  0  0  0
   47.3640   31.9540   43.6310 C   0  0  0  0  0  0  0  0  0  0  0  0
   47.9770   30.7850   43.9780 C   0  0  0  0  0  0  0  0  0  0  0  0
   47.9250   30.3730   45.2870 C   0  0  0  0  0  0  0  0  0  0  0  0
   47.2590   31.1510   46.2060 C   0  0  0  0  0  0  0  0  0  0  0  0
   48.6140   29.1810   45.3500 O   0  0  0  0  0  0  0  0  0  0  0  0
   49.0920   28.8580   44.0550 C   0  0  2  0  0  0  0  0  0  0  0  0
   48.6760   29.9100   43.1900 O   0  0  0  0  0  0  0  0  0  0  0  0
   46.2040   32.7430   46.7040 H   0  0  0  0  0  0  0  0  0  0  0  0
   47.3810   32.3070   42.6480 H   0  0  0  0  0  0  0  0  0  0  0  0
   47.2780   30.7420   47.1990 H   0  0  0  0  0  0  0  0  0  0  0  0
   50.1940   28.7760   44.0540 H   0  0  0  0  0  0  0  0  0  0  0  0
   48.4870   27.7060   43.6450 O   0  0  0  0  0  0  0  0  0  0  0  0
   45.4340   28.3970   43.4480 Cl  0  0  0  0  0  0  0  0  0  0  0  0
   46.1400   26.9410   44.1050 C   0  0  0  0  0  0  0  0  0  0  0  0
   47.5130   26.8980   44.0680 C   0  0  0  0  0  0  0  0  0  0  0  0
   48.0630   25.7210   44.6000 C   0  0  0  0  0  0  0  0  0  0  0  0
   49.1330   25.4590   44.6790 H   0  0  0  0  0  0  0  0  0  0  0  0
   47.2890   24.6940   45.1180 C   0  0  0  0  0  0  0  0  0  0  0  0
   47.6610   23.7740   45.5370 H   0  0  0  0  0  0  0  0  0  0  0  0
   45.9280   24.8290   45.1110 C   0  0  0  0  0  0  0  0  0  0  0  0
   45.3390   25.9510   44.6070 C   0  0  0  0  0  0  0  0  0  0  0  0
  1  6  1  0  0  0  0
  2  1  2  0  0  0  0
  2  3  1  0  0  0  0
  3 25  1  0  0  0  0
  3  4  2  0  0  0  0
  4  5  1  0  0  0  0
  5  8  1  0  0  0  0
  6  5  2  0  0  0  0
  7  1  1  0  0  0  0
  9  2  1  0  0  0  0
 10 15  1  0  0  0  0
 10  9  1  0  0  0  0
 10 16  1  0  0  0  0
 11 18  1  0  0  0  0
 11 10  1  0  0  0  0
 12 13  1  0  0  0  0
 12 11  1  0  0  0  0
 13 20  1  0  0  0  0
 13 14  1  0  0  0  0
 14 23  1  0  0  0  0
 14  9  1  0  0  0  0
 17 11  1  0  0  0  0
 19 12  1  0  0  0  0
 21 13  1  0  0  0  0
 22 14  1  0  0  0  0
 24 29  1  0  0  0  0
 24 33  1  0  0  0  0
 25 24  2  0  0  0  0
 26 27  2  0  0  0  0
 26 25  1  0  0  0  0
 27 28  1  0  0  0  0
 28 30  1  0  0  0  0
 28 29  2  0  0  0  0
 29 35  1  0  0  0  0
 31 36  1  6  0  0  0
 31 30  1  0  0  0  0
 32 27  1  0  0  0  0
 32 31  1  0  0  0  0
 34 26  1  0  0  0  0
 37 31  1  0  0  0  0
 37 40  1  0  0  0  0
 38 39  1  0  0  0  0
 39 46  1  0  0  0  0
 40 39  2  0  0  0  0
 40 41  1  0  0  0  0
 41 42  1  0  0  0  0
 41 43  2  0  0  0  0
 43 44  1  0  0  0  0
 45 43  1  0  0  0  0
 46 45  2  0  0  0  0
M  END
>  <minimizedAffinity>
-4.81321144

>  <minimizedRMSD>
2.41552615

$$$$
