
 OpenBabel03252506213D

 35 37  0  0  0  0  0  0  0  0999 V2000
   44.9970   35.9160   42.7970 C   0  0  0  0  0  0  0  0  0  0  0  0
   43.8940   35.8710   41.9400 C   0  0  0  0  0  0  0  0  0  0  0  0
   43.9200   34.9360   40.8960 C   0  0  0  0  0  0  0  0  0  0  0  0
   45.0040   34.1270   40.7670 N   0  0  0  0  0  0  0  0  0  0  0  0
   46.0510   34.2040   41.6190 C   0  0  0  0  0  0  0  0  0  0  0  0
   46.0520   35.0980   42.6360 N   0  0  0  0  0  0  0  0  0  0  0  0
   43.0360   36.5150   42.0460 H   0  0  0  0  0  0  0  0  0  0  0  0
   43.1210   34.8300   40.1930 H   0  0  0  0  0  0  0  0  0  0  0  0
   48.6620   35.5320   40.8950 Cl  0  0  0  0  0  0  0  0  0  0  0  0
   48.4140   33.8350   41.0740 C   0  0  0  0  0  0  0  0  0  0  0  0
   47.1910   33.2860   41.4070 C   0  0  0  0  0  0  0  0  0  0  0  0
   46.9550   31.9400   41.5580 C   0  0  0  0  0  0  0  0  0  0  0  0
   48.0150   31.1070   41.3600 C   0  0  0  0  0  0  0  0  0  0  0  0
   49.2850   31.5320   41.0230 C   0  0  0  0  0  0  0  0  0  0  0  0
   49.4260   32.9070   40.8930 C   0  0  0  0  0  0  0  0  0  0  0  0
   45.9670   31.5950   41.8210 H   0  0  0  0  0  0  0  0  0  0  0  0
   47.8680   30.0350   41.4700 H   0  0  0  0  0  0  0  0  0  0  0  0
   50.1160   30.8690   40.8690 H   0  0  0  0  0  0  0  0  0  0  0  0
   50.4100   33.2790   40.6290 H   0  0  0  0  0  0  0  0  0  0  0  0
   44.9930   36.8910   43.9020 C   0  0  0  0  0  3  0  0  0  0  0  0
   45.4030   38.1090   43.6440 C   0  0  0  0  0  3  0  0  0  0  0  0
   45.4190   39.1390   44.7310 C   0  0  0  0  0  0  0  0  0  0  0  0
   44.9470   38.7330   45.6500 H   0  0  0  0  0  0  0  0  0  0  0  0
   46.4820   39.4100   44.8920 H   0  0  0  0  0  0  0  0  0  0  0  0
   44.6280   40.2620   44.2890 N   0  0  0  0  0  0  0  0  0  0  0  0
   44.0490   40.2260   43.4180 H   0  0  0  0  0  0  0  0  0  0  0  0
   44.5920   39.9120   47.2250 Cl  0  0  0  0  0  0  0  0  0  0  0  0
   44.5950   41.4740   46.4260 C   0  0  0  0  0  0  0  0  0  0  0  0
   44.6120   41.4890   45.0480 C   0  0  0  0  0  0  0  0  0  0  0  0
   44.6150   42.6980   44.3550 C   0  0  0  0  0  0  0  0  0  0  0  0
   44.6290   42.7070   43.2740 H   0  0  0  0  0  0  0  0  0  0  0  0
   44.6000   43.8740   45.0790 C   0  0  0  0  0  0  0  0  0  0  0  0
   44.6020   44.8470   44.5730 H   0  0  0  0  0  0  0  0  0  0  0  0
   44.5830   43.8450   46.4650 C   0  0  0  0  0  3  0  0  0  0  0  0
   44.5800   42.6470   47.1780 C   0  0  0  0  0  3  0  0  0  0  0  0
  1 20  1  0  0  0  0
  2  7  1  0  0  0  0
  2  1  2  0  0  0  0
  3  2  1  0  0  0  0
  4  3  2  0  0  0  0
  4  5  1  0  0  0  0
  5  6  2  0  0  0  0
  6  1  1  0  0  0  0
  8  3  1  0  0  0  0
  9 10  1  0  0  0  0
 10 11  1  0  0  0  0
 11 12  2  0  0  0  0
 11  5  1  0  0  0  0
 12 16  1  0  0  0  0
 13 17  1  0  0  0  0
 13 12  1  0  0  0  0
 14 13  2  0  0  0  0
 15 14  1  0  0  0  0
 15 10  2  0  0  0  0
 18 14  1  0  0  0  0
 19 15  1  0  0  0  0
 21 20  2  0  0  0  0
 21 22  1  0  0  0  0
 22 24  1  0  0  0  0
 22 23  1  0  0  0  0
 25 22  1  0  0  0  0
 25 29  1  0  0  0  0
 26 25  1  0  0  0  0
 28 35  1  0  0  0  0
 28 27  1  0  0  0  0
 29 28  2  0  0  0  0
 30 29  1  0  0  0  0
 30 32  2  0  0  0  0
 31 30  1  0  0  0  0
 32 34  1  0  0  0  0
 33 32  1  0  0  0  0
 34 35  2  0  0  0  0
M  END
>  <minimizedAffinity>
-2.90573192

>  <minimizedRMSD>
0.775356591

$$$$
