
 OpenBabel03242522483D

 41 44  0  0  0  0  0  0  0  0999 V2000
   36.6630   29.7620   40.9050 C   0  0  0  0  0  0  0  0  0  0  0  0
   37.8390   30.2130   40.2820 C   0  0  0  0  0  0  0  0  0  0  0  0
   38.7270   29.2650   39.7380 C   0  0  0  0  0  0  0  0  0  0  0  0
   38.3920   27.9640   39.8510 N   0  0  0  0  0  0  0  0  0  0  0  0
   37.2530   27.5540   40.4570 C   0  0  0  0  0  0  0  0  0  0  0  0
   36.4080   28.4490   40.9730 N   0  0  0  0  0  0  0  0  0  0  0  0
   35.7670   30.7100   41.4490 N   0  0  0  0  0  0  0  0  0  0  0  0
   39.6320   29.5290   39.2530 H   0  0  0  0  0  0  0  0  0  0  0  0
   36.2030   31.4480   42.0360 H   0  0  0  0  0  0  0  0  0  0  0  0
   34.7450   30.5820   41.2090 H   0  0  0  0  0  0  0  0  0  0  0  0
   38.1770   31.6220   40.1760 C   0  0  0  0  0  0  0  0  0  0  0  0
   37.3480   32.6680   39.8300 C   0  0  0  0  0  0  0  0  0  0  0  0
   37.8210   33.9630   39.7730 C   0  0  0  0  0  0  0  0  0  0  0  0
   39.1590   34.2560   40.0630 C   0  0  0  0  0  0  0  0  0  0  0  0
   39.5440   35.5350   39.9840 N   0  0  0  0  0  0  0  0  0  0  0  0
   40.8360   35.8480   40.2580 C   0  0  0  0  0  0  0  0  0  0  0  0
   41.6840   34.8160   40.6070 C   0  0  0  0  0  0  0  0  0  0  0  0
   41.3020   33.4920   40.6930 C   0  0  0  0  0  0  0  0  0  0  0  0
   39.9810   33.2060   40.4080 C   0  0  0  0  0  0  0  0  0  0  0  0
   39.4980   31.9040   40.4650 C   0  0  0  0  0  0  0  0  0  0  0  0
   36.3310   32.3870   39.6180 H   0  0  0  0  0  0  0  0  0  0  0  0
   37.1290   34.7610   39.4940 H   0  0  0  0  0  0  0  0  0  0  0  0
   41.2030   36.8680   40.2100 H   0  0  0  0  0  0  0  0  0  0  0  0
   42.7310   34.9830   40.8410 H   0  0  0  0  0  0  0  0  0  0  0  0
   41.9940   32.7010   40.9700 H   0  0  0  0  0  0  0  0  0  0  0  0
   40.2350   31.1370   40.7500 H   0  0  0  0  0  0  0  0  0  0  0  0
   36.9780   26.0830   40.5350 C   0  0  0  0  0  0  0  0  0  0  0  0
   35.9370   25.9610   40.1640 H   0  0  0  0  0  0  0  0  0  0  0  0
   37.7140   25.4910   39.9780 H   0  0  0  0  0  0  0  0  0  0  0  0
   36.9440   25.6750   42.0130 C   0  0  0  0  0  0  0  0  0  0  0  0
   36.3650   26.4980   42.5230 H   0  0  0  0  0  0  0  0  0  0  0  0
   36.4580   24.6940   42.1360 H   0  0  0  0  0  0  0  0  0  0  0  0
   37.4540   27.7480   44.0930 Cl  0  0  0  0  0  0  0  0  0  0  0  0
   38.6380   26.6330   43.4500 C   0  0  0  0  0  0  0  0  0  0  0  0
   38.3550   25.6710   42.4760 C   0  0  0  0  0  0  0  0  0  0  0  0
   39.3290   24.8060   41.9980 C   0  0  0  0  0  0  0  0  0  0  0  0
   39.0330   24.0870   41.2420 H   0  0  0  0  0  0  0  0  0  0  0  0
   40.6350   24.8650   42.4760 C   0  0  0  0  0  0  0  0  0  0  0  0
   41.4010   24.2000   42.1150 H   0  0  0  0  0  0  0  0  0  0  0  0
   40.8510   25.8310   43.4330 C   0  0  0  0  0  3  0  0  0  0  0  0
   39.9430   26.7190   43.9540 C   0  0  0  0  0  3  0  0  0  0  0  0
  1  6  1  0  0  0  0
  1  7  1  0  0  0  0
  2  1  2  0  0  0  0
  3  4  2  0  0  0  0
  3  2  1  0  0  0  0
  4  5  1  0  0  0  0
  5 27  1  0  0  0  0
  5  6  2  0  0  0  0
  7  9  1  0  0  0  0
  8  3  1  0  0  0  0
 10  7  1  0  0  0  0
 11  2  1  0  0  0  0
 11 20  1  0  0  0  0
 12 11  2  0  0  0  0
 13 12  1  0  0  0  0
 13 14  2  0  0  0  0
 14 19  1  0  0  0  0
 15 14  1  0  0  0  0
 15 16  2  0  0  0  0
 16 17  1  0  0  0  0
 17 18  2  0  0  0  0
 17 24  1  0  0  0  0
 18 25  1  0  0  0  0
 19 20  2  0  0  0  0
 19 18  1  0  0  0  0
 20 26  1  0  0  0  0
 21 12  1  0  0  0  0
 22 13  1  0  0  0  0
 23 16  1  0  0  0  0
 27 30  1  0  0  0  0
 28 27  1  0  0  0  0
 29 27  1  0  0  0  0
 30 32  1  0  0  0  0
 30 35  1  0  0  0  0
 30 31  1  0  0  0  0
 34 41  1  0  0  0  0
 34 33  1  0  0  0  0
 35 34  2  0  0  0  0
 36 35  1  0  0  0  0
 36 38  2  0  0  0  0
 37 36  1  0  0  0  0
 38 40  1  0  0  0  0
 39 38  1  0  0  0  0
 40 41  2  0  0  0  0
M  END
>  <minimizedAffinity>
-7.27483082

$$$$

 OpenBabel03242522483D

 41 44  0  0  0  0  0  0  0  0999 V2000
   37.1960   31.3460   41.0130 C   0  0  0  0  0  0  0  0  0  0  0  0
   38.1410   30.3800   41.4020 C   0  0  0  0  0  0  0  0  0  0  0  0
   39.5030   30.7370   41.4330 C   0  0  0  0  0  0  0  0  0  0  0  0
   39.8230   31.9980   41.0800 N   0  0  0  0  0  0  0  0  0  0  0  0
   38.8940   32.9090   40.7090 C   0  0  0  0  0  0  0  0  0  0  0  0
   37.6020   32.5770   40.6790 N   0  0  0  0  0  0  0  0  0  0  0  0
   35.8270   30.9930   40.9840 N   0  0  0  0  0  0  0  0  0  0  0  0
   40.2720   30.0640   41.7160 H   0  0  0  0  0  0  0  0  0  0  0  0
   35.6090   30.0930   40.5140 H   0  0  0  0  0  0  0  0  0  0  0  0
   35.1580   31.6740   41.4410 H   0  0  0  0  0  0  0  0  0  0  0  0
   37.7680   29.0270   41.7750 C   0  0  0  0  0  0  0  0  0  0  0  0
   37.4760   28.5450   43.0330 C   0  0  0  0  0  0  0  0  0  0  0  0
   37.1360   27.2220   43.2270 C   0  0  0  0  0  0  0  0  0  0  0  0
   37.0780   26.3260   42.1540 C   0  0  0  0  0  0  0  0  0  0  0  0
   36.7440   25.0580   42.4210 N   0  0  0  0  0  0  0  0  0  0  0  0
   36.6820   24.1670   41.3990 C   0  0  0  0  0  0  0  0  0  0  0  0
   36.9710   24.6290   40.1310 C   0  0  0  0  0  0  0  0  0  0  0  0
   37.3180   25.9320   39.8380 C   0  0  0  0  0  0  0  0  0  0  0  0
   37.3720   26.8150   40.8990 C   0  0  0  0  0  0  0  0  0  0  0  0
   37.7130   28.1490   40.7100 C   0  0  0  0  0  0  0  0  0  0  0  0
   37.5340   29.2750   43.8220 H   0  0  0  0  0  0  0  0  0  0  0  0
   36.9120   26.8830   44.2420 H   0  0  0  0  0  0  0  0  0  0  0  0
   36.4160   23.1270   41.5580 H   0  0  0  0  0  0  0  0  0  0  0  0
   36.9450   23.9800   39.2600 H   0  0  0  0  0  0  0  0  0  0  0  0
   37.5400   26.2660   38.8270 H   0  0  0  0  0  0  0  0  0  0  0  0
   37.9290   28.4400   39.6710 H   0  0  0  0  0  0  0  0  0  0  0  0
   39.3570   34.2830   40.3300 C   0  0  0  0  0  0  0  0  0  0  0  0
   38.5760   34.6740   39.6400 H   0  0  0  0  0  0  0  0  0  0  0  0
   39.5300   34.9210   41.2040 H   0  0  0  0  0  0  0  0  0  0  0  0
   40.6300   34.1490   39.4830 C   0  0  0  0  0  0  0  0  0  0  0  0
   40.6900   33.0510   39.2310 H   0  0  0  0  0  0  0  0  0  0  0  0
   40.5650   34.7760   38.5790 H   0  0  0  0  0  0  0  0  0  0  0  0
   43.0780   32.5290   38.9670 Cl  0  0  0  0  0  0  0  0  0  0  0  0
   42.9260   33.8000   40.1580 C   0  0  0  0  0  0  0  0  0  0  0  0
   41.7580   34.5390   40.3650 C   0  0  0  0  0  0  0  0  0  0  0  0
   41.6880   35.5410   41.3230 C   0  0  0  0  0  0  0  0  0  0  0  0
   40.7460   36.0700   41.4250 H   0  0  0  0  0  0  0  0  0  0  0  0
   42.7870   35.8480   42.1190 C   0  0  0  0  0  0  0  0  0  0  0  0
   42.7470   36.6230   42.8660 H   0  0  0  0  0  0  0  0  0  0  0  0
   43.9070   35.0870   41.8670 C   0  0  0  0  0  3  0  0  0  0  0  0
   44.0530   34.0840   40.9420 C   0  0  0  0  0  3  0  0  0  0  0  0
  1  2  1  0  0  0  0
  2  3  2  0  0  0  0
  2 11  1  0  0  0  0
  3  8  1  0  0  0  0
  4  3  1  0  0  0  0
  5  4  2  0  0  0  0
  6  5  1  0  0  0  0
  6  1  2  0  0  0  0
  7  1  1  0  0  0  0
  7 10  1  0  0  0  0
  9  7  1  0  0  0  0
 11 12  1  0  0  0  0
 12 13  2  0  0  0  0
 12 21  1  0  0  0  0
 13 22  1  0  0  0  0
 14 15  1  0  0  0  0
 14 13  1  0  0  0  0
 16 23  1  0  0  0  0
 16 15  2  0  0  0  0
 17 16  1  0  0  0  0
 18 17  2  0  0  0  0
 18 19  1  0  0  0  0
 19 14  2  0  0  0  0
 20 19  1  0  0  0  0
 20 11  2  0  0  0  0
 24 17  1  0  0  0  0
 25 18  1  0  0  0  0
 26 20  1  0  0  0  0
 27  5  1  0  0  0  0
 27 29  1  0  0  0  0
 28 27  1  0  0  0  0
 30 27  1  0  0  0  0
 30 35  1  0  0  0  0
 31 30  1  0  0  0  0
 32 30  1  0  0  0  0
 33 34  1  0  0  0  0
 34 35  2  0  0  0  0
 34 41  1  0  0  0  0
 35 36  1  0  0  0  0
 36 37  1  0  0  0  0
 36 38  2  0  0  0  0
 38 39  1  0  0  0  0
 40 38  1  0  0  0  0
 41 40  2  0  0  0  0
M  END
>  <minimizedAffinity>
-6.78092575

$$$$

 OpenBabel03242522483D

 41 44  0  0  0  0  0  0  0  0999 V2000
   36.1800   30.6180   40.0610 C   0  0  0  0  0  0  0  0  0  0  0  0
   37.1220   31.2090   39.2020 C   0  0  0  0  0  0  0  0  0  0  0  0
   37.4140   30.5780   37.9770 C   0  0  0  0  0  0  0  0  0  0  0  0
   36.7650   29.4300   37.7000 N   0  0  0  0  0  0  0  0  0  0  0  0
   35.8620   28.8800   38.5440 C   0  0  0  0  0  0  0  0  0  0  0  0
   35.5820   29.4740   39.7060 N   0  0  0  0  0  0  0  0  0  0  0  0
   35.8810   31.2500   41.2900 N   0  0  0  0  0  0  0  0  0  0  0  0
   38.1110   30.9650   37.2780 H   0  0  0  0  0  0  0  0  0  0  0  0
   36.7040   31.5560   41.8440 H   0  0  0  0  0  0  0  0  0  0  0  0
   34.8550   31.3510   41.5280 H   0  0  0  0  0  0  0  0  0  0  0  0
   37.8080   32.4470   39.5270 C   0  0  0  0  0  0  0  0  0  0  0  0
   37.2900   33.7250   39.5400 C   0  0  0  0  0  0  0  0  0  0  0  0
   38.0760   34.8090   39.8730 C   0  0  0  0  0  0  0  0  0  0  0  0
   39.4260   34.6470   40.2070 C   0  0  0  0  0  0  0  0  0  0  0  0
   40.1240   35.7460   40.5160 N   0  0  0  0  0  0  0  0  0  0  0  0
   41.4360   35.6180   40.8410 C   0  0  0  0  0  0  0  0  0  0  0  0
   41.9750   34.3470   40.8330 C   0  0  0  0  0  0  0  0  0  0  0  0
   41.2690   33.2050   40.5170 C   0  0  0  0  0  0  0  0  0  0  0  0
   39.9370   33.3670   40.1900 C   0  0  0  0  0  0  0  0  0  0  0  0
   39.1390   32.2790   39.8550 C   0  0  0  0  0  0  0  0  0  0  0  0
   36.2480   33.7930   39.2770 H   0  0  0  0  0  0  0  0  0  0  0  0
   37.6230   35.8030   39.8710 H   0  0  0  0  0  0  0  0  0  0  0  0
   42.0500   36.4740   41.1000 H   0  0  0  0  0  0  0  0  0  0  0  0
   43.0170   34.1610   41.0810 H   0  0  0  0  0  0  0  0  0  0  0  0
   41.7230   32.2170   40.5200 H   0  0  0  0  0  0  0  0  0  0  0  0
   39.6420   31.3010   39.8720 H   0  0  0  0  0  0  0  0  0  0  0  0
   35.2020   27.5960   38.1430 C   0  0  0  0  0  0  0  0  0  0  0  0
   34.6640   27.2480   39.0520 H   0  0  0  0  0  0  0  0  0  0  0  0
   34.5520   27.7170   37.2680 H   0  0  0  0  0  0  0  0  0  0  0  0
   36.2950   26.5510   37.8800 C   0  0  0  0  0  0  0  0  0  0  0  0
   35.8840   25.9130   37.0450 H   0  0  0  0  0  0  0  0  0  0  0  0
   37.2410   27.0380   37.5990 H   0  0  0  0  0  0  0  0  0  0  0  0
   34.9620   23.8940   37.6560 Cl  0  0  0  0  0  0  0  0  0  0  0  0
   35.8000   24.5020   39.0660 C   0  0  0  0  0  0  0  0  0  0  0  0
   36.4150   25.7540   39.1270 C   0  0  0  0  0  0  0  0  0  0  0  0
   37.0700   26.1910   40.2710 C   0  0  0  0  0  0  0  0  0  0  0  0
   37.5240   27.1760   40.2420 H   0  0  0  0  0  0  0  0  0  0  0  0
   37.1390   25.3900   41.4060 C   0  0  0  0  0  0  0  0  0  0  0  0
   37.6440   25.7160   42.3000 H   0  0  0  0  0  0  0  0  0  0  0  0
   36.5150   24.1690   41.2830 C   0  0  0  0  0  3  0  0  0  0  0  0
   35.8490   23.6680   40.1920 C   0  0  0  0  0  3  0  0  0  0  0  0
  1  7  1  0  0  0  0
  2 11  1  0  0  0  0
  2  1  2  0  0  0  0
  3  2  1  0  0  0  0
  4  3  2  0  0  0  0
  4  5  1  0  0  0  0
  5  6  2  0  0  0  0
  6  1  1  0  0  0  0
  7 10  1  0  0  0  0
  7  9  1  0  0  0  0
  8  3  1  0  0  0  0
 11 12  2  0  0  0  0
 11 20  1  0  0  0  0
 12 13  1  0  0  0  0
 13 14  2  0  0  0  0
 14 15  1  0  0  0  0
 15 16  2  0  0  0  0
 16 23  1  0  0  0  0
 17 16  1  0  0  0  0
 17 24  1  0  0  0  0
 18 25  1  0  0  0  0
 18 17  2  0  0  0  0
 19 14  1  0  0  0  0
 19 18  1  0  0  0  0
 20 26  1  0  0  0  0
 20 19  2  0  0  0  0
 21 12  1  0  0  0  0
 22 13  1  0  0  0  0
 27  5  1  0  0  0  0
 27 28  1  0  0  0  0
 29 27  1  0  0  0  0
 30 27  1  0  0  0  0
 30 35  1  0  0  0  0
 31 30  1  0  0  0  0
 32 30  1  0  0  0  0
 33 34  1  0  0  0  0
 34 35  2  0  0  0  0
 34 41  1  0  0  0  0
 35 36  1  0  0  0  0
 36 38  2  0  0  0  0
 37 36  1  0  0  0  0
 38 39  1  0  0  0  0
 40 38  1  0  0  0  0
 41 40  2  0  0  0  0
M  END
>  <minimizedAffinity>
-6.68408394

$$$$

 OpenBabel03242522483D

 41 44  0  0  0  0  0  0  0  0999 V2000
   37.2070   30.9810   40.7710 C   0  0  0  0  0  0  0  0  0  0  0  0
   38.5520   31.2230   41.1030 C   0  0  0  0  0  0  0  0  0  0  0  0
   39.1890   30.3660   42.0210 C   0  0  0  0  0  0  0  0  0  0  0  0
   38.4620   29.3530   42.5330 N   0  0  0  0  0  0  0  0  0  0  0  0
   37.1680   29.1410   42.1980 C   0  0  0  0  0  0  0  0  0  0  0  0
   36.5600   29.9490   41.3280 N   0  0  0  0  0  0  0  0  0  0  0  0
   36.5640   31.8360   39.8470 N   0  0  0  0  0  0  0  0  0  0  0  0
   40.1990   30.4850   42.3200 H   0  0  0  0  0  0  0  0  0  0  0  0
   36.6970   32.8530   40.0160 H   0  0  0  0  0  0  0  0  0  0  0  0
   36.0130   31.3650   39.0770 H   0  0  0  0  0  0  0  0  0  0  0  0
   39.3110   32.3240   40.5380 C   0  0  0  0  0  0  0  0  0  0  0  0
   39.2130   33.6650   40.8430 C   0  0  0  0  0  0  0  0  0  0  0  0
   40.0100   34.5990   40.2130 C   0  0  0  0  0  0  0  0  0  0  0  0
   40.9430   34.2150   39.2430 C   0  0  0  0  0  0  0  0  0  0  0  0
   41.6780   35.1780   38.6750 N   0  0  0  0  0  0  0  0  0  0  0  0
   42.5890   34.8350   37.7290 C   0  0  0  0  0  0  0  0  0  0  0  0
   42.7040   33.4970   37.4080 C   0  0  0  0  0  0  0  0  0  0  0  0
   41.9530   32.4920   37.9840 C   0  0  0  0  0  0  0  0  0  0  0  0
   41.0350   32.8730   38.9430 C   0  0  0  0  0  0  0  0  0  0  0  0
   40.2300   31.9380   39.5820 C   0  0  0  0  0  0  0  0  0  0  0  0
   38.4810   33.9050   41.5950 H   0  0  0  0  0  0  0  0  0  0  0  0
   39.8980   35.6510   40.4860 H   0  0  0  0  0  0  0  0  0  0  0  0
   43.2120   35.5730   37.2360 H   0  0  0  0  0  0  0  0  0  0  0  0
   43.4080   33.1400   36.6620 H   0  0  0  0  0  0  0  0  0  0  0  0
   42.0670   31.4460   37.7100 H   0  0  0  0  0  0  0  0  0  0  0  0
   40.3800   30.8930   39.2710 H   0  0  0  0  0  0  0  0  0  0  0  0
   36.4480   27.9890   42.8300 C   0  0  0  0  0  0  0  0  0  0  0  0
   35.7330   28.4500   43.5470 H   0  0  0  0  0  0  0  0  0  0  0  0
   35.9690   27.3390   42.0900 H   0  0  0  0  0  0  0  0  0  0  0  0
   37.4500   27.2050   43.6890 C   0  0  0  0  0  0  0  0  0  0  0  0
   38.3280   27.9020   43.8110 H   0  0  0  0  0  0  0  0  0  0  0  0
   37.0030   26.9320   44.6590 H   0  0  0  0  0  0  0  0  0  0  0  0
   40.3460   26.5580   43.9720 Cl  0  0  0  0  0  0  0  0  0  0  0  0
   39.1930   25.6810   42.9910 C   0  0  0  0  0  0  0  0  0  0  0  0
   37.8410   26.0170   42.8900 C   0  0  0  0  0  0  0  0  0  0  0  0
   36.9640   25.2870   42.0980 C   0  0  0  0  0  0  0  0  0  0  0  0
   35.9290   25.6100   42.0710 H   0  0  0  0  0  0  0  0  0  0  0  0
   37.4040   24.1850   41.3720 C   0  0  0  0  0  0  0  0  0  0  0  0
   36.7350   23.6100   40.7540 H   0  0  0  0  0  0  0  0  0  0  0  0
   38.7450   23.9050   41.5130 C   0  0  0  0  0  3  0  0  0  0  0  0
   39.6710   24.5760   42.2720 C   0  0  0  0  0  3  0  0  0  0  0  0
  1  2  2  0  0  0  0
  1  6  1  0  0  0  0
  2  3  1  0  0  0  0
  3  8  1  0  0  0  0
  3  4  2  0  0  0  0
  5  4  1  0  0  0  0
  5 27  1  0  0  0  0
  6  5  2  0  0  0  0
  7  9  1  0  0  0  0
  7  1  1  0  0  0  0
 10  7  1  0  0  0  0
 11 12  1  0  0  0  0
 11  2  1  0  0  0  0
 12 21  1  0  0  0  0
 13 22  1  0  0  0  0
 13 12  2  0  0  0  0
 14 13  1  0  0  0  0
 15 14  2  0  0  0  0
 16 15  1  0  0  0  0
 17 16  2  0  0  0  0
 17 18  1  0  0  0  0
 18 19  2  0  0  0  0
 19 14  1  0  0  0  0
 19 20  1  0  0  0  0
 20 11  2  0  0  0  0
 23 16  1  0  0  0  0
 24 17  1  0  0  0  0
 25 18  1  0  0  0  0
 26 20  1  0  0  0  0
 27 28  1  0  0  0  0
 27 30  1  0  0  0  0
 29 27  1  0  0  0  0
 30 31  1  0  0  0  0
 30 32  1  0  0  0  0
 34 33  1  0  0  0  0
 35 34  1  0  0  0  0
 35 30  1  0  0  0  0
 36 35  2  0  0  0  0
 37 36  1  0  0  0  0
 38 40  2  0  0  0  0
 38 36  1  0  0  0  0
 39 38  1  0  0  0  0
 40 41  1  0  0  0  0
 41 34  2  0  0  0  0
M  END
>  <minimizedAffinity>
-6.63362169

$$$$

 OpenBabel03242522483D

 41 44  0  0  0  0  0  0  0  0999 V2000
   37.3440   27.9640   42.7950 C   0  0  0  0  0  0  0  0  0  0  0  0
   38.1030   28.4170   41.7020 C   0  0  0  0  0  0  0  0  0  0  0  0
   38.4880   27.4920   40.7120 C   0  0  0  0  0  0  0  0  0  0  0  0
   38.1010   26.2110   40.8750 N   0  0  0  0  0  0  0  0  0  0  0  0
   37.3700   25.7990   41.9370 C   0  0  0  0  0  0  0  0  0  0  0  0
   37.0020   26.6720   42.8770 N   0  0  0  0  0  0  0  0  0  0  0  0
   36.9520   28.8900   43.7890 N   0  0  0  0  0  0  0  0  0  0  0  0
   39.0600   27.7590   39.8600 H   0  0  0  0  0  0  0  0  0  0  0  0
   37.7050   29.5180   44.1330 H   0  0  0  0  0  0  0  0  0  0  0  0
   35.9380   28.8570   44.0870 H   0  0  0  0  0  0  0  0  0  0  0  0
   38.5090   29.8030   41.5530 C   0  0  0  0  0  0  0  0  0  0  0  0
   39.6030   30.4300   42.1100 C   0  0  0  0  0  0  0  0  0  0  0  0
   39.8560   31.7660   41.8730 C   0  0  0  0  0  0  0  0  0  0  0  0
   39.0100   32.5280   41.0600 C   0  0  0  0  0  0  0  0  0  0  0  0
   39.3190   33.8170   40.8790 N   0  0  0  0  0  0  0  0  0  0  0  0
   38.5140   34.5800   40.0970 C   0  0  0  0  0  0  0  0  0  0  0  0
   37.4120   33.9730   39.5280 C   0  0  0  0  0  0  0  0  0  0  0  0
   37.0790   32.6450   39.7060 C   0  0  0  0  0  0  0  0  0  0  0  0
   37.9180   31.8950   40.5060 C   0  0  0  0  0  0  0  0  0  0  0  0
   37.6690   30.5490   40.7490 C   0  0  0  0  0  0  0  0  0  0  0  0
   40.2210   29.7990   42.7250 H   0  0  0  0  0  0  0  0  0  0  0  0
   40.7350   32.2220   42.3350 H   0  0  0  0  0  0  0  0  0  0  0  0
   38.7170   35.6310   39.9150 H   0  0  0  0  0  0  0  0  0  0  0  0
   36.7190   34.5140   38.8910 H   0  0  0  0  0  0  0  0  0  0  0  0
   36.2040   32.1950   39.2440 H   0  0  0  0  0  0  0  0  0  0  0  0
   36.7720   30.1380   40.2610 H   0  0  0  0  0  0  0  0  0  0  0  0
   36.9970   24.3510   42.0250 C   0  0  0  0  0  0  0  0  0  0  0  0
   37.4210   23.9990   42.9920 H   0  0  0  0  0  0  0  0  0  0  0  0
   35.9170   24.1910   41.9360 H   0  0  0  0  0  0  0  0  0  0  0  0
   37.7610   23.5870   40.9350 C   0  0  0  0  0  0  0  0  0  0  0  0
   38.3350   24.3820   40.3780 H   0  0  0  0  0  0  0  0  0  0  0  0
   38.4290   22.8340   41.3810 H   0  0  0  0  0  0  0  0  0  0  0  0
   38.6320   20.9650   39.8170 Cl  0  0  0  0  0  0  0  0  0  0  0  0
   37.1010   21.7510   39.5050 C   0  0  0  0  0  0  0  0  0  0  0  0
   36.7310   22.9810   40.0540 C   0  0  0  0  0  0  0  0  0  0  0  0
   35.5010   23.5640   39.7780 C   0  0  0  0  0  0  0  0  0  0  0  0
   35.2860   24.5200   40.2410 H   0  0  0  0  0  0  0  0  0  0  0  0
   34.5860   22.9380   38.9380 C   0  0  0  0  0  0  0  0  0  0  0  0
   33.6290   23.3780   38.7150 H   0  0  0  0  0  0  0  0  0  0  0  0
   35.0080   21.7300   38.4290 C   0  0  0  0  0  3  0  0  0  0  0  0
   36.2030   21.0920   38.6550 C   0  0  0  0  0  3  0  0  0  0  0  0
  1  6  1  0  0  0  0
  1  7  1  0  0  0  0
  2  1  2  0  0  0  0
  3  4  2  0  0  0  0
  3  2  1  0  0  0  0
  4  5  1  0  0  0  0
  5 27  1  0  0  0  0
  5  6  2  0  0  0  0
  7 10  1  0  0  0  0
  7  9  1  0  0  0  0
  8  3  1  0  0  0  0
 11  2  1  0  0  0  0
 11 12  1  0  0  0  0
 12 21  1  0  0  0  0
 13 12  2  0  0  0  0
 13 22  1  0  0  0  0
 14 13  1  0  0  0  0
 15 14  1  0  0  0  0
 16 15  2  0  0  0  0
 17 18  2  0  0  0  0
 17 16  1  0  0  0  0
 18 19  1  0  0  0  0
 19 20  1  0  0  0  0
 19 14  2  0  0  0  0
 20 11  2  0  0  0  0
 23 16  1  0  0  0  0
 24 17  1  0  0  0  0
 25 18  1  0  0  0  0
 26 20  1  0  0  0  0
 27 28  1  0  0  0  0
 29 27  1  0  0  0  0
 30 32  1  0  0  0  0
 30 27  1  0  0  0  0
 31 30  1  0  0  0  0
 34 33  1  0  0  0  0
 34 35  1  0  0  0  0
 35 30  1  0  0  0  0
 36 35  2  0  0  0  0
 36 37  1  0  0  0  0
 38 36  1  0  0  0  0
 39 38  1  0  0  0  0
 40 41  1  0  0  0  0
 40 38  2  0  0  0  0
 41 34  2  0  0  0  0
M  END
>  <minimizedAffinity>
-6.59099436

$$$$

 OpenBabel03242522483D

 41 44  0  0  0  0  0  0  0  0999 V2000
   36.4560   30.0860   40.5190 C   0  0  0  0  0  0  0  0  0  0  0  0
   37.5290   30.5720   39.7520 C   0  0  0  0  0  0  0  0  0  0  0  0
   38.1760   29.6970   38.8580 C   0  0  0  0  0  0  0  0  0  0  0  0
   37.7240   28.4300   38.7920 N   0  0  0  0  0  0  0  0  0  0  0  0
   36.6880   27.9850   39.5410 C   0  0  0  0  0  0  0  0  0  0  0  0
   36.0710   28.8100   40.3890 N   0  0  0  0  0  0  0  0  0  0  0  0
   35.8000   30.9610   41.4150 N   0  0  0  0  0  0  0  0  0  0  0  0
   38.9920   29.9920   38.2470 H   0  0  0  0  0  0  0  0  0  0  0  0
   36.4260   31.5250   42.0220 H   0  0  0  0  0  0  0  0  0  0  0  0
   34.7430   30.9600   41.3830 H   0  0  0  0  0  0  0  0  0  0  0  0
   37.9990   31.9430   39.8460 C   0  0  0  0  0  0  0  0  0  0  0  0
   37.2820   33.1010   39.6300 C   0  0  0  0  0  0  0  0  0  0  0  0
   37.8740   34.3400   39.7580 C   0  0  0  0  0  0  0  0  0  0  0  0
   39.2230   34.4630   40.1110 C   0  0  0  0  0  0  0  0  0  0  0  0
   39.7270   35.6980   40.2140 N   0  0  0  0  0  0  0  0  0  0  0  0
   41.0330   35.8460   40.5530 C   0  0  0  0  0  0  0  0  0  0  0  0
   41.7700   34.7000   40.7740 C   0  0  0  0  0  0  0  0  0  0  0  0
   41.2650   33.4200   40.6720 C   0  0  0  0  0  0  0  0  0  0  0  0
   39.9340   33.3010   40.3260 C   0  0  0  0  0  0  0  0  0  0  0  0
   39.3300   32.0560   40.1950 C   0  0  0  0  0  0  0  0  0  0  0  0
   36.2500   32.9500   39.3620 H   0  0  0  0  0  0  0  0  0  0  0  0
   37.2670   35.2310   39.5780 H   0  0  0  0  0  0  0  0  0  0  0  0
   41.4940   36.8230   40.6510 H   0  0  0  0  0  0  0  0  0  0  0  0
   42.8210   34.7330   41.0480 H   0  0  0  0  0  0  0  0  0  0  0  0
   41.8720   32.5350   40.8520 H   0  0  0  0  0  0  0  0  0  0  0  0
   39.9840   31.1910   40.3870 H   0  0  0  0  0  0  0  0  0  0  0  0
   36.2670   26.5540   39.3950 C   0  0  0  0  0  0  0  0  0  0  0  0
   35.1620   26.5610   39.5270 H   0  0  0  0  0  0  0  0  0  0  0  0
   36.5920   26.1190   38.4430 H   0  0  0  0  0  0  0  0  0  0  0  0
   36.8240   25.7620   40.5850 C   0  0  0  0  0  0  0  0  0  0  0  0
   37.8770   26.1460   40.7160 H   0  0  0  0  0  0  0  0  0  0  0  0
   36.2110   25.9270   41.4850 H   0  0  0  0  0  0  0  0  0  0  0  0
   39.1560   24.2820   41.7070 Cl  0  0  0  0  0  0  0  0  0  0  0  0
   37.9230   23.6080   40.6650 C   0  0  0  0  0  0  0  0  0  0  0  0
   36.8420   24.3380   40.1640 C   0  0  0  0  0  0  0  0  0  0  0  0
   35.8870   23.7570   39.3410 C   0  0  0  0  0  0  0  0  0  0  0  0
   35.0770   24.3890   38.9910 H   0  0  0  0  0  0  0  0  0  0  0  0
   35.9710   22.4150   38.9840 C   0  0  0  0  0  0  0  0  0  0  0  0
   35.2370   21.9510   38.3470 H   0  0  0  0  0  0  0  0  0  0  0  0
   37.0560   21.7500   39.5100 C   0  0  0  0  0  3  0  0  0  0  0  0
   38.0390   22.2540   40.3260 C   0  0  0  0  0  3  0  0  0  0  0  0
  1  7  1  0  0  0  0
  2 11  1  0  0  0  0
  2  1  2  0  0  0  0
  3  2  1  0  0  0  0
  4  3  2  0  0  0  0
  4  5  1  0  0  0  0
  5  6  2  0  0  0  0
  6  1  1  0  0  0  0
  7  9  1  0  0  0  0
  8  3  1  0  0  0  0
 10  7  1  0  0  0  0
 11 20  1  0  0  0  0
 12 13  1  0  0  0  0
 12 11  2  0  0  0  0
 13 14  2  0  0  0  0
 14 15  1  0  0  0  0
 14 19  1  0  0  0  0
 15 16  2  0  0  0  0
 16 23  1  0  0  0  0
 16 17  1  0  0  0  0
 17 24  1  0  0  0  0
 18 17  2  0  0  0  0
 18 25  1  0  0  0  0
 19 18  1  0  0  0  0
 20 19  2  0  0  0  0
 20 26  1  0  0  0  0
 21 12  1  0  0  0  0
 22 13  1  0  0  0  0
 27 28  1  0  0  0  0
 27  5  1  0  0  0  0
 27 30  1  0  0  0  0
 29 27  1  0  0  0  0
 30 31  1  0  0  0  0
 30 32  1  0  0  0  0
 34 33  1  0  0  0  0
 35 30  1  0  0  0  0
 35 34  2  0  0  0  0
 36 35  1  0  0  0  0
 37 36  1  0  0  0  0
 38 36  2  0  0  0  0
 38 40  1  0  0  0  0
 39 38  1  0  0  0  0
 40 41  2  0  0  0  0
 41 34  1  0  0  0  0
M  END
>  <minimizedAffinity>
-6.54132223

$$$$

 OpenBabel03242522483D

 41 44  0  0  0  0  0  0  0  0999 V2000
   36.2520   30.8360   39.6900 C   0  0  0  0  0  0  0  0  0  0  0  0
   37.2050   31.4980   38.8960 C   0  0  0  0  0  0  0  0  0  0  0  0
   37.3640   31.0990   37.5540 C   0  0  0  0  0  0  0  0  0  0  0  0
   36.5860   30.0940   37.1080 N   0  0  0  0  0  0  0  0  0  0  0  0
   35.6760   29.4720   37.8930 C   0  0  0  0  0  0  0  0  0  0  0  0
   35.5200   29.8460   39.1640 N   0  0  0  0  0  0  0  0  0  0  0  0
   36.0850   31.2350   41.0360 N   0  0  0  0  0  0  0  0  0  0  0  0
   38.0610   31.5510   36.8950 H   0  0  0  0  0  0  0  0  0  0  0  0
   36.9640   31.3470   41.5790 H   0  0  0  0  0  0  0  0  0  0  0  0
   35.0900   31.3810   41.3620 H   0  0  0  0  0  0  0  0  0  0  0  0
   38.0330   32.5770   39.4040 C   0  0  0  0  0  0  0  0  0  0  0  0
   37.6510   33.8670   39.7070 C   0  0  0  0  0  0  0  0  0  0  0  0
   38.5630   34.7860   40.1840 C   0  0  0  0  0  0  0  0  0  0  0  0
   39.9050   34.4390   40.3760 C   0  0  0  0  0  0  0  0  0  0  0  0
   40.7300   35.3850   40.8400 N   0  0  0  0  0  0  0  0  0  0  0  0
   42.0370   35.0770   41.0330 C   0  0  0  0  0  0  0  0  0  0  0  0
   42.4410   33.7900   40.7360 C   0  0  0  0  0  0  0  0  0  0  0  0
   41.6040   32.8040   40.2570 C   0  0  0  0  0  0  0  0  0  0  0  0
   40.2790   33.1480   40.0710 C   0  0  0  0  0  0  0  0  0  0  0  0
   39.3560   32.2270   39.5910 C   0  0  0  0  0  0  0  0  0  0  0  0
   36.6090   34.0800   39.5420 H   0  0  0  0  0  0  0  0  0  0  0  0
   38.2160   35.7970   40.4110 H   0  0  0  0  0  0  0  0  0  0  0  0
   42.7510   35.8040   41.4070 H   0  0  0  0  0  0  0  0  0  0  0  0
   43.4700   33.4650   40.8620 H   0  0  0  0  0  0  0  0  0  0  0  0
   41.9520   31.7990   40.0310 H   0  0  0  0  0  0  0  0  0  0  0  0
   39.7550   31.2240   39.3770 H   0  0  0  0  0  0  0  0  0  0  0  0
   34.8650   28.3610   37.3000 C   0  0  0  0  0  0  0  0  0  0  0  0
   34.8420   28.5680   36.2070 H   0  0  0  0  0  0  0  0  0  0  0  0
   35.2660   27.3720   37.5500 H   0  0  0  0  0  0  0  0  0  0  0  0
   33.4150   28.5080   37.7820 C   0  0  0  0  0  0  0  0  0  0  0  0
   33.0220   27.4520   37.8290 H   0  0  0  0  0  0  0  0  0  0  0  0
   33.3800   29.0040   38.7650 H   0  0  0  0  0  0  0  0  0  0  0  0
   30.9810   29.8700   38.8320 Cl  0  0  0  0  0  0  0  0  0  0  0  0
   31.5530   29.9290   37.1810 C   0  0  0  0  0  0  0  0  0  0  0  0
   32.7040   29.2780   36.7310 C   0  0  0  0  0  0  0  0  0  0  0  0
   33.1190   29.3570   35.4080 C   0  0  0  0  0  0  0  0  0  0  0  0
   34.0230   28.8230   35.1350 H   0  0  0  0  0  0  0  0  0  0  0  0
   32.3980   30.0960   34.4760 C   0  0  0  0  0  0  0  0  0  0  0  0
   32.7080   30.1660   33.4470 H   0  0  0  0  0  0  0  0  0  0  0  0
   31.2750   30.7140   34.9800 C   0  0  0  0  0  3  0  0  0  0  0  0
   30.8020   30.6830   36.2680 C   0  0  0  0  0  3  0  0  0  0  0  0
  1  7  1  0  0  0  0
  2 11  1  0  0  0  0
  2  1  2  0  0  0  0
  3  2  1  0  0  0  0
  4  3  2  0  0  0  0
  4  5  1  0  0  0  0
  5  6  2  0  0  0  0
  6  1  1  0  0  0  0
  7 10  1  0  0  0  0
  7  9  1  0  0  0  0
  8  3  1  0  0  0  0
 11 20  2  0  0  0  0
 11 12  1  0  0  0  0
 12 13  2  0  0  0  0
 13 14  1  0  0  0  0
 13 22  1  0  0  0  0
 14 15  1  0  0  0  0
 15 16  2  0  0  0  0
 16 23  1  0  0  0  0
 17 24  1  0  0  0  0
 17 16  1  0  0  0  0
 18 17  2  0  0  0  0
 19 18  1  0  0  0  0
 19 14  2  0  0  0  0
 20 19  1  0  0  0  0
 21 12  1  0  0  0  0
 25 18  1  0  0  0  0
 26 20  1  0  0  0  0
 27 29  1  0  0  0  0
 27 30  1  0  0  0  0
 27  5  1  0  0  0  0
 28 27  1  0  0  0  0
 30 31  1  0  0  0  0
 30 32  1  0  0  0  0
 34 33  1  0  0  0  0
 35 34  1  0  0  0  0
 35 30  1  0  0  0  0
 36 35  2  0  0  0  0
 37 36  1  0  0  0  0
 38 40  2  0  0  0  0
 38 36  1  0  0  0  0
 39 38  1  0  0  0  0
 40 41  1  0  0  0  0
 41 34  2  0  0  0  0
M  END
>  <minimizedAffinity>
-6.51512194

$$$$

 OpenBabel03242522483D

 41 44  0  0  0  0  0  0  0  0999 V2000
   35.4150   29.1530   39.7790 C   0  0  0  0  0  0  0  0  0  0  0  0
   36.2270   28.0060   39.8350 C   0  0  0  0  0  0  0  0  0  0  0  0
   36.2550   27.1400   38.7250 C   0  0  0  0  0  0  0  0  0  0  0  0
   35.4920   27.4660   37.6630 N   0  0  0  0  0  0  0  0  0  0  0  0
   34.7190   28.5760   37.6340 C   0  0  0  0  0  0  0  0  0  0  0  0
   34.6880   29.4000   38.6820 N   0  0  0  0  0  0  0  0  0  0  0  0
   35.3860   30.0280   40.8900 N   0  0  0  0  0  0  0  0  0  0  0  0
   36.8430   26.2580   38.6940 H   0  0  0  0  0  0  0  0  0  0  0  0
   35.2650   29.5690   41.8140 H   0  0  0  0  0  0  0  0  0  0  0  0
   35.4890   31.0590   40.6770 H   0  0  0  0  0  0  0  0  0  0  0  0
   37.0370   27.6780   40.9950 C   0  0  0  0  0  0  0  0  0  0  0  0
   36.6160   27.1800   42.2090 C   0  0  0  0  0  0  0  0  0  0  0  0
   37.5150   26.9180   43.2220 C   0  0  0  0  0  0  0  0  0  0  0  0
   38.8850   27.1500   43.0500 C   0  0  0  0  0  0  0  0  0  0  0  0
   39.6940   26.8730   44.0790 N   0  0  0  0  0  0  0  0  0  0  0  0
   41.0270   27.0910   43.9400 C   0  0  0  0  0  0  0  0  0  0  0  0
   41.4710   27.5890   42.7320 C   0  0  0  0  0  0  0  0  0  0  0  0
   40.6490   27.8800   41.6620 C   0  0  0  0  0  0  0  0  0  0  0  0
   39.2990   27.6480   41.8340 C   0  0  0  0  0  0  0  0  0  0  0  0
   38.3870   27.9100   40.8170 C   0  0  0  0  0  0  0  0  0  0  0  0
   35.5540   27.0190   42.2880 H   0  0  0  0  0  0  0  0  0  0  0  0
   37.1370   26.5230   44.1680 H   0  0  0  0  0  0  0  0  0  0  0  0
   41.7300   26.8840   44.7410 H   0  0  0  0  0  0  0  0  0  0  0  0
   42.5210   27.7910   42.5410 H   0  0  0  0  0  0  0  0  0  0  0  0
   41.0290   28.2730   40.7220 H   0  0  0  0  0  0  0  0  0  0  0  0
   38.8180   28.3060   39.8850 H   0  0  0  0  0  0  0  0  0  0  0  0
   33.9030   28.8420   36.4050 C   0  0  0  0  0  0  0  0  0  0  0  0
   34.1210   29.8990   36.1340 H   0  0  0  0  0  0  0  0  0  0  0  0
   34.1170   28.1300   35.6000 H   0  0  0  0  0  0  0  0  0  0  0  0
   32.4190   28.8090   36.7930 C   0  0  0  0  0  0  0  0  0  0  0  0
   32.0250   27.8570   36.3330 H   0  0  0  0  0  0  0  0  0  0  0  0
   32.3010   28.8160   37.8880 H   0  0  0  0  0  0  0  0  0  0  0  0
   30.5040   30.2030   38.6030 Cl  0  0  0  0  0  0  0  0  0  0  0  0
   30.8860   30.6730   36.9620 C   0  0  0  0  0  0  0  0  0  0  0  0
   31.7950   29.9920   36.1480 C   0  0  0  0  0  0  0  0  0  0  0  0
   32.0660   30.4050   34.8510 C   0  0  0  0  0  0  0  0  0  0  0  0
   32.7840   29.8250   34.2800 H   0  0  0  0  0  0  0  0  0  0  0  0
   31.4380   31.5230   34.3100 C   0  0  0  0  0  0  0  0  0  0  0  0
   31.6400   31.8550   33.3060 H   0  0  0  0  0  0  0  0  0  0  0  0
   30.5560   32.1510   35.1600 C   0  0  0  0  0  3  0  0  0  0  0  0
   30.2360   31.8030   36.4500 C   0  0  0  0  0  3  0  0  0  0  0  0
  1  2  1  0  0  0  0
  1  7  1  0  0  0  0
  2 11  1  0  0  0  0
  3  2  2  0  0  0  0
  4  3  1  0  0  0  0
  5  4  2  0  0  0  0
  5  6  1  0  0  0  0
  6  1  2  0  0  0  0
  7  9  1  0  0  0  0
  8  3  1  0  0  0  0
 10  7  1  0  0  0  0
 11 12  1  0  0  0  0
 12 21  1  0  0  0  0
 12 13  2  0  0  0  0
 13 22  1  0  0  0  0
 14 13  1  0  0  0  0
 14 15  1  0  0  0  0
 16 15  2  0  0  0  0
 16 23  1  0  0  0  0
 17 16  1  0  0  0  0
 18 19  1  0  0  0  0
 18 17  2  0  0  0  0
 19 14  2  0  0  0  0
 20 11  2  0  0  0  0
 20 19  1  0  0  0  0
 24 17  1  0  0  0  0
 25 18  1  0  0  0  0
 26 20  1  0  0  0  0
 27 30  1  0  0  0  0
 27  5  1  0  0  0  0
 28 27  1  0  0  0  0
 29 27  1  0  0  0  0
 30 32  1  0  0  0  0
 31 30  1  0  0  0  0
 34 33  1  0  0  0  0
 35 30  1  0  0  0  0
 35 34  2  0  0  0  0
 36 35  1  0  0  0  0
 37 36  1  0  0  0  0
 38 36  2  0  0  0  0
 38 40  1  0  0  0  0
 39 38  1  0  0  0  0
 40 41  2  0  0  0  0
 41 34  1  0  0  0  0
M  END
>  <minimizedAffinity>
-6.51116323

$$$$

 OpenBabel03242522483D

 41 44  0  0  0  0  0  0  0  0999 V2000
   35.7770   30.1830   39.8300 C   0  0  0  0  0  0  0  0  0  0  0  0
   36.8130   30.6030   38.9770 C   0  0  0  0  0  0  0  0  0  0  0  0
   36.7430   30.2720   37.6100 C   0  0  0  0  0  0  0  0  0  0  0  0
   35.6750   29.5610   37.1960 N   0  0  0  0  0  0  0  0  0  0  0  0
   34.6910   29.1670   38.0380 C   0  0  0  0  0  0  0  0  0  0  0  0
   34.7520   29.4790   39.3330 N   0  0  0  0  0  0  0  0  0  0  0  0
   35.8410   30.5160   41.2020 N   0  0  0  0  0  0  0  0  0  0  0  0
   37.4850   30.5540   36.9060 H   0  0  0  0  0  0  0  0  0  0  0  0
   36.7560   30.3370   41.6610 H   0  0  0  0  0  0  0  0  0  0  0  0
   34.9600   30.9130   41.6300 H   0  0  0  0  0  0  0  0  0  0  0  0
   37.9540   31.3660   39.4500 C   0  0  0  0  0  0  0  0  0  0  0  0
   39.1850   30.8890   39.8480 C   0  0  0  0  0  0  0  0  0  0  0  0
   40.1770   31.7480   40.2770 C   0  0  0  0  0  0  0  0  0  0  0  0
   39.9650   33.1310   40.3220 C   0  0  0  0  0  0  0  0  0  0  0  0
   40.9730   33.8990   40.7510 N   0  0  0  0  0  0  0  0  0  0  0  0
   40.7940   35.2430   40.8070 C   0  0  0  0  0  0  0  0  0  0  0  0
   39.5690   35.7420   40.4130 C   0  0  0  0  0  0  0  0  0  0  0  0
   38.5190   34.9640   39.9680 C   0  0  0  0  0  0  0  0  0  0  0  0
   38.7320   33.6000   39.9230 C   0  0  0  0  0  0  0  0  0  0  0  0
   37.7380   32.7290   39.4910 C   0  0  0  0  0  0  0  0  0  0  0  0
   39.2960   29.8200   39.7930 H   0  0  0  0  0  0  0  0  0  0  0  0
   41.1370   31.3260   40.5830 H   0  0  0  0  0  0  0  0  0  0  0  0
   41.5770   35.9140   41.1470 H   0  0  0  0  0  0  0  0  0  0  0  0
   39.3460   36.8050   40.4290 H   0  0  0  0  0  0  0  0  0  0  0  0
   37.5650   35.3860   39.6650 H   0  0  0  0  0  0  0  0  0  0  0  0
   36.7900   33.2030   39.1940 H   0  0  0  0  0  0  0  0  0  0  0  0
   33.5500   28.3750   37.4770 C   0  0  0  0  0  0  0  0  0  0  0  0
   33.6690   28.4340   36.3720 H   0  0  0  0  0  0  0  0  0  0  0  0
   33.5260   27.3480   37.8600 H   0  0  0  0  0  0  0  0  0  0  0  0
   32.2430   29.1150   37.7950 C   0  0  0  0  0  0  0  0  0  0  0  0
   31.4880   28.2960   37.9730 H   0  0  0  0  0  0  0  0  0  0  0  0
   32.3660   29.7610   38.6790 H   0  0  0  0  0  0  0  0  0  0  0  0
   30.0730   31.0960   38.2920 Cl  0  0  0  0  0  0  0  0  0  0  0  0
   30.8760   30.8220   36.7620 C   0  0  0  0  0  0  0  0  0  0  0  0
   31.8940   29.8830   36.5740 C   0  0  0  0  0  0  0  0  0  0  0  0
   32.5020   29.7040   35.3390 C   0  0  0  0  0  0  0  0  0  0  0  0
   33.2850   28.9560   35.2720 H   0  0  0  0  0  0  0  0  0  0  0  0
   32.1180   30.4590   34.2360 C   0  0  0  0  0  0  0  0  0  0  0  0
   32.5820   30.3310   33.2720 H   0  0  0  0  0  0  0  0  0  0  0  0
   31.1130   31.3660   34.4850 C   0  0  0  0  0  3  0  0  0  0  0  0
   30.4640   31.6000   35.6720 C   0  0  0  0  0  3  0  0  0  0  0  0
  1  7  1  0  0  0  0
  2 11  1  0  0  0  0
  2  1  2  0  0  0  0
  3  2  1  0  0  0  0
  4  3  2  0  0  0  0
  4  5  1  0  0  0  0
  5  6  2  0  0  0  0
  6  1  1  0  0  0  0
  7 10  1  0  0  0  0
  7  9  1  0  0  0  0
  8  3  1  0  0  0  0
 11 20  2  0  0  0  0
 11 12  1  0  0  0  0
 12 13  2  0  0  0  0
 13 14  1  0  0  0  0
 13 22  1  0  0  0  0
 14 15  1  0  0  0  0
 15 16  2  0  0  0  0
 16 23  1  0  0  0  0
 17 24  1  0  0  0  0
 17 16  1  0  0  0  0
 18 17  2  0  0  0  0
 19 18  1  0  0  0  0
 19 14  2  0  0  0  0
 20 19  1  0  0  0  0
 21 12  1  0  0  0  0
 25 18  1  0  0  0  0
 26 20  1  0  0  0  0
 27 30  1  0  0  0  0
 27 29  1  0  0  0  0
 27  5  1  0  0  0  0
 28 27  1  0  0  0  0
 30 31  1  0  0  0  0
 30 32  1  0  0  0  0
 34 33  1  0  0  0  0
 35 34  1  0  0  0  0
 35 30  1  0  0  0  0
 36 35  2  0  0  0  0
 37 36  1  0  0  0  0
 38 40  2  0  0  0  0
 38 36  1  0  0  0  0
 39 38  1  0  0  0  0
 40 41  1  0  0  0  0
 41 34  2  0  0  0  0
M  END
>  <minimizedAffinity>
-6.44388723

$$$$
