
 OpenBabel03252505273D

 24 25  0  0  0  0  0  0  0  0999 V2000
   47.0110   32.3750   48.3620 O   0  0  0  0  0  0  0  0  0  0  0  0
   45.9640   32.5150   47.2490 P   0  0  1  0  0  0  0  0  0  0  0  0
   44.5990   33.3310   47.7720 O   0  0  0  0  0  0  0  0  0  0  0  0
   44.8390   34.1350   48.2760 H   0  0  0  0  0  0  0  0  0  0  0  0
   46.7280   33.3390   45.9890 O   0  0  0  0  0  0  0  0  0  0  0  0
   44.4230   35.6640   44.6100 C   0  0  0  0  0  0  0  0  0  0  0  0
   44.7850   35.7710   43.2470 C   0  0  0  0  0  0  0  0  0  0  0  0
   45.8760   34.9880   42.8380 C   0  0  0  0  0  0  0  0  0  0  0  0
   46.5080   34.1940   43.7410 N   0  0  0  0  0  0  0  0  0  0  0  0
   46.1190   34.1290   45.0360 C   0  0  0  0  0  0  0  0  0  0  0  0
   45.0770   34.8680   45.4590 N   0  0  0  0  0  0  0  0  0  0  0  0
   43.5800   36.2660   44.9320 H   0  0  0  0  0  0  0  0  0  0  0  0
   44.2840   36.3960   42.5430 H   0  0  0  0  0  0  0  0  0  0  0  0
   46.2150   35.0190   41.7960 H   0  0  0  0  0  0  0  0  0  0  0  0
   45.5080   30.9460   46.8240 O   0  0  0  0  0  0  0  0  0  0  0  0
   44.8890   28.3610   48.2420 Cl  0  0  0  0  0  0  0  0  0  0  0  0
   46.3290   28.7320   47.3340 C   0  0  0  0  0  0  0  0  0  0  0  0
   46.4830   29.9610   46.7320 C   0  0  0  0  0  0  0  0  0  0  0  0
   47.6630   30.1380   46.0410 C   0  0  0  0  0  0  0  0  0  0  0  0
   47.8640   31.0770   45.5380 H   0  0  0  0  0  0  0  0  0  0  0  0
   48.6580   29.1890   45.9240 C   0  0  0  0  0  0  0  0  0  0  0  0
   49.5640   29.3860   45.3670 H   0  0  0  0  0  0  0  0  0  0  0  0
   48.4600   27.9540   46.5500 C   0  0  0  0  0  3  0  0  0  0  0  0
   47.2870   27.7240   47.2610 C   0  0  0  0  0  3  0  0  0  0  0  0
  2  3  1  0  0  0  0
  2  1  2  1  0  0  0
  3  4  1  0  0  0  0
  5  2  1  0  0  0  0
  6 12  1  0  0  0  0
  6 11  1  0  0  0  0
  7  6  2  0  0  0  0
  8  7  1  0  0  0  0
  8  9  2  0  0  0  0
  9 10  1  0  0  0  0
 10 11  2  0  0  0  0
 10  5  1  0  0  0  0
 13  7  1  0  0  0  0
 14  8  1  0  0  0  0
 15  2  1  0  0  0  0
 17 16  1  0  0  0  0
 18 15  1  0  0  0  0
 18 17  2  0  0  0  0
 19 18  1  0  0  0  0
 20 19  1  0  0  0  0
 21 19  2  0  0  0  0
 21 23  1  0  0  0  0
 22 21  1  0  0  0  0
 23 24  2  0  0  0  0
 24 17  1  0  0  0  0
M  END
>  <minimizedAffinity>
-4.57838106

>  <minimizedRMSD>
2.95088172

$$$$
