
 OpenBabel03252507153D

 27 29  0  0  0  0  0  0  0  0999 V2000
   44.3690   35.6520   43.3340 C   0  0  0  0  0  0  0  0  0  0  0  0
   45.1870   34.5970   42.8860 C   0  0  0  0  0  0  0  0  0  0  0  0
   45.8170   33.8040   43.8180 C   0  0  0  0  0  0  0  0  0  0  0  0
   45.6360   34.0550   45.1250 N   0  0  0  0  0  0  0  0  0  0  0  0
   44.8460   35.0740   45.5650 C   0  0  0  0  0  0  0  0  0  0  0  0
   44.2310   35.8480   44.6600 N   0  0  0  0  0  0  0  0  0  0  0  0
   43.8570   36.2970   42.6190 H   0  0  0  0  0  0  0  0  0  0  0  0
   44.7190   35.2530   46.6390 H   0  0  0  0  0  0  0  0  0  0  0  0
   46.6630   32.7150   43.3410 C   0  0  0  0  0  0  0  0  0  0  0  0
   46.1280   31.4700   43.1120 C   0  0  0  0  0  0  0  0  0  0  0  0
   46.9540   30.4700   42.6640 C   0  0  0  0  0  0  0  0  0  0  0  0
   48.3060   30.6460   42.4270 C   0  0  0  0  0  0  0  0  0  0  0  0
   48.7880   31.9170   42.6740 C   0  0  0  0  0  0  0  0  0  0  0  0
   47.9670   32.8840   43.1120 N   0  0  0  0  0  0  0  0  0  0  0  0
   45.0880   31.2360   43.2680 H   0  0  0  0  0  0  0  0  0  0  0  0
   46.5950   29.4470   42.4600 H   0  0  0  0  0  0  0  0  0  0  0  0
   48.9970   29.9000   42.0770 H   0  0  0  0  0  0  0  0  0  0  0  0
   49.8240   32.2310   42.5410 H   0  0  0  0  0  0  0  0  0  0  0  0
   45.3290   34.3940   41.4720 C   0  0  0  0  0  0  0  0  0  0  0  0
   46.4650   34.6130   40.9420 O   0  0  0  0  0  0  0  0  0  0  0  0
   44.1780   33.9550   40.7280 N   0  0  0  0  0  0  0  0  0  0  0  0
   43.1300   34.7000   40.0570 C   0  0  0  0  0  2  0  0  0  0  0  0
   43.0020   34.2170   38.6080 C   0  0  0  0  0  2  0  0  0  0  0  0
   42.5360   32.7730   38.6130 C   0  0  0  0  0  3  0  0  0  0  0  0
   43.1040   32.1950   37.8460 H   0  0  0  0  0  0  0  0  0  0  0  0
   42.6910   32.1880   40.0010 C   0  0  0  0  0  2  0  0  0  0  0  0
   44.0140   32.5170   40.6160 C   0  0  0  0  0  2  0  0  0  0  0  0
  1  6  1  0  0  0  0
  2  1  2  0  0  0  0
  2  3  1  0  0  0  0
  3  4  2  0  0  0  0
  4  5  1  0  0  0  0
  5  8  1  0  0  0  0
  6  5  2  0  0  0  0
  7  1  1  0  0  0  0
  9  3  1  0  0  0  0
 10 15  1  0  0  0  0
 10  9  1  0  0  0  0
 11 10  2  0  0  0  0
 12 11  1  0  0  0  0
 12 13  2  0  0  0  0
 13 14  1  0  0  0  0
 14  9  2  0  0  0  0
 16 11  1  0  0  0  0
 17 12  1  0  0  0  0
 18 13  1  0  0  0  0
 19  2  1  0  0  0  0
 20 19  2  0  0  0  0
 21 19  1  0  0  0  0
 22 21  1  0  0  0  0
 23 24  1  0  0  0  0
 23 22  1  0  0  0  0
 24 26  1  0  0  0  0
 25 24  1  0  0  0  0
 26 27  1  0  0  0  0
 27 21  1  0  0  0  0
M  END
>  <minimizedAffinity>
-4.33233595

>  <minimizedRMSD>
1.35861206

$$$$
