
 OpenBabel03252507163D

 27 29  0  0  0  0  0  0  0  0999 V2000
   44.3880   35.6420   43.3470 C   0  0  0  0  0  0  0  0  0  0  0  0
   45.1040   34.4700   43.0390 C   0  0  0  0  0  0  0  0  0  0  0  0
   45.6150   33.7140   44.0690 C   0  0  0  0  0  0  0  0  0  0  0  0
   45.4180   34.1120   45.3370 N   0  0  0  0  0  0  0  0  0  0  0  0
   44.7280   35.2440   45.6420 C   0  0  0  0  0  0  0  0  0  0  0  0
   44.2290   35.9830   44.6410 N   0  0  0  0  0  0  0  0  0  0  0  0
   43.9720   36.2610   42.5520 H   0  0  0  0  0  0  0  0  0  0  0  0
   44.5840   35.5420   46.6870 H   0  0  0  0  0  0  0  0  0  0  0  0
   46.3560   32.5010   43.7360 C   0  0  0  0  0  0  0  0  0  0  0  0
   45.7180   31.2830   43.7130 C   0  0  0  0  0  0  0  0  0  0  0  0
   46.4470   30.1650   43.3950 C   0  0  0  0  0  0  0  0  0  0  0  0
   47.7980   30.1940   43.0940 C   0  0  0  0  0  0  0  0  0  0  0  0
   48.3840   31.4440   43.1340 C   0  0  0  0  0  0  0  0  0  0  0  0
   47.6580   32.5290   43.4460 N   0  0  0  0  0  0  0  0  0  0  0  0
   44.6710   31.1600   43.9320 H   0  0  0  0  0  0  0  0  0  0  0  0
   46.0040   29.1550   43.3570 H   0  0  0  0  0  0  0  0  0  0  0  0
   48.4150   29.3510   42.8400 H   0  0  0  0  0  0  0  0  0  0  0  0
   49.4350   31.6490   42.9250 H   0  0  0  0  0  0  0  0  0  0  0  0
   45.2700   34.1130   41.6580 C   0  0  0  0  0  0  0  0  0  0  0  0
   46.3810   34.3790   41.0960 O   0  0  0  0  0  0  0  0  0  0  0  0
   44.1710   33.4740   40.9830 N   0  0  0  0  0  0  0  0  0  0  0  0
   43.4790   32.2280   41.2500 C   0  0  0  0  0  2  0  0  0  0  0  0
   41.9690   32.4860   41.3320 C   0  0  0  0  0  2  0  0  0  0  0  0
   41.4770   32.9440   39.9740 C   0  0  0  0  0  3  0  0  0  0  0  0
   40.7530   33.7830   40.1020 H   0  0  0  0  0  0  0  0  0  0  0  0
   42.6540   33.3310   39.1040 C   0  0  0  0  0  2  0  0  0  0  0  0
   43.6460   34.1800   39.8290 C   0  0  0  0  0  2  0  0  0  0  0  0
  1  6  1  0  0  0  0
  2  1  2  0  0  0  0
  2  3  1  0  0  0  0
  3  4  2  0  0  0  0
  4  5  1  0  0  0  0
  5  8  1  0  0  0  0
  6  5  2  0  0  0  0
  7  1  1  0  0  0  0
  9  3  1  0  0  0  0
 10  9  1  0  0  0  0
 10 15  1  0  0  0  0
 11 10  2  0  0  0  0
 12 13  2  0  0  0  0
 12 11  1  0  0  0  0
 13 14  1  0  0  0  0
 14  9  2  0  0  0  0
 16 11  1  0  0  0  0
 17 12  1  0  0  0  0
 18 13  1  0  0  0  0
 19  2  1  0  0  0  0
 20 19  2  0  0  0  0
 21 22  1  0  0  0  0
 21 19  1  0  0  0  0
 22 23  1  0  0  0  0
 24 25  1  0  0  0  0
 24 23  1  0  0  0  0
 26 27  1  0  0  0  0
 26 24  1  0  0  0  0
 27 21  1  0  0  0  0
M  END
>  <minimizedAffinity>
-4.19065332

>  <minimizedRMSD>
1.2989316

$$$$
