
 OpenBabel03242518493D

 21 22  0  0  0  0  0  0  0  0999 V2000
   44.5810   36.0130   44.4940 C   0  0  0  0  0  0  0  0  0  0  0  0
   45.3210   35.9050   43.3010 C   0  0  0  0  0  0  0  0  0  0  0  0
   46.1830   34.8190   43.2050 C   0  0  0  0  0  0  0  0  0  0  0  0
   46.2430   33.9640   44.2510 N   0  0  0  0  0  0  0  0  0  0  0  0
   45.5280   34.0880   45.3770 C   0  0  0  0  0  0  0  0  0  0  0  0
   44.6880   35.1260   45.4980 N   0  0  0  0  0  0  0  0  0  0  0  0
   43.8960   36.8460   44.6110 H   0  0  0  0  0  0  0  0  0  0  0  0
   45.1500   36.6790   42.5660 H   0  0  0  0  0  0  0  0  0  0  0  0
   45.6110   33.1530   46.4800 C   0  0  0  0  0  0  0  0  0  0  0  0
   44.9970   33.3140   47.5550 O   0  0  0  0  0  0  0  0  0  0  0  0
   46.3820   31.9610   46.4820 N   0  0  0  0  0  0  0  0  0  0  0  0
   46.3390   31.1480   47.6820 C   0  0  0  0  0  0  0  0  0  0  0  0
   47.8040   30.8340   48.0010 C   0  0  0  0  0  0  0  0  0  0  0  0
   48.2880   29.8810   46.9410 C   0  0  0  0  0  0  0  0  0  0  0  0
   48.0710   28.8320   47.3020 H   0  0  0  0  0  0  0  0  0  0  0  0
   47.5650   30.0370   45.6320 C   0  0  0  0  0  0  0  0  0  0  0  0
   47.2070   31.4900   45.3830 C   0  0  0  0  0  0  0  0  0  0  0  0
   46.9500   34.7060   41.9660 C   0  0  0  0  0  0  0  0  0  0  0  0
   47.7490   33.5650   42.0120 F   0  0  0  0  0  0  0  0  0  0  0  0
   47.8290   35.7750   41.9430 F   0  0  0  0  0  0  0  0  0  0  0  0
   46.1670   34.6370   40.8490 F   0  0  0  0  0  0  0  0  0  0  0  0
  1  7  1  0  0  0  0
  1  6  1  0  0  0  0
  2  1  2  0  0  0  0
  3  2  1  0  0  0  0
  3  4  2  0  0  0  0
  4  5  1  0  0  0  0
  5  6  2  0  0  0  0
  5  9  1  0  0  0  0
  8  2  1  0  0  0  0
  9 11  1  0  0  0  0
  9 10  2  0  0  0  0
 11 12  1  0  0  0  0
 12 13  1  0  0  0  0
 14 15  1  0  0  0  0
 14 13  1  0  0  0  0
 16 14  1  0  0  0  0
 17 16  1  0  0  0  0
 17 11  1  0  0  0  0
 18 19  1  0  0  0  0
 18  3  1  0  0  0  0
 20 18  1  0  0  0  0
 21 18  1  0  0  0  0
M  END
>  <minimizedAffinity>
-5.47971869

>  <minimizedRMSD>
0.470344931

$$$$
