
 OpenBabel03242523163D

 25 27  0  0  0  0  0  0  0  0999 V2000
   46.4150   34.2250   43.4100 C   0  0  0  0  0  0  0  0  0  0  0  0
   47.6030   33.7540   42.9510 C   0  0  0  0  0  0  0  0  0  0  0  0
   48.0550   32.5890   43.5310 C   0  0  0  0  0  0  0  0  0  0  0  0
   47.2720   32.0000   44.5230 N   0  0  0  0  0  0  0  0  0  0  0  0
   46.1090   32.5150   44.9320 C   0  0  0  0  0  0  0  0  0  0  0  0
   45.6350   33.6740   44.3720 N   0  0  0  0  0  0  0  0  0  0  0  0
   48.9810   32.0970   43.2680 H   0  0  0  0  0  0  0  0  0  0  0  0
   45.6660   31.9020   45.7080 H   0  0  0  0  0  0  0  0  0  0  0  0
   45.6730   35.3700   42.9170 C   0  0  0  0  0  0  0  0  0  0  0  0
   45.3060   36.5190   42.8920 O   0  0  0  0  0  0  0  0  0  0  0  0
   44.8310   35.0860   41.7570 N   0  0  0  0  0  0  0  0  0  0  0  0
   43.5920   35.7500   41.4220 C   0  0  0  0  0  0  0  0  0  0  0  0
   42.4080   34.8080   41.4680 C   0  0  0  0  0  0  0  0  0  0  0  0
   42.8800   33.3550   41.4930 C   0  0  0  0  0  0  0  0  0  0  0  0
   42.0110   32.7330   41.2390 H   0  0  0  0  0  0  0  0  0  0  0  0
   43.8830   33.2710   40.3620 C   0  0  0  0  0  0  0  0  0  0  0  0
   45.0670   34.0980   40.7360 C   0  0  0  0  0  0  0  0  0  0  0  0
   48.4340   34.3930   41.9940 C   0  0  0  0  0  0  0  0  0  0  0  0
   48.6660   35.7090   41.7630 C   0  0  0  0  0  0  0  0  0  0  0  0
   49.8230   35.0030   42.4640 C   0  0  0  0  0  0  0  0  0  0  0  0
   48.8730   33.5540   41.2970 H   0  0  0  0  0  0  0  0  0  0  0  0
   48.8990   36.1500   40.7510 H   0  0  0  0  0  0  0  0  0  0  0  0
   48.2450   36.5180   42.4150 H   0  0  0  0  0  0  0  0  0  0  0  0
   49.8860   35.0040   43.5500 H   0  0  0  0  0  0  0  0  0  0  0  0
   50.7180   34.7880   41.9120 H   0  0  0  0  0  0  0  0  0  0  0  0
  1  6  1  0  0  0  0
  2  1  2  0  0  0  0
  2  3  1  0  0  0  0
  3  4  2  0  0  0  0
  4  5  1  0  0  0  0
  5  8  1  0  0  0  0
  6  5  2  0  0  0  0
  7  3  1  0  0  0  0
  9  1  1  0  0  0  0
 10  9  2  0  0  0  0
 11  9  1  0  0  0  0
 12 13  1  0  0  0  0
 12 11  1  0  0  0  0
 13 14  1  0  0  0  0
 15 14  1  0  0  0  0
 16 17  1  0  0  0  0
 16 14  1  0  0  0  0
 17 11  1  0  0  0  0
 18 20  1  0  0  0  0
 18  2  1  0  0  0  0
 19 18  1  0  0  0  0
 19 23  1  0  0  0  0
 19 20  1  0  0  0  0
 20 24  1  0  0  0  0
 21 18  1  0  0  0  0
 22 19  1  0  0  0  0
 25 20  1  0  0  0  0
M  END
>  <minimizedAffinity>
-4.93165827

>  <minimizedRMSD>
0.553975761

$$$$
