
 OpenBabel03242520203D

 33 35  0  0  0  0  0  0  0  0999 V2000
   35.8410   29.8810   40.6470 C   0  0  0  0  0  0  0  0  0  0  0  0
   34.8300   29.8810   41.1160 H   0  0  0  0  0  0  0  0  0  0  0  0
   35.7670   29.4290   39.6300 H   0  0  0  0  0  0  0  0  0  0  0  0
   37.7240   26.8400   41.8780 C   0  0  0  0  0  0  0  0  0  0  0  0
   36.8880   27.6620   41.0910 C   0  0  0  0  0  0  0  0  0  0  0  0
   36.7050   28.9850   41.4530 C   0  0  0  0  0  0  0  0  0  0  0  0
   37.3610   29.4190   42.5760 N   0  0  0  0  0  0  0  0  0  0  0  0
   38.1580   28.5880   43.3050 C   0  0  0  0  0  0  0  0  0  0  0  0
   38.3350   27.3160   42.9580 N   0  0  0  0  0  0  0  0  0  0  0  0
   36.4150   27.2290   40.2250 H   0  0  0  0  0  0  0  0  0  0  0  0
   38.6210   29.0540   44.1740 H   0  0  0  0  0  0  0  0  0  0  0  0
   37.9030   25.4200   41.4780 C   0  0  0  0  0  0  0  0  0  0  0  0
   36.8400   24.4840   42.1500 C   0  0  0  0  0  0  0  0  0  0  0  0
   36.9800   24.6760   40.7020 C   0  0  0  0  0  0  0  0  0  0  0  0
   38.9500   25.0750   41.6190 H   0  0  0  0  0  0  0  0  0  0  0  0
   37.2550   23.5290   42.5550 H   0  0  0  0  0  0  0  0  0  0  0  0
   36.0360   24.9540   42.7160 H   0  0  0  0  0  0  0  0  0  0  0  0
   36.1230   25.2380   40.2270 H   0  0  0  0  0  0  0  0  0  0  0  0
   37.3200   23.8730   40.0070 H   0  0  0  0  0  0  0  0  0  0  0  0
   36.4510   31.2700   40.5730 C   0  0  0  0  0  0  0  0  0  0  0  0
   35.8140   31.8830   39.9380 H   0  0  0  0  0  0  0  0  0  0  0  0
   36.4120   31.7470   41.5930 H   0  0  0  0  0  0  0  0  0  0  0  0
   38.4950   32.4920   40.0530 C   0  0  0  0  0  0  0  0  0  0  0  0
   38.0190   33.6200   40.3510 O   0  0  0  0  0  0  0  0  0  0  0  0
   37.8270   31.2500   40.1470 N   0  0  0  0  0  0  0  0  0  0  0  0
   38.2080   30.3260   39.9470 H   0  0  0  0  0  0  0  0  0  0  0  0
   39.8390   32.4930   39.5780 N   0  0  0  0  0  0  0  0  0  0  0  0
   40.9440   33.3720   39.8690 C   0  0  0  0  0  2  0  0  0  0  0  0
   41.4360   34.0760   38.6270 C   0  0  0  0  0  2  0  0  0  0  0  0
   41.9330   33.0480   37.6210 C   0  0  0  0  0  3  0  0  0  0  0  0
   42.2920   33.5310   36.7130 H   0  0  0  0  0  0  0  0  0  0  0  0
   40.7280   32.1660   37.3160 C   0  0  0  0  0  2  0  0  0  0  0  0
   40.3580   31.5190   38.6380 C   0  0  0  0  0  2  0  0  0  0  0  0
  1  2  1  0  0  0  0
  1  6  1  0  0  0  0
  3  1  1  0  0  0  0
  4  9  1  0  0  0  0
  5  6  1  0  0  0  0
  5  4  2  0  0  0  0
  6  7  2  0  0  0  0
  7  8  1  0  0  0  0
  8 11  1  0  0  0  0
  9  8  2  0  0  0  0
 10  5  1  0  0  0  0
 12 15  1  0  0  0  0
 12  4  1  0  0  0  0
 12 13  1  0  0  0  0
 13 16  1  0  0  0  0
 13 17  1  0  0  0  0
 14 12  1  0  0  0  0
 14 13  1  0  0  0  0
 18 14  1  0  0  0  0
 19 14  1  0  0  0  0
 20  1  1  0  0  0  0
 20 22  1  0  0  0  0
 21 20  1  0  0  0  0
 23 25  1  0  0  0  0
 23 24  2  0  0  0  0
 25 20  1  0  0  0  0
 26 25  1  0  0  0  0
 27 28  1  0  0  0  0
 27 23  1  0  0  0  0
 29 28  1  0  0  0  0
 30 29  1  0  0  0  0
 31 30  1  0  0  0  0
 32 30  1  0  0  0  0
 32 33  1  0  0  0  0
 33 27  1  0  0  0  0
M  END
>  <minimizedAffinity>
-5.09438896

$$$$

 OpenBabel03242520203D

 33 35  0  0  0  0  0  0  0  0999 V2000
   36.6830   27.1040   43.2800 C   0  0  0  0  0  0  0  0  0  0  0  0
   36.3050   26.7670   44.2730 H   0  0  0  0  0  0  0  0  0  0  0  0
   35.8260   27.1590   42.5680 H   0  0  0  0  0  0  0  0  0  0  0  0
   38.0220   24.0400   41.5110 C   0  0  0  0  0  0  0  0  0  0  0  0
   37.1210   25.0190   41.9840 C   0  0  0  0  0  0  0  0  0  0  0  0
   37.5970   26.0530   42.7710 C   0  0  0  0  0  0  0  0  0  0  0  0
   38.9400   26.0580   43.0450 N   0  0  0  0  0  0  0  0  0  0  0  0
   39.7720   25.0910   42.5660 C   0  0  0  0  0  0  0  0  0  0  0  0
   39.3160   24.0960   41.8090 N   0  0  0  0  0  0  0  0  0  0  0  0
   36.0810   24.9290   41.7150 H   0  0  0  0  0  0  0  0  0  0  0  0
   40.8150   25.2080   42.8550 H   0  0  0  0  0  0  0  0  0  0  0  0
   37.4910   22.9330   40.6740 C   0  0  0  0  0  0  0  0  0  0  0  0
   37.7850   23.1560   39.1510 C   0  0  0  0  0  0  0  0  0  0  0  0
   38.2870   22.0230   39.9360 C   0  0  0  0  0  0  0  0  0  0  0  0
   36.4210   22.7200   40.8920 H   0  0  0  0  0  0  0  0  0  0  0  0
   36.9230   22.9350   38.4750 H   0  0  0  0  0  0  0  0  0  0  0  0
   38.4280   23.9930   38.8760 H   0  0  0  0  0  0  0  0  0  0  0  0
   39.4020   22.0420   40.1120 H   0  0  0  0  0  0  0  0  0  0  0  0
   37.9620   20.9700   39.7690 H   0  0  0  0  0  0  0  0  0  0  0  0
   37.4060   28.4370   43.3520 C   0  0  0  0  0  0  0  0  0  0  0  0
   37.3510   28.7940   44.3790 H   0  0  0  0  0  0  0  0  0  0  0  0
   38.5030   28.2770   43.1460 H   0  0  0  0  0  0  0  0  0  0  0  0
   37.5050   29.3870   41.1090 C   0  0  0  0  0  0  0  0  0  0  0  0
   38.3990   28.5960   40.7020 O   0  0  0  0  0  0  0  0  0  0  0  0
   36.9120   29.3900   42.3920 N   0  0  0  0  0  0  0  0  0  0  0  0
   36.1630   29.9960   42.7250 H   0  0  0  0  0  0  0  0  0  0  0  0
   37.0650   30.3620   40.1670 N   0  0  0  0  0  0  0  0  0  0  0  0
   36.9920   30.3210   38.7270 C   0  0  0  0  0  2  0  0  0  0  0  0
   37.8580   31.3850   38.0970 C   0  0  0  0  0  2  0  0  0  0  0  0
   37.3750   32.7610   38.5320 C   0  0  0  0  0  3  0  0  0  0  0  0
   37.9860   33.5480   38.0910 H   0  0  0  0  0  0  0  0  0  0  0  0
   37.5030   32.7720   40.0500 C   0  0  0  0  0  2  0  0  0  0  0  0
   36.5770   31.6750   40.5420 C   0  0  0  0  0  2  0  0  0  0  0  0
  1 20  1  0  0  0  0
  1  2  1  0  0  0  0
  3  1  1  0  0  0  0
  4  9  2  0  0  0  0
  4  5  1  0  0  0  0
  5  6  2  0  0  0  0
  6  7  1  0  0  0  0
  6  1  1  0  0  0  0
  8 11  1  0  0  0  0
  8  7  2  0  0  0  0
  9  8  1  0  0  0  0
 10  5  1  0  0  0  0
 12 15  1  0  0  0  0
 12  4  1  0  0  0  0
 13 14  1  0  0  0  0
 13 12  1  0  0  0  0
 14 18  1  0  0  0  0
 14 12  1  0  0  0  0
 16 13  1  0  0  0  0
 17 13  1  0  0  0  0
 19 14  1  0  0  0  0
 20 21  1  0  0  0  0
 22 20  1  0  0  0  0
 23 25  1  0  0  0  0
 24 23  2  0  0  0  0
 25 26  1  0  0  0  0
 25 20  1  0  0  0  0
 27 33  1  0  0  0  0
 27 23  1  0  0  0  0
 28 27  1  0  0  0  0
 29 30  1  0  0  0  0
 29 28  1  0  0  0  0
 30 32  1  0  0  0  0
 31 30  1  0  0  0  0
 32 33  1  0  0  0  0
M  END
>  <minimizedAffinity>
-5.06466579

$$$$

 OpenBabel03242520203D

 33 35  0  0  0  0  0  0  0  0999 V2000
   37.3070   30.7960   37.3940 C   0  0  0  0  0  0  0  0  0  0  0  0
   38.1280   30.1380   37.0260 H   0  0  0  0  0  0  0  0  0  0  0  0
   36.8830   31.3600   36.5300 H   0  0  0  0  0  0  0  0  0  0  0  0
   39.8300   32.8920   39.2780 C   0  0  0  0  0  0  0  0  0  0  0  0
   39.2870   31.9230   38.4070 C   0  0  0  0  0  0  0  0  0  0  0  0
   37.9140   31.7980   38.3050 C   0  0  0  0  0  0  0  0  0  0  0  0
   37.1530   32.6400   39.0730 N   0  0  0  0  0  0  0  0  0  0  0  0
   37.7220   33.5620   39.9010 C   0  0  0  0  0  0  0  0  0  0  0  0
   39.0430   33.6830   40.0000 N   0  0  0  0  0  0  0  0  0  0  0  0
   39.9680   31.3050   37.8430 H   0  0  0  0  0  0  0  0  0  0  0  0
   37.0100   34.1700   40.4580 H   0  0  0  0  0  0  0  0  0  0  0  0
   41.3080   33.0070   39.3800 C   0  0  0  0  0  0  0  0  0  0  0  0
   41.8870   34.0480   38.3620 C   0  0  0  0  0  0  0  0  0  0  0  0
   42.0020   34.1610   39.8200 C   0  0  0  0  0  0  0  0  0  0  0  0
   41.8090   32.0150   39.3330 H   0  0  0  0  0  0  0  0  0  0  0  0
   42.8080   33.7100   37.8270 H   0  0  0  0  0  0  0  0  0  0  0  0
   41.1780   34.6500   37.7940 H   0  0  0  0  0  0  0  0  0  0  0  0
   41.3910   34.9990   40.2670 H   0  0  0  0  0  0  0  0  0  0  0  0
   42.9700   34.0840   40.3670 H   0  0  0  0  0  0  0  0  0  0  0  0
   36.2180   30.0230   38.1160 C   0  0  0  0  0  0  0  0  0  0  0  0
   35.5660   30.7420   38.6080 H   0  0  0  0  0  0  0  0  0  0  0  0
   35.5710   29.4960   37.3590 H   0  0  0  0  0  0  0  0  0  0  0  0
   36.4830   29.1910   40.3930 C   0  0  0  0  0  0  0  0  0  0  0  0
   35.7880   30.1030   40.9170 O   0  0  0  0  0  0  0  0  0  0  0  0
   36.7460   29.0270   39.0140 N   0  0  0  0  0  0  0  0  0  0  0  0
   37.2730   28.2760   38.5700 H   0  0  0  0  0  0  0  0  0  0  0  0
   37.0480   28.2460   41.2970 N   0  0  0  0  0  0  0  0  0  0  0  0
   36.5810   27.7630   42.5740 C   0  0  0  0  0  2  0  0  0  0  0  0
   37.5590   28.0820   43.6800 C   0  0  0  0  0  2  0  0  0  0  0  0
   38.8880   27.3950   43.3990 C   0  0  0  0  0  3  0  0  0  0  0  0
   39.6140   27.6110   44.1820 H   0  0  0  0  0  0  0  0  0  0  0  0
   39.3600   27.9600   42.0640 C   0  0  0  0  0  2  0  0  0  0  0  0
   38.2990   27.5540   41.0570 C   0  0  0  0  0  2  0  0  0  0  0  0
  1 20  1  0  0  0  0
  1  6  1  0  0  0  0
  2  1  1  0  0  0  0
  3  1  1  0  0  0  0
  4 12  1  0  0  0  0
  4  9  1  0  0  0  0
  5  4  2  0  0  0  0
  6  5  1  0  0  0  0
  6  7  2  0  0  0  0
  7  8  1  0  0  0  0
  8  9  2  0  0  0  0
  8 11  1  0  0  0  0
 10  5  1  0  0  0  0
 12 14  1  0  0  0  0
 13 12  1  0  0  0  0
 13 14  1  0  0  0  0
 14 18  1  0  0  0  0
 14 19  1  0  0  0  0
 15 12  1  0  0  0  0
 16 13  1  0  0  0  0
 17 13  1  0  0  0  0
 20 21  1  0  0  0  0
 20 25  1  0  0  0  0
 22 20  1  0  0  0  0
 23 24  2  0  0  0  0
 23 27  1  0  0  0  0
 25 23  1  0  0  0  0
 26 25  1  0  0  0  0
 27 28  1  0  0  0  0
 28 29  1  0  0  0  0
 30 29  1  0  0  0  0
 30 31  1  0  0  0  0
 32 30  1  0  0  0  0
 33 27  1  0  0  0  0
 33 32  1  0  0  0  0
M  END
>  <minimizedAffinity>
-4.95601463

$$$$

 OpenBabel03242520203D

 33 35  0  0  0  0  0  0  0  0999 V2000
   35.3880   28.9000   40.7670 C   0  0  0  0  0  0  0  0  0  0  0  0
   34.6130   29.2510   41.4890 H   0  0  0  0  0  0  0  0  0  0  0  0
   34.9510   28.0920   40.1340 H   0  0  0  0  0  0  0  0  0  0  0  0
   38.1190   26.5480   41.9140 C   0  0  0  0  0  0  0  0  0  0  0  0
   37.0740   27.1020   41.1440 C   0  0  0  0  0  0  0  0  0  0  0  0
   36.4830   28.2840   41.5550 C   0  0  0  0  0  0  0  0  0  0  0  0
   36.9610   28.8500   42.7080 N   0  0  0  0  0  0  0  0  0  0  0  0
   37.9730   28.2780   43.4200 C   0  0  0  0  0  0  0  0  0  0  0  0
   38.5430   27.1430   43.0250 N   0  0  0  0  0  0  0  0  0  0  0  0
   36.7670   26.5820   40.2510 H   0  0  0  0  0  0  0  0  0  0  0  0
   38.2610   28.8260   44.3160 H   0  0  0  0  0  0  0  0  0  0  0  0
   38.7370   25.2750   41.4610 C   0  0  0  0  0  0  0  0  0  0  0  0
   38.0910   24.0290   42.1600 C   0  0  0  0  0  0  0  0  0  0  0  0
   38.0700   24.2730   40.7130 C   0  0  0  0  0  0  0  0  0  0  0  0
   39.8460   25.2990   41.5340 H   0  0  0  0  0  0  0  0  0  0  0  0
   38.8240   23.2640   42.5120 H   0  0  0  0  0  0  0  0  0  0  0  0
   37.2120   24.1970   42.7820 H   0  0  0  0  0  0  0  0  0  0  0  0
   37.0470   24.5220   40.3020 H   0  0  0  0  0  0  0  0  0  0  0  0
   38.6150   23.6390   39.9760 H   0  0  0  0  0  0  0  0  0  0  0  0
   35.9310   30.0240   39.9030 C   0  0  0  0  0  0  0  0  0  0  0  0
   36.2280   29.5980   38.9460 H   0  0  0  0  0  0  0  0  0  0  0  0
   35.1000   30.7470   39.6670 H   0  0  0  0  0  0  0  0  0  0  0  0
   37.5050   31.8860   39.8690 C   0  0  0  0  0  0  0  0  0  0  0  0
   37.1000   32.3420   38.7650 O   0  0  0  0  0  0  0  0  0  0  0  0
   36.9870   30.7600   40.5490 N   0  0  0  0  0  0  0  0  0  0  0  0
   37.2760   30.4010   41.4590 H   0  0  0  0  0  0  0  0  0  0  0  0
   38.5880   32.5900   40.4700 N   0  0  0  0  0  0  0  0  0  0  0  0
   38.9630   33.9820   40.4060 C   0  0  0  0  0  2  0  0  0  0  0  0
   40.3360   34.1590   39.8040 C   0  0  0  0  0  2  0  0  0  0  0  0
   41.3690   33.4550   40.6720 C   0  0  0  0  0  3  0  0  0  0  0  0
   42.3700   33.5660   40.2580 H   0  0  0  0  0  0  0  0  0  0  0  0
   40.9550   31.9880   40.6830 C   0  0  0  0  0  2  0  0  0  0  0  0
   39.5790   31.9620   41.3210 C   0  0  0  0  0  2  0  0  0  0  0  0
  1  2  1  0  0  0  0
  1  6  1  0  0  0  0
  3  1  1  0  0  0  0
  4  9  1  0  0  0  0
  5  6  1  0  0  0  0
  5  4  2  0  0  0  0
  6  7  2  0  0  0  0
  7  8  1  0  0  0  0
  8 11  1  0  0  0  0
  9  8  2  0  0  0  0
 10  5  1  0  0  0  0
 12 15  1  0  0  0  0
 12  4  1  0  0  0  0
 12 13  1  0  0  0  0
 13 16  1  0  0  0  0
 13 17  1  0  0  0  0
 14 12  1  0  0  0  0
 14 13  1  0  0  0  0
 18 14  1  0  0  0  0
 19 14  1  0  0  0  0
 20 25  1  0  0  0  0
 20  1  1  0  0  0  0
 21 20  1  0  0  0  0
 22 20  1  0  0  0  0
 23 27  1  0  0  0  0
 23 25  1  0  0  0  0
 24 23  2  0  0  0  0
 25 26  1  0  0  0  0
 27 33  1  0  0  0  0
 28 27  1  0  0  0  0
 29 28  1  0  0  0  0
 29 30  1  0  0  0  0
 30 32  1  0  0  0  0
 31 30  1  0  0  0  0
 32 33  1  0  0  0  0
M  END
>  <minimizedAffinity>
-4.93138456

$$$$

 OpenBabel03242520203D

 33 35  0  0  0  0  0  0  0  0999 V2000
   35.7940   28.7120   40.8320 C   0  0  0  0  0  0  0  0  0  0  0  0
   35.2770   28.5100   41.7990 H   0  0  0  0  0  0  0  0  0  0  0  0
   35.3080   28.1080   40.0300 H   0  0  0  0  0  0  0  0  0  0  0  0
   38.9480   27.1400   42.2060 C   0  0  0  0  0  0  0  0  0  0  0  0
   37.6180   27.6070   42.1230 C   0  0  0  0  0  0  0  0  0  0  0  0
   37.1860   28.2160   40.9590 C   0  0  0  0  0  0  0  0  0  0  0  0
   38.0970   28.3290   39.9410 N   0  0  0  0  0  0  0  0  0  0  0  0
   39.3720   27.8630   40.0660 C   0  0  0  0  0  0  0  0  0  0  0  0
   39.7890   27.2770   41.1850 N   0  0  0  0  0  0  0  0  0  0  0  0
   36.9760   27.4720   42.9780 H   0  0  0  0  0  0  0  0  0  0  0  0
   39.9970   28.0140   39.1870 H   0  0  0  0  0  0  0  0  0  0  0  0
   39.3970   26.4950   43.4670 C   0  0  0  0  0  0  0  0  0  0  0  0
   39.6220   24.9540   43.2900 C   0  0  0  0  0  0  0  0  0  0  0  0
   40.6710   25.9080   43.6680 C   0  0  0  0  0  0  0  0  0  0  0  0
   38.7370   26.7510   44.3250 H   0  0  0  0  0  0  0  0  0  0  0  0
   39.2140   24.3280   44.1200 H   0  0  0  0  0  0  0  0  0  0  0  0
   39.5560   24.5450   42.2820 H   0  0  0  0  0  0  0  0  0  0  0  0
   41.4530   26.0730   42.8700 H   0  0  0  0  0  0  0  0  0  0  0  0
   41.1620   25.9150   44.6680 H   0  0  0  0  0  0  0  0  0  0  0  0
   35.7950   30.1860   40.4670 C   0  0  0  0  0  0  0  0  0  0  0  0
   35.6840   30.2650   39.3880 H   0  0  0  0  0  0  0  0  0  0  0  0
   34.8780   30.6770   40.9020 H   0  0  0  0  0  0  0  0  0  0  0  0
   37.4200   31.9880   40.2270 C   0  0  0  0  0  0  0  0  0  0  0  0
   36.8980   32.4570   39.1800 O   0  0  0  0  0  0  0  0  0  0  0  0
   36.9490   30.8830   40.9730 N   0  0  0  0  0  0  0  0  0  0  0  0
   37.3350   30.5140   41.8420 H   0  0  0  0  0  0  0  0  0  0  0  0
   38.5950   32.6510   40.6850 N   0  0  0  0  0  0  0  0  0  0  0  0
   39.0120   34.0270   40.5670 C   0  0  0  0  0  2  0  0  0  0  0  0
   40.3050   34.1510   39.7970 C   0  0  0  0  0  2  0  0  0  0  0  0
   41.4110   33.4090   40.5350 C   0  0  0  0  0  3  0  0  0  0  0  0
   42.3560   33.4820   39.9990 H   0  0  0  0  0  0  0  0  0  0  0  0
   40.9470   31.9590   40.6050 C   0  0  0  0  0  2  0  0  0  0  0  0
   39.6610   31.9860   41.4100 C   0  0  0  0  0  2  0  0  0  0  0  0
  1  6  1  0  0  0  0
  1  2  1  0  0  0  0
  3  1  1  0  0  0  0
  4 12  1  0  0  0  0
  5  4  1  0  0  0  0
  5 10  1  0  0  0  0
  6  5  2  0  0  0  0
  7  8  2  0  0  0  0
  7  6  1  0  0  0  0
  8  9  1  0  0  0  0
  9  4  2  0  0  0  0
 11  8  1  0  0  0  0
 12 14  1  0  0  0  0
 12 15  1  0  0  0  0
 13 12  1  0  0  0  0
 13 14  1  0  0  0  0
 13 16  1  0  0  0  0
 14 19  1  0  0  0  0
 17 13  1  0  0  0  0
 18 14  1  0  0  0  0
 20  1  1  0  0  0  0
 20 22  1  0  0  0  0
 20 25  1  0  0  0  0
 21 20  1  0  0  0  0
 23 27  1  0  0  0  0
 23 25  1  0  0  0  0
 24 23  2  0  0  0  0
 25 26  1  0  0  0  0
 27 33  1  0  0  0  0
 28 27  1  0  0  0  0
 29 30  1  0  0  0  0
 29 28  1  0  0  0  0
 30 32  1  0  0  0  0
 31 30  1  0  0  0  0
 32 33  1  0  0  0  0
M  END
>  <minimizedAffinity>
-4.90930128

$$$$

 OpenBabel03242520203D

 33 35  0  0  0  0  0  0  0  0999 V2000
   34.8720   29.3810   39.9330 C   0  0  0  0  0  0  0  0  0  0  0  0
   35.1500   30.4270   39.6660 H   0  0  0  0  0  0  0  0  0  0  0  0
   33.9780   29.4050   40.5990 H   0  0  0  0  0  0  0  0  0  0  0  0
   37.4320   26.9860   41.3520 C   0  0  0  0  0  0  0  0  0  0  0  0
   36.3610   27.4900   40.5830 C   0  0  0  0  0  0  0  0  0  0  0  0
   35.9860   28.8140   40.7300 C   0  0  0  0  0  0  0  0  0  0  0  0
   36.6940   29.5640   41.6320 N   0  0  0  0  0  0  0  0  0  0  0  0
   37.7210   29.0330   42.3540 C   0  0  0  0  0  0  0  0  0  0  0  0
   38.0830   27.7610   42.2140 N   0  0  0  0  0  0  0  0  0  0  0  0
   35.8650   26.8210   39.8990 H   0  0  0  0  0  0  0  0  0  0  0  0
   38.2030   29.7320   43.0370 H   0  0  0  0  0  0  0  0  0  0  0  0
   37.8140   25.5590   41.1870 C   0  0  0  0  0  0  0  0  0  0  0  0
   37.0180   24.6220   42.1580 C   0  0  0  0  0  0  0  0  0  0  0  0
   36.9580   24.5440   40.6940 C   0  0  0  0  0  0  0  0  0  0  0  0
   38.9160   25.4140   41.2350 H   0  0  0  0  0  0  0  0  0  0  0  0
   37.6380   23.8410   42.6610 H   0  0  0  0  0  0  0  0  0  0  0  0
   36.2100   25.0650   42.7410 H   0  0  0  0  0  0  0  0  0  0  0  0
   35.9680   24.8630   40.2550 H   0  0  0  0  0  0  0  0  0  0  0  0
   37.3560   23.6810   40.1100 H   0  0  0  0  0  0  0  0  0  0  0  0
   34.6080   28.5180   38.7120 C   0  0  0  0  0  0  0  0  0  0  0  0
   35.4550   28.6210   38.0370 H   0  0  0  0  0  0  0  0  0  0  0  0
   34.5960   27.4330   39.0190 H   0  0  0  0  0  0  0  0  0  0  0  0
   33.3630   29.1650   36.7180 C   0  0  0  0  0  0  0  0  0  0  0  0
   34.3780   29.2030   35.9710 O   0  0  0  0  0  0  0  0  0  0  0  0
   33.3440   28.8120   38.0860 N   0  0  0  0  0  0  0  0  0  0  0  0
   32.5290   28.7390   38.6940 H   0  0  0  0  0  0  0  0  0  0  0  0
   32.1270   29.5140   36.1010 N   0  0  0  0  0  0  0  0  0  0  0  0
   31.6760   29.3680   34.7390 C   0  0  0  0  0  2  0  0  0  0  0  0
   31.3530   30.7050   34.1140 C   0  0  0  0  0  2  0  0  0  0  0  0
   30.2270   31.3730   34.8920 C   0  0  0  0  0  3  0  0  0  0  0  0
   29.9760   32.3420   34.4620 H   0  0  0  0  0  0  0  0  0  0  0  0
   30.7600   31.5390   36.3100 C   0  0  0  0  0  2  0  0  0  0  0  0
   31.0230   30.1310   36.8100 C   0  0  0  0  0  2  0  0  0  0  0  0
  1  3  1  0  0  0  0
  1  6  1  0  0  0  0
  2  1  1  0  0  0  0
  4  9  1  0  0  0  0
  5  6  1  0  0  0  0
  5  4  2  0  0  0  0
  6  7  2  0  0  0  0
  7  8  1  0  0  0  0
  8 11  1  0  0  0  0
  9  8  2  0  0  0  0
 10  5  1  0  0  0  0
 12 15  1  0  0  0  0
 12  4  1  0  0  0  0
 12 13  1  0  0  0  0
 13 16  1  0  0  0  0
 13 17  1  0  0  0  0
 14 12  1  0  0  0  0
 14 13  1  0  0  0  0
 18 14  1  0  0  0  0
 19 14  1  0  0  0  0
 20 22  1  0  0  0  0
 20  1  1  0  0  0  0
 21 20  1  0  0  0  0
 23 25  1  0  0  0  0
 24 23  2  0  0  0  0
 25 26  1  0  0  0  0
 25 20  1  0  0  0  0
 27 23  1  0  0  0  0
 27 33  1  0  0  0  0
 28 27  1  0  0  0  0
 29 28  1  0  0  0  0
 29 30  1  0  0  0  0
 30 32  1  0  0  0  0
 31 30  1  0  0  0  0
 32 33  1  0  0  0  0
M  END
>  <minimizedAffinity>
-4.89272785

$$$$

 OpenBabel03242520203D

 33 35  0  0  0  0  0  0  0  0999 V2000
   37.6840   33.6240   39.7700 C   0  0  0  0  0  0  0  0  0  0  0  0
   36.9410   34.2230   40.3470 H   0  0  0  0  0  0  0  0  0  0  0  0
   37.7380   34.0220   38.7300 H   0  0  0  0  0  0  0  0  0  0  0  0
   36.7870   30.1950   38.4500 C   0  0  0  0  0  0  0  0  0  0  0  0
   37.2900   31.5130   38.5040 C   0  0  0  0  0  0  0  0  0  0  0  0
   37.1610   32.2400   39.6740 C   0  0  0  0  0  0  0  0  0  0  0  0
   36.5400   31.6190   40.7260 N   0  0  0  0  0  0  0  0  0  0  0  0
   36.0690   30.3440   40.6280 C   0  0  0  0  0  0  0  0  0  0  0  0
   36.1930   29.6440   39.5040 N   0  0  0  0  0  0  0  0  0  0  0  0
   37.7620   31.9150   37.6220 H   0  0  0  0  0  0  0  0  0  0  0  0
   35.5970   29.9650   41.5330 H   0  0  0  0  0  0  0  0  0  0  0  0
   36.9270   29.4330   37.1820 C   0  0  0  0  0  0  0  0  0  0  0  0
   35.5370   29.1260   36.5260 C   0  0  0  0  0  0  0  0  0  0  0  0
   36.5920   29.9290   35.8980 C   0  0  0  0  0  0  0  0  0  0  0  0
   37.5680   28.5330   37.3040 H   0  0  0  0  0  0  0  0  0  0  0  0
   35.4270   28.0830   36.1410 H   0  0  0  0  0  0  0  0  0  0  0  0
   34.6540   29.5850   36.9710 H   0  0  0  0  0  0  0  0  0  0  0  0
   36.3440   31.0280   35.8110 H   0  0  0  0  0  0  0  0  0  0  0  0
   37.1480   29.6070   34.9870 H   0  0  0  0  0  0  0  0  0  0  0  0
   39.0590   33.6210   40.4150 C   0  0  0  0  0  0  0  0  0  0  0  0
   39.8010   33.5380   39.6240 H   0  0  0  0  0  0  0  0  0  0  0  0
   39.2440   34.6220   40.9000 H   0  0  0  0  0  0  0  0  0  0  0  0
   40.1810   31.6160   41.2300 C   0  0  0  0  0  0  0  0  0  0  0  0
   40.9940   31.5550   40.2680 O   0  0  0  0  0  0  0  0  0  0  0  0
   39.1940   32.6080   41.4300 N   0  0  0  0  0  0  0  0  0  0  0  0
   38.5560   32.6940   42.2200 H   0  0  0  0  0  0  0  0  0  0  0  0
   40.2880   30.5750   42.1980 N   0  0  0  0  0  0  0  0  0  0  0  0
   41.4240   29.8000   42.6320 C   0  0  0  0  0  2  0  0  0  0  0  0
   41.2270   28.3270   42.3610 C   0  0  0  0  0  2  0  0  0  0  0  0
   40.0170   27.8230   43.1360 C   0  0  0  0  0  3  0  0  0  0  0  0
   39.8520   26.7620   42.9560 H   0  0  0  0  0  0  0  0  0  0  0  0
   38.8390   28.6420   42.6210 C   0  0  0  0  0  2  0  0  0  0  0  0
   39.1650   30.0820   42.9720 C   0  0  0  0  0  2  0  0  0  0  0  0
  1  2  1  0  0  0  0
  1 20  1  0  0  0  0
  3  1  1  0  0  0  0
  4  5  2  0  0  0  0
  4  9  1  0  0  0  0
  5  6  1  0  0  0  0
  6  1  1  0  0  0  0
  6  7  2  0  0  0  0
  8  7  1  0  0  0  0
  8 11  1  0  0  0  0
  9  8  2  0  0  0  0
 10  5  1  0  0  0  0
 12 15  1  0  0  0  0
 12  4  1  0  0  0  0
 13 17  1  0  0  0  0
 13 12  1  0  0  0  0
 14 13  1  0  0  0  0
 14 12  1  0  0  0  0
 16 13  1  0  0  0  0
 18 14  1  0  0  0  0
 19 14  1  0  0  0  0
 20 22  1  0  0  0  0
 20 25  1  0  0  0  0
 21 20  1  0  0  0  0
 23 25  1  0  0  0  0
 23 27  1  0  0  0  0
 24 23  2  0  0  0  0
 25 26  1  0  0  0  0
 27 28  1  0  0  0  0
 27 33  1  0  0  0  0
 29 28  1  0  0  0  0
 29 30  1  0  0  0  0
 31 30  1  0  0  0  0
 32 33  1  0  0  0  0
 32 30  1  0  0  0  0
M  END
>  <minimizedAffinity>
-4.82849884

$$$$

 OpenBabel03242520203D

 33 35  0  0  0  0  0  0  0  0999 V2000
   35.1810   29.3180   39.8880 C   0  0  0  0  0  0  0  0  0  0  0  0
   34.6710   30.1740   40.3880 H   0  0  0  0  0  0  0  0  0  0  0  0
   34.4350   28.5090   39.7090 H   0  0  0  0  0  0  0  0  0  0  0  0
   37.5410   26.9760   41.6930 C   0  0  0  0  0  0  0  0  0  0  0  0
   36.5820   27.4550   40.7730 C   0  0  0  0  0  0  0  0  0  0  0  0
   36.1800   28.7760   40.8420 C   0  0  0  0  0  0  0  0  0  0  0  0
   36.7490   29.5500   41.8200 N   0  0  0  0  0  0  0  0  0  0  0  0
   37.6710   29.0430   42.6870 C   0  0  0  0  0  0  0  0  0  0  0  0
   38.0590   27.7730   42.6220 N   0  0  0  0  0  0  0  0  0  0  0  0
   36.1920   26.7680   40.0400 H   0  0  0  0  0  0  0  0  0  0  0  0
   38.0470   29.7590   43.4170 H   0  0  0  0  0  0  0  0  0  0  0  0
   37.9550   25.5510   41.6080 C   0  0  0  0  0  0  0  0  0  0  0  0
   36.8880   24.5920   42.2400 C   0  0  0  0  0  0  0  0  0  0  0  0
   37.3010   24.5630   40.8320 C   0  0  0  0  0  0  0  0  0  0  0  0
   38.9830   25.3910   42.0010 H   0  0  0  0  0  0  0  0  0  0  0  0
   37.3140   23.7870   42.8870 H   0  0  0  0  0  0  0  0  0  0  0  0
   35.9370   25.0250   42.5500 H   0  0  0  0  0  0  0  0  0  0  0  0
   36.5030   24.9080   40.1110 H   0  0  0  0  0  0  0  0  0  0  0  0
   37.8640   23.7150   40.3760 H   0  0  0  0  0  0  0  0  0  0  0  0
   35.8600   29.7190   38.5910 C   0  0  0  0  0  0  0  0  0  0  0  0
   36.4590   28.8760   38.2500 H   0  0  0  0  0  0  0  0  0  0  0  0
   35.0780   29.8750   37.7950 H   0  0  0  0  0  0  0  0  0  0  0  0
   38.0240   30.8360   38.6980 C   0  0  0  0  0  0  0  0  0  0  0  0
   38.6930   29.7790   38.5400 O   0  0  0  0  0  0  0  0  0  0  0  0
   36.6150   30.9400   38.7130 N   0  0  0  0  0  0  0  0  0  0  0  0
   36.0580   31.7890   38.8010 H   0  0  0  0  0  0  0  0  0  0  0  0
   38.7840   32.0290   38.8750 N   0  0  0  0  0  0  0  0  0  0  0  0
   40.0860   32.4040   38.3800 C   0  0  0  0  0  2  0  0  0  0  0  0
   41.0540   32.6680   39.5090 C   0  0  0  0  0  2  0  0  0  0  0  0
   40.5450   33.8250   40.3570 C   0  0  0  0  0  3  0  0  0  0  0  0
   41.2260   34.0360   41.1800 H   0  0  0  0  0  0  0  0  0  0  0  0
   39.1890   33.3730   40.8860 C   0  0  0  0  0  2  0  0  0  0  0  0
   38.3260   33.1620   39.6560 C   0  0  0  0  0  2  0  0  0  0  0  0
  1  2  1  0  0  0  0
  1  6  1  0  0  0  0
  3  1  1  0  0  0  0
  4  9  1  0  0  0  0
  5  6  1  0  0  0  0
  5  4  2  0  0  0  0
  6  7  2  0  0  0  0
  7  8  1  0  0  0  0
  8 11  1  0  0  0  0
  9  8  2  0  0  0  0
 10  5  1  0  0  0  0
 12  4  1  0  0  0  0
 12 15  1  0  0  0  0
 12 13  1  0  0  0  0
 13 17  1  0  0  0  0
 13 16  1  0  0  0  0
 14 12  1  0  0  0  0
 14 13  1  0  0  0  0
 18 14  1  0  0  0  0
 19 14  1  0  0  0  0
 20 25  1  0  0  0  0
 20  1  1  0  0  0  0
 21 20  1  0  0  0  0
 22 20  1  0  0  0  0
 23 25  1  0  0  0  0
 23 27  1  0  0  0  0
 24 23  2  0  0  0  0
 25 26  1  0  0  0  0
 27 33  1  0  0  0  0
 28 27  1  0  0  0  0
 28 29  1  0  0  0  0
 29 30  1  0  0  0  0
 30 32  1  0  0  0  0
 30 31  1  0  0  0  0
 33 32  1  0  0  0  0
M  END
>  <minimizedAffinity>
-4.81872749

$$$$

 OpenBabel03242520203D

 33 35  0  0  0  0  0  0  0  0999 V2000
   34.7410   28.3340   38.5720 C   0  0  0  0  0  0  0  0  0  0  0  0
   35.7840   28.2720   38.1830 H   0  0  0  0  0  0  0  0  0  0  0  0
   34.4180   27.3190   38.9030 H   0  0  0  0  0  0  0  0  0  0  0  0
   31.8220   29.6440   36.5530 C   0  0  0  0  0  0  0  0  0  0  0  0
   32.6260   29.2880   37.6580 C   0  0  0  0  0  0  0  0  0  0  0  0
   33.8650   28.7140   37.4370 C   0  0  0  0  0  0  0  0  0  0  0  0
   34.2380   28.5240   36.1310 N   0  0  0  0  0  0  0  0  0  0  0  0
   33.4280   28.8840   35.0960 C   0  0  0  0  0  0  0  0  0  0  0  0
   32.2370   29.4360   35.3070 N   0  0  0  0  0  0  0  0  0  0  0  0
   32.2440   29.4770   38.6480 H   0  0  0  0  0  0  0  0  0  0  0  0
   33.8400   28.6800   34.1080 H   0  0  0  0  0  0  0  0  0  0  0  0
   30.4910   30.2520   36.8110 C   0  0  0  0  0  0  0  0  0  0  0  0
   30.4950   31.7990   36.5580 C   0  0  0  0  0  0  0  0  0  0  0  0
   29.6650   30.8400   35.8210 C   0  0  0  0  0  0  0  0  0  0  0  0
   30.0860   29.9660   37.8060 H   0  0  0  0  0  0  0  0  0  0  0  0
   29.9670   32.3970   37.3400 H   0  0  0  0  0  0  0  0  0  0  0  0
   31.3900   32.2390   36.1190 H   0  0  0  0  0  0  0  0  0  0  0  0
   29.9660   30.7040   34.7410 H   0  0  0  0  0  0  0  0  0  0  0  0
   28.5530   30.8050   35.8970 H   0  0  0  0  0  0  0  0  0  0  0  0
   34.5980   29.3380   39.7020 C   0  0  0  0  0  0  0  0  0  0  0  0
   34.9560   30.3010   39.3440 H   0  0  0  0  0  0  0  0  0  0  0  0
   33.5040   29.4880   39.9300 H   0  0  0  0  0  0  0  0  0  0  0  0
   36.6120   29.2280   41.0710 C   0  0  0  0  0  0  0  0  0  0  0  0
   37.3160   29.9040   40.2720 O   0  0  0  0  0  0  0  0  0  0  0  0
   35.2450   28.9050   40.9140 N   0  0  0  0  0  0  0  0  0  0  0  0
   34.6520   28.3940   41.5670 H   0  0  0  0  0  0  0  0  0  0  0  0
   37.2800   28.7570   42.2380 N   0  0  0  0  0  0  0  0  0  0  0  0
   38.3830   29.3110   42.9850 C   0  0  0  0  0  2  0  0  0  0  0  0
   39.5680   28.3750   43.0010 C   0  0  0  0  0  2  0  0  0  0  0  0
   39.1780   27.0690   43.6780 C   0  0  0  0  0  3  0  0  0  0  0  0
   40.0160   26.3740   43.7010 H   0  0  0  0  0  0  0  0  0  0  0  0
   38.0390   26.5040   42.8380 C   0  0  0  0  0  2  0  0  0  0  0  0
   36.9250   27.5310   42.9260 C   0  0  0  0  0  2  0  0  0  0  0  0
  1  3  1  0  0  0  0
  1 20  1  0  0  0  0
  2  1  1  0  0  0  0
  4 12  1  0  0  0  0
  4  5  1  0  0  0  0
  5 10  1  0  0  0  0
  6  5  2  0  0  0  0
  6  1  1  0  0  0  0
  7  6  1  0  0  0  0
  8  9  1  0  0  0  0
  8  7  2  0  0  0  0
  9  4  2  0  0  0  0
 11  8  1  0  0  0  0
 12 15  1  0  0  0  0
 13 12  1  0  0  0  0
 13 16  1  0  0  0  0
 14 19  1  0  0  0  0
 14 13  1  0  0  0  0
 14 12  1  0  0  0  0
 17 13  1  0  0  0  0
 18 14  1  0  0  0  0
 20 22  1  0  0  0  0
 20 25  1  0  0  0  0
 21 20  1  0  0  0  0
 23 27  1  0  0  0  0
 24 23  2  0  0  0  0
 25 23  1  0  0  0  0
 25 26  1  0  0  0  0
 27 33  1  0  0  0  0
 27 28  1  0  0  0  0
 28 29  1  0  0  0  0
 29 30  1  0  0  0  0
 30 31  1  0  0  0  0
 32 33  1  0  0  0  0
 32 30  1  0  0  0  0
M  END
>  <minimizedAffinity>
-4.80294275

$$$$
