
 OpenBabel03252507153D

 27 29  0  0  0  0  0  0  0  0999 V2000
   45.3920   35.7910   43.0150 C   0  0  0  0  0  0  0  0  0  0  0  0
   45.8470   34.4600   43.0730 C   0  0  0  0  0  0  0  0  0  0  0  0
   45.6620   33.7460   44.2350 C   0  0  0  0  0  0  0  0  0  0  0  0
   45.0550   34.3340   45.2790 N   0  0  0  0  0  0  0  0  0  0  0  0
   44.6130   35.6200   45.2290 C   0  0  0  0  0  0  0  0  0  0  0  0
   44.7920   36.3190   44.1000 N   0  0  0  0  0  0  0  0  0  0  0  0
   45.5240   36.3820   42.1080 H   0  0  0  0  0  0  0  0  0  0  0  0
   44.1220   36.0720   46.0990 H   0  0  0  0  0  0  0  0  0  0  0  0
   46.1390   32.3670   44.2820 C   0  0  0  0  0  0  0  0  0  0  0  0
   45.3190   31.3360   43.8880 C   0  0  0  0  0  0  0  0  0  0  0  0
   45.8020   30.0520   43.9460 C   0  0  0  0  0  0  0  0  0  0  0  0
   47.0770   29.7350   44.3820 C   0  0  0  0  0  0  0  0  0  0  0  0
   47.8540   30.8120   44.7650 C   0  0  0  0  0  0  0  0  0  0  0  0
   47.3680   32.0610   44.7020 N   0  0  0  0  0  0  0  0  0  0  0  0
   44.3130   31.4830   43.5350 H   0  0  0  0  0  0  0  0  0  0  0  0
   45.2020   29.1760   43.6480 H   0  0  0  0  0  0  0  0  0  0  0  0
   47.5040   28.7510   44.4480 H   0  0  0  0  0  0  0  0  0  0  0  0
   48.8790   30.7440   45.1330 H   0  0  0  0  0  0  0  0  0  0  0  0
   46.4860   33.9050   41.9130 C   0  0  0  0  0  0  0  0  0  0  0  0
   47.7580   33.8600   41.8880 O   0  0  0  0  0  0  0  0  0  0  0  0
   45.6540   33.4280   40.8400 N   0  0  0  0  0  0  0  0  0  0  0  0
   44.3180   32.8630   40.8450 C   0  0  0  0  0  2  0  0  0  0  0  0
   43.4340   33.6260   39.8500 C   0  0  0  0  0  2  0  0  0  0  0  0
   43.9670   33.4020   38.4500 C   0  0  0  0  0  3  0  0  0  0  0  0
   43.9420   34.3630   37.8810 H   0  0  0  0  0  0  0  0  0  0  0  0
   45.3620   32.8140   38.5170 C   0  0  0  0  0  2  0  0  0  0  0  0
   46.2290   33.5170   39.5120 C   0  0  0  0  0  2  0  0  0  0  0  0
  1  2  2  0  0  0  0
  1  6  1  0  0  0  0
  2  3  1  0  0  0  0
  3  9  1  0  0  0  0
  3  4  2  0  0  0  0
  5  4  1  0  0  0  0
  5  8  1  0  0  0  0
  6  5  2  0  0  0  0
  7  1  1  0  0  0  0
  9 14  1  0  0  0  0
 10 11  1  0  0  0  0
 10  9  2  0  0  0  0
 11 12  2  0  0  0  0
 12 17  1  0  0  0  0
 12 13  1  0  0  0  0
 13 18  1  0  0  0  0
 14 13  2  0  0  0  0
 15 10  1  0  0  0  0
 16 11  1  0  0  0  0
 19  2  1  0  0  0  0
 20 19  2  0  0  0  0
 21 22  1  0  0  0  0
 21 19  1  0  0  0  0
 23 22  1  0  0  0  0
 24 26  1  0  0  0  0
 24 23  1  0  0  0  0
 25 24  1  0  0  0  0
 26 27  1  0  0  0  0
 27 21  1  0  0  0  0
M  END
>  <minimizedAffinity>
-4.14644766

>  <minimizedRMSD>
0.806793034

$$$$
