
 OpenBabel03242518513D

 21 22  0  0  0  0  0  0  0  0999 V2000
   37.1290   27.9790   43.6800 C   0  0  0  0  0  0  0  0  0  0  0  0
   36.8830   26.7930   42.9620 C   0  0  0  0  0  0  0  0  0  0  0  0
   37.4240   26.7210   41.6840 C   0  0  0  0  0  0  0  0  0  0  0  0
   38.1340   27.7830   41.2360 N   0  0  0  0  0  0  0  0  0  0  0  0
   38.3540   28.9010   41.9390 C   0  0  0  0  0  0  0  0  0  0  0  0
   37.8440   28.9990   43.1750 N   0  0  0  0  0  0  0  0  0  0  0  0
   36.7240   28.0770   44.6820 H   0  0  0  0  0  0  0  0  0  0  0  0
   36.2940   26.0430   43.4720 H   0  0  0  0  0  0  0  0  0  0  0  0
   39.1210   30.0200   41.4340 C   0  0  0  0  0  0  0  0  0  0  0  0
   40.3560   30.1230   41.5880 O   0  0  0  0  0  0  0  0  0  0  0  0
   38.5820   31.1200   40.7150 N   0  0  0  0  0  0  0  0  0  0  0  0
   39.5100   32.1500   40.2880 C   0  0  0  0  0  2  0  0  0  0  0  0
   38.8560   33.4700   40.7050 C   0  0  0  0  0  2  0  0  0  0  0  0
   37.6630   33.6700   39.8080 C   0  0  0  0  0  3  0  0  0  0  0  0
   38.0170   34.2300   38.8930 H   0  0  0  0  0  0  0  0  0  0  0  0
   37.0730   32.3790   39.3150 C   0  0  0  0  0  2  0  0  0  0  0  0
   37.1820   31.2960   40.3720 C   0  0  0  0  0  2  0  0  0  0  0  0
   37.1700   25.4900   40.9390 C   0  0  0  0  0  0  0  0  0  0  0  0
   36.2170   25.7290   39.9500 F   0  0  0  0  0  0  0  0  0  0  0  0
   36.5750   24.6050   41.8230 F   0  0  0  0  0  0  0  0  0  0  0  0
   38.2870   24.9760   40.3430 F   0  0  0  0  0  0  0  0  0  0  0  0
  1  7  1  0  0  0  0
  2  8  1  0  0  0  0
  2  1  2  0  0  0  0
  3  2  1  0  0  0  0
  4  3  2  0  0  0  0
  4  5  1  0  0  0  0
  5  6  2  0  0  0  0
  6  1  1  0  0  0  0
  9 10  2  0  0  0  0
  9  5  1  0  0  0  0
 11  9  1  0  0  0  0
 12 13  1  0  0  0  0
 12 11  1  0  0  0  0
 14 13  1  0  0  0  0
 15 14  1  0  0  0  0
 16 14  1  0  0  0  0
 16 17  1  0  0  0  0
 17 11  1  0  0  0  0
 18  3  1  0  0  0  0
 18 20  1  0  0  0  0
 19 18  1  0  0  0  0
 21 18  1  0  0  0  0
M  END
>  <minimizedAffinity>
-5.09188557

$$$$

 OpenBabel03242518513D

 21 22  0  0  0  0  0  0  0  0999 V2000
   37.8590   28.2810   43.6560 C   0  0  0  0  0  0  0  0  0  0  0  0
   37.7390   26.9330   43.2660 C   0  0  0  0  0  0  0  0  0  0  0  0
   37.3030   26.7030   41.9670 C   0  0  0  0  0  0  0  0  0  0  0  0
   37.0300   27.7760   41.1910 N   0  0  0  0  0  0  0  0  0  0  0  0
   37.1520   29.0500   41.5850 C   0  0  0  0  0  0  0  0  0  0  0  0
   37.5710   29.3040   42.8340 N   0  0  0  0  0  0  0  0  0  0  0  0
   38.1970   28.5060   44.6630 H   0  0  0  0  0  0  0  0  0  0  0  0
   38.0000   26.1980   44.0150 H   0  0  0  0  0  0  0  0  0  0  0  0
   36.8550   30.1810   40.7300 C   0  0  0  0  0  0  0  0  0  0  0  0
   35.7360   30.7330   40.6970 O   0  0  0  0  0  0  0  0  0  0  0  0
   37.7760   30.7940   39.8400 N   0  0  0  0  0  0  0  0  0  0  0  0
   37.2950   31.9200   39.0620 C   0  0  0  0  0  2  0  0  0  0  0  0
   37.7350   31.6260   37.6250 C   0  0  0  0  0  2  0  0  0  0  0  0
   39.2330   31.7780   37.5870 C   0  0  0  0  0  3  0  0  0  0  0  0
   39.4580   32.8590   37.3470 H   0  0  0  0  0  0  0  0  0  0  0  0
   39.8900   31.4910   38.9080 C   0  0  0  0  0  2  0  0  0  0  0  0
   39.1570   30.3870   39.6460 C   0  0  0  0  0  2  0  0  0  0  0  0
   37.1810   25.3040   41.5620 C   0  0  0  0  0  0  0  0  0  0  0  0
   36.4210   25.2190   40.3970 F   0  0  0  0  0  0  0  0  0  0  0  0
   36.4330   24.6690   42.5400 F   0  0  0  0  0  0  0  0  0  0  0  0
   38.3840   24.6980   41.3350 F   0  0  0  0  0  0  0  0  0  0  0  0
  1  7  1  0  0  0  0
  2  1  1  0  0  0  0
  2  8  1  0  0  0  0
  3  2  2  0  0  0  0
  4  5  2  0  0  0  0
  4  3  1  0  0  0  0
  5  6  1  0  0  0  0
  6  1  2  0  0  0  0
  9  5  1  0  0  0  0
 10  9  2  0  0  0  0
 11  9  1  0  0  0  0
 12 11  1  0  0  0  0
 13 12  1  0  0  0  0
 14 13  1  0  0  0  0
 14 16  1  0  0  0  0
 15 14  1  0  0  0  0
 16 17  1  0  0  0  0
 17 11  1  0  0  0  0
 18  3  1  0  0  0  0
 18 20  1  0  0  0  0
 19 18  1  0  0  0  0
 21 18  1  0  0  0  0
M  END
>  <minimizedAffinity>
-4.99760866

$$$$

 OpenBabel03242518513D

 21 22  0  0  0  0  0  0  0  0999 V2000
   36.8600   27.2810   39.0930 C   0  0  0  0  0  0  0  0  0  0  0  0
   36.6060   26.7630   40.3780 C   0  0  0  0  0  0  0  0  0  0  0  0
   37.2570   27.3860   41.4350 C   0  0  0  0  0  0  0  0  0  0  0  0
   38.0750   28.4250   41.1510 N   0  0  0  0  0  0  0  0  0  0  0  0
   38.3010   28.9000   39.9200 C   0  0  0  0  0  0  0  0  0  0  0  0
   37.6860   28.3190   38.8790 N   0  0  0  0  0  0  0  0  0  0  0  0
   36.3710   26.8240   38.2390 H   0  0  0  0  0  0  0  0  0  0  0  0
   35.9230   25.9250   40.4240 H   0  0  0  0  0  0  0  0  0  0  0  0
   39.1800   30.0180   39.6460 C   0  0  0  0  0  0  0  0  0  0  0  0
   40.3890   29.8810   39.3710 O   0  0  0  0  0  0  0  0  0  0  0  0
   38.7880   31.3840   39.6530 N   0  0  0  0  0  0  0  0  0  0  0  0
   39.8120   32.3670   39.3530 C   0  0  0  0  0  2  0  0  0  0  0  0
   39.6800   33.4250   40.4530 C   0  0  0  0  0  2  0  0  0  0  0  0
   38.3910   34.1610   40.1980 C   0  0  0  0  0  3  0  0  0  0  0  0
   38.6240   35.0250   39.5090 H   0  0  0  0  0  0  0  0  0  0  0  0
   37.3610   33.3230   39.4940 C   0  0  0  0  0  2  0  0  0  0  0  0
   37.4500   31.8740   39.9350 C   0  0  0  0  0  2  0  0  0  0  0  0
   36.9920   26.8490   42.7680 C   0  0  0  0  0  0  0  0  0  0  0  0
   38.1210   27.0080   43.5700 F   0  0  0  0  0  0  0  0  0  0  0  0
   36.8290   25.4820   42.6230 F   0  0  0  0  0  0  0  0  0  0  0  0
   35.9350   27.4470   43.3930 F   0  0  0  0  0  0  0  0  0  0  0  0
  1  2  1  0  0  0  0
  2  8  1  0  0  0  0
  2  3  2  0  0  0  0
  3 18  1  0  0  0  0
  4  3  1  0  0  0  0
  5  4  2  0  0  0  0
  6  1  2  0  0  0  0
  6  5  1  0  0  0  0
  7  1  1  0  0  0  0
  9 11  1  0  0  0  0
  9  5  1  0  0  0  0
 10  9  2  0  0  0  0
 11 17  1  0  0  0  0
 12 11  1  0  0  0  0
 12 13  1  0  0  0  0
 14 13  1  0  0  0  0
 15 14  1  0  0  0  0
 16 17  1  0  0  0  0
 16 14  1  0  0  0  0
 18 21  1  0  0  0  0
 18 19  1  0  0  0  0
 20 18  1  0  0  0  0
M  END
>  <minimizedAffinity>
-4.94636154

$$$$

 OpenBabel03242518513D

 21 22  0  0  0  0  0  0  0  0999 V2000
   37.1050   27.9560   39.3300 C   0  0  0  0  0  0  0  0  0  0  0  0
   36.9530   27.1630   40.4840 C   0  0  0  0  0  0  0  0  0  0  0  0
   37.0860   27.8170   41.7030 C   0  0  0  0  0  0  0  0  0  0  0  0
   37.3490   29.1430   41.6850 N   0  0  0  0  0  0  0  0  0  0  0  0
   37.4900   29.8760   40.5730 C   0  0  0  0  0  0  0  0  0  0  0  0
   37.3660   29.2730   39.3820 N   0  0  0  0  0  0  0  0  0  0  0  0
   37.0080   27.4850   38.3560 H   0  0  0  0  0  0  0  0  0  0  0  0
   36.7440   26.1160   40.3160 H   0  0  0  0  0  0  0  0  0  0  0  0
   37.7680   31.2970   40.5850 C   0  0  0  0  0  0  0  0  0  0  0  0
   36.8790   32.1650   40.4670 O   0  0  0  0  0  0  0  0  0  0  0  0
   39.0580   31.8740   40.7310 N   0  0  0  0  0  0  0  0  0  0  0  0
   39.1390   33.3220   40.7190 C   0  0  0  0  0  2  0  0  0  0  0  0
   40.2700   33.6480   39.7400 C   0  0  0  0  0  2  0  0  0  0  0  0
   41.5560   33.2220   40.3990 C   0  0  0  0  0  3  0  0  0  0  0  0
   41.9360   34.0990   41.0010 H   0  0  0  0  0  0  0  0  0  0  0  0
   41.3750   32.0880   41.3690 C   0  0  0  0  0  2  0  0  0  0  0  0
   40.2980   31.1340   40.8890 C   0  0  0  0  0  2  0  0  0  0  0  0
   36.9270   26.9950   42.9010 C   0  0  0  0  0  0  0  0  0  0  0  0
   38.0820   27.0710   43.6780 F   0  0  0  0  0  0  0  0  0  0  0  0
   36.8520   25.6790   42.4750 F   0  0  0  0  0  0  0  0  0  0  0  0
   35.8640   27.3650   43.6750 F   0  0  0  0  0  0  0  0  0  0  0  0
  1  6  2  0  0  0  0
  1  2  1  0  0  0  0
  2  3  2  0  0  0  0
  3 18  1  0  0  0  0
  4  3  1  0  0  0  0
  5  9  1  0  0  0  0
  5  4  2  0  0  0  0
  6  5  1  0  0  0  0
  7  1  1  0  0  0  0
  8  2  1  0  0  0  0
  9 11  1  0  0  0  0
 10  9  2  0  0  0  0
 11 17  1  0  0  0  0
 12 11  1  0  0  0  0
 13 14  1  0  0  0  0
 13 12  1  0  0  0  0
 14 15  1  0  0  0  0
 14 16  1  0  0  0  0
 17 16  1  0  0  0  0
 18 21  1  0  0  0  0
 18 19  1  0  0  0  0
 20 18  1  0  0  0  0
M  END
>  <minimizedAffinity>
-4.89413643

$$$$

 OpenBabel03242518513D

 21 22  0  0  0  0  0  0  0  0999 V2000
   35.8520   30.4090   40.4400 C   0  0  0  0  0  0  0  0  0  0  0  0
   36.9630   31.2660   40.5610 C   0  0  0  0  0  0  0  0  0  0  0  0
   38.0400   30.7800   41.2930 C   0  0  0  0  0  0  0  0  0  0  0  0
   37.9370   29.5410   41.8250 N   0  0  0  0  0  0  0  0  0  0  0  0
   36.8690   28.7440   41.6950 C   0  0  0  0  0  0  0  0  0  0  0  0
   35.8140   29.1860   40.9940 N   0  0  0  0  0  0  0  0  0  0  0  0
   34.9890   30.7480   39.8760 H   0  0  0  0  0  0  0  0  0  0  0  0
   36.8770   32.2260   40.0710 H   0  0  0  0  0  0  0  0  0  0  0  0
   36.7890   27.4190   42.2730 C   0  0  0  0  0  0  0  0  0  0  0  0
   36.4530   27.2130   43.4580 O   0  0  0  0  0  0  0  0  0  0  0  0
   37.0730   26.2100   41.5840 N   0  0  0  0  0  0  0  0  0  0  0  0
   36.9370   24.9750   42.3320 C   0  0  0  0  0  2  0  0  0  0  0  0
   38.2240   24.1950   42.0490 C   0  0  0  0  0  2  0  0  0  0  0  0
   38.1600   23.7520   40.6120 C   0  0  0  0  0  3  0  0  0  0  0  0
   37.6440   22.7470   40.5880 H   0  0  0  0  0  0  0  0  0  0  0  0
   37.3410   24.6690   39.7470 C   0  0  0  0  0  2  0  0  0  0  0  0
   37.4900   26.1100   40.1960 C   0  0  0  0  0  2  0  0  0  0  0  0
   39.1940   31.6690   41.4170 C   0  0  0  0  0  0  0  0  0  0  0  0
   40.0730   31.4460   40.3580 F   0  0  0  0  0  0  0  0  0  0  0  0
   39.8770   31.2780   42.5560 F   0  0  0  0  0  0  0  0  0  0  0  0
   38.8590   32.9930   41.4250 F   0  0  0  0  0  0  0  0  0  0  0  0
  1  2  2  0  0  0  0
  1  6  1  0  0  0  0
  2  3  1  0  0  0  0
  3 18  1  0  0  0  0
  3  4  2  0  0  0  0
  5  4  1  0  0  0  0
  5  9  1  0  0  0  0
  6  5  2  0  0  0  0
  7  1  1  0  0  0  0
  8  2  1  0  0  0  0
  9 10  2  0  0  0  0
 11  9  1  0  0  0  0
 11 12  1  0  0  0  0
 13 12  1  0  0  0  0
 14 13  1  0  0  0  0
 15 14  1  0  0  0  0
 16 17  1  0  0  0  0
 16 14  1  0  0  0  0
 17 11  1  0  0  0  0
 18 21  1  0  0  0  0
 18 20  1  0  0  0  0
 19 18  1  0  0  0  0
M  END
>  <minimizedAffinity>
-4.87540579

$$$$

 OpenBabel03242518513D

 21 22  0  0  0  0  0  0  0  0999 V2000
   33.7950   28.8260   38.2700 C   0  0  0  0  0  0  0  0  0  0  0  0
   34.4690   29.0220   37.0500 C   0  0  0  0  0  0  0  0  0  0  0  0
   35.7860   29.4580   37.1350 C   0  0  0  0  0  0  0  0  0  0  0  0
   36.3080   29.6590   38.3660 N   0  0  0  0  0  0  0  0  0  0  0  0
   35.6460   29.4650   39.5140 C   0  0  0  0  0  0  0  0  0  0  0  0
   34.3730   29.0450   39.4630 N   0  0  0  0  0  0  0  0  0  0  0  0
   32.7640   28.4860   38.2500 H   0  0  0  0  0  0  0  0  0  0  0  0
   33.9000   28.8130   36.1550 H   0  0  0  0  0  0  0  0  0  0  0  0
   36.2330   29.6860   40.8190 C   0  0  0  0  0  0  0  0  0  0  0  0
   36.2750   30.8070   41.3650 O   0  0  0  0  0  0  0  0  0  0  0  0
   36.8210   28.6780   41.6290 N   0  0  0  0  0  0  0  0  0  0  0  0
   37.3590   29.0910   42.9120 C   0  0  0  0  0  2  0  0  0  0  0  0
   38.7550   28.4660   42.9760 C   0  0  0  0  0  2  0  0  0  0  0  0
   38.5620   26.9800   43.1300 C   0  0  0  0  0  3  0  0  0  0  0  0
   38.5020   26.7580   44.2360 H   0  0  0  0  0  0  0  0  0  0  0  0
   37.2770   26.4860   42.5280 C   0  0  0  0  0  2  0  0  0  0  0  0
   36.9290   27.2730   41.2790 C   0  0  0  0  0  2  0  0  0  0  0  0
   36.4860   29.6590   35.8680 C   0  0  0  0  0  0  0  0  0  0  0  0
   37.0400   30.9380   35.8370 F   0  0  0  0  0  0  0  0  0  0  0  0
   35.5230   29.6470   34.8730 F   0  0  0  0  0  0  0  0  0  0  0  0
   37.4860   28.7540   35.6520 F   0  0  0  0  0  0  0  0  0  0  0  0
  1  6  1  0  0  0  0
  2  3  1  0  0  0  0
  2  1  2  0  0  0  0
  3  4  2  0  0  0  0
  4  5  1  0  0  0  0
  5  9  1  0  0  0  0
  6  5  2  0  0  0  0
  7  1  1  0  0  0  0
  8  2  1  0  0  0  0
  9 10  2  0  0  0  0
  9 11  1  0  0  0  0
 11 12  1  0  0  0  0
 12 13  1  0  0  0  0
 13 14  1  0  0  0  0
 14 15  1  0  0  0  0
 16 14  1  0  0  0  0
 17 11  1  0  0  0  0
 17 16  1  0  0  0  0
 18  3  1  0  0  0  0
 19 18  1  0  0  0  0
 20 18  1  0  0  0  0
 21 18  1  0  0  0  0
M  END
>  <minimizedAffinity>
-4.84344339

$$$$

 OpenBabel03242518513D

 21 22  0  0  0  0  0  0  0  0999 V2000
   35.2050   29.1770   39.8350 C   0  0  0  0  0  0  0  0  0  0  0  0
   35.7600   30.0500   38.8800 C   0  0  0  0  0  0  0  0  0  0  0  0
   37.0720   30.4530   39.1010 C   0  0  0  0  0  0  0  0  0  0  0  0
   37.7020   29.9830   40.2020 N   0  0  0  0  0  0  0  0  0  0  0  0
   37.1520   29.1520   41.0960 C   0  0  0  0  0  0  0  0  0  0  0  0
   35.8870   28.7460   40.9090 N   0  0  0  0  0  0  0  0  0  0  0  0
   34.1830   28.8370   39.7010 H   0  0  0  0  0  0  0  0  0  0  0  0
   35.1140   30.3270   38.0590 H   0  0  0  0  0  0  0  0  0  0  0  0
   37.8530   28.6620   42.2650 C   0  0  0  0  0  0  0  0  0  0  0  0
   38.1180   29.3810   43.2500 O   0  0  0  0  0  0  0  0  0  0  0  0
   38.3180   27.3310   42.4370 N   0  0  0  0  0  0  0  0  0  0  0  0
   39.0010   27.0250   43.6800 C   0  0  0  0  0  2  0  0  0  0  0  0
   40.2750   26.2860   43.2610 C   0  0  0  0  0  2  0  0  0  0  0  0
   39.8490   24.9370   42.7450 C   0  0  0  0  0  3  0  0  0  0  0  0
   39.8260   24.2290   43.6260 H   0  0  0  0  0  0  0  0  0  0  0  0
   38.4620   24.9380   42.1660 C   0  0  0  0  0  2  0  0  0  0  0  0
   38.1660   26.2550   41.4740 C   0  0  0  0  0  2  0  0  0  0  0  0
   37.6480   31.3590   38.1100 C   0  0  0  0  0  0  0  0  0  0  0  0
   37.1090   32.6340   38.2700 F   0  0  0  0  0  0  0  0  0  0  0  0
   37.2110   30.9230   36.8700 F   0  0  0  0  0  0  0  0  0  0  0  0
   39.0080   31.4560   38.1900 F   0  0  0  0  0  0  0  0  0  0  0  0
  1  6  1  0  0  0  0
  2  3  1  0  0  0  0
  2  1  2  0  0  0  0
  3  4  2  0  0  0  0
  4  5  1  0  0  0  0
  5  9  1  0  0  0  0
  6  5  2  0  0  0  0
  7  1  1  0  0  0  0
  8  2  1  0  0  0  0
  9 11  1  0  0  0  0
  9 10  2  0  0  0  0
 11 12  1  0  0  0  0
 13 12  1  0  0  0  0
 14 13  1  0  0  0  0
 14 15  1  0  0  0  0
 16 14  1  0  0  0  0
 17 16  1  0  0  0  0
 17 11  1  0  0  0  0
 18 21  1  0  0  0  0
 18 19  1  0  0  0  0
 18  3  1  0  0  0  0
 20 18  1  0  0  0  0
M  END
>  <minimizedAffinity>
-4.70843124

$$$$

 OpenBabel03242518513D

 21 22  0  0  0  0  0  0  0  0999 V2000
   37.7110   29.7430   38.2870 C   0  0  0  0  0  0  0  0  0  0  0  0
   36.4200   29.5290   37.7670 C   0  0  0  0  0  0  0  0  0  0  0  0
   35.4760   29.0190   38.6500 C   0  0  0  0  0  0  0  0  0  0  0  0
   35.8660   28.7710   39.9220 N   0  0  0  0  0  0  0  0  0  0  0  0
   37.1010   28.9830   40.3930 C   0  0  0  0  0  0  0  0  0  0  0  0
   38.0340   29.4750   39.5630 N   0  0  0  0  0  0  0  0  0  0  0  0
   38.4790   30.1400   37.6320 H   0  0  0  0  0  0  0  0  0  0  0  0
   36.2800   29.7820   36.7260 H   0  0  0  0  0  0  0  0  0  0  0  0
   37.4890   28.7110   41.7610 C   0  0  0  0  0  0  0  0  0  0  0  0
   37.3750   29.5480   42.6800 O   0  0  0  0  0  0  0  0  0  0  0  0
   38.0370   27.4850   42.2240 N   0  0  0  0  0  0  0  0  0  0  0  0
   38.3650   27.3990   43.6350 C   0  0  0  0  0  2  0  0  0  0  0  0
   39.7830   26.8210   43.6770 C   0  0  0  0  0  2  0  0  0  0  0  0
   39.6820   25.3830   43.2450 C   0  0  0  0  0  3  0  0  0  0  0  0
   39.4900   24.7620   44.1700 H   0  0  0  0  0  0  0  0  0  0  0  0
   38.5300   25.1250   42.3150 C   0  0  0  0  0  2  0  0  0  0  0  0
   38.2940   26.3150   41.4040 C   0  0  0  0  0  2  0  0  0  0  0  0
   34.1350   28.7980   38.1110 C   0  0  0  0  0  0  0  0  0  0  0  0
   33.1830   29.1150   39.0790 F   0  0  0  0  0  0  0  0  0  0  0  0
   34.0100   27.4360   37.8990 F   0  0  0  0  0  0  0  0  0  0  0  0
   33.8720   29.5380   36.9930 F   0  0  0  0  0  0  0  0  0  0  0  0
  1  6  1  0  0  0  0
  2  1  2  0  0  0  0
  2  3  1  0  0  0  0
  3  4  2  0  0  0  0
  4  5  1  0  0  0  0
  5  9  1  0  0  0  0
  6  5  2  0  0  0  0
  7  1  1  0  0  0  0
  8  2  1  0  0  0  0
  9 11  1  0  0  0  0
  9 10  2  0  0  0  0
 11 12  1  0  0  0  0
 12 13  1  0  0  0  0
 14 13  1  0  0  0  0
 14 15  1  0  0  0  0
 16 14  1  0  0  0  0
 17 11  1  0  0  0  0
 17 16  1  0  0  0  0
 18  3  1  0  0  0  0
 18 19  1  0  0  0  0
 20 18  1  0  0  0  0
 21 18  1  0  0  0  0
M  END
>  <minimizedAffinity>
-4.67126799

$$$$

 OpenBabel03242518513D

 21 22  0  0  0  0  0  0  0  0999 V2000
   37.7590   30.5100   37.5210 C   0  0  0  0  0  0  0  0  0  0  0  0
   38.0370   31.8200   37.9550 C   0  0  0  0  0  0  0  0  0  0  0  0
   37.9510   32.0490   39.3230 C   0  0  0  0  0  0  0  0  0  0  0  0
   37.6090   31.0100   40.1180 N   0  0  0  0  0  0  0  0  0  0  0  0
   37.3480   29.7710   39.6810 C   0  0  0  0  0  0  0  0  0  0  0  0
   37.4240   29.5200   38.3650 N   0  0  0  0  0  0  0  0  0  0  0  0
   37.8150   30.2880   36.4600 H   0  0  0  0  0  0  0  0  0  0  0  0
   38.2950   32.5310   37.1820 H   0  0  0  0  0  0  0  0  0  0  0  0
   36.9880   28.6760   40.5570 C   0  0  0  0  0  0  0  0  0  0  0  0
   35.8320   28.2070   40.6200 O   0  0  0  0  0  0  0  0  0  0  0  0
   37.8800   28.0080   41.4370 N   0  0  0  0  0  0  0  0  0  0  0  0
   37.3350   26.9310   42.2400 C   0  0  0  0  0  2  0  0  0  0  0  0
   37.8240   27.2090   43.6640 C   0  0  0  0  0  2  0  0  0  0  0  0
   39.3070   26.9480   43.6750 C   0  0  0  0  0  3  0  0  0  0  0  0
   39.4580   25.8570   43.9250 H   0  0  0  0  0  0  0  0  0  0  0  0
   39.9560   27.1710   42.3380 C   0  0  0  0  0  2  0  0  0  0  0  0
   39.2910   28.3160   41.5990 C   0  0  0  0  0  2  0  0  0  0  0  0
   38.2410   33.4080   39.7730 C   0  0  0  0  0  0  0  0  0  0  0  0
   38.4060   33.4170   41.1570 F   0  0  0  0  0  0  0  0  0  0  0  0
   37.1050   34.1610   39.5290 F   0  0  0  0  0  0  0  0  0  0  0  0
   39.3640   33.9390   39.2050 F   0  0  0  0  0  0  0  0  0  0  0  0
  1  2  2  0  0  0  0
  1  6  1  0  0  0  0
  2  3  1  0  0  0  0
  3 18  1  0  0  0  0
  3  4  2  0  0  0  0
  5  4  1  0  0  0  0
  5  9  1  0  0  0  0
  6  5  2  0  0  0  0
  7  1  1  0  0  0  0
  8  2  1  0  0  0  0
  9 10  2  0  0  0  0
  9 11  1  0  0  0  0
 11 17  1  0  0  0  0
 11 12  1  0  0  0  0
 12 13  1  0  0  0  0
 13 14  1  0  0  0  0
 14 15  1  0  0  0  0
 16 14  1  0  0  0  0
 17 16  1  0  0  0  0
 18 19  1  0  0  0  0
 20 18  1  0  0  0  0
 21 18  1  0  0  0  0
M  END
>  <minimizedAffinity>
-4.66245699

$$$$
