
 OpenBabel03242517013D

 30 32  0  0  0  0  0  0  0  0999 V2000
   37.4820   31.7070   39.9000 C   0  0  0  0  0  0  0  0  0  0  0  0
   37.1810   33.0070   39.5300 C   0  0  0  0  0  0  0  0  0  0  0  0
   38.0380   34.0190   39.9450 C   0  0  0  0  0  0  0  0  0  0  0  0
   39.1470   33.7130   40.7020 C   0  0  0  0  0  0  0  0  0  0  0  0
   39.4600   32.4380   41.0780 C   0  0  0  0  0  0  0  0  0  0  0  0
   38.5850   31.4400   40.6480 C   0  0  0  0  0  0  0  0  0  0  0  0
   36.3130   33.2590   38.9350 H   0  0  0  0  0  0  0  0  0  0  0  0
   37.8910   35.0640   39.7080 H   0  0  0  0  0  0  0  0  0  0  0  0
   39.8410   34.4810   41.0450 H   0  0  0  0  0  0  0  0  0  0  0  0
   40.3140   32.1220   41.6710 H   0  0  0  0  0  0  0  0  0  0  0  0
   38.7270   29.2980   42.1510 C   0  0  0  0  0  0  0  0  0  0  0  0
   38.5240   29.7020   43.2970 O   0  0  0  0  0  0  0  0  0  0  0  0
   38.7860   30.0720   40.9650 N   0  0  0  0  0  0  0  0  0  0  0  0
   39.0240   29.6590   40.0210 H   0  0  0  0  0  0  0  0  0  0  0  0
   38.9200   27.8900   42.0500 N   0  0  0  0  0  0  0  0  0  0  0  0
   39.1530   27.4630   40.7020 C   0  0  0  0  0  2  0  0  0  0  0  0
   39.7700   26.1080   40.5730 C   0  0  0  0  0  2  0  0  0  0  0  0
   39.2630   25.1510   41.6000 C   0  0  0  0  0  3  0  0  0  0  0  0
   39.9170   24.2350   41.5610 H   0  0  0  0  0  0  0  0  0  0  0  0
   39.3780   25.6680   43.0070 C   0  0  0  0  0  2  0  0  0  0  0  0
   38.8770   27.0360   43.2130 C   0  0  0  0  0  2  0  0  0  0  0  0
   35.5130   29.2350   37.8200 C   0  0  0  0  0  0  0  0  0  0  0  0
   36.4580   30.2400   38.1420 C   0  0  0  0  0  0  0  0  0  0  0  0
   36.5530   30.6820   39.4400 C   0  0  0  0  0  0  0  0  0  0  0  0
   35.7100   30.1100   40.3490 N   0  0  0  0  0  0  0  0  0  0  0  0
   34.8120   29.1540   40.0400 C   0  0  0  0  0  0  0  0  0  0  0  0
   34.7130   28.7130   38.7650 N   0  0  0  0  0  0  0  0  0  0  0  0
   35.5700   29.0050   36.7610 H   0  0  0  0  0  0  0  0  0  0  0  0
   37.1280   30.7020   37.4420 H   0  0  0  0  0  0  0  0  0  0  0  0
   34.1600   28.7180   40.7640 H   0  0  0  0  0  0  0  0  0  0  0  0
  1  6  1  0  0  0  0
  2  1  2  0  0  0  0
  2  3  1  0  0  0  0
  3  4  2  0  0  0  0
  4  9  1  0  0  0  0
  4  5  1  0  0  0  0
  5 10  1  0  0  0  0
  6 13  1  0  0  0  0
  6  5  2  0  0  0  0
  7  2  1  0  0  0  0
  8  3  1  0  0  0  0
 11 12  2  0  0  0  0
 13 11  1  0  0  0  0
 14 13  1  0  0  0  0
 15 11  1  0  0  0  0
 15 21  1  0  0  0  0
 16 15  1  0  0  0  0
 17 16  1  0  0  0  0
 17 18  1  0  0  0  0
 18 20  1  0  0  0  0
 19 18  1  0  0  0  0
 20 21  1  0  0  0  0
 22 23  2  0  0  0  0
 22 27  1  0  0  0  0
 23 24  1  0  0  0  0
 24  1  1  0  0  0  0
 24 25  2  0  0  0  0
 26 25  1  0  0  0  0
 26 30  1  0  0  0  0
 27 26  2  0  0  0  0
 28 22  1  0  0  0  0
 29 23  1  0  0  0  0
M  END
>  <minimizedAffinity>
-5.63020182

$$$$

 OpenBabel03242517013D

 30 32  0  0  0  0  0  0  0  0999 V2000
   37.5070   31.8390   39.9470 C   0  0  0  0  0  0  0  0  0  0  0  0
   37.1820   33.0710   39.4030 C   0  0  0  0  0  0  0  0  0  0  0  0
   37.9790   34.1600   39.7310 C   0  0  0  0  0  0  0  0  0  0  0  0
   39.0540   33.9960   40.5750 C   0  0  0  0  0  0  0  0  0  0  0  0
   39.3900   32.7910   41.1230 C   0  0  0  0  0  0  0  0  0  0  0  0
   38.5760   31.7130   40.7770 C   0  0  0  0  0  0  0  0  0  0  0  0
   36.3400   33.2110   38.7380 H   0  0  0  0  0  0  0  0  0  0  0  0
   37.8080   35.1610   39.3590 H   0  0  0  0  0  0  0  0  0  0  0  0
   39.7010   34.8290   40.8550 H   0  0  0  0  0  0  0  0  0  0  0  0
   40.2200   32.5860   41.7930 H   0  0  0  0  0  0  0  0  0  0  0  0
   39.4600   29.2450   40.7800 C   0  0  0  0  0  0  0  0  0  0  0  0
   39.9740   29.0930   39.6710 O   0  0  0  0  0  0  0  0  0  0  0  0
   38.8070   30.4030   41.2720 N   0  0  0  0  0  0  0  0  0  0  0  0
   38.3360   30.4390   42.2200 H   0  0  0  0  0  0  0  0  0  0  0  0
   39.5550   28.1080   41.6340 N   0  0  0  0  0  0  0  0  0  0  0  0
   38.9460   28.3290   42.9120 C   0  0  0  0  0  2  0  0  0  0  0  0
   38.6350   27.0840   43.6790 C   0  0  0  0  0  2  0  0  0  0  0  0
   39.6760   26.0300   43.5010 C   0  0  0  0  0  3  0  0  0  0  0  0
   39.2700   25.0750   43.9380 H   0  0  0  0  0  0  0  0  0  0  0  0
   39.9730   25.7200   42.0610 C   0  0  0  0  0  2  0  0  0  0  0  0
   40.2040   26.8930   41.2030 C   0  0  0  0  0  2  0  0  0  0  0  0
   35.6630   29.1240   38.0650 C   0  0  0  0  0  0  0  0  0  0  0  0
   36.5420   30.2090   38.3040 C   0  0  0  0  0  0  0  0  0  0  0  0
   36.6420   30.7280   39.5720 C   0  0  0  0  0  0  0  0  0  0  0  0
   35.8670   30.1490   40.5370 N   0  0  0  0  0  0  0  0  0  0  0  0
   35.0310   29.1170   40.3080 C   0  0  0  0  0  0  0  0  0  0  0  0
   34.9290   28.6010   39.0620 N   0  0  0  0  0  0  0  0  0  0  0  0
   35.7070   28.8400   37.0190 H   0  0  0  0  0  0  0  0  0  0  0  0
   37.1580   30.6770   37.5590 H   0  0  0  0  0  0  0  0  0  0  0  0
   34.4340   28.6770   41.0740 H   0  0  0  0  0  0  0  0  0  0  0  0
  1  6  1  0  0  0  0
  2  3  1  0  0  0  0
  2  1  2  0  0  0  0
  3  4  2  0  0  0  0
  4  9  1  0  0  0  0
  4  5  1  0  0  0  0
  5 10  1  0  0  0  0
  6  5  2  0  0  0  0
  6 13  1  0  0  0  0
  7  2  1  0  0  0  0
  8  3  1  0  0  0  0
 11 13  1  0  0  0  0
 11 15  1  0  0  0  0
 12 11  2  0  0  0  0
 13 14  1  0  0  0  0
 15 16  1  0  0  0  0
 16 17  1  0  0  0  0
 18 17  1  0  0  0  0
 18 19  1  0  0  0  0
 20 18  1  0  0  0  0
 21 15  1  0  0  0  0
 21 20  1  0  0  0  0
 22 23  2  0  0  0  0
 22 27  1  0  0  0  0
 23 24  1  0  0  0  0
 24  1  1  0  0  0  0
 24 25  2  0  0  0  0
 26 25  1  0  0  0  0
 26 30  1  0  0  0  0
 27 26  2  0  0  0  0
 28 22  1  0  0  0  0
 29 23  1  0  0  0  0
M  END
>  <minimizedAffinity>
-5.60849619

$$$$

 OpenBabel03242517013D

 30 32  0  0  0  0  0  0  0  0999 V2000
   37.1610   31.0430   39.0450 C   0  0  0  0  0  0  0  0  0  0  0  0
   37.2660   32.3870   38.7250 C   0  0  0  0  0  0  0  0  0  0  0  0
   37.9370   33.2190   39.6130 C   0  0  0  0  0  0  0  0  0  0  0  0
   38.4730   32.6990   40.7690 C   0  0  0  0  0  0  0  0  0  0  0  0
   38.3800   31.3790   41.1030 C   0  0  0  0  0  0  0  0  0  0  0  0
   37.7030   30.5640   40.1960 C   0  0  0  0  0  0  0  0  0  0  0  0
   36.8490   32.8050   37.8190 H   0  0  0  0  0  0  0  0  0  0  0  0
   38.0710   34.2800   39.4540 H   0  0  0  0  0  0  0  0  0  0  0  0
   39.0060   33.3230   41.4890 H   0  0  0  0  0  0  0  0  0  0  0  0
   38.7770   30.8990   41.9940 H   0  0  0  0  0  0  0  0  0  0  0  0
   37.4160   28.3430   41.5570 C   0  0  0  0  0  0  0  0  0  0  0  0
   37.5120   28.6820   42.7380 O   0  0  0  0  0  0  0  0  0  0  0  0
   37.5300   29.1730   40.4130 N   0  0  0  0  0  0  0  0  0  0  0  0
   37.4940   28.7970   39.4250 H   0  0  0  0  0  0  0  0  0  0  0  0
   37.1630   26.9540   41.3620 N   0  0  0  0  0  0  0  0  0  0  0  0
   37.0590   26.6040   39.9770 C   0  0  0  0  0  2  0  0  0  0  0  0
   37.2180   25.1470   39.6870 C   0  0  0  0  0  2  0  0  0  0  0  0
   36.6030   24.2860   40.7390 C   0  0  0  0  0  3  0  0  0  0  0  0
   36.9400   23.2280   40.5520 H   0  0  0  0  0  0  0  0  0  0  0  0
   37.0700   24.6170   42.1290 C   0  0  0  0  0  2  0  0  0  0  0  0
   37.0360   26.0460   42.4770 C   0  0  0  0  0  2  0  0  0  0  0  0
   36.0350   29.2200   35.9270 C   0  0  0  0  0  0  0  0  0  0  0  0
   36.8100   30.0590   36.7650 C   0  0  0  0  0  0  0  0  0  0  0  0
   36.4490   30.2120   38.0820 C   0  0  0  0  0  0  0  0  0  0  0  0
   35.3420   29.5310   38.5010 N   0  0  0  0  0  0  0  0  0  0  0  0
   34.6060   28.7330   37.7030 C   0  0  0  0  0  0  0  0  0  0  0  0
   34.9560   28.5770   36.4050 N   0  0  0  0  0  0  0  0  0  0  0  0
   36.4560   29.2120   34.9270 H   0  0  0  0  0  0  0  0  0  0  0  0
   37.6820   30.6040   36.4540 H   0  0  0  0  0  0  0  0  0  0  0  0
   33.7440   28.2080   38.0470 H   0  0  0  0  0  0  0  0  0  0  0  0
  1  6  1  0  0  0  0
  2  1  2  0  0  0  0
  2  3  1  0  0  0  0
  3  4  2  0  0  0  0
  4  5  1  0  0  0  0
  4  9  1  0  0  0  0
  5 10  1  0  0  0  0
  6 13  1  0  0  0  0
  6  5  2  0  0  0  0
  7  2  1  0  0  0  0
  8  3  1  0  0  0  0
 11 12  2  0  0  0  0
 13 11  1  0  0  0  0
 14 13  1  0  0  0  0
 15 11  1  0  0  0  0
 15 21  1  0  0  0  0
 16 15  1  0  0  0  0
 17 16  1  0  0  0  0
 17 18  1  0  0  0  0
 18 20  1  0  0  0  0
 19 18  1  0  0  0  0
 20 21  1  0  0  0  0
 22 27  2  0  0  0  0
 22 23  1  0  0  0  0
 23 24  2  0  0  0  0
 24 25  1  0  0  0  0
 24  1  1  0  0  0  0
 26 30  1  0  0  0  0
 26 25  2  0  0  0  0
 27 26  1  0  0  0  0
 28 22  1  0  0  0  0
 29 23  1  0  0  0  0
M  END
>  <minimizedAffinity>
-5.49269867

$$$$

 OpenBabel03242517013D

 30 32  0  0  0  0  0  0  0  0999 V2000
   37.6790   29.3760   41.6020 C   0  0  0  0  0  0  0  0  0  0  0  0
   37.9860   29.3530   42.9520 C   0  0  0  0  0  0  0  0  0  0  0  0
   37.6480   28.2180   43.6790 C   0  0  0  0  0  0  0  0  0  0  0  0
   37.0260   27.1620   43.0530 C   0  0  0  0  0  0  0  0  0  0  0  0
   36.7140   27.1650   41.7240 C   0  0  0  0  0  0  0  0  0  0  0  0
   37.0640   28.3150   41.0160 C   0  0  0  0  0  0  0  0  0  0  0  0
   38.4750   30.1780   43.4530 H   0  0  0  0  0  0  0  0  0  0  0  0
   37.8450   28.1040   44.7360 H   0  0  0  0  0  0  0  0  0  0  0  0
   36.7460   26.2560   43.5930 H   0  0  0  0  0  0  0  0  0  0  0  0
   36.2260   26.3720   41.1650 H   0  0  0  0  0  0  0  0  0  0  0  0
   35.6450   28.7210   38.8500 C   0  0  0  0  0  0  0  0  0  0  0  0
   34.4860   28.8390   39.2490 O   0  0  0  0  0  0  0  0  0  0  0  0
   36.8000   28.4570   39.6290 N   0  0  0  0  0  0  0  0  0  0  0  0
   37.7580   28.3100   39.2050 H   0  0  0  0  0  0  0  0  0  0  0  0
   35.8010   28.8730   37.4410 N   0  0  0  0  0  0  0  0  0  0  0  0
   37.1630   28.7290   37.0210 C   0  0  0  0  0  2  0  0  0  0  0  0
   37.3410   28.4570   35.5620 C   0  0  0  0  0  2  0  0  0  0  0  0
   36.3570   29.1980   34.7200 C   0  0  0  0  0  3  0  0  0  0  0  0
   36.4270   28.7860   33.6740 H   0  0  0  0  0  0  0  0  0  0  0  0
   34.9300   28.9840   35.1420 C   0  0  0  0  0  2  0  0  0  0  0  0
   34.6730   29.1420   36.5820 C   0  0  0  0  0  2  0  0  0  0  0  0
   39.5730   32.1180   39.8100 C   0  0  0  0  0  0  0  0  0  0  0  0
   39.3360   30.9070   40.5070 C   0  0  0  0  0  0  0  0  0  0  0  0
   38.0540   30.5870   40.8830 C   0  0  0  0  0  0  0  0  0  0  0  0
   37.0740   31.4800   40.5520 N   0  0  0  0  0  0  0  0  0  0  0  0
   37.3010   32.6300   39.8880 C   0  0  0  0  0  0  0  0  0  0  0  0
   38.5620   32.9510   39.5140 N   0  0  0  0  0  0  0  0  0  0  0  0
   40.6320   32.2130   39.5910 H   0  0  0  0  0  0  0  0  0  0  0  0
   40.0930   30.1940   40.7770 H   0  0  0  0  0  0  0  0  0  0  0  0
   36.5240   33.3160   39.6370 H   0  0  0  0  0  0  0  0  0  0  0  0
  1  2  1  0  0  0  0
  2  7  1  0  0  0  0
  2  3  2  0  0  0  0
  3  8  1  0  0  0  0
  4  9  1  0  0  0  0
  4  3  1  0  0  0  0
  5  4  2  0  0  0  0
  6  1  2  0  0  0  0
  6  5  1  0  0  0  0
 10  5  1  0  0  0  0
 11 12  2  0  0  0  0
 11 13  1  0  0  0  0
 13  6  1  0  0  0  0
 14 13  1  0  0  0  0
 15 11  1  0  0  0  0
 16 15  1  0  0  0  0
 17 16  1  0  0  0  0
 18 20  1  0  0  0  0
 18 17  1  0  0  0  0
 19 18  1  0  0  0  0
 20 21  1  0  0  0  0
 21 15  1  0  0  0  0
 22 23  1  0  0  0  0
 23 29  1  0  0  0  0
 23 24  2  0  0  0  0
 24  1  1  0  0  0  0
 25 24  1  0  0  0  0
 26 25  2  0  0  0  0
 27 22  2  0  0  0  0
 27 26  1  0  0  0  0
 28 22  1  0  0  0  0
 30 26  1  0  0  0  0
M  END
>  <minimizedAffinity>
-5.31003571

$$$$

 OpenBabel03242517013D

 30 32  0  0  0  0  0  0  0  0999 V2000
   36.9550   25.6050   40.5840 C   0  0  0  0  0  0  0  0  0  0  0  0
   36.6720   24.2820   40.8780 C   0  0  0  0  0  0  0  0  0  0  0  0
   35.9550   23.5440   39.9450 C   0  0  0  0  0  0  0  0  0  0  0  0
   35.5480   24.1340   38.7690 C   0  0  0  0  0  0  0  0  0  0  0  0
   35.8150   25.4370   38.4610 C   0  0  0  0  0  0  0  0  0  0  0  0
   36.5370   26.1560   39.4140 C   0  0  0  0  0  0  0  0  0  0  0  0
   36.9870   23.8080   41.7990 H   0  0  0  0  0  0  0  0  0  0  0  0
   35.6840   22.5060   40.0810 H   0  0  0  0  0  0  0  0  0  0  0  0
   34.9830   23.5850   38.0140 H   0  0  0  0  0  0  0  0  0  0  0  0
   35.5280   25.9680   37.5570 H   0  0  0  0  0  0  0  0  0  0  0  0
   36.3600   28.7580   39.6680 C   0  0  0  0  0  0  0  0  0  0  0  0
   35.3400   28.9410   40.3350 O   0  0  0  0  0  0  0  0  0  0  0  0
   36.8860   27.5180   39.2270 N   0  0  0  0  0  0  0  0  0  0  0  0
   37.7390   27.4450   38.6040 H   0  0  0  0  0  0  0  0  0  0  0  0
   37.0590   29.9510   39.3230 N   0  0  0  0  0  0  0  0  0  0  0  0
   38.2370   29.6920   38.5490 C   0  0  0  0  0  2  0  0  0  0  0  0
   38.7700   30.8760   37.8090 C   0  0  0  0  0  2  0  0  0  0  0  0
   38.6300   32.1430   38.5830 C   0  0  0  0  0  3  0  0  0  0  0  0
   38.8630   32.9950   37.8850 H   0  0  0  0  0  0  0  0  0  0  0  0
   37.2300   32.3940   39.0690 C   0  0  0  0  0  2  0  0  0  0  0  0
   36.5850   31.2510   39.7350 C   0  0  0  0  0  2  0  0  0  0  0  0
   38.0230   27.5050   43.6770 C   0  0  0  0  0  0  0  0  0  0  0  0
   37.1840   26.8060   42.7740 C   0  0  0  0  0  0  0  0  0  0  0  0
   37.7100   26.3360   41.5940 C   0  0  0  0  0  0  0  0  0  0  0  0
   39.0340   26.5810   41.3690 N   0  0  0  0  0  0  0  0  0  0  0  0
   39.8300   27.2450   42.2300 C   0  0  0  0  0  0  0  0  0  0  0  0
   39.3190   27.7100   43.3940 N   0  0  0  0  0  0  0  0  0  0  0  0
   37.4520   27.8030   44.5510 H   0  0  0  0  0  0  0  0  0  0  0  0
   36.1400   26.6050   42.9320 H   0  0  0  0  0  0  0  0  0  0  0  0
   40.8640   27.4270   42.0380 H   0  0  0  0  0  0  0  0  0  0  0  0
  1  2  1  0  0  0  0
  1 24  1  0  0  0  0
  2  7  1  0  0  0  0
  3  8  1  0  0  0  0
  3  2  2  0  0  0  0
  4  3  1  0  0  0  0
  5  4  2  0  0  0  0
  5  6  1  0  0  0  0
  6  1  2  0  0  0  0
  9  4  1  0  0  0  0
 10  5  1  0  0  0  0
 11 12  2  0  0  0  0
 13  6  1  0  0  0  0
 13 11  1  0  0  0  0
 14 13  1  0  0  0  0
 15 11  1  0  0  0  0
 15 21  1  0  0  0  0
 16 15  1  0  0  0  0
 17 16  1  0  0  0  0
 17 18  1  0  0  0  0
 18 20  1  0  0  0  0
 19 18  1  0  0  0  0
 20 21  1  0  0  0  0
 22 28  1  0  0  0  0
 23 29  1  0  0  0  0
 23 22  2  0  0  0  0
 24 23  1  0  0  0  0
 25 24  2  0  0  0  0
 25 26  1  0  0  0  0
 26 27  2  0  0  0  0
 27 22  1  0  0  0  0
 30 26  1  0  0  0  0
M  END
>  <minimizedAffinity>
-5.30068445

$$$$

 OpenBabel03242517013D

 30 32  0  0  0  0  0  0  0  0999 V2000
   35.5600   28.5860   38.1790 C   0  0  0  0  0  0  0  0  0  0  0  0
   34.7800   28.9130   37.0820 C   0  0  0  0  0  0  0  0  0  0  0  0
   34.2450   27.8750   36.3290 C   0  0  0  0  0  0  0  0  0  0  0  0
   34.4970   26.5690   36.6830 C   0  0  0  0  0  0  0  0  0  0  0  0
   35.2640   26.2260   37.7590 C   0  0  0  0  0  0  0  0  0  0  0  0
   35.7890   27.2860   38.4990 C   0  0  0  0  0  0  0  0  0  0  0  0
   34.5750   29.9360   36.7960 H   0  0  0  0  0  0  0  0  0  0  0  0
   33.6250   28.0270   35.4560 H   0  0  0  0  0  0  0  0  0  0  0  0
   34.0940   25.7290   36.1140 H   0  0  0  0  0  0  0  0  0  0  0  0
   35.5050   25.2220   38.0980 H   0  0  0  0  0  0  0  0  0  0  0  0
   37.5500   26.0980   40.0340 C   0  0  0  0  0  0  0  0  0  0  0  0
   37.8610   25.0740   39.4240 O   0  0  0  0  0  0  0  0  0  0  0  0
   36.6030   27.0770   39.6430 N   0  0  0  0  0  0  0  0  0  0  0  0
   36.3460   27.9040   40.2510 H   0  0  0  0  0  0  0  0  0  0  0  0
   38.2430   26.2820   41.2660 N   0  0  0  0  0  0  0  0  0  0  0  0
   37.8520   27.4840   41.9410 C   0  0  0  0  0  2  0  0  0  0  0  0
   38.2050   27.5270   43.3930 C   0  0  0  0  0  2  0  0  0  0  0  0
   39.5210   26.8850   43.6800 C   0  0  0  0  0  3  0  0  0  0  0  0
   39.6110   26.7820   44.7970 H   0  0  0  0  0  0  0  0  0  0  0  0
   39.6340   25.4880   43.1350 C   0  0  0  0  0  2  0  0  0  0  0  0
   39.2210   25.3280   41.7330 C   0  0  0  0  0  2  0  0  0  0  0  0
   37.3790   31.7230   39.2580 C   0  0  0  0  0  0  0  0  0  0  0  0
   36.9210   30.6790   38.4170 C   0  0  0  0  0  0  0  0  0  0  0  0
   36.0970   29.7090   38.9370 C   0  0  0  0  0  0  0  0  0  0  0  0
   35.7710   29.8210   40.2580 N   0  0  0  0  0  0  0  0  0  0  0  0
   36.2070   30.8150   41.0560 C   0  0  0  0  0  0  0  0  0  0  0  0
   37.0180   31.7740   40.5510 N   0  0  0  0  0  0  0  0  0  0  0  0
   38.0130   32.3970   38.6920 H   0  0  0  0  0  0  0  0  0  0  0  0
   37.1680   30.5730   37.3770 H   0  0  0  0  0  0  0  0  0  0  0  0
   35.9420   30.8880   42.0870 H   0  0  0  0  0  0  0  0  0  0  0  0
  1  6  1  0  0  0  0
  1 24  1  0  0  0  0
  2  1  2  0  0  0  0
  3  4  2  0  0  0  0
  3  2  1  0  0  0  0
  4  5  1  0  0  0  0
  5 10  1  0  0  0  0
  5  6  2  0  0  0  0
  6 13  1  0  0  0  0
  7  2  1  0  0  0  0
  8  3  1  0  0  0  0
  9  4  1  0  0  0  0
 11 15  1  0  0  0  0
 12 11  2  0  0  0  0
 13 11  1  0  0  0  0
 13 14  1  0  0  0  0
 15 21  1  0  0  0  0
 15 16  1  0  0  0  0
 16 17  1  0  0  0  0
 17 18  1  0  0  0  0
 18 19  1  0  0  0  0
 20 18  1  0  0  0  0
 21 20  1  0  0  0  0
 22 27  1  0  0  0  0
 23 24  1  0  0  0  0
 23 22  2  0  0  0  0
 24 25  2  0  0  0  0
 25 26  1  0  0  0  0
 26 30  1  0  0  0  0
 27 26  2  0  0  0  0
 28 22  1  0  0  0  0
 29 23  1  0  0  0  0
M  END
>  <minimizedAffinity>
-5.27955627

$$$$

 OpenBabel03242517013D

 30 32  0  0  0  0  0  0  0  0999 V2000
   37.3300   28.5720   41.0850 C   0  0  0  0  0  0  0  0  0  0  0  0
   36.5600   27.4710   41.4220 C   0  0  0  0  0  0  0  0  0  0  0  0
   36.5630   27.0540   42.7470 C   0  0  0  0  0  0  0  0  0  0  0  0
   37.3170   27.7300   43.6790 C   0  0  0  0  0  0  0  0  0  0  0  0
   38.0830   28.8160   43.3670 C   0  0  0  0  0  0  0  0  0  0  0  0
   38.0620   29.2170   42.0310 C   0  0  0  0  0  0  0  0  0  0  0  0
   35.9630   26.9330   40.6980 H   0  0  0  0  0  0  0  0  0  0  0  0
   35.9970   26.2060   43.1090 H   0  0  0  0  0  0  0  0  0  0  0  0
   37.3440   27.4300   44.7280 H   0  0  0  0  0  0  0  0  0  0  0  0
   38.7010   29.3980   44.0460 H   0  0  0  0  0  0  0  0  0  0  0  0
   40.1190   30.8250   41.7930 C   0  0  0  0  0  0  0  0  0  0  0  0
   40.9590   30.3810   42.5770 O   0  0  0  0  0  0  0  0  0  0  0  0
   38.8100   30.3290   41.5640 N   0  0  0  0  0  0  0  0  0  0  0  0
   38.1220   30.8020   40.9150 H   0  0  0  0  0  0  0  0  0  0  0  0
   40.5480   31.9650   41.0530 N   0  0  0  0  0  0  0  0  0  0  0  0
   39.5420   32.4480   40.1550 C   0  0  0  0  0  2  0  0  0  0  0  0
   39.7520   33.8480   39.6760 C   0  0  0  0  0  2  0  0  0  0  0  0
   41.1930   34.1610   39.4470 C   0  0  0  0  0  3  0  0  0  0  0  0
   41.2760   35.2730   39.2880 H   0  0  0  0  0  0  0  0  0  0  0  0
   42.0660   33.8570   40.6320 C   0  0  0  0  0  2  0  0  0  0  0  0
   41.8650   32.5280   41.2320 C   0  0  0  0  0  2  0  0  0  0  0  0
   36.2490   29.7020   37.6400 C   0  0  0  0  0  0  0  0  0  0  0  0
   36.1540   29.3320   39.0040 C   0  0  0  0  0  0  0  0  0  0  0  0
   37.2930   28.9720   39.6840 C   0  0  0  0  0  0  0  0  0  0  0  0
   38.4630   28.9940   38.9800 N   0  0  0  0  0  0  0  0  0  0  0  0
   38.5510   29.3460   37.6830 C   0  0  0  0  0  0  0  0  0  0  0  0
   37.4340   29.7030   37.0080 N   0  0  0  0  0  0  0  0  0  0  0  0
   35.2640   29.9560   37.2600 H   0  0  0  0  0  0  0  0  0  0  0  0
   35.2430   29.3070   39.5740 H   0  0  0  0  0  0  0  0  0  0  0  0
   39.4740   29.3580   37.1490 H   0  0  0  0  0  0  0  0  0  0  0  0
  1  2  2  0  0  0  0
  1  6  1  0  0  0  0
  2  3  1  0  0  0  0
  3  8  1  0  0  0  0
  3  4  2  0  0  0  0
  4  9  1  0  0  0  0
  5  4  1  0  0  0  0
  5 10  1  0  0  0  0
  6  5  2  0  0  0  0
  7  2  1  0  0  0  0
 11 12  2  0  0  0  0
 13 11  1  0  0  0  0
 13  6  1  0  0  0  0
 14 13  1  0  0  0  0
 15 21  1  0  0  0  0
 15 11  1  0  0  0  0
 16 15  1  0  0  0  0
 17 16  1  0  0  0  0
 18 17  1  0  0  0  0
 18 20  1  0  0  0  0
 19 18  1  0  0  0  0
 20 21  1  0  0  0  0
 22 23  1  0  0  0  0
 23 29  1  0  0  0  0
 23 24  2  0  0  0  0
 24  1  1  0  0  0  0
 25 24  1  0  0  0  0
 26 25  2  0  0  0  0
 27 22  2  0  0  0  0
 27 26  1  0  0  0  0
 28 22  1  0  0  0  0
 30 26  1  0  0  0  0
M  END
>  <minimizedAffinity>
-5.24136925

$$$$

 OpenBabel03242517013D

 30 32  0  0  0  0  0  0  0  0999 V2000
   36.8130   25.4070   40.5120 C   0  0  0  0  0  0  0  0  0  0  0  0
   36.6070   24.0510   40.7050 C   0  0  0  0  0  0  0  0  0  0  0  0
   35.9710   23.3380   39.6970 C   0  0  0  0  0  0  0  0  0  0  0  0
   35.5650   23.9820   38.5500 C   0  0  0  0  0  0  0  0  0  0  0  0
   35.7580   25.3170   38.3410 C   0  0  0  0  0  0  0  0  0  0  0  0
   36.4000   26.0110   39.3670 C   0  0  0  0  0  0  0  0  0  0  0  0
   36.9220   23.5350   41.6020 H   0  0  0  0  0  0  0  0  0  0  0  0
   35.7640   22.2780   39.7520 H   0  0  0  0  0  0  0  0  0  0  0  0
   35.0630   23.4540   37.7390 H   0  0  0  0  0  0  0  0  0  0  0  0
   35.4670   25.8920   37.4660 H   0  0  0  0  0  0  0  0  0  0  0  0
   37.3750   28.2380   38.3880 C   0  0  0  0  0  0  0  0  0  0  0  0
   38.0350   27.8900   37.4080 O   0  0  0  0  0  0  0  0  0  0  0  0
   36.6650   27.4030   39.2860 N   0  0  0  0  0  0  0  0  0  0  0  0
   36.1670   27.7730   40.1430 H   0  0  0  0  0  0  0  0  0  0  0  0
   37.3460   29.6460   38.6070 N   0  0  0  0  0  0  0  0  0  0  0  0
   36.5680   30.0070   39.7550 C   0  0  0  0  0  2  0  0  0  0  0  0
   36.8350   31.3790   40.2840 C   0  0  0  0  0  2  0  0  0  0  0  0
   37.0950   32.3680   39.1970 C   0  0  0  0  0  3  0  0  0  0  0  0
   37.4800   33.3090   39.6810 H   0  0  0  0  0  0  0  0  0  0  0  0
   38.1730   31.9360   38.2430 C   0  0  0  0  0  2  0  0  0  0  0  0
   38.0450   30.5610   37.7360 C   0  0  0  0  0  2  0  0  0  0  0  0
   39.2730   26.5490   43.1500 C   0  0  0  0  0  0  0  0  0  0  0  0
   38.7260   25.7850   42.0890 C   0  0  0  0  0  0  0  0  0  0  0  0
   37.4840   26.1110   41.5980 C   0  0  0  0  0  0  0  0  0  0  0  0
   36.8500   27.1710   42.1800 N   0  0  0  0  0  0  0  0  0  0  0  0
   37.3730   27.8960   43.1880 C   0  0  0  0  0  0  0  0  0  0  0  0
   38.5950   27.5820   43.6770 N   0  0  0  0  0  0  0  0  0  0  0  0
   40.2520   26.1600   43.4130 H   0  0  0  0  0  0  0  0  0  0  0  0
   39.2090   24.9480   41.6200 H   0  0  0  0  0  0  0  0  0  0  0  0
   36.8630   28.7220   43.6310 H   0  0  0  0  0  0  0  0  0  0  0  0
  1  2  1  0  0  0  0
  1 24  1  0  0  0  0
  2  7  1  0  0  0  0
  3  8  1  0  0  0  0
  3  2  2  0  0  0  0
  4  3  1  0  0  0  0
  5  4  2  0  0  0  0
  5  6  1  0  0  0  0
  6  1  2  0  0  0  0
  9  4  1  0  0  0  0
 10  5  1  0  0  0  0
 11 15  1  0  0  0  0
 11 13  1  0  0  0  0
 12 11  2  0  0  0  0
 13  6  1  0  0  0  0
 13 14  1  0  0  0  0
 15 16  1  0  0  0  0
 16 17  1  0  0  0  0
 18 19  1  0  0  0  0
 18 17  1  0  0  0  0
 20 18  1  0  0  0  0
 21 20  1  0  0  0  0
 21 15  1  0  0  0  0
 22 28  1  0  0  0  0
 22 27  1  0  0  0  0
 23 22  2  0  0  0  0
 24 23  1  0  0  0  0
 24 25  2  0  0  0  0
 25 26  1  0  0  0  0
 26 30  1  0  0  0  0
 26 27  2  0  0  0  0
 29 23  1  0  0  0  0
M  END
>  <minimizedAffinity>
-5.2087636

$$$$

 OpenBabel03242517013D

 30 32  0  0  0  0  0  0  0  0999 V2000
   39.3710   31.7510   40.7220 C   0  0  0  0  0  0  0  0  0  0  0  0
   39.6940   33.0900   40.5790 C   0  0  0  0  0  0  0  0  0  0  0  0
   38.7170   33.9490   40.0920 C   0  0  0  0  0  0  0  0  0  0  0  0
   37.4720   33.4600   39.7680 C   0  0  0  0  0  0  0  0  0  0  0  0
   37.1340   32.1440   39.9010 C   0  0  0  0  0  0  0  0  0  0  0  0
   38.1320   31.3020   40.3920 C   0  0  0  0  0  0  0  0  0  0  0  0
   40.6700   33.4850   40.8310 H   0  0  0  0  0  0  0  0  0  0  0  0
   38.8710   35.0090   39.9450 H   0  0  0  0  0  0  0  0  0  0  0  0
   36.6810   34.1050   39.3830 H   0  0  0  0  0  0  0  0  0  0  0  0
   36.1760   31.6870   39.6670 H   0  0  0  0  0  0  0  0  0  0  0  0
   37.5790   29.0890   41.6840 C   0  0  0  0  0  0  0  0  0  0  0  0
   37.4320   29.4360   42.8570 O   0  0  0  0  0  0  0  0  0  0  0  0
   37.9210   29.9110   40.5810 N   0  0  0  0  0  0  0  0  0  0  0  0
   38.0880   29.5280   39.6090 H   0  0  0  0  0  0  0  0  0  0  0  0
   37.3730   27.6980   41.4520 N   0  0  0  0  0  0  0  0  0  0  0  0
   37.5530   27.3380   40.0770 C   0  0  0  0  0  2  0  0  0  0  0  0
   37.7710   25.8790   39.8370 C   0  0  0  0  0  2  0  0  0  0  0  0
   36.9560   25.0240   40.7490 C   0  0  0  0  0  3  0  0  0  0  0  0
   37.3260   23.9660   40.6410 H   0  0  0  0  0  0  0  0  0  0  0  0
   37.1310   25.3660   42.2020 C   0  0  0  0  0  2  0  0  0  0  0  0
   37.0240   26.7970   42.5250 C   0  0  0  0  0  2  0  0  0  0  0  0
   41.9560   30.0490   42.8990 C   0  0  0  0  0  0  0  0  0  0  0  0
   40.9240   30.9410   42.5180 C   0  0  0  0  0  0  0  0  0  0  0  0
   40.4300   30.8910   41.2360 C   0  0  0  0  0  0  0  0  0  0  0  0
   40.9820   29.9630   40.4000 N   0  0  0  0  0  0  0  0  0  0  0  0
   41.9630   29.1150   40.7640 C   0  0  0  0  0  0  0  0  0  0  0  0
   42.4540   29.1590   42.0250 N   0  0  0  0  0  0  0  0  0  0  0  0
   42.2260   30.2230   43.9350 H   0  0  0  0  0  0  0  0  0  0  0  0
   40.4780   31.6780   43.1610 H   0  0  0  0  0  0  0  0  0  0  0  0
   42.3830   28.3960   40.0970 H   0  0  0  0  0  0  0  0  0  0  0  0
  1 24  1  0  0  0  0
  2  1  1  0  0  0  0
  2  7  1  0  0  0  0
  3  2  2  0  0  0  0
  4  5  2  0  0  0  0
  4  3  1  0  0  0  0
  5  6  1  0  0  0  0
  6 13  1  0  0  0  0
  6  1  2  0  0  0  0
  8  3  1  0  0  0  0
  9  4  1  0  0  0  0
 10  5  1  0  0  0  0
 11 12  2  0  0  0  0
 13 11  1  0  0  0  0
 14 13  1  0  0  0  0
 15 11  1  0  0  0  0
 15 21  1  0  0  0  0
 16 15  1  0  0  0  0
 17 16  1  0  0  0  0
 17 18  1  0  0  0  0
 18 20  1  0  0  0  0
 19 18  1  0  0  0  0
 20 21  1  0  0  0  0
 22 28  1  0  0  0  0
 23 22  1  0  0  0  0
 23 29  1  0  0  0  0
 24 23  2  0  0  0  0
 25 26  2  0  0  0  0
 25 24  1  0  0  0  0
 26 27  1  0  0  0  0
 27 22  2  0  0  0  0
 30 26  1  0  0  0  0
M  END
>  <minimizedAffinity>
-5.09859705

$$$$
