
 OpenBabel03252507153D

 27 29  0  0  0  0  0  0  0  0999 V2000
   45.1030   36.1470   43.5250 C   0  0  0  0  0  0  0  0  0  0  0  0
   45.7290   34.9390   43.1640 C   0  0  0  0  0  0  0  0  0  0  0  0
   45.7870   33.9200   44.0880 C   0  0  0  0  0  0  0  0  0  0  0  0
   45.2480   34.1040   45.3040 N   0  0  0  0  0  0  0  0  0  0  0  0
   44.6410   35.2690   45.6590 C   0  0  0  0  0  0  0  0  0  0  0  0
   44.5820   36.2630   44.7620 N   0  0  0  0  0  0  0  0  0  0  0  0
   45.0420   36.9710   42.8140 H   0  0  0  0  0  0  0  0  0  0  0  0
   44.2100   35.3880   46.6600 H   0  0  0  0  0  0  0  0  0  0  0  0
   46.4400   32.6730   43.7020 C   0  0  0  0  0  0  0  0  0  0  0  0
   45.6890   31.5650   43.3910 C   0  0  0  0  0  0  0  0  0  0  0  0
   46.3370   30.4090   43.0320 C   0  0  0  0  0  0  0  0  0  0  0  0
   47.7150   30.2960   42.9660 C   0  0  0  0  0  0  0  0  0  0  0  0
   48.4170   31.4410   43.2900 C   0  0  0  0  0  0  0  0  0  0  0  0
   47.7680   32.5630   43.6380 N   0  0  0  0  0  0  0  0  0  0  0  0
   44.6120   31.5550   43.4140 H   0  0  0  0  0  0  0  0  0  0  0  0
   45.8010   29.4810   42.7700 H   0  0  0  0  0  0  0  0  0  0  0  0
   48.2730   29.4190   42.6930 H   0  0  0  0  0  0  0  0  0  0  0  0
   49.5040   31.5300   43.2900 H   0  0  0  0  0  0  0  0  0  0  0  0
   46.2820   34.8210   41.8440 C   0  0  0  0  0  0  0  0  0  0  0  0
   47.4500   35.2820   41.6360 O   0  0  0  0  0  0  0  0  0  0  0  0
   45.4850   34.1900   40.8260 N   0  0  0  0  0  0  0  0  0  0  0  0
   45.8240   33.1960   39.8240 C   0  0  0  0  0  2  0  0  0  0  0  0
   44.8390   32.0230   39.9110 C   0  0  0  0  0  2  0  0  0  0  0  0
   43.4550   32.5180   39.5420 C   0  0  0  0  0  3  0  0  0  0  0  0
   42.7020   32.0750   40.2380 H   0  0  0  0  0  0  0  0  0  0  0  0
   43.4280   34.0320   39.5600 C   0  0  0  0  0  2  0  0  0  0  0  0
   44.0950   34.6020   40.7710 C   0  0  0  0  0  2  0  0  0  0  0  0
  1  6  1  0  0  0  0
  2  1  2  0  0  0  0
  2  3  1  0  0  0  0
  3  4  2  0  0  0  0
  4  5  1  0  0  0  0
  5  8  1  0  0  0  0
  6  5  2  0  0  0  0
  7  1  1  0  0  0  0
  9  3  1  0  0  0  0
 10 15  1  0  0  0  0
 10  9  2  0  0  0  0
 11 10  1  0  0  0  0
 12 11  2  0  0  0  0
 12 13  1  0  0  0  0
 13 14  2  0  0  0  0
 14  9  1  0  0  0  0
 16 11  1  0  0  0  0
 17 12  1  0  0  0  0
 18 13  1  0  0  0  0
 19  2  1  0  0  0  0
 20 19  2  0  0  0  0
 21 19  1  0  0  0  0
 22 23  1  0  0  0  0
 22 21  1  0  0  0  0
 24 26  1  0  0  0  0
 24 23  1  0  0  0  0
 24 25  1  0  0  0  0
 26 27  1  0  0  0  0
 27 21  1  0  0  0  0
M  END
>  <minimizedAffinity>
-4.61549807

>  <minimizedRMSD>
0.331514627

$$$$
