
 OpenBabel03252507153D

 27 29  0  0  0  0  0  0  0  0999 V2000
   44.9750   35.9720   43.0120 C   0  0  0  0  0  0  0  0  0  0  0  0
   45.6170   34.7350   42.8150 C   0  0  0  0  0  0  0  0  0  0  0  0
   45.7670   33.8870   43.8890 C   0  0  0  0  0  0  0  0  0  0  0  0
   45.2990   34.2600   45.0910 N   0  0  0  0  0  0  0  0  0  0  0  0
   44.6770   35.4550   45.2880 C   0  0  0  0  0  0  0  0  0  0  0  0
   44.5300   36.2830   44.2460 N   0  0  0  0  0  0  0  0  0  0  0  0
   44.8420   36.6650   42.1800 H   0  0  0  0  0  0  0  0  0  0  0  0
   44.3060   35.7300   46.2830 H   0  0  0  0  0  0  0  0  0  0  0  0
   46.4350   32.6080   43.6720 C   0  0  0  0  0  0  0  0  0  0  0  0
   45.7070   31.4420   43.6370 C   0  0  0  0  0  0  0  0  0  0  0  0
   46.3700   30.2580   43.4300 C   0  0  0  0  0  0  0  0  0  0  0  0
   47.7400   30.1710   43.2540 C   0  0  0  0  0  0  0  0  0  0  0  0
   48.4180   31.3740   43.3000 C   0  0  0  0  0  0  0  0  0  0  0  0
   47.7560   32.5230   43.5020 N   0  0  0  0  0  0  0  0  0  0  0  0
   44.6380   31.4090   43.7630 H   0  0  0  0  0  0  0  0  0  0  0  0
   45.8530   29.2850   43.3900 H   0  0  0  0  0  0  0  0  0  0  0  0
   48.3080   29.2730   43.0900 H   0  0  0  0  0  0  0  0  0  0  0  0
   49.4970   31.4890   43.1800 H   0  0  0  0  0  0  0  0  0  0  0  0
   46.0900   34.4110   41.4990 C   0  0  0  0  0  0  0  0  0  0  0  0
   47.2290   34.8510   41.1410 O   0  0  0  0  0  0  0  0  0  0  0  0
   45.2490   33.6060   40.6530 N   0  0  0  0  0  0  0  0  0  0  0  0
   43.9080   33.8270   40.1480 C   0  0  0  0  0  2  0  0  0  0  0  0
   43.8960   33.6520   38.6240 C   0  0  0  0  0  2  0  0  0  0  0  0
   44.2230   32.2090   38.2950 C   0  0  0  0  0  3  0  0  0  0  0  0
   44.9250   32.1740   37.4270 H   0  0  0  0  0  0  0  0  0  0  0  0
   44.7900   31.5180   39.5170 C   0  0  0  0  0  2  0  0  0  0  0  0
   45.8200   32.3460   40.2160 C   0  0  0  0  0  2  0  0  0  0  0  0
  1  6  1  0  0  0  0
  2  1  2  0  0  0  0
  2  3  1  0  0  0  0
  3  4  2  0  0  0  0
  4  5  1  0  0  0  0
  5  8  1  0  0  0  0
  6  5  2  0  0  0  0
  7  1  1  0  0  0  0
  9  3  1  0  0  0  0
 10  9  1  0  0  0  0
 10 15  1  0  0  0  0
 11 10  2  0  0  0  0
 12 13  2  0  0  0  0
 12 11  1  0  0  0  0
 13 14  1  0  0  0  0
 14  9  2  0  0  0  0
 16 11  1  0  0  0  0
 17 12  1  0  0  0  0
 18 13  1  0  0  0  0
 19  2  1  0  0  0  0
 20 19  2  0  0  0  0
 21 19  1  0  0  0  0
 22 21  1  0  0  0  0
 23 22  1  0  0  0  0
 24 23  1  0  0  0  0
 24 26  1  0  0  0  0
 25 24  1  0  0  0  0
 26 27  1  0  0  0  0
 27 21  1  0  0  0  0
M  END
>  <minimizedAffinity>
-4.23833084

>  <minimizedRMSD>
0.518399119

$$$$
