
 OpenBabel03242510523D

 20 21  0  0  0  0  0  0  0  0999 V2000
   37.3250   33.4690   39.4910 C   0  0  0  0  0  0  0  0  0  0  0  0
   38.4450   34.1610   39.9710 C   0  0  0  0  0  0  0  0  0  0  0  0
   39.3090   33.4630   40.8120 C   0  0  0  0  0  0  0  0  0  0  0  0
   39.0390   32.1700   41.1270 N   0  0  0  0  0  0  0  0  0  0  0  0
   37.9590   31.5320   40.6530 C   0  0  0  0  0  0  0  0  0  0  0  0
   37.1020   32.2020   39.8270 N   0  0  0  0  0  0  0  0  0  0  0  0
   38.4750   29.7010   42.1250 C   0  0  0  0  0  0  0  0  0  0  0  0
   39.2960   30.3510   42.7970 O   0  0  0  0  0  0  0  0  0  0  0  0
   37.7310   30.1820   41.0160 N   0  0  0  0  0  0  0  0  0  0  0  0
   36.6780   34.0180   38.8510 H   0  0  0  0  0  0  0  0  0  0  0  0
   38.6880   35.1870   39.7400 H   0  0  0  0  0  0  0  0  0  0  0  0
   40.2020   33.9060   41.2360 H   0  0  0  0  0  0  0  0  0  0  0  0
   37.0580   29.6550   40.4620 H   0  0  0  0  0  0  0  0  0  0  0  0
   38.2030   28.3180   42.4490 N   0  0  0  0  0  0  0  0  0  0  0  0
   39.0450   27.3170   43.0350 C   0  0  0  0  0  2  0  0  0  0  0  0
   38.9930   26.1210   42.0740 C   0  0  0  0  0  2  0  0  0  0  0  0
   37.6680   25.4380   42.4410 C   0  0  0  0  0  3  0  0  0  0  0  0
   37.3690   24.7420   41.6380 H   0  0  0  0  0  0  0  0  0  0  0  0
   36.6210   26.4720   42.7910 C   0  0  0  0  0  2  0  0  0  0  0  0
   36.8570   27.7940   42.1540 C   0  0  0  0  0  2  0  0  0  0  0  0
  1  6  2  0  0  0  0
  1  2  1  0  0  0  0
  2  3  2  0  0  0  0
  3  4  1  0  0  0  0
  3 12  1  0  0  0  0
  5  9  1  0  0  0  0
  5  4  2  0  0  0  0
  6  5  1  0  0  0  0
  7 14  1  0  0  0  0
  7  8  2  0  0  0  0
  9  7  1  0  0  0  0
 10  1  1  0  0  0  0
 11  2  1  0  0  0  0
 13  9  1  0  0  0  0
 14 15  1  0  0  0  0
 16 17  1  0  0  0  0
 16 15  1  0  0  0  0
 17 19  1  0  0  0  0
 18 17  1  0  0  0  0
 20 14  1  0  0  0  0
 20 19  1  0  0  0  0
M  END
>  <minimizedAffinity>
-4.7018733

$$$$

 OpenBabel03242510523D

 20 21  0  0  0  0  0  0  0  0999 V2000
   39.3740   24.5210   41.5570 C   0  0  0  0  0  0  0  0  0  0  0  0
   38.1440   23.9270   41.8700 C   0  0  0  0  0  0  0  0  0  0  0  0
   37.0260   24.7570   41.8880 C   0  0  0  0  0  0  0  0  0  0  0  0
   37.1670   26.0790   41.6090 N   0  0  0  0  0  0  0  0  0  0  0  0
   38.3580   26.6210   41.3120 C   0  0  0  0  0  0  0  0  0  0  0  0
   39.4640   25.8200   41.2900 N   0  0  0  0  0  0  0  0  0  0  0  0
   37.3210   28.7890   41.4090 C   0  0  0  0  0  0  0  0  0  0  0  0
   36.2860   28.3730   41.9620 O   0  0  0  0  0  0  0  0  0  0  0  0
   38.4420   28.0060   41.0280 N   0  0  0  0  0  0  0  0  0  0  0  0
   40.2160   23.8720   41.5470 H   0  0  0  0  0  0  0  0  0  0  0  0
   37.9980   22.8820   42.0970 H   0  0  0  0  0  0  0  0  0  0  0  0
   36.0310   24.3970   42.1180 H   0  0  0  0  0  0  0  0  0  0  0  0
   39.2900   28.3410   40.5750 H   0  0  0  0  0  0  0  0  0  0  0  0
   37.4610   30.1940   41.0940 N   0  0  0  0  0  0  0  0  0  0  0  0
   36.4710   31.1780   40.7690 C   0  0  0  0  0  2  0  0  0  0  0  0
   36.9270   31.8010   39.4430 C   0  0  0  0  0  2  0  0  0  0  0  0
   38.0020   32.8060   39.8820 C   0  0  0  0  0  3  0  0  0  0  0  0
   38.6120   33.1070   39.0130 H   0  0  0  0  0  0  0  0  0  0  0  0
   38.8010   32.2500   41.0410 C   0  0  0  0  0  2  0  0  0  0  0  0
   38.8200   30.7650   41.0900 C   0  0  0  0  0  2  0  0  0  0  0  0
  1  2  1  0  0  0  0
  2  3  2  0  0  0  0
  2 11  1  0  0  0  0
  3 12  1  0  0  0  0
  4  3  1  0  0  0  0
  5  4  2  0  0  0  0
  6  5  1  0  0  0  0
  6  1  2  0  0  0  0
  7  8  2  0  0  0  0
  9  5  1  0  0  0  0
  9  7  1  0  0  0  0
 10  1  1  0  0  0  0
 13  9  1  0  0  0  0
 14  7  1  0  0  0  0
 15 14  1  0  0  0  0
 16 17  1  0  0  0  0
 16 15  1  0  0  0  0
 17 19  1  0  0  0  0
 18 17  1  0  0  0  0
 19 20  1  0  0  0  0
 20 14  1  0  0  0  0
M  END
>  <minimizedAffinity>
-4.46691465

$$$$

 OpenBabel03242510523D

 20 21  0  0  0  0  0  0  0  0999 V2000
   40.8210   32.2990   37.2910 C   0  0  0  0  0  0  0  0  0  0  0  0
   41.5460   33.2590   38.0100 C   0  0  0  0  0  0  0  0  0  0  0  0
   41.4740   33.1970   39.4000 C   0  0  0  0  0  0  0  0  0  0  0  0
   40.7210   32.2330   39.9910 N   0  0  0  0  0  0  0  0  0  0  0  0
   40.0360   31.3260   39.2760 C   0  0  0  0  0  0  0  0  0  0  0  0
   40.0970   31.3730   37.9130 N   0  0  0  0  0  0  0  0  0  0  0  0
   39.0050   30.5920   41.3210 C   0  0  0  0  0  0  0  0  0  0  0  0
   39.3800   31.5820   41.9760 O   0  0  0  0  0  0  0  0  0  0  0  0
   39.2700   30.3430   39.9490 N   0  0  0  0  0  0  0  0  0  0  0  0
   40.8890   32.3620   36.2320 H   0  0  0  0  0  0  0  0  0  0  0  0
   42.1520   34.0360   37.5730 H   0  0  0  0  0  0  0  0  0  0  0  0
   41.9960   33.8910   40.0470 H   0  0  0  0  0  0  0  0  0  0  0  0
   38.9660   29.5350   39.4090 H   0  0  0  0  0  0  0  0  0  0  0  0
   38.2200   29.5560   41.9560 N   0  0  0  0  0  0  0  0  0  0  0  0
   38.2040   29.1030   43.3150 C   0  0  0  0  0  2  0  0  0  0  0  0
   38.4230   27.5850   43.2470 C   0  0  0  0  0  2  0  0  0  0  0  0
   37.0280   27.0490   42.8920 C   0  0  0  0  0  3  0  0  0  0  0  0
   37.1070   26.0100   42.5280 H   0  0  0  0  0  0  0  0  0  0  0  0
   36.3280   27.9910   41.9380 C   0  0  0  0  0  2  0  0  0  0  0  0
   37.2610   28.8100   41.1210 C   0  0  0  0  0  2  0  0  0  0  0  0
  1  6  2  0  0  0  0
  1  2  1  0  0  0  0
  2  3  2  0  0  0  0
  3  4  1  0  0  0  0
  3 12  1  0  0  0  0
  5  9  1  0  0  0  0
  5  4  2  0  0  0  0
  6  5  1  0  0  0  0
  7 14  1  0  0  0  0
  7  8  2  0  0  0  0
  9  7  1  0  0  0  0
 10  1  1  0  0  0  0
 11  2  1  0  0  0  0
 13  9  1  0  0  0  0
 14 15  1  0  0  0  0
 16 15  1  0  0  0  0
 17 16  1  0  0  0  0
 18 17  1  0  0  0  0
 19 17  1  0  0  0  0
 20 19  1  0  0  0  0
 20 14  1  0  0  0  0
M  END
>  <minimizedAffinity>
-4.42105103

$$$$

 OpenBabel03242510523D

 20 21  0  0  0  0  0  0  0  0999 V2000
   37.7230   30.9190   37.5750 C   0  0  0  0  0  0  0  0  0  0  0  0
   37.3210   32.0680   38.2690 C   0  0  0  0  0  0  0  0  0  0  0  0
   37.3040   31.9950   39.6600 C   0  0  0  0  0  0  0  0  0  0  0  0
   37.6690   30.8400   40.2750 N   0  0  0  0  0  0  0  0  0  0  0  0
   38.0490   29.7540   39.5840 C   0  0  0  0  0  0  0  0  0  0  0  0
   38.0710   29.8100   38.2200 N   0  0  0  0  0  0  0  0  0  0  0  0
   38.0380   28.5190   41.6480 C   0  0  0  0  0  0  0  0  0  0  0  0
   37.4160   29.3940   42.2770 O   0  0  0  0  0  0  0  0  0  0  0  0
   38.4190   28.5780   40.2820 N   0  0  0  0  0  0  0  0  0  0  0  0
   37.7290   30.9950   36.5140 H   0  0  0  0  0  0  0  0  0  0  0  0
   37.0260   33.0000   37.8110 H   0  0  0  0  0  0  0  0  0  0  0  0
   37.0100   32.8260   40.2880 H   0  0  0  0  0  0  0  0  0  0  0  0
   38.9280   27.8660   39.7620 H   0  0  0  0  0  0  0  0  0  0  0  0
   38.4430   27.2980   42.3100 N   0  0  0  0  0  0  0  0  0  0  0  0
   38.7820   27.0510   43.6800 C   0  0  0  0  0  2  0  0  0  0  0  0
   40.1630   26.3800   43.6490 C   0  0  0  0  0  2  0  0  0  0  0  0
   39.8310   24.9200   43.3090 C   0  0  0  0  0  3  0  0  0  0  0  0
   40.7420   24.3970   42.9700 H   0  0  0  0  0  0  0  0  0  0  0  0
   38.6770   24.8540   42.3330 C   0  0  0  0  0  2  0  0  0  0  0  0
   38.5390   26.0730   41.4950 C   0  0  0  0  0  2  0  0  0  0  0  0
  1  6  2  0  0  0  0
  1  2  1  0  0  0  0
  2  3  2  0  0  0  0
  3  4  1  0  0  0  0
  3 12  1  0  0  0  0
  5  4  2  0  0  0  0
  5  9  1  0  0  0  0
  6  5  1  0  0  0  0
  7  8  2  0  0  0  0
  7 14  1  0  0  0  0
  9  7  1  0  0  0  0
 10  1  1  0  0  0  0
 11  2  1  0  0  0  0
 13  9  1  0  0  0  0
 14 15  1  0  0  0  0
 16 15  1  0  0  0  0
 17 16  1  0  0  0  0
 18 17  1  0  0  0  0
 19 17  1  0  0  0  0
 20 14  1  0  0  0  0
 20 19  1  0  0  0  0
M  END
>  <minimizedAffinity>
-4.40081835

$$$$

 OpenBabel03242510523D

 20 21  0  0  0  0  0  0  0  0999 V2000
   35.0440   27.5550   37.5460 C   0  0  0  0  0  0  0  0  0  0  0  0
   34.3050   28.6500   38.0130 C   0  0  0  0  0  0  0  0  0  0  0  0
   34.6050   29.1170   39.2910 C   0  0  0  0  0  0  0  0  0  0  0  0
   35.5770   28.5080   40.0180 N   0  0  0  0  0  0  0  0  0  0  0  0
   36.2690   27.4600   39.5440 C   0  0  0  0  0  0  0  0  0  0  0  0
   35.9870   26.9910   38.2930 N   0  0  0  0  0  0  0  0  0  0  0  0
   37.2460   27.2030   41.7270 C   0  0  0  0  0  0  0  0  0  0  0  0
   36.4310   27.9600   42.2840 O   0  0  0  0  0  0  0  0  0  0  0  0
   37.2730   26.8670   40.3480 N   0  0  0  0  0  0  0  0  0  0  0  0
   34.8020   27.2140   36.5690 H   0  0  0  0  0  0  0  0  0  0  0  0
   33.5280   29.1570   37.4630 H   0  0  0  0  0  0  0  0  0  0  0  0
   34.0930   29.9560   39.7450 H   0  0  0  0  0  0  0  0  0  0  0  0
   37.9380   26.2480   39.8870 H   0  0  0  0  0  0  0  0  0  0  0  0
   38.2940   26.5700   42.4980 N   0  0  0  0  0  0  0  0  0  0  0  0
   38.9770   27.0110   43.6770 C   0  0  0  0  0  2  0  0  0  0  0  0
   40.4730   26.9340   43.3420 C   0  0  0  0  0  2  0  0  0  0  0  0
   40.7940   25.4440   43.5290 C   0  0  0  0  0  3  0  0  0  0  0  0
   41.7540   25.2030   43.0420 H   0  0  0  0  0  0  0  0  0  0  0  0
   39.6310   24.5920   43.0700 C   0  0  0  0  0  2  0  0  0  0  0  0
   38.7790   25.2530   42.0470 C   0  0  0  0  0  2  0  0  0  0  0  0
  1  2  2  0  0  0  0
  1  6  1  0  0  0  0
  2  3  1  0  0  0  0
  3 12  1  0  0  0  0
  3  4  2  0  0  0  0
  5  4  1  0  0  0  0
  5  9  1  0  0  0  0
  6  5  2  0  0  0  0
  7  8  2  0  0  0  0
  7 14  1  0  0  0  0
  9  7  1  0  0  0  0
 10  1  1  0  0  0  0
 11  2  1  0  0  0  0
 13  9  1  0  0  0  0
 14 15  1  0  0  0  0
 16 17  1  0  0  0  0
 16 15  1  0  0  0  0
 18 17  1  0  0  0  0
 19 17  1  0  0  0  0
 20 14  1  0  0  0  0
 20 19  1  0  0  0  0
M  END
>  <minimizedAffinity>
-4.29837036

$$$$

 OpenBabel03242510523D

 20 21  0  0  0  0  0  0  0  0999 V2000
   38.7900   32.8190   40.8100 C   0  0  0  0  0  0  0  0  0  0  0  0
   37.7660   33.1660   39.9180 C   0  0  0  0  0  0  0  0  0  0  0  0
   36.9490   32.1340   39.4600 C   0  0  0  0  0  0  0  0  0  0  0  0
   37.1710   30.8630   39.8840 N   0  0  0  0  0  0  0  0  0  0  0  0
   38.1600   30.5610   40.7400 C   0  0  0  0  0  0  0  0  0  0  0  0
   38.9690   31.5610   41.1990 N   0  0  0  0  0  0  0  0  0  0  0  0
   37.6840   28.2330   40.3640 C   0  0  0  0  0  0  0  0  0  0  0  0
   36.9730   28.4440   39.3640 O   0  0  0  0  0  0  0  0  0  0  0  0
   38.3420   29.2160   41.1480 N   0  0  0  0  0  0  0  0  0  0  0  0
   39.4020   33.6190   41.1490 H   0  0  0  0  0  0  0  0  0  0  0  0
   37.5630   34.1630   39.5610 H   0  0  0  0  0  0  0  0  0  0  0  0
   36.1310   32.2950   38.7690 H   0  0  0  0  0  0  0  0  0  0  0  0
   38.9240   29.0500   41.9670 H   0  0  0  0  0  0  0  0  0  0  0  0
   37.9030   26.8800   40.8270 N   0  0  0  0  0  0  0  0  0  0  0  0
   37.0650   25.7210   40.7430 C   0  0  0  0  0  2  0  0  0  0  0  0
   36.9500   25.1910   42.1790 C   0  0  0  0  0  2  0  0  0  0  0  0
   38.2620   24.4160   42.3700 C   0  0  0  0  0  3  0  0  0  0  0  0
   38.4380   24.2340   43.4440 H   0  0  0  0  0  0  0  0  0  0  0  0
   39.3980   25.1220   41.6640 C   0  0  0  0  0  2  0  0  0  0  0  0
   39.1790   26.5840   41.5020 C   0  0  0  0  0  2  0  0  0  0  0  0
  1 10  1  0  0  0  0
  1  6  1  0  0  0  0
  2  1  2  0  0  0  0
  3  4  2  0  0  0  0
  3  2  1  0  0  0  0
  4  5  1  0  0  0  0
  5  9  1  0  0  0  0
  5  6  2  0  0  0  0
  7 14  1  0  0  0  0
  7  9  1  0  0  0  0
  8  7  2  0  0  0  0
  9 13  1  0  0  0  0
 11  2  1  0  0  0  0
 12  3  1  0  0  0  0
 14 20  1  0  0  0  0
 15 14  1  0  0  0  0
 15 16  1  0  0  0  0
 16 17  1  0  0  0  0
 17 18  1  0  0  0  0
 19 17  1  0  0  0  0
 20 19  1  0  0  0  0
M  END
>  <minimizedAffinity>
-4.21048784

$$$$

 OpenBabel03242510523D

 20 21  0  0  0  0  0  0  0  0999 V2000
   43.9010   29.9450   35.3730 C   0  0  0  0  0  0  0  0  0  0  0  0
   44.9720   30.7910   35.6920 C   0  0  0  0  0  0  0  0  0  0  0  0
   44.7320   31.7890   36.6340 C   0  0  0  0  0  0  0  0  0  0  0  0
   43.4990   31.9000   37.1940 N   0  0  0  0  0  0  0  0  0  0  0  0
   42.4920   31.0750   36.8690 C   0  0  0  0  0  0  0  0  0  0  0  0
   42.7120   30.0910   35.9470 N   0  0  0  0  0  0  0  0  0  0  0  0
   41.0180   32.4750   38.1540 C   0  0  0  0  0  0  0  0  0  0  0  0
   41.8320   33.4120   38.2410 O   0  0  0  0  0  0  0  0  0  0  0  0
   41.2290   31.2390   37.4880 N   0  0  0  0  0  0  0  0  0  0  0  0
   44.1040   29.1900   34.6530 H   0  0  0  0  0  0  0  0  0  0  0  0
   45.9610   30.7300   35.2670 H   0  0  0  0  0  0  0  0  0  0  0  0
   45.4900   32.4940   36.9500 H   0  0  0  0  0  0  0  0  0  0  0  0
   40.5670   30.4690   37.4140 H   0  0  0  0  0  0  0  0  0  0  0  0
   39.7130   32.5870   38.7680 N   0  0  0  0  0  0  0  0  0  0  0  0
   39.2900   33.3090   39.9310 C   0  0  0  0  0  2  0  0  0  0  0  0
   38.5810   32.2800   40.8220 C   0  0  0  0  0  2  0  0  0  0  0  0
   37.1850   32.1780   40.1910 C   0  0  0  0  0  3  0  0  0  0  0  0
   36.6760   31.2680   40.5500 H   0  0  0  0  0  0  0  0  0  0  0  0
   37.2770   32.2870   38.6850 C   0  0  0  0  0  2  0  0  0  0  0  0
   38.5930   31.8630   38.1390 C   0  0  0  0  0  2  0  0  0  0  0  0
  1  2  2  0  0  0  0
  1  6  1  0  0  0  0
  2  3  1  0  0  0  0
  3 12  1  0  0  0  0
  3  4  2  0  0  0  0
  5  4  1  0  0  0  0
  5  9  1  0  0  0  0
  6  5  2  0  0  0  0
  7  8  2  0  0  0  0
  7 14  1  0  0  0  0
  9  7  1  0  0  0  0
 10  1  1  0  0  0  0
 11  2  1  0  0  0  0
 13  9  1  0  0  0  0
 14 15  1  0  0  0  0
 15 16  1  0  0  0  0
 17 18  1  0  0  0  0
 17 16  1  0  0  0  0
 19 17  1  0  0  0  0
 20 19  1  0  0  0  0
 20 14  1  0  0  0  0
M  END
>  <minimizedAffinity>
-4.17828846

$$$$

 OpenBabel03242510523D

 20 21  0  0  0  0  0  0  0  0999 V2000
   41.8770   32.6310   39.7020 C   0  0  0  0  0  0  0  0  0  0  0  0
   41.1100   33.7960   39.8340 C   0  0  0  0  0  0  0  0  0  0  0  0
   39.8020   33.6450   40.2880 C   0  0  0  0  0  0  0  0  0  0  0  0
   39.3310   32.4040   40.5780 N   0  0  0  0  0  0  0  0  0  0  0  0
   40.0890   31.3060   40.4420 C   0  0  0  0  0  0  0  0  0  0  0  0
   41.3740   31.4370   39.9980 N   0  0  0  0  0  0  0  0  0  0  0  0
   38.1300   29.9810   40.8770 C   0  0  0  0  0  0  0  0  0  0  0  0
   37.3390   30.9300   40.7250 O   0  0  0  0  0  0  0  0  0  0  0  0
   39.5430   30.0380   40.7610 N   0  0  0  0  0  0  0  0  0  0  0  0
   42.8730   32.7670   39.3550 H   0  0  0  0  0  0  0  0  0  0  0  0
   41.4530   34.7950   39.6130 H   0  0  0  0  0  0  0  0  0  0  0  0
   39.1270   34.4810   40.4240 H   0  0  0  0  0  0  0  0  0  0  0  0
   40.1940   29.2650   40.8850 H   0  0  0  0  0  0  0  0  0  0  0  0
   37.6280   28.6640   41.2050 N   0  0  0  0  0  0  0  0  0  0  0  0
   36.4620   28.2680   41.9380 C   0  0  0  0  0  2  0  0  0  0  0  0
   36.9650   27.3200   43.0350 C   0  0  0  0  0  2  0  0  0  0  0  0
   37.1360   25.9870   42.2900 C   0  0  0  0  0  3  0  0  0  0  0  0
   37.7640   25.3020   42.8850 H   0  0  0  0  0  0  0  0  0  0  0  0
   37.6390   26.2300   40.8840 C   0  0  0  0  0  2  0  0  0  0  0  0
   38.4000   27.4980   40.7370 C   0  0  0  0  0  2  0  0  0  0  0  0
  1  2  2  0  0  0  0
  1  6  1  0  0  0  0
  2  3  1  0  0  0  0
  3 12  1  0  0  0  0
  3  4  2  0  0  0  0
  5  4  1  0  0  0  0
  5  9  1  0  0  0  0
  6  5  2  0  0  0  0
  7 14  1  0  0  0  0
  8  7  2  0  0  0  0
  9  7  1  0  0  0  0
  9 13  1  0  0  0  0
 10  1  1  0  0  0  0
 11  2  1  0  0  0  0
 14 15  1  0  0  0  0
 15 16  1  0  0  0  0
 17 18  1  0  0  0  0
 17 16  1  0  0  0  0
 19 17  1  0  0  0  0
 20 19  1  0  0  0  0
 20 14  1  0  0  0  0
M  END
>  <minimizedAffinity>
-4.08157158

$$$$

 OpenBabel03242510523D

 20 21  0  0  0  0  0  0  0  0999 V2000
   36.2600   27.6970   35.2870 C   0  0  0  0  0  0  0  0  0  0  0  0
   36.3540   29.0060   34.7950 C   0  0  0  0  0  0  0  0  0  0  0  0
   36.6420   30.0100   35.7170 C   0  0  0  0  0  0  0  0  0  0  0  0
   36.8150   29.6900   37.0260 N   0  0  0  0  0  0  0  0  0  0  0  0
   36.7180   28.4270   37.4690 C   0  0  0  0  0  0  0  0  0  0  0  0
   36.4370   27.4320   36.5770 N   0  0  0  0  0  0  0  0  0  0  0  0
   36.8550   29.2750   39.7150 C   0  0  0  0  0  0  0  0  0  0  0  0
   36.6550   30.4570   39.3810 O   0  0  0  0  0  0  0  0  0  0  0  0
   36.9100   28.1550   38.8450 N   0  0  0  0  0  0  0  0  0  0  0  0
   36.0400   26.9450   34.5690 H   0  0  0  0  0  0  0  0  0  0  0  0
   36.2230   29.2940   33.7640 H   0  0  0  0  0  0  0  0  0  0  0  0
   36.7360   31.0530   35.4400 H   0  0  0  0  0  0  0  0  0  0  0  0
   37.0740   27.1860   39.1130 H   0  0  0  0  0  0  0  0  0  0  0  0
   37.0590   28.9380   41.1070 N   0  0  0  0  0  0  0  0  0  0  0  0
   37.6280   29.7050   42.1760 C   0  0  0  0  0  2  0  0  0  0  0  0
   38.7310   28.8220   42.7760 C   0  0  0  0  0  2  0  0  0  0  0  0
   37.9500   27.8570   43.6800 C   0  0  0  0  0  3  0  0  0  0  0  0
   38.5830   26.9910   43.9400 H   0  0  0  0  0  0  0  0  0  0  0  0
   36.6270   27.4920   43.0430 C   0  0  0  0  0  2  0  0  0  0  0  0
   36.6310   27.6030   41.5610 C   0  0  0  0  0  2  0  0  0  0  0  0
  1  6  1  0  0  0  0
  2  1  2  0  0  0  0
  2  3  1  0  0  0  0
  3  4  2  0  0  0  0
  4  5  1  0  0  0  0
  5  9  1  0  0  0  0
  6  5  2  0  0  0  0
  7 14  1  0  0  0  0
  8  7  2  0  0  0  0
  9 13  1  0  0  0  0
  9  7  1  0  0  0  0
 10  1  1  0  0  0  0
 11  2  1  0  0  0  0
 12  3  1  0  0  0  0
 14 20  1  0  0  0  0
 14 15  1  0  0  0  0
 15 16  1  0  0  0  0
 16 17  1  0  0  0  0
 17 18  1  0  0  0  0
 19 17  1  0  0  0  0
 20 19  1  0  0  0  0
M  END
>  <minimizedAffinity>
-4.06712866

$$$$
