
 OpenBabel03252504013D

 32 35  0  0  0  0  0  0  0  0999 V2000
   38.4290   29.0610   42.1740 C   0  0  0  0  0  0  0  0  0  0  0  0
   37.7930   29.2320   43.4050 C   0  0  0  0  0  0  0  0  0  0  0  0
   36.9960   28.1890   43.8670 C   0  0  0  0  0  0  0  0  0  0  0  0
   36.8770   27.0730   43.1090 N   0  0  0  0  0  0  0  0  0  0  0  0
   37.5100   26.9470   41.9230 C   0  0  0  0  0  0  0  0  0  0  0  0
   38.2940   27.9470   41.4470 N   0  0  0  0  0  0  0  0  0  0  0  0
   37.9050   30.1420   43.9990 H   0  0  0  0  0  0  0  0  0  0  0  0
   36.4670   28.2360   44.8090 H   0  0  0  0  0  0  0  0  0  0  0  0
   36.7600   25.8350   39.8730 C   0  0  0  0  0  0  0  0  0  0  0  0
   37.3830   25.7370   41.0980 C   0  0  0  0  0  0  0  0  0  0  0  0
   37.8750   24.5110   41.5290 C   0  0  0  0  0  0  0  0  0  0  0  0
   37.7250   23.4070   40.7070 C   0  0  0  0  0  0  0  0  0  0  0  0
   38.0810   22.1220   40.8330 N   0  0  0  0  0  0  0  0  0  0  0  0
   37.7160   21.4110   39.7550 C   0  0  0  0  0  0  0  0  0  0  0  0
   37.0840   22.2720   38.8710 C   0  0  0  0  0  0  0  0  0  0  0  0
   37.0940   23.5150   39.4720 C   0  0  0  0  0  0  0  0  0  0  0  0
   36.6130   24.7340   39.0590 C   0  0  0  0  0  0  0  0  0  0  0  0
   36.3500   26.7580   39.4690 H   0  0  0  0  0  0  0  0  0  0  0  0
   38.3620   24.4390   42.4880 H   0  0  0  0  0  0  0  0  0  0  0  0
   38.5860   21.7420   41.6840 H   0  0  0  0  0  0  0  0  0  0  0  0
   37.9190   20.3520   39.6740 H   0  0  0  0  0  0  0  0  0  0  0  0
   36.6790   21.9780   37.9070 H   0  0  0  0  0  0  0  0  0  0  0  0
   36.1270   24.7770   38.0880 H   0  0  0  0  0  0  0  0  0  0  0  0
   39.2400   30.1860   41.7590 C   0  0  0  0  0  0  0  0  0  0  0  0
   40.4550   30.3810   42.1270 O   0  0  0  0  0  0  0  0  0  0  0  0
   38.6640   31.1550   40.8780 N   0  0  0  0  0  0  0  0  0  0  0  0
   37.2340   31.2190   40.6530 C   0  0  0  0  0  2  0  0  0  0  0  0
   36.9510   31.9900   39.3770 C   0  0  0  0  0  2  0  0  0  0  0  0
   37.4270   33.4200   39.5480 C   0  0  0  0  0  3  0  0  0  0  0  0
   36.7060   33.9370   40.2390 H   0  0  0  0  0  0  0  0  0  0  0  0
   38.7990   33.4840   40.1660 C   0  0  0  0  0  2  0  0  0  0  0  0
   39.4770   32.1200   40.1650 C   0  0  0  0  0  2  0  0  0  0  0  0
  1  2  1  0  0  0  0
  2  3  2  0  0  0  0
  2  7  1  0  0  0  0
  3  8  1  0  0  0  0
  4  3  1  0  0  0  0
  5  4  2  0  0  0  0
  6  5  1  0  0  0  0
  6  1  2  0  0  0  0
  9 10  1  0  0  0  0
 10 11  2  0  0  0  0
 10  5  1  0  0  0  0
 11 19  1  0  0  0  0
 12 13  1  0  0  0  0
 12 11  1  0  0  0  0
 13 20  1  0  0  0  0
 14 13  1  0  0  0  0
 15 16  1  0  0  0  0
 15 14  2  0  0  0  0
 16 12  2  0  0  0  0
 17 16  1  0  0  0  0
 17  9  2  0  0  0  0
 18  9  1  0  0  0  0
 21 14  1  0  0  0  0
 22 15  1  0  0  0  0
 23 17  1  0  0  0  0
 24 25  2  0  0  0  0
 24  1  1  0  0  0  0
 26 24  1  0  0  0  0
 27 26  1  0  0  0  0
 28 29  1  0  0  0  0
 28 27  1  0  0  0  0
 29 31  1  0  0  0  0
 29 30  1  0  0  0  0
 32 31  1  0  0  0  0
 32 26  1  0  0  0  0
M  END
>  <minimizedAffinity>
-6.17609596

$$$$

 OpenBabel03252504013D

 32 35  0  0  0  0  0  0  0  0999 V2000
   40.8290   33.1220   39.4060 C   0  0  0  0  0  0  0  0  0  0  0  0
   40.1380   34.3250   39.5670 C   0  0  0  0  0  0  0  0  0  0  0  0
   39.0530   34.3300   40.4370 C   0  0  0  0  0  0  0  0  0  0  0  0
   38.7220   33.1840   41.0770 N   0  0  0  0  0  0  0  0  0  0  0  0
   39.4160   32.0400   40.8930 C   0  0  0  0  0  0  0  0  0  0  0  0
   40.4800   32.0040   40.0510 N   0  0  0  0  0  0  0  0  0  0  0  0
   40.4250   35.2370   39.0400 H   0  0  0  0  0  0  0  0  0  0  0  0
   38.4620   35.2170   40.6220 H   0  0  0  0  0  0  0  0  0  0  0  0
   40.0560   30.0860   42.2230 C   0  0  0  0  0  0  0  0  0  0  0  0
   39.0600   30.7940   41.5860 C   0  0  0  0  0  0  0  0  0  0  0  0
   37.7530   30.3240   41.6090 C   0  0  0  0  0  0  0  0  0  0  0  0
   37.4800   29.1440   42.2780 C   0  0  0  0  0  0  0  0  0  0  0  0
   36.3540   28.4470   42.4770 N   0  0  0  0  0  0  0  0  0  0  0  0
   36.5890   27.3440   43.2030 C   0  0  0  0  0  0  0  0  0  0  0  0
   37.9430   27.3090   43.4990 C   0  0  0  0  0  0  0  0  0  0  0  0
   38.4920   28.4350   42.9190 C   0  0  0  0  0  0  0  0  0  0  0  0
   39.7800   28.9120   42.8890 C   0  0  0  0  0  0  0  0  0  0  0  0
   41.1000   30.3890   42.2490 H   0  0  0  0  0  0  0  0  0  0  0  0
   36.9770   30.8820   41.1090 H   0  0  0  0  0  0  0  0  0  0  0  0
   35.4110   28.7520   42.0990 H   0  0  0  0  0  0  0  0  0  0  0  0
   35.7980   26.6540   43.4660 H   0  0  0  0  0  0  0  0  0  0  0  0
   38.4280   26.5280   44.0780 H   0  0  0  0  0  0  0  0  0  0  0  0
   40.5420   28.3290   43.4010 H   0  0  0  0  0  0  0  0  0  0  0  0
   41.9450   33.1920   38.4870 C   0  0  0  0  0  0  0  0  0  0  0  0
   41.8640   32.9610   37.2260 O   0  0  0  0  0  0  0  0  0  0  0  0
   43.2330   33.5440   39.0020 N   0  0  0  0  0  0  0  0  0  0  0  0
   43.5140   33.5140   40.4230 C   0  0  0  0  0  2  0  0  0  0  0  0
   44.7500   34.3440   40.7170 C   0  0  0  0  0  2  0  0  0  0  0  0
   45.9440   33.7140   40.0270 C   0  0  0  0  0  3  0  0  0  0  0  0
   46.2100   32.7800   40.5940 H   0  0  0  0  0  0  0  0  0  0  0  0
   45.6300   33.3270   38.6050 C   0  0  0  0  0  2  0  0  0  0  0  0
   44.3210   33.9470   38.1330 C   0  0  0  0  0  2  0  0  0  0  0  0
  1  2  2  0  0  0  0
  1  6  1  0  0  0  0
  2  3  1  0  0  0  0
  3  8  1  0  0  0  0
  3  4  2  0  0  0  0
  5  4  1  0  0  0  0
  5 10  1  0  0  0  0
  6  5  2  0  0  0  0
  7  2  1  0  0  0  0
  9 18  1  0  0  0  0
  9 17  1  0  0  0  0
 10 11  1  0  0  0  0
 10  9  2  0  0  0  0
 11 12  2  0  0  0  0
 12 13  1  0  0  0  0
 12 16  1  0  0  0  0
 13 14  1  0  0  0  0
 14 21  1  0  0  0  0
 14 15  2  0  0  0  0
 15 22  1  0  0  0  0
 16 15  1  0  0  0  0
 17 16  2  0  0  0  0
 17 23  1  0  0  0  0
 19 11  1  0  0  0  0
 20 13  1  0  0  0  0
 24 26  1  0  0  0  0
 24  1  1  0  0  0  0
 25 24  2  0  0  0  0
 26 27  1  0  0  0  0
 27 28  1  0  0  0  0
 29 30  1  0  0  0  0
 29 28  1  0  0  0  0
 31 29  1  0  0  0  0
 32 31  1  0  0  0  0
 32 26  1  0  0  0  0
M  END
>  <minimizedAffinity>
-6.07925653

$$$$

 OpenBabel03252504013D

 32 35  0  0  0  0  0  0  0  0999 V2000
   38.3110   26.4470   42.1630 C   0  0  0  0  0  0  0  0  0  0  0  0
   39.3200   26.2870   43.1140 C   0  0  0  0  0  0  0  0  0  0  0  0
   40.0290   27.4220   43.4950 C   0  0  0  0  0  0  0  0  0  0  0  0
   39.7120   28.6110   42.9310 N   0  0  0  0  0  0  0  0  0  0  0  0
   38.7280   28.7230   42.0130 C   0  0  0  0  0  0  0  0  0  0  0  0
   38.0180   27.6350   41.6220 N   0  0  0  0  0  0  0  0  0  0  0  0
   39.5580   25.3170   43.5560 H   0  0  0  0  0  0  0  0  0  0  0  0
   40.8270   27.3900   44.2250 H   0  0  0  0  0  0  0  0  0  0  0  0
   37.2590   30.0820   40.6000 C   0  0  0  0  0  0  0  0  0  0  0  0
   38.3800   30.0130   41.3990 C   0  0  0  0  0  0  0  0  0  0  0  0
   39.1530   31.1480   41.6080 C   0  0  0  0  0  0  0  0  0  0  0  0
   38.7740   32.3330   41.0020 C   0  0  0  0  0  0  0  0  0  0  0  0
   39.2940   33.5670   41.0070 N   0  0  0  0  0  0  0  0  0  0  0  0
   38.5620   34.4050   40.2570 C   0  0  0  0  0  0  0  0  0  0  0  0
   37.5020   33.6860   39.7280 C   0  0  0  0  0  0  0  0  0  0  0  0
   37.6410   32.3950   40.1970 C   0  0  0  0  0  0  0  0  0  0  0  0
   36.8860   31.2640   40.0000 C   0  0  0  0  0  0  0  0  0  0  0  0
   36.6060   29.2390   40.3900 H   0  0  0  0  0  0  0  0  0  0  0  0
   40.0290   31.0880   42.2340 H   0  0  0  0  0  0  0  0  0  0  0  0
   40.1730   33.8220   41.5450 H   0  0  0  0  0  0  0  0  0  0  0  0
   38.8280   35.4470   40.1410 H   0  0  0  0  0  0  0  0  0  0  0  0
   36.7380   34.1020   39.0770 H   0  0  0  0  0  0  0  0  0  0  0  0
   36.0080   31.3530   39.3640 H   0  0  0  0  0  0  0  0  0  0  0  0
   37.6160   25.2250   41.8170 C   0  0  0  0  0  0  0  0  0  0  0  0
   36.5960   24.7650   42.4470 O   0  0  0  0  0  0  0  0  0  0  0  0
   38.0850   24.4660   40.6980 N   0  0  0  0  0  0  0  0  0  0  0  0
   39.3920   24.7020   40.1170 C   0  0  0  0  0  2  0  0  0  0  0  0
   39.4430   24.1140   38.7190 C   0  0  0  0  0  2  0  0  0  0  0  0
   39.2760   22.6090   38.8100 C   0  0  0  0  0  3  0  0  0  0  0  0
   40.2310   22.1860   39.2240 H   0  0  0  0  0  0  0  0  0  0  0  0
   38.1520   22.2250   39.7370 C   0  0  0  0  0  2  0  0  0  0  0  0
   37.2810   23.4250   40.0880 C   0  0  0  0  0  2  0  0  0  0  0  0
  1  2  1  0  0  0  0
  2  3  2  0  0  0  0
  2  7  1  0  0  0  0
  3  8  1  0  0  0  0
  4  3  1  0  0  0  0
  5  4  2  0  0  0  0
  6  5  1  0  0  0  0
  6  1  2  0  0  0  0
  9 10  1  0  0  0  0
 10 11  2  0  0  0  0
 10  5  1  0  0  0  0
 11 19  1  0  0  0  0
 12 13  1  0  0  0  0
 12 11  1  0  0  0  0
 13 20  1  0  0  0  0
 14 13  1  0  0  0  0
 15 16  1  0  0  0  0
 15 14  2  0  0  0  0
 16 12  2  0  0  0  0
 17 16  1  0  0  0  0
 17  9  2  0  0  0  0
 18  9  1  0  0  0  0
 21 14  1  0  0  0  0
 22 15  1  0  0  0  0
 23 17  1  0  0  0  0
 24  1  1  0  0  0  0
 24 25  2  0  0  0  0
 26 24  1  0  0  0  0
 27 26  1  0  0  0  0
 28 29  1  0  0  0  0
 28 27  1  0  0  0  0
 29 30  1  0  0  0  0
 29 31  1  0  0  0  0
 31 32  1  0  0  0  0
 32 26  1  0  0  0  0
M  END
>  <minimizedAffinity>
-6.01004267

$$$$

 OpenBabel03252504013D

 32 35  0  0  0  0  0  0  0  0999 V2000
   38.0220   30.9020   39.7450 C   0  0  0  0  0  0  0  0  0  0  0  0
   36.9810   31.8280   39.8300 C   0  0  0  0  0  0  0  0  0  0  0  0
   37.3110   33.1750   39.7320 C   0  0  0  0  0  0  0  0  0  0  0  0
   38.6090   33.5200   39.5630 N   0  0  0  0  0  0  0  0  0  0  0  0
   39.5870   32.5920   39.4870 C   0  0  0  0  0  0  0  0  0  0  0  0
   39.2960   31.2700   39.5780 N   0  0  0  0  0  0  0  0  0  0  0  0
   35.9400   31.5250   39.9660 H   0  0  0  0  0  0  0  0  0  0  0  0
   36.5680   33.9600   39.7870 H   0  0  0  0  0  0  0  0  0  0  0  0
   41.6490   33.6090   40.3310 C   0  0  0  0  0  0  0  0  0  0  0  0
   40.9980   32.9630   39.3030 C   0  0  0  0  0  0  0  0  0  0  0  0
   41.6760   32.6760   38.1250 C   0  0  0  0  0  0  0  0  0  0  0  0
   43.0030   33.0510   38.0110 C   0  0  0  0  0  0  0  0  0  0  0  0
   43.9070   32.9210   37.0310 N   0  0  0  0  0  0  0  0  0  0  0  0
   45.0870   33.4490   37.3890 C   0  0  0  0  0  0  0  0  0  0  0  0
   44.9560   33.9560   38.6720 C   0  0  0  0  0  0  0  0  0  0  0  0
   43.6540   33.7040   39.0540 C   0  0  0  0  0  0  0  0  0  0  0  0
   42.9710   33.9800   40.2130 C   0  0  0  0  0  0  0  0  0  0  0  0
   41.1870   33.8670   41.2800 H   0  0  0  0  0  0  0  0  0  0  0  0
   41.1610   32.1700   37.3230 H   0  0  0  0  0  0  0  0  0  0  0  0
   43.6910   32.4560   36.1030 H   0  0  0  0  0  0  0  0  0  0  0  0
   45.9420   33.4390   36.7250 H   0  0  0  0  0  0  0  0  0  0  0  0
   45.7520   34.4460   39.2270 H   0  0  0  0  0  0  0  0  0  0  0  0
   43.5140   34.4910   41.0050 H   0  0  0  0  0  0  0  0  0  0  0  0
   37.6040   29.5200   39.8540 C   0  0  0  0  0  0  0  0  0  0  0  0
   37.2030   28.8010   38.8670 O   0  0  0  0  0  0  0  0  0  0  0  0
   37.6340   28.8970   41.1420 N   0  0  0  0  0  0  0  0  0  0  0  0
   37.7550   29.6760   42.3580 C   0  0  0  0  0  2  0  0  0  0  0  0
   38.2150   28.7810   43.4940 C   0  0  0  0  0  2  0  0  0  0  0  0
   37.1530   27.7320   43.7570 C   0  0  0  0  0  3  0  0  0  0  0  0
   36.2890   28.2430   44.2630 H   0  0  0  0  0  0  0  0  0  0  0  0
   36.6490   27.1110   42.4810 C   0  0  0  0  0  2  0  0  0  0  0  0
   37.5460   27.4580   41.2990 C   0  0  0  0  0  2  0  0  0  0  0  0
  1  2  1  0  0  0  0
  1 24  1  0  0  0  0
  2  7  1  0  0  0  0
  3  8  1  0  0  0  0
  3  2  2  0  0  0  0
  4  3  1  0  0  0  0
  5  4  2  0  0  0  0
  5  6  1  0  0  0  0
  6  1  2  0  0  0  0
  9 18  1  0  0  0  0
 10  5  1  0  0  0  0
 10  9  2  0  0  0  0
 11 10  1  0  0  0  0
 12 11  2  0  0  0  0
 12 16  1  0  0  0  0
 13 14  1  0  0  0  0
 13 12  1  0  0  0  0
 14 15  2  0  0  0  0
 15 16  1  0  0  0  0
 15 22  1  0  0  0  0
 16 17  2  0  0  0  0
 17  9  1  0  0  0  0
 17 23  1  0  0  0  0
 19 11  1  0  0  0  0
 20 13  1  0  0  0  0
 21 14  1  0  0  0  0
 24 26  1  0  0  0  0
 25 24  2  0  0  0  0
 26 32  1  0  0  0  0
 26 27  1  0  0  0  0
 27 28  1  0  0  0  0
 28 29  1  0  0  0  0
 29 30  1  0  0  0  0
 31 29  1  0  0  0  0
 32 31  1  0  0  0  0
M  END
>  <minimizedAffinity>
-5.98926306

$$$$

 OpenBabel03252504013D

 32 35  0  0  0  0  0  0  0  0999 V2000
   37.2620   27.0300   41.3230 C   0  0  0  0  0  0  0  0  0  0  0  0
   36.9710   26.7440   42.6580 C   0  0  0  0  0  0  0  0  0  0  0  0
   37.0290   27.7950   43.5680 C   0  0  0  0  0  0  0  0  0  0  0  0
   37.3620   29.0290   43.1200 N   0  0  0  0  0  0  0  0  0  0  0  0
   37.6370   29.2630   41.8190 C   0  0  0  0  0  0  0  0  0  0  0  0
   37.5880   28.2590   40.9090 N   0  0  0  0  0  0  0  0  0  0  0  0
   36.7050   25.7400   42.9960 H   0  0  0  0  0  0  0  0  0  0  0  0
   36.8190   27.6640   44.6200 H   0  0  0  0  0  0  0  0  0  0  0  0
   37.0530   31.3270   40.6360 C   0  0  0  0  0  0  0  0  0  0  0  0
   37.9980   30.6020   41.3290 C   0  0  0  0  0  0  0  0  0  0  0  0
   39.2590   31.1400   41.5510 C   0  0  0  0  0  0  0  0  0  0  0  0
   39.5390   32.4060   41.0650 C   0  0  0  0  0  0  0  0  0  0  0  0
   40.6300   33.1800   41.1130 N   0  0  0  0  0  0  0  0  0  0  0  0
   40.4210   34.3490   40.4890 C   0  0  0  0  0  0  0  0  0  0  0  0
   39.1230   34.3470   40.0030 C   0  0  0  0  0  0  0  0  0  0  0  0
   38.5790   33.1310   40.3660 C   0  0  0  0  0  0  0  0  0  0  0  0
   37.3360   32.5860   40.1540 C   0  0  0  0  0  0  0  0  0  0  0  0
   36.0470   30.9740   40.4230 H   0  0  0  0  0  0  0  0  0  0  0  0
   39.9940   30.5690   42.0950 H   0  0  0  0  0  0  0  0  0  0  0  0
   41.5290   32.8830   41.5900 H   0  0  0  0  0  0  0  0  0  0  0  0
   41.1910   35.1070   40.4240 H   0  0  0  0  0  0  0  0  0  0  0  0
   38.6700   35.1650   39.4500 H   0  0  0  0  0  0  0  0  0  0  0  0
   36.6140   33.1850   39.6040 H   0  0  0  0  0  0  0  0  0  0  0  0
   37.1820   25.8890   40.4360 C   0  0  0  0  0  0  0  0  0  0  0  0
   37.7590   24.7610   40.6480 O   0  0  0  0  0  0  0  0  0  0  0  0
   36.4080   26.0080   39.2380 N   0  0  0  0  0  0  0  0  0  0  0  0
   35.9830   27.2990   38.7360 C   0  0  0  0  0  2  0  0  0  0  0  0
   34.8360   27.1160   37.7610 C   0  0  0  0  0  2  0  0  0  0  0  0
   35.3280   26.3270   36.5630 C   0  0  0  0  0  3  0  0  0  0  0  0
   35.9810   27.0080   35.9530 H   0  0  0  0  0  0  0  0  0  0  0  0
   36.1500   25.1340   36.9760 C   0  0  0  0  0  2  0  0  0  0  0  0
   36.0100   24.8480   38.4660 C   0  0  0  0  0  2  0  0  0  0  0  0
  1  2  1  0  0  0  0
  2  7  1  0  0  0  0
  2  3  2  0  0  0  0
  3  8  1  0  0  0  0
  4  3  1  0  0  0  0
  5  4  2  0  0  0  0
  6  1  2  0  0  0  0
  6  5  1  0  0  0  0
  9 10  1  0  0  0  0
 10 11  2  0  0  0  0
 10  5  1  0  0  0  0
 11 19  1  0  0  0  0
 12 13  1  0  0  0  0
 12 11  1  0  0  0  0
 13 20  1  0  0  0  0
 14 13  1  0  0  0  0
 15 16  1  0  0  0  0
 15 14  2  0  0  0  0
 16 12  2  0  0  0  0
 17 16  1  0  0  0  0
 17  9  2  0  0  0  0
 18  9  1  0  0  0  0
 21 14  1  0  0  0  0
 22 15  1  0  0  0  0
 23 17  1  0  0  0  0
 24 25  2  0  0  0  0
 24  1  1  0  0  0  0
 26 24  1  0  0  0  0
 27 26  1  0  0  0  0
 28 27  1  0  0  0  0
 29 31  1  0  0  0  0
 29 28  1  0  0  0  0
 30 29  1  0  0  0  0
 31 32  1  0  0  0  0
 32 26  1  0  0  0  0
M  END
>  <minimizedAffinity>
-5.95177174

$$$$

 OpenBabel03252504013D

 32 35  0  0  0  0  0  0  0  0999 V2000
   37.0060   28.7490   41.3030 C   0  0  0  0  0  0  0  0  0  0  0  0
   35.7240   28.9530   40.7890 C   0  0  0  0  0  0  0  0  0  0  0  0
   35.5400   30.0360   39.9350 C   0  0  0  0  0  0  0  0  0  0  0  0
   36.5990   30.8310   39.6490 N   0  0  0  0  0  0  0  0  0  0  0  0
   37.8230   30.5980   40.1690 C   0  0  0  0  0  0  0  0  0  0  0  0
   38.0340   29.5500   41.0040 N   0  0  0  0  0  0  0  0  0  0  0  0
   34.8860   28.2980   41.0340 H   0  0  0  0  0  0  0  0  0  0  0  0
   34.5820   30.2680   39.4910 H   0  0  0  0  0  0  0  0  0  0  0  0
   39.7010   31.9890   40.9040 C   0  0  0  0  0  0  0  0  0  0  0  0
   38.9750   31.4580   39.8600 C   0  0  0  0  0  0  0  0  0  0  0  0
   39.3390   31.7410   38.5500 C   0  0  0  0  0  0  0  0  0  0  0  0
   40.4330   32.5580   38.3220 C   0  0  0  0  0  0  0  0  0  0  0  0
   41.0210   33.0050   37.2060 N   0  0  0  0  0  0  0  0  0  0  0  0
   42.0730   33.7860   37.4920 C   0  0  0  0  0  0  0  0  0  0  0  0
   42.1870   33.8590   38.8720 C   0  0  0  0  0  0  0  0  0  0  0  0
   41.1600   33.0900   39.3820 C   0  0  0  0  0  0  0  0  0  0  0  0
   40.7890   32.8020   40.6730 C   0  0  0  0  0  0  0  0  0  0  0  0
   39.4780   31.8150   41.9540 H   0  0  0  0  0  0  0  0  0  0  0  0
   38.7680   31.3230   37.7360 H   0  0  0  0  0  0  0  0  0  0  0  0
   40.6780   32.7580   36.2330 H   0  0  0  0  0  0  0  0  0  0  0  0
   42.6750   34.2410   36.7170 H   0  0  0  0  0  0  0  0  0  0  0  0
   42.9510   34.4230   39.4000 H   0  0  0  0  0  0  0  0  0  0  0  0
   41.3830   33.2370   41.4740 H   0  0  0  0  0  0  0  0  0  0  0  0
   37.1220   27.6050   42.1820 C   0  0  0  0  0  0  0  0  0  0  0  0
   37.1380   27.6720   43.4650 O   0  0  0  0  0  0  0  0  0  0  0  0
   37.2240   26.3020   41.5990 N   0  0  0  0  0  0  0  0  0  0  0  0
   37.5350   26.1240   40.1940 C   0  0  0  0  0  2  0  0  0  0  0  0
   37.1370   24.7270   39.7560 C   0  0  0  0  0  2  0  0  0  0  0  0
   37.9720   23.7150   40.5160 C   0  0  0  0  0  3  0  0  0  0  0  0
   39.0140   23.7500   40.0950 H   0  0  0  0  0  0  0  0  0  0  0  0
   38.0480   24.0390   41.9850 C   0  0  0  0  0  2  0  0  0  0  0  0
   37.0230   25.0960   42.3770 C   0  0  0  0  0  2  0  0  0  0  0  0
  1 24  1  0  0  0  0
  2  7  1  0  0  0  0
  2  1  2  0  0  0  0
  3  2  1  0  0  0  0
  4  3  2  0  0  0  0
  4  5  1  0  0  0  0
  5  6  2  0  0  0  0
  6  1  1  0  0  0  0
  8  3  1  0  0  0  0
  9 18  1  0  0  0  0
 10  5  1  0  0  0  0
 10  9  2  0  0  0  0
 11 10  1  0  0  0  0
 12 11  2  0  0  0  0
 12 16  1  0  0  0  0
 13 14  1  0  0  0  0
 13 12  1  0  0  0  0
 14 15  2  0  0  0  0
 15 16  1  0  0  0  0
 15 22  1  0  0  0  0
 16 17  2  0  0  0  0
 17  9  1  0  0  0  0
 17 23  1  0  0  0  0
 19 11  1  0  0  0  0
 20 13  1  0  0  0  0
 21 14  1  0  0  0  0
 24 25  2  0  0  0  0
 26 24  1  0  0  0  0
 26 32  1  0  0  0  0
 27 26  1  0  0  0  0
 28 27  1  0  0  0  0
 28 29  1  0  0  0  0
 29 31  1  0  0  0  0
 30 29  1  0  0  0  0
 31 32  1  0  0  0  0
M  END
>  <minimizedAffinity>
-5.9453063

$$$$

 OpenBabel03252504013D

 32 35  0  0  0  0  0  0  0  0999 V2000
   38.4410   32.1380   40.5750 C   0  0  0  0  0  0  0  0  0  0  0  0
   37.1350   32.2560   40.0960 C   0  0  0  0  0  0  0  0  0  0  0  0
   36.2940   31.1580   40.2460 C   0  0  0  0  0  0  0  0  0  0  0  0
   36.7770   30.0410   40.8400 N   0  0  0  0  0  0  0  0  0  0  0  0
   38.0490   29.9680   41.2900 C   0  0  0  0  0  0  0  0  0  0  0  0
   38.8920   31.0220   41.1580 N   0  0  0  0  0  0  0  0  0  0  0  0
   36.7680   33.1680   39.6200 H   0  0  0  0  0  0  0  0  0  0  0  0
   35.2680   31.1620   39.9050 H   0  0  0  0  0  0  0  0  0  0  0  0
   38.1560   28.4550   43.2130 C   0  0  0  0  0  0  0  0  0  0  0  0
   38.5760   28.7570   41.9360 C   0  0  0  0  0  0  0  0  0  0  0  0
   39.4790   27.9230   41.2890 C   0  0  0  0  0  0  0  0  0  0  0  0
   39.9400   26.7980   41.9500 C   0  0  0  0  0  0  0  0  0  0  0  0
   40.7910   25.8230   41.6060 N   0  0  0  0  0  0  0  0  0  0  0  0
   40.9280   24.9290   42.5960 C   0  0  0  0  0  0  0  0  0  0  0  0
   40.1240   25.3340   43.6510 C   0  0  0  0  0  0  0  0  0  0  0  0
   39.5110   26.5010   43.2400 C   0  0  0  0  0  0  0  0  0  0  0  0
   38.6170   27.3340   43.8670 C   0  0  0  0  0  0  0  0  0  0  0  0
   37.4530   29.0570   43.7840 H   0  0  0  0  0  0  0  0  0  0  0  0
   39.8040   28.1640   40.2890 H   0  0  0  0  0  0  0  0  0  0  0  0
   41.2800   25.7870   40.6660 H   0  0  0  0  0  0  0  0  0  0  0  0
   41.5760   24.0680   42.5030 H   0  0  0  0  0  0  0  0  0  0  0  0
   40.0290   24.8030   44.5940 H   0  0  0  0  0  0  0  0  0  0  0  0
   38.3060   27.0670   44.8740 H   0  0  0  0  0  0  0  0  0  0  0  0
   39.2560   33.3190   40.3850 C   0  0  0  0  0  0  0  0  0  0  0  0
   39.0300   34.4560   40.9390 O   0  0  0  0  0  0  0  0  0  0  0  0
   40.3970   33.2310   39.5250 N   0  0  0  0  0  0  0  0  0  0  0  0
   40.5710   32.1210   38.6090 C   0  0  0  0  0  2  0  0  0  0  0  0
   42.0230   32.0370   38.1780 C   0  0  0  0  0  2  0  0  0  0  0  0
   42.3830   33.2940   37.4080 C   0  0  0  0  0  3  0  0  0  0  0  0
   41.8870   33.2280   36.4010 H   0  0  0  0  0  0  0  0  0  0  0  0
   41.8830   34.5360   38.0980 C   0  0  0  0  0  2  0  0  0  0  0  0
   41.4350   34.2420   39.5240 C   0  0  0  0  0  2  0  0  0  0  0  0
  1  6  1  0  0  0  0
  2  3  1  0  0  0  0
  2  1  2  0  0  0  0
  3  4  2  0  0  0  0
  4  5  1  0  0  0  0
  5 10  1  0  0  0  0
  6  5  2  0  0  0  0
  7  2  1  0  0  0  0
  8  3  1  0  0  0  0
  9 18  1  0  0  0  0
  9 17  1  0  0  0  0
 10  9  2  0  0  0  0
 11 10  1  0  0  0  0
 11 12  2  0  0  0  0
 12 16  1  0  0  0  0
 13 12  1  0  0  0  0
 13 14  1  0  0  0  0
 14 15  2  0  0  0  0
 15 22  1  0  0  0  0
 16 15  1  0  0  0  0
 16 17  2  0  0  0  0
 17 23  1  0  0  0  0
 19 11  1  0  0  0  0
 20 13  1  0  0  0  0
 21 14  1  0  0  0  0
 24  1  1  0  0  0  0
 24 25  2  0  0  0  0
 26 24  1  0  0  0  0
 27 26  1  0  0  0  0
 28 27  1  0  0  0  0
 29 31  1  0  0  0  0
 29 28  1  0  0  0  0
 30 29  1  0  0  0  0
 31 32  1  0  0  0  0
 32 26  1  0  0  0  0
M  END
>  <minimizedAffinity>
-5.91902304

$$$$

 OpenBabel03252504013D

 32 35  0  0  0  0  0  0  0  0999 V2000
   37.4310   29.2900   41.8380 C   0  0  0  0  0  0  0  0  0  0  0  0
   37.6870   29.2970   43.2100 C   0  0  0  0  0  0  0  0  0  0  0  0
   37.8080   28.0660   43.8470 C   0  0  0  0  0  0  0  0  0  0  0  0
   37.6730   26.9350   43.1150 N   0  0  0  0  0  0  0  0  0  0  0  0
   37.4260   26.9720   41.7880 C   0  0  0  0  0  0  0  0  0  0  0  0
   37.3030   28.1570   41.1390 N   0  0  0  0  0  0  0  0  0  0  0  0
   37.7920   30.2230   43.7790 H   0  0  0  0  0  0  0  0  0  0  0  0
   38.0060   27.9790   44.9070 H   0  0  0  0  0  0  0  0  0  0  0  0
   36.5760   25.8090   39.8070 C   0  0  0  0  0  0  0  0  0  0  0  0
   37.2800   25.7460   40.9900 C   0  0  0  0  0  0  0  0  0  0  0  0
   37.8320   24.5410   41.4030 C   0  0  0  0  0  0  0  0  0  0  0  0
   37.6610   23.4210   40.6090 C   0  0  0  0  0  0  0  0  0  0  0  0
   38.0600   22.1480   40.7280 N   0  0  0  0  0  0  0  0  0  0  0  0
   37.6450   21.4120   39.6860 C   0  0  0  0  0  0  0  0  0  0  0  0
   36.9340   22.2420   38.8330 C   0  0  0  0  0  0  0  0  0  0  0  0
   36.9480   23.4930   39.4160 C   0  0  0  0  0  0  0  0  0  0  0  0
   36.4070   24.6920   39.0190 C   0  0  0  0  0  0  0  0  0  0  0  0
   36.1150   26.7140   39.4170 H   0  0  0  0  0  0  0  0  0  0  0  0
   38.3830   24.4970   42.3300 H   0  0  0  0  0  0  0  0  0  0  0  0
   38.6300   21.7950   41.5500 H   0  0  0  0  0  0  0  0  0  0  0  0
   37.8720   20.3570   39.6060 H   0  0  0  0  0  0  0  0  0  0  0  0
   36.4750   21.9220   37.9020 H   0  0  0  0  0  0  0  0  0  0  0  0
   35.8580   24.7070   38.0810 H   0  0  0  0  0  0  0  0  0  0  0  0
   37.3180   30.6060   41.2440 C   0  0  0  0  0  0  0  0  0  0  0  0
   36.2060   31.1770   40.9490 O   0  0  0  0  0  0  0  0  0  0  0  0
   38.5170   31.3330   40.9610 N   0  0  0  0  0  0  0  0  0  0  0  0
   39.8120   30.6830   40.9490 C   0  0  0  0  0  2  0  0  0  0  0  0
   40.9080   31.7240   41.0810 C   0  0  0  0  0  2  0  0  0  0  0  0
   40.8710   32.6370   39.8700 C   0  0  0  0  0  3  0  0  0  0  0  0
   41.2720   32.0560   38.9950 H   0  0  0  0  0  0  0  0  0  0  0  0
   39.4670   33.0730   39.5390 C   0  0  0  0  0  2  0  0  0  0  0  0
   38.5010   32.7540   40.6740 C   0  0  0  0  0  2  0  0  0  0  0  0
  1  2  1  0  0  0  0
  2  7  1  0  0  0  0
  2  3  2  0  0  0  0
  3  8  1  0  0  0  0
  4  3  1  0  0  0  0
  5  4  2  0  0  0  0
  6  5  1  0  0  0  0
  6  1  2  0  0  0  0
  9 10  1  0  0  0  0
 10 11  2  0  0  0  0
 10  5  1  0  0  0  0
 11 19  1  0  0  0  0
 12 13  1  0  0  0  0
 12 11  1  0  0  0  0
 13 20  1  0  0  0  0
 14 13  1  0  0  0  0
 15 16  1  0  0  0  0
 15 14  2  0  0  0  0
 16 12  2  0  0  0  0
 17 16  1  0  0  0  0
 17  9  2  0  0  0  0
 18  9  1  0  0  0  0
 21 14  1  0  0  0  0
 22 15  1  0  0  0  0
 23 17  1  0  0  0  0
 24  1  1  0  0  0  0
 25 24  2  0  0  0  0
 26 24  1  0  0  0  0
 27 26  1  0  0  0  0
 27 28  1  0  0  0  0
 29 28  1  0  0  0  0
 30 29  1  0  0  0  0
 31 29  1  0  0  0  0
 31 32  1  0  0  0  0
 32 26  1  0  0  0  0
M  END
>  <minimizedAffinity>
-5.9092288

$$$$

 OpenBabel03252504013D

 32 35  0  0  0  0  0  0  0  0999 V2000
   36.6950   28.6540   41.5170 C   0  0  0  0  0  0  0  0  0  0  0  0
   35.5050   28.7330   40.7930 C   0  0  0  0  0  0  0  0  0  0  0  0
   35.3110   29.8560   39.9960 C   0  0  0  0  0  0  0  0  0  0  0  0
   36.2730   30.8080   39.9620 N   0  0  0  0  0  0  0  0  0  0  0  0
   37.4120   30.6940   40.6800 C   0  0  0  0  0  0  0  0  0  0  0  0
   37.6290   29.6100   41.4650 N   0  0  0  0  0  0  0  0  0  0  0  0
   34.7430   27.9510   40.8350 H   0  0  0  0  0  0  0  0  0  0  0  0
   34.4190   29.9980   39.4010 H   0  0  0  0  0  0  0  0  0  0  0  0
   38.0940   33.0270   40.3790 C   0  0  0  0  0  0  0  0  0  0  0  0
   38.4590   31.7250   40.6450 C   0  0  0  0  0  0  0  0  0  0  0  0
   39.7930   31.4130   40.8740 C   0  0  0  0  0  0  0  0  0  0  0  0
   40.7330   32.4280   40.8280 C   0  0  0  0  0  0  0  0  0  0  0  0
   42.0610   32.4500   40.9990 N   0  0  0  0  0  0  0  0  0  0  0  0
   42.5470   33.6920   40.8550 C   0  0  0  0  0  0  0  0  0  0  0  0
   41.4840   34.5350   40.5730 C   0  0  0  0  0  0  0  0  0  0  0  0
   40.3560   33.7400   40.5570 C   0  0  0  0  0  0  0  0  0  0  0  0
   39.0330   34.0340   40.3340 C   0  0  0  0  0  0  0  0  0  0  0  0
   37.0720   33.3490   40.1900 H   0  0  0  0  0  0  0  0  0  0  0  0
   40.0730   30.3930   41.0820 H   0  0  0  0  0  0  0  0  0  0  0  0
   42.6290   31.5820   41.2200 H   0  0  0  0  0  0  0  0  0  0  0  0
   43.6020   33.9070   40.9580 H   0  0  0  0  0  0  0  0  0  0  0  0
   41.5730   35.6050   40.4050 H   0  0  0  0  0  0  0  0  0  0  0  0
   38.7780   35.0710   40.1270 H   0  0  0  0  0  0  0  0  0  0  0  0
   36.8280   27.4580   42.3230 C   0  0  0  0  0  0  0  0  0  0  0  0
   36.5950   27.4020   43.5850 O   0  0  0  0  0  0  0  0  0  0  0  0
   37.2440   26.2470   41.6840 N   0  0  0  0  0  0  0  0  0  0  0  0
   37.8340   26.2530   40.3610 C   0  0  0  0  0  2  0  0  0  0  0  0
   37.7530   24.8620   39.7590 C   0  0  0  0  0  2  0  0  0  0  0  0
   38.5830   23.9110   40.5990 C   0  0  0  0  0  3  0  0  0  0  0  0
   39.6660   24.1370   40.3960 H   0  0  0  0  0  0  0  0  0  0  0  0
   38.3320   24.0990   42.0720 C   0  0  0  0  0  2  0  0  0  0  0  0
   37.0970   24.9550   42.3240 C   0  0  0  0  0  2  0  0  0  0  0  0
  1 24  1  0  0  0  0
  2  7  1  0  0  0  0
  2  1  2  0  0  0  0
  3  2  1  0  0  0  0
  4  3  2  0  0  0  0
  4  5  1  0  0  0  0
  5  6  2  0  0  0  0
  6  1  1  0  0  0  0
  8  3  1  0  0  0  0
  9 10  1  0  0  0  0
 10  5  1  0  0  0  0
 10 11  2  0  0  0  0
 11 19  1  0  0  0  0
 12 11  1  0  0  0  0
 12 13  1  0  0  0  0
 13 20  1  0  0  0  0
 14 21  1  0  0  0  0
 14 13  1  0  0  0  0
 15 14  2  0  0  0  0
 16 15  1  0  0  0  0
 16 12  2  0  0  0  0
 17  9  2  0  0  0  0
 17 16  1  0  0  0  0
 18  9  1  0  0  0  0
 22 15  1  0  0  0  0
 23 17  1  0  0  0  0
 24 25  2  0  0  0  0
 26 24  1  0  0  0  0
 26 32  1  0  0  0  0
 27 26  1  0  0  0  0
 28 27  1  0  0  0  0
 28 29  1  0  0  0  0
 29 31  1  0  0  0  0
 30 29  1  0  0  0  0
 31 32  1  0  0  0  0
M  END
>  <minimizedAffinity>
-5.89999294

$$$$
