
 OpenBabel03252507163D

 27 29  0  0  0  0  0  0  0  0999 V2000
   45.3340   36.2120   43.1900 C   0  0  0  0  0  0  0  0  0  0  0  0
   45.9140   34.9520   42.9490 C   0  0  0  0  0  0  0  0  0  0  0  0
   45.8230   33.9830   43.9220 C   0  0  0  0  0  0  0  0  0  0  0  0
   45.1840   34.2620   45.0700 N   0  0  0  0  0  0  0  0  0  0  0  0
   44.6210   35.4780   45.3090 C   0  0  0  0  0  0  0  0  0  0  0  0
   44.7090   36.4240   44.3650 N   0  0  0  0  0  0  0  0  0  0  0  0
   45.3910   37.0000   42.4380 H   0  0  0  0  0  0  0  0  0  0  0  0
   44.1070   35.6750   46.2570 H   0  0  0  0  0  0  0  0  0  0  0  0
   46.4290   32.6810   43.6610 C   0  0  0  0  0  0  0  0  0  0  0  0
   45.6490   31.6170   43.2760 C   0  0  0  0  0  0  0  0  0  0  0  0
   46.2540   30.4080   43.0390 C   0  0  0  0  0  0  0  0  0  0  0  0
   47.6160   30.1990   43.1660 C   0  0  0  0  0  0  0  0  0  0  0  0
   48.3490   31.3040   43.5550 C   0  0  0  0  0  0  0  0  0  0  0  0
   47.7430   32.4790   43.7830 N   0  0  0  0  0  0  0  0  0  0  0  0
   44.5810   31.6820   43.1510 H   0  0  0  0  0  0  0  0  0  0  0  0
   45.6920   29.5110   42.7290 H   0  0  0  0  0  0  0  0  0  0  0  0
   48.1410   29.2760   42.9940 H   0  0  0  0  0  0  0  0  0  0  0  0
   49.4300   31.3170   43.7030 H   0  0  0  0  0  0  0  0  0  0  0  0
   46.5790   34.7330   41.6960 C   0  0  0  0  0  0  0  0  0  0  0  0
   47.7910   35.1050   41.5820 O   0  0  0  0  0  0  0  0  0  0  0  0
   45.8390   34.1050   40.6330 N   0  0  0  0  0  0  0  0  0  0  0  0
   46.2770   33.4990   39.3910 C   0  0  0  0  0  2  0  0  0  0  0  0
   45.6980   32.0820   39.2770 C   0  0  0  0  0  2  0  0  0  0  0  0
   44.1890   32.1780   39.1760 C   0  0  0  0  0  3  0  0  0  0  0  0
   43.7210   31.3860   39.8080 H   0  0  0  0  0  0  0  0  0  0  0  0
   43.7340   33.5670   39.5690 C   0  0  0  0  0  2  0  0  0  0  0  0
   44.4010   34.0570   40.8130 C   0  0  0  0  0  2  0  0  0  0  0  0
  1  6  1  0  0  0  0
  2  1  2  0  0  0  0
  2  3  1  0  0  0  0
  3  4  2  0  0  0  0
  4  5  1  0  0  0  0
  5  8  1  0  0  0  0
  6  5  2  0  0  0  0
  7  1  1  0  0  0  0
  9 14  1  0  0  0  0
  9  3  1  0  0  0  0
 10  9  2  0  0  0  0
 11 12  2  0  0  0  0
 11 10  1  0  0  0  0
 12 13  1  0  0  0  0
 13 18  1  0  0  0  0
 13 14  2  0  0  0  0
 15 10  1  0  0  0  0
 16 11  1  0  0  0  0
 17 12  1  0  0  0  0
 19  2  1  0  0  0  0
 20 19  2  0  0  0  0
 21 27  1  0  0  0  0
 21 19  1  0  0  0  0
 22 21  1  0  0  0  0
 23 22  1  0  0  0  0
 24 23  1  0  0  0  0
 24 26  1  0  0  0  0
 24 25  1  0  0  0  0
 26 27  1  0  0  0  0
M  END
>  <minimizedAffinity>
-4.51036596

>  <minimizedRMSD>
0.145927966

$$$$
