
 OpenBabel03252507163D

 27 29  0  0  0  0  0  0  0  0999 V2000
   44.3270   35.6700   43.5690 C   0  0  0  0  0  0  0  0  0  0  0  0
   44.8340   34.5340   42.9110 C   0  0  0  0  0  0  0  0  0  0  0  0
   45.4200   33.5390   43.6610 C   0  0  0  0  0  0  0  0  0  0  0  0
   45.4930   33.6780   44.9940 N   0  0  0  0  0  0  0  0  0  0  0  0
   45.0050   34.7750   45.6370 C   0  0  0  0  0  0  0  0  0  0  0  0
   44.4340   35.7450   44.9100 N   0  0  0  0  0  0  0  0  0  0  0  0
   43.8580   36.4750   43.0010 H   0  0  0  0  0  0  0  0  0  0  0  0
   45.0800   34.8580   46.7270 H   0  0  0  0  0  0  0  0  0  0  0  0
   45.9410   32.3660   42.9670 C   0  0  0  0  0  0  0  0  0  0  0  0
   45.1280   31.2850   42.7240 C   0  0  0  0  0  0  0  0  0  0  0  0
   45.6530   30.1990   42.0690 C   0  0  0  0  0  0  0  0  0  0  0  0
   46.9660   30.1310   41.6350 C   0  0  0  0  0  0  0  0  0  0  0  0
   47.7350   31.2460   41.9070 C   0  0  0  0  0  0  0  0  0  0  0  0
   47.2070   32.3000   42.5480 N   0  0  0  0  0  0  0  0  0  0  0  0
   44.0940   31.2440   43.0230 H   0  0  0  0  0  0  0  0  0  0  0  0
   45.0610   29.2970   41.8400 H   0  0  0  0  0  0  0  0  0  0  0  0
   47.4280   29.3090   41.1200 H   0  0  0  0  0  0  0  0  0  0  0  0
   48.7860   31.3620   41.6370 H   0  0  0  0  0  0  0  0  0  0  0  0
   44.7170   34.4610   41.4820 C   0  0  0  0  0  0  0  0  0  0  0  0
   45.7840   34.4670   40.7880 O   0  0  0  0  0  0  0  0  0  0  0  0
   43.3980   34.3860   40.9090 N   0  0  0  0  0  0  0  0  0  0  0  0
   42.7050   35.2610   39.9850 C   0  0  0  0  0  2  0  0  0  0  0  0
   42.1740   34.4450   38.8010 C   0  0  0  0  0  2  0  0  0  0  0  0
   41.1260   33.4730   39.3070 C   0  0  0  0  0  3  0  0  0  0  0  0
   41.2660   32.4820   38.8150 H   0  0  0  0  0  0  0  0  0  0  0  0
   41.2000   33.3780   40.8170 C   0  0  0  0  0  2  0  0  0  0  0  0
   42.6030   33.2410   41.3130 C   0  0  0  0  0  2  0  0  0  0  0  0
  1  6  1  0  0  0  0
  2  1  2  0  0  0  0
  2  3  1  0  0  0  0
  3  4  2  0  0  0  0
  4  5  1  0  0  0  0
  5  8  1  0  0  0  0
  6  5  2  0  0  0  0
  7  1  1  0  0  0  0
  9  3  1  0  0  0  0
 10  9  1  0  0  0  0
 10 15  1  0  0  0  0
 11 10  2  0  0  0  0
 12 13  2  0  0  0  0
 12 11  1  0  0  0  0
 13 14  1  0  0  0  0
 14  9  2  0  0  0  0
 16 11  1  0  0  0  0
 17 12  1  0  0  0  0
 18 13  1  0  0  0  0
 19  2  1  0  0  0  0
 20 19  2  0  0  0  0
 21 27  1  0  0  0  0
 21 19  1  0  0  0  0
 22 21  1  0  0  0  0
 23 24  1  0  0  0  0
 23 22  1  0  0  0  0
 24 26  1  0  0  0  0
 25 24  1  0  0  0  0
 26 27  1  0  0  0  0
M  END
>  <minimizedAffinity>
-4.42832375

>  <minimizedRMSD>
2.11474562

$$$$
