
 OpenBabel03252508013D

 27 29  0  0  1  0  0  0  0  0999 V2000
   37.5640   30.6040   40.1480 C   0  0  0  0  0  0  0  0  0  0  0  0
   36.9490   31.8740   40.3470 C   0  0  0  0  0  0  0  0  0  0  0  0
   37.7180   32.9820   40.0040 C   0  0  0  0  0  0  0  0  0  0  0  0
   38.9710   32.7860   39.5140 N   0  0  0  0  0  0  0  0  0  0  0  0
   39.4960   31.5390   39.3490 C   0  0  0  0  0  0  0  0  0  0  0  0
   38.8230   30.4470   39.6540 N   0  0  0  0  0  0  0  0  0  0  0  0
   35.9450   31.9190   40.7450 H   0  0  0  0  0  0  0  0  0  0  0  0
   37.2900   33.9630   40.1400 H   0  0  0  0  0  0  0  0  0  0  0  0
   36.7510   29.4560   40.4940 C   0  0  0  0  0  0  0  0  0  0  0  0
   35.7380   29.0820   39.8060 O   0  0  0  0  0  0  0  0  0  0  0  0
   37.1360   28.7330   41.6730 N   0  0  0  0  0  0  0  0  0  0  0  0
   37.7960   29.2950   42.8550 C   0  0  0  0  0  2  0  0  0  0  0  0
   39.1210   28.5800   42.9880 C   0  0  0  0  0  2  0  0  0  0  0  0
   38.8880   27.1130   43.1950 C   0  0  0  0  0  3  0  0  0  0  0  0
   39.1000   26.8710   44.2770 H   0  0  0  0  0  0  0  0  0  0  0  0
   37.4730   26.6940   42.9500 C   0  0  0  0  0  2  0  0  0  0  0  0
   36.8520   27.2930   41.7250 C   0  0  0  0  0  2  0  0  0  0  0  0
   40.8770   31.4200   38.7920 C   0  0  1  0  0  0  0  0  0  0  0  0
   41.1170   30.5010   37.6160 C   0  0  0  0  0  0  0  0  0  0  0  0
   41.0480   31.9910   37.4400 C   0  0  1  0  0  0  0  0  0  0  0  0
   41.6620   31.4990   39.5490 H   0  0  0  0  0  0  0  0  0  0  0  0
   42.1340   30.0620   37.5920 H   0  0  0  0  0  0  0  0  0  0  0  0
   40.2730   29.8590   37.3650 H   0  0  0  0  0  0  0  0  0  0  0  0
   41.9840   32.5080   37.1670 H   0  0  0  0  0  0  0  0  0  0  0  0
   39.8620   32.3960   36.6770 N   0  0  0  0  0  0  0  0  0  0  0  0
   39.2260   31.5980   36.4630 H   0  0  0  0  0  0  0  0  0  0  0  0
   40.1680   32.8200   35.7950 H   0  0  0  0  0  0  0  0  0  0  0  0
  1  2  1  0  0  0  0
  1  9  1  0  0  0  0
  2  7  1  0  0  0  0
  3  8  1  0  0  0  0
  3  2  2  0  0  0  0
  4  3  1  0  0  0  0
  5  4  2  0  0  0  0
  5  6  1  0  0  0  0
  6  1  2  0  0  0  0
  9 11  1  0  0  0  0
 10  9  2  0  0  0  0
 11 17  1  0  0  0  0
 11 12  1  0  0  0  0
 12 13  1  0  0  0  0
 13 14  1  0  0  0  0
 14 15  1  0  0  0  0
 16 14  1  0  0  0  0
 17 16  1  0  0  0  0
 18  5  1  0  0  0  0
 18 21  1  1  0  0  0
 19 18  1  0  0  0  0
 20 24  1  6  0  0  0
 20 19  1  0  0  0  0
 20 18  1  0  0  0  0
 22 19  1  0  0  0  0
 23 19  1  0  0  0  0
 25 20  1  0  0  0  0
 26 25  1  0  0  0  0
 27 25  1  0  0  0  0
M  END
>  <minimizedAffinity>
-5.25700712

$$$$

 OpenBabel03252508013D

 27 29  0  0  1  0  0  0  0  0999 V2000
   37.8660   28.4660   42.1820 C   0  0  0  0  0  0  0  0  0  0  0  0
   38.6880   29.1630   43.1150 C   0  0  0  0  0  0  0  0  0  0  0  0
   39.2540   30.3500   42.6570 C   0  0  0  0  0  0  0  0  0  0  0  0
   38.9910   30.7560   41.3860 N   0  0  0  0  0  0  0  0  0  0  0  0
   38.1920   30.0360   40.5480 C   0  0  0  0  0  0  0  0  0  0  0  0
   37.6250   28.9050   40.9150 N   0  0  0  0  0  0  0  0  0  0  0  0
   38.8330   28.7520   44.1040 H   0  0  0  0  0  0  0  0  0  0  0  0
   39.8840   30.9090   43.3310 H   0  0  0  0  0  0  0  0  0  0  0  0
   37.2700   27.2390   42.6710 C   0  0  0  0  0  0  0  0  0  0  0  0
   36.2760   27.2170   43.4790 O   0  0  0  0  0  0  0  0  0  0  0  0
   37.8540   26.0150   42.2030 N   0  0  0  0  0  0  0  0  0  0  0  0
   39.2560   25.8130   41.8270 C   0  0  0  0  0  2  0  0  0  0  0  0
   39.2570   25.4050   40.3720 C   0  0  0  0  0  2  0  0  0  0  0  0
   38.5050   24.1170   40.2070 C   0  0  0  0  0  3  0  0  0  0  0  0
   39.2530   23.2920   40.0280 H   0  0  0  0  0  0  0  0  0  0  0  0
   37.7330   23.7170   41.4240 C   0  0  0  0  0  2  0  0  0  0  0  0
   36.9850   24.8380   42.0800 C   0  0  0  0  0  2  0  0  0  0  0  0
   37.9510   30.5660   39.1730 C   0  0  1  0  0  0  0  0  0  0  0  0
   36.5290   30.6980   38.6770 C   0  0  0  0  0  0  0  0  0  0  0  0
   37.3110   31.8980   39.1280 C   0  0  1  0  0  0  0  0  0  0  0  0
   38.7200   30.2790   38.4510 H   0  0  0  0  0  0  0  0  0  0  0  0
   36.4250   30.5790   37.5800 H   0  0  0  0  0  0  0  0  0  0  0  0
   35.7820   30.2320   39.3180 H   0  0  0  0  0  0  0  0  0  0  0  0
   37.5990   32.6310   38.3540 H   0  0  0  0  0  0  0  0  0  0  0  0
   36.7650   32.4730   40.3630 N   0  0  0  0  0  0  0  0  0  0  0  0
   35.9870   31.9060   40.7640 H   0  0  0  0  0  0  0  0  0  0  0  0
   36.4160   33.4150   40.1600 H   0  0  0  0  0  0  0  0  0  0  0  0
  1  9  1  0  0  0  0
  1  2  1  0  0  0  0
  2  7  1  0  0  0  0
  3  2  2  0  0  0  0
  3  8  1  0  0  0  0
  4  3  1  0  0  0  0
  5  6  1  0  0  0  0
  5  4  2  0  0  0  0
  6  1  2  0  0  0  0
  9 10  2  0  0  0  0
 11  9  1  0  0  0  0
 12 11  1  0  0  0  0
 13 12  1  0  0  0  0
 14 13  1  0  0  0  0
 14 16  1  0  0  0  0
 15 14  1  0  0  0  0
 16 17  1  0  0  0  0
 17 11  1  0  0  0  0
 18 21  1  6  0  0  0
 18  5  1  0  0  0  0
 19 20  1  0  0  0  0
 19 18  1  0  0  0  0
 19 23  1  0  0  0  0
 20 24  1  6  0  0  0
 20 18  1  0  0  0  0
 20 25  1  0  0  0  0
 22 19  1  0  0  0  0
 25 26  1  0  0  0  0
 27 25  1  0  0  0  0
M  END
>  <minimizedAffinity>
-5.2321763

$$$$

 OpenBabel03252508013D

 27 29  0  0  1  0  0  0  0  0999 V2000
   37.5240   26.7860   41.8470 C   0  0  0  0  0  0  0  0  0  0  0  0
   37.2610   26.9750   43.2340 C   0  0  0  0  0  0  0  0  0  0  0  0
   37.2650   28.2950   43.6800 C   0  0  0  0  0  0  0  0  0  0  0  0
   37.5120   29.2890   42.7860 N   0  0  0  0  0  0  0  0  0  0  0  0
   37.7560   29.0330   41.4690 C   0  0  0  0  0  0  0  0  0  0  0  0
   37.7680   27.8090   40.9810 N   0  0  0  0  0  0  0  0  0  0  0  0
   37.0770   26.1140   43.8610 H   0  0  0  0  0  0  0  0  0  0  0  0
   37.0710   28.4820   44.7250 H   0  0  0  0  0  0  0  0  0  0  0  0
   37.5040   25.4120   41.3900 C   0  0  0  0  0  0  0  0  0  0  0  0
   37.8200   24.4210   42.1360 O   0  0  0  0  0  0  0  0  0  0  0  0
   37.1040   25.1980   40.0280 N   0  0  0  0  0  0  0  0  0  0  0  0
   37.3000   26.1270   38.9120 C   0  0  0  0  0  2  0  0  0  0  0  0
   35.9240   26.4740   38.3940 C   0  0  0  0  0  2  0  0  0  0  0  0
   35.2420   25.2330   37.8970 C   0  0  0  0  0  3  0  0  0  0  0  0
   35.2390   25.2590   36.7690 H   0  0  0  0  0  0  0  0  0  0  0  0
   35.9490   23.9720   38.2780 C   0  0  0  0  0  2  0  0  0  0  0  0
   36.4320   23.9350   39.6960 C   0  0  0  0  0  2  0  0  0  0  0  0
   38.0060   30.1900   40.5580 C   0  0  1  0  0  0  0  0  0  0  0  0
   37.1290   30.3670   39.3400 C   0  0  0  0  0  0  0  0  0  0  0  0
   36.9450   31.2200   40.5630 C   0  0  1  0  0  0  0  0  0  0  0  0
   39.0620   30.4600   40.4720 H   0  0  0  0  0  0  0  0  0  0  0  0
   37.6400   30.8560   38.4870 H   0  0  0  0  0  0  0  0  0  0  0  0
   36.4710   29.5240   39.1300 H   0  0  0  0  0  0  0  0  0  0  0  0
   37.2040   32.2890   40.4730 H   0  0  0  0  0  0  0  0  0  0  0  0
   35.6740   30.9360   41.2390 N   0  0  0  0  0  0  0  0  0  0  0  0
   35.1570   30.1380   40.8130 H   0  0  0  0  0  0  0  0  0  0  0  0
   35.0840   31.7740   41.1940 H   0  0  0  0  0  0  0  0  0  0  0  0
  1  2  1  0  0  0  0
  2  3  2  0  0  0  0
  2  7  1  0  0  0  0
  3  8  1  0  0  0  0
  4  3  1  0  0  0  0
  5  4  2  0  0  0  0
  6  5  1  0  0  0  0
  6  1  2  0  0  0  0
  9  1  1  0  0  0  0
  9 10  2  0  0  0  0
 11  9  1  0  0  0  0
 12 11  1  0  0  0  0
 13 12  1  0  0  0  0
 14 16  1  0  0  0  0
 14 13  1  0  0  0  0
 15 14  1  0  0  0  0
 16 17  1  0  0  0  0
 17 11  1  0  0  0  0
 18 21  1  6  0  0  0
 18 20  1  0  0  0  0
 18  5  1  0  0  0  0
 19 18  1  0  0  0  0
 19 20  1  0  0  0  0
 20 24  1  6  0  0  0
 20 25  1  0  0  0  0
 22 19  1  0  0  0  0
 23 19  1  0  0  0  0
 26 25  1  0  0  0  0
 27 25  1  0  0  0  0
M  END
>  <minimizedAffinity>
-5.08462572

$$$$

 OpenBabel03252508013D

 27 29  0  0  1  0  0  0  0  0999 V2000
   37.8270   29.6260   39.4620 C   0  0  0  0  0  0  0  0  0  0  0  0
   36.5790   30.2320   39.1400 C   0  0  0  0  0  0  0  0  0  0  0  0
   35.4660   29.7250   39.8060 C   0  0  0  0  0  0  0  0  0  0  0  0
   35.6400   28.7130   40.6970 N   0  0  0  0  0  0  0  0  0  0  0  0
   36.8670   28.1800   40.9570 C   0  0  0  0  0  0  0  0  0  0  0  0
   37.9610   28.6120   40.3620 N   0  0  0  0  0  0  0  0  0  0  0  0
   36.5510   31.0330   38.4150 H   0  0  0  0  0  0  0  0  0  0  0  0
   34.5010   30.1560   39.5910 H   0  0  0  0  0  0  0  0  0  0  0  0
   38.9810   30.1690   38.7750 C   0  0  0  0  0  0  0  0  0  0  0  0
   39.4920   29.6310   37.7320 O   0  0  0  0  0  0  0  0  0  0  0  0
   39.5450   31.3690   39.3240 N   0  0  0  0  0  0  0  0  0  0  0  0
   39.5300   31.7650   40.7360 C   0  0  0  0  0  2  0  0  0  0  0  0
   38.7750   33.0710   40.8080 C   0  0  0  0  0  2  0  0  0  0  0  0
   39.4910   34.1160   40.0040 C   0  0  0  0  0  3  0  0  0  0  0  0
   39.9970   34.8260   40.7190 H   0  0  0  0  0  0  0  0  0  0  0  0
   40.5750   33.5610   39.1360 C   0  0  0  0  0  2  0  0  0  0  0  0
   40.2040   32.3060   38.4060 C   0  0  0  0  0  2  0  0  0  0  0  0
   36.9630   27.0780   41.9600 C   0  0  1  0  0  0  0  0  0  0  0  0
   38.1870   26.9940   42.8430 C   0  0  0  0  0  0  0  0  0  0  0  0
   36.8810   27.5170   43.3690 C   0  0  1  0  0  0  0  0  0  0  0  0
   36.5060   26.1420   41.6280 H   0  0  0  0  0  0  0  0  0  0  0  0
   38.4470   25.9610   43.1500 H   0  0  0  0  0  0  0  0  0  0  0  0
   38.9960   27.6660   42.5590 H   0  0  0  0  0  0  0  0  0  0  0  0
   36.3570   26.8980   44.1180 H   0  0  0  0  0  0  0  0  0  0  0  0
   36.9520   28.9500   43.6790 N   0  0  0  0  0  0  0  0  0  0  0  0
   37.8620   29.3790   43.4020 H   0  0  0  0  0  0  0  0  0  0  0  0
   36.8220   29.0750   44.6880 H   0  0  0  0  0  0  0  0  0  0  0  0
  1  6  1  0  0  0  0
  2  1  2  0  0  0  0
  2  3  1  0  0  0  0
  3  4  2  0  0  0  0
  4  5  1  0  0  0  0
  5 18  1  0  0  0  0
  6  5  2  0  0  0  0
  7  2  1  0  0  0  0
  8  3  1  0  0  0  0
  9 11  1  0  0  0  0
  9  1  1  0  0  0  0
 10  9  2  0  0  0  0
 11 12  1  0  0  0  0
 12 13  1  0  0  0  0
 14 15  1  0  0  0  0
 14 13  1  0  0  0  0
 16 14  1  0  0  0  0
 17 16  1  0  0  0  0
 17 11  1  0  0  0  0
 18 21  1  6  0  0  0
 18 19  1  0  0  0  0
 18 20  1  0  0  0  0
 19 22  1  0  0  0  0
 19 20  1  0  0  0  0
 20 25  1  0  0  0  0
 20 24  1  1  0  0  0
 23 19  1  0  0  0  0
 25 27  1  0  0  0  0
 26 25  1  0  0  0  0
M  END
>  <minimizedAffinity>
-5.07706738

$$$$

 OpenBabel03252508013D

 27 29  0  0  1  0  0  0  0  0999 V2000
   38.0780   28.6540   42.2780 C   0  0  0  0  0  0  0  0  0  0  0  0
   37.3280   28.5290   43.4840 C   0  0  0  0  0  0  0  0  0  0  0  0
   36.6910   27.3070   43.6800 C   0  0  0  0  0  0  0  0  0  0  0  0
   36.8220   26.3390   42.7350 N   0  0  0  0  0  0  0  0  0  0  0  0
   37.5570   26.5280   41.6020 C   0  0  0  0  0  0  0  0  0  0  0  0
   38.1870   27.6590   41.3540 N   0  0  0  0  0  0  0  0  0  0  0  0
   37.2880   29.3630   44.1710 H   0  0  0  0  0  0  0  0  0  0  0  0
   36.1110   27.1710   44.5800 H   0  0  0  0  0  0  0  0  0  0  0  0
   38.7500   29.9230   42.0900 C   0  0  0  0  0  0  0  0  0  0  0  0
   39.8500   30.2260   42.6700 O   0  0  0  0  0  0  0  0  0  0  0  0
   38.1150   30.8550   41.2020 N   0  0  0  0  0  0  0  0  0  0  0  0
   36.6750   30.9730   40.9550 C   0  0  0  0  0  2  0  0  0  0  0  0
   36.4680   30.6980   39.4840 C   0  0  0  0  0  2  0  0  0  0  0  0
   37.2000   31.7230   38.6680 C   0  0  0  0  0  3  0  0  0  0  0  0
   36.4420   32.4370   38.2360 H   0  0  0  0  0  0  0  0  0  0  0  0
   38.1440   32.5600   39.4710 C   0  0  0  0  0  2  0  0  0  0  0  0
   38.9680   31.7910   40.4580 C   0  0  0  0  0  2  0  0  0  0  0  0
   37.6550   25.4030   40.6250 C   0  0  1  0  0  0  0  0  0  0  0  0
   39.0200   24.8790   40.2440 C   0  0  0  0  0  0  0  0  0  0  0  0
   38.1350   24.1280   41.1970 C   0  0  1  0  0  0  0  0  0  0  0  0
   36.8810   25.4260   39.8530 H   0  0  0  0  0  0  0  0  0  0  0  0
   39.0710   24.4700   39.2150 H   0  0  0  0  0  0  0  0  0  0  0  0
   39.8520   25.4860   40.5980 H   0  0  0  0  0  0  0  0  0  0  0  0
   37.7210   23.1670   40.8470 H   0  0  0  0  0  0  0  0  0  0  0  0
   38.6860   24.1160   42.5570 N   0  0  0  0  0  0  0  0  0  0  0  0
   39.5460   24.6980   42.6520 H   0  0  0  0  0  0  0  0  0  0  0  0
   38.9130   23.1480   42.8110 H   0  0  0  0  0  0  0  0  0  0  0  0
  1  2  1  0  0  0  0
  2  3  2  0  0  0  0
  2  7  1  0  0  0  0
  3  8  1  0  0  0  0
  4  3  1  0  0  0  0
  5  4  2  0  0  0  0
  6  5  1  0  0  0  0
  6  1  2  0  0  0  0
  9  1  1  0  0  0  0
  9 10  2  0  0  0  0
 11  9  1  0  0  0  0
 12 11  1  0  0  0  0
 13 12  1  0  0  0  0
 14 16  1  0  0  0  0
 14 13  1  0  0  0  0
 15 14  1  0  0  0  0
 16 17  1  0  0  0  0
 17 11  1  0  0  0  0
 18 21  1  6  0  0  0
 18 20  1  0  0  0  0
 18  5  1  0  0  0  0
 19 23  1  0  0  0  0
 19 18  1  0  0  0  0
 19 20  1  0  0  0  0
 20 24  1  6  0  0  0
 20 25  1  0  0  0  0
 22 19  1  0  0  0  0
 25 26  1  0  0  0  0
 25 27  1  0  0  0  0
M  END
>  <minimizedAffinity>
-4.97064972

$$$$

 OpenBabel03252508013D

 27 29  0  0  1  0  0  0  0  0999 V2000
   37.6780   26.8470   41.9050 C   0  0  0  0  0  0  0  0  0  0  0  0
   38.0790   27.3290   43.1840 C   0  0  0  0  0  0  0  0  0  0  0  0
   38.2570   28.7070   43.2860 C   0  0  0  0  0  0  0  0  0  0  0  0
   38.0390   29.4800   42.1890 N   0  0  0  0  0  0  0  0  0  0  0  0
   37.6550   28.9480   40.9940 C   0  0  0  0  0  0  0  0  0  0  0  0
   37.4690   27.6540   40.8270 N   0  0  0  0  0  0  0  0  0  0  0  0
   38.2260   26.6270   43.9930 H   0  0  0  0  0  0  0  0  0  0  0  0
   38.5610   29.1140   44.2380 H   0  0  0  0  0  0  0  0  0  0  0  0
   37.4820   25.4150   41.8120 C   0  0  0  0  0  0  0  0  0  0  0  0
   36.5330   24.7970   42.4100 O   0  0  0  0  0  0  0  0  0  0  0  0
   38.4210   24.6930   41.0000 N   0  0  0  0  0  0  0  0  0  0  0  0
   39.8220   25.0560   40.7680 C   0  0  0  0  0  2  0  0  0  0  0  0
   39.9670   25.2800   39.2810 C   0  0  0  0  0  2  0  0  0  0  0  0
   39.6500   24.0120   38.5440 C   0  0  0  0  0  3  0  0  0  0  0  0
   40.6180   23.5700   38.1700 H   0  0  0  0  0  0  0  0  0  0  0  0
   39.0230   22.9630   39.4050 C   0  0  0  0  0  2  0  0  0  0  0  0
   37.9580   23.4730   40.3280 C   0  0  0  0  0  2  0  0  0  0  0  0
   37.4280   29.8760   39.8460 C   0  0  1  0  0  0  0  0  0  0  0  0
   36.0800   29.8820   39.1620 C   0  0  0  0  0  0  0  0  0  0  0  0
   36.4730   30.9720   40.1180 C   0  0  1  0  0  0  0  0  0  0  0  0
   38.3160   30.0340   39.2290 H   0  0  0  0  0  0  0  0  0  0  0  0
   36.1250   30.1480   38.0870 H   0  0  0  0  0  0  0  0  0  0  0  0
   35.4170   29.0720   39.4650 H   0  0  0  0  0  0  0  0  0  0  0  0
   36.6400   31.9760   39.6930 H   0  0  0  0  0  0  0  0  0  0  0  0
   35.6720   30.9360   41.3460 N   0  0  0  0  0  0  0  0  0  0  0  0
   35.0300   30.1150   41.3880 H   0  0  0  0  0  0  0  0  0  0  0  0
   35.1130   31.7940   41.3990 H   0  0  0  0  0  0  0  0  0  0  0  0
  1  2  1  0  0  0  0
  2  3  2  0  0  0  0
  2  7  1  0  0  0  0
  3  8  1  0  0  0  0
  4  3  1  0  0  0  0
  5  4  2  0  0  0  0
  6  5  1  0  0  0  0
  6  1  2  0  0  0  0
  9  1  1  0  0  0  0
  9 10  2  0  0  0  0
 11  9  1  0  0  0  0
 12 11  1  0  0  0  0
 13 12  1  0  0  0  0
 14 13  1  0  0  0  0
 14 16  1  0  0  0  0
 15 14  1  0  0  0  0
 16 17  1  0  0  0  0
 17 11  1  0  0  0  0
 18 21  1  6  0  0  0
 18 20  1  0  0  0  0
 18  5  1  0  0  0  0
 19 23  1  0  0  0  0
 19 18  1  0  0  0  0
 19 20  1  0  0  0  0
 20 24  1  6  0  0  0
 20 25  1  0  0  0  0
 22 19  1  0  0  0  0
 25 26  1  0  0  0  0
 25 27  1  0  0  0  0
M  END
>  <minimizedAffinity>
-4.92690229

$$$$

 OpenBabel03252508013D

 27 29  0  0  1  0  0  0  0  0999 V2000
   37.4590   28.5900   40.9580 C   0  0  0  0  0  0  0  0  0  0  0  0
   36.2080   29.2460   41.1470 C   0  0  0  0  0  0  0  0  0  0  0  0
   36.2270   30.6340   41.0380 C   0  0  0  0  0  0  0  0  0  0  0  0
   37.4050   31.2550   40.7650 N   0  0  0  0  0  0  0  0  0  0  0  0
   38.5670   30.5620   40.5960 C   0  0  0  0  0  0  0  0  0  0  0  0
   38.6210   29.2480   40.6860 N   0  0  0  0  0  0  0  0  0  0  0  0
   35.3280   28.6560   41.3610 H   0  0  0  0  0  0  0  0  0  0  0  0
   35.3010   31.1700   41.1750 H   0  0  0  0  0  0  0  0  0  0  0  0
   37.4280   27.1460   41.0590 C   0  0  0  0  0  0  0  0  0  0  0  0
   36.7980   26.3990   40.2310 O   0  0  0  0  0  0  0  0  0  0  0  0
   38.1500   26.5660   42.1560 N   0  0  0  0  0  0  0  0  0  0  0  0
   38.3820   27.1860   43.4630 C   0  0  0  0  0  2  0  0  0  0  0  0
   39.8800   27.3100   43.6200 C   0  0  0  0  0  2  0  0  0  0  0  0
   40.5070   25.9480   43.5950 C   0  0  0  0  0  3  0  0  0  0  0  0
   40.8180   25.6830   44.6460 H   0  0  0  0  0  0  0  0  0  0  0  0
   39.5690   24.8680   43.1580 C   0  0  0  0  0  2  0  0  0  0  0  0
   38.7200   25.2250   41.9760 C   0  0  0  0  0  2  0  0  0  0  0  0
   39.8110   31.3290   40.2880 C   0  0  1  0  0  0  0  0  0  0  0  0
   39.9310   32.7570   40.7690 C   0  0  0  0  0  0  0  0  0  0  0  0
   40.6530   31.6370   41.4630 C   0  0  1  0  0  0  0  0  0  0  0  0
   40.2520   31.0760   39.3200 H   0  0  0  0  0  0  0  0  0  0  0  0
   40.5560   33.3980   40.1160 H   0  0  0  0  0  0  0  0  0  0  0  0
   39.0100   33.1760   41.1730 H   0  0  0  0  0  0  0  0  0  0  0  0
   41.7540   31.6220   41.3800 H   0  0  0  0  0  0  0  0  0  0  0  0
   40.1210   31.3960   42.8090 N   0  0  0  0  0  0  0  0  0  0  0  0
   39.2830   31.9770   43.0230 H   0  0  0  0  0  0  0  0  0  0  0  0
   40.8540   31.6080   43.4940 H   0  0  0  0  0  0  0  0  0  0  0  0
  1  9  1  0  0  0  0
  1  2  1  0  0  0  0
  2  7  1  0  0  0  0
  3  2  2  0  0  0  0
  3  8  1  0  0  0  0
  4  3  1  0  0  0  0
  5  6  1  0  0  0  0
  5  4  2  0  0  0  0
  6  1  2  0  0  0  0
  9 11  1  0  0  0  0
 10  9  2  0  0  0  0
 11 12  1  0  0  0  0
 12 13  1  0  0  0  0
 14 13  1  0  0  0  0
 14 15  1  0  0  0  0
 16 14  1  0  0  0  0
 17 11  1  0  0  0  0
 17 16  1  0  0  0  0
 18 21  1  6  0  0  0
 18  5  1  0  0  0  0
 18 19  1  0  0  0  0
 18 20  1  0  0  0  0
 19 23  1  0  0  0  0
 19 20  1  0  0  0  0
 20 24  1  6  0  0  0
 20 25  1  0  0  0  0
 22 19  1  0  0  0  0
 25 26  1  0  0  0  0
 25 27  1  0  0  0  0
M  END
>  <minimizedAffinity>
-4.90246773

$$$$

 OpenBabel03252508013D

 27 29  0  0  1  0  0  0  0  0999 V2000
   37.7600   28.9780   41.3410 C   0  0  0  0  0  0  0  0  0  0  0  0
   36.3510   28.7730   41.4110 C   0  0  0  0  0  0  0  0  0  0  0  0
   35.5670   29.6960   40.7240 C   0  0  0  0  0  0  0  0  0  0  0  0
   36.1800   30.7050   40.0480 N   0  0  0  0  0  0  0  0  0  0  0  0
   37.5370   30.8390   40.0240 C   0  0  0  0  0  0  0  0  0  0  0  0
   38.3380   30.0020   40.6520 N   0  0  0  0  0  0  0  0  0  0  0  0
   35.9660   27.9370   41.9780 H   0  0  0  0  0  0  0  0  0  0  0  0
   34.4950   29.5780   40.7520 H   0  0  0  0  0  0  0  0  0  0  0  0
   38.5680   28.0050   42.0460 C   0  0  0  0  0  0  0  0  0  0  0  0
   39.3440   28.3120   43.0180 O   0  0  0  0  0  0  0  0  0  0  0  0
   38.4620   26.6440   41.6020 N   0  0  0  0  0  0  0  0  0  0  0  0
   38.1650   26.2010   40.2370 C   0  0  0  0  0  2  0  0  0  0  0  0
   36.8820   25.4070   40.3120 C   0  0  0  0  0  2  0  0  0  0  0  0
   37.0770   24.2100   41.1960 C   0  0  0  0  0  3  0  0  0  0  0  0
   37.1400   23.2940   40.5400 H   0  0  0  0  0  0  0  0  0  0  0  0
   38.3530   24.2470   41.9750 C   0  0  0  0  0  2  0  0  0  0  0  0
   38.6660   25.5770   42.5890 C   0  0  0  0  0  2  0  0  0  0  0  0
   38.1220   31.9710   39.2460 C   0  0  1  0  0  0  0  0  0  0  0  0
   37.7250   33.3870   39.5980 C   0  0  0  0  0  0  0  0  0  0  0  0
   39.0570   32.8260   40.0080 C   0  0  1  0  0  0  0  0  0  0  0  0
   38.2950   31.7350   38.1930 H   0  0  0  0  0  0  0  0  0  0  0  0
   37.7430   34.0840   38.7360 H   0  0  0  0  0  0  0  0  0  0  0  0
   36.8980   33.4610   40.3030 H   0  0  0  0  0  0  0  0  0  0  0  0
   39.9510   33.2490   39.5190 H   0  0  0  0  0  0  0  0  0  0  0  0
   39.1550   32.6620   41.4620 N   0  0  0  0  0  0  0  0  0  0  0  0
   38.2620   32.8760   41.9560 H   0  0  0  0  0  0  0  0  0  0  0  0
   39.8860   33.2880   41.8150 H   0  0  0  0  0  0  0  0  0  0  0  0
  1  2  1  0  0  0  0
  1  9  1  0  0  0  0
  2  7  1  0  0  0  0
  3  8  1  0  0  0  0
  3  2  2  0  0  0  0
  4  3  1  0  0  0  0
  5  4  2  0  0  0  0
  5  6  1  0  0  0  0
  6  1  2  0  0  0  0
  9 10  2  0  0  0  0
 11  9  1  0  0  0  0
 11 17  1  0  0  0  0
 12 13  1  0  0  0  0
 12 11  1  0  0  0  0
 13 14  1  0  0  0  0
 14 16  1  0  0  0  0
 15 14  1  0  0  0  0
 16 17  1  0  0  0  0
 18 21  1  6  0  0  0
 18 19  1  0  0  0  0
 18 20  1  0  0  0  0
 18  5  1  0  0  0  0
 19 20  1  0  0  0  0
 19 23  1  0  0  0  0
 20 24  1  6  0  0  0
 20 25  1  0  0  0  0
 22 19  1  0  0  0  0
 25 27  1  0  0  0  0
 25 26  1  0  0  0  0
M  END
>  <minimizedAffinity>
-4.86172962

$$$$

 OpenBabel03252508013D

 27 29  0  0  1  0  0  0  0  0999 V2000
   38.4830   30.8050   40.9810 C   0  0  0  0  0  0  0  0  0  0  0  0
   37.2430   31.4090   40.6200 C   0  0  0  0  0  0  0  0  0  0  0  0
   37.3270   32.5080   39.7690 C   0  0  0  0  0  0  0  0  0  0  0  0
   38.5520   32.9200   39.3480 N   0  0  0  0  0  0  0  0  0  0  0  0
   39.6990   32.2930   39.7340 C   0  0  0  0  0  0  0  0  0  0  0  0
   39.6920   31.2480   40.5380 N   0  0  0  0  0  0  0  0  0  0  0  0
   36.3220   31.0010   41.0120 H   0  0  0  0  0  0  0  0  0  0  0  0
   36.4110   32.9950   39.4720 H   0  0  0  0  0  0  0  0  0  0  0  0
   38.3850   29.6540   41.8550 C   0  0  0  0  0  0  0  0  0  0  0  0
   38.5160   29.7280   43.1270 O   0  0  0  0  0  0  0  0  0  0  0  0
   38.1280   28.3920   41.2220 N   0  0  0  0  0  0  0  0  0  0  0  0
   38.5410   28.0010   39.8710 C   0  0  0  0  0  2  0  0  0  0  0  0
   37.2730   27.7080   39.1030 C   0  0  0  0  0  2  0  0  0  0  0  0
   36.5390   26.5710   39.7500 C   0  0  0  0  0  3  0  0  0  0  0  0
   36.6700   25.6540   39.1060 H   0  0  0  0  0  0  0  0  0  0  0  0
   37.0730   26.2070   41.0980 C   0  0  0  0  0  2  0  0  0  0  0  0
   37.3820   27.3790   41.9800 C   0  0  0  0  0  2  0  0  0  0  0  0
   40.9990   32.8090   39.2120 C   0  0  1  0  0  0  0  0  0  0  0  0
   41.9050   31.8740   38.4430 C   0  0  0  0  0  0  0  0  0  0  0  0
   41.0760   32.9110   37.7390 C   0  0  1  0  0  0  0  0  0  0  0  0
   41.4660   33.5560   39.8600 H   0  0  0  0  0  0  0  0  0  0  0  0
   42.9830   32.1110   38.5450 H   0  0  0  0  0  0  0  0  0  0  0  0
   41.6020   30.8280   38.4720 H   0  0  0  0  0  0  0  0  0  0  0  0
   41.6160   33.7480   37.2640 H   0  0  0  0  0  0  0  0  0  0  0  0
   40.0200   32.3020   36.9230 N   0  0  0  0  0  0  0  0  0  0  0  0
   39.9660   31.2670   37.0350 H   0  0  0  0  0  0  0  0  0  0  0  0
   40.2010   32.5180   35.9370 H   0  0  0  0  0  0  0  0  0  0  0  0
  1  9  1  0  0  0  0
  2  1  1  0  0  0  0
  2  7  1  0  0  0  0
  3  2  2  0  0  0  0
  4  5  2  0  0  0  0
  4  3  1  0  0  0  0
  5  6  1  0  0  0  0
  6  1  2  0  0  0  0
  8  3  1  0  0  0  0
  9 10  2  0  0  0  0
 11  9  1  0  0  0  0
 11 17  1  0  0  0  0
 12 11  1  0  0  0  0
 13 14  1  0  0  0  0
 13 12  1  0  0  0  0
 14 16  1  0  0  0  0
 15 14  1  0  0  0  0
 16 17  1  0  0  0  0
 18  5  1  0  0  0  0
 18 21  1  1  0  0  0
 19 23  1  0  0  0  0
 19 22  1  0  0  0  0
 19 18  1  0  0  0  0
 20 24  1  6  0  0  0
 20 19  1  0  0  0  0
 20 18  1  0  0  0  0
 25 26  1  0  0  0  0
 25 20  1  0  0  0  0
 27 25  1  0  0  0  0
M  END
>  <minimizedAffinity>
-4.85236835

$$$$
