
 OpenBabel03252507553D

 42 45  0  0  1  0  0  0  0  0999 V2000
   47.1640   34.7630   42.2170 C   0  0  2  0  0  0  0  0  0  0  0  0
   46.3570   34.4630   40.9530 C   0  0  0  0  0  0  0  0  0  0  0  0
   47.5470   34.2910   39.9850 C   0  0  0  0  0  0  0  0  0  0  0  0
   48.6090   33.6190   40.7990 C   0  0  1  0  0  0  0  0  0  0  0  0
   48.0870   33.5770   42.2040 C   0  0  0  0  0  0  0  0  0  0  0  0
   47.7190   35.7090   42.0590 H   0  0  0  0  0  0  0  0  0  0  0  0
   45.7550   35.3320   40.6910 H   0  0  0  0  0  0  0  0  0  0  0  0
   45.8180   33.5170   41.1000 H   0  0  0  0  0  0  0  0  0  0  0  0
   47.2440   33.6870   39.1150 H   0  0  0  0  0  0  0  0  0  0  0  0
   47.8500   35.3340   39.6790 H   0  0  0  0  0  0  0  0  0  0  0  0
   49.5530   34.1990   40.7660 H   0  0  0  0  0  0  0  0  0  0  0  0
   48.9140   33.7700   42.9260 H   0  0  0  0  0  0  0  0  0  0  0  0
   47.5350   32.6610   42.4430 H   0  0  0  0  0  0  0  0  0  0  0  0
   44.5530   35.6630   44.7770 C   0  0  0  0  0  0  0  0  0  0  0  0
   45.2870   35.7290   43.5980 C   0  0  0  0  0  0  0  0  0  0  0  0
   46.2900   34.7850   43.4230 C   0  0  0  0  0  0  0  0  0  0  0  0
   46.5330   33.8170   44.4070 N   0  0  0  0  0  0  0  0  0  0  0  0
   45.7830   33.8040   45.5390 C   0  0  0  0  0  0  0  0  0  0  0  0
   44.7970   34.7230   45.7210 N   0  0  0  0  0  0  0  0  0  0  0  0
   43.7620   36.3930   44.9330 H   0  0  0  0  0  0  0  0  0  0  0  0
   45.1210   36.4630   42.8240 H   0  0  0  0  0  0  0  0  0  0  0  0
   45.9740   33.0580   46.2920 H   0  0  0  0  0  0  0  0  0  0  0  0
   48.9070   32.1950   40.3900 C   0  0  2  0  0  0  0  0  0  0  0  0
   50.2980   31.7770   40.5050 C   0  0  0  0  0  0  0  0  0  0  0  0
   49.6450   31.8880   39.1650 C   0  0  1  0  0  0  0  0  0  0  0  0
   48.1230   31.4800   40.7000 H   0  0  0  0  0  0  0  0  0  0  0  0
   51.1310   32.4940   40.7000 H   0  0  0  0  0  0  0  0  0  0  0  0
   50.5350   30.7700   40.9050 H   0  0  0  0  0  0  0  0  0  0  0  0
   49.8180   32.7290   38.4750 H   0  0  0  0  0  0  0  0  0  0  0  0
   49.3260   30.6790   38.4980 O   0  0  0  0  0  0  0  0  0  0  0  0
   51.2600   31.2750   36.8560 O   0  0  0  0  0  0  0  0  0  0  0  0
   49.8220   30.8170   36.8980 P   0  0  1  0  0  0  0  0  0  0  0  0
   49.7530   29.2830   36.1320 O   0  0  0  0  0  0  0  0  0  0  0  0
   48.9080   29.1380   35.6670 H   0  0  0  0  0  0  0  0  0  0  0  0
   48.9090   31.8550   35.9780 O   0  0  0  0  0  0  0  0  0  0  0  0
   45.2640   33.9090   34.6380 H   0  0  0  0  0  0  0  0  0  0  0  0
   45.2120   32.9130   34.9480 N   0  0  0  0  0  0  0  0  0  0  0  0
   46.1690   32.1130   34.2330 C   0  0  0  0  0  0  0  0  0  0  0  0
   46.8290   31.0570   35.0930 C   0  0  0  0  0  0  0  0  0  0  0  0
   47.5460   31.6610   36.2640 C   0  0  0  0  0  0  0  0  0  0  0  0
   46.9010   32.9550   36.7160 C   0  0  0  0  0  0  0  0  0  0  0  0
   45.4180   32.8950   36.3840 C   0  0  0  0  0  0  0  0  0  0  0  0
  1  6  1  6  0  0  0
  1 16  1  0  0  0  0
  2  8  1  0  0  0  0
  2  1  1  0  0  0  0
  3  4  1  0  0  0  0
  3  2  1  0  0  0  0
  4 11  1  6  0  0  0
  4  5  1  0  0  0  0
  5  1  1  0  0  0  0
  5 13  1  0  0  0  0
  5 12  1  0  0  0  0
  7  2  1  0  0  0  0
  9  3  1  0  0  0  0
 10  3  1  0  0  0  0
 14 20  1  0  0  0  0
 14 19  1  0  0  0  0
 15 14  2  0  0  0  0
 16 15  1  0  0  0  0
 16 17  2  0  0  0  0
 17 18  1  0  0  0  0
 18 19  2  0  0  0  0
 18 22  1  0  0  0  0
 21 15  1  0  0  0  0
 23 24  1  0  0  0  0
 23 26  1  1  0  0  0
 23  4  1  0  0  0  0
 24 27  1  0  0  0  0
 24 28  1  0  0  0  0
 25 29  1  6  0  0  0
 25 23  1  0  0  0  0
 25 24  1  0  0  0  0
 30 25  1  0  0  0  0
 32 31  2  6  0  0  0
 32 30  1  0  0  0  0
 33 32  1  0  0  0  0
 34 33  1  0  0  0  0
 35 40  1  0  0  0  0
 35 32  1  0  0  0  0
 36 37  1  0  0  0  0
 37 42  1  0  0  0  0
 38 37  1  0  0  0  0
 38 39  1  0  0  0  0
 39 40  1  0  0  0  0
 40 41  1  0  0  0  0
 42 41  1  0  0  0  0
M  END
>  <minimizedAffinity>
-5.40628767

>  <minimizedRMSD>
5.24587965

$$$$
