
 OpenBabel03252507563D

 42 45  0  0  1  0  0  0  0  0999 V2000
   38.4480   31.3440   38.8390 C   0  0  2  0  0  0  0  0  0  0  0  0
   36.9480   31.4700   38.5650 C   0  0  0  0  0  0  0  0  0  0  0  0
   36.6990   30.0160   38.1080 C   0  0  0  0  0  0  0  0  0  0  0  0
   37.5940   29.1840   38.9720 C   0  0  1  0  0  0  0  0  0  0  0  0
   38.4280   30.1530   39.7570 C   0  0  0  0  0  0  0  0  0  0  0  0
   38.9570   31.1090   37.8840 H   0  0  0  0  0  0  0  0  0  0  0  0
   36.7860   32.1750   37.7520 H   0  0  0  0  0  0  0  0  0  0  0  0
   36.4370   31.6850   39.5150 H   0  0  0  0  0  0  0  0  0  0  0  0
   35.6370   29.7550   38.2350 H   0  0  0  0  0  0  0  0  0  0  0  0
   37.0080   29.9770   37.0230 H   0  0  0  0  0  0  0  0  0  0  0  0
   38.2500   28.5410   38.3510 H   0  0  0  0  0  0  0  0  0  0  0  0
   39.4700   29.7700   39.8540 H   0  0  0  0  0  0  0  0  0  0  0  0
   37.9960   30.4240   40.7250 H   0  0  0  0  0  0  0  0  0  0  0  0
   38.7700   34.6950   40.5250 C   0  0  0  0  0  0  0  0  0  0  0  0
   38.1550   33.5960   39.9350 C   0  0  0  0  0  0  0  0  0  0  0  0
   38.9790   32.5640   39.5090 C   0  0  0  0  0  0  0  0  0  0  0  0
   40.3690   32.6470   39.6780 N   0  0  0  0  0  0  0  0  0  0  0  0
   40.9100   33.7460   40.2610 C   0  0  0  0  0  0  0  0  0  0  0  0
   40.1140   34.7650   40.6830 N   0  0  0  0  0  0  0  0  0  0  0  0
   38.1430   35.5150   40.8660 H   0  0  0  0  0  0  0  0  0  0  0  0
   37.0900   33.5050   39.7930 H   0  0  0  0  0  0  0  0  0  0  0  0
   41.9790   33.8060   40.3880 H   0  0  0  0  0  0  0  0  0  0  0  0
   36.8700   28.3090   39.9690 C   0  0  2  0  0  0  0  0  0  0  0  0
   35.5380   28.7550   40.3570 C   0  0  0  0  0  0  0  0  0  0  0  0
   36.6550   28.7380   41.3510 C   0  0  1  0  0  0  0  0  0  0  0  0
   37.0240   27.2290   39.7930 H   0  0  0  0  0  0  0  0  0  0  0  0
   35.1370   29.7630   40.0950 H   0  0  0  0  0  0  0  0  0  0  0  0
   34.7200   28.0120   40.4560 H   0  0  0  0  0  0  0  0  0  0  0  0
   37.1950   29.6430   41.6700 H   0  0  0  0  0  0  0  0  0  0  0  0
   36.6210   27.7300   42.3470 O   0  0  0  0  0  0  0  0  0  0  0  0
   38.3770   29.4480   43.2160 O   0  0  0  0  0  0  0  0  0  0  0  0
   37.5930   28.2250   43.6250 P   0  0  1  0  0  0  0  0  0  0  0  0
   36.6150   28.6720   44.9630 O   0  0  0  0  0  0  0  0  0  0  0  0
   36.4810   27.9350   45.5880 H   0  0  0  0  0  0  0  0  0  0  0  0
   38.6570   27.0730   44.1720 O   0  0  0  0  0  0  0  0  0  0  0  0
   41.9910   24.2340   43.8160 H   0  0  0  0  0  0  0  0  0  0  0  0
   41.6870   24.7830   42.9810 N   0  0  0  0  0  0  0  0  0  0  0  0
   40.2750   24.6230   42.7590 C   0  0  0  0  0  2  0  0  0  0  0  0
   39.5920   25.8950   42.3060 C   0  0  0  0  0  2  0  0  0  0  0  0
   39.7600   27.0030   43.3030 C   0  0  0  0  0  3  0  0  0  0  0  0
   41.0520   26.8720   44.0820 C   0  0  0  0  0  2  0  0  0  0  0  0
   42.0740   26.1630   43.2060 C   0  0  0  0  0  2  0  0  0  0  0  0
  1  6  1  6  0  0  0
  1 16  1  0  0  0  0
  1  5  1  0  0  0  0
  2  1  1  0  0  0  0
  2  8  1  0  0  0  0
  3  9  1  0  0  0  0
  3  2  1  0  0  0  0
  3  4  1  0  0  0  0
  4 11  1  6  0  0  0
  4  5  1  0  0  0  0
  4 23  1  0  0  0  0
  5 12  1  0  0  0  0
  5 13  1  0  0  0  0
  7  2  1  0  0  0  0
 10  3  1  0  0  0  0
 14 19  1  0  0  0  0
 14 20  1  0  0  0  0
 15 14  2  0  0  0  0
 16 17  2  0  0  0  0
 16 15  1  0  0  0  0
 17 18  1  0  0  0  0
 18 22  1  0  0  0  0
 18 19  2  0  0  0  0
 21 15  1  0  0  0  0
 23 26  1  6  0  0  0
 23 24  1  0  0  0  0
 23 25  1  0  0  0  0
 24 28  1  0  0  0  0
 24 25  1  0  0  0  0
 25 29  1  1  0  0  0
 25 30  1  0  0  0  0
 27 24  1  0  0  0  0
 30 32  1  0  0  0  0
 32 31  2  6  0  0  0
 32 35  1  0  0  0  0
 32 33  1  0  0  0  0
 33 34  1  0  0  0  0
 37 42  1  0  0  0  0
 37 36  1  0  0  0  0
 38 37  1  0  0  0  0
 39 38  1  0  0  0  0
 39 40  1  0  0  0  0
 40 41  1  0  0  0  0
 40 35  1  0  0  0  0
 42 41  1  0  0  0  0
M  END
>  <minimizedAffinity>
-6.36044788

$$$$

 OpenBabel03252507563D

 42 45  0  0  1  0  0  0  0  0999 V2000
   36.7220   28.2800   42.0340 C   0  0  2  0  0  0  0  0  0  0  0  0
   36.2400   27.8540   40.6460 C   0  0  0  0  0  0  0  0  0  0  0  0
   35.3450   29.0780   40.3540 C   0  0  0  0  0  0  0  0  0  0  0  0
   36.0730   30.2390   40.9580 C   0  0  1  0  0  0  0  0  0  0  0  0
   37.2370   29.6530   41.7020 C   0  0  0  0  0  0  0  0  0  0  0  0
   35.8440   28.3310   42.7070 H   0  0  0  0  0  0  0  0  0  0  0  0
   35.6500   26.9430   40.7310 H   0  0  0  0  0  0  0  0  0  0  0  0
   37.1070   27.8200   39.9720 H   0  0  0  0  0  0  0  0  0  0  0  0
   35.2040   29.1940   39.2680 H   0  0  0  0  0  0  0  0  0  0  0  0
   34.3670   28.8770   40.8790 H   0  0  0  0  0  0  0  0  0  0  0  0
   35.4160   30.7890   41.6620 H   0  0  0  0  0  0  0  0  0  0  0  0
   37.3990   30.2060   42.6560 H   0  0  0  0  0  0  0  0  0  0  0  0
   38.1520   29.5830   41.1040 H   0  0  0  0  0  0  0  0  0  0  0  0
   39.7800   26.8970   43.7400 C   0  0  0  0  0  0  0  0  0  0  0  0
   38.8190   27.8270   43.3600 C   0  0  0  0  0  0  0  0  0  0  0  0
   37.7980   27.3790   42.5330 C   0  0  0  0  0  0  0  0  0  0  0  0
   37.7580   26.0420   42.1130 N   0  0  0  0  0  0  0  0  0  0  0  0
   38.7270   25.1810   42.5180 C   0  0  0  0  0  0  0  0  0  0  0  0
   39.7330   25.6080   43.3280 N   0  0  0  0  0  0  0  0  0  0  0  0
   40.5890   27.2280   44.3880 H   0  0  0  0  0  0  0  0  0  0  0  0
   38.8240   28.8620   43.6680 H   0  0  0  0  0  0  0  0  0  0  0  0
   38.6920   24.1550   42.1920 H   0  0  0  0  0  0  0  0  0  0  0  0
   36.6320   31.2210   39.9560 C   0  0  2  0  0  0  0  0  0  0  0  0
   37.8150   30.7840   39.2270 C   0  0  0  0  0  0  0  0  0  0  0  0
   37.8930   31.9230   40.1920 C   0  0  1  0  0  0  0  0  0  0  0  0
   35.8490   31.7630   39.3960 H   0  0  0  0  0  0  0  0  0  0  0  0
   38.3940   29.8720   39.5050 H   0  0  0  0  0  0  0  0  0  0  0  0
   37.8970   30.9930   38.1400 H   0  0  0  0  0  0  0  0  0  0  0  0
   38.3210   31.8320   41.2020 H   0  0  0  0  0  0  0  0  0  0  0  0
   38.0250   33.2250   39.6470 O   0  0  0  0  0  0  0  0  0  0  0  0
   38.9670   35.2220   41.0320 O   0  0  0  0  0  0  0  0  0  0  0  0
   39.3780   33.9460   40.3380 P   0  0  1  0  0  0  0  0  0  0  0  0
   40.0460   32.9090   41.5310 O   0  0  0  0  0  0  0  0  0  0  0  0
   40.7550   32.3430   41.1750 H   0  0  0  0  0  0  0  0  0  0  0  0
   40.5980   34.2950   39.2670 O   0  0  0  0  0  0  0  0  0  0  0  0
   43.0630   33.0610   35.8460 H   0  0  0  0  0  0  0  0  0  0  0  0
   43.2460   32.6520   36.7900 N   0  0  0  0  0  0  0  0  0  0  0  0
   43.4270   33.6950   37.7640 C   0  0  0  0  0  2  0  0  0  0  0  0
   42.8050   33.3750   39.1070 C   0  0  0  0  0  2  0  0  0  0  0  0
   41.3310   33.1260   38.9930 C   0  0  0  0  0  3  0  0  0  0  0  0
   40.9550   32.5600   37.6390 C   0  0  0  0  0  2  0  0  0  0  0  0
   42.1380   31.7700   37.1020 C   0  0  0  0  0  2  0  0  0  0  0  0
  1 16  1  0  0  0  0
  1  6  1  1  0  0  0
  2  7  1  0  0  0  0
  2  1  1  0  0  0  0
  3  2  1  0  0  0  0
  3 10  1  0  0  0  0
  3  4  1  0  0  0  0
  4 11  1  1  0  0  0
  4  5  1  0  0  0  0
  5  1  1  0  0  0  0
  5 12  1  0  0  0  0
  8  2  1  0  0  0  0
  9  3  1  0  0  0  0
 13  5  1  0  0  0  0
 14 20  1  0  0  0  0
 15 21  1  0  0  0  0
 15 14  1  0  0  0  0
 16 15  2  0  0  0  0
 17 18  2  0  0  0  0
 17 16  1  0  0  0  0
 18 19  1  0  0  0  0
 19 14  2  0  0  0  0
 22 18  1  0  0  0  0
 23 26  1  6  0  0  0
 23 25  1  0  0  0  0
 23  4  1  0  0  0  0
 24 27  1  0  0  0  0
 24 23  1  0  0  0  0
 24 25  1  0  0  0  0
 25 29  1  1  0  0  0
 28 24  1  0  0  0  0
 30 25  1  0  0  0  0
 30 32  1  0  0  0  0
 32 31  2  1  0  0  0
 32 33  1  0  0  0  0
 34 33  1  0  0  0  0
 35 32  1  0  0  0  0
 36 37  1  0  0  0  0
 37 42  1  0  0  0  0
 37 38  1  0  0  0  0
 38 39  1  0  0  0  0
 40 39  1  0  0  0  0
 40 35  1  0  0  0  0
 41 40  1  0  0  0  0
 42 41  1  0  0  0  0
M  END
>  <minimizedAffinity>
-6.23117256

$$$$

 OpenBabel03252507563D

 42 45  0  0  1  0  0  0  0  0999 V2000
   39.1400   26.9210   43.4990 C   0  0  2  0  0  0  0  0  0  0  0  0
   38.9440   25.7290   42.5590 C   0  0  0  0  0  0  0  0  0  0  0  0
   37.4070   25.8060   42.4460 C   0  0  0  0  0  0  0  0  0  0  0  0
   37.0950   27.2710   42.4470 C   0  0  1  0  0  0  0  0  0  0  0  0
   38.3940   27.9690   42.7210 C   0  0  0  0  0  0  0  0  0  0  0  0
   38.6350   26.6940   44.4580 H   0  0  0  0  0  0  0  0  0  0  0  0
   39.2600   24.8160   43.0610 H   0  0  0  0  0  0  0  0  0  0  0  0
   39.4300   25.9590   41.6000 H   0  0  0  0  0  0  0  0  0  0  0  0
   37.0680   25.3080   41.5240 H   0  0  0  0  0  0  0  0  0  0  0  0
   37.0040   25.2910   43.3660 H   0  0  0  0  0  0  0  0  0  0  0  0
   36.3620   27.5140   43.2430 H   0  0  0  0  0  0  0  0  0  0  0  0
   38.2240   28.8450   43.3890 H   0  0  0  0  0  0  0  0  0  0  0  0
   38.9480   28.2400   41.8160 H   0  0  0  0  0  0  0  0  0  0  0  0
   42.7750   26.8900   44.4830 C   0  0  0  0  0  0  0  0  0  0  0  0
   41.4550   26.4610   44.3880 C   0  0  0  0  0  0  0  0  0  0  0  0
   40.5830   27.2550   43.6550 C   0  0  0  0  0  0  0  0  0  0  0  0
   41.0370   28.4320   43.0430 N   0  0  0  0  0  0  0  0  0  0  0  0
   42.3380   28.7980   43.1720 C   0  0  0  0  0  0  0  0  0  0  0  0
   43.2020   28.0290   43.8880 N   0  0  0  0  0  0  0  0  0  0  0  0
   43.4740   26.2830   45.0530 H   0  0  0  0  0  0  0  0  0  0  0  0
   41.0780   25.5610   44.8480 H   0  0  0  0  0  0  0  0  0  0  0  0
   42.6820   29.7040   42.7010 H   0  0  0  0  0  0  0  0  0  0  0  0
   36.5700   27.8020   41.1330 C   0  0  2  0  0  0  0  0  0  0  0  0
   37.0540   27.1290   39.9350 C   0  0  0  0  0  0  0  0  0  0  0  0
   37.4260   28.5500   40.2130 C   0  0  1  0  0  0  0  0  0  0  0  0
   35.5030   28.0850   41.1740 H   0  0  0  0  0  0  0  0  0  0  0  0
   37.8950   26.3950   39.9520 H   0  0  0  0  0  0  0  0  0  0  0  0
   36.3480   26.9100   39.1080 H   0  0  0  0  0  0  0  0  0  0  0  0
   38.4110   28.8530   40.6000 H   0  0  0  0  0  0  0  0  0  0  0  0
   36.8110   29.5470   39.4160 O   0  0  0  0  0  0  0  0  0  0  0  0
   36.7380   32.1490   39.2830 O   0  0  0  0  0  0  0  0  0  0  0  0
   36.8820   31.0030   40.2540 P   0  0  1  0  0  0  0  0  0  0  0  0
   35.5720   31.1040   41.3590 O   0  0  0  0  0  0  0  0  0  0  0  0
   35.8130   30.7890   42.2500 H   0  0  0  0  0  0  0  0  0  0  0  0
   38.2720   31.2270   41.1360 O   0  0  0  0  0  0  0  0  0  0  0  0
   41.6780   33.7870   42.2040 H   0  0  0  0  0  0  0  0  0  0  0  0
   41.6680   33.2970   41.2820 N   0  0  0  0  0  0  0  0  0  0  0  0
   41.4460   31.8880   41.4630 C   0  0  0  0  0  2  0  0  0  0  0  0
   40.5530   31.2820   40.4010 C   0  0  0  0  0  2  0  0  0  0  0  0
   39.2060   31.9410   40.3640 C   0  0  0  0  0  3  0  0  0  0  0  0
   39.2730   33.3890   40.8030 C   0  0  0  0  0  2  0  0  0  0  0  0
   40.6520   33.9320   40.4650 C   0  0  0  0  0  2  0  0  0  0  0  0
  1 16  1  0  0  0  0
  1  6  1  1  0  0  0
  2  7  1  0  0  0  0
  2  1  1  0  0  0  0
  3  4  1  0  0  0  0
  3  2  1  0  0  0  0
  3 10  1  0  0  0  0
  4  5  1  0  0  0  0
  4 11  1  1  0  0  0
  5 12  1  0  0  0  0
  5  1  1  0  0  0  0
  8  2  1  0  0  0  0
  9  3  1  0  0  0  0
 13  5  1  0  0  0  0
 14 20  1  0  0  0  0
 15 14  1  0  0  0  0
 15 21  1  0  0  0  0
 16 15  2  0  0  0  0
 17 18  2  0  0  0  0
 17 16  1  0  0  0  0
 18 19  1  0  0  0  0
 19 14  2  0  0  0  0
 22 18  1  0  0  0  0
 23 26  1  6  0  0  0
 23  4  1  0  0  0  0
 24 27  1  0  0  0  0
 24 25  1  0  0  0  0
 24 23  1  0  0  0  0
 25 29  1  1  0  0  0
 25 23  1  0  0  0  0
 28 24  1  0  0  0  0
 30 25  1  0  0  0  0
 30 32  1  0  0  0  0
 32 31  2  6  0  0  0
 32 35  1  0  0  0  0
 32 33  1  0  0  0  0
 33 34  1  0  0  0  0
 37 38  1  0  0  0  0
 37 36  1  0  0  0  0
 39 38  1  0  0  0  0
 40 39  1  0  0  0  0
 40 41  1  0  0  0  0
 40 35  1  0  0  0  0
 42 41  1  0  0  0  0
 42 37  1  0  0  0  0
M  END
>  <minimizedAffinity>
-6.03726149

$$$$

 OpenBabel03252507563D

 42 45  0  0  1  0  0  0  0  0999 V2000
   38.8410   27.3260   43.6200 C   0  0  2  0  0  0  0  0  0  0  0  0
   37.7160   26.5670   42.9150 C   0  0  0  0  0  0  0  0  0  0  0  0
   36.6170   27.6420   43.0640 C   0  0  0  0  0  0  0  0  0  0  0  0
   37.3340   28.9470   42.9040 C   0  0  1  0  0  0  0  0  0  0  0  0
   38.7940   28.6110   42.8410 C   0  0  0  0  0  0  0  0  0  0  0  0
   38.5460   27.4840   44.6760 H   0  0  0  0  0  0  0  0  0  0  0  0
   37.4720   25.6700   43.4820 H   0  0  0  0  0  0  0  0  0  0  0  0
   37.9980   26.4240   41.8620 H   0  0  0  0  0  0  0  0  0  0  0  0
   35.8390   27.4980   42.2980 H   0  0  0  0  0  0  0  0  0  0  0  0
   36.2020   27.5160   44.1050 H   0  0  0  0  0  0  0  0  0  0  0  0
   37.1380   29.6090   43.7720 H   0  0  0  0  0  0  0  0  0  0  0  0
   39.3880   29.3760   43.3920 H   0  0  0  0  0  0  0  0  0  0  0  0
   39.1670   28.4530   41.8230 H   0  0  0  0  0  0  0  0  0  0  0  0
   41.5950   25.0100   42.5100 C   0  0  0  0  0  0  0  0  0  0  0  0
   40.3410   25.6100   42.5390 C   0  0  0  0  0  0  0  0  0  0  0  0
   40.1450   26.6220   43.4700 C   0  0  0  0  0  0  0  0  0  0  0  0
   41.1820   27.0050   44.3320 N   0  0  0  0  0  0  0  0  0  0  0  0
   42.3860   26.3810   44.2550 C   0  0  0  0  0  0  0  0  0  0  0  0
   42.5900   25.3880   43.3470 N   0  0  0  0  0  0  0  0  0  0  0  0
   41.7690   24.2150   41.7890 H   0  0  0  0  0  0  0  0  0  0  0  0
   39.5250   25.3350   41.8890 H   0  0  0  0  0  0  0  0  0  0  0  0
   43.1800   26.6790   44.9200 H   0  0  0  0  0  0  0  0  0  0  0  0
   36.9930   29.7000   41.6390 C   0  0  2  0  0  0  0  0  0  0  0  0
   35.9730   29.0960   40.7940 C   0  0  0  0  0  0  0  0  0  0  0  0
   37.3870   29.2020   40.3220 C   0  0  1  0  0  0  0  0  0  0  0  0
   36.9690   30.7960   41.7790 H   0  0  0  0  0  0  0  0  0  0  0  0
   35.5910   28.0600   40.9530 H   0  0  0  0  0  0  0  0  0  0  0  0
   35.2000   29.7400   40.3250 H   0  0  0  0  0  0  0  0  0  0  0  0
   38.0870   28.3520   40.3100 H   0  0  0  0  0  0  0  0  0  0  0  0
   37.6640   30.1640   39.3180 O   0  0  0  0  0  0  0  0  0  0  0  0
   39.9210   28.8620   39.4030 O   0  0  0  0  0  0  0  0  0  0  0  0
   39.3290   30.2140   39.0880 P   0  0  1  0  0  0  0  0  0  0  0  0
   39.6800   30.5530   37.4430 O   0  0  0  0  0  0  0  0  0  0  0  0
   39.8110   31.5060   37.2800 H   0  0  0  0  0  0  0  0  0  0  0  0
   40.1180   31.3610   39.9940 O   0  0  0  0  0  0  0  0  0  0  0  0
   40.2430   35.2440   42.0450 H   0  0  0  0  0  0  0  0  0  0  0  0
   40.1820   35.2110   41.0030 N   0  0  0  0  0  0  0  0  0  0  0  0
   41.2310   34.3880   40.4630 C   0  0  0  0  0  2  0  0  0  0  0  0
   40.7870   33.5500   39.2830 C   0  0  0  0  0  2  0  0  0  0  0  0
   39.6500   32.6410   39.6420 C   0  0  0  0  0  3  0  0  0  0  0  0
   38.7870   33.2200   40.7430 C   0  0  0  0  0  2  0  0  0  0  0  0
   38.8550   34.7370   40.6610 C   0  0  0  0  0  2  0  0  0  0  0  0
  1  6  1  1  0  0  0
  2  3  1  0  0  0  0
  2  7  1  0  0  0  0
  2  1  1  0  0  0  0
  3 10  1  0  0  0  0
  4  3  1  0  0  0  0
  4 11  1  1  0  0  0
  5  4  1  0  0  0  0
  5 12  1  0  0  0  0
  5  1  1  0  0  0  0
  8  2  1  0  0  0  0
  9  3  1  0  0  0  0
 13  5  1  0  0  0  0
 14 15  2  0  0  0  0
 14 19  1  0  0  0  0
 15 16  1  0  0  0  0
 16  1  1  0  0  0  0
 16 17  2  0  0  0  0
 18 17  1  0  0  0  0
 18 22  1  0  0  0  0
 19 18  2  0  0  0  0
 20 14  1  0  0  0  0
 21 15  1  0  0  0  0
 23 26  1  1  0  0  0
 23  4  1  0  0  0  0
 24 27  1  0  0  0  0
 24 23  1  0  0  0  0
 25 29  1  6  0  0  0
 25 24  1  0  0  0  0
 25 23  1  0  0  0  0
 28 24  1  0  0  0  0
 30 25  1  0  0  0  0
 32 30  1  0  0  0  0
 32 31  2  1  0  0  0
 32 35  1  0  0  0  0
 33 32  1  0  0  0  0
 34 33  1  0  0  0  0
 37 36  1  0  0  0  0
 38 37  1  0  0  0  0
 39 40  1  0  0  0  0
 39 38  1  0  0  0  0
 40 35  1  0  0  0  0
 40 41  1  0  0  0  0
 42 41  1  0  0  0  0
 42 37  1  0  0  0  0
M  END
>  <minimizedAffinity>
-6.03431082

$$$$

 OpenBabel03252507563D

 42 45  0  0  1  0  0  0  0  0999 V2000
   40.6770   31.5230   41.2500 C   0  0  2  0  0  0  0  0  0  0  0  0
   40.3220   30.4690   40.1990 C   0  0  0  0  0  0  0  0  0  0  0  0
   40.2760   29.2460   41.1400 C   0  0  0  0  0  0  0  0  0  0  0  0
   39.6930   29.7660   42.4170 C   0  0  1  0  0  0  0  0  0  0  0  0
   39.5820   31.2520   42.2440 C   0  0  0  0  0  0  0  0  0  0  0  0
   41.6720   31.2750   41.6690 H   0  0  0  0  0  0  0  0  0  0  0  0
   41.1350   30.3860   39.4800 H   0  0  0  0  0  0  0  0  0  0  0  0
   39.3270   30.7020   39.7940 H   0  0  0  0  0  0  0  0  0  0  0  0
   39.6610   28.4480   40.6960 H   0  0  0  0  0  0  0  0  0  0  0  0
   41.3470   28.9170   41.2710 H   0  0  0  0  0  0  0  0  0  0  0  0
   40.3600   29.5370   43.2730 H   0  0  0  0  0  0  0  0  0  0  0  0
   39.8390   31.7690   43.1970 H   0  0  0  0  0  0  0  0  0  0  0  0
   38.6150   31.5790   41.8450 H   0  0  0  0  0  0  0  0  0  0  0  0
   41.5080   34.8300   39.6540 C   0  0  0  0  0  0  0  0  0  0  0  0
   41.6990   33.5360   40.1270 C   0  0  0  0  0  0  0  0  0  0  0  0
   40.5990   32.8980   40.6840 C   0  0  0  0  0  0  0  0  0  0  0  0
   39.3590   33.5500   40.7550 N   0  0  0  0  0  0  0  0  0  0  0  0
   39.2360   34.8140   40.2760 C   0  0  0  0  0  0  0  0  0  0  0  0
   40.3070   35.4500   39.7280 N   0  0  0  0  0  0  0  0  0  0  0  0
   42.3570   35.3480   39.2140 H   0  0  0  0  0  0  0  0  0  0  0  0
   42.6410   33.0110   40.0860 H   0  0  0  0  0  0  0  0  0  0  0  0
   38.2820   35.3110   40.3330 H   0  0  0  0  0  0  0  0  0  0  0  0
   38.3100   29.2480   42.7340 C   0  0  2  0  0  0  0  0  0  0  0  0
   38.2370   27.8710   43.2020 C   0  0  0  0  0  0  0  0  0  0  0  0
   37.6500   28.2570   41.8830 C   0  0  1  0  0  0  0  0  0  0  0  0
   37.6670   29.9980   43.2280 H   0  0  0  0  0  0  0  0  0  0  0  0
   39.1060   27.1710   43.1600 H   0  0  0  0  0  0  0  0  0  0  0  0
   37.5560   27.6120   44.0390 H   0  0  0  0  0  0  0  0  0  0  0  0
   38.1340   28.0430   40.9180 H   0  0  0  0  0  0  0  0  0  0  0  0
   36.2360   28.3130   41.7960 O   0  0  0  0  0  0  0  0  0  0  0  0
   34.5410   29.0790   39.9700 O   0  0  0  0  0  0  0  0  0  0  0  0
   35.8290   29.4750   40.6510 P   0  0  1  0  0  0  0  0  0  0  0  0
   35.5540   30.9830   41.4230 O   0  0  0  0  0  0  0  0  0  0  0  0
   36.3520   31.5420   41.4400 H   0  0  0  0  0  0  0  0  0  0  0  0
   36.9850   29.7350   39.4870 O   0  0  0  0  0  0  0  0  0  0  0  0
   38.8490   29.4240   35.5210 H   0  0  0  0  0  0  0  0  0  0  0  0
   38.3340   28.6060   35.9170 N   0  0  0  0  0  0  0  0  0  0  0  0
   38.8310   28.2840   37.2270 C   0  0  0  0  0  2  0  0  0  0  0  0
   37.7440   27.8650   38.1940 C   0  0  0  0  0  2  0  0  0  0  0  0
   36.7070   28.9350   38.3630 C   0  0  0  0  0  3  0  0  0  0  0  0
   36.5630   29.7870   37.1190 C   0  0  0  0  0  2  0  0  0  0  0  0
   36.9220   28.9370   35.9100 C   0  0  0  0  0  2  0  0  0  0  0  0
  1  6  1  1  0  0  0
  1  5  1  0  0  0  0
  2  3  1  0  0  0  0
  2  1  1  0  0  0  0
  3 10  1  0  0  0  0
  3  4  1  0  0  0  0
  4 23  1  0  0  0  0
  4 11  1  1  0  0  0
  5  4  1  0  0  0  0
  5 12  1  0  0  0  0
  7  2  1  0  0  0  0
  8  2  1  0  0  0  0
  9  3  1  0  0  0  0
 13  5  1  0  0  0  0
 14 19  2  0  0  0  0
 14 15  1  0  0  0  0
 15 16  2  0  0  0  0
 16 17  1  0  0  0  0
 16  1  1  0  0  0  0
 18 22  1  0  0  0  0
 18 17  2  0  0  0  0
 19 18  1  0  0  0  0
 20 14  1  0  0  0  0
 21 15  1  0  0  0  0
 23 24  1  0  0  0  0
 23 26  1  1  0  0  0
 24 28  1  0  0  0  0
 25 29  1  6  0  0  0
 25 23  1  0  0  0  0
 25 24  1  0  0  0  0
 27 24  1  0  0  0  0
 30 25  1  0  0  0  0
 32 31  2  6  0  0  0
 32 33  1  0  0  0  0
 32 30  1  0  0  0  0
 33 34  1  0  0  0  0
 35 32  1  0  0  0  0
 36 37  1  0  0  0  0
 37 38  1  0  0  0  0
 38 39  1  0  0  0  0
 39 40  1  0  0  0  0
 40 35  1  0  0  0  0
 41 40  1  0  0  0  0
 42 37  1  0  0  0  0
 42 41  1  0  0  0  0
M  END
>  <minimizedAffinity>
-5.9474206

$$$$

 OpenBabel03252507563D

 42 45  0  0  1  0  0  0  0  0999 V2000
   37.2700   28.4240   42.1400 C   0  0  2  0  0  0  0  0  0  0  0  0
   36.5660   27.8240   40.9210 C   0  0  0  0  0  0  0  0  0  0  0  0
   35.5120   28.9350   40.7240 C   0  0  0  0  0  0  0  0  0  0  0  0
   36.2250   30.2060   41.0680 C   0  0  1  0  0  0  0  0  0  0  0  0
   37.5670   29.7950   41.5980 C   0  0  0  0  0  0  0  0  0  0  0  0
   36.5430   28.4690   42.9750 H   0  0  0  0  0  0  0  0  0  0  0  0
   36.1010   26.8800   41.2000 H   0  0  0  0  0  0  0  0  0  0  0  0
   37.2800   27.7950   40.0860 H   0  0  0  0  0  0  0  0  0  0  0  0
   35.1460   28.9310   39.6860 H   0  0  0  0  0  0  0  0  0  0  0  0
   34.6840   28.7070   41.4550 H   0  0  0  0  0  0  0  0  0  0  0  0
   35.6700   30.7670   41.8470 H   0  0  0  0  0  0  0  0  0  0  0  0
   37.8590   30.4520   42.4500 H   0  0  0  0  0  0  0  0  0  0  0  0
   38.3470   29.7420   40.8310 H   0  0  0  0  0  0  0  0  0  0  0  0
   39.9500   26.4860   43.9390 C   0  0  0  0  0  0  0  0  0  0  0  0
   38.7450   27.1510   43.7410 C   0  0  0  0  0  0  0  0  0  0  0  0
   38.5090   27.6690   42.4750 C   0  0  0  0  0  0  0  0  0  0  0  0
   39.4600   27.5150   41.4550 N   0  0  0  0  0  0  0  0  0  0  0  0
   40.6180   26.8550   41.7110 C   0  0  0  0  0  0  0  0  0  0  0  0
   40.8610   26.3430   42.9470 N   0  0  0  0  0  0  0  0  0  0  0  0
   40.1540   26.0720   44.9240 H   0  0  0  0  0  0  0  0  0  0  0  0
   37.9960   27.2840   44.5060 H   0  0  0  0  0  0  0  0  0  0  0  0
   41.3460   26.7400   40.9250 H   0  0  0  0  0  0  0  0  0  0  0  0
   36.4700   31.1260   39.8960 C   0  0  2  0  0  0  0  0  0  0  0  0
   36.5470   30.4870   38.5890 C   0  0  0  0  0  0  0  0  0  0  0  0
   37.7500   31.1410   39.1880 C   0  0  1  0  0  0  0  0  0  0  0  0
   35.9240   32.0840   39.9730 H   0  0  0  0  0  0  0  0  0  0  0  0
   36.6110   29.3800   38.4600 H   0  0  0  0  0  0  0  0  0  0  0  0
   36.0540   30.9630   37.7170 H   0  0  0  0  0  0  0  0  0  0  0  0
   38.5740   30.5810   39.6570 H   0  0  0  0  0  0  0  0  0  0  0  0
   38.1660   32.3720   38.6220 O   0  0  0  0  0  0  0  0  0  0  0  0
   40.3650   31.0210   38.9830 O   0  0  0  0  0  0  0  0  0  0  0  0
   39.8370   32.3260   38.4400 P   0  0  1  0  0  0  0  0  0  0  0  0
   40.2430   32.3860   36.7740 O   0  0  0  0  0  0  0  0  0  0  0  0
   40.4180   33.2950   36.4670 H   0  0  0  0  0  0  0  0  0  0  0  0
   40.6480   33.5730   39.1770 O   0  0  0  0  0  0  0  0  0  0  0  0
   44.2760   35.7440   40.3720 H   0  0  0  0  0  0  0  0  0  0  0  0
   44.1370   34.7570   40.6840 N   0  0  0  0  0  0  0  0  0  0  0  0
   42.8620   34.6090   41.3330 C   0  0  0  0  0  2  0  0  0  0  0  0
   42.1730   33.3010   41.0070 C   0  0  0  0  0  2  0  0  0  0  0  0
   41.9410   33.1460   39.5330 C   0  0  0  0  0  3  0  0  0  0  0  0
   42.9910   33.8700   38.7160 C   0  0  0  0  0  2  0  0  0  0  0  0
   44.2830   33.9090   39.5170 C   0  0  0  0  0  2  0  0  0  0  0  0
  1 16  1  0  0  0  0
  1  6  1  1  0  0  0
  2  7  1  0  0  0  0
  2  1  1  0  0  0  0
  3  2  1  0  0  0  0
  3  4  1  0  0  0  0
  3 10  1  0  0  0  0
  4  5  1  0  0  0  0
  4 11  1  1  0  0  0
  5  1  1  0  0  0  0
  5 12  1  0  0  0  0
  8  2  1  0  0  0  0
  9  3  1  0  0  0  0
 13  5  1  0  0  0  0
 14 20  1  0  0  0  0
 15 14  1  0  0  0  0
 15 21  1  0  0  0  0
 16 15  2  0  0  0  0
 17 18  2  0  0  0  0
 17 16  1  0  0  0  0
 18 19  1  0  0  0  0
 19 14  2  0  0  0  0
 22 18  1  0  0  0  0
 23 26  1  1  0  0  0
 23  4  1  0  0  0  0
 24 25  1  0  0  0  0
 24 23  1  0  0  0  0
 25 29  1  1  0  0  0
 25 23  1  0  0  0  0
 27 24  1  0  0  0  0
 28 24  1  0  0  0  0
 30 25  1  0  0  0  0
 32 30  1  0  0  0  0
 32 31  2  1  0  0  0
 32 35  1  0  0  0  0
 33 32  1  0  0  0  0
 34 33  1  0  0  0  0
 35 40  1  0  0  0  0
 36 37  1  0  0  0  0
 37 38  1  0  0  0  0
 39 38  1  0  0  0  0
 40 39  1  0  0  0  0
 41 42  1  0  0  0  0
 41 40  1  0  0  0  0
 42 37  1  0  0  0  0
M  END
>  <minimizedAffinity>
-5.88784838

$$$$

 OpenBabel03252507563D

 42 45  0  0  1  0  0  0  0  0999 V2000
   39.3580   31.3030   37.8920 C   0  0  2  0  0  0  0  0  0  0  0  0
   38.0150   31.7440   37.3080 C   0  0  0  0  0  0  0  0  0  0  0  0
   37.3360   30.3570   37.2820 C   0  0  0  0  0  0  0  0  0  0  0  0
   37.8270   29.6670   38.5180 C   0  0  1  0  0  0  0  0  0  0  0  0
   38.8660   30.5720   39.1100 C   0  0  0  0  0  0  0  0  0  0  0  0
   39.8400   30.6100   37.1730 H   0  0  0  0  0  0  0  0  0  0  0  0
   38.1660   32.1300   36.3010 H   0  0  0  0  0  0  0  0  0  0  0  0
   37.5270   32.4170   38.0260 H   0  0  0  0  0  0  0  0  0  0  0  0
   36.2410   30.4710   37.2760 H   0  0  0  0  0  0  0  0  0  0  0  0
   37.7050   29.8500   36.3440 H   0  0  0  0  0  0  0  0  0  0  0  0
   38.2810   28.6880   38.2640 H   0  0  0  0  0  0  0  0  0  0  0  0
   39.7090   29.9700   39.5210 H   0  0  0  0  0  0  0  0  0  0  0  0
   38.4680   31.2800   39.8450 H   0  0  0  0  0  0  0  0  0  0  0  0
   40.8030   34.3530   39.5610 C   0  0  0  0  0  0  0  0  0  0  0  0
   39.9560   33.2700   39.3530 C   0  0  0  0  0  0  0  0  0  0  0  0
   40.2070   32.4760   38.2410 C   0  0  0  0  0  0  0  0  0  0  0  0
   41.2740   32.7720   37.3820 N   0  0  0  0  0  0  0  0  0  0  0  0
   42.0670   33.8440   37.6390 C   0  0  0  0  0  0  0  0  0  0  0  0
   41.8320   34.6300   38.7250 N   0  0  0  0  0  0  0  0  0  0  0  0
   40.6240   34.9870   40.4260 H   0  0  0  0  0  0  0  0  0  0  0  0
   39.1280   33.0180   39.9970 H   0  0  0  0  0  0  0  0  0  0  0  0
   42.8850   34.0680   36.9760 H   0  0  0  0  0  0  0  0  0  0  0  0
   36.7710   29.4470   39.5760 C   0  0  2  0  0  0  0  0  0  0  0  0
   36.2550   30.6470   40.2200 C   0  0  0  0  0  0  0  0  0  0  0  0
   37.0550   29.6510   40.9960 C   0  0  1  0  0  0  0  0  0  0  0  0
   36.0520   28.6500   39.3130 H   0  0  0  0  0  0  0  0  0  0  0  0
   36.7240   31.6520   40.0920 H   0  0  0  0  0  0  0  0  0  0  0  0
   35.1670   30.7360   40.4210 H   0  0  0  0  0  0  0  0  0  0  0  0
   38.1120   29.8010   41.2650 H   0  0  0  0  0  0  0  0  0  0  0  0
   36.3550   28.8390   41.9230 O   0  0  0  0  0  0  0  0  0  0  0  0
   38.7670   29.0360   42.8890 O   0  0  0  0  0  0  0  0  0  0  0  0
   37.4240   28.3980   43.1430 P   0  0  1  0  0  0  0  0  0  0  0  0
   36.8580   28.9840   44.6540 O   0  0  0  0  0  0  0  0  0  0  0  0
   36.3240   28.3230   45.1320 H   0  0  0  0  0  0  0  0  0  0  0  0
   37.6400   26.7600   43.3140 O   0  0  0  0  0  0  0  0  0  0  0  0
   38.6020   22.6640   42.0470 H   0  0  0  0  0  0  0  0  0  0  0  0
   38.3860   23.3910   41.3290 N   0  0  0  0  0  0  0  0  0  0  0  0
   37.1280   24.0250   41.6170 C   0  0  0  0  0  2  0  0  0  0  0  0
   37.1280   25.5120   41.3330 C   0  0  0  0  0  2  0  0  0  0  0  0
   38.1780   26.2310   42.1270 C   0  0  0  0  0  3  0  0  0  0  0  0
   39.3690   25.3440   42.4230 C   0  0  0  0  0  2  0  0  0  0  0  0
   39.4980   24.3210   41.3050 C   0  0  0  0  0  2  0  0  0  0  0  0
  1  6  1  6  0  0  0
  1 16  1  0  0  0  0
  1  5  1  0  0  0  0
  2  1  1  0  0  0  0
  2  8  1  0  0  0  0
  3  2  1  0  0  0  0
  3  4  1  0  0  0  0
  4 11  1  6  0  0  0
  4  5  1  0  0  0  0
  4 23  1  0  0  0  0
  5 12  1  0  0  0  0
  5 13  1  0  0  0  0
  7  2  1  0  0  0  0
  9  3  1  0  0  0  0
 10  3  1  0  0  0  0
 14 20  1  0  0  0  0
 15 14  1  0  0  0  0
 15 21  1  0  0  0  0
 16 15  2  0  0  0  0
 17 18  2  0  0  0  0
 17 16  1  0  0  0  0
 18 19  1  0  0  0  0
 19 14  2  0  0  0  0
 22 18  1  0  0  0  0
 23 26  1  6  0  0  0
 23 24  1  0  0  0  0
 23 25  1  0  0  0  0
 24 28  1  0  0  0  0
 24 25  1  0  0  0  0
 25 29  1  1  0  0  0
 25 30  1  0  0  0  0
 27 24  1  0  0  0  0
 30 32  1  0  0  0  0
 32 31  2  6  0  0  0
 32 35  1  0  0  0  0
 32 33  1  0  0  0  0
 33 34  1  0  0  0  0
 37 38  1  0  0  0  0
 37 36  1  0  0  0  0
 39 38  1  0  0  0  0
 39 40  1  0  0  0  0
 40 41  1  0  0  0  0
 40 35  1  0  0  0  0
 42 37  1  0  0  0  0
 42 41  1  0  0  0  0
M  END
>  <minimizedAffinity>
-5.85054731

$$$$

 OpenBabel03252507563D

 42 45  0  0  1  0  0  0  0  0999 V2000
   38.8350   31.8090   37.8930 C   0  0  2  0  0  0  0  0  0  0  0  0
   38.4770   32.2500   39.3130 C   0  0  0  0  0  0  0  0  0  0  0  0
   36.9770   31.8870   39.2700 C   0  0  0  0  0  0  0  0  0  0  0  0
   36.9090   30.6320   38.4570 C   0  0  1  0  0  0  0  0  0  0  0  0
   38.2950   30.4060   37.9310 C   0  0  0  0  0  0  0  0  0  0  0  0
   38.2690   32.4400   37.1800 H   0  0  0  0  0  0  0  0  0  0  0  0
   38.6230   33.3240   39.4070 H   0  0  0  0  0  0  0  0  0  0  0  0
   39.0240   31.6140   40.0240 H   0  0  0  0  0  0  0  0  0  0  0  0
   36.5920   31.7440   40.2920 H   0  0  0  0  0  0  0  0  0  0  0  0
   36.4660   32.7500   38.7540 H   0  0  0  0  0  0  0  0  0  0  0  0
   36.2010   30.7510   37.6130 H   0  0  0  0  0  0  0  0  0  0  0  0
   38.2500   30.0200   36.8860 H   0  0  0  0  0  0  0  0  0  0  0  0
   38.9150   29.7750   38.5770 H   0  0  0  0  0  0  0  0  0  0  0  0
   42.4190   32.9120   37.5600 C   0  0  0  0  0  0  0  0  0  0  0  0
   41.0560   33.0010   37.8180 C   0  0  0  0  0  0  0  0  0  0  0  0
   40.3070   31.8410   37.6710 C   0  0  0  0  0  0  0  0  0  0  0  0
   40.9220   30.6430   37.2790 N   0  0  0  0  0  0  0  0  0  0  0  0
   42.2580   30.6200   37.0410 C   0  0  0  0  0  0  0  0  0  0  0  0
   43.0030   31.7500   37.1820 N   0  0  0  0  0  0  0  0  0  0  0  0
   43.0240   33.8090   37.6690 H   0  0  0  0  0  0  0  0  0  0  0  0
   40.5570   33.9080   38.1210 H   0  0  0  0  0  0  0  0  0  0  0  0
   42.7260   29.6970   36.7390 H   0  0  0  0  0  0  0  0  0  0  0  0
   36.5210   29.3980   39.2380 C   0  0  2  0  0  0  0  0  0  0  0  0
   35.0920   29.1920   39.4360 C   0  0  0  0  0  0  0  0  0  0  0  0
   35.9860   29.4880   40.5970 C   0  0  1  0  0  0  0  0  0  0  0  0
   37.1430   28.5170   38.9970 H   0  0  0  0  0  0  0  0  0  0  0  0
   34.3300   29.9730   39.2000 H   0  0  0  0  0  0  0  0  0  0  0  0
   34.6660   28.1730   39.3310 H   0  0  0  0  0  0  0  0  0  0  0  0
   36.0450   30.4750   41.0800 H   0  0  0  0  0  0  0  0  0  0  0  0
   36.2740   28.4180   41.4810 O   0  0  0  0  0  0  0  0  0  0  0  0
   37.9010   30.3260   42.1920 O   0  0  0  0  0  0  0  0  0  0  0  0
   37.5570   28.8820   42.4630 P   0  0  1  0  0  0  0  0  0  0  0  0
   37.1000   28.7670   44.1130 O   0  0  0  0  0  0  0  0  0  0  0  0
   37.3450   27.9100   44.5080 H   0  0  0  0  0  0  0  0  0  0  0  0
   38.9320   27.9680   42.2820 O   0  0  0  0  0  0  0  0  0  0  0  0
   41.1540   24.1790   42.1710 H   0  0  0  0  0  0  0  0  0  0  0  0
   40.6370   24.4510   43.0370 N   0  0  0  0  0  0  0  0  0  0  0  0
   41.0260   25.7680   43.4630 C   0  0  0  0  0  2  0  0  0  0  0  0
   39.8730   26.5890   44.0010 C   0  0  0  0  0  2  0  0  0  0  0  0
   38.7860   26.7560   42.9820 C   0  0  0  0  0  3  0  0  0  0  0  0
   38.7230   25.5850   42.0240 C   0  0  0  0  0  2  0  0  0  0  0  0
   39.2200   24.3430   42.7470 C   0  0  0  0  0  2  0  0  0  0  0  0
  1  6  1  6  0  0  0
  1  5  1  0  0  0  0
  1  2  1  0  0  0  0
  2  7  1  0  0  0  0
  2  8  1  0  0  0  0
  3  2  1  0  0  0  0
  3  9  1  0  0  0  0
  4 11  1  6  0  0  0
  4 23  1  0  0  0  0
  4  3  1  0  0  0  0
  5  4  1  0  0  0  0
  5 13  1  0  0  0  0
 10  3  1  0  0  0  0
 12  5  1  0  0  0  0
 14 20  1  0  0  0  0
 14 15  1  0  0  0  0
 15 21  1  0  0  0  0
 16 15  2  0  0  0  0
 16  1  1  0  0  0  0
 17 16  1  0  0  0  0
 18 19  1  0  0  0  0
 18 17  2  0  0  0  0
 19 14  2  0  0  0  0
 22 18  1  0  0  0  0
 23 26  1  6  0  0  0
 23 24  1  0  0  0  0
 23 25  1  0  0  0  0
 24 25  1  0  0  0  0
 25 29  1  1  0  0  0
 25 30  1  0  0  0  0
 27 24  1  0  0  0  0
 28 24  1  0  0  0  0
 30 32  1  0  0  0  0
 32 31  2  6  0  0  0
 32 33  1  0  0  0  0
 33 34  1  0  0  0  0
 35 32  1  0  0  0  0
 35 40  1  0  0  0  0
 36 37  1  0  0  0  0
 37 38  1  0  0  0  0
 38 39  1  0  0  0  0
 40 39  1  0  0  0  0
 41 42  1  0  0  0  0
 41 40  1  0  0  0  0
 42 37  1  0  0  0  0
M  END
>  <minimizedAffinity>
-5.84758854

$$$$

 OpenBabel03252507563D

 42 45  0  0  1  0  0  0  0  0999 V2000
   37.6730   29.3840   41.7420 C   0  0  2  0  0  0  0  0  0  0  0  0
   36.3400   29.4820   40.9970 C   0  0  0  0  0  0  0  0  0  0  0  0
   36.3820   30.9960   40.6980 C   0  0  0  0  0  0  0  0  0  0  0  0
   37.8230   31.2920   40.4200 C   0  0  1  0  0  0  0  0  0  0  0  0
   38.5700   30.0270   40.7210 C   0  0  0  0  0  0  0  0  0  0  0  0
   37.6040   29.9980   42.6620 H   0  0  0  0  0  0  0  0  0  0  0  0
   35.5260   29.2340   41.6760 H   0  0  0  0  0  0  0  0  0  0  0  0
   36.4120   28.8880   40.0750 H   0  0  0  0  0  0  0  0  0  0  0  0
   35.7350   31.2310   39.8390 H   0  0  0  0  0  0  0  0  0  0  0  0
   36.0230   31.5060   41.6380 H   0  0  0  0  0  0  0  0  0  0  0  0
   38.1880   32.1090   41.0750 H   0  0  0  0  0  0  0  0  0  0  0  0
   39.5430   30.2640   41.2100 H   0  0  0  0  0  0  0  0  0  0  0  0
   38.6930   29.3700   39.8530 H   0  0  0  0  0  0  0  0  0  0  0  0
   37.6410   25.6290   42.0150 C   0  0  0  0  0  0  0  0  0  0  0  0
   37.1950   26.9080   41.7010 C   0  0  0  0  0  0  0  0  0  0  0  0
   38.0430   27.9650   42.0040 C   0  0  0  0  0  0  0  0  0  0  0  0
   39.2890   27.7290   42.6010 N   0  0  0  0  0  0  0  0  0  0  0  0
   39.6680   26.4560   42.8840 C   0  0  0  0  0  0  0  0  0  0  0  0
   38.8470   25.4110   42.5920 N   0  0  0  0  0  0  0  0  0  0  0  0
   36.9920   24.7870   41.7860 H   0  0  0  0  0  0  0  0  0  0  0  0
   36.2420   27.1200   41.2420 H   0  0  0  0  0  0  0  0  0  0  0  0
   40.6270   26.2790   43.3430 H   0  0  0  0  0  0  0  0  0  0  0  0
   38.1240   31.6580   38.9850 C   0  0  2  0  0  0  0  0  0  0  0  0
   38.1790   30.5490   38.0430 C   0  0  0  0  0  0  0  0  0  0  0  0
   39.4090   31.3340   38.3650 C   0  0  1  0  0  0  0  0  0  0  0  0
   37.6270   32.5900   38.6610 H   0  0  0  0  0  0  0  0  0  0  0  0
   38.1870   29.4810   38.3660 H   0  0  0  0  0  0  0  0  0  0  0  0
   37.7180   30.6590   37.0400 H   0  0  0  0  0  0  0  0  0  0  0  0
   40.1990   30.9720   39.0410 H   0  0  0  0  0  0  0  0  0  0  0  0
   39.8920   32.2190   37.3680 O   0  0  0  0  0  0  0  0  0  0  0  0
   42.2830   31.2220   37.0810 O   0  0  0  0  0  0  0  0  0  0  0  0
   41.5420   32.4270   37.6090 P   0  0  1  0  0  0  0  0  0  0  0  0
   42.0930   33.7910   36.7260 O   0  0  0  0  0  0  0  0  0  0  0  0
   42.0970   34.6050   37.2630 H   0  0  0  0  0  0  0  0  0  0  0  0
   41.9860   32.6680   39.1910 O   0  0  0  0  0  0  0  0  0  0  0  0
   41.5790   35.1260   42.8100 H   0  0  0  0  0  0  0  0  0  0  0  0
   42.1990   35.4470   42.0340 N   0  0  0  0  0  0  0  0  0  0  0  0
   43.1420   34.4190   41.6850 C   0  0  0  0  0  2  0  0  0  0  0  0
   43.4000   34.3230   40.1960 C   0  0  0  0  0  2  0  0  0  0  0  0
   42.1410   34.0460   39.4300 C   0  0  0  0  0  3  0  0  0  0  0  0
   40.9190   34.6120   40.1250 C   0  0  0  0  0  2  0  0  0  0  0  0
   41.3440   35.8320   40.9270 C   0  0  0  0  0  2  0  0  0  0  0  0
  1 16  1  0  0  0  0
  1  6  1  1  0  0  0
  2  7  1  0  0  0  0
  2  1  1  0  0  0  0
  3  2  1  0  0  0  0
  3 10  1  0  0  0  0
  4  3  1  0  0  0  0
  4  5  1  0  0  0  0
  4 11  1  1  0  0  0
  5 12  1  0  0  0  0
  5  1  1  0  0  0  0
  8  2  1  0  0  0  0
  9  3  1  0  0  0  0
 13  5  1  0  0  0  0
 14 19  1  0  0  0  0
 15 16  1  0  0  0  0
 15 14  2  0  0  0  0
 16 17  2  0  0  0  0
 17 18  1  0  0  0  0
 18 22  1  0  0  0  0
 19 18  2  0  0  0  0
 20 14  1  0  0  0  0
 21 15  1  0  0  0  0
 23 26  1  6  0  0  0
 23  4  1  0  0  0  0
 24 25  1  0  0  0  0
 24 27  1  0  0  0  0
 24 23  1  0  0  0  0
 25 23  1  0  0  0  0
 25 29  1  1  0  0  0
 28 24  1  0  0  0  0
 30 32  1  0  0  0  0
 30 25  1  0  0  0  0
 32 31  2  6  0  0  0
 32 35  1  0  0  0  0
 33 34  1  0  0  0  0
 33 32  1  0  0  0  0
 35 40  1  0  0  0  0
 37 36  1  0  0  0  0
 38 37  1  0  0  0  0
 39 38  1  0  0  0  0
 40 41  1  0  0  0  0
 40 39  1  0  0  0  0
 41 42  1  0  0  0  0
 42 37  1  0  0  0  0
M  END
>  <minimizedAffinity>
-5.7694726

$$$$
