
 OpenBabel03252508503D

 26 28  0  0  0  0  0  0  0  0999 V2000
   45.8790   34.2160   41.0290 C   0  0  0  0  0  0  0  0  0  0  0  0
   46.4930   34.7940   42.1490 C   0  0  0  0  0  0  0  0  0  0  0  0
   47.8600   35.0970   42.0280 C   0  0  0  0  0  0  0  0  0  0  0  0
   48.4950   34.8150   40.8500 N   0  0  0  0  0  0  0  0  0  0  0  0
   47.8600   34.2670   39.8230 C   0  0  0  0  0  0  0  0  0  0  0  0
   46.5500   33.9630   39.9020 N   0  0  0  0  0  0  0  0  0  0  0  0
   48.3330   35.5450   42.8960 H   0  0  0  0  0  0  0  0  0  0  0  0
   48.3560   34.0460   38.9020 H   0  0  0  0  0  0  0  0  0  0  0  0
   45.7280   35.0510   43.3500 C   0  0  0  0  0  0  0  0  0  0  0  0
   45.0910   36.2630   43.5880 C   0  0  0  0  0  0  0  0  0  0  0  0
   44.4950   36.0790   44.8150 C   0  0  0  0  0  0  0  0  0  0  0  0
   44.7510   34.8410   45.2910 N   0  0  0  0  0  0  0  0  0  0  0  0
   45.4940   34.2510   44.3850 N   0  0  0  0  0  0  0  0  0  0  0  0
   45.0710   37.1330   42.9610 H   0  0  0  0  0  0  0  0  0  0  0  0
   43.8960   36.7920   45.3650 H   0  0  0  0  0  0  0  0  0  0  0  0
   44.4330   34.4220   46.1900 H   0  0  0  0  0  0  0  0  0  0  0  0
   44.5400   33.9100   41.1220 O   0  0  0  0  0  0  0  0  0  0  0  0
   43.5050   34.6210   40.5740 C   0  0  0  0  0  0  0  0  0  0  0  0
   43.1630   35.8240   40.8120 O   0  0  0  0  0  0  0  0  0  0  0  0
   42.4990   34.2720   39.5900 N   0  0  0  0  0  0  0  0  0  0  0  0
   41.3740   35.1820   39.5180 C   0  0  0  0  0  2  0  0  0  0  0  0
   40.2540   34.4940   40.3100 C   0  0  0  0  0  2  0  0  0  0  0  0
   40.3970   32.9920   40.0490 C   0  0  0  0  0  3  0  0  0  0  0  0
   41.0490   32.5940   40.8370 H   0  0  0  0  0  0  0  0  0  0  0  0
   40.9830   32.7200   38.6710 C   0  0  0  0  0  2  0  0  0  0  0  0
   42.4600   33.1400   38.6690 C   0  0  0  0  0  2  0  0  0  0  0  0
  1 17  1  0  0  0  0
  1  2  1  0  0  0  0
  2  9  1  0  0  0  0
  3  2  2  0  0  0  0
  3  7  1  0  0  0  0
  4  3  1  0  0  0  0
  5  6  1  0  0  0  0
  5  4  2  0  0  0  0
  6  1  2  0  0  0  0
  8  5  1  0  0  0  0
  9 10  1  0  0  0  0
  9 13  2  0  0  0  0
 10 11  2  0  0  0  0
 11 12  1  0  0  0  0
 11 15  1  0  0  0  0
 12 16  1  0  0  0  0
 13 12  1  0  0  0  0
 14 10  1  0  0  0  0
 18 19  2  0  0  0  0
 18 17  1  0  0  0  0
 20 18  1  0  0  0  0
 21 20  1  0  0  0  0
 21 22  1  0  0  0  0
 23 22  1  0  0  0  0
 23 24  1  0  0  0  0
 25 23  1  0  0  0  0
 26 25  1  0  0  0  0
 26 20  1  0  0  0  0
M  END
>  <minimizedAffinity>
-5.6062088

>  <minimizedRMSD>
0.539785922

$$$$
