
 OpenBabel03252508503D

 26 28  0  0  0  0  0  0  0  0999 V2000
   45.9040   34.0680   41.0470 C   0  0  0  0  0  0  0  0  0  0  0  0
   46.4900   34.7650   42.1140 C   0  0  0  0  0  0  0  0  0  0  0  0
   47.8160   35.1930   41.9290 C   0  0  0  0  0  0  0  0  0  0  0  0
   48.4410   34.9100   40.7460 N   0  0  0  0  0  0  0  0  0  0  0  0
   47.8340   34.2450   39.7720 C   0  0  0  0  0  0  0  0  0  0  0  0
   46.5630   33.8190   39.9130 N   0  0  0  0  0  0  0  0  0  0  0  0
   48.2670   35.7320   42.7550 H   0  0  0  0  0  0  0  0  0  0  0  0
   48.3210   34.0230   38.8470 H   0  0  0  0  0  0  0  0  0  0  0  0
   45.7380   35.0120   43.3250 C   0  0  0  0  0  0  0  0  0  0  0  0
   45.0430   36.1950   43.5480 C   0  0  0  0  0  0  0  0  0  0  0  0
   44.4850   36.0110   44.7920 C   0  0  0  0  0  0  0  0  0  0  0  0
   44.8170   34.8010   45.2920 N   0  0  0  0  0  0  0  0  0  0  0  0
   45.5710   34.2280   44.3850 N   0  0  0  0  0  0  0  0  0  0  0  0
   44.9630   37.0450   42.9000 H   0  0  0  0  0  0  0  0  0  0  0  0
   43.8610   36.7050   45.3390 H   0  0  0  0  0  0  0  0  0  0  0  0
   44.5420   34.3890   46.2100 H   0  0  0  0  0  0  0  0  0  0  0  0
   44.6050   33.6380   41.2030 O   0  0  0  0  0  0  0  0  0  0  0  0
   43.4800   34.2750   40.7510 C   0  0  0  0  0  0  0  0  0  0  0  0
   43.3190   35.5150   40.5120 O   0  0  0  0  0  0  0  0  0  0  0  0
   42.1590   33.7880   40.4080 N   0  0  0  0  0  0  0  0  0  0  0  0
   41.9750   32.3580   40.5680 C   0  0  0  0  0  2  0  0  0  0  0  0
   42.1110   31.7800   39.1550 C   0  0  0  0  0  2  0  0  0  0  0  0
   41.4950   32.8080   38.2010 C   0  0  0  0  0  3  0  0  0  0  0  0
   42.3080   33.4760   37.8890 H   0  0  0  0  0  0  0  0  0  0  0  0
   40.3780   33.5930   38.8770 C   0  0  0  0  0  2  0  0  0  0  0  0
   40.9950   34.5260   39.9280 C   0  0  0  0  0  2  0  0  0  0  0  0
  1 17  1  0  0  0  0
  1  2  1  0  0  0  0
  2  9  1  0  0  0  0
  3  2  2  0  0  0  0
  3  7  1  0  0  0  0
  4  3  1  0  0  0  0
  5  6  1  0  0  0  0
  5  4  2  0  0  0  0
  6  1  2  0  0  0  0
  8  5  1  0  0  0  0
  9 10  1  0  0  0  0
  9 13  2  0  0  0  0
 10 11  2  0  0  0  0
 11 12  1  0  0  0  0
 11 15  1  0  0  0  0
 12 16  1  0  0  0  0
 13 12  1  0  0  0  0
 14 10  1  0  0  0  0
 18 17  1  0  0  0  0
 19 18  2  0  0  0  0
 20 21  1  0  0  0  0
 20 18  1  0  0  0  0
 22 21  1  0  0  0  0
 23 25  1  0  0  0  0
 23 22  1  0  0  0  0
 24 23  1  0  0  0  0
 25 26  1  0  0  0  0
 26 20  1  0  0  0  0
M  END
>  <minimizedAffinity>
-5.44796515

>  <minimizedRMSD>
0.9428069

$$$$
