
 OpenBabel03252503093D

 25 27  0  0  0  0  0  0  0  0999 V2000
   44.7060   35.5620   44.6310 C   0  0  0  0  0  0  0  0  0  0  0  0
   45.4890   34.7000   43.8300 C   0  0  0  0  0  0  0  0  0  0  0  0
   45.9930   33.5920   44.4770 C   0  0  0  0  0  0  0  0  0  0  0  0
   45.7550   33.3530   45.7780 N   0  0  0  0  0  0  0  0  0  0  0  0
   44.9880   34.2230   46.5060 C   0  0  0  0  0  0  0  0  0  0  0  0
   44.4750   35.3110   45.9280 N   0  0  0  0  0  0  0  0  0  0  0  0
   44.2850   36.4500   44.1630 H   0  0  0  0  0  0  0  0  0  0  0  0
   44.8340   33.9740   47.5450 H   0  0  0  0  0  0  0  0  0  0  0  0
   45.6880   35.0370   42.4710 C   0  0  0  0  0  0  0  0  0  0  0  0
   46.8940   35.4820   42.2440 O   0  0  0  0  0  0  0  0  0  0  0  0
   44.5180   34.8360   41.6170 N   0  0  0  0  0  0  0  0  0  0  0  0
   43.4360   35.7560   41.3010 C   0  0  0  0  0  0  0  0  0  0  0  0
   42.0940   35.0130   41.3300 C   0  0  0  0  0  0  0  0  0  0  0  0
   42.0200   34.0700   40.1770 C   0  0  0  0  0  0  0  0  0  0  0  0
   41.5620   34.5980   39.3140 H   0  0  0  0  0  0  0  0  0  0  0  0
   43.4480   33.7610   39.7450 C   0  0  0  0  0  0  0  0  0  0  0  0
   44.3270   33.5580   40.9480 C   0  0  0  0  0  0  0  0  0  0  0  0
   46.7620   32.6840   43.7610 C   0  0  0  0  0  0  0  0  0  0  0  0
   48.0680   32.6130   43.3840 C   0  0  0  0  0  0  0  0  0  0  0  0
   48.6060   31.6440   42.6730 C   0  0  0  0  0  0  0  0  0  0  0  0
   47.7470   30.6380   42.2990 C   0  0  0  0  0  0  0  0  0  0  0  0
   46.1350   31.1840   43.0370 S   0  0  0  0  0  0  0  0  0  0  0  0
   48.8870   33.2630   43.6120 H   0  0  0  0  0  0  0  0  0  0  0  0
   49.5280   31.3230   42.2440 H   0  0  0  0  0  0  0  0  0  0  0  0
   47.6410   29.6970   41.7700 H   0  0  0  0  0  0  0  0  0  0  0  0
  1  6  1  0  0  0  0
  2  3  1  0  0  0  0
  2  1  2  0  0  0  0
  3  4  2  0  0  0  0
  4  5  1  0  0  0  0
  5  8  1  0  0  0  0
  6  5  2  0  0  0  0
  7  1  1  0  0  0  0
  9  2  1  0  0  0  0
 10  9  2  0  0  0  0
 11  9  1  0  0  0  0
 12 13  1  0  0  0  0
 12 11  1  0  0  0  0
 14 13  1  0  0  0  0
 15 14  1  0  0  0  0
 16 14  1  0  0  0  0
 16 17  1  0  0  0  0
 17 11  1  0  0  0  0
 18  3  1  0  0  0  0
 19 23  1  0  0  0  0
 19 18  2  0  0  0  0
 20 19  1  0  0  0  0
 21 20  2  0  0  0  0
 21 22  1  0  0  0  0
 22 18  1  0  0  0  0
 24 20  1  0  0  0  0
 25 21  1  0  0  0  0
M  END
>  <minimizedAffinity>
-4.6671524

>  <minimizedRMSD>
2.14857292

$$$$
