
 OpenBabel03252508503D

 26 28  0  0  0  0  0  0  0  0999 V2000
   45.9550   34.1520   41.0370 C   0  0  0  0  0  0  0  0  0  0  0  0
   46.5350   34.7980   42.1390 C   0  0  0  0  0  0  0  0  0  0  0  0
   47.8780   35.1890   42.0000 C   0  0  0  0  0  0  0  0  0  0  0  0
   48.5230   34.9230   40.8230 N   0  0  0  0  0  0  0  0  0  0  0  0
   47.9210   34.3080   39.8150 C   0  0  0  0  0  0  0  0  0  0  0  0
   46.6340   33.9180   39.9120 N   0  0  0  0  0  0  0  0  0  0  0  0
   48.3250   35.6890   42.8530 H   0  0  0  0  0  0  0  0  0  0  0  0
   48.4240   34.0990   38.8950 H   0  0  0  0  0  0  0  0  0  0  0  0
   45.7620   35.0310   43.3390 C   0  0  0  0  0  0  0  0  0  0  0  0
   45.0660   36.2130   43.5650 C   0  0  0  0  0  0  0  0  0  0  0  0
   44.4840   36.0140   44.7960 C   0  0  0  0  0  0  0  0  0  0  0  0
   44.8030   34.7960   45.2860 N   0  0  0  0  0  0  0  0  0  0  0  0
   45.5720   34.2330   44.3850 N   0  0  0  0  0  0  0  0  0  0  0  0
   45.0010   37.0720   42.9270 H   0  0  0  0  0  0  0  0  0  0  0  0
   43.8510   36.7030   45.3400 H   0  0  0  0  0  0  0  0  0  0  0  0
   44.5090   34.3740   46.1920 H   0  0  0  0  0  0  0  0  0  0  0  0
   44.6400   33.7590   41.1480 O   0  0  0  0  0  0  0  0  0  0  0  0
   43.5530   34.4010   40.6160 C   0  0  0  0  0  0  0  0  0  0  0  0
   43.3040   35.6500   40.6050 O   0  0  0  0  0  0  0  0  0  0  0  0
   42.3790   33.9110   39.9220 N   0  0  0  0  0  0  0  0  0  0  0  0
   41.1610   33.9120   40.7080 C   0  0  0  0  0  2  0  0  0  0  0  0
   40.9880   32.4620   41.1760 C   0  0  0  0  0  2  0  0  0  0  0  0
   41.4900   31.5730   40.0360 C   0  0  0  0  0  3  0  0  0  0  0  0
   42.5570   31.3910   40.2210 H   0  0  0  0  0  0  0  0  0  0  0  0
   41.2800   32.2350   38.6810 C   0  0  0  0  0  2  0  0  0  0  0  0
   42.2510   33.4190   38.5540 C   0  0  0  0  0  2  0  0  0  0  0  0
  1 17  1  0  0  0  0
  1  2  1  0  0  0  0
  2  9  1  0  0  0  0
  3  2  2  0  0  0  0
  3  7  1  0  0  0  0
  4  3  1  0  0  0  0
  5  6  1  0  0  0  0
  5  4  2  0  0  0  0
  6  1  2  0  0  0  0
  8  5  1  0  0  0  0
  9 10  1  0  0  0  0
  9 13  2  0  0  0  0
 10 11  2  0  0  0  0
 11 12  1  0  0  0  0
 11 15  1  0  0  0  0
 12 16  1  0  0  0  0
 13 12  1  0  0  0  0
 14 10  1  0  0  0  0
 18 17  1  0  0  0  0
 19 18  2  0  0  0  0
 20 18  1  0  0  0  0
 20 21  1  0  0  0  0
 21 22  1  0  0  0  0
 23 24  1  0  0  0  0
 23 22  1  0  0  0  0
 25 23  1  0  0  0  0
 26 25  1  0  0  0  0
 26 20  1  0  0  0  0
M  END
>  <minimizedAffinity>
-5.41952562

>  <minimizedRMSD>
0.542154551

$$$$
