
 OpenBabel03252501323D

 22 23  0  0  0  0  0  0  0  0999 V2000
   46.0520   32.9190   43.1310 C   0  0  0  0  0  0  0  0  0  0  0  0
   44.9750   33.3140   42.3610 C   0  0  0  0  0  0  0  0  0  0  0  0
   45.2380   34.0870   41.2470 C   0  0  0  0  0  0  0  0  0  0  0  0
   46.5170   34.3980   40.9920 N   0  0  0  0  0  0  0  0  0  0  0  0
   47.5490   34.0020   41.7530 C   0  0  0  0  0  0  0  0  0  0  0  0
   47.3330   33.2480   42.8480 N   0  0  0  0  0  0  0  0  0  0  0  0
   44.3800   34.3850   40.6600 H   0  0  0  0  0  0  0  0  0  0  0  0
   48.5670   34.2980   41.4770 H   0  0  0  0  0  0  0  0  0  0  0  0
   46.1820   32.9540   45.4630 C   0  0  0  0  0  0  0  0  0  0  0  0
   46.3570   34.1590   45.1370 O   0  0  0  0  0  0  0  0  0  0  0  0
   45.9820   32.1080   44.3360 N   0  0  0  0  0  0  0  0  0  0  0  0
   45.8210   31.0980   44.4370 H   0  0  0  0  0  0  0  0  0  0  0  0
   46.1750   32.4510   46.7960 N   0  0  0  0  0  0  0  0  0  0  0  0
   45.0570   32.6710   47.6640 C   0  0  0  0  0  0  0  0  0  0  0  0
   44.8820   31.3740   48.4610 C   0  0  0  0  0  0  0  0  0  0  0  0
   46.0770   31.1160   49.3350 C   0  0  0  0  0  0  0  0  0  0  0  0
   46.1500   30.0220   49.5250 H   0  0  0  0  0  0  0  0  0  0  0  0
   47.3650   31.6280   48.7740 C   0  0  0  0  0  0  0  0  0  0  0  0
   47.3400   31.7090   47.2420 C   0  0  0  0  0  0  0  0  0  0  0  0
   43.6930   32.8790   42.8040 N   0  0  0  0  0  0  0  0  0  0  0  0
   43.1170   32.3300   42.1280 H   0  0  0  0  0  0  0  0  0  0  0  0
   43.2470   33.0400   43.7310 H   0  0  0  0  0  0  0  0  0  0  0  0
  1 11  1  0  0  0  0
  2 20  1  0  0  0  0
  2  1  2  0  0  0  0
  3  2  1  0  0  0  0
  4  3  2  0  0  0  0
  4  5  1  0  0  0  0
  5  6  2  0  0  0  0
  6  1  1  0  0  0  0
  7  3  1  0  0  0  0
  8  5  1  0  0  0  0
  9 13  1  0  0  0  0
 10  9  2  0  0  0  0
 11 12  1  0  0  0  0
 11  9  1  0  0  0  0
 13 19  1  0  0  0  0
 13 14  1  0  0  0  0
 14 15  1  0  0  0  0
 15 16  1  0  0  0  0
 16 17  1  0  0  0  0
 18 16  1  0  0  0  0
 19 18  1  0  0  0  0
 20 22  1  0  0  0  0
 21 20  1  0  0  0  0
M  END
>  <minimizedAffinity>
-4.48784781

>  <minimizedRMSD>
6.40504503

$$$$
