
 OpenBabel03242519493D

 48 51  0  0  1  0  0  0  0  0999 V2000
   45.1350   29.8480   47.0260 C   0  0  0  0  0  0  0  0  0  0  0  0
   44.2640   30.0230   47.5860 H   0  0  0  0  0  0  0  0  0  0  0  0
   44.5490   29.1900   46.1370 H   0  0  0  0  0  0  0  0  0  0  0  0
   46.1560   28.7830   47.4490 C   0  0  0  0  0  0  0  0  0  0  0  0
   46.4790   29.0340   48.4810 H   0  0  0  0  0  0  0  0  0  0  0  0
   47.0280   28.7780   46.8110 H   0  0  0  0  0  0  0  0  0  0  0  0
   46.3510   26.3740   47.6820 C   0  0  0  0  0  0  0  0  0  0  0  0
   45.5000   27.4740   47.4880 C   0  0  0  0  0  0  0  0  0  0  0  0
   44.1740   27.1380   47.3450 C   0  0  0  0  0  0  0  0  0  0  0  0
   43.6740   25.8720   47.3810 C   0  0  0  0  0  0  0  0  0  0  0  0
   44.5330   24.8010   47.5720 C   0  0  0  0  0  0  0  0  0  0  0  0
   45.9100   25.0620   47.7280 C   0  0  0  0  0  0  0  0  0  0  0  0
   43.5490   28.0160   47.1970 H   0  0  0  0  0  0  0  0  0  0  0  0
   42.6020   25.7440   47.2530 H   0  0  0  0  0  0  0  0  0  0  0  0
   44.0990   23.8110   47.5930 H   0  0  0  0  0  0  0  0  0  0  0  0
   47.7200   26.4070   47.8560 O   0  0  0  0  0  0  0  0  0  0  0  0
   48.2620   27.0250   47.2680 H   0  0  0  0  0  0  0  0  0  0  0  0
   46.6390   23.9550   47.9080 O   0  0  0  0  0  0  0  0  0  0  0  0
   49.8510   21.9310   50.9650 H   0  0  0  0  0  0  0  0  0  0  0  0
   48.8330   22.0200   50.7290 N   0  0  0  0  0  0  0  0  0  0  0  0
   48.4380   21.2640   49.5630 C   0  0  0  0  0  2  0  0  0  0  0  0
   47.9810   22.1230   48.4320 C   0  0  0  0  0  2  0  0  0  0  0  0
   46.7270   22.9280   48.7900 C   0  0  0  0  0  3  0  0  0  0  0  0
   47.0350   23.5250   50.1680 C   0  0  0  0  0  2  0  0  0  0  0  0
   48.4940   23.4170   50.5230 C   0  0  0  0  0  2  0  0  0  0  0  0
   45.6540   30.7800   46.2220 O   0  0  0  0  0  0  0  0  0  0  0  0
   45.3730   32.9460   45.2770 C   0  0  2  0  0  0  0  0  0  0  0  0
   46.6840   33.4450   44.8630 C   0  0  1  0  0  0  0  0  0  0  0  0
   47.6120   32.4030   45.3730 O   0  0  0  0  0  0  0  0  0  0  0  0
   47.1990   32.4430   46.6980 C   0  0  0  0  0  0  0  0  0  0  0  0
   45.6220   32.0910   46.4740 C   0  0  2  0  0  0  0  0  0  0  0  0
   44.6280   33.7400   45.4490 H   0  0  0  0  0  0  0  0  0  0  0  0
   47.0220   34.3290   45.4520 H   0  0  0  0  0  0  0  0  0  0  0  0
   47.2460   33.4330   47.1420 H   0  0  0  0  0  0  0  0  0  0  0  0
   47.6320   31.6130   47.2490 H   0  0  0  0  0  0  0  0  0  0  0  0
   45.2940   32.4360   47.4700 H   0  0  0  0  0  0  0  0  0  0  0  0
   45.9970   34.3700   41.4040 C   0  0  0  0  0  0  0  0  0  0  0  0
   47.1690   34.0460   40.7320 C   0  0  0  0  0  0  0  0  0  0  0  0
   48.2300   33.4840   41.4680 C   0  0  0  0  0  0  0  0  0  0  0  0
   48.0680   33.2810   42.7950 N   0  0  0  0  0  0  0  0  0  0  0  0
   46.9210   33.6030   43.4300 C   0  0  0  0  0  0  0  0  0  0  0  0
   45.8760   34.1490   42.7430 N   0  0  0  0  0  0  0  0  0  0  0  0
   47.1840   34.2530   39.6680 H   0  0  0  0  0  0  0  0  0  0  0  0
   49.1220   33.2430   40.9260 H   0  0  0  0  0  0  0  0  0  0  0  0
   44.9140   34.9280   40.7240 O   0  0  0  0  0  0  0  0  0  0  0  0
   44.5120   34.5600   39.8880 H   0  0  0  0  0  0  0  0  0  0  0  0
   44.8670   32.0670   44.2300 O   0  0  0  0  0  0  0  0  0  0  0  0
   45.5350   31.3360   44.2230 H   0  0  0  0  0  0  0  0  0  0  0  0
  1  4  1  0  0  0  0
  1  2  1  0  0  0  0
  3  1  1  0  0  0  0
  4  8  1  0  0  0  0
  4  5  1  0  0  0  0
  6  4  1  0  0  0  0
  7 12  1  0  0  0  0
  7 16  1  0  0  0  0
  8  7  2  0  0  0  0
  9 10  2  0  0  0  0
  9  8  1  0  0  0  0
 10 11  1  0  0  0  0
 11 15  1  0  0  0  0
 11 12  2  0  0  0  0
 12 18  1  0  0  0  0
 13  9  1  0  0  0  0
 14 10  1  0  0  0  0
 17 16  1  0  0  0  0
 18 23  1  0  0  0  0
 20 19  1  0  0  0  0
 21 20  1  0  0  0  0
 22 23  1  0  0  0  0
 22 21  1  0  0  0  0
 23 24  1  0  0  0  0
 24 25  1  0  0  0  0
 25 20  1  0  0  0  0
 26 31  1  0  0  0  0
 26  1  1  0  0  0  0
 27 32  1  1  0  0  0
 27 31  1  0  0  0  0
 28 27  1  0  0  0  0
 28 29  1  0  0  0  0
 28 33  1  1  0  0  0
 29 30  1  0  0  0  0
 30 34  1  0  0  0  0
 30 35  1  0  0  0  0
 31 30  1  0  0  0  0
 31 36  1  1  0  0  0
 37 42  1  0  0  0  0
 38 37  2  0  0  0  0
 38 39  1  0  0  0  0
 39 40  2  0  0  0  0
 40 41  1  0  0  0  0
 41 28  1  0  0  0  0
 42 41  2  0  0  0  0
 43 38  1  0  0  0  0
 44 39  1  0  0  0  0
 45 37  1  0  0  0  0
 46 45  1  0  0  0  0
 47 27  1  0  0  0  0
 48 47  1  0  0  0  0
M  END
>  <minimizedAffinity>
-4.68111944

>  <minimizedRMSD>
6.36679888

$$$$
