
 OpenBabel03242519493D

 48 51  0  0  1  0  0  0  0  0999 V2000
   45.1460   28.7170   48.8290 C   0  0  0  0  0  0  0  0  0  0  0  0
   45.3510   28.3610   49.7960 H   0  0  0  0  0  0  0  0  0  0  0  0
   43.9210   28.4700   48.8920 H   0  0  0  0  0  0  0  0  0  0  0  0
   45.4730   27.8810   47.5850 C   0  0  0  0  0  0  0  0  0  0  0  0
   45.9690   26.9530   47.9370 H   0  0  0  0  0  0  0  0  0  0  0  0
   46.1480   28.3940   46.9150 H   0  0  0  0  0  0  0  0  0  0  0  0
   43.6920   28.4550   46.0370 C   0  0  0  0  0  0  0  0  0  0  0  0
   44.2270   27.5000   46.9170 C   0  0  0  0  0  0  0  0  0  0  0  0
   43.4730   26.3550   47.0250 C   0  0  0  0  0  0  0  0  0  0  0  0
   42.3080   26.1130   46.3640 C   0  0  0  0  0  0  0  0  0  0  0  0
   41.7980   27.0700   45.5010 C   0  0  0  0  0  0  0  0  0  0  0  0
   42.5130   28.2740   45.3340 C   0  0  0  0  0  0  0  0  0  0  0  0
   43.9200   25.6410   47.7150 H   0  0  0  0  0  0  0  0  0  0  0  0
   41.8090   25.1630   46.5410 H   0  0  0  0  0  0  0  0  0  0  0  0
   40.8700   26.8420   44.9950 H   0  0  0  0  0  0  0  0  0  0  0  0
   44.2280   29.6890   45.7300 O   0  0  0  0  0  0  0  0  0  0  0  0
   44.6070   30.2460   46.4830 H   0  0  0  0  0  0  0  0  0  0  0  0
   41.9290   29.1200   44.4780 O   0  0  0  0  0  0  0  0  0  0  0  0
   38.7770   31.6310   41.7360 H   0  0  0  0  0  0  0  0  0  0  0  0
   39.5670   30.9400   41.7160 N   0  0  0  0  0  0  0  0  0  0  0  0
   39.1880   29.6130   42.1400 C   0  0  0  0  0  2  0  0  0  0  0  0
   39.8630   29.1810   43.3980 C   0  0  0  0  0  2  0  0  0  0  0  0
   41.3840   29.0940   43.2350 C   0  0  0  0  0  3  0  0  0  0  0  0
   41.7700   30.4010   42.5320 C   0  0  0  0  0  2  0  0  0  0  0  0
   40.6540   31.4110   42.5570 C   0  0  0  0  0  2  0  0  0  0  0  0
   45.0350   30.0220   48.5690 O   0  0  0  0  0  0  0  0  0  0  0  0
   45.7380   32.2850   48.3510 C   0  0  2  0  0  0  0  0  0  0  0  0
   46.7630   32.3540   47.3110 C   0  0  1  0  0  0  0  0  0  0  0  0
   46.9930   30.9250   46.9750 O   0  0  0  0  0  0  0  0  0  0  0  0
   47.2850   30.4940   48.2620 C   0  0  0  0  0  0  0  0  0  0  0  0
   45.8990   30.9480   48.9940 C   0  0  2  0  0  0  0  0  0  0  0  0
   45.7700   33.1250   49.0650 H   0  0  0  0  0  0  0  0  0  0  0  0
   47.7670   32.6380   47.7030 H   0  0  0  0  0  0  0  0  0  0  0  0
   48.0920   31.0470   48.7370 H   0  0  0  0  0  0  0  0  0  0  0  0
   47.3180   29.4090   48.2950 H   0  0  0  0  0  0  0  0  0  0  0  0
   46.2940   30.8800   50.0220 H   0  0  0  0  0  0  0  0  0  0  0  0
   45.0440   34.7210   45.1340 C   0  0  0  0  0  0  0  0  0  0  0  0
   45.6610   34.5500   43.9010 C   0  0  0  0  0  0  0  0  0  0  0  0
   46.6880   33.5940   43.7920 C   0  0  0  0  0  0  0  0  0  0  0  0
   47.0340   32.8810   44.8880 N   0  0  0  0  0  0  0  0  0  0  0  0
   46.4230   33.0610   46.0780 C   0  0  0  0  0  0  0  0  0  0  0  0
   45.4240   33.9810   46.2130 N   0  0  0  0  0  0  0  0  0  0  0  0
   45.3000   35.1780   43.0940 H   0  0  0  0  0  0  0  0  0  0  0  0
   47.1470   33.4820   42.8310 H   0  0  0  0  0  0  0  0  0  0  0  0
   44.0190   35.6540   45.2980 O   0  0  0  0  0  0  0  0  0  0  0  0
   43.2120   35.7260   44.7150 H   0  0  0  0  0  0  0  0  0  0  0  0
   44.4310   32.2880   47.7060 O   0  0  0  0  0  0  0  0  0  0  0  0
   44.4510   31.4510   47.1770 H   0  0  0  0  0  0  0  0  0  0  0  0
  1  3  1  0  0  0  0
  1  2  1  0  0  0  0
  4  5  1  0  0  0  0
  4  1  1  0  0  0  0
  6  4  1  0  0  0  0
  7  8  1  0  0  0  0
  8  9  2  0  0  0  0
  8  4  1  0  0  0  0
  9 13  1  0  0  0  0
 10 14  1  0  0  0  0
 10  9  1  0  0  0  0
 11 10  2  0  0  0  0
 12 11  1  0  0  0  0
 12  7  2  0  0  0  0
 15 11  1  0  0  0  0
 16  7  1  0  0  0  0
 16 17  1  0  0  0  0
 18 12  1  0  0  0  0
 20 19  1  0  0  0  0
 20 21  1  0  0  0  0
 20 25  1  0  0  0  0
 21 22  1  0  0  0  0
 23 22  1  0  0  0  0
 23 18  1  0  0  0  0
 24 25  1  0  0  0  0
 24 23  1  0  0  0  0
 26  1  1  0  0  0  0
 26 31  1  0  0  0  0
 27 31  1  0  0  0  0
 27 32  1  1  0  0  0
 28 33  1  1  0  0  0
 28 27  1  0  0  0  0
 29 28  1  0  0  0  0
 29 30  1  0  0  0  0
 30 35  1  0  0  0  0
 30 34  1  0  0  0  0
 30 31  1  0  0  0  0
 31 36  1  1  0  0  0
 37 45  1  0  0  0  0
 37 42  1  0  0  0  0
 38 37  2  0  0  0  0
 39 38  1  0  0  0  0
 39 40  2  0  0  0  0
 40 41  1  0  0  0  0
 41 42  2  0  0  0  0
 41 28  1  0  0  0  0
 43 38  1  0  0  0  0
 44 39  1  0  0  0  0
 46 45  1  0  0  0  0
 47 27  1  0  0  0  0
 48 47  1  0  0  0  0
M  END
>  <minimizedAffinity>
-6.18363094

>  <minimizedRMSD>
1.75203156

$$$$
