
 OpenBabel03242519493D

 48 51  0  0  1  0  0  0  0  0999 V2000
   45.1720   28.0150   48.0340 C   0  0  0  0  0  0  0  0  0  0  0  0
   45.5870   27.5380   48.8730 H   0  0  0  0  0  0  0  0  0  0  0  0
   43.9890   27.8830   48.4210 H   0  0  0  0  0  0  0  0  0  0  0  0
   45.0420   27.2920   46.6870 C   0  0  0  0  0  0  0  0  0  0  0  0
   45.4420   26.2660   46.8280 H   0  0  0  0  0  0  0  0  0  0  0  0
   45.6130   27.7760   45.9070 H   0  0  0  0  0  0  0  0  0  0  0  0
   43.0700   28.2900   45.6810 C   0  0  0  0  0  0  0  0  0  0  0  0
   43.6250   27.1770   46.3350 C   0  0  0  0  0  0  0  0  0  0  0  0
   42.7320   26.1560   46.5570 C   0  0  0  0  0  0  0  0  0  0  0  0
   41.4190   26.1650   46.1990 C   0  0  0  0  0  0  0  0  0  0  0  0
   40.8920   27.2730   45.5560 C   0  0  0  0  0  0  0  0  0  0  0  0
   41.7440   28.3650   45.2900 C   0  0  0  0  0  0  0  0  0  0  0  0
   43.2010   25.3140   47.0650 H   0  0  0  0  0  0  0  0  0  0  0  0
   40.8200   25.2880   46.4360 H   0  0  0  0  0  0  0  0  0  0  0  0
   39.8450   27.2430   45.2890 H   0  0  0  0  0  0  0  0  0  0  0  0
   43.7220   29.4530   45.3270 O   0  0  0  0  0  0  0  0  0  0  0  0
   44.3610   29.8640   45.9930 H   0  0  0  0  0  0  0  0  0  0  0  0
   41.1270   29.3740   44.6650 O   0  0  0  0  0  0  0  0  0  0  0  0
   40.1450   27.6230   40.2250 H   0  0  0  0  0  0  0  0  0  0  0  0
   40.1210   28.4770   40.8320 N   0  0  0  0  0  0  0  0  0  0  0  0
   41.4200   29.0680   41.0540 C   0  0  0  0  0  2  0  0  0  0  0  0
   41.8540   29.0130   42.4810 C   0  0  0  0  0  2  0  0  0  0  0  0
   40.9250   29.8140   43.3980 C   0  0  0  0  0  3  0  0  0  0  0  0
   39.5120   29.3880   42.9790 C   0  0  0  0  0  2  0  0  0  0  0  0
   39.5230   28.1550   42.1140 C   0  0  0  0  0  2  0  0  0  0  0  0
   45.1560   29.3450   47.9180 O   0  0  0  0  0  0  0  0  0  0  0  0
   45.9400   31.5890   48.0500 C   0  0  2  0  0  0  0  0  0  0  0  0
   46.9090   31.8050   46.9770 C   0  0  1  0  0  0  0  0  0  0  0  0
   47.0610   30.4500   46.3880 O   0  0  0  0  0  0  0  0  0  0  0  0
   47.4040   29.7930   47.5610 C   0  0  0  0  0  0  0  0  0  0  0  0
   46.0790   30.1560   48.4420 C   0  0  2  0  0  0  0  0  0  0  0  0
   46.0450   32.2890   48.8950 H   0  0  0  0  0  0  0  0  0  0  0  0
   47.9440   31.9840   47.3510 H   0  0  0  0  0  0  0  0  0  0  0  0
   48.2570   30.2280   48.0750 H   0  0  0  0  0  0  0  0  0  0  0  0
   47.3930   28.7180   47.4050 H   0  0  0  0  0  0  0  0  0  0  0  0
   46.5260   29.8970   49.4180 H   0  0  0  0  0  0  0  0  0  0  0  0
   45.1700   34.5640   45.3460 C   0  0  0  0  0  0  0  0  0  0  0  0
   45.7160   34.5940   44.0690 C   0  0  0  0  0  0  0  0  0  0  0  0
   46.7000   33.6440   43.7370 C   0  0  0  0  0  0  0  0  0  0  0  0
   47.0750   32.7400   44.6710 N   0  0  0  0  0  0  0  0  0  0  0  0
   46.5330   32.7260   45.9070 C   0  0  0  0  0  0  0  0  0  0  0  0
   45.5780   33.6360   46.2570 N   0  0  0  0  0  0  0  0  0  0  0  0
   45.3370   35.3630   43.4050 H   0  0  0  0  0  0  0  0  0  0  0  0
   47.1030   33.6890   42.7460 H   0  0  0  0  0  0  0  0  0  0  0  0
   44.1910   35.4820   45.7280 O   0  0  0  0  0  0  0  0  0  0  0  0
   43.3580   35.6770   45.2130 H   0  0  0  0  0  0  0  0  0  0  0  0
   44.6010   31.7450   47.4960 O   0  0  0  0  0  0  0  0  0  0  0  0
   44.5580   31.0130   46.8300 H   0  0  0  0  0  0  0  0  0  0  0  0
  1  3  1  0  0  0  0
  1  2  1  0  0  0  0
  4  5  1  0  0  0  0
  4  1  1  0  0  0  0
  6  4  1  0  0  0  0
  7  8  1  0  0  0  0
  8  9  2  0  0  0  0
  8  4  1  0  0  0  0
  9 13  1  0  0  0  0
 10 14  1  0  0  0  0
 10  9  1  0  0  0  0
 11 10  2  0  0  0  0
 12 11  1  0  0  0  0
 12  7  2  0  0  0  0
 15 11  1  0  0  0  0
 16  7  1  0  0  0  0
 16 17  1  0  0  0  0
 18 12  1  0  0  0  0
 19 20  1  0  0  0  0
 20 21  1  0  0  0  0
 20 25  1  0  0  0  0
 21 22  1  0  0  0  0
 22 23  1  0  0  0  0
 23 18  1  0  0  0  0
 24 23  1  0  0  0  0
 25 24  1  0  0  0  0
 26  1  1  0  0  0  0
 26 31  1  0  0  0  0
 27 31  1  0  0  0  0
 27 32  1  1  0  0  0
 28 33  1  1  0  0  0
 28 27  1  0  0  0  0
 29 28  1  0  0  0  0
 29 30  1  0  0  0  0
 30 34  1  0  0  0  0
 30 31  1  0  0  0  0
 31 36  1  1  0  0  0
 35 30  1  0  0  0  0
 37 45  1  0  0  0  0
 37 42  1  0  0  0  0
 38 37  2  0  0  0  0
 39 38  1  0  0  0  0
 39 40  2  0  0  0  0
 40 41  1  0  0  0  0
 41 42  2  0  0  0  0
 41 28  1  0  0  0  0
 43 38  1  0  0  0  0
 44 39  1  0  0  0  0
 46 45  1  0  0  0  0
 47 27  1  0  0  0  0
 48 47  1  0  0  0  0
M  END
>  <minimizedAffinity>
-5.94603491

>  <minimizedRMSD>
1.67018962

$$$$
