
 OpenBabel03242513113D

 18 19  0  0  0  0  0  0  0  0999 V2000
   44.5920   36.0470   44.5320 C   0  0  0  0  0  0  0  0  0  0  0  0
   45.2900   35.9080   43.3290 C   0  0  0  0  0  0  0  0  0  0  0  0
   46.0950   34.7700   43.2100 C   0  0  0  0  0  0  0  0  0  0  0  0
   46.1410   33.8990   44.2470 N   0  0  0  0  0  0  0  0  0  0  0  0
   45.4580   34.0630   45.3860 C   0  0  0  0  0  0  0  0  0  0  0  0
   44.6770   35.1560   45.5200 N   0  0  0  0  0  0  0  0  0  0  0  0
   43.9500   36.9220   44.6720 H   0  0  0  0  0  0  0  0  0  0  0  0
   45.2060   36.6320   42.5580 H   0  0  0  0  0  0  0  0  0  0  0  0
   46.6610   34.6080   42.2970 H   0  0  0  0  0  0  0  0  0  0  0  0
   45.5080   33.1310   46.4970 C   0  0  0  0  0  0  0  0  0  0  0  0
   45.0080   33.4040   47.6290 O   0  0  0  0  0  0  0  0  0  0  0  0
   46.1330   31.8660   46.3270 N   0  0  0  0  0  0  0  0  0  0  0  0
   47.2400   31.7080   45.3840 C   0  0  0  0  0  2  0  0  0  0  0  0
   47.7420   30.2730   45.4730 C   0  0  0  0  0  2  0  0  0  0  0  0
   48.0800   29.8890   46.8770 C   0  0  0  0  0  3  0  0  0  0  0  0
   48.3440   28.8030   46.8520 H   0  0  0  0  0  0  0  0  0  0  0  0
   46.8770   30.0570   47.7740 C   0  0  0  0  0  2  0  0  0  0  0  0
   45.6980   30.7000   47.0740 C   0  0  0  0  0  2  0  0  0  0  0  0
  1  7  1  0  0  0  0
  1  6  1  0  0  0  0
  2  1  2  0  0  0  0
  3  2  1  0  0  0  0
  3  4  2  0  0  0  0
  4  5  1  0  0  0  0
  5  6  2  0  0  0  0
  5 10  1  0  0  0  0
  8  2  1  0  0  0  0
  9  3  1  0  0  0  0
 10 11  2  0  0  0  0
 12 10  1  0  0  0  0
 12 18  1  0  0  0  0
 13 14  1  0  0  0  0
 13 12  1  0  0  0  0
 14 15  1  0  0  0  0
 15 17  1  0  0  0  0
 16 15  1  0  0  0  0
 18 17  1  0  0  0  0
M  END
>  <minimizedAffinity>
-4.33531857

>  <minimizedRMSD>
0.913390577

$$$$
