
 OpenBabel03252500483D

 26 28  0  0  0  0  0  0  0  0999 V2000
   44.7260   35.1560   45.2900 C   0  0  0  0  0  0  0  0  0  0  0  0
   45.4920   35.0140   44.1420 C   0  0  0  0  0  0  0  0  0  0  0  0
   46.4300   34.0020   44.0600 C   0  0  0  0  0  0  0  0  0  0  0  0
   46.5610   33.1650   45.1460 N   0  0  0  0  0  0  0  0  0  0  0  0
   45.8180   33.3150   46.2380 C   0  0  0  0  0  0  0  0  0  0  0  0
   44.9160   34.2940   46.3090 N   0  0  0  0  0  0  0  0  0  0  0  0
   43.9750   35.9250   45.4190 H   0  0  0  0  0  0  0  0  0  0  0  0
   47.0460   33.8590   43.1820 H   0  0  0  0  0  0  0  0  0  0  0  0
   45.9760   32.4180   47.3780 C   0  0  0  0  0  0  0  0  0  0  0  0
   47.1960   31.9710   47.7760 C   0  0  0  0  0  0  0  0  0  0  0  0
   47.4260   31.1320   48.8300 C   0  0  0  0  0  0  0  0  0  0  0  0
   46.3280   30.7410   49.5010 N   0  0  0  0  0  0  0  0  0  0  0  0
   45.1110   31.1790   49.1140 C   0  0  0  0  0  0  0  0  0  0  0  0
   44.8760   32.0100   48.0710 N   0  0  0  0  0  0  0  0  0  0  0  0
   48.0490   32.3370   47.1730 H   0  0  0  0  0  0  0  0  0  0  0  0
   48.4270   30.8150   49.0910 H   0  0  0  0  0  0  0  0  0  0  0  0
   44.1790   30.8870   49.6330 H   0  0  0  0  0  0  0  0  0  0  0  0
   45.3010   35.9370   43.0360 C   0  0  0  0  0  0  0  0  0  0  0  0
   45.1050   35.4120   41.8940 O   0  0  0  0  0  0  0  0  0  0  0  0
   45.3270   37.3580   43.1960 N   0  0  0  0  0  0  0  0  0  0  0  0
   46.3920   37.8970   44.0080 C   0  0  0  0  0  3  0  0  0  0  0  0
   46.3270   39.3570   44.2650 C   0  0  0  0  0  3  0  0  0  0  0  0
   45.2330   40.1030   43.5840 C   0  0  0  0  0  3  0  0  0  0  0  0
   44.2980   40.1710   44.1810 H   0  0  0  0  0  0  0  0  0  0  0  0
   44.8530   39.5030   42.2460 C   0  0  0  0  0  2  0  0  0  0  0  0
   44.2960   38.1390   42.5400 C   0  0  0  0  0  2  0  0  0  0  0  0
  1  7  1  0  0  0  0
  1  6  1  0  0  0  0
  2  1  2  0  0  0  0
  3  2  1  0  0  0  0
  3  4  2  0  0  0  0
  4  5  1  0  0  0  0
  5  6  2  0  0  0  0
  5  9  1  0  0  0  0
  8  3  1  0  0  0  0
  9 10  2  0  0  0  0
  9 14  1  0  0  0  0
 10 11  1  0  0  0  0
 11 16  1  0  0  0  0
 11 12  2  0  0  0  0
 13 12  1  0  0  0  0
 13 17  1  0  0  0  0
 14 13  2  0  0  0  0
 15 10  1  0  0  0  0
 18 20  1  0  0  0  0
 18  2  1  0  0  0  0
 19 18  2  0  0  0  0
 20 21  1  0  0  0  0
 21 22  2  0  0  0  0
 23 24  1  0  0  0  0
 23 22  1  0  0  0  0
 25 26  1  0  0  0  0
 25 23  1  0  0  0  0
 26 20  1  0  0  0  0
M  END
>  <minimizedAffinity>
1.58509994

>  <minimizedRMSD>
0.816280603

$$$$
