
 OpenBabel03252500493D

 26 28  0  0  0  0  0  0  0  0999 V2000
   39.2650   30.5610   39.7200 C   0  0  0  0  0  0  0  0  0  0  0  0
   38.4840   31.2280   40.6520 C   0  0  0  0  0  0  0  0  0  0  0  0
   38.8280   32.5070   41.0500 C   0  0  0  0  0  0  0  0  0  0  0  0
   39.9540   33.0670   40.4890 N   0  0  0  0  0  0  0  0  0  0  0  0
   40.6910   32.4130   39.5970 C   0  0  0  0  0  0  0  0  0  0  0  0
   40.3510   31.1810   39.2190 N   0  0  0  0  0  0  0  0  0  0  0  0
   39.0520   29.5600   39.3650 H   0  0  0  0  0  0  0  0  0  0  0  0
   38.2440   33.0600   41.7750 H   0  0  0  0  0  0  0  0  0  0  0  0
   41.8810   33.0250   39.0180 C   0  0  0  0  0  0  0  0  0  0  0  0
   43.0480   33.1180   39.7080 C   0  0  0  0  0  0  0  0  0  0  0  0
   44.2050   33.6750   39.2380 C   0  0  0  0  0  0  0  0  0  0  0  0
   44.1380   34.1600   37.9850 N   0  0  0  0  0  0  0  0  0  0  0  0
   42.9830   34.0720   37.2900 C   0  0  0  0  0  0  0  0  0  0  0  0
   41.8340   33.5220   37.7500 N   0  0  0  0  0  0  0  0  0  0  0  0
   43.0230   32.6980   40.7320 H   0  0  0  0  0  0  0  0  0  0  0  0
   45.0990   33.7160   39.8440 H   0  0  0  0  0  0  0  0  0  0  0  0
   42.8780   34.4550   36.2570 H   0  0  0  0  0  0  0  0  0  0  0  0
   37.3100   30.5730   41.2040 C   0  0  0  0  0  0  0  0  0  0  0  0
   36.1970   31.1540   41.0060 O   0  0  0  0  0  0  0  0  0  0  0  0
   37.3770   29.3430   41.9320 N   0  0  0  0  0  0  0  0  0  0  0  0
   36.6390   28.2280   41.3880 C   0  0  0  0  0  3  0  0  0  0  0  0
   36.6200   27.0030   42.2240 C   0  0  0  0  0  3  0  0  0  0  0  0
   37.4340   27.0350   43.4690 C   0  0  0  0  0  3  0  0  0  0  0  0
   36.8780   27.3950   44.3600 H   0  0  0  0  0  0  0  0  0  0  0  0
   38.6680   27.9060   43.3450 C   0  0  0  0  0  2  0  0  0  0  0  0
   38.1720   29.3100   43.1450 C   0  0  0  0  0  2  0  0  0  0  0  0
  1  2  1  0  0  0  0
  2  3  2  0  0  0  0
  2 18  1  0  0  0  0
  3  8  1  0  0  0  0
  4  3  1  0  0  0  0
  5  4  2  0  0  0  0
  6  5  1  0  0  0  0
  6  1  2  0  0  0  0
  7  1  1  0  0  0  0
  9  5  1  0  0  0  0
  9 10  1  0  0  0  0
 10 15  1  0  0  0  0
 11 10  2  0  0  0  0
 11 16  1  0  0  0  0
 12 11  1  0  0  0  0
 13 14  1  0  0  0  0
 13 12  2  0  0  0  0
 14  9  2  0  0  0  0
 17 13  1  0  0  0  0
 18 20  1  0  0  0  0
 19 18  2  0  0  0  0
 20 26  1  0  0  0  0
 21 20  1  0  0  0  0
 21 22  2  0  0  0  0
 22 23  1  0  0  0  0
 23 24  1  0  0  0  0
 25 23  1  0  0  0  0
 26 25  1  0  0  0  0
M  END
>  <minimizedAffinity>
-5.10672188

$$$$

 OpenBabel03252500493D

 26 28  0  0  0  0  0  0  0  0999 V2000
   37.7730   28.6760   40.8840 C   0  0  0  0  0  0  0  0  0  0  0  0
   37.8090   28.2300   42.1980 C   0  0  0  0  0  0  0  0  0  0  0  0
   38.4470   28.9850   43.1640 C   0  0  0  0  0  0  0  0  0  0  0  0
   39.0290   30.1680   42.7670 N   0  0  0  0  0  0  0  0  0  0  0  0
   38.9850   30.5800   41.5040 C   0  0  0  0  0  0  0  0  0  0  0  0
   38.3670   29.8460   40.5790 N   0  0  0  0  0  0  0  0  0  0  0  0
   37.2900   28.1350   40.0800 H   0  0  0  0  0  0  0  0  0  0  0  0
   38.4970   28.6710   44.1990 H   0  0  0  0  0  0  0  0  0  0  0  0
   39.6110   31.8360   41.1050 C   0  0  0  0  0  0  0  0  0  0  0  0
   40.9610   31.9770   41.0450 C   0  0  0  0  0  0  0  0  0  0  0  0
   41.6220   33.1180   40.6810 C   0  0  0  0  0  0  0  0  0  0  0  0
   40.8340   34.1610   40.3660 N   0  0  0  0  0  0  0  0  0  0  0  0
   39.4910   34.0310   40.4230 C   0  0  0  0  0  0  0  0  0  0  0  0
   38.8300   32.9050   40.7820 N   0  0  0  0  0  0  0  0  0  0  0  0
   41.5400   31.0750   41.3190 H   0  0  0  0  0  0  0  0  0  0  0  0
   42.7030   33.1600   40.6560 H   0  0  0  0  0  0  0  0  0  0  0  0
   38.8010   34.8590   40.1740 H   0  0  0  0  0  0  0  0  0  0  0  0
   37.1750   26.9690   42.5430 C   0  0  0  0  0  0  0  0  0  0  0  0
   36.2260   27.0300   43.3880 O   0  0  0  0  0  0  0  0  0  0  0  0
   37.5770   25.7170   41.9790 N   0  0  0  0  0  0  0  0  0  0  0  0
   36.5740   24.9890   41.2390 C   0  0  0  0  0  3  0  0  0  0  0  0
   36.9750   23.6390   40.7720 C   0  0  0  0  0  3  0  0  0  0  0  0
   38.3830   23.2350   41.0370 C   0  0  0  0  0  3  0  0  0  0  0  0
   38.5230   22.7100   42.0060 H   0  0  0  0  0  0  0  0  0  0  0  0
   39.3430   24.4070   41.0350 C   0  0  0  0  0  2  0  0  0  0  0  0
   38.9440   25.2810   42.1900 C   0  0  0  0  0  2  0  0  0  0  0  0
  1  2  1  0  0  0  0
  2 18  1  0  0  0  0
  2  3  2  0  0  0  0
  3  8  1  0  0  0  0
  4  3  1  0  0  0  0
  5  4  2  0  0  0  0
  6  1  2  0  0  0  0
  6  5  1  0  0  0  0
  7  1  1  0  0  0  0
  9  5  1  0  0  0  0
 10  9  1  0  0  0  0
 10 15  1  0  0  0  0
 11 10  2  0  0  0  0
 12 13  2  0  0  0  0
 12 11  1  0  0  0  0
 13 14  1  0  0  0  0
 14  9  2  0  0  0  0
 16 11  1  0  0  0  0
 17 13  1  0  0  0  0
 18 19  2  0  0  0  0
 20 26  1  0  0  0  0
 20 18  1  0  0  0  0
 21 20  1  0  0  0  0
 22 23  1  0  0  0  0
 22 21  2  0  0  0  0
 23 24  1  0  0  0  0
 25 23  1  0  0  0  0
 25 26  1  0  0  0  0
M  END
>  <minimizedAffinity>
-4.98099709

$$$$

 OpenBabel03252500493D

 26 28  0  0  0  0  0  0  0  0999 V2000
   37.1150   28.0510   40.5880 C   0  0  0  0  0  0  0  0  0  0  0  0
   37.3940   27.6220   41.8770 C   0  0  0  0  0  0  0  0  0  0  0  0
   37.9060   28.5110   42.8030 C   0  0  0  0  0  0  0  0  0  0  0  0
   38.1180   29.8090   42.3920 N   0  0  0  0  0  0  0  0  0  0  0  0
   37.8440   30.2030   41.1530 C   0  0  0  0  0  0  0  0  0  0  0  0
   37.3500   29.3380   40.2660 N   0  0  0  0  0  0  0  0  0  0  0  0
   36.7120   27.4080   39.8150 H   0  0  0  0  0  0  0  0  0  0  0  0
   38.1380   28.2150   43.8180 H   0  0  0  0  0  0  0  0  0  0  0  0
   38.0780   31.5820   40.7380 C   0  0  0  0  0  0  0  0  0  0  0  0
   37.1780   32.2660   39.9840 C   0  0  0  0  0  0  0  0  0  0  0  0
   37.3230   33.5570   39.5560 C   0  0  0  0  0  0  0  0  0  0  0  0
   38.4640   34.1610   39.9340 N   0  0  0  0  0  0  0  0  0  0  0  0
   39.3640   33.4890   40.6830 C   0  0  0  0  0  0  0  0  0  0  0  0
   39.2270   32.2110   41.1100 N   0  0  0  0  0  0  0  0  0  0  0  0
   36.2660   31.7010   39.7130 H   0  0  0  0  0  0  0  0  0  0  0  0
   36.5650   34.0410   38.9560 H   0  0  0  0  0  0  0  0  0  0  0  0
   40.3170   33.9410   41.0190 H   0  0  0  0  0  0  0  0  0  0  0  0
   37.1490   26.2360   42.2390 C   0  0  0  0  0  0  0  0  0  0  0  0
   36.4830   26.0440   43.3050 O   0  0  0  0  0  0  0  0  0  0  0  0
   37.6170   25.1330   41.4570 N   0  0  0  0  0  0  0  0  0  0  0  0
   36.6140   24.2380   40.9340 C   0  0  0  0  0  3  0  0  0  0  0  0
   37.1290   23.0350   40.2350 C   0  0  0  0  0  3  0  0  0  0  0  0
   38.6050   22.9410   40.0750 C   0  0  0  0  0  3  0  0  0  0  0  0
   39.1140   22.4130   40.9090 H   0  0  0  0  0  0  0  0  0  0  0  0
   39.2720   24.2950   39.9460 C   0  0  0  0  0  2  0  0  0  0  0  0
   39.0480   25.0010   41.2530 C   0  0  0  0  0  2  0  0  0  0  0  0
  1  2  1  0  0  0  0
  2 18  1  0  0  0  0
  2  3  2  0  0  0  0
  3  8  1  0  0  0  0
  4  3  1  0  0  0  0
  5  4  2  0  0  0  0
  6  1  2  0  0  0  0
  6  5  1  0  0  0  0
  7  1  1  0  0  0  0
  9 14  1  0  0  0  0
  9  5  1  0  0  0  0
 10  9  2  0  0  0  0
 11 12  2  0  0  0  0
 11 10  1  0  0  0  0
 12 13  1  0  0  0  0
 13 17  1  0  0  0  0
 13 14  2  0  0  0  0
 15 10  1  0  0  0  0
 16 11  1  0  0  0  0
 18 19  2  0  0  0  0
 20 18  1  0  0  0  0
 21 20  1  0  0  0  0
 22 21  2  0  0  0  0
 23 22  1  0  0  0  0
 23 24  1  0  0  0  0
 25 23  1  0  0  0  0
 25 26  1  0  0  0  0
 26 20  1  0  0  0  0
M  END
>  <minimizedAffinity>
-4.94292307

$$$$

 OpenBabel03252500493D

 26 28  0  0  0  0  0  0  0  0999 V2000
   38.3460   27.8000   40.4990 C   0  0  0  0  0  0  0  0  0  0  0  0
   37.9120   28.1830   41.7600 C   0  0  0  0  0  0  0  0  0  0  0  0
   37.2620   27.2710   42.5710 C   0  0  0  0  0  0  0  0  0  0  0  0
   37.0750   25.9990   42.0760 N   0  0  0  0  0  0  0  0  0  0  0  0
   37.4980   25.6500   40.8660 C   0  0  0  0  0  0  0  0  0  0  0  0
   38.1230   26.5350   40.0910 N   0  0  0  0  0  0  0  0  0  0  0  0
   38.8610   28.4630   39.8150 H   0  0  0  0  0  0  0  0  0  0  0  0
   36.9080   27.5310   43.5600 H   0  0  0  0  0  0  0  0  0  0  0  0
   37.2860   24.2970   40.3620 C   0  0  0  0  0  0  0  0  0  0  0  0
   36.2370   23.9890   39.5540 C   0  0  0  0  0  0  0  0  0  0  0  0
   35.9700   22.7500   39.0410 C   0  0  0  0  0  0  0  0  0  0  0  0
   36.8410   21.7860   39.3900 N   0  0  0  0  0  0  0  0  0  0  0  0
   37.8860   22.0820   40.1920 C   0  0  0  0  0  0  0  0  0  0  0  0
   38.1570   23.3070   40.7030 N   0  0  0  0  0  0  0  0  0  0  0  0
   35.5660   24.8350   39.3130 H   0  0  0  0  0  0  0  0  0  0  0  0
   35.1140   22.5760   38.4040 H   0  0  0  0  0  0  0  0  0  0  0  0
   38.6300   21.3250   40.5070 H   0  0  0  0  0  0  0  0  0  0  0  0
   38.1420   29.5440   42.2140 C   0  0  0  0  0  0  0  0  0  0  0  0
   38.5270   29.6760   43.4180 O   0  0  0  0  0  0  0  0  0  0  0  0
   37.9550   30.6860   41.3730 N   0  0  0  0  0  0  0  0  0  0  0  0
   39.1110   31.5190   41.1460 C   0  0  0  0  0  3  0  0  0  0  0  0
   38.8640   32.7630   40.3770 C   0  0  0  0  0  3  0  0  0  0  0  0
   37.4850   32.9580   39.8530 C   0  0  0  0  0  3  0  0  0  0  0  0
   36.8150   33.5070   40.5480 H   0  0  0  0  0  0  0  0  0  0  0  0
   36.7910   31.6540   39.5190 C   0  0  0  0  0  2  0  0  0  0  0  0
   36.6340   30.9160   40.8190 C   0  0  0  0  0  2  0  0  0  0  0  0
  1  2  1  0  0  0  0
  2 18  1  0  0  0  0
  2  3  2  0  0  0  0
  3  8  1  0  0  0  0
  4  3  1  0  0  0  0
  5  4  2  0  0  0  0
  6  1  2  0  0  0  0
  6  5  1  0  0  0  0
  7  1  1  0  0  0  0
  9 14  1  0  0  0  0
  9  5  1  0  0  0  0
 10  9  2  0  0  0  0
 11 12  2  0  0  0  0
 11 10  1  0  0  0  0
 12 13  1  0  0  0  0
 13 17  1  0  0  0  0
 13 14  2  0  0  0  0
 15 10  1  0  0  0  0
 16 11  1  0  0  0  0
 18 19  2  0  0  0  0
 20 18  1  0  0  0  0
 21 20  1  0  0  0  0
 22 21  2  0  0  0  0
 23 22  1  0  0  0  0
 23 24  1  0  0  0  0
 25 23  1  0  0  0  0
 25 26  1  0  0  0  0
 26 20  1  0  0  0  0
M  END
>  <minimizedAffinity>
-4.94217634

$$$$

 OpenBabel03252500493D

 26 28  0  0  0  0  0  0  0  0999 V2000
   35.7560   29.0230   41.0560 C   0  0  0  0  0  0  0  0  0  0  0  0
   36.5450   27.8990   41.2520 C   0  0  0  0  0  0  0  0  0  0  0  0
   36.7770   27.0280   40.2040 C   0  0  0  0  0  0  0  0  0  0  0  0
   36.2000   27.3260   38.9890 N   0  0  0  0  0  0  0  0  0  0  0  0
   35.4470   28.4070   38.8190 C   0  0  0  0  0  0  0  0  0  0  0  0
   35.2290   29.2420   39.8350 N   0  0  0  0  0  0  0  0  0  0  0  0
   35.5360   29.7450   41.8320 H   0  0  0  0  0  0  0  0  0  0  0  0
   37.3860   26.1410   40.3170 H   0  0  0  0  0  0  0  0  0  0  0  0
   34.8440   28.7020   37.5230 C   0  0  0  0  0  0  0  0  0  0  0  0
   33.5080   28.9090   37.3850 C   0  0  0  0  0  0  0  0  0  0  0  0
   32.8680   29.1890   36.2090 C   0  0  0  0  0  0  0  0  0  0  0  0
   33.6630   29.2550   35.1260 N   0  0  0  0  0  0  0  0  0  0  0  0
   34.9920   29.0520   35.2540 C   0  0  0  0  0  0  0  0  0  0  0  0
   35.6320   28.7740   36.4140 N   0  0  0  0  0  0  0  0  0  0  0  0
   32.9220   28.8360   38.3200 H   0  0  0  0  0  0  0  0  0  0  0  0
   31.7980   29.3410   36.1720 H   0  0  0  0  0  0  0  0  0  0  0  0
   35.6870   29.0960   34.3940 H   0  0  0  0  0  0  0  0  0  0  0  0
   37.1190   27.6470   42.5640 C   0  0  0  0  0  0  0  0  0  0  0  0
   36.2930   27.4110   43.5020 O   0  0  0  0  0  0  0  0  0  0  0  0
   38.5280   27.6570   42.8110 N   0  0  0  0  0  0  0  0  0  0  0  0
   39.1060   26.4340   43.3120 C   0  0  0  0  0  3  0  0  0  0  0  0
   40.5410   26.5060   43.6800 C   0  0  0  0  0  3  0  0  0  0  0  0
   41.2350   27.7930   43.4030 C   0  0  0  0  0  3  0  0  0  0  0  0
   41.2000   28.5120   44.2480 H   0  0  0  0  0  0  0  0  0  0  0  0
   40.6750   28.5160   42.1950 C   0  0  0  0  0  2  0  0  0  0  0  0
   39.2590   28.8810   42.5410 C   0  0  0  0  0  2  0  0  0  0  0  0
  1  2  1  0  0  0  0
  1  7  1  0  0  0  0
  2 18  1  0  0  0  0
  3  8  1  0  0  0  0
  3  2  2  0  0  0  0
  4  3  1  0  0  0  0
  5  4  2  0  0  0  0
  5  6  1  0  0  0  0
  6  1  2  0  0  0  0
  9  5  1  0  0  0  0
 10  9  1  0  0  0  0
 10 15  1  0  0  0  0
 11 10  2  0  0  0  0
 12 13  2  0  0  0  0
 12 11  1  0  0  0  0
 13 14  1  0  0  0  0
 14  9  2  0  0  0  0
 16 11  1  0  0  0  0
 17 13  1  0  0  0  0
 18 20  1  0  0  0  0
 18 19  2  0  0  0  0
 20 21  1  0  0  0  0
 21 22  2  0  0  0  0
 23 22  1  0  0  0  0
 23 24  1  0  0  0  0
 25 26  1  0  0  0  0
 25 23  1  0  0  0  0
 26 20  1  0  0  0  0
M  END
>  <minimizedAffinity>
-4.90884304

$$$$

 OpenBabel03252500493D

 26 28  0  0  0  0  0  0  0  0999 V2000
   39.7350   30.2630   39.6330 C   0  0  0  0  0  0  0  0  0  0  0  0
   39.0420   31.2180   40.3630 C   0  0  0  0  0  0  0  0  0  0  0  0
   39.5450   32.5010   40.4720 C   0  0  0  0  0  0  0  0  0  0  0  0
   40.7370   32.7740   39.8360 N   0  0  0  0  0  0  0  0  0  0  0  0
   41.3870   31.8460   39.1410 C   0  0  0  0  0  0  0  0  0  0  0  0
   40.8940   30.6120   39.0410 N   0  0  0  0  0  0  0  0  0  0  0  0
   39.3960   29.2420   39.5080 H   0  0  0  0  0  0  0  0  0  0  0  0
   39.0350   33.2740   41.0320 H   0  0  0  0  0  0  0  0  0  0  0  0
   42.6490   32.1570   38.4770 C   0  0  0  0  0  0  0  0  0  0  0  0
   43.1530   31.3690   37.4920 C   0  0  0  0  0  0  0  0  0  0  0  0
   44.3250   31.5910   36.8230 C   0  0  0  0  0  0  0  0  0  0  0  0
   45.0020   32.6890   37.2030 N   0  0  0  0  0  0  0  0  0  0  0  0
   44.5090   33.4790   38.1820 C   0  0  0  0  0  0  0  0  0  0  0  0
   43.3490   33.2650   38.8480 N   0  0  0  0  0  0  0  0  0  0  0  0
   42.5390   30.4850   37.2370 H   0  0  0  0  0  0  0  0  0  0  0  0
   44.6680   30.9200   36.0480 H   0  0  0  0  0  0  0  0  0  0  0  0
   45.0280   34.3920   38.5300 H   0  0  0  0  0  0  0  0  0  0  0  0
   37.7920   30.8570   41.0100 C   0  0  0  0  0  0  0  0  0  0  0  0
   36.8060   31.6330   40.8000 O   0  0  0  0  0  0  0  0  0  0  0  0
   37.6510   29.7000   41.8400 N   0  0  0  0  0  0  0  0  0  0  0  0
   36.6810   28.7170   41.4210 C   0  0  0  0  0  3  0  0  0  0  0  0
   36.4630   27.5910   42.3610 C   0  0  0  0  0  3  0  0  0  0  0  0
   37.3310   27.5560   43.5700 C   0  0  0  0  0  3  0  0  0  0  0  0
   36.9030   28.0900   44.4440 H   0  0  0  0  0  0  0  0  0  0  0  0
   38.7040   28.1490   43.3280 C   0  0  0  0  0  2  0  0  0  0  0  0
   38.4860   29.6040   43.0230 C   0  0  0  0  0  2  0  0  0  0  0  0
  1  2  1  0  0  0  0
  2  3  2  0  0  0  0
  2 18  1  0  0  0  0
  3  8  1  0  0  0  0
  4  3  1  0  0  0  0
  5  4  2  0  0  0  0
  6  5  1  0  0  0  0
  6  1  2  0  0  0  0
  7  1  1  0  0  0  0
  9 14  1  0  0  0  0
  9  5  1  0  0  0  0
 10  9  2  0  0  0  0
 11 12  2  0  0  0  0
 11 10  1  0  0  0  0
 12 13  1  0  0  0  0
 13 17  1  0  0  0  0
 13 14  2  0  0  0  0
 15 10  1  0  0  0  0
 16 11  1  0  0  0  0
 18 20  1  0  0  0  0
 19 18  2  0  0  0  0
 20 26  1  0  0  0  0
 21 20  1  0  0  0  0
 21 22  2  0  0  0  0
 22 23  1  0  0  0  0
 23 24  1  0  0  0  0
 25 23  1  0  0  0  0
 26 25  1  0  0  0  0
M  END
>  <minimizedAffinity>
-4.84678602

$$$$

 OpenBabel03252500493D

 26 28  0  0  0  0  0  0  0  0999 V2000
   38.4110   28.9550   38.5770 C   0  0  0  0  0  0  0  0  0  0  0  0
   37.3120   29.1750   39.3950 C   0  0  0  0  0  0  0  0  0  0  0  0
   37.1330   30.4090   39.9920 C   0  0  0  0  0  0  0  0  0  0  0  0
   38.0760   31.3810   39.7400 N   0  0  0  0  0  0  0  0  0  0  0  0
   39.1220   31.1540   38.9530 C   0  0  0  0  0  0  0  0  0  0  0  0
   39.2860   29.9610   38.3810 N   0  0  0  0  0  0  0  0  0  0  0  0
   38.6090   28.0150   38.0790 H   0  0  0  0  0  0  0  0  0  0  0  0
   36.2900   30.6190   40.6370 H   0  0  0  0  0  0  0  0  0  0  0  0
   40.1100   32.1980   38.7020 C   0  0  0  0  0  0  0  0  0  0  0  0
   40.9230   32.1680   37.6140 C   0  0  0  0  0  0  0  0  0  0  0  0
   41.8710   33.1050   37.3080 C   0  0  0  0  0  0  0  0  0  0  0  0
   41.9730   34.1220   38.1820 N   0  0  0  0  0  0  0  0  0  0  0  0
   41.1690   34.1610   39.2660 C   0  0  0  0  0  0  0  0  0  0  0  0
   40.2280   33.2370   39.5750 N   0  0  0  0  0  0  0  0  0  0  0  0
   40.7800   31.2990   36.9440 H   0  0  0  0  0  0  0  0  0  0  0  0
   42.4870   33.0170   36.4230 H   0  0  0  0  0  0  0  0  0  0  0  0
   41.2140   34.9760   40.0130 H   0  0  0  0  0  0  0  0  0  0  0  0
   36.3590   28.1010   39.6190 C   0  0  0  0  0  0  0  0  0  0  0  0
   35.2420   28.2070   39.0210 O   0  0  0  0  0  0  0  0  0  0  0  0
   36.6390   26.9770   40.4590 N   0  0  0  0  0  0  0  0  0  0  0  0
   36.5970   25.6760   39.8340 C   0  0  0  0  0  3  0  0  0  0  0  0
   36.7650   24.5200   40.7490 C   0  0  0  0  0  3  0  0  0  0  0  0
   37.0480   24.8360   42.1750 C   0  0  0  0  0  3  0  0  0  0  0  0
   36.1360   24.9300   42.8030 H   0  0  0  0  0  0  0  0  0  0  0  0
   37.8300   26.1220   42.3510 C   0  0  0  0  0  2  0  0  0  0  0  0
   36.9390   27.2270   41.8560 C   0  0  0  0  0  2  0  0  0  0  0  0
  1  2  1  0  0  0  0
  2 18  1  0  0  0  0
  2  3  2  0  0  0  0
  3  8  1  0  0  0  0
  4  3  1  0  0  0  0
  5  4  2  0  0  0  0
  6  1  2  0  0  0  0
  6  5  1  0  0  0  0
  7  1  1  0  0  0  0
  9  5  1  0  0  0  0
  9 14  1  0  0  0  0
 10  9  2  0  0  0  0
 11 10  1  0  0  0  0
 11 12  2  0  0  0  0
 12 13  1  0  0  0  0
 13 14  2  0  0  0  0
 13 17  1  0  0  0  0
 15 10  1  0  0  0  0
 16 11  1  0  0  0  0
 18 20  1  0  0  0  0
 19 18  2  0  0  0  0
 20 26  1  0  0  0  0
 21 20  1  0  0  0  0
 21 22  2  0  0  0  0
 22 23  1  0  0  0  0
 23 25  1  0  0  0  0
 23 24  1  0  0  0  0
 26 25  1  0  0  0  0
M  END
>  <minimizedAffinity>
-4.73895073

$$$$

 OpenBabel03252500493D

 26 28  0  0  0  0  0  0  0  0999 V2000
   36.9100   26.8250   40.2500 C   0  0  0  0  0  0  0  0  0  0  0  0
   36.6500   27.7070   41.2880 C   0  0  0  0  0  0  0  0  0  0  0  0
   35.8330   28.8010   41.0750 C   0  0  0  0  0  0  0  0  0  0  0  0
   35.3050   28.9660   39.8130 N   0  0  0  0  0  0  0  0  0  0  0  0
   35.5650   28.1110   38.8290 C   0  0  0  0  0  0  0  0  0  0  0  0
   36.3540   27.0580   39.0440 N   0  0  0  0  0  0  0  0  0  0  0  0
   37.5400   25.9500   40.3490 H   0  0  0  0  0  0  0  0  0  0  0  0
   35.6060   29.5120   41.8590 H   0  0  0  0  0  0  0  0  0  0  0  0
   34.9970   28.3060   37.5000 C   0  0  0  0  0  0  0  0  0  0  0  0
   33.7990   27.7710   37.1460 C   0  0  0  0  0  0  0  0  0  0  0  0
   33.2010   27.9070   35.9240 C   0  0  0  0  0  0  0  0  0  0  0  0
   33.8880   28.6380   35.0290 N   0  0  0  0  0  0  0  0  0  0  0  0
   35.0790   29.1740   35.3700 C   0  0  0  0  0  0  0  0  0  0  0  0
   35.6780   29.0430   36.5780 N   0  0  0  0  0  0  0  0  0  0  0  0
   33.2960   27.1820   37.9370 H   0  0  0  0  0  0  0  0  0  0  0  0
   32.2430   27.4520   35.7110 H   0  0  0  0  0  0  0  0  0  0  0  0
   35.6820   29.7830   34.6700 H   0  0  0  0  0  0  0  0  0  0  0  0
   37.2440   27.4720   42.5930 C   0  0  0  0  0  0  0  0  0  0  0  0
   36.4400   27.1650   43.5300 O   0  0  0  0  0  0  0  0  0  0  0  0
   38.6500   27.5720   42.8370 N   0  0  0  0  0  0  0  0  0  0  0  0
   39.3110   26.3810   43.3150 C   0  0  0  0  0  3  0  0  0  0  0  0
   40.7400   26.5440   43.6800 C   0  0  0  0  0  3  0  0  0  0  0  0
   41.3440   27.8790   43.4230 C   0  0  0  0  0  3  0  0  0  0  0  0
   41.2650   28.5790   44.2810 H   0  0  0  0  0  0  0  0  0  0  0  0
   40.7330   28.5830   42.2290 C   0  0  0  0  0  2  0  0  0  0  0  0
   39.2970   28.8470   42.5860 C   0  0  0  0  0  2  0  0  0  0  0  0
  1  7  1  0  0  0  0
  1  2  1  0  0  0  0
  2 18  1  0  0  0  0
  3  2  2  0  0  0  0
  3  8  1  0  0  0  0
  4  3  1  0  0  0  0
  5  6  1  0  0  0  0
  5  4  2  0  0  0  0
  6  1  2  0  0  0  0
  9  5  1  0  0  0  0
 10  9  1  0  0  0  0
 10 15  1  0  0  0  0
 11 10  2  0  0  0  0
 12 13  2  0  0  0  0
 12 11  1  0  0  0  0
 13 14  1  0  0  0  0
 14  9  2  0  0  0  0
 16 11  1  0  0  0  0
 17 13  1  0  0  0  0
 18 20  1  0  0  0  0
 18 19  2  0  0  0  0
 20 21  1  0  0  0  0
 21 22  2  0  0  0  0
 23 22  1  0  0  0  0
 23 24  1  0  0  0  0
 25 26  1  0  0  0  0
 25 23  1  0  0  0  0
 26 20  1  0  0  0  0
M  END
>  <minimizedAffinity>
-4.63148355

$$$$

 OpenBabel03252500493D

 26 28  0  0  0  0  0  0  0  0999 V2000
   38.6940   29.9670   40.5580 C   0  0  0  0  0  0  0  0  0  0  0  0
   37.8440   30.6870   39.7310 C   0  0  0  0  0  0  0  0  0  0  0  0
   36.7250   30.0770   39.1950 C   0  0  0  0  0  0  0  0  0  0  0  0
   36.5040   28.7560   39.5170 N   0  0  0  0  0  0  0  0  0  0  0  0
   37.3280   28.0820   40.3110 C   0  0  0  0  0  0  0  0  0  0  0  0
   38.4050   28.6780   40.8230 N   0  0  0  0  0  0  0  0  0  0  0  0
   39.5850   30.3830   41.0110 H   0  0  0  0  0  0  0  0  0  0  0  0
   36.0380   30.6040   38.5460 H   0  0  0  0  0  0  0  0  0  0  0  0
   37.0760   26.6820   40.6360 C   0  0  0  0  0  0  0  0  0  0  0  0
   36.5950   25.8080   39.7130 C   0  0  0  0  0  0  0  0  0  0  0  0
   36.3330   24.4840   39.9380 C   0  0  0  0  0  0  0  0  0  0  0  0
   36.5850   24.0550   41.1870 N   0  0  0  0  0  0  0  0  0  0  0  0
   37.0630   24.9160   42.1110 C   0  0  0  0  0  0  0  0  0  0  0  0
   37.3250   26.2280   41.8950 N   0  0  0  0  0  0  0  0  0  0  0  0
   36.4120   26.2370   38.7100 H   0  0  0  0  0  0  0  0  0  0  0  0
   35.9490   23.8440   39.1550 H   0  0  0  0  0  0  0  0  0  0  0  0
   37.2860   24.6120   43.1510 H   0  0  0  0  0  0  0  0  0  0  0  0
   38.1420   32.0770   39.4340 C   0  0  0  0  0  0  0  0  0  0  0  0
   37.2270   32.9180   39.7030 O   0  0  0  0  0  0  0  0  0  0  0  0
   39.3870   32.5020   38.8710 N   0  0  0  0  0  0  0  0  0  0  0  0
   40.1660   33.4340   39.6500 C   0  0  0  0  0  3  0  0  0  0  0  0
   41.3880   33.9560   38.9920 C   0  0  0  0  0  3  0  0  0  0  0  0
   41.7170   33.3910   37.6550 C   0  0  0  0  0  3  0  0  0  0  0  0
   41.2750   33.9580   36.8080 H   0  0  0  0  0  0  0  0  0  0  0  0
   41.2690   31.9530   37.4970 C   0  0  0  0  0  2  0  0  0  0  0  0
   39.7680   31.9680   37.5760 C   0  0  0  0  0  2  0  0  0  0  0  0
  1  6  1  0  0  0  0
  1  7  1  0  0  0  0
  2  1  2  0  0  0  0
  3  4  2  0  0  0  0
  3  2  1  0  0  0  0
  4  5  1  0  0  0  0
  5  9  1  0  0  0  0
  5  6  2  0  0  0  0
  8  3  1  0  0  0  0
  9 14  1  0  0  0  0
 10 11  1  0  0  0  0
 10  9  2  0  0  0  0
 11 12  2  0  0  0  0
 12 13  1  0  0  0  0
 13 17  1  0  0  0  0
 14 13  2  0  0  0  0
 15 10  1  0  0  0  0
 16 11  1  0  0  0  0
 18 19  2  0  0  0  0
 18  2  1  0  0  0  0
 20 18  1  0  0  0  0
 20 21  1  0  0  0  0
 22 21  2  0  0  0  0
 23 22  1  0  0  0  0
 24 23  1  0  0  0  0
 25 26  1  0  0  0  0
 25 23  1  0  0  0  0
 26 20  1  0  0  0  0
M  END
>  <minimizedAffinity>
-4.61270428

$$$$
