
 OpenBabel03242519493D

 48 51  0  0  1  0  0  0  0  0999 V2000
   45.1750   29.1530   47.9940 C   0  0  0  0  0  0  0  0  0  0  0  0
   45.2510   28.9870   49.0290 H   0  0  0  0  0  0  0  0  0  0  0  0
   43.9240   29.1950   47.9940 H   0  0  0  0  0  0  0  0  0  0  0  0
   45.3560   28.0110   46.9870 C   0  0  0  0  0  0  0  0  0  0  0  0
   45.9570   27.2250   47.4900 H   0  0  0  0  0  0  0  0  0  0  0  0
   45.8850   28.3280   46.1000 H   0  0  0  0  0  0  0  0  0  0  0  0
   43.2790   28.1590   45.7360 C   0  0  0  0  0  0  0  0  0  0  0  0
   44.0470   27.4380   46.6650 C   0  0  0  0  0  0  0  0  0  0  0  0
   43.4280   26.3070   47.1430 C   0  0  0  0  0  0  0  0  0  0  0  0
   42.1880   25.8750   46.7840 C   0  0  0  0  0  0  0  0  0  0  0  0
   41.4480   26.6030   45.8670 C   0  0  0  0  0  0  0  0  0  0  0  0
   42.0130   27.7780   45.3280 C   0  0  0  0  0  0  0  0  0  0  0  0
   44.0540   25.7770   47.8590 H   0  0  0  0  0  0  0  0  0  0  0  0
   41.8150   24.9610   47.2400 H   0  0  0  0  0  0  0  0  0  0  0  0
   40.4670   26.2300   45.6080 H   0  0  0  0  0  0  0  0  0  0  0  0
   43.6400   29.3250   45.0920 O   0  0  0  0  0  0  0  0  0  0  0  0
   44.1000   30.0460   45.6310 H   0  0  0  0  0  0  0  0  0  0  0  0
   41.2110   28.3950   44.4530 O   0  0  0  0  0  0  0  0  0  0  0  0
   37.8560   28.3190   40.9180 H   0  0  0  0  0  0  0  0  0  0  0  0
   38.8120   28.6560   41.1820 N   0  0  0  0  0  0  0  0  0  0  0  0
   39.8150   27.6170   41.1870 C   0  0  0  0  0  2  0  0  0  0  0  0
   40.3800   27.3500   42.5420 C   0  0  0  0  0  2  0  0  0  0  0  0
   41.1130   28.5690   43.1110 C   0  0  0  0  0  3  0  0  0  0  0  0
   40.1550   29.7410   42.8640 C   0  0  0  0  0  2  0  0  0  0  0  0
   38.7720   29.2780   42.4930 C   0  0  0  0  0  2  0  0  0  0  0  0
   45.3770   30.3600   47.4590 O   0  0  0  0  0  0  0  0  0  0  0  0
   46.2660   32.5610   47.2860 C   0  0  2  0  0  0  0  0  0  0  0  0
   47.0620   32.6440   46.0620 C   0  0  1  0  0  0  0  0  0  0  0  0
   47.0610   31.2430   45.5690 O   0  0  0  0  0  0  0  0  0  0  0  0
   47.5570   30.6560   46.7250 C   0  0  0  0  0  0  0  0  0  0  0  0
   46.4050   31.1550   47.7670 C   0  0  2  0  0  0  0  0  0  0  0  0
   46.5330   33.3150   48.0440 H   0  0  0  0  0  0  0  0  0  0  0  0
   48.1500   32.7940   46.2560 H   0  0  0  0  0  0  0  0  0  0  0  0
   48.4990   31.0810   47.0630 H   0  0  0  0  0  0  0  0  0  0  0  0
   47.4760   29.5750   46.6600 H   0  0  0  0  0  0  0  0  0  0  0  0
   46.9890   30.9450   48.6800 H   0  0  0  0  0  0  0  0  0  0  0  0
   44.9130   35.0820   44.4100 C   0  0  0  0  0  0  0  0  0  0  0  0
   45.4800   35.2290   43.1500 C   0  0  0  0  0  0  0  0  0  0  0  0
   46.6260   34.4720   42.8390 C   0  0  0  0  0  0  0  0  0  0  0  0
   47.1260   33.6330   43.7730 N   0  0  0  0  0  0  0  0  0  0  0  0
   46.5610   33.5030   44.9920 C   0  0  0  0  0  0  0  0  0  0  0  0
   45.4500   34.2250   45.3220 N   0  0  0  0  0  0  0  0  0  0  0  0
   44.9920   35.9310   42.4840 H   0  0  0  0  0  0  0  0  0  0  0  0
   47.0430   34.6040   41.8610 H   0  0  0  0  0  0  0  0  0  0  0  0
   43.7760   35.8080   44.7710 O   0  0  0  0  0  0  0  0  0  0  0  0
   42.9380   35.8620   44.2330 H   0  0  0  0  0  0  0  0  0  0  0  0
   44.8650   32.7490   46.9340 O   0  0  0  0  0  0  0  0  0  0  0  0
   44.6860   31.9730   46.3450 H   0  0  0  0  0  0  0  0  0  0  0  0
  1  2  1  0  0  0  0
  3  1  1  0  0  0  0
  4  5  1  0  0  0  0
  4  1  1  0  0  0  0
  6  4  1  0  0  0  0
  7  8  1  0  0  0  0
  8  4  1  0  0  0  0
  8  9  2  0  0  0  0
  9 13  1  0  0  0  0
 10  9  1  0  0  0  0
 10 14  1  0  0  0  0
 11 10  2  0  0  0  0
 12  7  2  0  0  0  0
 12 11  1  0  0  0  0
 15 11  1  0  0  0  0
 16 17  1  0  0  0  0
 16  7  1  0  0  0  0
 18 12  1  0  0  0  0
 19 20  1  0  0  0  0
 20 21  1  0  0  0  0
 20 25  1  0  0  0  0
 21 22  1  0  0  0  0
 22 23  1  0  0  0  0
 23 18  1  0  0  0  0
 24 23  1  0  0  0  0
 25 24  1  0  0  0  0
 26 31  1  0  0  0  0
 26  1  1  0  0  0  0
 27 31  1  0  0  0  0
 27 32  1  1  0  0  0
 28 33  1  1  0  0  0
 28 27  1  0  0  0  0
 29 28  1  0  0  0  0
 29 30  1  0  0  0  0
 30 34  1  0  0  0  0
 30 31  1  0  0  0  0
 31 36  1  1  0  0  0
 35 30  1  0  0  0  0
 37 45  1  0  0  0  0
 37 42  1  0  0  0  0
 38 37  2  0  0  0  0
 39 38  1  0  0  0  0
 39 40  2  0  0  0  0
 40 41  1  0  0  0  0
 41 42  2  0  0  0  0
 41 28  1  0  0  0  0
 43 38  1  0  0  0  0
 44 39  1  0  0  0  0
 46 45  1  0  0  0  0
 47 27  1  0  0  0  0
 48 47  1  0  0  0  0
M  END
>  <minimizedAffinity>
-5.98591042

>  <minimizedRMSD>
0.96629566

$$$$
