
 OpenBabel03242519493D

 48 51  0  0  1  0  0  0  0  0999 V2000
   45.2390   29.5380   46.9810 C   0  0  0  0  0  0  0  0  0  0  0  0
   44.3310   29.6400   47.4990 H   0  0  0  0  0  0  0  0  0  0  0  0
   44.7570   28.8190   46.0780 H   0  0  0  0  0  0  0  0  0  0  0  0
   46.3320   28.5780   47.4660 C   0  0  0  0  0  0  0  0  0  0  0  0
   46.6470   28.9240   48.4720 H   0  0  0  0  0  0  0  0  0  0  0  0
   47.1970   28.5830   46.8180 H   0  0  0  0  0  0  0  0  0  0  0  0
   46.6920   26.2090   47.8650 C   0  0  0  0  0  0  0  0  0  0  0  0
   45.7660   27.2350   47.6090 C   0  0  0  0  0  0  0  0  0  0  0  0
   44.4640   26.8020   47.5140 C   0  0  0  0  0  0  0  0  0  0  0  0
   44.0500   25.5120   47.6480 C   0  0  0  0  0  0  0  0  0  0  0  0
   44.9810   24.5170   47.8990 C   0  0  0  0  0  0  0  0  0  0  0  0
   46.3390   24.8780   48.0110 C   0  0  0  0  0  0  0  0  0  0  0  0
   43.7790   27.6250   47.3160 H   0  0  0  0  0  0  0  0  0  0  0  0
   42.9870   25.3050   47.5490 H   0  0  0  0  0  0  0  0  0  0  0  0
   44.6140   23.5040   47.9970 H   0  0  0  0  0  0  0  0  0  0  0  0
   48.0570   26.3440   48.0110 O   0  0  0  0  0  0  0  0  0  0  0  0
   48.5480   26.9530   47.3710 H   0  0  0  0  0  0  0  0  0  0  0  0
   47.1430   23.8370   48.2550 O   0  0  0  0  0  0  0  0  0  0  0  0
   47.3580   23.7790   53.1240 H   0  0  0  0  0  0  0  0  0  0  0  0
   47.2720   23.1840   52.2650 N   0  0  0  0  0  0  0  0  0  0  0  0
   48.5090   23.0440   51.5310 C   0  0  0  0  0  2  0  0  0  0  0  0
   48.4590   23.6580   50.1710 C   0  0  0  0  0  2  0  0  0  0  0  0
   47.4190   22.9820   49.2720 C   0  0  0  0  0  3  0  0  0  0  0  0
   46.1630   22.8800   50.1470 C   0  0  0  0  0  2  0  0  0  0  0  0
   46.2600   23.7350   51.3820 C   0  0  0  0  0  2  0  0  0  0  0  0
   45.7060   30.5050   46.1860 O   0  0  0  0  0  0  0  0  0  0  0  0
   45.4400   32.7090   45.3270 C   0  0  2  0  0  0  0  0  0  0  0  0
   46.7560   33.2160   44.9380 C   0  0  1  0  0  0  0  0  0  0  0  0
   47.6770   32.1490   45.4090 O   0  0  0  0  0  0  0  0  0  0  0  0
   47.2590   32.1390   46.7340 C   0  0  0  0  0  0  0  0  0  0  0  0
   45.6800   31.8050   46.4900 C   0  0  2  0  0  0  0  0  0  0  0  0
   44.6990   33.4990   45.5280 H   0  0  0  0  0  0  0  0  0  0  0  0
   47.0970   34.0740   45.5640 H   0  0  0  0  0  0  0  0  0  0  0  0
   47.3090   33.1110   47.2170 H   0  0  0  0  0  0  0  0  0  0  0  0
   47.6850   31.2850   47.2530 H   0  0  0  0  0  0  0  0  0  0  0  0
   45.3510   32.1120   47.4980 H   0  0  0  0  0  0  0  0  0  0  0  0
   46.1010   34.3120   41.5230 C   0  0  0  0  0  0  0  0  0  0  0  0
   47.2630   33.9830   40.8380 C   0  0  0  0  0  0  0  0  0  0  0  0
   48.3060   33.3580   41.5480 C   0  0  0  0  0  0  0  0  0  0  0  0
   48.1370   33.1020   42.8640 N   0  0  0  0  0  0  0  0  0  0  0  0
   46.9990   33.4300   43.5140 C   0  0  0  0  0  0  0  0  0  0  0  0
   45.9720   34.0360   42.8510 N   0  0  0  0  0  0  0  0  0  0  0  0
   47.2860   34.2370   39.7840 H   0  0  0  0  0  0  0  0  0  0  0  0
   49.1910   33.1140   40.9950 H   0  0  0  0  0  0  0  0  0  0  0  0
   45.0360   34.9320   40.8690 O   0  0  0  0  0  0  0  0  0  0  0  0
   44.6230   34.6130   40.0180 H   0  0  0  0  0  0  0  0  0  0  0  0
   44.9330   31.8750   44.2450 O   0  0  0  0  0  0  0  0  0  0  0  0
   45.5970   31.1410   44.2100 H   0  0  0  0  0  0  0  0  0  0  0  0
  1  4  1  0  0  0  0
  1  2  1  0  0  0  0
  3  1  1  0  0  0  0
  4  8  1  0  0  0  0
  4  5  1  0  0  0  0
  6  4  1  0  0  0  0
  7 12  1  0  0  0  0
  7 16  1  0  0  0  0
  8  7  2  0  0  0  0
  9  8  1  0  0  0  0
  9 10  2  0  0  0  0
 10 11  1  0  0  0  0
 11 15  1  0  0  0  0
 11 12  2  0  0  0  0
 12 18  1  0  0  0  0
 13  9  1  0  0  0  0
 14 10  1  0  0  0  0
 17 16  1  0  0  0  0
 18 23  1  0  0  0  0
 20 19  1  0  0  0  0
 21 20  1  0  0  0  0
 22 21  1  0  0  0  0
 23 24  1  0  0  0  0
 23 22  1  0  0  0  0
 24 25  1  0  0  0  0
 25 20  1  0  0  0  0
 26 31  1  0  0  0  0
 26  1  1  0  0  0  0
 27 32  1  1  0  0  0
 27 31  1  0  0  0  0
 28 27  1  0  0  0  0
 28 29  1  0  0  0  0
 28 33  1  1  0  0  0
 29 30  1  0  0  0  0
 30 34  1  0  0  0  0
 30 35  1  0  0  0  0
 31 30  1  0  0  0  0
 31 36  1  1  0  0  0
 37 42  1  0  0  0  0
 38 37  2  0  0  0  0
 38 39  1  0  0  0  0
 39 40  2  0  0  0  0
 40 41  1  0  0  0  0
 41 28  1  0  0  0  0
 42 41  2  0  0  0  0
 43 38  1  0  0  0  0
 44 39  1  0  0  0  0
 45 37  1  0  0  0  0
 46 45  1  0  0  0  0
 47 27  1  0  0  0  0
 48 47  1  0  0  0  0
M  END
>  <minimizedAffinity>
-4.72059441

>  <minimizedRMSD>
6.38758039

$$$$
