
 OpenBabel03252500483D

 26 28  0  0  0  0  0  0  0  0999 V2000
   44.9150   34.8710   45.1650 C   0  0  0  0  0  0  0  0  0  0  0  0
   45.7360   34.6770   44.0640 C   0  0  0  0  0  0  0  0  0  0  0  0
   46.6810   33.6680   44.0790 C   0  0  0  0  0  0  0  0  0  0  0  0
   46.7630   32.8880   45.2110 N   0  0  0  0  0  0  0  0  0  0  0  0
   45.9670   33.0880   46.2570 C   0  0  0  0  0  0  0  0  0  0  0  0
   45.0590   34.0630   46.2340 N   0  0  0  0  0  0  0  0  0  0  0  0
   44.1550   35.6400   45.2190 H   0  0  0  0  0  0  0  0  0  0  0  0
   47.3400   33.4860   43.2400 H   0  0  0  0  0  0  0  0  0  0  0  0
   46.0730   32.2500   47.4470 C   0  0  0  0  0  0  0  0  0  0  0  0
   47.2640   31.7470   47.8660 C   0  0  0  0  0  0  0  0  0  0  0  0
   47.4460   30.9570   48.9670 C   0  0  0  0  0  0  0  0  0  0  0  0
   46.3290   30.6800   49.6630 N   0  0  0  0  0  0  0  0  0  0  0  0
   45.1410   31.1750   49.2550 C   0  0  0  0  0  0  0  0  0  0  0  0
   44.9540   31.9580   48.1660 N   0  0  0  0  0  0  0  0  0  0  0  0
   48.1350   32.0190   47.2400 H   0  0  0  0  0  0  0  0  0  0  0  0
   48.4250   30.5900   49.2430 H   0  0  0  0  0  0  0  0  0  0  0  0
   44.1950   30.9760   49.7930 H   0  0  0  0  0  0  0  0  0  0  0  0
   45.5950   35.5420   42.9050 C   0  0  0  0  0  0  0  0  0  0  0  0
   45.6240   34.9690   41.7700 O   0  0  0  0  0  0  0  0  0  0  0  0
   45.4310   36.9590   43.0070 N   0  0  0  0  0  0  0  0  0  0  0  0
   44.4140   37.5560   42.1750 C   0  0  0  0  0  3  0  0  0  0  0  0
   44.3470   39.0380   42.2050 C   0  0  0  0  0  3  0  0  0  0  0  0
   45.2670   39.7240   43.1520 C   0  0  0  0  0  3  0  0  0  0  0  0
   46.2520   39.9880   42.7090 H   0  0  0  0  0  0  0  0  0  0  0  0
   45.5560   38.9060   44.3940 C   0  0  0  0  0  2  0  0  0  0  0  0
   46.2890   37.6800   43.9290 C   0  0  0  0  0  2  0  0  0  0  0  0
  1  7  1  0  0  0  0
  1  6  1  0  0  0  0
  2  3  1  0  0  0  0
  2  1  2  0  0  0  0
  3  4  2  0  0  0  0
  4  5  1  0  0  0  0
  5  9  1  0  0  0  0
  6  5  2  0  0  0  0
  8  3  1  0  0  0  0
  9 10  2  0  0  0  0
  9 14  1  0  0  0  0
 10 11  1  0  0  0  0
 11 16  1  0  0  0  0
 11 12  2  0  0  0  0
 13 12  1  0  0  0  0
 13 17  1  0  0  0  0
 14 13  2  0  0  0  0
 15 10  1  0  0  0  0
 18 20  1  0  0  0  0
 18  2  1  0  0  0  0
 19 18  2  0  0  0  0
 20 26  1  0  0  0  0
 21 22  2  0  0  0  0
 21 20  1  0  0  0  0
 22 23  1  0  0  0  0
 23 25  1  0  0  0  0
 24 23  1  0  0  0  0
 26 25  1  0  0  0  0
M  END
>  <minimizedAffinity>
1.46115637

>  <minimizedRMSD>
1.02186203

$$$$
