
 OpenBabel03242513113D

 18 19  0  0  0  0  0  0  0  0999 V2000
   44.6750   36.0190   44.1980 C   0  0  0  0  0  0  0  0  0  0  0  0
   45.5160   35.7340   43.1190 C   0  0  0  0  0  0  0  0  0  0  0  0
   46.3450   34.6160   43.2570 C   0  0  0  0  0  0  0  0  0  0  0  0
   46.2750   33.8990   44.4050 N   0  0  0  0  0  0  0  0  0  0  0  0
   45.4560   34.1980   45.4200 C   0  0  0  0  0  0  0  0  0  0  0  0
   44.6510   35.2760   45.3050 N   0  0  0  0  0  0  0  0  0  0  0  0
   44.0090   36.8840   44.1360 H   0  0  0  0  0  0  0  0  0  0  0  0
   45.5180   36.3430   42.2490 H   0  0  0  0  0  0  0  0  0  0  0  0
   47.0190   34.3460   42.4510 H   0  0  0  0  0  0  0  0  0  0  0  0
   45.3810   33.4310   46.6490 C   0  0  0  0  0  0  0  0  0  0  0  0
   44.6100   33.7550   47.6000 O   0  0  0  0  0  0  0  0  0  0  0  0
   46.1940   32.2750   46.8080 N   0  0  0  0  0  0  0  0  0  0  0  0
   47.3750   32.3130   47.6700 C   0  0  0  0  0  2  0  0  0  0  0  0
   47.9950   30.9200   47.6920 C   0  0  0  0  0  2  0  0  0  0  0  0
   46.9960   29.8750   48.0720 C   0  0  0  0  0  3  0  0  0  0  0  0
   47.5160   28.8910   47.9680 H   0  0  0  0  0  0  0  0  0  0  0  0
   45.8260   29.8900   47.1170 C   0  0  0  0  0  2  0  0  0  0  0  0
   45.8840   31.0320   46.1250 C   0  0  0  0  0  2  0  0  0  0  0  0
  1  6  1  0  0  0  0
  2  3  1  0  0  0  0
  2  1  2  0  0  0  0
  3  4  2  0  0  0  0
  4  5  1  0  0  0  0
  5 10  1  0  0  0  0
  6  5  2  0  0  0  0
  7  1  1  0  0  0  0
  8  2  1  0  0  0  0
  9  3  1  0  0  0  0
 10 12  1  0  0  0  0
 10 11  2  0  0  0  0
 12 13  1  0  0  0  0
 13 14  1  0  0  0  0
 14 15  1  0  0  0  0
 16 15  1  0  0  0  0
 17 15  1  0  0  0  0
 18 12  1  0  0  0  0
 18 17  1  0  0  0  0
M  END
>  <minimizedAffinity>
-4.35603714

>  <minimizedRMSD>
0.96464628

$$$$
