
 OpenBabel03252501323D

 22 23  0  0  0  0  0  0  0  0999 V2000
   46.6790   33.8850   43.5910 C   0  0  0  0  0  0  0  0  0  0  0  0
   47.5310   33.4420   42.5980 C   0  0  0  0  0  0  0  0  0  0  0  0
   47.2550   33.8310   41.3010 C   0  0  0  0  0  0  0  0  0  0  0  0
   46.1820   34.6090   41.0990 N   0  0  0  0  0  0  0  0  0  0  0  0
   45.3670   35.0280   42.0790 C   0  0  0  0  0  0  0  0  0  0  0  0
   45.6030   34.6710   43.3560 N   0  0  0  0  0  0  0  0  0  0  0  0
   47.9350   33.4730   40.5410 H   0  0  0  0  0  0  0  0  0  0  0  0
   44.5090   35.6640   41.8320 H   0  0  0  0  0  0  0  0  0  0  0  0
   46.1310   32.3560   45.2690 C   0  0  0  0  0  0  0  0  0  0  0  0
   45.6250   31.8520   44.2310 O   0  0  0  0  0  0  0  0  0  0  0  0
   46.7990   33.5860   45.0090 N   0  0  0  0  0  0  0  0  0  0  0  0
   47.2670   34.1190   45.7530 H   0  0  0  0  0  0  0  0  0  0  0  0
   46.0670   31.7940   46.5780 N   0  0  0  0  0  0  0  0  0  0  0  0
   46.6150   30.4990   46.8530 C   0  0  0  0  0  2  0  0  0  0  0  0
   47.2570   30.6000   48.2410 C   0  0  0  0  0  2  0  0  0  0  0  0
   46.2190   30.8770   49.2930 C   0  0  0  0  0  3  0  0  0  0  0  0
   46.7100   31.3880   50.1500 H   0  0  0  0  0  0  0  0  0  0  0  0
   45.0580   31.6830   48.8070 C   0  0  0  0  0  2  0  0  0  0  0  0
   45.4290   32.5780   47.6170 C   0  0  0  0  0  2  0  0  0  0  0  0
   48.6160   32.6220   43.0210 N   0  0  0  0  0  0  0  0  0  0  0  0
   49.5790   32.9420   42.7740 H   0  0  0  0  0  0  0  0  0  0  0  0
   48.5730   31.7290   43.5540 H   0  0  0  0  0  0  0  0  0  0  0  0
  1 11  1  0  0  0  0
  2 20  1  0  0  0  0
  2  1  2  0  0  0  0
  3  2  1  0  0  0  0
  4  3  2  0  0  0  0
  4  5  1  0  0  0  0
  5  6  2  0  0  0  0
  6  1  1  0  0  0  0
  7  3  1  0  0  0  0
  8  5  1  0  0  0  0
  9 13  1  0  0  0  0
 10  9  2  0  0  0  0
 11  9  1  0  0  0  0
 11 12  1  0  0  0  0
 13 14  1  0  0  0  0
 13 19  1  0  0  0  0
 14 15  1  0  0  0  0
 15 16  1  0  0  0  0
 16 17  1  0  0  0  0
 18 16  1  0  0  0  0
 19 18  1  0  0  0  0
 20 22  1  0  0  0  0
 21 20  1  0  0  0  0
M  END
>  <minimizedAffinity>
-4.44207954

>  <minimizedRMSD>
6.61660528

$$$$
