
 OpenBabel03252500483D

 26 28  0  0  0  0  0  0  0  0999 V2000
   46.3350   34.3010   43.6200 C   0  0  0  0  0  0  0  0  0  0  0  0
   45.6150   33.5970   42.6650 C   0  0  0  0  0  0  0  0  0  0  0  0
   45.1420   32.3310   42.9530 C   0  0  0  0  0  0  0  0  0  0  0  0
   45.4150   31.8180   44.2030 N   0  0  0  0  0  0  0  0  0  0  0  0
   46.1060   32.5060   45.1050 C   0  0  0  0  0  0  0  0  0  0  0  0
   46.5580   33.7270   44.8190 N   0  0  0  0  0  0  0  0  0  0  0  0
   46.7330   35.2950   43.4600 H   0  0  0  0  0  0  0  0  0  0  0  0
   44.5770   31.7500   42.2360 H   0  0  0  0  0  0  0  0  0  0  0  0
   46.3860   31.9420   46.4210 C   0  0  0  0  0  0  0  0  0  0  0  0
   45.8390   30.7660   46.8280 C   0  0  0  0  0  0  0  0  0  0  0  0
   46.0510   30.1730   48.0420 C   0  0  0  0  0  0  0  0  0  0  0  0
   46.8730   30.8410   48.8710 N   0  0  0  0  0  0  0  0  0  0  0  0
   47.4200   32.0100   48.4760 C   0  0  0  0  0  0  0  0  0  0  0  0
   47.2150   32.6040   47.2750 N   0  0  0  0  0  0  0  0  0  0  0  0
   45.1740   30.2770   46.0910 H   0  0  0  0  0  0  0  0  0  0  0  0
   45.5810   29.2330   48.3000 H   0  0  0  0  0  0  0  0  0  0  0  0
   48.1020   32.5970   49.1200 H   0  0  0  0  0  0  0  0  0  0  0  0
   45.3680   34.2010   41.3660 C   0  0  0  0  0  0  0  0  0  0  0  0
   46.3890   34.3910   40.6320 O   0  0  0  0  0  0  0  0  0  0  0  0
   44.0610   34.5690   40.9160 N   0  0  0  0  0  0  0  0  0  0  0  0
   43.5880   33.9310   39.7110 C   0  0  0  0  0  0  0  0  0  0  0  0
   42.2860   34.4200   39.1950 C   0  0  0  0  0  0  0  0  0  0  0  0
   41.5810   35.4350   40.0240 C   0  0  0  0  0  0  0  0  0  0  0  0
   41.8380   36.4840   39.7630 H   0  0  0  0  0  0  0  0  0  0  0  0
   41.8520   35.2770   41.5060 C   0  0  0  0  0  0  0  0  0  0  0  0
   43.3190   35.5420   41.6960 C   0  0  0  0  0  0  0  0  0  0  0  0
  1  6  1  0  0  0  0
  2  3  1  0  0  0  0
  2  1  2  0  0  0  0
  3  4  2  0  0  0  0
  4  5  1  0  0  0  0
  5  9  1  0  0  0  0
  6  5  2  0  0  0  0
  7  1  1  0  0  0  0
  8  3  1  0  0  0  0
  9 10  2  0  0  0  0
  9 14  1  0  0  0  0
 10 11  1  0  0  0  0
 11 16  1  0  0  0  0
 11 12  2  0  0  0  0
 13 12  1  0  0  0  0
 13 17  1  0  0  0  0
 14 13  2  0  0  0  0
 15 10  1  0  0  0  0
 18  2  1  0  0  0  0
 19 18  2  0  0  0  0
 20 18  1  0  0  0  0
 20 26  1  0  0  0  0
 21 20  1  0  0  0  0
 22 21  2  0  0  0  0
 22 23  1  0  0  0  0
 23 25  1  0  0  0  0
 24 23  1  0  0  0  0
 25 26  1  0  0  0  0
M  END
>  <minimizedAffinity>
-5.04010963

>  <minimizedRMSD>
3.74059463

$$$$
