
 OpenBabel03252500483D

 26 28  0  0  0  0  0  0  0  0999 V2000
   44.7120   35.1310   45.3770 C   0  0  0  0  0  0  0  0  0  0  0  0
   45.4880   34.9840   44.2360 C   0  0  0  0  0  0  0  0  0  0  0  0
   46.4120   33.9580   44.1590 C   0  0  0  0  0  0  0  0  0  0  0  0
   46.5180   33.1130   45.2420 N   0  0  0  0  0  0  0  0  0  0  0  0
   45.7660   33.2690   46.3260 C   0  0  0  0  0  0  0  0  0  0  0  0
   44.8780   34.2610   46.3920 N   0  0  0  0  0  0  0  0  0  0  0  0
   43.9710   35.9100   45.5020 H   0  0  0  0  0  0  0  0  0  0  0  0
   47.0360   33.8100   43.2870 H   0  0  0  0  0  0  0  0  0  0  0  0
   45.8970   32.3630   47.4630 C   0  0  0  0  0  0  0  0  0  0  0  0
   47.1050   31.8980   47.8730 C   0  0  0  0  0  0  0  0  0  0  0  0
   47.3120   31.0500   48.9260 C   0  0  0  0  0  0  0  0  0  0  0  0
   46.2000   30.6690   49.5810 N   0  0  0  0  0  0  0  0  0  0  0  0
   44.9940   31.1260   49.1810 C   0  0  0  0  0  0  0  0  0  0  0  0
   44.7830   31.9660   48.1390 N   0  0  0  0  0  0  0  0  0  0  0  0
   47.9710   32.2560   47.2840 H   0  0  0  0  0  0  0  0  0  0  0  0
   48.3050   30.7180   49.1970 H   0  0  0  0  0  0  0  0  0  0  0  0
   44.0510   30.8430   49.6860 H   0  0  0  0  0  0  0  0  0  0  0  0
   45.3240   35.9150   43.1330 C   0  0  0  0  0  0  0  0  0  0  0  0
   45.1910   35.4000   41.9780 O   0  0  0  0  0  0  0  0  0  0  0  0
   45.3080   37.3350   43.3100 N   0  0  0  0  0  0  0  0  0  0  0  0
   44.5190   38.0950   42.3720 C   0  0  0  0  0  3  0  0  0  0  0  0
   44.6170   39.5700   42.4970 C   0  0  0  0  0  3  0  0  0  0  0  0
   45.4390   40.0880   43.6250 C   0  0  0  0  0  3  0  0  0  0  0  0
   46.5060   40.2500   43.3640 H   0  0  0  0  0  0  0  0  0  0  0  0
   45.4200   39.1760   44.8350 C   0  0  0  0  0  2  0  0  0  0  0  0
   46.0760   37.8940   44.4060 C   0  0  0  0  0  2  0  0  0  0  0  0
  1  7  1  0  0  0  0
  1  6  1  0  0  0  0
  2  1  2  0  0  0  0
  3  2  1  0  0  0  0
  3  4  2  0  0  0  0
  4  5  1  0  0  0  0
  5  6  2  0  0  0  0
  5  9  1  0  0  0  0
  8  3  1  0  0  0  0
  9 10  2  0  0  0  0
  9 14  1  0  0  0  0
 10 11  1  0  0  0  0
 11 16  1  0  0  0  0
 11 12  2  0  0  0  0
 13 12  1  0  0  0  0
 13 17  1  0  0  0  0
 14 13  2  0  0  0  0
 15 10  1  0  0  0  0
 18 20  1  0  0  0  0
 18  2  1  0  0  0  0
 19 18  2  0  0  0  0
 20 26  1  0  0  0  0
 21 22  2  0  0  0  0
 21 20  1  0  0  0  0
 22 23  1  0  0  0  0
 23 25  1  0  0  0  0
 24 23  1  0  0  0  0
 26 25  1  0  0  0  0
M  END
>  <minimizedAffinity>
0.760227859

>  <minimizedRMSD>
0.918180406

$$$$
