
 OpenBabel03252500483D

 26 28  0  0  0  0  0  0  0  0999 V2000
   44.5910   35.2680   45.5280 C   0  0  0  0  0  0  0  0  0  0  0  0
   45.3300   35.1690   44.3580 C   0  0  0  0  0  0  0  0  0  0  0  0
   46.2460   34.1450   44.2060 C   0  0  0  0  0  0  0  0  0  0  0  0
   46.3820   33.2520   45.2470 N   0  0  0  0  0  0  0  0  0  0  0  0
   45.6650   33.3620   46.3610 C   0  0  0  0  0  0  0  0  0  0  0  0
   44.7840   34.3530   46.4980 N   0  0  0  0  0  0  0  0  0  0  0  0
   43.8580   36.0440   45.7110 H   0  0  0  0  0  0  0  0  0  0  0  0
   46.8410   34.0330   43.3100 H   0  0  0  0  0  0  0  0  0  0  0  0
   45.8280   32.4070   47.4510 C   0  0  0  0  0  0  0  0  0  0  0  0
   47.0530   31.9780   47.8520 C   0  0  0  0  0  0  0  0  0  0  0  0
   47.2890   31.0870   48.8630 C   0  0  0  0  0  0  0  0  0  0  0  0
   46.1900   30.6220   49.4840 N   0  0  0  0  0  0  0  0  0  0  0  0
   44.9680   31.0420   49.0930 C   0  0  0  0  0  0  0  0  0  0  0  0
   44.7270   31.9240   48.0930 N   0  0  0  0  0  0  0  0  0  0  0  0
   47.9060   32.4050   47.2920 H   0  0  0  0  0  0  0  0  0  0  0  0
   48.2940   30.7890   49.1290 H   0  0  0  0  0  0  0  0  0  0  0  0
   44.0350   30.6900   49.5720 H   0  0  0  0  0  0  0  0  0  0  0  0
   45.1350   36.1490   43.3030 C   0  0  0  0  0  0  0  0  0  0  0  0
   44.8640   35.6870   42.1500 O   0  0  0  0  0  0  0  0  0  0  0  0
   45.2360   37.5590   43.5240 N   0  0  0  0  0  0  0  0  0  0  0  0
   44.7000   38.4160   42.4940 C   0  0  0  0  0  3  0  0  0  0  0  0
   44.9290   39.8690   42.6840 C   0  0  0  0  0  3  0  0  0  0  0  0
   45.5960   40.2760   43.9500 C   0  0  0  0  0  3  0  0  0  0  0  0
   46.7040   40.3260   43.8770 H   0  0  0  0  0  0  0  0  0  0  0  0
   45.2790   39.3520   45.1080 C   0  0  0  0  0  2  0  0  0  0  0  0
   45.8620   38.0150   44.7510 C   0  0  0  0  0  2  0  0  0  0  0  0
  1  7  1  0  0  0  0
  1  6  1  0  0  0  0
  2  1  2  0  0  0  0
  3  2  1  0  0  0  0
  3  4  2  0  0  0  0
  4  5  1  0  0  0  0
  5  6  2  0  0  0  0
  5  9  1  0  0  0  0
  8  3  1  0  0  0  0
  9 10  2  0  0  0  0
  9 14  1  0  0  0  0
 10 11  1  0  0  0  0
 11 16  1  0  0  0  0
 11 12  2  0  0  0  0
 13 12  1  0  0  0  0
 13 17  1  0  0  0  0
 14 13  2  0  0  0  0
 15 10  1  0  0  0  0
 18 20  1  0  0  0  0
 18  2  1  0  0  0  0
 19 18  2  0  0  0  0
 20 26  1  0  0  0  0
 21 22  2  0  0  0  0
 21 20  1  0  0  0  0
 22 23  1  0  0  0  0
 23 25  1  0  0  0  0
 24 23  1  0  0  0  0
 26 25  1  0  0  0  0
M  END
>  <minimizedAffinity>
-0.138192385

>  <minimizedRMSD>
0.94132328

$$$$
