
 OpenBabel03242513113D

 18 19  0  0  0  0  0  0  0  0999 V2000
   44.5900   35.7900   44.6490 C   0  0  0  0  0  0  0  0  0  0  0  0
   45.3240   35.5950   43.4750 C   0  0  0  0  0  0  0  0  0  0  0  0
   46.2000   34.5050   43.4680 C   0  0  0  0  0  0  0  0  0  0  0  0
   46.2750   33.7280   44.5760 N   0  0  0  0  0  0  0  0  0  0  0  0
   45.5560   33.9430   45.6840 C   0  0  0  0  0  0  0  0  0  0  0  0
   44.7070   34.9910   45.7100 N   0  0  0  0  0  0  0  0  0  0  0  0
   43.8920   36.6300   44.7020 H   0  0  0  0  0  0  0  0  0  0  0  0
   45.2150   36.2460   42.6450 H   0  0  0  0  0  0  0  0  0  0  0  0
   46.7970   34.3030   42.5830 H   0  0  0  0  0  0  0  0  0  0  0  0
   45.6360   33.1110   46.8700 C   0  0  0  0  0  0  0  0  0  0  0  0
   44.7730   33.1730   47.7960 O   0  0  0  0  0  0  0  0  0  0  0  0
   46.7120   32.1930   47.0150 N   0  0  0  0  0  0  0  0  0  0  0  0
   47.4270   32.0840   48.2850 C   0  0  0  0  0  0  0  0  0  0  0  0
   48.4680   30.9780   48.1540 C   0  0  0  0  0  0  0  0  0  0  0  0
   47.8600   29.6960   47.6850 C   0  0  0  0  0  0  0  0  0  0  0  0
   48.7090   28.9850   47.5300 H   0  0  0  0  0  0  0  0  0  0  0  0
   47.1680   29.8940   46.3580 C   0  0  0  0  0  0  0  0  0  0  0  0
   47.1330   31.3420   45.9160 C   0  0  0  0  0  0  0  0  0  0  0  0
  1  7  1  0  0  0  0
  1  6  1  0  0  0  0
  2  1  2  0  0  0  0
  3  2  1  0  0  0  0
  3  4  2  0  0  0  0
  4  5  1  0  0  0  0
  5  6  2  0  0  0  0
  5 10  1  0  0  0  0
  8  2  1  0  0  0  0
  9  3  1  0  0  0  0
 10 12  1  0  0  0  0
 10 11  2  0  0  0  0
 12 13  1  0  0  0  0
 14 13  1  0  0  0  0
 15 14  1  0  0  0  0
 16 15  1  0  0  0  0
 17 15  1  0  0  0  0
 18 17  1  0  0  0  0
 18 12  1  0  0  0  0
M  END
>  <minimizedAffinity>
-4.50936985

>  <minimizedRMSD>
0.705080092

$$$$
