
 OpenBabel03252502573D

 35 37  0  0  0  0  0  0  0  0999 V2000
   40.7770   29.7210   40.3930 Br  0  0  0  0  0  0  0  0  0  0  0  0
   39.2430   30.7980   39.9060 C   0  0  0  0  0  0  0  0  0  0  0  0
   39.2700   31.3140   38.6510 C   0  0  0  0  0  0  0  0  0  0  0  0
   38.1520   32.0900   38.3150 C   0  0  0  0  0  0  0  0  0  0  0  0
   37.0990   32.3170   39.1890 C   0  0  0  0  0  0  0  0  0  0  0  0
   37.1570   31.7540   40.4390 C   0  0  0  0  0  0  0  0  0  0  0  0
   38.2290   30.9830   40.8220 C   0  0  0  0  0  0  0  0  0  0  0  0
   38.0820   32.5440   37.3390 H   0  0  0  0  0  0  0  0  0  0  0  0
   36.2620   32.9160   38.8960 H   0  0  0  0  0  0  0  0  0  0  0  0
   36.3400   31.9260   41.1260 H   0  0  0  0  0  0  0  0  0  0  0  0
   40.3070   31.1620   37.6240 C   0  0  0  0  0  0  0  0  0  0  0  0
   39.7790   31.3210   36.6390 H   0  0  0  0  0  0  0  0  0  0  0  0
   40.6490   30.1230   37.5990 H   0  0  0  0  0  0  0  0  0  0  0  0
   42.2070   34.3280   38.1420 C   0  0  0  0  0  0  0  0  0  0  0  0
   43.5050   33.9320   37.8020 C   0  0  0  0  0  0  0  0  0  0  0  0
   43.7110   32.6220   37.4100 C   0  0  0  0  0  0  0  0  0  0  0  0
   42.6590   31.7640   37.3660 N   0  0  0  0  0  0  0  0  0  0  0  0
   41.3950   32.1670   37.7020 C   0  0  0  0  0  0  0  0  0  0  0  0
   41.2150   33.4400   38.0790 N   0  0  0  0  0  0  0  0  0  0  0  0
   41.9380   35.3210   38.4600 H   0  0  0  0  0  0  0  0  0  0  0  0
   44.2980   34.6680   37.8600 H   0  0  0  0  0  0  0  0  0  0  0  0
   44.7050   32.2900   37.1410 H   0  0  0  0  0  0  0  0  0  0  0  0
   38.2810   30.4140   42.0950 O   0  0  0  0  0  0  0  0  0  0  0  0
   36.2670   28.8650   41.5720 O   0  0  0  0  0  0  0  0  0  0  0  0
   37.5130   28.9290   42.4540 P   0  0  2  0  0  0  0  0  0  0  0  0
   37.0400   28.9600   44.0540 O   0  0  0  0  0  0  0  0  0  0  0  0
   37.7880   28.7280   44.6710 H   0  0  0  0  0  0  0  0  0  0  0  0
   38.4700   27.6150   42.1090 O   0  0  0  0  0  0  0  0  0  0  0  0
   38.7880   23.6580   43.8500 H   0  0  0  0  0  0  0  0  0  0  0  0
   39.3700   23.8970   43.0380 N   0  0  0  0  0  0  0  0  0  0  0  0
   40.2920   24.9930   43.2580 C   0  0  0  0  0  2  0  0  0  0  0  0
   39.6230   26.2840   43.6090 C   0  0  0  0  0  2  0  0  0  0  0  0
   38.3090   26.5250   42.9590 C   0  0  0  0  0  3  0  0  0  0  0  0
   37.6710   25.3690   42.2820 C   0  0  0  0  0  2  0  0  0  0  0  0
   38.5970   24.2740   41.8700 C   0  0  0  0  0  2  0  0  0  0  0  0
  2  1  1  0  0  0  0
  2  7  1  0  0  0  0
  3  2  2  0  0  0  0
  4  3  1  0  0  0  0
  4  5  2  0  0  0  0
  5  6  1  0  0  0  0
  6  7  2  0  0  0  0
  6 10  1  0  0  0  0
  7 23  1  0  0  0  0
  8  4  1  0  0  0  0
  9  5  1  0  0  0  0
 11 18  1  0  0  0  0
 11  3  1  0  0  0  0
 12 11  1  0  0  0  0
 13 11  1  0  0  0  0
 14 20  1  0  0  0  0
 15 21  1  0  0  0  0
 15 14  2  0  0  0  0
 16 15  1  0  0  0  0
 17 16  2  0  0  0  0
 17 18  1  0  0  0  0
 18 19  2  0  0  0  0
 19 14  1  0  0  0  0
 22 16  1  0  0  0  0
 23 25  1  0  0  0  0
 25 24  2  6  0  0  0
 25 26  1  0  0  0  0
 26 27  1  0  0  0  0
 28 25  1  0  0  0  0
 28 33  1  0  0  0  0
 30 31  1  0  0  0  0
 30 29  1  0  0  0  0
 31 32  1  0  0  0  0
 33 32  1  0  0  0  0
 34 33  1  0  0  0  0
 35 34  1  0  0  0  0
 35 30  1  0  0  0  0
M  END
>  <minimizedAffinity>
-5.92847109

$$$$

 OpenBabel03252502573D

 35 37  0  0  0  0  0  0  0  0999 V2000
   39.7220   30.0900   38.6750 Br  0  0  0  0  0  0  0  0  0  0  0  0
   39.1070   31.8300   39.2590 C   0  0  0  0  0  0  0  0  0  0  0  0
   40.0850   32.7150   39.5790 C   0  0  0  0  0  0  0  0  0  0  0  0
   39.6240   33.9700   39.9990 C   0  0  0  0  0  0  0  0  0  0  0  0
   38.2760   34.2900   40.0830 C   0  0  0  0  0  0  0  0  0  0  0  0
   37.3560   33.3310   39.7390 C   0  0  0  0  0  0  0  0  0  0  0  0
   37.7540   32.0830   39.3200 C   0  0  0  0  0  0  0  0  0  0  0  0
   40.3250   34.7410   40.2750 H   0  0  0  0  0  0  0  0  0  0  0  0
   37.9610   35.2600   40.4090 H   0  0  0  0  0  0  0  0  0  0  0  0
   36.3040   33.5730   39.8020 H   0  0  0  0  0  0  0  0  0  0  0  0
   41.5400   32.5210   39.5390 C   0  0  0  0  0  0  0  0  0  0  0  0
   41.9600   33.4860   39.1290 H   0  0  0  0  0  0  0  0  0  0  0  0
   41.7890   31.7630   38.7910 H   0  0  0  0  0  0  0  0  0  0  0  0
   43.7340   32.8150   42.5390 C   0  0  0  0  0  0  0  0  0  0  0  0
   43.2260   31.7980   43.3550 C   0  0  0  0  0  0  0  0  0  0  0  0
   42.1680   31.0430   42.8840 C   0  0  0  0  0  0  0  0  0  0  0  0
   41.6550   31.3070   41.6540 N   0  0  0  0  0  0  0  0  0  0  0  0
   42.1630   32.3050   40.8670 C   0  0  0  0  0  0  0  0  0  0  0  0
   43.1880   33.0250   41.3420 N   0  0  0  0  0  0  0  0  0  0  0  0
   44.5530   33.4580   42.8090 H   0  0  0  0  0  0  0  0  0  0  0  0
   43.6830   31.6420   44.3250 H   0  0  0  0  0  0  0  0  0  0  0  0
   41.7570   30.2510   43.4950 H   0  0  0  0  0  0  0  0  0  0  0  0
   36.8120   31.1140   38.9720 O   0  0  0  0  0  0  0  0  0  0  0  0
   34.8930   29.4370   39.4580 O   0  0  0  0  0  0  0  0  0  0  0  0
   36.0970   30.0870   40.1380 P   0  0  2  0  0  0  0  0  0  0  0  0
   35.5570   31.0320   41.4030 O   0  0  0  0  0  0  0  0  0  0  0  0
   36.2870   31.2580   42.0420 H   0  0  0  0  0  0  0  0  0  0  0  0
   37.1260   28.8860   40.6480 O   0  0  0  0  0  0  0  0  0  0  0  0
   38.5080   27.6470   44.5640 H   0  0  0  0  0  0  0  0  0  0  0  0
   38.9810   27.2840   43.7280 N   0  0  0  0  0  0  0  0  0  0  0  0
   39.5990   28.2960   42.8960 C   0  0  0  0  0  2  0  0  0  0  0  0
   38.6330   29.3020   42.3520 C   0  0  0  0  0  2  0  0  0  0  0  0
   37.2800   28.7850   42.0270 C   0  0  0  0  0  3  0  0  0  0  0  0
   36.9350   27.4340   42.5370 C   0  0  0  0  0  2  0  0  0  0  0  0
   38.0960   26.5480   42.8450 C   0  0  0  0  0  2  0  0  0  0  0  0
  1  2  1  0  0  0  0
  2  7  2  0  0  0  0
  2  3  1  0  0  0  0
  3  4  2  0  0  0  0
  4  5  1  0  0  0  0
  4  8  1  0  0  0  0
  5  9  1  0  0  0  0
  6 10  1  0  0  0  0
  6  5  2  0  0  0  0
  7  6  1  0  0  0  0
 11  3  1  0  0  0  0
 11 18  1  0  0  0  0
 12 11  1  0  0  0  0
 13 11  1  0  0  0  0
 14 20  1  0  0  0  0
 14 15  1  0  0  0  0
 15 21  1  0  0  0  0
 16 15  2  0  0  0  0
 16 22  1  0  0  0  0
 17 16  1  0  0  0  0
 18 19  1  0  0  0  0
 18 17  2  0  0  0  0
 19 14  2  0  0  0  0
 23  7  1  0  0  0  0
 23 25  1  0  0  0  0
 25 24  2  6  0  0  0
 25 28  1  0  0  0  0
 25 26  1  0  0  0  0
 26 27  1  0  0  0  0
 28 33  1  0  0  0  0
 30 29  1  0  0  0  0
 31 30  1  0  0  0  0
 32 31  1  0  0  0  0
 33 32  1  0  0  0  0
 33 34  1  0  0  0  0
 34 35  1  0  0  0  0
 35 30  1  0  0  0  0
M  END
>  <minimizedAffinity>
-5.73763943

$$$$

 OpenBabel03252502573D

 35 37  0  0  0  0  0  0  0  0999 V2000
   35.8930   28.9540   40.7790 Br  0  0  0  0  0  0  0  0  0  0  0  0
   37.4980   29.8840   41.3320 C   0  0  0  0  0  0  0  0  0  0  0  0
   38.0370   29.4680   42.5060 C   0  0  0  0  0  0  0  0  0  0  0  0
   39.1990   30.1510   42.8910 C   0  0  0  0  0  0  0  0  0  0  0  0
   39.7590   31.1730   42.1380 C   0  0  0  0  0  0  0  0  0  0  0  0
   39.1450   31.5280   40.9630 C   0  0  0  0  0  0  0  0  0  0  0  0
   38.0040   30.8900   40.5360 C   0  0  0  0  0  0  0  0  0  0  0  0
   39.7000   29.8920   43.8100 H   0  0  0  0  0  0  0  0  0  0  0  0
   40.6470   31.6720   42.4650 H   0  0  0  0  0  0  0  0  0  0  0  0
   39.5760   32.3230   40.3700 H   0  0  0  0  0  0  0  0  0  0  0  0
   37.5600   28.4090   43.4030 C   0  0  0  0  0  0  0  0  0  0  0  0
   36.4890   28.2190   43.1000 H   0  0  0  0  0  0  0  0  0  0  0  0
   37.5010   28.7940   44.4260 H   0  0  0  0  0  0  0  0  0  0  0  0
   40.0630   25.6700   43.7700 C   0  0  0  0  0  0  0  0  0  0  0  0
   39.5270   24.6890   42.9280 C   0  0  0  0  0  0  0  0  0  0  0  0
   38.3470   24.9680   42.2620 C   0  0  0  0  0  0  0  0  0  0  0  0
   37.7470   26.1730   42.4410 N   0  0  0  0  0  0  0  0  0  0  0  0
   38.2840   27.1220   43.2690 C   0  0  0  0  0  0  0  0  0  0  0  0
   39.4280   26.8340   43.9050 N   0  0  0  0  0  0  0  0  0  0  0  0
   40.9730   25.5560   44.3330 H   0  0  0  0  0  0  0  0  0  0  0  0
   40.0570   23.7500   42.8310 H   0  0  0  0  0  0  0  0  0  0  0  0
   37.9120   24.2270   41.6050 H   0  0  0  0  0  0  0  0  0  0  0  0
   37.3860   31.2570   39.3400 O   0  0  0  0  0  0  0  0  0  0  0  0
   38.9610   29.6820   38.0110 O   0  0  0  0  0  0  0  0  0  0  0  0
   38.0910   30.9220   37.8180 P   0  0  2  0  0  0  0  0  0  0  0  0
   39.0690   32.2090   37.4020 O   0  0  0  0  0  0  0  0  0  0  0  0
   38.5510   32.9600   37.0030 H   0  0  0  0  0  0  0  0  0  0  0  0
   36.9570   30.5930   36.6480 O   0  0  0  0  0  0  0  0  0  0  0  0
   34.8220   26.9870   35.5410 H   0  0  0  0  0  0  0  0  0  0  0  0
   34.6220   27.8610   35.0410 N   0  0  0  0  0  0  0  0  0  0  0  0
   35.7530   28.4230   34.3320 C   0  0  0  0  0  2  0  0  0  0  0  0
   36.9070   28.7750   35.2190 C   0  0  0  0  0  2  0  0  0  0  0  0
   36.5500   29.2640   36.5750 C   0  0  0  0  0  3  0  0  0  0  0  0
   35.1440   29.0780   37.0090 C   0  0  0  0  0  2  0  0  0  0  0  0
   34.1470   28.9220   35.9090 C   0  0  0  0  0  2  0  0  0  0  0  0
  1  2  1  0  0  0  0
  2  3  1  0  0  0  0
  3  4  2  0  0  0  0
  3 11  1  0  0  0  0
  4  8  1  0  0  0  0
  5  9  1  0  0  0  0
  5  4  1  0  0  0  0
  6  5  2  0  0  0  0
  7  6  1  0  0  0  0
  7  2  2  0  0  0  0
 10  6  1  0  0  0  0
 11 13  1  0  0  0  0
 12 11  1  0  0  0  0
 14 19  1  0  0  0  0
 14 20  1  0  0  0  0
 15 14  2  0  0  0  0
 16 17  2  0  0  0  0
 16 15  1  0  0  0  0
 17 18  1  0  0  0  0
 18 11  1  0  0  0  0
 18 19  2  0  0  0  0
 21 15  1  0  0  0  0
 22 16  1  0  0  0  0
 23  7  1  0  0  0  0
 25 24  2  1  0  0  0
 25 23  1  0  0  0  0
 26 25  1  0  0  0  0
 27 26  1  0  0  0  0
 28 25  1  0  0  0  0
 30 29  1  0  0  0  0
 30 35  1  0  0  0  0
 31 30  1  0  0  0  0
 31 32  1  0  0  0  0
 32 33  1  0  0  0  0
 33 28  1  0  0  0  0
 33 34  1  0  0  0  0
 35 34  1  0  0  0  0
M  END
>  <minimizedAffinity>
-5.58831358

$$$$

 OpenBabel03252502573D

 35 37  0  0  0  0  0  0  0  0999 V2000
   35.4300   29.1000   40.6380 Br  0  0  0  0  0  0  0  0  0  0  0  0
   37.1120   29.3790   41.5560 C   0  0  0  0  0  0  0  0  0  0  0  0
   37.5670   28.3190   42.2720 C   0  0  0  0  0  0  0  0  0  0  0  0
   38.7850   28.5380   42.9290 C   0  0  0  0  0  0  0  0  0  0  0  0
   39.4770   29.7380   42.8580 C   0  0  0  0  0  0  0  0  0  0  0  0
   38.9410   30.7560   42.1100 C   0  0  0  0  0  0  0  0  0  0  0  0
   37.7490   30.5960   41.4430 C   0  0  0  0  0  0  0  0  0  0  0  0
   39.2280   27.7550   43.5240 H   0  0  0  0  0  0  0  0  0  0  0  0
   40.4060   29.8680   43.3750 H   0  0  0  0  0  0  0  0  0  0  0  0
   39.4750   31.6950   42.0490 H   0  0  0  0  0  0  0  0  0  0  0  0
   36.9490   26.9980   42.4380 C   0  0  0  0  0  0  0  0  0  0  0  0
   35.8710   27.1300   42.1280 H   0  0  0  0  0  0  0  0  0  0  0  0
   36.9090   26.7430   43.5010 H   0  0  0  0  0  0  0  0  0  0  0  0
   38.1360   25.0710   39.4760 C   0  0  0  0  0  0  0  0  0  0  0  0
   38.6170   23.9030   40.0790 C   0  0  0  0  0  0  0  0  0  0  0  0
   38.5330   23.7910   41.4540 C   0  0  0  0  0  0  0  0  0  0  0  0
   37.9910   24.8060   42.1760 N   0  0  0  0  0  0  0  0  0  0  0  0
   37.5240   25.9420   41.5710 C   0  0  0  0  0  0  0  0  0  0  0  0
   37.6150   26.0320   40.2370 N   0  0  0  0  0  0  0  0  0  0  0  0
   38.1530   25.2590   38.4160 H   0  0  0  0  0  0  0  0  0  0  0  0
   39.0370   23.1330   39.4440 H   0  0  0  0  0  0  0  0  0  0  0  0
   38.8980   22.8990   41.9460 H   0  0  0  0  0  0  0  0  0  0  0  0
   37.2110   31.6360   40.6840 O   0  0  0  0  0  0  0  0  0  0  0  0
   38.4780   33.8990   40.6510 O   0  0  0  0  0  0  0  0  0  0  0  0
   38.1960   32.6880   39.7640 P   0  0  2  0  0  0  0  0  0  0  0  0
   37.3240   33.1860   38.4310 O   0  0  0  0  0  0  0  0  0  0  0  0
   37.3460   32.5150   37.6950 H   0  0  0  0  0  0  0  0  0  0  0  0
   39.6470   31.9970   39.3410 O   0  0  0  0  0  0  0  0  0  0  0  0
   41.0870   30.1590   35.6890 H   0  0  0  0  0  0  0  0  0  0  0  0
   41.6130   30.0230   36.5600 N   0  0  0  0  0  0  0  0  0  0  0  0
   40.8770   29.3490   37.6100 C   0  0  0  0  0  2  0  0  0  0  0  0
   39.6460   30.0790   38.0480 C   0  0  0  0  0  2  0  0  0  0  0  0
   39.7340   31.5620   38.0220 C   0  0  0  0  0  3  0  0  0  0  0  0
   40.8890   32.1550   37.3040 C   0  0  0  0  0  2  0  0  0  0  0  0
   42.0760   31.2640   37.1510 C   0  0  0  0  0  2  0  0  0  0  0  0
  1  2  1  0  0  0  0
  2  3  1  0  0  0  0
  3 11  1  0  0  0  0
  3  4  2  0  0  0  0
  4  8  1  0  0  0  0
  5  4  1  0  0  0  0
  5  9  1  0  0  0  0
  6  5  2  0  0  0  0
  7  2  2  0  0  0  0
  7  6  1  0  0  0  0
 10  6  1  0  0  0  0
 11 13  1  0  0  0  0
 12 11  1  0  0  0  0
 14 15  2  0  0  0  0
 14 19  1  0  0  0  0
 15 16  1  0  0  0  0
 16 22  1  0  0  0  0
 16 17  2  0  0  0  0
 18 17  1  0  0  0  0
 18 11  1  0  0  0  0
 19 18  2  0  0  0  0
 20 14  1  0  0  0  0
 21 15  1  0  0  0  0
 23  7  1  0  0  0  0
 25 24  2  1  0  0  0
 25 23  1  0  0  0  0
 26 25  1  0  0  0  0
 27 26  1  0  0  0  0
 28 25  1  0  0  0  0
 29 30  1  0  0  0  0
 30 35  1  0  0  0  0
 30 31  1  0  0  0  0
 31 32  1  0  0  0  0
 33 32  1  0  0  0  0
 33 28  1  0  0  0  0
 34 33  1  0  0  0  0
 35 34  1  0  0  0  0
M  END
>  <minimizedAffinity>
-5.51692152

$$$$

 OpenBabel03252502573D

 35 37  0  0  0  0  0  0  0  0999 V2000
   37.2680   29.8440   41.9240 Br  0  0  0  0  0  0  0  0  0  0  0  0
   36.9280   28.3910   40.6910 C   0  0  0  0  0  0  0  0  0  0  0  0
   36.9690   27.1470   41.2320 C   0  0  0  0  0  0  0  0  0  0  0  0
   36.7200   26.1070   40.3260 C   0  0  0  0  0  0  0  0  0  0  0  0
   36.4520   26.3240   38.9820 C   0  0  0  0  0  0  0  0  0  0  0  0
   36.4310   27.6170   38.5220 C   0  0  0  0  0  0  0  0  0  0  0  0
   36.6670   28.6750   39.3670 C   0  0  0  0  0  0  0  0  0  0  0  0
   36.7310   25.0820   40.6610 H   0  0  0  0  0  0  0  0  0  0  0  0
   36.2670   25.5040   38.3200 H   0  0  0  0  0  0  0  0  0  0  0  0
   36.2220   27.7940   37.4760 H   0  0  0  0  0  0  0  0  0  0  0  0
   37.2380   26.7660   42.6240 C   0  0  0  0  0  0  0  0  0  0  0  0
   36.5920   25.8600   42.8170 H   0  0  0  0  0  0  0  0  0  0  0  0
   36.8520   27.5380   43.2970 H   0  0  0  0  0  0  0  0  0  0  0  0
   40.3880   24.7930   42.9090 C   0  0  0  0  0  0  0  0  0  0  0  0
   41.2710   25.7510   43.4190 C   0  0  0  0  0  0  0  0  0  0  0  0
   40.7920   27.0270   43.6530 C   0  0  0  0  0  0  0  0  0  0  0  0
   39.4920   27.3130   43.3850 N   0  0  0  0  0  0  0  0  0  0  0  0
   38.6410   26.3640   42.8860 C   0  0  0  0  0  0  0  0  0  0  0  0
   39.1230   25.1340   42.6650 N   0  0  0  0  0  0  0  0  0  0  0  0
   40.6570   23.7740   42.6910 H   0  0  0  0  0  0  0  0  0  0  0  0
   42.2950   25.4550   43.6100 H   0  0  0  0  0  0  0  0  0  0  0  0
   41.4540   27.7870   44.0480 H   0  0  0  0  0  0  0  0  0  0  0  0
   36.6440   29.9880   38.8920 O   0  0  0  0  0  0  0  0  0  0  0  0
   37.2750   30.5490   36.4390 O   0  0  0  0  0  0  0  0  0  0  0  0
   37.8570   30.5940   37.8510 P   0  0  2  0  0  0  0  0  0  0  0  0
   39.1700   29.5670   37.9260 O   0  0  0  0  0  0  0  0  0  0  0  0
   39.7470   29.7540   38.7160 H   0  0  0  0  0  0  0  0  0  0  0  0
   38.2700   32.1660   38.1990 O   0  0  0  0  0  0  0  0  0  0  0  0
   40.2320   33.9850   41.6090 H   0  0  0  0  0  0  0  0  0  0  0  0
   40.0850   34.5430   40.7590 N   0  0  0  0  0  0  0  0  0  0  0  0
   38.6960   34.7230   40.3890 C   0  0  0  0  0  2  0  0  0  0  0  0
   37.9760   33.4430   40.1050 C   0  0  0  0  0  2  0  0  0  0  0  0
   38.7890   32.3730   39.4730 C   0  0  0  0  0  3  0  0  0  0  0  0
   40.2610   32.5660   39.4600 C   0  0  0  0  0  2  0  0  0  0  0  0
   40.7240   33.9790   39.5850 C   0  0  0  0  0  2  0  0  0  0  0  0
  2  3  1  0  0  0  0
  2  1  1  0  0  0  0
  3 11  1  0  0  0  0
  4  8  1  0  0  0  0
  4  3  2  0  0  0  0
  5  4  1  0  0  0  0
  6  5  2  0  0  0  0
  6  7  1  0  0  0  0
  7  2  2  0  0  0  0
  9  5  1  0  0  0  0
 10  6  1  0  0  0  0
 11 12  1  0  0  0  0
 11 18  1  0  0  0  0
 11 13  1  0  0  0  0
 14 15  1  0  0  0  0
 15 21  1  0  0  0  0
 15 16  2  0  0  0  0
 16 22  1  0  0  0  0
 17 16  1  0  0  0  0
 18 17  2  0  0  0  0
 19 18  1  0  0  0  0
 19 14  2  0  0  0  0
 20 14  1  0  0  0  0
 23  7  1  0  0  0  0
 25 24  2  6  0  0  0
 25 26  1  0  0  0  0
 25 28  1  0  0  0  0
 25 23  1  0  0  0  0
 26 27  1  0  0  0  0
 28 33  1  0  0  0  0
 30 29  1  0  0  0  0
 31 30  1  0  0  0  0
 32 31  1  0  0  0  0
 33 32  1  0  0  0  0
 34 33  1  0  0  0  0
 34 35  1  0  0  0  0
 35 30  1  0  0  0  0
M  END
>  <minimizedAffinity>
-5.4362812

$$$$

 OpenBabel03252502573D

 35 37  0  0  0  0  0  0  0  0999 V2000
   36.6900   27.5070   43.1760 Br  0  0  0  0  0  0  0  0  0  0  0  0
   38.4030   27.6020   42.2780 C   0  0  0  0  0  0  0  0  0  0  0  0
   39.0600   26.4210   42.1520 C   0  0  0  0  0  0  0  0  0  0  0  0
   40.2970   26.5080   41.4990 C   0  0  0  0  0  0  0  0  0  0  0  0
   40.8150   27.7010   41.0170 C   0  0  0  0  0  0  0  0  0  0  0  0
   40.0800   28.8470   41.1880 C   0  0  0  0  0  0  0  0  0  0  0  0
   38.8590   28.8200   41.8210 C   0  0  0  0  0  0  0  0  0  0  0  0
   40.8950   25.6230   41.3520 H   0  0  0  0  0  0  0  0  0  0  0  0
   41.7650   27.7280   40.5230 H   0  0  0  0  0  0  0  0  0  0  0  0
   40.4770   29.7810   40.8150 H   0  0  0  0  0  0  0  0  0  0  0  0
   38.6410   25.0910   42.6090 C   0  0  0  0  0  0  0  0  0  0  0  0
   37.8900   25.2790   43.4310 H   0  0  0  0  0  0  0  0  0  0  0  0
   39.4800   24.5900   43.1020 H   0  0  0  0  0  0  0  0  0  0  0  0
   36.0930   23.7200   40.2590 C   0  0  0  0  0  0  0  0  0  0  0  0
   36.8120   22.6920   39.6380 C   0  0  0  0  0  0  0  0  0  0  0  0
   38.1240   22.4860   40.0190 C   0  0  0  0  0  0  0  0  0  0  0  0
   38.6750   23.2760   40.9760 N   0  0  0  0  0  0  0  0  0  0  0  0
   37.9580   24.2780   41.5740 C   0  0  0  0  0  0  0  0  0  0  0  0
   36.6880   24.4630   41.1910 N   0  0  0  0  0  0  0  0  0  0  0  0
   35.0680   23.9650   40.0370 H   0  0  0  0  0  0  0  0  0  0  0  0
   36.3110   22.1000   38.8820 H   0  0  0  0  0  0  0  0  0  0  0  0
   38.7030   21.6970   39.5550 H   0  0  0  0  0  0  0  0  0  0  0  0
   38.1170   29.9900   41.9910 O   0  0  0  0  0  0  0  0  0  0  0  0
   37.7470   31.8820   40.2560 O   0  0  0  0  0  0  0  0  0  0  0  0
   37.0940   30.5990   40.7640 P   0  0  2  0  0  0  0  0  0  0  0  0
   35.6230   30.9790   41.4550 O   0  0  0  0  0  0  0  0  0  0  0  0
   35.0360   30.1790   41.5540 H   0  0  0  0  0  0  0  0  0  0  0  0
   36.9340   29.5480   39.4870 O   0  0  0  0  0  0  0  0  0  0  0  0
   38.3130   29.7130   35.3810 H   0  0  0  0  0  0  0  0  0  0  0  0
   37.9380   28.8300   35.7490 N   0  0  0  0  0  0  0  0  0  0  0  0
   36.5560   28.8940   36.1780 C   0  0  0  0  0  2  0  0  0  0  0  0
   36.3120   29.8730   37.2830 C   0  0  0  0  0  2  0  0  0  0  0  0
   37.4130   30.0190   38.2690 C   0  0  0  0  0  3  0  0  0  0  0  0
   38.7230   29.4240   37.9070 C   0  0  0  0  0  2  0  0  0  0  0  0
   38.6730   28.3290   36.8940 C   0  0  0  0  0  2  0  0  0  0  0  0
  2  1  1  0  0  0  0
  3  2  1  0  0  0  0
  3 11  1  0  0  0  0
  4  3  2  0  0  0  0
  5  6  2  0  0  0  0
  5  4  1  0  0  0  0
  6  7  1  0  0  0  0
  7 23  1  0  0  0  0
  7  2  2  0  0  0  0
  8  4  1  0  0  0  0
  9  5  1  0  0  0  0
 10  6  1  0  0  0  0
 11 13  1  0  0  0  0
 11 12  1  0  0  0  0
 14 19  1  0  0  0  0
 15 16  1  0  0  0  0
 15 14  2  0  0  0  0
 16 17  2  0  0  0  0
 17 18  1  0  0  0  0
 18 11  1  0  0  0  0
 19 18  2  0  0  0  0
 20 14  1  0  0  0  0
 21 15  1  0  0  0  0
 22 16  1  0  0  0  0
 25 24  2  6  0  0  0
 25 26  1  0  0  0  0
 25 23  1  0  0  0  0
 26 27  1  0  0  0  0
 28 25  1  0  0  0  0
 29 30  1  0  0  0  0
 30 31  1  0  0  0  0
 30 35  1  0  0  0  0
 31 32  1  0  0  0  0
 32 33  1  0  0  0  0
 33 28  1  0  0  0  0
 34 33  1  0  0  0  0
 35 34  1  0  0  0  0
M  END
>  <minimizedAffinity>
-5.42536259

$$$$

 OpenBabel03252502573D

 35 37  0  0  0  0  0  0  0  0999 V2000
   35.7320   29.0780   40.7660 Br  0  0  0  0  0  0  0  0  0  0  0  0
   37.4430   29.1430   41.6700 C   0  0  0  0  0  0  0  0  0  0  0  0
   37.7890   28.0160   42.3420 C   0  0  0  0  0  0  0  0  0  0  0  0
   39.0310   28.0800   42.9900 C   0  0  0  0  0  0  0  0  0  0  0  0
   39.8460   29.2030   42.9520 C   0  0  0  0  0  0  0  0  0  0  0  0
   39.4130   30.2980   42.2470 C   0  0  0  0  0  0  0  0  0  0  0  0
   38.2050   30.2900   41.5920 C   0  0  0  0  0  0  0  0  0  0  0  0
   39.3930   27.2340   43.5510 H   0  0  0  0  0  0  0  0  0  0  0  0
   40.7870   29.2150   43.4610 H   0  0  0  0  0  0  0  0  0  0  0  0
   40.0430   31.1770   42.2130 H   0  0  0  0  0  0  0  0  0  0  0  0
   37.0360   26.7630   42.4700 C   0  0  0  0  0  0  0  0  0  0  0  0
   35.9650   27.0320   42.2360 H   0  0  0  0  0  0  0  0  0  0  0  0
   37.0270   26.4460   43.5170 H   0  0  0  0  0  0  0  0  0  0  0  0
   38.5680   24.9610   39.5880 C   0  0  0  0  0  0  0  0  0  0  0  0
   38.1120   23.6560   39.8020 C   0  0  0  0  0  0  0  0  0  0  0  0
   37.3080   23.4130   40.9000 C   0  0  0  0  0  0  0  0  0  0  0  0
   36.9850   24.4360   41.7320 N   0  0  0  0  0  0  0  0  0  0  0  0
   37.4390   25.7080   41.5090 C   0  0  0  0  0  0  0  0  0  0  0  0
   38.2180   25.9240   40.4400 N   0  0  0  0  0  0  0  0  0  0  0  0
   39.1980   25.2580   38.7670 H   0  0  0  0  0  0  0  0  0  0  0  0
   38.4080   22.8870   39.1000 H   0  0  0  0  0  0  0  0  0  0  0  0
   36.9410   22.4120   41.0890 H   0  0  0  0  0  0  0  0  0  0  0  0
   37.7730   31.4080   40.8770 O   0  0  0  0  0  0  0  0  0  0  0  0
   37.1570   32.0610   38.4430 O   0  0  0  0  0  0  0  0  0  0  0  0
   38.3750   31.7730   39.3190 P   0  0  2  0  0  0  0  0  0  0  0  0
   39.1550   30.4200   38.7310 O   0  0  0  0  0  0  0  0  0  0  0  0
   40.0860   30.3420   39.0780 H   0  0  0  0  0  0  0  0  0  0  0  0
   39.3570   33.1140   39.3120 O   0  0  0  0  0  0  0  0  0  0  0  0
   43.6610   33.6290   39.2820 H   0  0  0  0  0  0  0  0  0  0  0  0
   43.0590   34.4510   39.4110 N   0  0  0  0  0  0  0  0  0  0  0  0
   42.2220   34.4060   40.5930 C   0  0  0  0  0  2  0  0  0  0  0  0
   41.2650   33.2560   40.6120 C   0  0  0  0  0  2  0  0  0  0  0  0
   40.7230   32.8480   39.2910 C   0  0  0  0  0  3  0  0  0  0  0  0
   41.3900   33.4060   38.0880 C   0  0  0  0  0  2  0  0  0  0  0  0
   42.1480   34.6730   38.3050 C   0  0  0  0  0  2  0  0  0  0  0  0
  1  2  1  0  0  0  0
  2  3  1  0  0  0  0
  3 11  1  0  0  0  0
  3  4  2  0  0  0  0
  4  8  1  0  0  0  0
  5  4  1  0  0  0  0
  5  9  1  0  0  0  0
  6  5  2  0  0  0  0
  7  2  2  0  0  0  0
  7  6  1  0  0  0  0
 10  6  1  0  0  0  0
 11 13  1  0  0  0  0
 12 11  1  0  0  0  0
 14 15  2  0  0  0  0
 14 19  1  0  0  0  0
 15 16  1  0  0  0  0
 16 22  1  0  0  0  0
 16 17  2  0  0  0  0
 18 17  1  0  0  0  0
 18 11  1  0  0  0  0
 19 18  2  0  0  0  0
 20 14  1  0  0  0  0
 21 15  1  0  0  0  0
 23  7  1  0  0  0  0
 25 24  2  6  0  0  0
 25 23  1  0  0  0  0
 26 27  1  0  0  0  0
 26 25  1  0  0  0  0
 28 25  1  0  0  0  0
 29 30  1  0  0  0  0
 30 31  1  0  0  0  0
 31 32  1  0  0  0  0
 33 28  1  0  0  0  0
 33 32  1  0  0  0  0
 34 35  1  0  0  0  0
 34 33  1  0  0  0  0
 35 30  1  0  0  0  0
M  END
>  <minimizedAffinity>
-5.41807795

$$$$

 OpenBabel03252502573D

 35 37  0  0  0  0  0  0  0  0999 V2000
   40.4480   26.0110   41.4740 Br  0  0  0  0  0  0  0  0  0  0  0  0
   38.9340   26.8010   42.3860 C   0  0  0  0  0  0  0  0  0  0  0  0
   37.8090   26.0420   42.4110 C   0  0  0  0  0  0  0  0  0  0  0  0
   36.7230   26.6280   43.0750 C   0  0  0  0  0  0  0  0  0  0  0  0
   36.7850   27.8840   43.6630 C   0  0  0  0  0  0  0  0  0  0  0  0
   37.9650   28.5800   43.5890 C   0  0  0  0  0  0  0  0  0  0  0  0
   39.0630   28.0520   42.9500 C   0  0  0  0  0  0  0  0  0  0  0  0
   35.7840   26.1030   43.1470 H   0  0  0  0  0  0  0  0  0  0  0  0
   35.9340   28.2990   44.1620 H   0  0  0  0  0  0  0  0  0  0  0  0
   38.0220   29.5590   44.0450 H   0  0  0  0  0  0  0  0  0  0  0  0
   37.5960   24.7080   41.8360 C   0  0  0  0  0  0  0  0  0  0  0  0
   36.9640   24.1540   42.5910 H   0  0  0  0  0  0  0  0  0  0  0  0
   38.5450   24.1650   41.8080 H   0  0  0  0  0  0  0  0  0  0  0  0
   36.2520   25.6540   38.4900 C   0  0  0  0  0  0  0  0  0  0  0  0
   35.3950   24.5810   38.2210 C   0  0  0  0  0  0  0  0  0  0  0  0
   35.2890   23.5730   39.1620 C   0  0  0  0  0  0  0  0  0  0  0  0
   36.0120   23.6500   40.3090 N   0  0  0  0  0  0  0  0  0  0  0  0
   36.8460   24.7070   40.5570 C   0  0  0  0  0  0  0  0  0  0  0  0
   36.9350   25.6740   39.6340 N   0  0  0  0  0  0  0  0  0  0  0  0
   36.4070   26.4880   37.8280 H   0  0  0  0  0  0  0  0  0  0  0  0
   34.8480   24.5820   37.2870 H   0  0  0  0  0  0  0  0  0  0  0  0
   34.6340   22.7310   38.9790 H   0  0  0  0  0  0  0  0  0  0  0  0
   40.2600   28.7670   42.8790 O   0  0  0  0  0  0  0  0  0  0  0  0
   41.7730   30.1540   41.2930 O   0  0  0  0  0  0  0  0  0  0  0  0
   40.4020   30.2050   41.9640 P   0  0  2  0  0  0  0  0  0  0  0  0
   40.3640   31.4980   43.0180 O   0  0  0  0  0  0  0  0  0  0  0  0
   39.4340   31.7470   43.2750 H   0  0  0  0  0  0  0  0  0  0  0  0
   39.2410   30.3270   40.7810 O   0  0  0  0  0  0  0  0  0  0  0  0
   38.3540   33.3560   37.8110 H   0  0  0  0  0  0  0  0  0  0  0  0
   37.6820   32.5960   37.9680 N   0  0  0  0  0  0  0  0  0  0  0  0
   37.1340   32.5420   39.3080 C   0  0  0  0  0  2  0  0  0  0  0  0
   38.1640   32.3330   40.3730 C   0  0  0  0  0  2  0  0  0  0  0  0
   39.3140   31.4720   39.9950 C   0  0  0  0  0  3  0  0  0  0  0  0
   39.4770   31.1600   38.5540 C   0  0  0  0  0  2  0  0  0  0  0  0
   38.2390   31.2780   37.7280 C   0  0  0  0  0  2  0  0  0  0  0  0
  1  2  1  0  0  0  0
  2  3  2  0  0  0  0
  2  7  1  0  0  0  0
  3  4  1  0  0  0  0
  4  8  1  0  0  0  0
  4  5  2  0  0  0  0
  5  9  1  0  0  0  0
  6  5  1  0  0  0  0
  6 10  1  0  0  0  0
  7  6  2  0  0  0  0
 11  3  1  0  0  0  0
 11 12  1  0  0  0  0
 13 11  1  0  0  0  0
 14 19  1  0  0  0  0
 15 14  2  0  0  0  0
 15 16  1  0  0  0  0
 16 17  2  0  0  0  0
 17 18  1  0  0  0  0
 18 11  1  0  0  0  0
 19 18  2  0  0  0  0
 20 14  1  0  0  0  0
 21 15  1  0  0  0  0
 22 16  1  0  0  0  0
 23  7  1  0  0  0  0
 25 24  2  6  0  0  0
 25 23  1  0  0  0  0
 25 26  1  0  0  0  0
 26 27  1  0  0  0  0
 28 25  1  0  0  0  0
 29 30  1  0  0  0  0
 30 31  1  0  0  0  0
 31 32  1  0  0  0  0
 33 32  1  0  0  0  0
 33 28  1  0  0  0  0
 34 33  1  0  0  0  0
 35 30  1  0  0  0  0
 35 34  1  0  0  0  0
M  END
>  <minimizedAffinity>
-5.41300011

$$$$

 OpenBabel03252502573D

 35 37  0  0  0  0  0  0  0  0999 V2000
   41.8060   29.0280   42.5520 Br  0  0  0  0  0  0  0  0  0  0  0  0
   39.9400   28.6640   42.9200 C   0  0  0  0  0  0  0  0  0  0  0  0
   39.0750   29.6510   42.5740 C   0  0  0  0  0  0  0  0  0  0  0  0
   37.7290   29.3710   42.8460 C   0  0  0  0  0  0  0  0  0  0  0  0
   37.3070   28.1820   43.4230 C   0  0  0  0  0  0  0  0  0  0  0  0
   38.2530   27.2390   43.7400 C   0  0  0  0  0  0  0  0  0  0  0  0
   39.5870   27.4610   43.4940 C   0  0  0  0  0  0  0  0  0  0  0  0
   36.9660   30.0950   42.6080 H   0  0  0  0  0  0  0  0  0  0  0  0
   36.2690   28.0040   43.6170 H   0  0  0  0  0  0  0  0  0  0  0  0
   37.9310   26.3100   44.1890 H   0  0  0  0  0  0  0  0  0  0  0  0
   39.3730   30.9510   41.9620 C   0  0  0  0  0  0  0  0  0  0  0  0
   40.4840   30.9380   41.7560 H   0  0  0  0  0  0  0  0  0  0  0  0
   39.2320   31.7460   42.7010 H   0  0  0  0  0  0  0  0  0  0  0  0
   38.1910   30.6100   38.4430 C   0  0  0  0  0  0  0  0  0  0  0  0
   37.3740   31.7390   38.3130 C   0  0  0  0  0  0  0  0  0  0  0  0
   37.2400   32.5810   39.4020 C   0  0  0  0  0  0  0  0  0  0  0  0
   37.8980   32.2940   40.5540 N   0  0  0  0  0  0  0  0  0  0  0  0
   38.6940   31.1860   40.6650 C   0  0  0  0  0  0  0  0  0  0  0  0
   38.8110   30.3810   39.6000 N   0  0  0  0  0  0  0  0  0  0  0  0
   38.3630   29.8920   37.6600 H   0  0  0  0  0  0  0  0  0  0  0  0
   36.8780   31.9070   37.3660 H   0  0  0  0  0  0  0  0  0  0  0  0
   36.6150   33.4610   39.3280 H   0  0  0  0  0  0  0  0  0  0  0  0
   40.5430   26.4970   43.8190 O   0  0  0  0  0  0  0  0  0  0  0  0
   39.9040   24.1070   43.0400 O   0  0  0  0  0  0  0  0  0  0  0  0
   40.9240   25.2090   42.7610 P   0  0  2  0  0  0  0  0  0  0  0  0
   42.4460   24.6470   43.1510 O   0  0  0  0  0  0  0  0  0  0  0  0
   43.1670   25.2010   42.7440 H   0  0  0  0  0  0  0  0  0  0  0  0
   40.8070   25.6410   41.1600 O   0  0  0  0  0  0  0  0  0  0  0  0
   37.6890   25.1610   38.1880 H   0  0  0  0  0  0  0  0  0  0  0  0
   38.5920   25.5590   37.9060 N   0  0  0  0  0  0  0  0  0  0  0  0
   39.7250   24.6750   38.0920 C   0  0  0  0  0  2  0  0  0  0  0  0
   39.9440   24.2640   39.5140 C   0  0  0  0  0  2  0  0  0  0  0  0
   39.6130   25.2880   40.5380 C   0  0  0  0  0  3  0  0  0  0  0  0
   38.8410   26.4700   40.0820 C   0  0  0  0  0  2  0  0  0  0  0  0
   38.9320   26.7730   38.6240 C   0  0  0  0  0  2  0  0  0  0  0  0
  1  2  1  0  0  0  0
  2  7  1  0  0  0  0
  3  4  1  0  0  0  0
  3  2  2  0  0  0  0
  4  5  2  0  0  0  0
  5  9  1  0  0  0  0
  5  6  1  0  0  0  0
  6 10  1  0  0  0  0
  7  6  2  0  0  0  0
  7 23  1  0  0  0  0
  8  4  1  0  0  0  0
 11  3  1  0  0  0  0
 11 13  1  0  0  0  0
 12 11  1  0  0  0  0
 14 19  1  0  0  0  0
 15 14  2  0  0  0  0
 15 16  1  0  0  0  0
 16 17  2  0  0  0  0
 17 18  1  0  0  0  0
 18 11  1  0  0  0  0
 19 18  2  0  0  0  0
 20 14  1  0  0  0  0
 21 15  1  0  0  0  0
 22 16  1  0  0  0  0
 25 24  2  1  0  0  0
 25 26  1  0  0  0  0
 25 23  1  0  0  0  0
 27 26  1  0  0  0  0
 28 25  1  0  0  0  0
 30 31  1  0  0  0  0
 30 29  1  0  0  0  0
 30 35  1  0  0  0  0
 31 32  1  0  0  0  0
 32 33  1  0  0  0  0
 33 28  1  0  0  0  0
 34 33  1  0  0  0  0
 35 34  1  0  0  0  0
M  END
>  <minimizedAffinity>
-5.39836264

$$$$
