
 OpenBabel03252503343D

 20 21  0  0  0  0  0  0  0  0999 V2000
   45.9890   33.8680   40.9610 C   0  0  0  0  0  0  0  0  0  0  0  0
   44.9260   33.2510   41.3200 O   0  0  0  0  0  0  0  0  0  0  0  0
   46.5150   34.7070   41.9790 N   0  0  0  0  0  0  0  0  0  0  0  0
   47.3820   35.2430   41.7950 H   0  0  0  0  0  0  0  0  0  0  0  0
   46.5750   33.7190   39.6710 N   0  0  0  0  0  0  0  0  0  0  0  0
   47.9080   34.1630   39.4190 C   0  0  0  0  0  2  0  0  0  0  0  0
   48.5890   33.5280   38.2580 C   0  0  0  0  0  2  0  0  0  0  0  0
   47.6060   33.4220   37.1140 C   0  0  0  0  0  3  0  0  0  0  0  0
   48.0890   33.0960   36.1620 H   0  0  0  0  0  0  0  0  0  0  0  0
   46.5420   32.4430   37.5640 C   0  0  0  0  0  2  0  0  0  0  0  0
   45.7460   33.1000   38.6500 C   0  0  0  0  0  2  0  0  0  0  0  0
   44.4680   35.9640   44.8180 C   0  0  0  0  0  0  0  0  0  0  0  0
   45.0390   35.9030   43.5400 C   0  0  0  0  0  0  0  0  0  0  0  0
   45.8930   34.8430   43.2560 C   0  0  0  0  0  0  0  0  0  0  0  0
   46.1500   33.9040   44.2070 N   0  0  0  0  0  0  0  0  0  0  0  0
   45.5770   33.9950   45.4370 C   0  0  0  0  0  0  0  0  0  0  0  0
   44.7450   35.0140   45.7410 N   0  0  0  0  0  0  0  0  0  0  0  0
   43.8090   36.8070   44.9980 H   0  0  0  0  0  0  0  0  0  0  0  0
   44.8620   36.6270   42.7560 H   0  0  0  0  0  0  0  0  0  0  0  0
   45.8090   33.2290   46.1600 H   0  0  0  0  0  0  0  0  0  0  0  0
  1  2  2  0  0  0  0
  1  3  1  0  0  0  0
  3 14  1  0  0  0  0
  4  3  1  0  0  0  0
  5  1  1  0  0  0  0
  6  5  1  0  0  0  0
  7  6  1  0  0  0  0
  8 10  1  0  0  0  0
  8  7  1  0  0  0  0
  9  8  1  0  0  0  0
 10 11  1  0  0  0  0
 11  5  1  0  0  0  0
 12 18  1  0  0  0  0
 12 17  1  0  0  0  0
 13 12  2  0  0  0  0
 14 13  1  0  0  0  0
 14 15  2  0  0  0  0
 15 16  1  0  0  0  0
 16 17  2  0  0  0  0
 16 20  1  0  0  0  0
 19 13  1  0  0  0  0
M  END
>  <minimizedAffinity>
-4.3490386

>  <minimizedRMSD>
0.589912117

$$$$
