
 OpenBabel03242510473D

 20 21  0  0  0  0  0  0  0  0999 V2000
   49.0670   34.1230   41.7840 C   0  0  0  0  0  0  0  0  0  0  0  0
   50.3770   33.8620   42.1920 C   0  0  0  0  0  0  0  0  0  0  0  0
   50.7080   32.5540   42.5370 C   0  0  0  0  0  0  0  0  0  0  0  0
   49.7300   31.5990   42.4560 N   0  0  0  0  0  0  0  0  0  0  0  0
   48.4760   31.8770   42.0610 C   0  0  0  0  0  0  0  0  0  0  0  0
   48.1440   33.1420   41.7230 N   0  0  0  0  0  0  0  0  0  0  0  0
   51.1560   34.6190   42.2570 H   0  0  0  0  0  0  0  0  0  0  0  0
   51.7110   32.2900   42.8620 H   0  0  0  0  0  0  0  0  0  0  0  0
   48.7290   35.5420   41.4150 C   0  0  0  0  0  0  0  0  0  0  0  0
   48.7150   35.7250   40.0600 F   0  0  0  0  0  0  0  0  0  0  0  0
   47.4880   35.8390   41.9780 F   0  0  0  0  0  0  0  0  0  0  0  0
   49.6550   36.3960   42.0350 F   0  0  0  0  0  0  0  0  0  0  0  0
   47.4770   30.9110   41.9760 O   0  0  0  0  0  0  0  0  0  0  0  0
   46.4670   33.4250   42.7200 H   0  0  0  0  0  0  0  0  0  0  0  0
   45.7140   33.4320   43.4370 N   0  0  0  0  0  0  0  0  0  0  0  0
   46.1840   32.7600   44.6540 C   0  0  0  0  0  0  0  0  0  0  0  0
   47.0310   31.6020   44.2060 C   0  0  0  0  0  0  0  0  0  0  0  0
   46.5100   30.8510   43.0330 C   0  0  0  0  0  0  0  0  0  0  0  0
   45.1540   31.2040   42.5500 C   0  0  0  0  0  0  0  0  0  0  0  0
   44.6510   32.5660   42.9430 C   0  0  0  0  0  0  0  0  0  0  0  0
  1  2  1  0  0  0  0
  2  7  1  0  0  0  0
  2  3  2  0  0  0  0
  3  8  1  0  0  0  0
  4  3  1  0  0  0  0
  5  4  2  0  0  0  0
  6  1  2  0  0  0  0
  6  5  1  0  0  0  0
  9  1  1  0  0  0  0
  9 11  1  0  0  0  0
  9 12  1  0  0  0  0
 10  9  1  0  0  0  0
 13  5  1  0  0  0  0
 13 18  1  0  0  0  0
 14 15  1  0  0  0  0
 15 16  1  0  0  0  0
 17 16  1  0  0  0  0
 18 17  1  0  0  0  0
 19 20  1  0  0  0  0
 19 18  1  0  0  0  0
 20 15  1  0  0  0  0
M  END
>  <minimizedAffinity>
-4.13423967

>  <minimizedRMSD>
4.24425411

$$$$
