
 OpenBabel03252503343D

 20 21  0  0  0  0  0  0  0  0999 V2000
   46.2690   34.0420   40.6490 C   0  0  0  0  0  0  0  0  0  0  0  0
   44.9900   34.0960   40.6890 O   0  0  0  0  0  0  0  0  0  0  0  0
   46.8770   34.3500   41.8950 N   0  0  0  0  0  0  0  0  0  0  0  0
   47.9090   34.3230   41.9750 H   0  0  0  0  0  0  0  0  0  0  0  0
   46.9960   33.7050   39.4710 N   0  0  0  0  0  0  0  0  0  0  0  0
   46.5960   32.6070   38.6530 C   0  0  0  0  0  2  0  0  0  0  0  0
   47.0670   32.6490   37.2420 C   0  0  0  0  0  2  0  0  0  0  0  0
   48.5060   33.1120   37.2230 C   0  0  0  0  0  3  0  0  0  0  0  0
   48.9720   33.0200   36.2130 H   0  0  0  0  0  0  0  0  0  0  0  0
   48.4920   34.5470   37.7040 C   0  0  0  0  0  2  0  0  0  0  0  0
   48.1480   34.5360   39.1620 C   0  0  0  0  0  2  0  0  0  0  0  0
   44.6900   36.1600   44.2980 C   0  0  0  0  0  0  0  0  0  0  0  0
   45.4130   35.8930   43.1270 C   0  0  0  0  0  0  0  0  0  0  0  0
   46.1160   34.6960   43.0520 C   0  0  0  0  0  0  0  0  0  0  0  0
   46.0880   33.8250   44.0970 N   0  0  0  0  0  0  0  0  0  0  0  0
   45.3760   34.1170   45.2180 C   0  0  0  0  0  0  0  0  0  0  0  0
   44.6840   35.2710   45.3200 N   0  0  0  0  0  0  0  0  0  0  0  0
   44.1560   37.1040   44.3170 H   0  0  0  0  0  0  0  0  0  0  0  0
   45.4610   36.5580   42.2750 H   0  0  0  0  0  0  0  0  0  0  0  0
   45.3820   33.3970   46.0210 H   0  0  0  0  0  0  0  0  0  0  0  0
  1  2  2  0  0  0  0
  1  3  1  0  0  0  0
  3  4  1  0  0  0  0
  3 14  1  0  0  0  0
  5  1  1  0  0  0  0
  6  5  1  0  0  0  0
  7  6  1  0  0  0  0
  8  7  1  0  0  0  0
  8 10  1  0  0  0  0
  9  8  1  0  0  0  0
 10 11  1  0  0  0  0
 11  5  1  0  0  0  0
 12 18  1  0  0  0  0
 12 17  1  0  0  0  0
 13 12  2  0  0  0  0
 14 13  1  0  0  0  0
 14 15  2  0  0  0  0
 15 16  1  0  0  0  0
 16 17  2  0  0  0  0
 16 20  1  0  0  0  0
 19 13  1  0  0  0  0
M  END
>  <minimizedAffinity>
-4.60706806

>  <minimizedRMSD>
0.520245254

$$$$
