
 OpenBabel03252503343D

 20 21  0  0  0  0  0  0  0  0999 V2000
   46.7730   33.5460   41.0140 C   0  0  0  0  0  0  0  0  0  0  0  0
   45.6200   33.0210   41.1970 O   0  0  0  0  0  0  0  0  0  0  0  0
   47.1350   34.4610   42.0390 N   0  0  0  0  0  0  0  0  0  0  0  0
   48.0560   34.9330   41.9920 H   0  0  0  0  0  0  0  0  0  0  0  0
   47.5980   33.2370   39.8950 N   0  0  0  0  0  0  0  0  0  0  0  0
   48.8960   32.6750   40.0780 C   0  0  0  0  0  2  0  0  0  0  0  0
   49.4490   31.9350   38.9100 C   0  0  0  0  0  2  0  0  0  0  0  0
   49.1400   32.7130   37.6510 C   0  0  0  0  0  3  0  0  0  0  0  0
   49.6560   32.2980   36.7530 H   0  0  0  0  0  0  0  0  0  0  0  0
   47.6350   32.6800   37.4950 C   0  0  0  0  0  2  0  0  0  0  0  0
   47.0460   33.5270   38.5820 C   0  0  0  0  0  2  0  0  0  0  0  0
   44.6100   36.0760   44.2400 C   0  0  0  0  0  0  0  0  0  0  0  0
   45.4220   35.8530   43.1190 C   0  0  0  0  0  0  0  0  0  0  0  0
   46.2760   34.7570   43.1390 C   0  0  0  0  0  0  0  0  0  0  0  0
   46.3040   33.9370   44.2250 N   0  0  0  0  0  0  0  0  0  0  0  0
   45.5010   34.1830   45.2940 C   0  0  0  0  0  0  0  0  0  0  0  0
   44.6630   35.2410   45.3040 N   0  0  0  0  0  0  0  0  0  0  0  0
   43.9590   36.9420   44.1840 H   0  0  0  0  0  0  0  0  0  0  0  0
   45.4310   36.4800   42.2370 H   0  0  0  0  0  0  0  0  0  0  0  0
   45.5570   33.5070   46.1330 H   0  0  0  0  0  0  0  0  0  0  0  0
  1  2  2  0  0  0  0
  1  3  1  0  0  0  0
  3 14  1  0  0  0  0
  4  3  1  0  0  0  0
  5  6  1  0  0  0  0
  5  1  1  0  0  0  0
  7  6  1  0  0  0  0
  8  7  1  0  0  0  0
  9  8  1  0  0  0  0
 10  8  1  0  0  0  0
 10 11  1  0  0  0  0
 11  5  1  0  0  0  0
 12 17  1  0  0  0  0
 13 14  1  0  0  0  0
 13 12  2  0  0  0  0
 14 15  2  0  0  0  0
 15 16  1  0  0  0  0
 16 17  2  0  0  0  0
 16 20  1  0  0  0  0
 18 12  1  0  0  0  0
 19 13  1  0  0  0  0
M  END
>  <minimizedAffinity>
-4.07015514

>  <minimizedRMSD>
0.907793283

$$$$
