
 OpenBabel03242523303D

 20 21  0  0  0  0  0  0  0  0999 V2000
   45.7930   33.1430   46.4620 C   0  0  0  0  0  0  0  0  0  0  0  0
   46.4370   33.6890   47.2200 H   0  0  0  0  0  0  0  0  0  0  0  0
   44.8850   32.7510   46.9230 H   0  0  0  0  0  0  0  0  0  0  0  0
   44.5160   36.0330   44.5010 C   0  0  0  0  0  0  0  0  0  0  0  0
   45.2270   35.8750   43.3130 C   0  0  0  0  0  0  0  0  0  0  0  0
   46.1170   34.8100   43.1900 C   0  0  0  0  0  0  0  0  0  0  0  0
   46.2770   33.9360   44.2340 N   0  0  0  0  0  0  0  0  0  0  0  0
   45.5690   34.1200   45.3760 C   0  0  0  0  0  0  0  0  0  0  0  0
   44.7110   35.1440   45.5020 N   0  0  0  0  0  0  0  0  0  0  0  0
   43.8410   36.8750   44.5460 H   0  0  0  0  0  0  0  0  0  0  0  0
   45.0940   36.5720   42.4780 H   0  0  0  0  0  0  0  0  0  0  0  0
   46.7040   34.6390   42.2800 H   0  0  0  0  0  0  0  0  0  0  0  0
   46.8750   31.8430   45.8030 S   0  0  0  0  0  0  0  0  0  0  0  0
   49.9850   29.5630   49.4770 H   0  0  0  0  0  0  0  0  0  0  0  0
   48.9730   29.6690   49.2560 N   0  0  0  0  0  0  0  0  0  0  0  0
   48.6080   28.9540   48.0850 C   0  0  0  0  0  0  0  0  0  0  0  0
   48.4830   29.8890   46.8780 C   0  0  0  0  0  0  0  0  0  0  0  0
   47.2970   30.7600   47.1860 C   0  0  0  0  0  0  0  0  0  0  0  0
   47.4600   31.4650   48.4900 C   0  0  0  0  0  0  0  0  0  0  0  0
   48.6930   31.0810   49.2450 C   0  0  0  0  0  0  0  0  0  0  0  0
  1  3  1  0  0  0  0
  1  2  1  0  0  0  0
  4 10  1  0  0  0  0
  4  9  1  0  0  0  0
  5  4  2  0  0  0  0
  6  5  1  0  0  0  0
  6  7  2  0  0  0  0
  7  8  1  0  0  0  0
  8  9  2  0  0  0  0
  8  1  1  0  0  0  0
 11  5  1  0  0  0  0
 12  6  1  0  0  0  0
 13  1  1  0  0  0  0
 13 18  1  0  0  0  0
 15 14  1  0  0  0  0
 16 15  1  0  0  0  0
 17 18  1  0  0  0  0
 17 16  1  0  0  0  0
 18 19  1  0  0  0  0
 19 20  1  0  0  0  0
 20 15  1  0  0  0  0
M  END
>  <minimizedAffinity>
-4.2291522

>  <minimizedRMSD>
1.93045521

$$$$
