
 OpenBabel03252503343D

 20 21  0  0  0  0  0  0  0  0999 V2000
   46.0830   33.8090   40.9280 C   0  0  0  0  0  0  0  0  0  0  0  0
   45.1390   33.0580   41.3570 O   0  0  0  0  0  0  0  0  0  0  0  0
   46.4990   34.7770   41.8800 N   0  0  0  0  0  0  0  0  0  0  0  0
   47.2670   35.4290   41.6360 H   0  0  0  0  0  0  0  0  0  0  0  0
   46.6490   33.6770   39.6270 N   0  0  0  0  0  0  0  0  0  0  0  0
   48.0130   34.0230   39.3860 C   0  0  0  0  0  2  0  0  0  0  0  0
   48.6350   33.3920   38.1900 C   0  0  0  0  0  2  0  0  0  0  0  0
   47.6410   33.4240   37.0500 C   0  0  0  0  0  3  0  0  0  0  0  0
   48.0920   33.1080   36.0790 H   0  0  0  0  0  0  0  0  0  0  0  0
   46.5030   32.5150   37.4600 C   0  0  0  0  0  2  0  0  0  0  0  0
   45.7690   33.1810   38.5830 C   0  0  0  0  0  2  0  0  0  0  0  0
   44.4550   35.9490   44.7570 C   0  0  0  0  0  0  0  0  0  0  0  0
   45.0020   35.9090   43.4670 C   0  0  0  0  0  0  0  0  0  0  0  0
   45.8990   34.8890   43.1690 C   0  0  0  0  0  0  0  0  0  0  0  0
   46.2210   33.9690   44.1190 N   0  0  0  0  0  0  0  0  0  0  0  0
   45.6710   34.0390   45.3610 C   0  0  0  0  0  0  0  0  0  0  0  0
   44.7980   35.0180   45.6780 N   0  0  0  0  0  0  0  0  0  0  0  0
   43.7610   36.7600   44.9480 H   0  0  0  0  0  0  0  0  0  0  0  0
   44.7720   36.6190   42.6840 H   0  0  0  0  0  0  0  0  0  0  0  0
   45.9550   33.2890   46.0810 H   0  0  0  0  0  0  0  0  0  0  0  0
  1  2  2  0  0  0  0
  1  3  1  0  0  0  0
  3 14  1  0  0  0  0
  4  3  1  0  0  0  0
  5  1  1  0  0  0  0
  6  5  1  0  0  0  0
  7  6  1  0  0  0  0
  8 10  1  0  0  0  0
  8  7  1  0  0  0  0
  9  8  1  0  0  0  0
 10 11  1  0  0  0  0
 11  5  1  0  0  0  0
 12 18  1  0  0  0  0
 12 17  1  0  0  0  0
 13 12  2  0  0  0  0
 14 13  1  0  0  0  0
 14 15  2  0  0  0  0
 15 16  1  0  0  0  0
 16 17  2  0  0  0  0
 16 20  1  0  0  0  0
 19 13  1  0  0  0  0
M  END
>  <minimizedAffinity>
-4.33436155

>  <minimizedRMSD>
0.601056993

$$$$
