
 OpenBabel03252503343D

 20 21  0  0  0  0  0  0  0  0999 V2000
   46.5750   33.5820   41.0500 C   0  0  0  0  0  0  0  0  0  0  0  0
   45.3950   33.1220   41.2380 O   0  0  0  0  0  0  0  0  0  0  0  0
   47.0080   34.4440   42.0930 N   0  0  0  0  0  0  0  0  0  0  0  0
   47.9550   34.8610   42.0440 H   0  0  0  0  0  0  0  0  0  0  0  0
   47.3640   33.2560   39.9090 N   0  0  0  0  0  0  0  0  0  0  0  0
   48.7400   32.9100   40.0480 C   0  0  0  0  0  2  0  0  0  0  0  0
   49.3210   32.1160   38.9310 C   0  0  0  0  0  2  0  0  0  0  0  0
   48.8190   32.6780   37.6210 C   0  0  0  0  0  3  0  0  0  0  0  0
   49.3330   32.2310   36.7360 H   0  0  0  0  0  0  0  0  0  0  0  0
   47.3290   32.4140   37.5950 C   0  0  0  0  0  2  0  0  0  0  0  0
   46.6900   33.2970   38.6220 C   0  0  0  0  0  2  0  0  0  0  0  0
   44.5830   36.1200   44.3590 C   0  0  0  0  0  0  0  0  0  0  0  0
   45.3610   35.8800   43.2190 C   0  0  0  0  0  0  0  0  0  0  0  0
   46.1850   34.7600   43.2140 C   0  0  0  0  0  0  0  0  0  0  0  0
   46.2170   33.9370   44.2980 N   0  0  0  0  0  0  0  0  0  0  0  0
   45.4490   34.2020   45.3880 C   0  0  0  0  0  0  0  0  0  0  0  0
   44.6390   35.2820   45.4200 N   0  0  0  0  0  0  0  0  0  0  0  0
   43.9550   37.0040   44.3220 H   0  0  0  0  0  0  0  0  0  0  0  0
   45.3640   36.5080   42.3380 H   0  0  0  0  0  0  0  0  0  0  0  0
   45.5060   33.5220   46.2230 H   0  0  0  0  0  0  0  0  0  0  0  0
  1  2  2  0  0  0  0
  1  3  1  0  0  0  0
  3 14  1  0  0  0  0
  4  3  1  0  0  0  0
  5  6  1  0  0  0  0
  5  1  1  0  0  0  0
  7  6  1  0  0  0  0
  8  7  1  0  0  0  0
  9  8  1  0  0  0  0
 10  8  1  0  0  0  0
 10 11  1  0  0  0  0
 11  5  1  0  0  0  0
 12 17  1  0  0  0  0
 13 12  2  0  0  0  0
 14 13  1  0  0  0  0
 14 15  2  0  0  0  0
 15 16  1  0  0  0  0
 16 17  2  0  0  0  0
 16 20  1  0  0  0  0
 18 12  1  0  0  0  0
 19 13  1  0  0  0  0
M  END
>  <minimizedAffinity>
-4.07668877

>  <minimizedRMSD>
0.814995468

$$$$
