
 OpenBabel03242523313D

 20 21  0  0  0  0  0  0  0  0999 V2000
   36.0640   30.2680   40.8340 C   0  0  0  0  0  0  0  0  0  0  0  0
   35.0870   29.7240   40.6450 H   0  0  0  0  0  0  0  0  0  0  0  0
   35.8900   31.2670   41.2380 H   0  0  0  0  0  0  0  0  0  0  0  0
   38.6920   28.9180   43.0920 C   0  0  0  0  0  0  0  0  0  0  0  0
   38.2030   27.6330   43.3190 C   0  0  0  0  0  0  0  0  0  0  0  0
   37.0090   27.2430   42.7170 C   0  0  0  0  0  0  0  0  0  0  0  0
   36.3370   28.1260   41.9110 N   0  0  0  0  0  0  0  0  0  0  0  0
   36.8410   29.3680   41.7110 C   0  0  0  0  0  0  0  0  0  0  0  0
   37.9910   29.7510   42.2890 N   0  0  0  0  0  0  0  0  0  0  0  0
   39.6200   29.1710   43.5830 H   0  0  0  0  0  0  0  0  0  0  0  0
   38.7450   26.9280   43.9610 H   0  0  0  0  0  0  0  0  0  0  0  0
   36.5770   26.2460   42.8630 H   0  0  0  0  0  0  0  0  0  0  0  0
   36.8890   30.2890   39.2170 S   0  0  0  0  0  0  0  0  0  0  0  0
   39.9480   34.5270   40.2410 H   0  0  0  0  0  0  0  0  0  0  0  0
   39.3400   34.1580   39.4810 N   0  0  0  0  0  0  0  0  0  0  0  0
   37.9690   34.1610   39.8480 C   0  0  0  0  0  2  0  0  0  0  0  0
   37.4980   32.7610   40.2550 C   0  0  0  0  0  2  0  0  0  0  0  0
   37.5600   31.9500   38.9900 C   0  0  0  0  0  3  0  0  0  0  0  0
   38.9220   31.9850   38.3830 C   0  0  0  0  0  2  0  0  0  0  0  0
   39.8860   32.8840   39.0900 C   0  0  0  0  0  2  0  0  0  0  0  0
  1  3  1  0  0  0  0
  1  8  1  0  0  0  0
  2  1  1  0  0  0  0
  4  5  1  0  0  0  0
  4 10  1  0  0  0  0
  5 11  1  0  0  0  0
  6 12  1  0  0  0  0
  6  5  2  0  0  0  0
  7  6  1  0  0  0  0
  8  7  2  0  0  0  0
  8  9  1  0  0  0  0
  9  4  2  0  0  0  0
 13  1  1  0  0  0  0
 15 16  1  0  0  0  0
 15 14  1  0  0  0  0
 16 17  1  0  0  0  0
 18 13  1  0  0  0  0
 18 17  1  0  0  0  0
 19 18  1  0  0  0  0
 19 20  1  0  0  0  0
 20 15  1  0  0  0  0
M  END
>  <minimizedAffinity>
-4.14723444

$$$$

 OpenBabel03242523313D

 20 21  0  0  0  0  0  0  0  0999 V2000
   38.4640   27.6530   43.1050 C   0  0  0  0  0  0  0  0  0  0  0  0
   37.4260   28.1060   43.1540 H   0  0  0  0  0  0  0  0  0  0  0  0
   38.9410   27.6490   44.0870 H   0  0  0  0  0  0  0  0  0  0  0  0
   36.8920   24.5430   41.8070 C   0  0  0  0  0  0  0  0  0  0  0  0
   38.0160   23.8480   41.3660 C   0  0  0  0  0  0  0  0  0  0  0  0
   39.2740   24.4290   41.5100 C   0  0  0  0  0  0  0  0  0  0  0  0
   39.3860   25.6700   42.0820 N   0  0  0  0  0  0  0  0  0  0  0  0
   38.2710   26.3180   42.5000 C   0  0  0  0  0  0  0  0  0  0  0  0
   37.0560   25.7650   42.3640 N   0  0  0  0  0  0  0  0  0  0  0  0
   35.9400   24.0500   41.6710 H   0  0  0  0  0  0  0  0  0  0  0  0
   37.9250   22.8540   40.9130 H   0  0  0  0  0  0  0  0  0  0  0  0
   40.1920   23.9300   41.1790 H   0  0  0  0  0  0  0  0  0  0  0  0
   39.3450   28.6730   41.8890 S   0  0  0  0  0  0  0  0  0  0  0  0
   36.4360   32.4680   39.5430 H   0  0  0  0  0  0  0  0  0  0  0  0
   36.7360   32.1810   40.4980 N   0  0  0  0  0  0  0  0  0  0  0  0
   38.1290   32.3680   40.6960 C   0  0  0  0  0  2  0  0  0  0  0  0
   38.8920   31.0450   40.5740 C   0  0  0  0  0  2  0  0  0  0  0  0
   38.4380   30.2290   41.7530 C   0  0  0  0  0  3  0  0  0  0  0  0
   36.9550   30.0800   41.7780 C   0  0  0  0  0  2  0  0  0  0  0  0
   36.2430   30.8440   40.7070 C   0  0  0  0  0  2  0  0  0  0  0  0
  1  2  1  0  0  0  0
  1  3  1  0  0  0  0
  4  9  1  0  0  0  0
  5  6  1  0  0  0  0
  5  4  2  0  0  0  0
  6  7  2  0  0  0  0
  7  8  1  0  0  0  0
  8  1  1  0  0  0  0
  9  8  2  0  0  0  0
 10  4  1  0  0  0  0
 11  5  1  0  0  0  0
 12  6  1  0  0  0  0
 13  1  1  0  0  0  0
 14 15  1  0  0  0  0
 15 16  1  0  0  0  0
 15 20  1  0  0  0  0
 17 16  1  0  0  0  0
 17 18  1  0  0  0  0
 18 19  1  0  0  0  0
 18 13  1  0  0  0  0
 20 19  1  0  0  0  0
M  END
>  <minimizedAffinity>
-3.97024536

$$$$

 OpenBabel03242523313D

 20 21  0  0  0  0  0  0  0  0999 V2000
   39.9470   29.0690   41.4020 C   0  0  0  0  0  0  0  0  0  0  0  0
   40.8600   28.6560   41.9330 H   0  0  0  0  0  0  0  0  0  0  0  0
   40.0480   28.9850   40.3180 H   0  0  0  0  0  0  0  0  0  0  0  0
   37.2890   26.5320   41.9770 C   0  0  0  0  0  0  0  0  0  0  0  0
   36.6840   27.0450   43.1230 C   0  0  0  0  0  0  0  0  0  0  0  0
   37.1740   28.2240   43.6800 C   0  0  0  0  0  0  0  0  0  0  0  0
   38.2380   28.8600   43.0940 N   0  0  0  0  0  0  0  0  0  0  0  0
   38.8020   28.3330   41.9790 C   0  0  0  0  0  0  0  0  0  0  0  0
   38.3370   27.1970   41.4380 N   0  0  0  0  0  0  0  0  0  0  0  0
   36.8740   25.6140   41.5860 H   0  0  0  0  0  0  0  0  0  0  0  0
   35.8320   26.5370   43.5870 H   0  0  0  0  0  0  0  0  0  0  0  0
   36.7390   28.6710   44.5810 H   0  0  0  0  0  0  0  0  0  0  0  0
   39.8280   30.7860   41.9760 S   0  0  0  0  0  0  0  0  0  0  0  0
   36.6520   34.3330   39.5880 H   0  0  0  0  0  0  0  0  0  0  0  0
   37.5150   33.7860   39.3870 N   0  0  0  0  0  0  0  0  0  0  0  0
   37.2480   32.3960   39.2720 C   0  0  0  0  0  2  0  0  0  0  0  0
   37.6400   31.6460   40.5490 C   0  0  0  0  0  2  0  0  0  0  0  0
   39.1390   31.7500   40.6120 C   0  0  0  0  0  3  0  0  0  0  0  0
   39.5920   33.1710   40.5740 C   0  0  0  0  0  2  0  0  0  0  0  0
   38.4880   34.1610   40.3790 C   0  0  0  0  0  2  0  0  0  0  0  0
  1  2  1  0  0  0  0
  1 13  1  0  0  0  0
  1  8  1  0  0  0  0
  3  1  1  0  0  0  0
  4  5  1  0  0  0  0
  5 11  1  0  0  0  0
  5  6  2  0  0  0  0
  6 12  1  0  0  0  0
  7  6  1  0  0  0  0
  8  7  2  0  0  0  0
  9  4  2  0  0  0  0
  9  8  1  0  0  0  0
 10  4  1  0  0  0  0
 15 14  1  0  0  0  0
 15 20  1  0  0  0  0
 16 15  1  0  0  0  0
 16 17  1  0  0  0  0
 17 18  1  0  0  0  0
 18 13  1  0  0  0  0
 19 18  1  0  0  0  0
 20 19  1  0  0  0  0
M  END
>  <minimizedAffinity>
-3.96003175

$$$$

 OpenBabel03242523313D

 20 21  0  0  0  0  0  0  0  0999 V2000
   37.9720   30.6000   39.6550 C   0  0  0  0  0  0  0  0  0  0  0  0
   37.4670   30.6430   38.6410 H   0  0  0  0  0  0  0  0  0  0  0  0
   38.5710   29.6930   39.7610 H   0  0  0  0  0  0  0  0  0  0  0  0
   39.0600   34.0080   40.6710 C   0  0  0  0  0  0  0  0  0  0  0  0
   40.2000   34.1610   39.8840 C   0  0  0  0  0  0  0  0  0  0  0  0
   40.5830   33.1270   39.0330 C   0  0  0  0  0  0  0  0  0  0  0  0
   39.8340   31.9800   38.9810 N   0  0  0  0  0  0  0  0  0  0  0  0
   38.7310   31.8640   39.7590 C   0  0  0  0  0  0  0  0  0  0  0  0
   38.3560   32.8550   40.5830 N   0  0  0  0  0  0  0  0  0  0  0  0
   38.8080   34.8370   41.3150 H   0  0  0  0  0  0  0  0  0  0  0  0
   40.7940   35.0810   39.9250 H   0  0  0  0  0  0  0  0  0  0  0  0
   41.4720   33.1920   38.3940 H   0  0  0  0  0  0  0  0  0  0  0  0
   36.6050   30.6930   40.8450 S   0  0  0  0  0  0  0  0  0  0  0  0
   38.6310   26.3280   43.1280 H   0  0  0  0  0  0  0  0  0  0  0  0
   38.2360   27.2510   43.4040 N   0  0  0  0  0  0  0  0  0  0  0  0
   36.8450   27.3360   43.1330 C   0  0  0  0  0  2  0  0  0  0  0  0
   36.5740   28.1350   41.8540 C   0  0  0  0  0  2  0  0  0  0  0  0
   36.9930   29.5420   42.1820 C   0  0  0  0  0  3  0  0  0  0  0  0
   38.4080   29.5970   42.6490 C   0  0  0  0  0  2  0  0  0  0  0  0
   39.0610   28.2590   42.7880 C   0  0  0  0  0  2  0  0  0  0  0  0
  1  8  1  0  0  0  0
  1  3  1  0  0  0  0
  1 13  1  0  0  0  0
  2  1  1  0  0  0  0
  4 10  1  0  0  0  0
  5 11  1  0  0  0  0
  5  4  2  0  0  0  0
  6  5  1  0  0  0  0
  7  6  2  0  0  0  0
  7  8  1  0  0  0  0
  8  9  2  0  0  0  0
  9  4  1  0  0  0  0
 12  6  1  0  0  0  0
 13 18  1  0  0  0  0
 14 15  1  0  0  0  0
 16 15  1  0  0  0  0
 17 18  1  0  0  0  0
 17 16  1  0  0  0  0
 18 19  1  0  0  0  0
 19 20  1  0  0  0  0
 20 15  1  0  0  0  0
M  END
>  <minimizedAffinity>
-3.90093517

$$$$

 OpenBabel03242523313D

 20 21  0  0  0  0  0  0  0  0999 V2000
   39.7730   29.0860   40.6650 C   0  0  0  0  0  0  0  0  0  0  0  0
   40.7180   28.5180   40.9330 H   0  0  0  0  0  0  0  0  0  0  0  0
   39.5330   28.9770   39.6050 H   0  0  0  0  0  0  0  0  0  0  0  0
   37.5650   28.6660   43.6280 C   0  0  0  0  0  0  0  0  0  0  0  0
   36.8140   27.5590   43.2370 C   0  0  0  0  0  0  0  0  0  0  0  0
   37.0580   26.9760   41.9960 C   0  0  0  0  0  0  0  0  0  0  0  0
   38.0310   27.4970   41.1820 N   0  0  0  0  0  0  0  0  0  0  0  0
   38.7430   28.5740   41.5930 C   0  0  0  0  0  0  0  0  0  0  0  0
   38.5130   29.1420   42.7870 N   0  0  0  0  0  0  0  0  0  0  0  0
   37.3360   29.0830   44.5980 H   0  0  0  0  0  0  0  0  0  0  0  0
   36.0410   27.1420   43.8920 H   0  0  0  0  0  0  0  0  0  0  0  0
   36.4960   26.1060   41.6360 H   0  0  0  0  0  0  0  0  0  0  0  0
   40.1260   30.8000   41.1430 S   0  0  0  0  0  0  0  0  0  0  0  0
   39.8100   31.7770   35.9170 H   0  0  0  0  0  0  0  0  0  0  0  0
   39.6980   32.2800   36.8210 N   0  0  0  0  0  0  0  0  0  0  0  0
   40.9340   32.4280   37.5030 C   0  0  0  0  0  2  0  0  0  0  0  0
   41.0740   31.4050   38.6340 C   0  0  0  0  0  2  0  0  0  0  0  0
   40.0270   31.7960   39.6390 C   0  0  0  0  0  3  0  0  0  0  0  0
   38.6690   31.8470   39.0250 C   0  0  0  0  0  2  0  0  0  0  0  0
   38.6540   31.6050   37.5490 C   0  0  0  0  0  2  0  0  0  0  0  0
  1  2  1  0  0  0  0
  1 13  1  0  0  0  0
  1  8  1  0  0  0  0
  3  1  1  0  0  0  0
  4 10  1  0  0  0  0
  5  4  1  0  0  0  0
  5 11  1  0  0  0  0
  6  5  2  0  0  0  0
  7  8  2  0  0  0  0
  7  6  1  0  0  0  0
  8  9  1  0  0  0  0
  9  4  2  0  0  0  0
 12  6  1  0  0  0  0
 14 15  1  0  0  0  0
 15 16  1  0  0  0  0
 15 20  1  0  0  0  0
 16 17  1  0  0  0  0
 17 18  1  0  0  0  0
 18 13  1  0  0  0  0
 19 18  1  0  0  0  0
 20 19  1  0  0  0  0
M  END
>  <minimizedAffinity>
-3.89790988

$$$$

 OpenBabel03242523313D

 20 21  0  0  0  0  0  0  0  0999 V2000
   39.0850   29.5640   42.5590 C   0  0  0  0  0  0  0  0  0  0  0  0
   39.4370   28.7620   41.8380 H   0  0  0  0  0  0  0  0  0  0  0  0
   39.8880   29.8740   43.2290 H   0  0  0  0  0  0  0  0  0  0  0  0
   38.7340   32.7150   40.6160 C   0  0  0  0  0  0  0  0  0  0  0  0
   37.4480   32.5620   40.1030 C   0  0  0  0  0  0  0  0  0  0  0  0
   36.7250   31.4130   40.4130 C   0  0  0  0  0  0  0  0  0  0  0  0
   37.2860   30.4550   41.2170 N   0  0  0  0  0  0  0  0  0  0  0  0
   38.5400   30.6370   41.7000 C   0  0  0  0  0  0  0  0  0  0  0  0
   39.2430   31.7410   41.4050 N   0  0  0  0  0  0  0  0  0  0  0  0
   39.2530   33.6230   40.3440 H   0  0  0  0  0  0  0  0  0  0  0  0
   36.9990   33.3310   39.4630 H   0  0  0  0  0  0  0  0  0  0  0  0
   35.7100   31.2380   40.0350 H   0  0  0  0  0  0  0  0  0  0  0  0
   37.6830   28.8060   43.4280 S   0  0  0  0  0  0  0  0  0  0  0  0
   38.9290   24.2090   41.0430 H   0  0  0  0  0  0  0  0  0  0  0  0
   38.6930   24.5670   41.9920 N   0  0  0  0  0  0  0  0  0  0  0  0
   37.3380   24.9810   42.0820 C   0  0  0  0  0  2  0  0  0  0  0  0
   37.2150   26.5060   41.9960 C   0  0  0  0  0  2  0  0  0  0  0  0
   37.8620   27.0170   43.2530 C   0  0  0  0  0  3  0  0  0  0  0  0
   39.2630   26.5240   43.3880 C   0  0  0  0  0  2  0  0  0  0  0  0
   39.6800   25.5630   42.3210 C   0  0  0  0  0  2  0  0  0  0  0  0
  1  3  1  0  0  0  0
  1 13  1  0  0  0  0
  2  1  1  0  0  0  0
  4  9  1  0  0  0  0
  5  6  1  0  0  0  0
  5  4  2  0  0  0  0
  6  7  2  0  0  0  0
  7  8  1  0  0  0  0
  8  1  1  0  0  0  0
  9  8  2  0  0  0  0
 10  4  1  0  0  0  0
 11  5  1  0  0  0  0
 12  6  1  0  0  0  0
 14 15  1  0  0  0  0
 15 16  1  0  0  0  0
 15 20  1  0  0  0  0
 17 16  1  0  0  0  0
 17 18  1  0  0  0  0
 18 19  1  0  0  0  0
 18 13  1  0  0  0  0
 20 19  1  0  0  0  0
M  END
>  <minimizedAffinity>
-3.87849498

$$$$

 OpenBabel03242523313D

 20 21  0  0  0  0  0  0  0  0999 V2000
   36.5700   27.4810   40.3580 C   0  0  0  0  0  0  0  0  0  0  0  0
   37.2640   27.5640   39.4650 H   0  0  0  0  0  0  0  0  0  0  0  0
   35.7970   26.7280   40.1910 H   0  0  0  0  0  0  0  0  0  0  0  0
   39.0850   25.9210   42.6100 C   0  0  0  0  0  0  0  0  0  0  0  0
   39.0660   26.8140   43.6790 C   0  0  0  0  0  0  0  0  0  0  0  0
   38.2160   27.9170   43.6280 C   0  0  0  0  0  0  0  0  0  0  0  0
   37.4140   28.1050   42.5320 N   0  0  0  0  0  0  0  0  0  0  0  0
   37.4580   27.2160   41.5090 C   0  0  0  0  0  0  0  0  0  0  0  0
   38.2750   26.1520   41.5510 N   0  0  0  0  0  0  0  0  0  0  0  0
   39.7620   25.0830   42.6970 H   0  0  0  0  0  0  0  0  0  0  0  0
   39.7040   26.6590   44.5560 H   0  0  0  0  0  0  0  0  0  0  0  0
   38.1620   28.6530   44.4390 H   0  0  0  0  0  0  0  0  0  0  0  0
   35.9010   29.1550   40.5680 S   0  0  0  0  0  0  0  0  0  0  0  0
   37.2700   33.3100   37.5310 H   0  0  0  0  0  0  0  0  0  0  0  0
   37.7150   32.6210   38.1720 N   0  0  0  0  0  0  0  0  0  0  0  0
   37.7090   31.3100   37.6280 C   0  0  0  0  0  2  0  0  0  0  0  0
   36.5990   30.4540   38.2480 C   0  0  0  0  0  2  0  0  0  0  0  0
   37.0060   30.2770   39.6850 C   0  0  0  0  0  3  0  0  0  0  0  0
   37.2150   31.5900   40.3610 C   0  0  0  0  0  2  0  0  0  0  0  0
   37.0820   32.7740   39.4560 C   0  0  0  0  0  2  0  0  0  0  0  0
  1 13  1  0  0  0  0
  1  8  1  0  0  0  0
  2  1  1  0  0  0  0
  3  1  1  0  0  0  0
  4 10  1  0  0  0  0
  4  5  1  0  0  0  0
  5 11  1  0  0  0  0
  6  5  2  0  0  0  0
  6 12  1  0  0  0  0
  7  6  1  0  0  0  0
  8  9  1  0  0  0  0
  8  7  2  0  0  0  0
  9  4  2  0  0  0  0
 14 15  1  0  0  0  0
 15 20  1  0  0  0  0
 16 15  1  0  0  0  0
 16 17  1  0  0  0  0
 17 18  1  0  0  0  0
 18 19  1  0  0  0  0
 18 13  1  0  0  0  0
 20 19  1  0  0  0  0
M  END
>  <minimizedAffinity>
-3.85908103

$$$$

 OpenBabel03242523313D

 20 21  0  0  0  0  0  0  0  0999 V2000
   37.1380   29.7980   39.5310 C   0  0  0  0  0  0  0  0  0  0  0  0
   36.6090   29.8790   38.5310 H   0  0  0  0  0  0  0  0  0  0  0  0
   37.9230   29.0390   39.5030 H   0  0  0  0  0  0  0  0  0  0  0  0
   37.4300   33.5040   39.6160 C   0  0  0  0  0  0  0  0  0  0  0  0
   38.5390   33.6580   40.4440 C   0  0  0  0  0  0  0  0  0  0  0  0
   39.1660   32.5250   40.9580 C   0  0  0  0  0  0  0  0  0  0  0  0
   38.6850   31.2810   40.6400 N   0  0  0  0  0  0  0  0  0  0  0  0
   37.6040   31.1670   39.8300 C   0  0  0  0  0  0  0  0  0  0  0  0
   36.9940   32.2540   39.3330 N   0  0  0  0  0  0  0  0  0  0  0  0
   36.9780   34.4130   39.2450 H   0  0  0  0  0  0  0  0  0  0  0  0
   38.9240   34.6530   40.6940 H   0  0  0  0  0  0  0  0  0  0  0  0
   40.0410   32.5870   41.6170 H   0  0  0  0  0  0  0  0  0  0  0  0
   35.8140   29.4100   40.7110 S   0  0  0  0  0  0  0  0  0  0  0  0
   39.4630   26.2020   42.8940 H   0  0  0  0  0  0  0  0  0  0  0  0
   38.5370   26.6170   43.1270 N   0  0  0  0  0  0  0  0  0  0  0  0
   37.4960   26.0760   42.3280 C   0  0  0  0  0  2  0  0  0  0  0  0
   37.1070   27.0320   41.1960 C   0  0  0  0  0  2  0  0  0  0  0  0
   36.4910   28.2170   41.8870 C   0  0  0  0  0  3  0  0  0  0  0  0
   37.4190   28.8070   42.8940 C   0  0  0  0  0  2  0  0  0  0  0  0
   38.6950   28.0470   43.0730 C   0  0  0  0  0  2  0  0  0  0  0  0
  1  8  1  0  0  0  0
  1 13  1  0  0  0  0
  2  1  1  0  0  0  0
  3  1  1  0  0  0  0
  4  5  1  0  0  0  0
  5 11  1  0  0  0  0
  5  6  2  0  0  0  0
  6 12  1  0  0  0  0
  7  6  1  0  0  0  0
  8  7  2  0  0  0  0
  9  4  2  0  0  0  0
  9  8  1  0  0  0  0
 10  4  1  0  0  0  0
 13 18  1  0  0  0  0
 14 15  1  0  0  0  0
 16 15  1  0  0  0  0
 17 18  1  0  0  0  0
 17 16  1  0  0  0  0
 18 19  1  0  0  0  0
 19 20  1  0  0  0  0
 20 15  1  0  0  0  0
M  END
>  <minimizedAffinity>
-3.85677528

$$$$

 OpenBabel03242523313D

 20 21  0  0  0  0  0  0  0  0999 V2000
   39.6100   29.4550   42.1090 C   0  0  0  0  0  0  0  0  0  0  0  0
   40.1890   28.7940   41.3920 H   0  0  0  0  0  0  0  0  0  0  0  0
   40.2800   30.0990   42.6820 H   0  0  0  0  0  0  0  0  0  0  0  0
   38.0770   31.4360   39.3610 C   0  0  0  0  0  0  0  0  0  0  0  0
   36.7450   31.4600   39.7700 C   0  0  0  0  0  0  0  0  0  0  0  0
   36.3850   30.8160   40.9510 C   0  0  0  0  0  0  0  0  0  0  0  0
   37.3440   30.1730   41.6920 N   0  0  0  0  0  0  0  0  0  0  0  0
   38.6300   30.1690   41.2650 C   0  0  0  0  0  0  0  0  0  0  0  0
   38.9840   30.7870   40.1260 N   0  0  0  0  0  0  0  0  0  0  0  0
   38.3040   31.9480   38.4360 H   0  0  0  0  0  0  0  0  0  0  0  0
   35.9820   31.9780   39.1780 H   0  0  0  0  0  0  0  0  0  0  0  0
   35.3530   30.8000   41.3200 H   0  0  0  0  0  0  0  0  0  0  0  0
   38.6800   28.2920   43.1470 S   0  0  0  0  0  0  0  0  0  0  0  0
   38.5400   22.9690   43.0110 H   0  0  0  0  0  0  0  0  0  0  0  0
   38.8140   23.7670   42.4010 N   0  0  0  0  0  0  0  0  0  0  0  0
   39.9650   24.4390   42.8890 C   0  0  0  0  0  2  0  0  0  0  0  0
   39.5880   25.7380   43.6090 C   0  0  0  0  0  2  0  0  0  0  0  0
   39.0430   26.6330   42.5310 C   0  0  0  0  0  3  0  0  0  0  0  0
   37.9120   25.9880   41.8030 C   0  0  0  0  0  2  0  0  0  0  0  0
   37.6380   24.5780   42.2210 C   0  0  0  0  0  2  0  0  0  0  0  0
  1  3  1  0  0  0  0
  1 13  1  0  0  0  0
  2  1  1  0  0  0  0
  4  5  2  0  0  0  0
  4  9  1  0  0  0  0
  5  6  1  0  0  0  0
  6 12  1  0  0  0  0
  6  7  2  0  0  0  0
  8  7  1  0  0  0  0
  8  1  1  0  0  0  0
  9  8  2  0  0  0  0
 10  4  1  0  0  0  0
 11  5  1  0  0  0  0
 15 16  1  0  0  0  0
 15 14  1  0  0  0  0
 16 17  1  0  0  0  0
 18 13  1  0  0  0  0
 18 17  1  0  0  0  0
 19 20  1  0  0  0  0
 19 18  1  0  0  0  0
 20 15  1  0  0  0  0
M  END
>  <minimizedAffinity>
-3.84644151

$$$$
