
 OpenBabel03252503343D

 20 21  0  0  0  0  0  0  0  0999 V2000
   46.1660   33.9620   40.6110 C   0  0  0  0  0  0  0  0  0  0  0  0
   44.9340   33.6730   40.8040 O   0  0  0  0  0  0  0  0  0  0  0  0
   46.7800   34.5610   41.7430 N   0  0  0  0  0  0  0  0  0  0  0  0
   47.7810   34.8230   41.6970 H   0  0  0  0  0  0  0  0  0  0  0  0
   46.8410   33.7040   39.3840 N   0  0  0  0  0  0  0  0  0  0  0  0
   46.2780   32.8270   38.4090 C   0  0  0  0  0  2  0  0  0  0  0  0
   46.7640   33.0160   37.0150 C   0  0  0  0  0  2  0  0  0  0  0  0
   48.2600   33.2390   37.0460 C   0  0  0  0  0  3  0  0  0  0  0  0
   48.7150   33.2340   36.0270 H   0  0  0  0  0  0  0  0  0  0  0  0
   48.4710   34.5630   37.7480 C   0  0  0  0  0  2  0  0  0  0  0  0
   48.1150   34.3770   39.1910 C   0  0  0  0  0  2  0  0  0  0  0  0
   44.6440   36.1510   44.3390 C   0  0  0  0  0  0  0  0  0  0  0  0
   45.3140   35.9740   43.1210 C   0  0  0  0  0  0  0  0  0  0  0  0
   46.0670   34.8180   42.9530 C   0  0  0  0  0  0  0  0  0  0  0  0
   46.1370   33.9000   43.9560 N   0  0  0  0  0  0  0  0  0  0  0  0
   45.4730   34.1060   45.1240 C   0  0  0  0  0  0  0  0  0  0  0  0
   44.7340   35.2190   45.3160 N   0  0  0  0  0  0  0  0  0  0  0  0
   44.0680   37.0660   44.4300 H   0  0  0  0  0  0  0  0  0  0  0  0
   45.2850   36.6770   42.3000 H   0  0  0  0  0  0  0  0  0  0  0  0
   45.5560   33.3520   45.8910 H   0  0  0  0  0  0  0  0  0  0  0  0
  1  2  2  0  0  0  0
  1  3  1  0  0  0  0
  3 14  1  0  0  0  0
  4  3  1  0  0  0  0
  5  1  1  0  0  0  0
  6  5  1  0  0  0  0
  7  8  1  0  0  0  0
  7  6  1  0  0  0  0
  8 10  1  0  0  0  0
  9  8  1  0  0  0  0
 10 11  1  0  0  0  0
 11  5  1  0  0  0  0
 12 18  1  0  0  0  0
 12 17  1  0  0  0  0
 13 12  2  0  0  0  0
 14 13  1  0  0  0  0
 14 15  2  0  0  0  0
 15 16  1  0  0  0  0
 16 17  2  0  0  0  0
 16 20  1  0  0  0  0
 19 13  1  0  0  0  0
M  END
>  <minimizedAffinity>
-4.72167969

>  <minimizedRMSD>
0.465801239

$$$$
