
 OpenBabel03252503343D

 20 21  0  0  0  0  0  0  0  0999 V2000
   46.6800   33.4810   41.0380 C   0  0  0  0  0  0  0  0  0  0  0  0
   45.5190   32.9810   41.2450 O   0  0  0  0  0  0  0  0  0  0  0  0
   47.0790   34.3930   42.0510 N   0  0  0  0  0  0  0  0  0  0  0  0
   48.0080   34.8470   41.9860 H   0  0  0  0  0  0  0  0  0  0  0  0
   47.4790   33.1490   39.9070 N   0  0  0  0  0  0  0  0  0  0  0  0
   47.3800   33.9000   38.6980 C   0  0  0  0  0  2  0  0  0  0  0  0
   48.5600   33.8250   37.7940 C   0  0  0  0  0  2  0  0  0  0  0  0
   49.0500   32.3940   37.7500 C   0  0  0  0  0  3  0  0  0  0  0  0
   49.8370   32.2330   36.9750 H   0  0  0  0  0  0  0  0  0  0  0  0
   49.5630   32.0840   39.1400 C   0  0  0  0  0  2  0  0  0  0  0  0
   48.3820   32.0210   40.0600 C   0  0  0  0  0  2  0  0  0  0  0  0
   44.6190   36.0670   44.2820 C   0  0  0  0  0  0  0  0  0  0  0  0
   45.4070   35.8220   43.1490 C   0  0  0  0  0  0  0  0  0  0  0  0
   46.2450   34.7130   43.1640 C   0  0  0  0  0  0  0  0  0  0  0  0
   46.2830   33.9050   44.2590 N   0  0  0  0  0  0  0  0  0  0  0  0
   45.5050   34.1740   45.3400 C   0  0  0  0  0  0  0  0  0  0  0  0
   44.6810   35.2430   45.3540 N   0  0  0  0  0  0  0  0  0  0  0  0
   43.9800   36.9420   44.2300 H   0  0  0  0  0  0  0  0  0  0  0  0
   45.4070   36.4380   42.2600 H   0  0  0  0  0  0  0  0  0  0  0  0
   45.5670   33.5060   46.1850 H   0  0  0  0  0  0  0  0  0  0  0  0
  1  2  2  0  0  0  0
  1  3  1  0  0  0  0
  3 14  1  0  0  0  0
  4  3  1  0  0  0  0
  5 11  1  0  0  0  0
  5  1  1  0  0  0  0
  6  5  1  0  0  0  0
  7  6  1  0  0  0  0
  8  7  1  0  0  0  0
  8 10  1  0  0  0  0
  9  8  1  0  0  0  0
 10 11  1  0  0  0  0
 12 17  1  0  0  0  0
 13 14  1  0  0  0  0
 13 12  2  0  0  0  0
 14 15  2  0  0  0  0
 15 16  1  0  0  0  0
 16 17  2  0  0  0  0
 16 20  1  0  0  0  0
 18 12  1  0  0  0  0
 19 13  1  0  0  0  0
M  END
>  <minimizedAffinity>
-4.05838585

>  <minimizedRMSD>
0.896313846

$$$$
