
 OpenBabel03252503343D

 20 21  0  0  0  0  0  0  0  0999 V2000
   47.5210   32.4950   40.5140 C   0  0  0  0  0  0  0  0  0  0  0  0
   46.5820   31.6690   40.7880 O   0  0  0  0  0  0  0  0  0  0  0  0
   48.1440   33.0330   41.6710 N   0  0  0  0  0  0  0  0  0  0  0  0
   48.9250   33.7030   41.5600 H   0  0  0  0  0  0  0  0  0  0  0  0
   47.8950   32.8300   39.1800 N   0  0  0  0  0  0  0  0  0  0  0  0
   47.8190   34.1770   38.7180 C   0  0  0  0  0  2  0  0  0  0  0  0
   48.6790   34.5080   37.5490 C   0  0  0  0  0  2  0  0  0  0  0  0
   48.6070   33.3700   36.5550 C   0  0  0  0  0  3  0  0  0  0  0  0
   49.1050   33.6150   35.5870 H   0  0  0  0  0  0  0  0  0  0  0  0
   49.2550   32.1810   37.2320 C   0  0  0  0  0  2  0  0  0  0  0  0
   48.3490   31.7360   38.3390 C   0  0  0  0  0  2  0  0  0  0  0  0
   46.6410   33.1480   45.0700 C   0  0  0  0  0  0  0  0  0  0  0  0
   47.0060   33.5660   43.7840 C   0  0  0  0  0  0  0  0  0  0  0  0
   47.7330   32.6850   42.9920 C   0  0  0  0  0  0  0  0  0  0  0  0
   48.0680   31.4570   43.4750 N   0  0  0  0  0  0  0  0  0  0  0  0
   47.6960   31.0850   44.7290 C   0  0  0  0  0  0  0  0  0  0  0  0
   46.9900   31.9200   45.5200 N   0  0  0  0  0  0  0  0  0  0  0  0
   46.0750   33.8660   45.6550 H   0  0  0  0  0  0  0  0  0  0  0  0
   46.7600   34.5320   43.3630 H   0  0  0  0  0  0  0  0  0  0  0  0
   47.9830   30.1030   45.0700 H   0  0  0  0  0  0  0  0  0  0  0  0
  1  2  2  0  0  0  0
  1  3  1  0  0  0  0
  3 14  1  0  0  0  0
  4  3  1  0  0  0  0
  5  1  1  0  0  0  0
  6  5  1  0  0  0  0
  7  6  1  0  0  0  0
  8 10  1  0  0  0  0
  8  7  1  0  0  0  0
  9  8  1  0  0  0  0
 10 11  1  0  0  0  0
 11  5  1  0  0  0  0
 12 17  1  0  0  0  0
 12 18  1  0  0  0  0
 13 12  2  0  0  0  0
 14 15  2  0  0  0  0
 14 13  1  0  0  0  0
 15 16  1  0  0  0  0
 16 20  1  0  0  0  0
 16 17  2  0  0  0  0
 19 13  1  0  0  0  0
M  END
>  <minimizedAffinity>
-3.18439889

>  <minimizedRMSD>
2.49001551

$$$$
