
 OpenBabel03242516333D

 42 45  0  0  1  0  0  0  0  0999 V2000
   48.0370   34.6710   41.9790 C   0  0  2  0  0  0  0  0  0  0  0  0
   46.7130   33.9050   42.2440 C   0  0  1  0  0  0  0  0  0  0  0  0
   47.2240   32.6780   42.5440 O   0  0  0  0  0  0  0  0  0  0  0  0
   48.1020   32.4040   41.4740 C   0  0  0  0  0  0  0  0  0  0  0  0
   48.5120   33.7640   40.8640 C   0  0  1  0  0  0  0  0  0  0  0  0
   47.8380   35.6930   41.6640 H   0  0  0  0  0  0  0  0  0  0  0  0
   46.1280   33.9140   41.3050 H   0  0  0  0  0  0  0  0  0  0  0  0
   49.0000   31.9290   41.8990 H   0  0  0  0  0  0  0  0  0  0  0  0
   47.5600   31.7810   40.7460 H   0  0  0  0  0  0  0  0  0  0  0  0
   49.5990   33.8560   40.7200 H   0  0  0  0  0  0  0  0  0  0  0  0
   44.5110   36.0770   44.4560 C   0  0  0  0  0  0  0  0  0  0  0  0
   45.1820   35.6830   43.3060 C   0  0  0  0  0  0  0  0  0  0  0  0
   45.9440   34.5390   43.3190 C   0  0  0  0  0  0  0  0  0  0  0  0
   45.9920   33.8430   44.5020 N   0  0  0  0  0  0  0  0  0  0  0  0
   45.3350   34.2380   45.6070 C   0  0  0  0  0  0  0  0  0  0  0  0
   44.5960   35.3540   45.5820 N   0  0  0  0  0  0  0  0  0  0  0  0
   43.9360   36.9920   44.3480 H   0  0  0  0  0  0  0  0  0  0  0  0
   45.1820   36.1830   42.3550 H   0  0  0  0  0  0  0  0  0  0  0  0
   45.4060   33.6500   46.5210 H   0  0  0  0  0  0  0  0  0  0  0  0
   48.9130   34.4990   43.0180 O   0  0  0  0  0  0  0  0  0  0  0  0
   49.0070   35.3730   43.4760 H   0  0  0  0  0  0  0  0  0  0  0  0
   47.7660   33.9470   39.7390 O   0  0  0  0  0  0  0  0  0  0  0  0
   49.1890   32.9360   38.1540 C   0  0  1  0  0  0  0  0  0  0  0  0
   48.4770   34.3160   38.5980 C   0  0  1  0  0  0  0  0  0  0  0  0
   47.6290   34.4250   37.5570 O   0  0  0  0  0  0  0  0  0  0  0  0
   46.9210   33.2000   37.7000 C   0  0  0  0  0  0  0  0  0  0  0  0
   48.0250   32.1880   37.5750 C   0  0  1  0  0  0  0  0  0  0  0  0
   49.6840   32.5140   39.0100 H   0  0  0  0  0  0  0  0  0  0  0  0
   49.3620   34.9220   38.7680 H   0  0  0  0  0  0  0  0  0  0  0  0
   46.4180   33.1190   38.6600 H   0  0  0  0  0  0  0  0  0  0  0  0
   46.1540   33.1430   36.9170 H   0  0  0  0  0  0  0  0  0  0  0  0
   47.8980   31.3010   38.2440 H   0  0  0  0  0  0  0  0  0  0  0  0
   50.0270   33.3150   37.0940 O   0  0  0  0  0  0  0  0  0  0  0  0
   50.9610   33.1060   37.4170 H   0  0  0  0  0  0  0  0  0  0  0  0
   48.2380   31.8770   36.2690 O   0  0  0  0  0  0  0  0  0  0  0  0
   47.2480   28.9920   33.3020 H   0  0  0  0  0  0  0  0  0  0  0  0
   46.6470   29.8680   33.2270 N   0  0  0  0  0  0  0  0  0  0  0  0
   45.8490   29.9350   34.4240 C   0  0  0  0  0  0  0  0  0  0  0  0
   46.8100   30.2100   35.5580 C   0  0  0  0  0  0  0  0  0  0  0  0
   47.1930   31.6760   35.4430 C   0  0  0  0  0  0  0  0  0  0  0  0
   47.3180   32.1090   34.0270 C   0  0  0  0  0  0  0  0  0  0  0  0
   47.5130   30.9850   33.0350 C   0  0  0  0  0  0  0  0  0  0  0  0
  1  6  1  6  0  0  0
  1  2  1  0  0  0  0
  1 20  1  0  0  0  0
  2  7  1  6  0  0  0
  2  3  1  0  0  0  0
  2 13  1  0  0  0  0
  4  8  1  0  0  0  0
  4  3  1  0  0  0  0
  5 10  1  6  0  0  0
  5  4  1  0  0  0  0
  5  1  1  0  0  0  0
  9  4  1  0  0  0  0
 11 16  1  0  0  0  0
 12 13  1  0  0  0  0
 12 11  2  0  0  0  0
 13 14  2  0  0  0  0
 14 15  1  0  0  0  0
 15 19  1  0  0  0  0
 16 15  2  0  0  0  0
 17 11  1  0  0  0  0
 18 12  1  0  0  0  0
 20 21  1  0  0  0  0
 22  5  1  0  0  0  0
 23 24  1  0  0  0  0
 23 28  1  1  0  0  0
 24 29  1  1  0  0  0
 24 22  1  0  0  0  0
 25 26  1  0  0  0  0
 25 24  1  0  0  0  0
 26 30  1  0  0  0  0
 27 26  1  0  0  0  0
 27 23  1  0  0  0  0
 27 32  1  1  0  0  0
 31 26  1  0  0  0  0
 33 34  1  0  0  0  0
 33 23  1  0  0  0  0
 35 27  1  0  0  0  0
 37 36  1  0  0  0  0
 37 38  1  0  0  0  0
 38 39  1  0  0  0  0
 40 39  1  0  0  0  0
 40 35  1  0  0  0  0
 41 40  1  0  0  0  0
 42 37  1  0  0  0  0
 42 41  1  0  0  0  0
M  END
>  <minimizedAffinity>
-5.56231546

>  <minimizedRMSD>
1.58161974

$$$$
