
 OpenBabel03242519123D

 45 48  0  0  1  0  0  0  0  0999 V2000
   40.3730   33.6030   38.8830 N   0  0  0  0  0  0  0  0  0  0  0  0
   40.5200   33.4120   37.8520 H   0  0  0  0  0  0  0  0  0  0  0  0
   42.0050   35.4610   41.4480 N   0  0  0  0  0  0  0  0  0  0  0  0
   41.5580   34.1620   40.9580 C   0  0  0  0  0  0  0  0  0  0  0  0
   41.2140   34.5550   39.5470 C   0  0  2  0  0  0  0  0  0  0  0  0
   40.3690   35.8050   39.7820 C   0  0  0  0  0  0  0  0  0  0  0  0
   41.0400   36.4310   40.9760 C   0  0  0  0  0  0  0  0  0  0  0  0
   40.6980   33.7800   41.5250 H   0  0  0  0  0  0  0  0  0  0  0  0
   42.3880   33.4540   41.0400 H   0  0  0  0  0  0  0  0  0  0  0  0
   42.1260   34.8140   39.0120 H   0  0  0  0  0  0  0  0  0  0  0  0
   39.3550   35.4340   40.0880 H   0  0  0  0  0  0  0  0  0  0  0  0
   40.3470   36.4660   38.8980 H   0  0  0  0  0  0  0  0  0  0  0  0
   40.3040   36.7190   41.7520 H   0  0  0  0  0  0  0  0  0  0  0  0
   41.6080   37.3130   40.6510 H   0  0  0  0  0  0  0  0  0  0  0  0
   45.4590   35.7640   42.8090 C   0  0  0  0  0  0  0  0  0  0  0  0
   44.4230   35.3690   41.9660 C   0  0  0  0  0  0  0  0  0  0  0  0
   43.1250   35.7920   42.2230 C   0  0  0  0  0  0  0  0  0  0  0  0
   42.9470   36.5850   43.3090 N   0  0  0  0  0  0  0  0  0  0  0  0
   43.9350   36.9730   44.1280 C   0  0  0  0  0  0  0  0  0  0  0  0
   45.1930   36.5590   43.8740 N   0  0  0  0  0  0  0  0  0  0  0  0
   46.4800   35.4320   42.6080 H   0  0  0  0  0  0  0  0  0  0  0  0
   44.5880   34.7380   41.1090 H   0  0  0  0  0  0  0  0  0  0  0  0
   43.7370   37.6100   44.9850 H   0  0  0  0  0  0  0  0  0  0  0  0
   39.4250   31.4460   39.6730 C   0  0  0  0  0  0  0  0  0  0  0  0
   39.3100   32.8040   39.3370 C   0  0  0  0  0  0  0  0  0  0  0  0
   38.0370   33.2950   39.4980 C   0  0  0  0  0  0  0  0  0  0  0  0
   36.9460   32.6030   39.9310 C   0  0  0  0  0  0  0  0  0  0  0  0
   37.1090   31.2720   40.2480 C   0  0  0  0  0  0  0  0  0  0  0  0
   38.3550   30.7080   40.1140 C   0  0  0  0  0  0  0  0  0  0  0  0
   37.8730   34.3420   39.2570 H   0  0  0  0  0  0  0  0  0  0  0  0
   35.9720   33.0420   40.0370 H   0  0  0  0  0  0  0  0  0  0  0  0
   36.2600   30.6890   40.5970 H   0  0  0  0  0  0  0  0  0  0  0  0
   38.6140   28.9820   41.8170 C   0  0  0  0  0  0  0  0  0  0  0  0
   38.5690   29.8570   42.7310 O   0  0  0  0  0  0  0  0  0  0  0  0
   38.4920   29.3210   40.4520 N   0  0  0  0  0  0  0  0  0  0  0  0
   38.5010   28.5900   39.7290 H   0  0  0  0  0  0  0  0  0  0  0  0
   38.7970   27.6500   42.2800 N   0  0  0  0  0  0  0  0  0  0  0  0
   38.9140   27.3630   43.6720 C   0  0  0  0  0  2  0  0  0  0  0  0
   39.9530   26.3680   44.0550 C   0  0  0  0  0  2  0  0  0  0  0  0
   40.4240   25.4580   42.9750 C   0  0  0  0  0  3  0  0  0  0  0  0
   41.5120   25.2250   43.1400 H   0  0  0  0  0  0  0  0  0  0  0  0
   40.3270   25.9970   41.5840 C   0  0  0  0  0  2  0  0  0  0  0  0
   38.8800   26.4770   41.4300 C   0  0  0  0  0  2  0  0  0  0  0  0
   41.8000   30.3820   39.4180 N   0  0  0  0  0  0  0  0  0  0  0  0
   40.7470   30.8450   39.5300 C   0  0  0  0  0  0  0  0  0  0  0  0
  1 25  1  0  0  0  0
  1  5  1  0  0  0  0
  2  1  1  0  0  0  0
  3 17  1  0  0  0  0
  4  9  1  0  0  0  0
  4  3  1  0  0  0  0
  4  8  1  0  0  0  0
  5 10  1  6  0  0  0
  5  6  1  0  0  0  0
  5  4  1  0  0  0  0
  6 11  1  0  0  0  0
  6  7  1  0  0  0  0
  7  3  1  0  0  0  0
  7 13  1  0  0  0  0
 12  6  1  0  0  0  0
 14  7  1  0  0  0  0
 15 20  1  0  0  0  0
 16 17  1  0  0  0  0
 16 15  2  0  0  0  0
 17 18  2  0  0  0  0
 18 19  1  0  0  0  0
 19 23  1  0  0  0  0
 20 19  2  0  0  0  0
 21 15  1  0  0  0  0
 22 16  1  0  0  0  0
 24 29  1  0  0  0  0
 25 26  1  0  0  0  0
 25 24  2  0  0  0  0
 26 27  2  0  0  0  0
 27 31  1  0  0  0  0
 27 28  1  0  0  0  0
 28 32  1  0  0  0  0
 29 28  2  0  0  0  0
 29 35  1  0  0  0  0
 30 26  1  0  0  0  0
 33 37  1  0  0  0  0
 33 34  2  0  0  0  0
 35 33  1  0  0  0  0
 36 35  1  0  0  0  0
 37 38  1  0  0  0  0
 38 39  1  0  0  0  0
 40 41  1  0  0  0  0
 40 39  1  0  0  0  0
 42 40  1  0  0  0  0
 43 42  1  0  0  0  0
 43 37  1  0  0  0  0
 44 45  3  0  0  0  0
 45 24  1  0  0  0  0
M  END
>  <minimizedAffinity>
-6.99788713

$$$$

 OpenBabel03242519123D

 45 48  0  0  1  0  0  0  0  0999 V2000
   40.4390   33.4720   39.0160 N   0  0  0  0  0  0  0  0  0  0  0  0
   40.6340   33.1870   38.0160 H   0  0  0  0  0  0  0  0  0  0  0  0
   42.0630   35.4550   41.4910 N   0  0  0  0  0  0  0  0  0  0  0  0
   41.6480   34.1290   41.0480 C   0  0  0  0  0  0  0  0  0  0  0  0
   41.2630   34.4690   39.6350 C   0  0  2  0  0  0  0  0  0  0  0  0
   40.3830   35.6980   39.8530 C   0  0  0  0  0  0  0  0  0  0  0  0
   41.0580   36.3800   41.0130 C   0  0  0  0  0  0  0  0  0  0  0  0
   40.8140   33.7370   41.6450 H   0  0  0  0  0  0  0  0  0  0  0  0
   42.5020   33.4500   41.1320 H   0  0  0  0  0  0  0  0  0  0  0  0
   42.1550   34.7410   39.0720 H   0  0  0  0  0  0  0  0  0  0  0  0
   39.3880   35.3050   40.1910 H   0  0  0  0  0  0  0  0  0  0  0  0
   40.3220   36.3320   38.9510 H   0  0  0  0  0  0  0  0  0  0  0  0
   40.3300   36.6670   41.7970 H   0  0  0  0  0  0  0  0  0  0  0  0
   41.5910   37.2700   40.6510 H   0  0  0  0  0  0  0  0  0  0  0  0
   44.3420   36.9740   44.0180 C   0  0  0  0  0  0  0  0  0  0  0  0
   43.1560   36.6520   43.3620 C   0  0  0  0  0  0  0  0  0  0  0  0
   43.1880   35.8440   42.2320 C   0  0  0  0  0  0  0  0  0  0  0  0
   44.4080   35.4090   41.8300 N   0  0  0  0  0  0  0  0  0  0  0  0
   45.5580   35.7110   42.4520 C   0  0  0  0  0  0  0  0  0  0  0  0
   45.5200   36.4950   43.5480 N   0  0  0  0  0  0  0  0  0  0  0  0
   44.3170   37.6080   44.9060 H   0  0  0  0  0  0  0  0  0  0  0  0
   42.1970   37.0090   43.7000 H   0  0  0  0  0  0  0  0  0  0  0  0
   46.5090   35.3350   42.0880 H   0  0  0  0  0  0  0  0  0  0  0  0
   39.4240   31.4290   40.0020 C   0  0  0  0  0  0  0  0  0  0  0  0
   39.3410   32.7320   39.4860 C   0  0  0  0  0  0  0  0  0  0  0  0
   38.0610   33.2310   39.4820 C   0  0  0  0  0  0  0  0  0  0  0  0
   36.9370   32.5930   39.9140 C   0  0  0  0  0  0  0  0  0  0  0  0
   37.0700   31.3150   40.4120 C   0  0  0  0  0  0  0  0  0  0  0  0
   38.3210   30.7470   40.4500 C   0  0  0  0  0  0  0  0  0  0  0  0
   37.9210   34.2370   39.0960 H   0  0  0  0  0  0  0  0  0  0  0  0
   35.9600   33.0360   39.8870 H   0  0  0  0  0  0  0  0  0  0  0  0
   36.1940   30.7770   40.7660 H   0  0  0  0  0  0  0  0  0  0  0  0
   38.0870   28.3420   40.1210 C   0  0  0  0  0  0  0  0  0  0  0  0
   37.7370   28.5260   38.9180 O   0  0  0  0  0  0  0  0  0  0  0  0
   38.4260   29.4160   40.9730 N   0  0  0  0  0  0  0  0  0  0  0  0
   38.7380   29.2410   41.9370 H   0  0  0  0  0  0  0  0  0  0  0  0
   38.1100   26.9800   40.5300 N   0  0  0  0  0  0  0  0  0  0  0  0
   37.7590   25.9340   39.6280 C   0  0  0  0  0  2  0  0  0  0  0  0
   36.9110   24.8420   40.1820 C   0  0  0  0  0  2  0  0  0  0  0  0
   36.9020   24.7020   41.6640 C   0  0  0  0  0  3  0  0  0  0  0  0
   35.8840   24.3540   41.9920 H   0  0  0  0  0  0  0  0  0  0  0  0
   37.1770   25.9520   42.4360 C   0  0  0  0  0  2  0  0  0  0  0  0
   38.4780   26.5150   41.8550 C   0  0  0  0  0  2  0  0  0  0  0  0
   41.8040   30.3480   40.0870 N   0  0  0  0  0  0  0  0  0  0  0  0
   40.7520   30.8230   40.0420 C   0  0  0  0  0  0  0  0  0  0  0  0
  1 25  1  0  0  0  0
  1  5  1  0  0  0  0
  2  1  1  0  0  0  0
  3 17  1  0  0  0  0
  4  9  1  0  0  0  0
  4  3  1  0  0  0  0
  4  8  1  0  0  0  0
  5 10  1  6  0  0  0
  5  6  1  0  0  0  0
  5  4  1  0  0  0  0
  6 11  1  0  0  0  0
  6  7  1  0  0  0  0
  7  3  1  0  0  0  0
  7 13  1  0  0  0  0
 12  6  1  0  0  0  0
 14  7  1  0  0  0  0
 15 21  1  0  0  0  0
 16 22  1  0  0  0  0
 16 15  2  0  0  0  0
 17 16  1  0  0  0  0
 18 17  2  0  0  0  0
 18 19  1  0  0  0  0
 19 20  2  0  0  0  0
 20 15  1  0  0  0  0
 23 19  1  0  0  0  0
 24 45  1  0  0  0  0
 24 29  1  0  0  0  0
 25 24  2  0  0  0  0
 26 25  1  0  0  0  0
 26 27  2  0  0  0  0
 27 28  1  0  0  0  0
 28 29  2  0  0  0  0
 28 32  1  0  0  0  0
 29 35  1  0  0  0  0
 30 26  1  0  0  0  0
 31 27  1  0  0  0  0
 33 37  1  0  0  0  0
 33 35  1  0  0  0  0
 34 33  2  0  0  0  0
 35 36  1  0  0  0  0
 37 43  1  0  0  0  0
 38 39  1  0  0  0  0
 38 37  1  0  0  0  0
 39 40  1  0  0  0  0
 40 41  1  0  0  0  0
 40 42  1  0  0  0  0
 43 42  1  0  0  0  0
 45 44  3  0  0  0  0
M  END
>  <minimizedAffinity>
-6.79493237

$$$$

 OpenBabel03242519123D

 45 48  0  0  1  0  0  0  0  0999 V2000
   40.2570   33.8890   38.7980 N   0  0  0  0  0  0  0  0  0  0  0  0
   39.3770   34.2640   38.3440 H   0  0  0  0  0  0  0  0  0  0  0  0
   42.0090   35.5100   41.4440 N   0  0  0  0  0  0  0  0  0  0  0  0
   41.5610   34.2580   40.8440 C   0  0  0  0  0  0  0  0  0  0  0  0
   41.1180   34.7890   39.5090 C   0  0  2  0  0  0  0  0  0  0  0  0
   40.2620   35.9820   39.9300 C   0  0  0  0  0  0  0  0  0  0  0  0
   40.9940   36.4960   41.1400 C   0  0  0  0  0  0  0  0  0  0  0  0
   40.7490   33.7930   41.4190 H   0  0  0  0  0  0  0  0  0  0  0  0
   42.4100   33.5700   40.7970 H   0  0  0  0  0  0  0  0  0  0  0  0
   41.9880   35.1310   38.9490 H   0  0  0  0  0  0  0  0  0  0  0  0
   39.2790   35.5510   40.2560 H   0  0  0  0  0  0  0  0  0  0  0  0
   40.1680   36.7320   39.1260 H   0  0  0  0  0  0  0  0  0  0  0  0
   40.3040   36.6780   41.9880 H   0  0  0  0  0  0  0  0  0  0  0  0
   41.5200   37.4240   40.8790 H   0  0  0  0  0  0  0  0  0  0  0  0
   44.4340   36.8060   43.9580 C   0  0  0  0  0  0  0  0  0  0  0  0
   43.2200   36.6000   43.3070 C   0  0  0  0  0  0  0  0  0  0  0  0
   43.1700   35.7890   42.1800 C   0  0  0  0  0  0  0  0  0  0  0  0
   44.3400   35.2360   41.7750 N   0  0  0  0  0  0  0  0  0  0  0  0
   45.5160   35.4260   42.3920 C   0  0  0  0  0  0  0  0  0  0  0  0
   45.5580   36.2130   43.4850 N   0  0  0  0  0  0  0  0  0  0  0  0
   44.4750   37.4420   44.8440 H   0  0  0  0  0  0  0  0  0  0  0  0
   42.3020   37.0500   43.6470 H   0  0  0  0  0  0  0  0  0  0  0  0
   46.4240   34.9570   42.0260 H   0  0  0  0  0  0  0  0  0  0  0  0
   39.3750   31.5740   38.9810 C   0  0  0  0  0  0  0  0  0  0  0  0
   40.3320   32.5080   38.5540 C   0  0  0  0  0  0  0  0  0  0  0  0
   41.3720   31.9390   37.8600 C   0  0  0  0  0  0  0  0  0  0  0  0
   41.5330   30.6160   37.5750 C   0  0  0  0  0  0  0  0  0  0  0  0
   40.5670   29.7370   38.0150 C   0  0  0  0  0  0  0  0  0  0  0  0
   39.4930   30.2320   38.7160 C   0  0  0  0  0  0  0  0  0  0  0  0
   42.1520   32.6040   37.4980 H   0  0  0  0  0  0  0  0  0  0  0  0
   42.3700   30.2280   37.0260 H   0  0  0  0  0  0  0  0  0  0  0  0
   40.6630   28.6750   37.8040 H   0  0  0  0  0  0  0  0  0  0  0  0
   38.6780   28.7030   40.4320 C   0  0  0  0  0  0  0  0  0  0  0  0
   39.6480   29.0100   41.1860 O   0  0  0  0  0  0  0  0  0  0  0  0
   38.5050   29.2930   39.1610 N   0  0  0  0  0  0  0  0  0  0  0  0
   37.6930   29.0510   38.5780 H   0  0  0  0  0  0  0  0  0  0  0  0
   37.7930   27.7280   40.9710 N   0  0  0  0  0  0  0  0  0  0  0  0
   38.0150   27.1650   42.2610 C   0  0  0  0  0  2  0  0  0  0  0  0
   37.7940   25.6980   42.3880 C   0  0  0  0  0  2  0  0  0  0  0  0
   36.9490   25.0660   41.3380 C   0  0  0  0  0  3  0  0  0  0  0  0
   37.3230   24.0220   41.1480 H   0  0  0  0  0  0  0  0  0  0  0  0
   36.9480   25.7490   40.0080 C   0  0  0  0  0  2  0  0  0  0  0  0
   36.6130   27.2160   40.3010 C   0  0  0  0  0  2  0  0  0  0  0  0
   37.3260   32.5140   40.3050 N   0  0  0  0  0  0  0  0  0  0  0  0
   38.2350   32.0970   39.7270 C   0  0  0  0  0  0  0  0  0  0  0  0
  1  5  1  0  0  0  0
  2  1  1  0  0  0  0
  3 17  1  0  0  0  0
  4  8  1  0  0  0  0
  4  3  1  0  0  0  0
  5 10  1  6  0  0  0
  5  6  1  0  0  0  0
  5  4  1  0  0  0  0
  6 11  1  0  0  0  0
  6  7  1  0  0  0  0
  7  3  1  0  0  0  0
  7 13  1  0  0  0  0
  9  4  1  0  0  0  0
 12  6  1  0  0  0  0
 14  7  1  0  0  0  0
 15 21  1  0  0  0  0
 16 22  1  0  0  0  0
 16 15  2  0  0  0  0
 17 16  1  0  0  0  0
 18 17  2  0  0  0  0
 18 19  1  0  0  0  0
 19 20  2  0  0  0  0
 20 15  1  0  0  0  0
 23 19  1  0  0  0  0
 24 45  1  0  0  0  0
 25  1  1  0  0  0  0
 25 24  2  0  0  0  0
 26 25  1  0  0  0  0
 27 26  2  0  0  0  0
 27 28  1  0  0  0  0
 28 29  2  0  0  0  0
 29 24  1  0  0  0  0
 29 35  1  0  0  0  0
 30 26  1  0  0  0  0
 31 27  1  0  0  0  0
 32 28  1  0  0  0  0
 33 37  1  0  0  0  0
 33 34  2  0  0  0  0
 35 33  1  0  0  0  0
 36 35  1  0  0  0  0
 37 38  1  0  0  0  0
 38 39  1  0  0  0  0
 40 39  1  0  0  0  0
 41 40  1  0  0  0  0
 42 43  1  0  0  0  0
 42 40  1  0  0  0  0
 43 37  1  0  0  0  0
 45 44  3  0  0  0  0
M  END
>  <minimizedAffinity>
-6.56997538

$$$$

 OpenBabel03242519123D

 45 48  0  0  1  0  0  0  0  0999 V2000
   39.0950   31.9090   38.7810 N   0  0  0  0  0  0  0  0  0  0  0  0
   38.9050   31.9600   37.7410 H   0  0  0  0  0  0  0  0  0  0  0  0
   41.3370   34.3930   40.0040 N   0  0  0  0  0  0  0  0  0  0  0  0
   39.9830   33.8520   39.9890 C   0  0  0  0  0  0  0  0  0  0  0  0
   40.2680   32.5400   39.3120 C   0  0  2  0  0  0  0  0  0  0  0  0
   41.1060   32.9940   38.1190 C   0  0  0  0  0  0  0  0  0  0  0  0
   41.8950   34.1400   38.6930 C   0  0  0  0  0  0  0  0  0  0  0  0
   39.2900   34.4910   39.4250 H   0  0  0  0  0  0  0  0  0  0  0  0
   39.6320   33.7610   41.0210 H   0  0  0  0  0  0  0  0  0  0  0  0
   40.8660   31.9140   39.9740 H   0  0  0  0  0  0  0  0  0  0  0  0
   40.3750   33.3960   37.3690 H   0  0  0  0  0  0  0  0  0  0  0  0
   41.7410   32.1830   37.7220 H   0  0  0  0  0  0  0  0  0  0  0  0
   41.8620   35.0290   38.0320 H   0  0  0  0  0  0  0  0  0  0  0  0
   42.9350   33.8240   38.8450 H   0  0  0  0  0  0  0  0  0  0  0  0
   43.8140   35.3090   42.6330 C   0  0  0  0  0  0  0  0  0  0  0  0
   43.2090   34.5770   41.6140 C   0  0  0  0  0  0  0  0  0  0  0  0
   42.0340   35.0420   41.0340 C   0  0  0  0  0  0  0  0  0  0  0  0
   41.5400   36.2110   41.5110 N   0  0  0  0  0  0  0  0  0  0  0  0
   42.1130   36.9260   42.4910 C   0  0  0  0  0  0  0  0  0  0  0  0
   43.2520   36.4700   43.0500 N   0  0  0  0  0  0  0  0  0  0  0  0
   44.7360   34.9450   43.0890 H   0  0  0  0  0  0  0  0  0  0  0  0
   43.6190   33.6500   41.2500 H   0  0  0  0  0  0  0  0  0  0  0  0
   41.6760   37.8570   42.8360 H   0  0  0  0  0  0  0  0  0  0  0  0
   37.8000   29.8210   39.1530 C   0  0  0  0  0  0  0  0  0  0  0  0
   38.0590   31.1810   39.3890 C   0  0  0  0  0  0  0  0  0  0  0  0
   37.1890   31.7490   40.2880 C   0  0  0  0  0  0  0  0  0  0  0  0
   36.1580   31.1280   40.9270 C   0  0  0  0  0  0  0  0  0  0  0  0
   35.9440   29.7920   40.6630 C   0  0  0  0  0  0  0  0  0  0  0  0
   36.7740   29.1530   39.7740 C   0  0  0  0  0  0  0  0  0  0  0  0
   37.3300   32.8010   40.5190 H   0  0  0  0  0  0  0  0  0  0  0  0
   35.5090   31.6260   41.6230 H   0  0  0  0  0  0  0  0  0  0  0  0
   35.1310   29.2660   41.1550 H   0  0  0  0  0  0  0  0  0  0  0  0
   36.9310   26.8300   40.4990 C   0  0  0  0  0  0  0  0  0  0  0  0
   37.4640   27.1920   41.5890 O   0  0  0  0  0  0  0  0  0  0  0  0
   36.5260   27.7640   39.5200 N   0  0  0  0  0  0  0  0  0  0  0  0
   36.0670   27.4490   38.6550 H   0  0  0  0  0  0  0  0  0  0  0  0
   36.7790   25.4240   40.3500 N   0  0  0  0  0  0  0  0  0  0  0  0
   37.2050   24.5250   41.3720 C   0  0  0  0  0  2  0  0  0  0  0  0
   37.9070   23.2930   40.9150 C   0  0  0  0  0  2  0  0  0  0  0  0
   37.6900   22.8990   39.4960 C   0  0  0  0  0  3  0  0  0  0  0  0
   38.6300   22.4230   39.1020 H   0  0  0  0  0  0  0  0  0  0  0  0
   37.3690   24.0140   38.5550 C   0  0  0  0  0  2  0  0  0  0  0  0
   36.1970   24.7670   39.1950 C   0  0  0  0  0  2  0  0  0  0  0  0
   39.3880   28.6100   37.4640 N   0  0  0  0  0  0  0  0  0  0  0  0
   38.6800   29.1400   38.2080 C   0  0  0  0  0  0  0  0  0  0  0  0
  1  5  1  0  0  0  0
  1 25  1  0  0  0  0
  2  1  1  0  0  0  0
  3 17  1  0  0  0  0
  4  3  1  0  0  0  0
  4  9  1  0  0  0  0
  5 10  1  1  0  0  0
  5  4  1  0  0  0  0
  6  7  1  0  0  0  0
  6  5  1  0  0  0  0
  7 14  1  0  0  0  0
  7  3  1  0  0  0  0
  8  4  1  0  0  0  0
 11  6  1  0  0  0  0
 12  6  1  0  0  0  0
 13  7  1  0  0  0  0
 15 20  1  0  0  0  0
 15 21  1  0  0  0  0
 16 15  2  0  0  0  0
 17 18  2  0  0  0  0
 17 16  1  0  0  0  0
 18 19  1  0  0  0  0
 19 23  1  0  0  0  0
 19 20  2  0  0  0  0
 22 16  1  0  0  0  0
 24 25  2  0  0  0  0
 24 29  1  0  0  0  0
 25 26  1  0  0  0  0
 26 30  1  0  0  0  0
 26 27  2  0  0  0  0
 27 31  1  0  0  0  0
 28 27  1  0  0  0  0
 28 32  1  0  0  0  0
 29 28  2  0  0  0  0
 33 34  2  0  0  0  0
 35 29  1  0  0  0  0
 35 33  1  0  0  0  0
 36 35  1  0  0  0  0
 37 33  1  0  0  0  0
 37 38  1  0  0  0  0
 39 38  1  0  0  0  0
 40 39  1  0  0  0  0
 41 40  1  0  0  0  0
 42 43  1  0  0  0  0
 42 40  1  0  0  0  0
 43 37  1  0  0  0  0
 44 45  3  0  0  0  0
 45 24  1  0  0  0  0
M  END
>  <minimizedAffinity>
-6.30415201

$$$$

 OpenBabel03242519123D

 45 48  0  0  1  0  0  0  0  0999 V2000
   39.6960   32.6470   37.9700 N   0  0  0  0  0  0  0  0  0  0  0  0
   39.3500   33.2140   37.1460 H   0  0  0  0  0  0  0  0  0  0  0  0
   37.9770   30.0690   39.7280 N   0  0  0  0  0  0  0  0  0  0  0  0
   39.2520   30.6550   39.3330 C   0  0  0  0  0  0  0  0  0  0  0  0
   38.7460   31.9690   38.8030 C   0  0  2  0  0  0  0  0  0  0  0  0
   37.6090   31.5070   37.8940 C   0  0  0  0  0  0  0  0  0  0  0  0
   37.0540   30.3260   38.6430 C   0  0  0  0  0  0  0  0  0  0  0  0
   39.7680   30.0490   38.5750 H   0  0  0  0  0  0  0  0  0  0  0  0
   39.8860   30.7400   40.2200 H   0  0  0  0  0  0  0  0  0  0  0  0
   38.3510   32.5630   39.6260 H   0  0  0  0  0  0  0  0  0  0  0  0
   38.1010   31.1430   36.9530 H   0  0  0  0  0  0  0  0  0  0  0  0
   36.8650   32.3030   37.7210 H   0  0  0  0  0  0  0  0  0  0  0  0
   36.9160   29.4500   37.9790 H   0  0  0  0  0  0  0  0  0  0  0  0
   36.0950   30.6040   39.1000 H   0  0  0  0  0  0  0  0  0  0  0  0
   36.4130   27.7570   42.1960 C   0  0  0  0  0  0  0  0  0  0  0  0
   36.6760   28.3700   40.9740 C   0  0  0  0  0  0  0  0  0  0  0  0
   37.6280   29.3800   40.8990 C   0  0  0  0  0  0  0  0  0  0  0  0
   38.2560   29.7120   42.0540 N   0  0  0  0  0  0  0  0  0  0  0  0
   38.0120   29.1290   43.2370 C   0  0  0  0  0  0  0  0  0  0  0  0
   37.0880   28.1500   43.3040 N   0  0  0  0  0  0  0  0  0  0  0  0
   35.6660   26.9630   42.2550 H   0  0  0  0  0  0  0  0  0  0  0  0
   36.1650   28.0900   40.0670 H   0  0  0  0  0  0  0  0  0  0  0  0
   38.5440   29.4330   44.1330 H   0  0  0  0  0  0  0  0  0  0  0  0
   41.8200   33.4960   38.9400 C   0  0  0  0  0  0  0  0  0  0  0  0
   41.0980   32.7300   38.0120 C   0  0  0  0  0  0  0  0  0  0  0  0
   41.9020   32.0520   37.1290 C   0  0  0  0  0  0  0  0  0  0  0  0
   43.2640   32.0680   37.0900 C   0  0  0  0  0  0  0  0  0  0  0  0
   43.9280   32.8350   38.0220 C   0  0  0  0  0  0  0  0  0  0  0  0
   43.1920   33.5440   38.9410 C   0  0  0  0  0  0  0  0  0  0  0  0
   41.4100   31.4360   36.3800 H   0  0  0  0  0  0  0  0  0  0  0  0
   43.8410   31.5140   36.3730 H   0  0  0  0  0  0  0  0  0  0  0  0
   45.0140   32.8720   38.0200 H   0  0  0  0  0  0  0  0  0  0  0  0
   44.3670   33.6940   41.0730 C   0  0  0  0  0  0  0  0  0  0  0  0
   44.1880   32.4580   41.2750 O   0  0  0  0  0  0  0  0  0  0  0  0
   43.9120   34.3330   39.8980 N   0  0  0  0  0  0  0  0  0  0  0  0
   44.0950   35.3320   39.7410 H   0  0  0  0  0  0  0  0  0  0  0  0
   45.0560   34.3730   42.1150 N   0  0  0  0  0  0  0  0  0  0  0  0
   45.4950   33.6790   43.2810 C   0  0  0  0  0  2  0  0  0  0  0  0
   45.2970   34.3800   44.5800 C   0  0  0  0  0  2  0  0  0  0  0  0
   45.1090   35.8550   44.5100 C   0  0  0  0  0  3  0  0  0  0  0  0
   44.4050   36.1730   45.3280 H   0  0  0  0  0  0  0  0  0  0  0  0
   44.5190   36.3750   43.2390 C   0  0  0  0  0  2  0  0  0  0  0  0
   45.3810   35.7870   42.1160 C   0  0  0  0  0  2  0  0  0  0  0  0
   40.4120   34.8490   40.6800 N   0  0  0  0  0  0  0  0  0  0  0  0
   41.0400   34.2500   39.9170 C   0  0  0  0  0  0  0  0  0  0  0  0
  1 25  1  0  0  0  0
  1  5  1  0  0  0  0
  2  1  1  0  0  0  0
  3 17  1  0  0  0  0
  4  3  1  0  0  0  0
  4  9  1  0  0  0  0
  5  4  1  0  0  0  0
  5 10  1  1  0  0  0
  6  7  1  0  0  0  0
  6  5  1  0  0  0  0
  7 14  1  0  0  0  0
  7  3  1  0  0  0  0
  8  4  1  0  0  0  0
 11  6  1  0  0  0  0
 12  6  1  0  0  0  0
 13  7  1  0  0  0  0
 15 21  1  0  0  0  0
 15 20  1  0  0  0  0
 16 15  2  0  0  0  0
 17 16  1  0  0  0  0
 17 18  2  0  0  0  0
 18 19  1  0  0  0  0
 19 20  2  0  0  0  0
 19 23  1  0  0  0  0
 22 16  1  0  0  0  0
 24 29  1  0  0  0  0
 24 45  1  0  0  0  0
 25 24  2  0  0  0  0
 26 25  1  0  0  0  0
 27 26  2  0  0  0  0
 27 28  1  0  0  0  0
 28 29  2  0  0  0  0
 29 35  1  0  0  0  0
 30 26  1  0  0  0  0
 31 27  1  0  0  0  0
 32 28  1  0  0  0  0
 33 34  2  0  0  0  0
 33 37  1  0  0  0  0
 35 33  1  0  0  0  0
 36 35  1  0  0  0  0
 37 43  1  0  0  0  0
 37 38  1  0  0  0  0
 38 39  1  0  0  0  0
 40 39  1  0  0  0  0
 40 41  1  0  0  0  0
 42 40  1  0  0  0  0
 43 42  1  0  0  0  0
 45 44  3  0  0  0  0
M  END
>  <minimizedAffinity>
-6.2937665

$$$$

 OpenBabel03242519123D

 45 48  0  0  1  0  0  0  0  0999 V2000
   39.5280   29.3500   41.5120 N   0  0  0  0  0  0  0  0  0  0  0  0
   40.4930   29.0260   41.8020 H   0  0  0  0  0  0  0  0  0  0  0  0
   39.1530   32.8240   40.8160 N   0  0  0  0  0  0  0  0  0  0  0  0
   39.8030   31.7870   41.6090 C   0  0  0  0  0  0  0  0  0  0  0  0
   39.3870   30.5870   40.8010 C   0  0  2  0  0  0  0  0  0  0  0  0
   37.8900   30.8390   40.6410 C   0  0  0  0  0  0  0  0  0  0  0  0
   37.8230   32.3370   40.5150 C   0  0  0  0  0  0  0  0  0  0  0  0
   39.4330   31.7650   42.6430 H   0  0  0  0  0  0  0  0  0  0  0  0
   40.8800   31.9760   41.6140 H   0  0  0  0  0  0  0  0  0  0  0  0
   39.8790   30.6180   39.8300 H   0  0  0  0  0  0  0  0  0  0  0  0
   37.4240   30.5350   41.6150 H   0  0  0  0  0  0  0  0  0  0  0  0
   37.4690   30.3090   39.7690 H   0  0  0  0  0  0  0  0  0  0  0  0
   37.0470   32.7680   41.1780 H   0  0  0  0  0  0  0  0  0  0  0  0
   37.6150   32.6050   39.4700 H   0  0  0  0  0  0  0  0  0  0  0  0
   39.5540   36.4500   40.0610 C   0  0  0  0  0  0  0  0  0  0  0  0
   38.9690   35.2760   40.5260 C   0  0  0  0  0  0  0  0  0  0  0  0
   39.6410   34.0670   40.3890 C   0  0  0  0  0  0  0  0  0  0  0  0
   40.8590   34.1120   39.7940 N   0  0  0  0  0  0  0  0  0  0  0  0
   41.4350   35.2370   39.3430 C   0  0  0  0  0  0  0  0  0  0  0  0
   40.7780   36.4060   39.4790 N   0  0  0  0  0  0  0  0  0  0  0  0
   39.0270   37.4000   40.1690 H   0  0  0  0  0  0  0  0  0  0  0  0
   37.9990   35.2630   40.9960 H   0  0  0  0  0  0  0  0  0  0  0  0
   42.4140   35.2170   38.8740 H   0  0  0  0  0  0  0  0  0  0  0  0
   38.1720   27.2950   41.1770 C   0  0  0  0  0  0  0  0  0  0  0  0
   38.5890   28.3970   41.9400 C   0  0  0  0  0  0  0  0  0  0  0  0
   37.9850   28.4610   43.1720 C   0  0  0  0  0  0  0  0  0  0  0  0
   37.0670   27.5890   43.6750 C   0  0  0  0  0  0  0  0  0  0  0  0
   36.6890   26.5230   42.8890 C   0  0  0  0  0  0  0  0  0  0  0  0
   37.2510   26.3890   41.6410 C   0  0  0  0  0  0  0  0  0  0  0  0
   38.2610   29.2900   43.8190 H   0  0  0  0  0  0  0  0  0  0  0  0
   36.6280   27.6910   44.6500 H   0  0  0  0  0  0  0  0  0  0  0  0
   35.9590   25.8070   43.2580 H   0  0  0  0  0  0  0  0  0  0  0  0
   37.5880   24.0780   40.9420 C   0  0  0  0  0  0  0  0  0  0  0  0
   38.5760   23.9700   41.7260 O   0  0  0  0  0  0  0  0  0  0  0  0
   36.8370   25.2700   40.8470 N   0  0  0  0  0  0  0  0  0  0  0  0
   36.0200   25.3250   40.2250 H   0  0  0  0  0  0  0  0  0  0  0  0
   37.3070   22.9120   40.1770 N   0  0  0  0  0  0  0  0  0  0  0  0
   38.0980   21.7340   40.3130 C   0  0  0  0  0  2  0  0  0  0  0  0
   38.4470   21.0250   39.0510 C   0  0  0  0  0  2  0  0  0  0  0  0
   37.5900   21.3200   37.8700 C   0  0  0  0  0  3  0  0  0  0  0  0
   38.2210   21.2760   36.9400 H   0  0  0  0  0  0  0  0  0  0  0  0
   36.9400   22.6660   37.8610 C   0  0  0  0  0  2  0  0  0  0  0  0
   36.2290   22.7880   39.2140 C   0  0  0  0  0  2  0  0  0  0  0  0
   39.2410   27.0530   38.8030 N   0  0  0  0  0  0  0  0  0  0  0  0
   38.7670   27.1520   39.8520 C   0  0  0  0  0  0  0  0  0  0  0  0
  1  2  1  0  0  0  0
  1 25  1  0  0  0  0
  3  4  1  0  0  0  0
  4  9  1  0  0  0  0
  4  8  1  0  0  0  0
  5 10  1  6  0  0  0
  5  1  1  0  0  0  0
  5  4  1  0  0  0  0
  6  5  1  0  0  0  0
  6 11  1  0  0  0  0
  7  6  1  0  0  0  0
  7  3  1  0  0  0  0
  7 13  1  0  0  0  0
 12  6  1  0  0  0  0
 14  7  1  0  0  0  0
 15 21  1  0  0  0  0
 15 16  1  0  0  0  0
 16 22  1  0  0  0  0
 17 16  2  0  0  0  0
 17  3  1  0  0  0  0
 18 17  1  0  0  0  0
 19 20  1  0  0  0  0
 19 18  2  0  0  0  0
 20 15  2  0  0  0  0
 23 19  1  0  0  0  0
 24 29  2  0  0  0  0
 24 25  1  0  0  0  0
 25 26  2  0  0  0  0
 26 27  1  0  0  0  0
 26 30  1  0  0  0  0
 27 31  1  0  0  0  0
 28 32  1  0  0  0  0
 28 27  2  0  0  0  0
 29 28  1  0  0  0  0
 33 34  2  0  0  0  0
 35 33  1  0  0  0  0
 35 29  1  0  0  0  0
 36 35  1  0  0  0  0
 37 38  1  0  0  0  0
 37 33  1  0  0  0  0
 39 38  1  0  0  0  0
 40 39  1  0  0  0  0
 41 40  1  0  0  0  0
 42 40  1  0  0  0  0
 42 43  1  0  0  0  0
 43 37  1  0  0  0  0
 44 45  3  0  0  0  0
 45 24  1  0  0  0  0
M  END
>  <minimizedAffinity>
-6.20088911

$$$$

 OpenBabel03242519123D

 45 48  0  0  1  0  0  0  0  0999 V2000
   37.5870   29.6110   41.8160 N   0  0  0  0  0  0  0  0  0  0  0  0
   37.0500   29.8000   42.7090 H   0  0  0  0  0  0  0  0  0  0  0  0
   37.5420   26.0570   41.5690 N   0  0  0  0  0  0  0  0  0  0  0  0
   36.8010   27.3100   41.4850 C   0  0  0  0  0  0  0  0  0  0  0  0
   37.9630   28.2660   41.4950 C   0  0  2  0  0  0  0  0  0  0  0  0
   38.7740   27.7380   42.6770 C   0  0  0  0  0  0  0  0  0  0  0  0
   38.5610   26.2510   42.5780 C   0  0  0  0  0  0  0  0  0  0  0  0
   36.1200   27.4440   42.3360 H   0  0  0  0  0  0  0  0  0  0  0  0
   36.2230   27.3120   40.5560 H   0  0  0  0  0  0  0  0  0  0  0  0
   38.5300   28.1550   40.5720 H   0  0  0  0  0  0  0  0  0  0  0  0
   38.2550   28.1190   43.5960 H   0  0  0  0  0  0  0  0  0  0  0  0
   39.8360   28.0310   42.6180 H   0  0  0  0  0  0  0  0  0  0  0  0
   38.2850   25.8120   43.5580 H   0  0  0  0  0  0  0  0  0  0  0  0
   39.4780   25.7780   42.2010 H   0  0  0  0  0  0  0  0  0  0  0  0
   37.7610   22.5370   40.3690 C   0  0  0  0  0  0  0  0  0  0  0  0
   38.0100   23.6630   41.1500 C   0  0  0  0  0  0  0  0  0  0  0  0
   37.3710   24.8620   40.8560 C   0  0  0  0  0  0  0  0  0  0  0  0
   36.5230   24.8560   39.7990 N   0  0  0  0  0  0  0  0  0  0  0  0
   36.2730   23.7790   39.0390 C   0  0  0  0  0  0  0  0  0  0  0  0
   36.8960   22.6190   39.3280 N   0  0  0  0  0  0  0  0  0  0  0  0
   38.2620   21.5950   40.5990 H   0  0  0  0  0  0  0  0  0  0  0  0
   38.6890   23.6440   41.9860 H   0  0  0  0  0  0  0  0  0  0  0  0
   35.5830   23.8300   38.2030 H   0  0  0  0  0  0  0  0  0  0  0  0
   38.8830   31.6850   41.3770 C   0  0  0  0  0  0  0  0  0  0  0  0
   37.7920   30.8320   41.1520 C   0  0  0  0  0  0  0  0  0  0  0  0
   36.9210   31.3070   40.2010 C   0  0  0  0  0  0  0  0  0  0  0  0
   37.0330   32.4730   39.5050 C   0  0  0  0  0  0  0  0  0  0  0  0
   38.1230   33.2770   39.7610 C   0  0  0  0  0  0  0  0  0  0  0  0
   39.0400   32.8690   40.7000 C   0  0  0  0  0  0  0  0  0  0  0  0
   36.0510   30.6970   39.9740 H   0  0  0  0  0  0  0  0  0  0  0  0
   36.3180   32.7930   38.7700 H   0  0  0  0  0  0  0  0  0  0  0  0
   38.2440   34.2140   39.2240 H   0  0  0  0  0  0  0  0  0  0  0  0
   41.3290   33.5240   40.1750 C   0  0  0  0  0  0  0  0  0  0  0  0
   41.3880   32.6430   39.2680 O   0  0  0  0  0  0  0  0  0  0  0  0
   40.1620   33.7270   40.9440 N   0  0  0  0  0  0  0  0  0  0  0  0
   40.1260   34.4690   41.6540 H   0  0  0  0  0  0  0  0  0  0  0  0
   42.5210   34.2790   40.3470 N   0  0  0  0  0  0  0  0  0  0  0  0
   43.6720   34.0330   39.5420 C   0  0  0  0  0  2  0  0  0  0  0  0
   44.9840   34.0430   40.2460 C   0  0  0  0  0  2  0  0  0  0  0  0
   45.0210   34.7400   41.5610 C   0  0  0  0  0  3  0  0  0  0  0  0
   45.7490   34.2110   42.2350 H   0  0  0  0  0  0  0  0  0  0  0  0
   43.7280   34.7850   42.3080 C   0  0  0  0  0  2  0  0  0  0  0  0
   42.7000   35.3430   41.3180 C   0  0  0  0  0  2  0  0  0  0  0  0
   40.6190   30.9150   43.1750 N   0  0  0  0  0  0  0  0  0  0  0  0
   39.8580   31.2540   42.3750 C   0  0  0  0  0  0  0  0  0  0  0  0
  1  2  1  0  0  0  0
  3  7  1  0  0  0  0
  4  5  1  0  0  0  0
  4  3  1  0  0  0  0
  4  8  1  0  0  0  0
  5 10  1  6  0  0  0
  5  1  1  0  0  0  0
  5  6  1  0  0  0  0
  6 11  1  0  0  0  0
  7  6  1  0  0  0  0
  7 13  1  0  0  0  0
  9  4  1  0  0  0  0
 12  6  1  0  0  0  0
 14  7  1  0  0  0  0
 15 21  1  0  0  0  0
 15 16  1  0  0  0  0
 16 22  1  0  0  0  0
 17 16  2  0  0  0  0
 17  3  1  0  0  0  0
 18 17  1  0  0  0  0
 19 20  1  0  0  0  0
 19 18  2  0  0  0  0
 20 15  2  0  0  0  0
 23 19  1  0  0  0  0
 24 45  1  0  0  0  0
 25 24  1  0  0  0  0
 25  1  1  0  0  0  0
 26 25  2  0  0  0  0
 27 28  2  0  0  0  0
 27 26  1  0  0  0  0
 28 29  1  0  0  0  0
 29 35  1  0  0  0  0
 29 24  2  0  0  0  0
 30 26  1  0  0  0  0
 31 27  1  0  0  0  0
 32 28  1  0  0  0  0
 33 37  1  0  0  0  0
 33 35  1  0  0  0  0
 34 33  2  0  0  0  0
 35 36  1  0  0  0  0
 37 43  1  0  0  0  0
 38 39  1  0  0  0  0
 38 37  1  0  0  0  0
 39 40  1  0  0  0  0
 40 41  1  0  0  0  0
 40 42  1  0  0  0  0
 43 42  1  0  0  0  0
 45 44  3  0  0  0  0
M  END
>  <minimizedAffinity>
-6.10780859

$$$$

 OpenBabel03242519123D

 45 48  0  0  1  0  0  0  0  0999 V2000
   36.5160   29.1620   40.1090 N   0  0  0  0  0  0  0  0  0  0  0  0
   35.4780   29.2470   39.9170 H   0  0  0  0  0  0  0  0  0  0  0  0
   37.9030   32.3720   39.4230 N   0  0  0  0  0  0  0  0  0  0  0  0
   37.2260   31.4960   40.3730 C   0  0  0  0  0  0  0  0  0  0  0  0
   37.4020   30.1900   39.6470 C   0  0  2  0  0  0  0  0  0  0  0  0
   36.9480   30.5680   38.2390 C   0  0  0  0  0  0  0  0  0  0  0  0
   37.4390   31.9840   38.1080 C   0  0  0  0  0  0  0  0  0  0  0  0
   36.1740   31.7770   40.5160 H   0  0  0  0  0  0  0  0  0  0  0  0
   37.7490   31.5530   41.3330 H   0  0  0  0  0  0  0  0  0  0  0  0
   38.4570   29.9190   39.6410 H   0  0  0  0  0  0  0  0  0  0  0  0
   35.8260   30.5730   38.2720 H   0  0  0  0  0  0  0  0  0  0  0  0
   37.3610   29.8900   37.4720 H   0  0  0  0  0  0  0  0  0  0  0  0
   36.6490   32.6550   37.7150 H   0  0  0  0  0  0  0  0  0  0  0  0
   38.3130   32.0050   37.4430 H   0  0  0  0  0  0  0  0  0  0  0  0
   39.5300   35.5700   40.4230 C   0  0  0  0  0  0  0  0  0  0  0  0
   38.5270   34.6190   40.2510 C   0  0  0  0  0  0  0  0  0  0  0  0
   38.8260   33.4020   39.6500 C   0  0  0  0  0  0  0  0  0  0  0  0
   40.1110   33.2150   39.2590 N   0  0  0  0  0  0  0  0  0  0  0  0
   41.0860   34.1220   39.4200 C   0  0  0  0  0  0  0  0  0  0  0  0
   40.7910   35.3010   40.0030 N   0  0  0  0  0  0  0  0  0  0  0  0
   39.2960   36.5260   40.8950 H   0  0  0  0  0  0  0  0  0  0  0  0
   37.5120   34.7900   40.5690 H   0  0  0  0  0  0  0  0  0  0  0  0
   42.1000   33.9210   39.0890 H   0  0  0  0  0  0  0  0  0  0  0  0
   37.1560   26.7640   40.2310 C   0  0  0  0  0  0  0  0  0  0  0  0
   36.7430   27.9700   40.8180 C   0  0  0  0  0  0  0  0  0  0  0  0
   36.5770   27.8810   42.1780 C   0  0  0  0  0  0  0  0  0  0  0  0
   36.7710   26.7750   42.9510 C   0  0  0  0  0  0  0  0  0  0  0  0
   37.1760   25.6140   42.3290 C   0  0  0  0  0  0  0  0  0  0  0  0
   37.3650   25.6240   40.9670 C   0  0  0  0  0  0  0  0  0  0  0  0
   36.2580   28.7780   42.7010 H   0  0  0  0  0  0  0  0  0  0  0  0
   36.6250   26.7650   44.0150 H   0  0  0  0  0  0  0  0  0  0  0  0
   37.3400   24.7130   42.9140 H   0  0  0  0  0  0  0  0  0  0  0  0
   36.7880   23.5110   39.8960 C   0  0  0  0  0  0  0  0  0  0  0  0
   35.5550   23.7850   39.9890 O   0  0  0  0  0  0  0  0  0  0  0  0
   37.7860   24.4020   40.3500 N   0  0  0  0  0  0  0  0  0  0  0  0
   38.7820   24.1720   40.2360 H   0  0  0  0  0  0  0  0  0  0  0  0
   37.0730   22.2500   39.3040 N   0  0  0  0  0  0  0  0  0  0  0  0
   36.0260   21.3900   38.8630 C   0  0  0  0  0  2  0  0  0  0  0  0
   36.1890   19.9420   39.1670 C   0  0  0  0  0  2  0  0  0  0  0  0
   37.5740   19.4830   39.4630 C   0  0  0  0  0  3  0  0  0  0  0  0
   37.5300   18.6530   40.2220 H   0  0  0  0  0  0  0  0  0  0  0  0
   38.4900   20.5150   40.0370 C   0  0  0  0  0  2  0  0  0  0  0  0
   38.4040   21.7140   39.0880 C   0  0  0  0  0  2  0  0  0  0  0  0
   37.5050   26.7910   37.6390 N   0  0  0  0  0  0  0  0  0  0  0  0
   37.3560   26.7730   38.7850 C   0  0  0  0  0  0  0  0  0  0  0  0
  1 25  1  0  0  0  0
  2  1  1  0  0  0  0
  3 17  1  0  0  0  0
  3  4  1  0  0  0  0
  4  8  1  0  0  0  0
  4  9  1  0  0  0  0
  5 10  1  1  0  0  0
  5  1  1  0  0  0  0
  5  4  1  0  0  0  0
  6 11  1  0  0  0  0
  6  5  1  0  0  0  0
  7  6  1  0  0  0  0
  7  3  1  0  0  0  0
 12  6  1  0  0  0  0
 13  7  1  0  0  0  0
 14  7  1  0  0  0  0
 15 21  1  0  0  0  0
 16 15  1  0  0  0  0
 16 22  1  0  0  0  0
 17 16  2  0  0  0  0
 18 19  2  0  0  0  0
 18 17  1  0  0  0  0
 19 20  1  0  0  0  0
 20 15  2  0  0  0  0
 23 19  1  0  0  0  0
 24 25  2  0  0  0  0
 24 29  1  0  0  0  0
 25 26  1  0  0  0  0
 26 30  1  0  0  0  0
 26 27  2  0  0  0  0
 27 31  1  0  0  0  0
 28 32  1  0  0  0  0
 28 27  1  0  0  0  0
 29 28  2  0  0  0  0
 33 34  2  0  0  0  0
 33 35  1  0  0  0  0
 35 29  1  0  0  0  0
 36 35  1  0  0  0  0
 37 33  1  0  0  0  0
 38 39  1  0  0  0  0
 38 37  1  0  0  0  0
 39 40  1  0  0  0  0
 40 42  1  0  0  0  0
 40 41  1  0  0  0  0
 43 37  1  0  0  0  0
 43 42  1  0  0  0  0
 44 45  3  0  0  0  0
 45 24  1  0  0  0  0
M  END
>  <minimizedAffinity>
-6.07822943

$$$$

 OpenBabel03242519123D

 45 48  0  0  1  0  0  0  0  0999 V2000
   40.2750   29.3030   42.5620 N   0  0  0  0  0  0  0  0  0  0  0  0
   41.1090   28.6560   42.6380 H   0  0  0  0  0  0  0  0  0  0  0  0
   40.7430   32.4750   41.0080 N   0  0  0  0  0  0  0  0  0  0  0  0
   40.0120   31.2130   41.0440 C   0  0  0  0  0  0  0  0  0  0  0  0
   40.4920   30.7080   42.3770 C   0  0  2  0  0  0  0  0  0  0  0  0
   42.0000   30.9110   42.2490 C   0  0  0  0  0  0  0  0  0  0  0  0
   42.0910   32.1810   41.4460 C   0  0  0  0  0  0  0  0  0  0  0  0
   40.2830   30.5560   40.2060 H   0  0  0  0  0  0  0  0  0  0  0  0
   38.9410   31.4290   41.0020 H   0  0  0  0  0  0  0  0  0  0  0  0
   40.0940   31.3430   43.1680 H   0  0  0  0  0  0  0  0  0  0  0  0
   42.3700   30.0570   41.6210 H   0  0  0  0  0  0  0  0  0  0  0  0
   42.4970   30.9800   43.2320 H   0  0  0  0  0  0  0  0  0  0  0  0
   42.8050   32.0820   40.6050 H   0  0  0  0  0  0  0  0  0  0  0  0
   42.3980   33.0050   42.1040 H   0  0  0  0  0  0  0  0  0  0  0  0
   38.6680   35.4250   40.0740 C   0  0  0  0  0  0  0  0  0  0  0  0
   38.9810   34.1190   40.4410 C   0  0  0  0  0  0  0  0  0  0  0  0
   40.3080   33.7560   40.6380 C   0  0  0  0  0  0  0  0  0  0  0  0
   41.2380   34.7250   40.4540 N   0  0  0  0  0  0  0  0  0  0  0  0
   40.9500   35.9870   40.1010 C   0  0  0  0  0  0  0  0  0  0  0  0
   39.6620   36.3330   39.9110 N   0  0  0  0  0  0  0  0  0  0  0  0
   37.6260   35.7110   39.9190 H   0  0  0  0  0  0  0  0  0  0  0  0
   38.2250   33.3640   40.5810 H   0  0  0  0  0  0  0  0  0  0  0  0
   41.7350   36.7250   39.9680 H   0  0  0  0  0  0  0  0  0  0  0  0
   38.7630   27.4770   41.8190 C   0  0  0  0  0  0  0  0  0  0  0  0
   39.1030   28.5370   42.6740 C   0  0  0  0  0  0  0  0  0  0  0  0
   38.1670   28.7630   43.6530 C   0  0  0  0  0  0  0  0  0  0  0  0
   37.0040   28.0770   43.8420 C   0  0  0  0  0  0  0  0  0  0  0  0
   36.7140   27.0450   42.9760 C   0  0  0  0  0  0  0  0  0  0  0  0
   37.6040   26.7570   41.9700 C   0  0  0  0  0  0  0  0  0  0  0  0
   38.3640   29.5700   44.3540 H   0  0  0  0  0  0  0  0  0  0  0  0
   36.3080   28.3000   44.6290 H   0  0  0  0  0  0  0  0  0  0  0  0
   35.7960   26.4760   43.0980 H   0  0  0  0  0  0  0  0  0  0  0  0
   36.5510   25.9820   39.9110 C   0  0  0  0  0  0  0  0  0  0  0  0
   36.2280   27.1700   39.6130 O   0  0  0  0  0  0  0  0  0  0  0  0
   37.2740   25.6780   41.0850 N   0  0  0  0  0  0  0  0  0  0  0  0
   37.5520   24.7090   41.2920 H   0  0  0  0  0  0  0  0  0  0  0  0
   36.1280   24.9990   38.9740 N   0  0  0  0  0  0  0  0  0  0  0  0
   35.4000   25.3630   37.8040 C   0  0  0  0  0  2  0  0  0  0  0  0
   34.2570   24.4810   37.4380 C   0  0  0  0  0  2  0  0  0  0  0  0
   34.2700   23.1100   38.0180 C   0  0  0  0  0  3  0  0  0  0  0  0
   33.2110   22.7860   38.2130 H   0  0  0  0  0  0  0  0  0  0  0  0
   34.9900   22.9640   39.3200 C   0  0  0  0  0  2  0  0  0  0  0  0
   36.3770   23.5750   39.0930 C   0  0  0  0  0  2  0  0  0  0  0  0
   40.4470   26.9380   39.8920 N   0  0  0  0  0  0  0  0  0  0  0  0
   39.7060   27.1700   40.7480 C   0  0  0  0  0  0  0  0  0  0  0  0
  1  2  1  0  0  0  0
  1 25  1  0  0  0  0
  3  4  1  0  0  0  0
  3  7  1  0  0  0  0
  4  5  1  0  0  0  0
  5  1  1  0  0  0  0
  5 10  1  1  0  0  0
  6  5  1  0  0  0  0
  6 12  1  0  0  0  0
  7 14  1  0  0  0  0
  7  6  1  0  0  0  0
  8  4  1  0  0  0  0
  9  4  1  0  0  0  0
 11  6  1  0  0  0  0
 13  7  1  0  0  0  0
 15 16  1  0  0  0  0
 16 22  1  0  0  0  0
 16 17  2  0  0  0  0
 17  3  1  0  0  0  0
 18 17  1  0  0  0  0
 19 18  2  0  0  0  0
 20 15  2  0  0  0  0
 20 19  1  0  0  0  0
 21 15  1  0  0  0  0
 23 19  1  0  0  0  0
 24 29  2  0  0  0  0
 24 25  1  0  0  0  0
 25 26  2  0  0  0  0
 26 27  1  0  0  0  0
 26 30  1  0  0  0  0
 27 31  1  0  0  0  0
 28 32  1  0  0  0  0
 28 27  2  0  0  0  0
 29 28  1  0  0  0  0
 33 35  1  0  0  0  0
 34 33  2  0  0  0  0
 35 36  1  0  0  0  0
 35 29  1  0  0  0  0
 37 43  1  0  0  0  0
 37 33  1  0  0  0  0
 38 37  1  0  0  0  0
 39 38  1  0  0  0  0
 39 40  1  0  0  0  0
 40 41  1  0  0  0  0
 40 42  1  0  0  0  0
 43 42  1  0  0  0  0
 44 45  3  0  0  0  0
 45 24  1  0  0  0  0
M  END
>  <minimizedAffinity>
-6.05519962

$$$$
