
 OpenBabel03252500553D

 28 29  0  0  0  0  0  0  0  0999 V2000
   37.7690   26.6570   42.1970 C   0  0  0  0  0  0  0  0  0  0  0  0
   37.3880   27.9820   42.1530 C   0  0  0  0  0  0  0  0  0  0  0  0
   38.2730   28.9410   42.6890 C   0  0  0  0  0  0  0  0  0  0  0  0
   39.4350   28.5030   43.2110 N   0  0  0  0  0  0  0  0  0  0  0  0
   39.7850   27.2030   43.2420 C   0  0  0  0  0  0  0  0  0  0  0  0
   38.9450   26.2900   42.7330 N   0  0  0  0  0  0  0  0  0  0  0  0
   37.9440   29.9610   42.6380 H   0  0  0  0  0  0  0  0  0  0  0  0
   40.7450   26.9760   43.6870 H   0  0  0  0  0  0  0  0  0  0  0  0
   36.9080   25.6080   41.6630 C   0  0  0  0  0  0  0  0  0  0  0  0
   36.7540   25.6970   40.5740 H   0  0  0  0  0  0  0  0  0  0  0  0
   35.9120   25.6490   42.1490 H   0  0  0  0  0  0  0  0  0  0  0  0
   37.5530   24.2640   41.9040 C   0  0  0  0  0  0  0  0  0  0  0  0
   38.3250   24.0190   41.1670 H   0  0  0  0  0  0  0  0  0  0  0  0
   37.9430   24.2710   42.9350 H   0  0  0  0  0  0  0  0  0  0  0  0
   36.7600   23.4730   41.8810 H   0  0  0  0  0  0  0  0  0  0  0  0
   36.1500   28.2630   41.5780 O   0  0  0  0  0  0  0  0  0  0  0  0
   34.4970   29.2130   39.7850 O   0  0  0  0  0  0  0  0  0  0  0  0
   35.8010   29.5230   40.5190 P   0  0  1  0  0  0  0  0  0  0  0  0
   35.5810   30.9310   41.4330 O   0  0  0  0  0  0  0  0  0  0  0  0
   36.3580   30.9890   42.0740 H   0  0  0  0  0  0  0  0  0  0  0  0
   37.0270   29.8040   39.3880 O   0  0  0  0  0  0  0  0  0  0  0  0
   39.0540   29.8030   37.3100 H   0  0  0  0  0  0  0  0  0  0  0  0
   38.9930   30.8410   37.2810 N   0  0  0  0  0  0  0  0  0  0  0  0
   39.7550   31.3970   38.3800 C   0  0  0  0  0  2  0  0  0  0  0  0
   39.1050   31.0000   39.6920 C   0  0  0  0  0  2  0  0  0  0  0  0
   37.5980   31.0320   39.6090 C   0  0  0  0  0  3  0  0  0  0  0  0
   37.2690   32.0240   38.4910 C   0  0  0  0  0  2  0  0  0  0  0  0
   37.6690   31.3750   37.1890 C   0  0  0  0  0  2  0  0  0  0  0  0
  1  6  1  0  0  0  0
  2  1  2  0  0  0  0
  2  3  1  0  0  0  0
  3  4  2  0  0  0  0
  4  5  1  0  0  0  0
  5  8  1  0  0  0  0
  6  5  2  0  0  0  0
  7  3  1  0  0  0  0
  9 12  1  0  0  0  0
  9 11  1  0  0  0  0
  9  1  1  0  0  0  0
 10  9  1  0  0  0  0
 12 14  1  0  0  0  0
 13 12  1  0  0  0  0
 15 12  1  0  0  0  0
 16  2  1  0  0  0  0
 18 17  2  6  0  0  0
 18 19  1  0  0  0  0
 18 16  1  0  0  0  0
 19 20  1  0  0  0  0
 21 26  1  0  0  0  0
 21 18  1  0  0  0  0
 23 22  1  0  0  0  0
 23 24  1  0  0  0  0
 24 25  1  0  0  0  0
 26 25  1  0  0  0  0
 27 26  1  0  0  0  0
 28 23  1  0  0  0  0
 28 27  1  0  0  0  0
M  END
>  <minimizedAffinity>
-5.14726543

$$$$

 OpenBabel03252500553D

 28 29  0  0  0  0  0  0  0  0999 V2000
   38.3900   25.6830   41.7530 C   0  0  0  0  0  0  0  0  0  0  0  0
   38.8430   26.9400   42.0950 C   0  0  0  0  0  0  0  0  0  0  0  0
   39.8210   27.0370   43.1060 C   0  0  0  0  0  0  0  0  0  0  0  0
   40.2510   25.8960   43.6780 N   0  0  0  0  0  0  0  0  0  0  0  0
   39.7930   24.6790   43.3270 C   0  0  0  0  0  0  0  0  0  0  0  0
   38.8640   24.5840   42.3650 N   0  0  0  0  0  0  0  0  0  0  0  0
   40.1490   28.0310   43.3460 H   0  0  0  0  0  0  0  0  0  0  0  0
   40.2180   23.8370   43.8590 H   0  0  0  0  0  0  0  0  0  0  0  0
   37.3810   25.5010   40.7160 C   0  0  0  0  0  0  0  0  0  0  0  0
   37.8200   25.3790   39.7120 H   0  0  0  0  0  0  0  0  0  0  0  0
   36.7050   26.3800   40.6850 H   0  0  0  0  0  0  0  0  0  0  0  0
   36.5930   24.2450   41.0040 C   0  0  0  0  0  0  0  0  0  0  0  0
   37.1050   23.3330   40.6790 H   0  0  0  0  0  0  0  0  0  0  0  0
   36.3700   24.2410   42.0830 H   0  0  0  0  0  0  0  0  0  0  0  0
   35.6020   24.3140   40.4860 H   0  0  0  0  0  0  0  0  0  0  0  0
   38.2910   28.0170   41.4030 O   0  0  0  0  0  0  0  0  0  0  0  0
   35.7400   28.6060   41.3900 O   0  0  0  0  0  0  0  0  0  0  0  0
   37.0870   29.0520   41.9590 P   0  0  1  0  0  0  0  0  0  0  0  0
   37.0240   28.9270   43.6460 O   0  0  0  0  0  0  0  0  0  0  0  0
   37.9720   29.0030   43.9820 H   0  0  0  0  0  0  0  0  0  0  0  0
   37.3570   30.6710   41.5520 O   0  0  0  0  0  0  0  0  0  0  0  0
   36.5320   33.3590   40.8280 H   0  0  0  0  0  0  0  0  0  0  0  0
   37.3670   33.4240   40.2090 N   0  0  0  0  0  0  0  0  0  0  0  0
   37.0980   32.7310   38.9670 C   0  0  0  0  0  2  0  0  0  0  0  0
   36.9280   31.2500   39.2460 C   0  0  0  0  0  2  0  0  0  0  0  0
   37.8960   30.7570   40.2930 C   0  0  0  0  0  3  0  0  0  0  0  0
   39.0820   31.7240   40.2440 C   0  0  0  0  0  2  0  0  0  0  0  0
   38.6070   33.0380   40.8100 C   0  0  0  0  0  2  0  0  0  0  0  0
  1  2  2  0  0  0  0
  1  6  1  0  0  0  0
  2  3  1  0  0  0  0
  3  7  1  0  0  0  0
  3  4  2  0  0  0  0
  5  4  1  0  0  0  0
  5  8  1  0  0  0  0
  6  5  2  0  0  0  0
  9 12  1  0  0  0  0
  9  1  1  0  0  0  0
 10  9  1  0  0  0  0
 11  9  1  0  0  0  0
 12 14  1  0  0  0  0
 13 12  1  0  0  0  0
 15 12  1  0  0  0  0
 16 18  1  0  0  0  0
 16  2  1  0  0  0  0
 18 17  2  6  0  0  0
 18 19  1  0  0  0  0
 19 20  1  0  0  0  0
 21 18  1  0  0  0  0
 23 28  1  0  0  0  0
 23 22  1  0  0  0  0
 24 25  1  0  0  0  0
 24 23  1  0  0  0  0
 25 26  1  0  0  0  0
 26 21  1  0  0  0  0
 27 26  1  0  0  0  0
 27 28  1  0  0  0  0
M  END
>  <minimizedAffinity>
-5.12263346

$$$$

 OpenBabel03252500553D

 28 29  0  0  0  0  0  0  0  0999 V2000
   36.8200   28.6110   41.1930 C   0  0  0  0  0  0  0  0  0  0  0  0
   37.8510   29.5230   41.1110 C   0  0  0  0  0  0  0  0  0  0  0  0
   38.5840   29.7970   42.2840 C   0  0  0  0  0  0  0  0  0  0  0  0
   38.2310   29.1530   43.4130 N   0  0  0  0  0  0  0  0  0  0  0  0
   37.2190   28.2660   43.4680 C   0  0  0  0  0  0  0  0  0  0  0  0
   36.5210   28.0040   42.3540 N   0  0  0  0  0  0  0  0  0  0  0  0
   39.3790   30.5110   42.1830 H   0  0  0  0  0  0  0  0  0  0  0  0
   37.0320   27.8130   44.4330 H   0  0  0  0  0  0  0  0  0  0  0  0
   36.0160   28.2750   40.0230 C   0  0  0  0  0  0  0  0  0  0  0  0
   35.6600   27.2310   40.0380 H   0  0  0  0  0  0  0  0  0  0  0  0
   36.6130   28.4150   39.0990 H   0  0  0  0  0  0  0  0  0  0  0  0
   34.7890   29.1550   39.9930 C   0  0  0  0  0  0  0  0  0  0  0  0
   33.9910   28.8020   40.6540 H   0  0  0  0  0  0  0  0  0  0  0  0
   35.1170   30.1780   40.2370 H   0  0  0  0  0  0  0  0  0  0  0  0
   34.4020   29.1980   38.9430 H   0  0  0  0  0  0  0  0  0  0  0  0
   38.0840   30.1000   39.8640 O   0  0  0  0  0  0  0  0  0  0  0  0
   37.0140   31.6930   38.0840 O   0  0  0  0  0  0  0  0  0  0  0  0
   37.7570   31.6890   39.4190 P   0  0  1  0  0  0  0  0  0  0  0  0
   36.7480   32.3670   40.5970 O   0  0  0  0  0  0  0  0  0  0  0  0
   37.1560   32.1500   41.4940 H   0  0  0  0  0  0  0  0  0  0  0  0
   39.1460   32.6450   39.2900 O   0  0  0  0  0  0  0  0  0  0  0  0
   40.4650   33.8170   36.9840 H   0  0  0  0  0  0  0  0  0  0  0  0
   41.3780   33.5120   37.3790 N   0  0  0  0  0  0  0  0  0  0  0  0
   41.5750   32.1050   37.0980 C   0  0  0  0  0  2  0  0  0  0  0  0
   40.5320   31.2940   37.8440 C   0  0  0  0  0  2  0  0  0  0  0  0
   40.2620   31.8500   39.2200 C   0  0  0  0  0  3  0  0  0  0  0  0
   41.5310   32.6090   39.6140 C   0  0  0  0  0  2  0  0  0  0  0  0
   41.5920   33.8460   38.7540 C   0  0  0  0  0  2  0  0  0  0  0  0
  1  6  1  0  0  0  0
  2  1  2  0  0  0  0
  2  3  1  0  0  0  0
  3  4  2  0  0  0  0
  4  5  1  0  0  0  0
  5  8  1  0  0  0  0
  6  5  2  0  0  0  0
  7  3  1  0  0  0  0
  9 10  1  0  0  0  0
  9  1  1  0  0  0  0
 11  9  1  0  0  0  0
 12  9  1  0  0  0  0
 12 14  1  0  0  0  0
 12 13  1  0  0  0  0
 15 12  1  0  0  0  0
 16  2  1  0  0  0  0
 18 17  2  6  0  0  0
 18 16  1  0  0  0  0
 18 19  1  0  0  0  0
 19 20  1  0  0  0  0
 21 18  1  0  0  0  0
 22 23  1  0  0  0  0
 23 28  1  0  0  0  0
 24 23  1  0  0  0  0
 24 25  1  0  0  0  0
 25 26  1  0  0  0  0
 26 21  1  0  0  0  0
 26 27  1  0  0  0  0
 28 27  1  0  0  0  0
M  END
>  <minimizedAffinity>
-4.89935017

$$$$

 OpenBabel03252500553D

 28 29  0  0  0  0  0  0  0  0999 V2000
   40.0110   29.3710   42.6960 C   0  0  0  0  0  0  0  0  0  0  0  0
   38.7360   28.8910   42.9080 C   0  0  0  0  0  0  0  0  0  0  0  0
   38.5980   27.5710   43.3850 C   0  0  0  0  0  0  0  0  0  0  0  0
   39.7210   26.8590   43.6020 N   0  0  0  0  0  0  0  0  0  0  0  0
   40.9560   27.3510   43.3870 C   0  0  0  0  0  0  0  0  0  0  0  0
   41.0890   28.6060   42.9340 N   0  0  0  0  0  0  0  0  0  0  0  0
   37.5910   27.2320   43.5380 H   0  0  0  0  0  0  0  0  0  0  0  0
   41.7800   26.6810   43.6000 H   0  0  0  0  0  0  0  0  0  0  0  0
   40.2350   30.7260   42.2040 C   0  0  0  0  0  0  0  0  0  0  0  0
   41.0670   31.2330   42.7200 H   0  0  0  0  0  0  0  0  0  0  0  0
   39.3220   31.3390   42.3510 H   0  0  0  0  0  0  0  0  0  0  0  0
   40.5980   30.6700   40.7390 C   0  0  0  0  0  0  0  0  0  0  0  0
   41.6500   30.4230   40.5660 H   0  0  0  0  0  0  0  0  0  0  0  0
   39.9130   29.9510   40.2620 H   0  0  0  0  0  0  0  0  0  0  0  0
   40.3730   31.6630   40.2730 H   0  0  0  0  0  0  0  0  0  0  0  0
   37.6820   29.7600   42.6310 O   0  0  0  0  0  0  0  0  0  0  0  0
   35.8200   28.3750   41.4190 O   0  0  0  0  0  0  0  0  0  0  0  0
   36.6260   29.6700   41.3240 P   0  0  1  0  0  0  0  0  0  0  0  0
   35.5550   30.9780   41.4250 O   0  0  0  0  0  0  0  0  0  0  0  0
   36.1120   31.8030   41.5880 H   0  0  0  0  0  0  0  0  0  0  0  0
   37.4100   29.7350   39.8270 O   0  0  0  0  0  0  0  0  0  0  0  0
   39.4560   30.2260   37.8270 H   0  0  0  0  0  0  0  0  0  0  0  0
   38.7030   30.3500   37.1190 N   0  0  0  0  0  0  0  0  0  0  0  0
   38.1440   31.6800   37.2440 C   0  0  0  0  0  2  0  0  0  0  0  0
   37.4490   31.8080   38.5870 C   0  0  0  0  0  2  0  0  0  0  0  0
   36.7150   30.5450   38.9650 C   0  0  0  0  0  3  0  0  0  0  0  0
   36.4010   29.8390   37.6440 C   0  0  0  0  0  2  0  0  0  0  0  0
   37.7080   29.3220   37.0960 C   0  0  0  0  0  2  0  0  0  0  0  0
  1  2  2  0  0  0  0
  1  6  1  0  0  0  0
  2  3  1  0  0  0  0
  3  7  1  0  0  0  0
  3  4  2  0  0  0  0
  5  8  1  0  0  0  0
  5  4  1  0  0  0  0
  6  5  2  0  0  0  0
  9 11  1  0  0  0  0
  9  1  1  0  0  0  0
  9 10  1  0  0  0  0
 12  9  1  0  0  0  0
 13 12  1  0  0  0  0
 14 12  1  0  0  0  0
 15 12  1  0  0  0  0
 16  2  1  0  0  0  0
 18 17  2  1  0  0  0
 18 19  1  0  0  0  0
 18 16  1  0  0  0  0
 19 20  1  0  0  0  0
 21 18  1  0  0  0  0
 23 24  1  0  0  0  0
 23 22  1  0  0  0  0
 24 25  1  0  0  0  0
 25 26  1  0  0  0  0
 26 21  1  0  0  0  0
 27 26  1  0  0  0  0
 28 23  1  0  0  0  0
 28 27  1  0  0  0  0
M  END
>  <minimizedAffinity>
-4.8503356

$$$$

 OpenBabel03252500553D

 28 29  0  0  0  0  0  0  0  0999 V2000
   35.9340   28.8640   37.5880 C   0  0  0  0  0  0  0  0  0  0  0  0
   36.9080   29.7500   37.9960 C   0  0  0  0  0  0  0  0  0  0  0  0
   38.2150   29.5700   37.4960 C   0  0  0  0  0  0  0  0  0  0  0  0
   38.4310   28.5430   36.6520 N   0  0  0  0  0  0  0  0  0  0  0  0
   37.4620   27.6900   36.2680 C   0  0  0  0  0  0  0  0  0  0  0  0
   36.2190   27.8590   36.7420 N   0  0  0  0  0  0  0  0  0  0  0  0
   38.9470   30.2790   37.8350 H   0  0  0  0  0  0  0  0  0  0  0  0
   37.7600   26.9040   35.5860 H   0  0  0  0  0  0  0  0  0  0  0  0
   34.5590   28.9840   38.0600 C   0  0  0  0  0  0  0  0  0  0  0  0
   34.1800   30.0180   38.0020 H   0  0  0  0  0  0  0  0  0  0  0  0
   34.4910   28.6580   39.1180 H   0  0  0  0  0  0  0  0  0  0  0  0
   33.6590   28.1380   37.1920 C   0  0  0  0  0  0  0  0  0  0  0  0
   33.3880   28.6260   36.2500 H   0  0  0  0  0  0  0  0  0  0  0  0
   34.1700   27.1750   37.0350 H   0  0  0  0  0  0  0  0  0  0  0  0
   32.7250   27.9010   37.7630 H   0  0  0  0  0  0  0  0  0  0  0  0
   36.5150   30.7580   38.8740 O   0  0  0  0  0  0  0  0  0  0  0  0
   37.8060   32.1830   40.6500 O   0  0  0  0  0  0  0  0  0  0  0  0
   36.9690   30.9150   40.4860 P   0  0  1  0  0  0  0  0  0  0  0  0
   35.5620   31.0770   41.4150 O   0  0  0  0  0  0  0  0  0  0  0  0
   34.9300   30.3480   41.1200 H   0  0  0  0  0  0  0  0  0  0  0  0
   37.8430   29.5880   41.0660 O   0  0  0  0  0  0  0  0  0  0  0  0
   39.1790   27.0150   41.2130 H   0  0  0  0  0  0  0  0  0  0  0  0
   39.0110   27.0110   42.2400 N   0  0  0  0  0  0  0  0  0  0  0  0
   37.6450   26.6040   42.4990 C   0  0  0  0  0  2  0  0  0  0  0  0
   36.6970   27.6520   41.9480 C   0  0  0  0  0  2  0  0  0  0  0  0
   37.2150   29.0530   42.1630 C   0  0  0  0  0  3  0  0  0  0  0  0
   38.1510   28.9640   43.3710 C   0  0  0  0  0  2  0  0  0  0  0  0
   39.3800   28.2110   42.9260 C   0  0  0  0  0  2  0  0  0  0  0  0
  1  2  1  0  0  0  0
  1  9  1  0  0  0  0
  2 16  1  0  0  0  0
  3  7  1  0  0  0  0
  3  2  2  0  0  0  0
  4  3  1  0  0  0  0
  5  4  2  0  0  0  0
  5  6  1  0  0  0  0
  6  1  2  0  0  0  0
  8  5  1  0  0  0  0
  9 11  1  0  0  0  0
 10  9  1  0  0  0  0
 12 15  1  0  0  0  0
 12  9  1  0  0  0  0
 13 12  1  0  0  0  0
 14 12  1  0  0  0  0
 16 18  1  0  0  0  0
 18 17  2  1  0  0  0
 18 21  1  0  0  0  0
 18 19  1  0  0  0  0
 20 19  1  0  0  0  0
 21 26  1  0  0  0  0
 22 23  1  0  0  0  0
 23 24  1  0  0  0  0
 23 28  1  0  0  0  0
 25 26  1  0  0  0  0
 25 24  1  0  0  0  0
 26 27  1  0  0  0  0
 28 27  1  0  0  0  0
M  END
>  <minimizedAffinity>
-4.74703455

$$$$

 OpenBabel03252500553D

 28 29  0  0  0  0  0  0  0  0999 V2000
   38.7220   25.8410   41.6920 C   0  0  0  0  0  0  0  0  0  0  0  0
   38.4670   26.9590   40.9250 C   0  0  0  0  0  0  0  0  0  0  0  0
   38.2480   26.7760   39.5440 C   0  0  0  0  0  0  0  0  0  0  0  0
   38.3010   25.5210   39.0580 N   0  0  0  0  0  0  0  0  0  0  0  0
   38.5520   24.4450   39.8280 C   0  0  0  0  0  0  0  0  0  0  0  0
   38.7610   24.6160   41.1410 N   0  0  0  0  0  0  0  0  0  0  0  0
   38.0530   27.6680   38.9790 H   0  0  0  0  0  0  0  0  0  0  0  0
   38.5680   23.4880   39.3210 H   0  0  0  0  0  0  0  0  0  0  0  0
   38.9590   25.9490   43.1270 C   0  0  0  0  0  0  0  0  0  0  0  0
   38.3230   25.2660   43.7140 H   0  0  0  0  0  0  0  0  0  0  0  0
   38.7500   26.9840   43.4690 H   0  0  0  0  0  0  0  0  0  0  0  0
   40.3920   25.5780   43.4240 C   0  0  0  0  0  0  0  0  0  0  0  0
   40.5550   24.4960   43.4680 H   0  0  0  0  0  0  0  0  0  0  0  0
   41.0190   26.0670   42.6610 H   0  0  0  0  0  0  0  0  0  0  0  0
   40.6880   26.0340   44.4030 H   0  0  0  0  0  0  0  0  0  0  0  0
   38.4480   28.1850   41.5870 O   0  0  0  0  0  0  0  0  0  0  0  0
   35.8440   28.3940   41.4270 O   0  0  0  0  0  0  0  0  0  0  0  0
   37.0850   29.0840   41.9910 P   0  0  1  0  0  0  0  0  0  0  0  0
   36.9590   29.1170   43.6790 O   0  0  0  0  0  0  0  0  0  0  0  0
   37.8700   29.3630   44.0370 H   0  0  0  0  0  0  0  0  0  0  0  0
   37.1440   30.6780   41.4280 O   0  0  0  0  0  0  0  0  0  0  0  0
   36.3990   33.3390   40.5370 H   0  0  0  0  0  0  0  0  0  0  0  0
   37.2990   33.3920   40.0170 N   0  0  0  0  0  0  0  0  0  0  0  0
   37.1780   32.6630   38.7720 C   0  0  0  0  0  2  0  0  0  0  0  0
   36.9820   31.1890   39.0720 C   0  0  0  0  0  2  0  0  0  0  0  0
   37.8250   30.7320   40.2380 C   0  0  0  0  0  3  0  0  0  0  0  0
   39.0050   31.7050   40.2980 C   0  0  0  0  0  2  0  0  0  0  0  0
   38.4620   33.0320   40.7680 C   0  0  0  0  0  2  0  0  0  0  0  0
  1  9  1  0  0  0  0
  2 16  1  0  0  0  0
  2  1  2  0  0  0  0
  3  2  1  0  0  0  0
  4  3  2  0  0  0  0
  4  5  1  0  0  0  0
  5  6  2  0  0  0  0
  6  1  1  0  0  0  0
  7  3  1  0  0  0  0
  8  5  1  0  0  0  0
  9 12  1  0  0  0  0
  9 11  1  0  0  0  0
  9 10  1  0  0  0  0
 12 13  1  0  0  0  0
 12 15  1  0  0  0  0
 14 12  1  0  0  0  0
 16 18  1  0  0  0  0
 18 17  2  6  0  0  0
 18 19  1  0  0  0  0
 19 20  1  0  0  0  0
 21 18  1  0  0  0  0
 23 22  1  0  0  0  0
 23 28  1  0  0  0  0
 24 25  1  0  0  0  0
 24 23  1  0  0  0  0
 25 26  1  0  0  0  0
 26 27  1  0  0  0  0
 26 21  1  0  0  0  0
 27 28  1  0  0  0  0
M  END
>  <minimizedAffinity>
-4.59514999

$$$$

 OpenBabel03252500553D

 28 29  0  0  0  0  0  0  0  0999 V2000
   37.3830   31.0160   39.0030 C   0  0  0  0  0  0  0  0  0  0  0  0
   36.7620   30.0570   39.7750 C   0  0  0  0  0  0  0  0  0  0  0  0
   36.1130   28.9950   39.1120 C   0  0  0  0  0  0  0  0  0  0  0  0
   36.1380   28.9830   37.7660 N   0  0  0  0  0  0  0  0  0  0  0  0
   36.7520   29.9320   37.0330 C   0  0  0  0  0  0  0  0  0  0  0  0
   37.3700   30.9430   37.6620 N   0  0  0  0  0  0  0  0  0  0  0  0
   35.6410   28.2670   39.7450 H   0  0  0  0  0  0  0  0  0  0  0  0
   36.7030   29.8120   35.9580 H   0  0  0  0  0  0  0  0  0  0  0  0
   38.0760   32.1440   39.6160 C   0  0  0  0  0  0  0  0  0  0  0  0
   39.0610   32.3370   39.1570 H   0  0  0  0  0  0  0  0  0  0  0  0
   38.2380   31.9500   40.6960 H   0  0  0  0  0  0  0  0  0  0  0  0
   37.2530   33.3960   39.4250 C   0  0  0  0  0  0  0  0  0  0  0  0
   37.3770   33.8450   38.4350 H   0  0  0  0  0  0  0  0  0  0  0  0
   36.2050   33.1310   39.6400 H   0  0  0  0  0  0  0  0  0  0  0  0
   37.5470   34.1430   40.2060 H   0  0  0  0  0  0  0  0  0  0  0  0
   36.8310   30.2200   41.1580 O   0  0  0  0  0  0  0  0  0  0  0  0
   39.0720   30.0890   42.5040 O   0  0  0  0  0  0  0  0  0  0  0  0
   37.7770   29.3280   42.2260 P   0  0  1  0  0  0  0  0  0  0  0  0
   36.9220   29.1730   43.6790 O   0  0  0  0  0  0  0  0  0  0  0  0
   35.9870   28.8780   43.4410 H   0  0  0  0  0  0  0  0  0  0  0  0
   38.1480   27.7800   41.6560 O   0  0  0  0  0  0  0  0  0  0  0  0
   39.1450   25.3940   40.3350 H   0  0  0  0  0  0  0  0  0  0  0  0
   39.3760   25.0000   41.2700 N   0  0  0  0  0  0  0  0  0  0  0  0
   38.1710   24.4710   41.8770 C   0  0  0  0  0  2  0  0  0  0  0  0
   37.2090   25.6100   42.1550 C   0  0  0  0  0  2  0  0  0  0  0  0
   37.9230   26.8490   42.6380 C   0  0  0  0  0  3  0  0  0  0  0  0
   39.2270   26.3530   43.2660 C   0  0  0  0  0  2  0  0  0  0  0  0
   40.1060   25.8700   42.1390 C   0  0  0  0  0  2  0  0  0  0  0  0
  1  9  1  0  0  0  0
  1  2  1  0  0  0  0
  2 16  1  0  0  0  0
  3  7  1  0  0  0  0
  3  2  2  0  0  0  0
  4  3  1  0  0  0  0
  5  6  1  0  0  0  0
  5  4  2  0  0  0  0
  6  1  2  0  0  0  0
  8  5  1  0  0  0  0
  9 11  1  0  0  0  0
 10  9  1  0  0  0  0
 12  9  1  0  0  0  0
 12 14  1  0  0  0  0
 12 15  1  0  0  0  0
 13 12  1  0  0  0  0
 16 18  1  0  0  0  0
 18 17  2  1  0  0  0
 18 19  1  0  0  0  0
 20 19  1  0  0  0  0
 21 18  1  0  0  0  0
 21 26  1  0  0  0  0
 22 23  1  0  0  0  0
 23 24  1  0  0  0  0
 23 28  1  0  0  0  0
 24 25  1  0  0  0  0
 25 26  1  0  0  0  0
 26 27  1  0  0  0  0
 28 27  1  0  0  0  0
M  END
>  <minimizedAffinity>
-4.55194616

$$$$

 OpenBabel03252500553D

 28 29  0  0  0  0  0  0  0  0999 V2000
   37.4150   30.7840   39.3360 C   0  0  0  0  0  0  0  0  0  0  0  0
   38.0070   29.5890   39.6870 C   0  0  0  0  0  0  0  0  0  0  0  0
   38.3120   28.6760   38.6570 C   0  0  0  0  0  0  0  0  0  0  0  0
   38.0050   29.0260   37.3930 N   0  0  0  0  0  0  0  0  0  0  0  0
   37.4270   30.2000   37.0740 C   0  0  0  0  0  0  0  0  0  0  0  0
   37.1360   31.0700   38.0520 N   0  0  0  0  0  0  0  0  0  0  0  0
   38.7720   27.7570   38.9670 H   0  0  0  0  0  0  0  0  0  0  0  0
   37.2300   30.3660   36.0230 H   0  0  0  0  0  0  0  0  0  0  0  0
   37.0700   31.7800   40.3440 C   0  0  0  0  0  0  0  0  0  0  0  0
   37.5770   31.6020   41.3070 H   0  0  0  0  0  0  0  0  0  0  0  0
   35.9760   31.7690   40.5300 H   0  0  0  0  0  0  0  0  0  0  0  0
   37.5060   33.1450   39.8660 C   0  0  0  0  0  0  0  0  0  0  0  0
   38.5720   33.3360   40.0280 H   0  0  0  0  0  0  0  0  0  0  0  0
   37.2210   33.2230   38.8050 H   0  0  0  0  0  0  0  0  0  0  0  0
   36.9080   33.9240   40.4030 H   0  0  0  0  0  0  0  0  0  0  0  0
   38.2560   29.3850   41.0430 O   0  0  0  0  0  0  0  0  0  0  0  0
   37.5910   28.9060   43.5290 O   0  0  0  0  0  0  0  0  0  0  0  0
   37.3510   28.4340   42.0950 P   0  0  1  0  0  0  0  0  0  0  0  0
   35.7140   28.6530   41.7240 O   0  0  0  0  0  0  0  0  0  0  0  0
   35.6230   28.5540   40.7250 H   0  0  0  0  0  0  0  0  0  0  0  0
   37.7100   26.7850   41.9810 O   0  0  0  0  0  0  0  0  0  0  0  0
   37.8200   24.0310   42.8950 H   0  0  0  0  0  0  0  0  0  0  0  0
   38.7240   23.9230   42.3890 N   0  0  0  0  0  0  0  0  0  0  0  0
   39.7880   24.4990   43.1850 C   0  0  0  0  0  2  0  0  0  0  0  0
   39.5760   25.9970   43.2980 C   0  0  0  0  0  2  0  0  0  0  0  0
   39.0690   26.5950   42.0090 C   0  0  0  0  0  3  0  0  0  0  0  0
   39.5360   25.6460   40.9030 C   0  0  0  0  0  2  0  0  0  0  0  0
   38.7260   24.3800   41.0340 C   0  0  0  0  0  2  0  0  0  0  0  0
  1  2  1  0  0  0  0
  1  9  1  0  0  0  0
  2 16  1  0  0  0  0
  3  7  1  0  0  0  0
  3  2  2  0  0  0  0
  4  3  1  0  0  0  0
  5  4  2  0  0  0  0
  5  6  1  0  0  0  0
  6  1  2  0  0  0  0
  8  5  1  0  0  0  0
  9 11  1  0  0  0  0
  9 10  1  0  0  0  0
 12 13  1  0  0  0  0
 12  9  1  0  0  0  0
 12 15  1  0  0  0  0
 14 12  1  0  0  0  0
 16 18  1  0  0  0  0
 18 17  2  1  0  0  0
 19 18  1  0  0  0  0
 20 19  1  0  0  0  0
 21 26  1  0  0  0  0
 21 18  1  0  0  0  0
 23 22  1  0  0  0  0
 23 24  1  0  0  0  0
 24 25  1  0  0  0  0
 26 25  1  0  0  0  0
 27 28  1  0  0  0  0
 27 26  1  0  0  0  0
 28 23  1  0  0  0  0
M  END
>  <minimizedAffinity>
-4.54405689

$$$$

 OpenBabel03252500553D

 28 29  0  0  0  0  0  0  0  0999 V2000
   36.9630   28.5750   37.7520 C   0  0  0  0  0  0  0  0  0  0  0  0
   36.1260   29.4430   38.4200 C   0  0  0  0  0  0  0  0  0  0  0  0
   34.7640   29.0950   38.5310 C   0  0  0  0  0  0  0  0  0  0  0  0
   34.3640   27.9350   37.9750 N   0  0  0  0  0  0  0  0  0  0  0  0
   35.2010   27.1020   37.3270 C   0  0  0  0  0  0  0  0  0  0  0  0
   36.4960   27.4320   37.2210 N   0  0  0  0  0  0  0  0  0  0  0  0
   34.1430   29.7940   39.0580 H   0  0  0  0  0  0  0  0  0  0  0  0
   34.7590   26.2000   36.9240 H   0  0  0  0  0  0  0  0  0  0  0  0
   38.3840   28.8650   37.5970 C   0  0  0  0  0  0  0  0  0  0  0  0
   38.9590   28.6740   38.5180 H   0  0  0  0  0  0  0  0  0  0  0  0
   38.5260   29.9310   37.3250 H   0  0  0  0  0  0  0  0  0  0  0  0
   38.9610   27.9700   36.5260 C   0  0  0  0  0  0  0  0  0  0  0  0
   39.1960   26.9640   36.8880 H   0  0  0  0  0  0  0  0  0  0  0  0
   38.2430   27.9590   35.6900 H   0  0  0  0  0  0  0  0  0  0  0  0
   39.8930   28.4420   36.1240 H   0  0  0  0  0  0  0  0  0  0  0  0
   36.7040   30.6020   38.9360 O   0  0  0  0  0  0  0  0  0  0  0  0
   37.7680   32.2590   40.6610 O   0  0  0  0  0  0  0  0  0  0  0  0
   37.0300   30.9250   40.5540 P   0  0  1  0  0  0  0  0  0  0  0  0
   35.5530   31.0620   41.3700 O   0  0  0  0  0  0  0  0  0  0  0  0
   34.9930   30.2670   41.1000 H   0  0  0  0  0  0  0  0  0  0  0  0
   37.9460   29.7170   41.3040 O   0  0  0  0  0  0  0  0  0  0  0  0
   39.3940   27.2010   41.2530 H   0  0  0  0  0  0  0  0  0  0  0  0
   39.0240   26.9940   42.2040 N   0  0  0  0  0  0  0  0  0  0  0  0
   37.6640   26.5080   42.0910 C   0  0  0  0  0  2  0  0  0  0  0  0
   36.7780   27.6160   41.5550 C   0  0  0  0  0  2  0  0  0  0  0  0
   37.1480   28.9620   42.1270 C   0  0  0  0  0  3  0  0  0  0  0  0
   37.8250   28.6680   43.4670 C   0  0  0  0  0  2  0  0  0  0  0  0
   39.1660   28.0480   43.1600 C   0  0  0  0  0  2  0  0  0  0  0  0
  1  2  1  0  0  0  0
  2  3  2  0  0  0  0
  2 16  1  0  0  0  0
  3  7  1  0  0  0  0
  4  3  1  0  0  0  0
  5  4  2  0  0  0  0
  6  5  1  0  0  0  0
  6  1  2  0  0  0  0
  8  5  1  0  0  0  0
  9  1  1  0  0  0  0
  9 10  1  0  0  0  0
 11  9  1  0  0  0  0
 12 13  1  0  0  0  0
 12  9  1  0  0  0  0
 14 12  1  0  0  0  0
 15 12  1  0  0  0  0
 16 18  1  0  0  0  0
 18 17  2  1  0  0  0
 18 21  1  0  0  0  0
 18 19  1  0  0  0  0
 20 19  1  0  0  0  0
 21 26  1  0  0  0  0
 22 23  1  0  0  0  0
 23 28  1  0  0  0  0
 24 23  1  0  0  0  0
 25 24  1  0  0  0  0
 25 26  1  0  0  0  0
 26 27  1  0  0  0  0
 28 27  1  0  0  0  0
M  END
>  <minimizedAffinity>
-4.5175705

$$$$
