
 OpenBabel03252503343D

 20 21  0  0  0  0  0  0  0  0999 V2000
   46.1330   33.9320   40.7930 C   0  0  0  0  0  0  0  0  0  0  0  0
   44.9680   33.4710   41.0560 O   0  0  0  0  0  0  0  0  0  0  0  0
   46.6990   34.6600   41.8730 N   0  0  0  0  0  0  0  0  0  0  0  0
   47.6460   35.0670   41.7690 H   0  0  0  0  0  0  0  0  0  0  0  0
   46.7850   33.7280   39.5430 N   0  0  0  0  0  0  0  0  0  0  0  0
   46.1540   32.9830   38.5030 C   0  0  0  0  0  2  0  0  0  0  0  0
   46.6520   33.2520   37.1250 C   0  0  0  0  0  2  0  0  0  0  0  0
   48.1600   33.3570   37.1640 C   0  0  0  0  0  3  0  0  0  0  0  0
   48.6130   33.4030   36.1450 H   0  0  0  0  0  0  0  0  0  0  0  0
   48.4740   34.5960   37.9730 C   0  0  0  0  0  2  0  0  0  0  0  0
   48.1080   34.3150   39.3990 C   0  0  0  0  0  2  0  0  0  0  0  0
   44.5440   36.0780   44.5520 C   0  0  0  0  0  0  0  0  0  0  0  0
   45.1850   35.9580   43.3120 C   0  0  0  0  0  0  0  0  0  0  0  0
   46.0090   34.8570   43.1070 C   0  0  0  0  0  0  0  0  0  0  0  0
   46.1720   33.9370   44.0970 N   0  0  0  0  0  0  0  0  0  0  0  0
   45.5340   34.0860   45.2880 C   0  0  0  0  0  0  0  0  0  0  0  0
   44.7280   35.1450   45.5150 N   0  0  0  0  0  0  0  0  0  0  0  0
   43.9110   36.9510   44.6710 H   0  0  0  0  0  0  0  0  0  0  0  0
   45.0830   36.6650   42.5010 H   0  0  0  0  0  0  0  0  0  0  0  0
   45.6920   33.3320   46.0430 H   0  0  0  0  0  0  0  0  0  0  0  0
  1  2  2  0  0  0  0
  1  3  1  0  0  0  0
  3 14  1  0  0  0  0
  4  3  1  0  0  0  0
  5  1  1  0  0  0  0
  6  5  1  0  0  0  0
  7  8  1  0  0  0  0
  7  6  1  0  0  0  0
  8 10  1  0  0  0  0
  9  8  1  0  0  0  0
 10 11  1  0  0  0  0
 11  5  1  0  0  0  0
 12 18  1  0  0  0  0
 12 17  1  0  0  0  0
 13 12  2  0  0  0  0
 14 13  1  0  0  0  0
 14 15  2  0  0  0  0
 15 16  1  0  0  0  0
 16 17  2  0  0  0  0
 16 20  1  0  0  0  0
 19 13  1  0  0  0  0
M  END
>  <minimizedAffinity>
-4.76140499

>  <minimizedRMSD>
0.42898348

$$$$
