
 OpenBabel03252509123D

 30 33  0  0  0  0  0  0  0  0999 V2000
   47.8750   30.5900   44.8060 C   0  0  0  0  0  0  0  0  0  0  0  0
   47.5840   31.7520   44.0820 C   0  0  0  0  0  0  0  0  0  0  0  0
   46.7820   32.7710   44.5700 C   0  0  0  0  0  0  0  0  0  0  0  0
   46.2320   32.6420   45.8450 C   0  0  0  0  0  0  0  0  0  0  0  0
   45.4330   33.3980   46.6310 N   0  0  0  0  0  0  0  0  0  0  0  0
   45.2180   32.7570   47.8020 C   0  0  0  0  0  0  0  0  0  0  0  0
   45.8950   31.6070   47.7190 N   0  0  0  0  0  0  0  0  0  0  0  0
   46.5240   31.5030   46.5420 C   0  0  0  0  0  0  0  0  0  0  0  0
   47.3220   30.4700   46.0780 C   0  0  0  0  0  0  0  0  0  0  0  0
   48.5120   29.8160   44.3780 H   0  0  0  0  0  0  0  0  0  0  0  0
   45.0440   34.3300   46.3690 H   0  0  0  0  0  0  0  0  0  0  0  0
   44.5990   33.1540   48.6230 H   0  0  0  0  0  0  0  0  0  0  0  0
   47.5190   29.5920   46.6750 H   0  0  0  0  0  0  0  0  0  0  0  0
   48.0290   31.5110   40.4450 C   0  0  0  0  0  0  0  0  0  0  0  0
   49.2290   32.1720   40.2340 C   0  0  0  0  0  0  0  0  0  0  0  0
   49.8840   32.7010   41.3400 C   0  0  0  0  0  0  0  0  0  0  0  0
   49.3210   32.5470   42.5800 N   0  0  0  0  0  0  0  0  0  0  0  0
   48.1550   31.8980   42.7430 C   0  0  0  0  0  0  0  0  0  0  0  0
   47.5070   31.3800   41.6880 N   0  0  0  0  0  0  0  0  0  0  0  0
   47.5550   31.1160   39.5510 H   0  0  0  0  0  0  0  0  0  0  0  0
   49.7290   32.3340   39.3030 H   0  0  0  0  0  0  0  0  0  0  0  0
   50.8070   33.2310   41.3270 H   0  0  0  0  0  0  0  0  0  0  0  0
   46.4310   34.2340   43.6260 S   0  0  0  0  0  0  0  0  0  0  0  0
   42.3630   34.3800   40.1640 H   0  0  0  0  0  0  0  0  0  0  0  0
   42.6460   34.5130   41.1650 N   0  0  0  0  0  0  0  0  0  0  0  0
   43.1060   33.2480   41.6480 C   0  0  0  0  0  2  0  0  0  0  0  0
   44.5630   33.3180   41.9660 C   0  0  0  0  0  2  0  0  0  0  0  0
   44.7350   34.3610   43.0700 C   0  0  0  0  0  3  0  0  0  0  0  0
   44.3520   35.6890   42.5060 C   0  0  0  0  0  2  0  0  0  0  0  0
   43.6110   35.5690   41.1940 C   0  0  0  0  0  2  0  0  0  0  0  0
  1  9  1  0  0  0  0
  2  3  1  0  0  0  0
  2  1  2  0  0  0  0
  3  4  2  0  0  0  0
  4  8  1  0  0  0  0
  4  5  1  0  0  0  0
  5  6  1  0  0  0  0
  6 12  1  0  0  0  0
  7  6  2  0  0  0  0
  8  7  1  0  0  0  0
  9  8  2  0  0  0  0
  9 13  1  0  0  0  0
 10  1  1  0  0  0  0
 11  5  1  0  0  0  0
 14 19  1  0  0  0  0
 15 14  2  0  0  0  0
 15 16  1  0  0  0  0
 16 17  2  0  0  0  0
 17 18  1  0  0  0  0
 18  2  1  0  0  0  0
 19 18  2  0  0  0  0
 20 14  1  0  0  0  0
 21 15  1  0  0  0  0
 22 16  1  0  0  0  0
 23  3  1  0  0  0  0
 24 25  1  0  0  0  0
 25 30  1  0  0  0  0
 25 26  1  0  0  0  0
 26 27  1  0  0  0  0
 27 28  1  0  0  0  0
 28 23  1  0  0  0  0
 29 28  1  0  0  0  0
 30 29  1  0  0  0  0
M  END
>  <minimizedAffinity>
-4.92141962

>  <minimizedRMSD>
1.8683182

$$$$
