
 OpenBabel03252505003D

 35 37  0  0  1  0  0  0  0  0999 V2000
   36.9800   26.7890   40.5450 N   0  0  0  0  0  0  0  0  0  0  0  0
   37.7460   26.2890   39.4670 C   0  0  0  0  0  0  0  0  0  0  0  0
   37.0240   26.8170   38.2870 C   0  0  0  0  0  0  0  0  0  0  0  0
   35.8580   27.6690   38.7770 C   0  0  0  0  0  0  0  0  0  0  0  0
   36.2850   27.9650   40.2210 C   0  0  2  0  0  0  0  0  0  0  0  0
   38.6090   25.7000   39.2650 H   0  0  0  0  0  0  0  0  0  0  0  0
   37.2210   26.7040   37.2340 H   0  0  0  0  0  0  0  0  0  0  0  0
   34.9250   27.0920   38.7310 H   0  0  0  0  0  0  0  0  0  0  0  0
   35.8780   28.5880   38.1720 H   0  0  0  0  0  0  0  0  0  0  0  0
   35.4600   28.1810   40.8940 H   0  0  0  0  0  0  0  0  0  0  0  0
   36.9530   26.1050   41.7350 C   0  0  0  0  0  0  0  0  0  0  0  0
   36.2600   26.5170   42.5040 H   0  0  0  0  0  0  0  0  0  0  0  0
   36.4960   25.0990   41.5350 H   0  0  0  0  0  0  0  0  0  0  0  0
   40.1420   26.7260   43.6800 C   0  0  0  0  0  0  0  0  0  0  0  0
   38.9040   27.0030   43.0340 C   0  0  0  0  0  0  0  0  0  0  0  0
   38.2310   25.9640   42.4000 C   0  0  0  0  0  0  0  0  0  0  0  0
   38.8070   24.7440   42.4390 N   0  0  0  0  0  0  0  0  0  0  0  0
   40.0080   24.4850   43.0660 C   0  0  0  0  0  0  0  0  0  0  0  0
   40.6640   25.4690   43.6790 N   0  0  0  0  0  0  0  0  0  0  0  0
   40.6360   27.5600   44.1610 H   0  0  0  0  0  0  0  0  0  0  0  0
   38.4770   27.9920   43.0250 H   0  0  0  0  0  0  0  0  0  0  0  0
   40.3820   23.4710   43.0390 H   0  0  0  0  0  0  0  0  0  0  0  0
   37.2460   28.9860   40.1380 O   0  0  0  0  0  0  0  0  0  0  0  0
   37.3320   29.7290   42.6890 O   0  0  0  0  0  0  0  0  0  0  0  0
   37.0680   30.1810   41.2730 P   0  0  2  0  0  0  0  0  0  0  0  0
   35.4580   30.7240   41.2210 O   0  0  0  0  0  0  0  0  0  0  0  0
   35.2800   30.9520   40.2730 H   0  0  0  0  0  0  0  0  0  0  0  0
   38.0180   31.5450   40.8950 O   0  0  0  0  0  0  0  0  0  0  0  0
   38.0200   34.6830   40.9880 H   0  0  0  0  0  0  0  0  0  0  0  0
   38.1680   33.7370   40.6280 N   0  0  0  0  0  0  0  0  0  0  0  0
   37.2460   33.4930   39.5410 C   0  0  0  0  0  2  0  0  0  0  0  0
   37.8070   32.3390   38.7040 C   0  0  0  0  0  2  0  0  0  0  0  0
   38.6100   31.4720   39.6550 C   0  0  0  0  0  3  0  0  0  0  0  0
   39.9390   32.2260   39.8110 C   0  0  0  0  0  2  0  0  0  0  0  0
   39.5500   33.6430   40.1750 C   0  0  0  0  0  2  0  0  0  0  0  0
  1 11  1  0  0  0  0
  2  1  1  0  0  0  0
  3  4  1  0  0  0  0
  3  2  2  0  0  0  0
  4  5  1  0  0  0  0
  5  1  1  0  0  0  0
  5 10  1  1  0  0  0
  6  2  1  0  0  0  0
  7  3  1  0  0  0  0
  8  4  1  0  0  0  0
  9  4  1  0  0  0  0
 11 16  1  0  0  0  0
 11 12  1  0  0  0  0
 13 11  1  0  0  0  0
 14 20  1  0  0  0  0
 15 14  2  0  0  0  0
 16 17  2  0  0  0  0
 16 15  1  0  0  0  0
 17 18  1  0  0  0  0
 18 19  2  0  0  0  0
 19 14  1  0  0  0  0
 21 15  1  0  0  0  0
 22 18  1  0  0  0  0
 23  5  1  0  0  0  0
 23 25  1  0  0  0  0
 25 24  2  1  0  0  0
 26 25  1  0  0  0  0
 27 26  1  0  0  0  0
 28 25  1  0  0  0  0
 30 29  1  0  0  0  0
 31 30  1  0  0  0  0
 32 31  1  0  0  0  0
 32 33  1  0  0  0  0
 33 34  1  0  0  0  0
 33 28  1  0  0  0  0
 34 35  1  0  0  0  0
 35 30  1  0  0  0  0
M  END
>  <minimizedAffinity>
-5.51689672

$$$$

 OpenBabel03252505003D

 35 37  0  0  1  0  0  0  0  0999 V2000
   37.7120   27.9940   41.5680 N   0  0  0  0  0  0  0  0  0  0  0  0
   36.4590   27.9770   42.2230 C   0  0  0  0  0  0  0  0  0  0  0  0
   36.8230   27.5850   43.6040 C   0  0  0  0  0  0  0  0  0  0  0  0
   38.3380   27.4380   43.6790 C   0  0  0  0  0  0  0  0  0  0  0  0
   38.7820   28.2340   42.4440 C   0  0  2  0  0  0  0  0  0  0  0  0
   35.4230   28.1470   42.0400 H   0  0  0  0  0  0  0  0  0  0  0  0
   36.2090   27.4340   44.4760 H   0  0  0  0  0  0  0  0  0  0  0  0
   38.6180   26.3790   43.6110 H   0  0  0  0  0  0  0  0  0  0  0  0
   38.6470   27.9530   44.6020 H   0  0  0  0  0  0  0  0  0  0  0  0
   39.7460   27.9340   42.0440 H   0  0  0  0  0  0  0  0  0  0  0  0
   37.7760   27.7530   40.2190 C   0  0  0  0  0  0  0  0  0  0  0  0
   37.1890   28.4560   39.5820 H   0  0  0  0  0  0  0  0  0  0  0  0
   38.8260   27.9740   39.8870 H   0  0  0  0  0  0  0  0  0  0  0  0
   37.4410   24.0040   39.8100 C   0  0  0  0  0  0  0  0  0  0  0  0
   37.9470   25.2500   40.2760 C   0  0  0  0  0  0  0  0  0  0  0  0
   37.3760   26.4260   39.8030 C   0  0  0  0  0  0  0  0  0  0  0  0
   36.3620   26.3040   38.9190 N   0  0  0  0  0  0  0  0  0  0  0  0
   35.8790   25.0930   38.4720 C   0  0  0  0  0  0  0  0  0  0  0  0
   36.4150   23.9580   38.9170 N   0  0  0  0  0  0  0  0  0  0  0  0
   37.9120   23.1120   40.2010 H   0  0  0  0  0  0  0  0  0  0  0  0
   38.7590   25.3050   40.9830 H   0  0  0  0  0  0  0  0  0  0  0  0
   35.0630   25.1070   37.7630 H   0  0  0  0  0  0  0  0  0  0  0  0
   38.7030   29.5880   42.8080 O   0  0  0  0  0  0  0  0  0  0  0  0
   40.6880   29.8680   41.0620 O   0  0  0  0  0  0  0  0  0  0  0  0
   39.6710   30.5910   41.9120 P   0  0  2  0  0  0  0  0  0  0  0  0
   40.5410   31.5830   42.9850 O   0  0  0  0  0  0  0  0  0  0  0  0
   39.8640   31.9970   43.5780 H   0  0  0  0  0  0  0  0  0  0  0  0
   38.7470   31.6580   40.9560 O   0  0  0  0  0  0  0  0  0  0  0  0
   36.2040   33.4300   40.4540 H   0  0  0  0  0  0  0  0  0  0  0  0
   37.1250   33.0140   40.2990 N   0  0  0  0  0  0  0  0  0  0  0  0
   37.0510   32.1000   39.1800 C   0  0  0  0  0  2  0  0  0  0  0  0
   38.4730   31.9020   38.6450 C   0  0  0  0  0  2  0  0  0  0  0  0
   39.4050   32.0890   39.8280 C   0  0  0  0  0  3  0  0  0  0  0  0
   39.4980   33.6140   39.9870 C   0  0  0  0  0  2  0  0  0  0  0  0
   38.0640   34.0970   40.0300 C   0  0  0  0  0  2  0  0  0  0  0  0
  1  2  1  0  0  0  0
  1  5  1  0  0  0  0
  2  3  2  0  0  0  0
  3  4  1  0  0  0  0
  3  7  1  0  0  0  0
  4  9  1  0  0  0  0
  5 10  1  6  0  0  0
  5 23  1  0  0  0  0
  5  4  1  0  0  0  0
  6  2  1  0  0  0  0
  8  4  1  0  0  0  0
 11  1  1  0  0  0  0
 12 11  1  0  0  0  0
 13 11  1  0  0  0  0
 14 20  1  0  0  0  0
 14 15  1  0  0  0  0
 15 21  1  0  0  0  0
 16 11  1  0  0  0  0
 16 15  2  0  0  0  0
 17 16  1  0  0  0  0
 18 19  1  0  0  0  0
 18 17  2  0  0  0  0
 19 14  2  0  0  0  0
 22 18  1  0  0  0  0
 25 24  2  6  0  0  0
 25 23  1  0  0  0  0
 25 26  1  0  0  0  0
 26 27  1  0  0  0  0
 28 25  1  0  0  0  0
 30 29  1  0  0  0  0
 31 30  1  0  0  0  0
 32 31  1  0  0  0  0
 32 33  1  0  0  0  0
 33 34  1  0  0  0  0
 33 28  1  0  0  0  0
 34 35  1  0  0  0  0
 35 30  1  0  0  0  0
M  END
>  <minimizedAffinity>
-5.25036383

$$$$

 OpenBabel03252505003D

 35 37  0  0  1  0  0  0  0  0999 V2000
   37.6530   29.3410   38.9660 N   0  0  0  0  0  0  0  0  0  0  0  0
   37.6690   28.8050   37.6570 C   0  0  0  0  0  0  0  0  0  0  0  0
   36.2420   28.8700   37.2660 C   0  0  0  0  0  0  0  0  0  0  0  0
   35.4590   29.5120   38.4050 C   0  0  0  0  0  0  0  0  0  0  0  0
   36.5780   30.2170   39.1820 C   0  0  2  0  0  0  0  0  0  0  0  0
   38.3380   28.4050   36.9310 H   0  0  0  0  0  0  0  0  0  0  0  0
   35.7490   28.5720   36.3550 H   0  0  0  0  0  0  0  0  0  0  0  0
   34.9630   28.7380   39.0040 H   0  0  0  0  0  0  0  0  0  0  0  0
   34.7900   30.2500   37.9350 H   0  0  0  0  0  0  0  0  0  0  0  0
   36.3560   30.3800   40.2330 H   0  0  0  0  0  0  0  0  0  0  0  0
   38.6110   28.9560   39.8690 C   0  0  0  0  0  0  0  0  0  0  0  0
   39.3240   28.1800   39.5040 H   0  0  0  0  0  0  0  0  0  0  0  0
   39.2960   29.8320   40.0280 H   0  0  0  0  0  0  0  0  0  0  0  0
   37.0230   26.8660   42.5970 C   0  0  0  0  0  0  0  0  0  0  0  0
   37.4370   27.2540   41.2920 C   0  0  0  0  0  0  0  0  0  0  0  0
   38.1110   28.4610   41.1330 C   0  0  0  0  0  0  0  0  0  0  0  0
   38.3310   29.1930   42.2460 N   0  0  0  0  0  0  0  0  0  0  0  0
   37.9240   28.8090   43.5070 C   0  0  0  0  0  0  0  0  0  0  0  0
   37.2780   27.6560   43.6750 N   0  0  0  0  0  0  0  0  0  0  0  0
   36.5010   25.9220   42.6790 H   0  0  0  0  0  0  0  0  0  0  0  0
   37.2430   26.6410   40.4280 H   0  0  0  0  0  0  0  0  0  0  0  0
   38.1510   29.4700   44.3320 H   0  0  0  0  0  0  0  0  0  0  0  0
   36.8680   31.3890   38.4650 O   0  0  0  0  0  0  0  0  0  0  0  0
   37.7830   32.2370   40.8120 O   0  0  0  0  0  0  0  0  0  0  0  0
   37.6960   32.5320   39.3340 P   0  0  2  0  0  0  0  0  0  0  0  0
   36.8780   34.0140   39.1740 O   0  0  0  0  0  0  0  0  0  0  0  0
   36.7690   34.1580   38.1990 H   0  0  0  0  0  0  0  0  0  0  0  0
   39.2500   32.8010   38.6880 O   0  0  0  0  0  0  0  0  0  0  0  0
   41.1820   32.9400   36.2160 H   0  0  0  0  0  0  0  0  0  0  0  0
   40.8780   32.8460   37.1880 N   0  0  0  0  0  0  0  0  0  0  0  0
   41.0760   31.4790   37.6170 C   0  0  0  0  0  2  0  0  0  0  0  0
   41.1210   31.4720   39.1490 C   0  0  0  0  0  2  0  0  0  0  0  0
   40.2610   32.6350   39.6060 C   0  0  0  0  0  3  0  0  0  0  0  0
   41.1660   33.8610   39.4180 C   0  0  0  0  0  2  0  0  0  0  0  0
   41.6700   33.7680   37.9940 C   0  0  0  0  0  2  0  0  0  0  0  0
  1  5  1  0  0  0  0
  1 11  1  0  0  0  0
  2  1  1  0  0  0  0
  3  2  2  0  0  0  0
  3  4  1  0  0  0  0
  4  8  1  0  0  0  0
  4  5  1  0  0  0  0
  5 10  1  1  0  0  0
  6  2  1  0  0  0  0
  7  3  1  0  0  0  0
  9  4  1  0  0  0  0
 11 13  1  0  0  0  0
 11 16  1  0  0  0  0
 12 11  1  0  0  0  0
 14 20  1  0  0  0  0
 14 19  1  0  0  0  0
 15 14  2  0  0  0  0
 16 15  1  0  0  0  0
 16 17  2  0  0  0  0
 17 18  1  0  0  0  0
 18 19  2  0  0  0  0
 18 22  1  0  0  0  0
 21 15  1  0  0  0  0
 23  5  1  0  0  0  0
 23 25  1  0  0  0  0
 25 24  2  1  0  0  0
 26 25  1  0  0  0  0
 27 26  1  0  0  0  0
 28 25  1  0  0  0  0
 28 33  1  0  0  0  0
 29 30  1  0  0  0  0
 30 31  1  0  0  0  0
 30 35  1  0  0  0  0
 31 32  1  0  0  0  0
 32 33  1  0  0  0  0
 34 33  1  0  0  0  0
 35 34  1  0  0  0  0
M  END
>  <minimizedAffinity>
-5.20712519

$$$$

 OpenBabel03252505003D

 35 37  0  0  1  0  0  0  0  0999 V2000
   36.1640   27.3100   39.1000 N   0  0  0  0  0  0  0  0  0  0  0  0
   36.1240   27.4600   37.6950 C   0  0  0  0  0  0  0  0  0  0  0  0
   35.0510   28.4640   37.5090 C   0  0  0  0  0  0  0  0  0  0  0  0
   34.5460   28.8890   38.8820 C   0  0  0  0  0  0  0  0  0  0  0  0
   35.7080   28.4490   39.7830 C   0  0  2  0  0  0  0  0  0  0  0  0
   36.5910   27.1000   36.8080 H   0  0  0  0  0  0  0  0  0  0  0  0
   34.6480   28.9030   36.6110 H   0  0  0  0  0  0  0  0  0  0  0  0
   33.6140   28.3600   39.1210 H   0  0  0  0  0  0  0  0  0  0  0  0
   34.4740   29.9880   38.8530 H   0  0  0  0  0  0  0  0  0  0  0  0
   35.4230   28.2530   40.8130 H   0  0  0  0  0  0  0  0  0  0  0  0
   36.5860   26.1240   39.6460 C   0  0  0  0  0  0  0  0  0  0  0  0
   35.7890   25.5130   40.1310 H   0  0  0  0  0  0  0  0  0  0  0  0
   36.8960   25.4550   38.7990 H   0  0  0  0  0  0  0  0  0  0  0  0
   38.6420   26.0000   42.8230 C   0  0  0  0  0  0  0  0  0  0  0  0
   37.5140   25.8740   41.9650 C   0  0  0  0  0  0  0  0  0  0  0  0
   37.6440   26.2320   40.6270 C   0  0  0  0  0  0  0  0  0  0  0  0
   38.8520   26.6830   40.2270 N   0  0  0  0  0  0  0  0  0  0  0  0
   39.9400   26.8020   41.0660 C   0  0  0  0  0  0  0  0  0  0  0  0
   39.8310   26.4630   42.3490 N   0  0  0  0  0  0  0  0  0  0  0  0
   38.5000   25.7120   43.8560 H   0  0  0  0  0  0  0  0  0  0  0  0
   36.5650   25.5090   42.3230 H   0  0  0  0  0  0  0  0  0  0  0  0
   40.8630   27.1750   40.6430 H   0  0  0  0  0  0  0  0  0  0  0  0
   36.7030   29.4280   39.6340 O   0  0  0  0  0  0  0  0  0  0  0  0
   37.5290   29.4520   42.1610 O   0  0  0  0  0  0  0  0  0  0  0  0
   37.0200   30.2900   41.0140 P   0  0  2  0  0  0  0  0  0  0  0  0
   35.5690   31.0090   41.5330 O   0  0  0  0  0  0  0  0  0  0  0  0
   35.2150   31.4990   40.7480 H   0  0  0  0  0  0  0  0  0  0  0  0
   38.0830   31.5880   40.7070 O   0  0  0  0  0  0  0  0  0  0  0  0
   38.1550   34.7090   41.0430 H   0  0  0  0  0  0  0  0  0  0  0  0
   38.2530   33.7930   40.6000 N   0  0  0  0  0  0  0  0  0  0  0  0
   37.2370   33.6470   39.5800 C   0  0  0  0  0  2  0  0  0  0  0  0
   37.7020   32.5560   38.6100 C   0  0  0  0  0  2  0  0  0  0  0  0
   38.5650   31.6060   39.4190 C   0  0  0  0  0  3  0  0  0  0  0  0
   39.9170   32.3280   39.5170 C   0  0  0  0  0  2  0  0  0  0  0  0
   39.5890   33.7170   40.0230 C   0  0  0  0  0  2  0  0  0  0  0  0
  1 11  1  0  0  0  0
  1  5  1  0  0  0  0
  2  1  1  0  0  0  0
  3  2  2  0  0  0  0
  3  4  1  0  0  0  0
  4  8  1  0  0  0  0
  4  5  1  0  0  0  0
  5 10  1  1  0  0  0
  6  2  1  0  0  0  0
  7  3  1  0  0  0  0
  9  4  1  0  0  0  0
 11 12  1  0  0  0  0
 11 16  1  0  0  0  0
 13 11  1  0  0  0  0
 14 20  1  0  0  0  0
 15 21  1  0  0  0  0
 15 14  2  0  0  0  0
 16 15  1  0  0  0  0
 17 16  2  0  0  0  0
 17 18  1  0  0  0  0
 18 19  2  0  0  0  0
 19 14  1  0  0  0  0
 22 18  1  0  0  0  0
 23  5  1  0  0  0  0
 23 25  1  0  0  0  0
 25 26  1  0  0  0  0
 25 24  2  1  0  0  0
 27 26  1  0  0  0  0
 28 25  1  0  0  0  0
 30 29  1  0  0  0  0
 31 30  1  0  0  0  0
 32 33  1  0  0  0  0
 32 31  1  0  0  0  0
 33 34  1  0  0  0  0
 33 28  1  0  0  0  0
 34 35  1  0  0  0  0
 35 30  1  0  0  0  0
M  END
>  <minimizedAffinity>
-5.20545435

$$$$

 OpenBabel03252505003D

 35 37  0  0  1  0  0  0  0  0999 V2000
   38.1610   31.1260   38.1830 N   0  0  0  0  0  0  0  0  0  0  0  0
   37.6400   31.6390   36.9730 C   0  0  0  0  0  0  0  0  0  0  0  0
   37.1650   30.4180   36.2830 C   0  0  0  0  0  0  0  0  0  0  0  0
   37.4070   29.2230   37.1980 C   0  0  0  0  0  0  0  0  0  0  0  0
   37.5660   29.9110   38.5600 C   0  0  2  0  0  0  0  0  0  0  0  0
   37.4980   32.5580   36.4530 H   0  0  0  0  0  0  0  0  0  0  0  0
   36.6930   30.2920   35.3230 H   0  0  0  0  0  0  0  0  0  0  0  0
   38.3190   28.6940   36.8920 H   0  0  0  0  0  0  0  0  0  0  0  0
   36.4810   28.6270   37.1710 H   0  0  0  0  0  0  0  0  0  0  0  0
   38.1530   29.3450   39.2790 H   0  0  0  0  0  0  0  0  0  0  0  0
   39.1670   31.7980   38.8290 C   0  0  0  0  0  0  0  0  0  0  0  0
   38.9530   32.8690   39.0560 H   0  0  0  0  0  0  0  0  0  0  0  0
   39.2540   31.3630   39.8610 H   0  0  0  0  0  0  0  0  0  0  0  0
   42.3310   30.7790   37.0160 C   0  0  0  0  0  0  0  0  0  0  0  0
   41.0830   30.6470   37.6870 C   0  0  0  0  0  0  0  0  0  0  0  0
   40.4500   31.7920   38.1600 C   0  0  0  0  0  0  0  0  0  0  0  0
   41.0740   32.9700   37.9480 N   0  0  0  0  0  0  0  0  0  0  0  0
   42.2840   33.0890   37.2990 C   0  0  0  0  0  0  0  0  0  0  0  0
   42.9020   32.0020   36.8390 N   0  0  0  0  0  0  0  0  0  0  0  0
   42.7920   29.8660   36.6640 H   0  0  0  0  0  0  0  0  0  0  0  0
   40.6170   29.6870   37.8360 H   0  0  0  0  0  0  0  0  0  0  0  0
   42.6980   34.0810   37.1820 H   0  0  0  0  0  0  0  0  0  0  0  0
   36.2660   30.2200   38.9910 O   0  0  0  0  0  0  0  0  0  0  0  0
   34.7100   28.8410   40.6460 O   0  0  0  0  0  0  0  0  0  0  0  0
   35.9260   29.7280   40.5360 P   0  0  2  0  0  0  0  0  0  0  0  0
   35.6150   31.1110   41.4750 O   0  0  0  0  0  0  0  0  0  0  0  0
   36.3920   31.7110   41.3380 H   0  0  0  0  0  0  0  0  0  0  0  0
   37.2750   28.9810   41.2630 O   0  0  0  0  0  0  0  0  0  0  0  0
   39.2840   26.5750   41.4500 H   0  0  0  0  0  0  0  0  0  0  0  0
   38.7520   27.4010   41.7350 N   0  0  0  0  0  0  0  0  0  0  0  0
   37.7640   27.0140   42.7180 C   0  0  0  0  0  2  0  0  0  0  0  0
   37.3580   28.2720   43.4920 C   0  0  0  0  0  2  0  0  0  0  0  0
   37.5320   29.4360   42.5360 C   0  0  0  0  0  3  0  0  0  0  0  0
   39.0430   29.7090   42.5560 C   0  0  0  0  0  2  0  0  0  0  0  0
   39.6920   28.3670   42.2900 C   0  0  0  0  0  2  0  0  0  0  0  0
  1  5  1  0  0  0  0
  1 11  1  0  0  0  0
  2  1  1  0  0  0  0
  3  2  2  0  0  0  0
  3  4  1  0  0  0  0
  4  5  1  0  0  0  0
  5 23  1  0  0  0  0
  5 10  1  1  0  0  0
  6  2  1  0  0  0  0
  7  3  1  0  0  0  0
  8  4  1  0  0  0  0
  9  4  1  0  0  0  0
 11 12  1  0  0  0  0
 11 13  1  0  0  0  0
 14 15  1  0  0  0  0
 15 21  1  0  0  0  0
 15 16  2  0  0  0  0
 16 11  1  0  0  0  0
 17 16  1  0  0  0  0
 18 17  2  0  0  0  0
 19 14  2  0  0  0  0
 19 18  1  0  0  0  0
 20 14  1  0  0  0  0
 22 18  1  0  0  0  0
 23 25  1  0  0  0  0
 25 24  2  1  0  0  0
 25 28  1  0  0  0  0
 25 26  1  0  0  0  0
 27 26  1  0  0  0  0
 28 33  1  0  0  0  0
 29 30  1  0  0  0  0
 30 35  1  0  0  0  0
 30 31  1  0  0  0  0
 31 32  1  0  0  0  0
 33 34  1  0  0  0  0
 33 32  1  0  0  0  0
 35 34  1  0  0  0  0
M  END
>  <minimizedAffinity>
-5.17314959

$$$$

 OpenBabel03252505003D

 35 37  0  0  1  0  0  0  0  0999 V2000
   36.6160   28.7060   41.7670 N   0  0  0  0  0  0  0  0  0  0  0  0
   35.8090   28.3660   40.6570 C   0  0  0  0  0  0  0  0  0  0  0  0
   35.4780   29.6910   40.0830 C   0  0  0  0  0  0  0  0  0  0  0  0
   36.1840   30.7630   40.9050 C   0  0  0  0  0  0  0  0  0  0  0  0
   37.2710   29.9380   41.6080 C   0  0  2  0  0  0  0  0  0  0  0  0
   35.4030   27.5210   40.1530 H   0  0  0  0  0  0  0  0  0  0  0  0
   34.8800   29.9560   39.2270 H   0  0  0  0  0  0  0  0  0  0  0  0
   35.4820   31.2150   41.6170 H   0  0  0  0  0  0  0  0  0  0  0  0
   36.6350   31.4550   40.1780 H   0  0  0  0  0  0  0  0  0  0  0  0
   37.6200   30.3670   42.5430 H   0  0  0  0  0  0  0  0  0  0  0  0
   36.6630   27.8700   42.8540 C   0  0  0  0  0  0  0  0  0  0  0  0
   36.6330   28.3790   43.8460 H   0  0  0  0  0  0  0  0  0  0  0  0
   35.7030   27.2870   42.8720 H   0  0  0  0  0  0  0  0  0  0  0  0
   39.0470   24.9630   42.4070 C   0  0  0  0  0  0  0  0  0  0  0  0
   37.8510   25.7280   42.3060 C   0  0  0  0  0  0  0  0  0  0  0  0
   37.8040   26.9810   42.9080 C   0  0  0  0  0  0  0  0  0  0  0  0
   38.9130   27.3930   43.5580 N   0  0  0  0  0  0  0  0  0  0  0  0
   40.0670   26.6440   43.6520 C   0  0  0  0  0  0  0  0  0  0  0  0
   40.1280   25.4430   43.0800 N   0  0  0  0  0  0  0  0  0  0  0  0
   39.0440   23.9940   41.9260 H   0  0  0  0  0  0  0  0  0  0  0  0
   36.9860   25.3640   41.7780 H   0  0  0  0  0  0  0  0  0  0  0  0
   40.8990   27.0680   44.1960 H   0  0  0  0  0  0  0  0  0  0  0  0
   38.2800   29.7330   40.6530 O   0  0  0  0  0  0  0  0  0  0  0  0
   40.9150   29.3870   40.6540 O   0  0  0  0  0  0  0  0  0  0  0  0
   39.7780   30.2620   41.1230 P   0  0  2  0  0  0  0  0  0  0  0  0
   39.8290   30.2670   42.8230 O   0  0  0  0  0  0  0  0  0  0  0  0
   39.0380   30.7880   43.1150 H   0  0  0  0  0  0  0  0  0  0  0  0
   40.0420   31.8810   40.6580 O   0  0  0  0  0  0  0  0  0  0  0  0
   40.6940   34.8630   41.3980 H   0  0  0  0  0  0  0  0  0  0  0  0
   40.3540   34.0640   40.8560 N   0  0  0  0  0  0  0  0  0  0  0  0
   38.9090   34.0990   40.8150 C   0  0  0  0  0  2  0  0  0  0  0  0
   38.4560   33.2540   39.6200 C   0  0  0  0  0  2  0  0  0  0  0  0
   39.5170   32.1880   39.4240 C   0  0  0  0  0  3  0  0  0  0  0  0
   40.6480   32.9220   38.6890 C   0  0  0  0  0  2  0  0  0  0  0  0
   40.9200   34.1610   39.5160 C   0  0  0  0  0  2  0  0  0  0  0  0
  1 11  1  0  0  0  0
  2  1  1  0  0  0  0
  3  2  2  0  0  0  0
  3  4  1  0  0  0  0
  4  5  1  0  0  0  0
  4  8  1  0  0  0  0
  5  1  1  0  0  0  0
  5 10  1  1  0  0  0
  6  2  1  0  0  0  0
  7  3  1  0  0  0  0
  9  4  1  0  0  0  0
 11 13  1  0  0  0  0
 11 16  1  0  0  0  0
 11 12  1  0  0  0  0
 14 19  1  0  0  0  0
 15 14  2  0  0  0  0
 15 16  1  0  0  0  0
 16 17  2  0  0  0  0
 17 18  1  0  0  0  0
 18 22  1  0  0  0  0
 19 18  2  0  0  0  0
 20 14  1  0  0  0  0
 21 15  1  0  0  0  0
 23 25  1  0  0  0  0
 23  5  1  0  0  0  0
 25 24  2  6  0  0  0
 25 26  1  0  0  0  0
 26 27  1  0  0  0  0
 28 25  1  0  0  0  0
 30 29  1  0  0  0  0
 31 30  1  0  0  0  0
 32 31  1  0  0  0  0
 33 32  1  0  0  0  0
 33 28  1  0  0  0  0
 34 33  1  0  0  0  0
 34 35  1  0  0  0  0
 35 30  1  0  0  0  0
M  END
>  <minimizedAffinity>
-5.14168978

$$$$

 OpenBabel03252505003D

 35 37  0  0  1  0  0  0  0  0999 V2000
   38.2300   30.2640   38.0090 N   0  0  0  0  0  0  0  0  0  0  0  0
   37.8860   31.0900   36.9140 C   0  0  0  0  0  0  0  0  0  0  0  0
   36.9330   30.2440   36.1600 C   0  0  0  0  0  0  0  0  0  0  0  0
   36.7380   28.9400   36.9240 C   0  0  0  0  0  0  0  0  0  0  0  0
   37.2290   29.3320   38.3240 C   0  0  2  0  0  0  0  0  0  0  0  0
   38.0870   32.0520   36.5040 H   0  0  0  0  0  0  0  0  0  0  0  0
   36.3970   30.4340   35.2450 H   0  0  0  0  0  0  0  0  0  0  0  0
   37.3510   28.1460   36.4770 H   0  0  0  0  0  0  0  0  0  0  0  0
   35.6530   28.7530   36.9330 H   0  0  0  0  0  0  0  0  0  0  0  0
   37.5850   28.4970   38.9210 H   0  0  0  0  0  0  0  0  0  0  0  0
   39.4530   30.4110   38.6130 C   0  0  0  0  0  0  0  0  0  0  0  0
   39.6900   29.6550   39.3980 H   0  0  0  0  0  0  0  0  0  0  0  0
   40.2390   30.1890   37.8420 H   0  0  0  0  0  0  0  0  0  0  0  0
   40.7730   33.8520   39.4830 C   0  0  0  0  0  0  0  0  0  0  0  0
   40.6600   32.6040   38.8090 C   0  0  0  0  0  0  0  0  0  0  0  0
   39.6920   31.6990   39.2310 C   0  0  0  0  0  0  0  0  0  0  0  0
   38.9120   32.0720   40.2670 N   0  0  0  0  0  0  0  0  0  0  0  0
   39.0290   33.2840   40.9150 C   0  0  0  0  0  0  0  0  0  0  0  0
   39.9510   34.1610   40.5230 N   0  0  0  0  0  0  0  0  0  0  0  0
   41.5390   34.5280   39.1260 H   0  0  0  0  0  0  0  0  0  0  0  0
   41.3030   32.3430   37.9840 H   0  0  0  0  0  0  0  0  0  0  0  0
   38.3540   33.4830   41.7350 H   0  0  0  0  0  0  0  0  0  0  0  0
   36.1800   30.0570   38.9120 O   0  0  0  0  0  0  0  0  0  0  0  0
   34.6660   28.8340   40.7230 O   0  0  0  0  0  0  0  0  0  0  0  0
   35.8980   29.6770   40.5010 P   0  0  2  0  0  0  0  0  0  0  0  0
   35.6630   31.1270   41.3570 O   0  0  0  0  0  0  0  0  0  0  0  0
   36.4480   31.6950   41.1460 H   0  0  0  0  0  0  0  0  0  0  0  0
   37.2600   28.9440   41.2170 O   0  0  0  0  0  0  0  0  0  0  0  0
   39.1220   26.4210   41.3850 H   0  0  0  0  0  0  0  0  0  0  0  0
   38.6140   27.2560   41.6860 N   0  0  0  0  0  0  0  0  0  0  0  0
   37.5380   26.8660   42.5700 C   0  0  0  0  0  2  0  0  0  0  0  0
   37.1430   28.0950   43.3950 C   0  0  0  0  0  2  0  0  0  0  0  0
   37.4470   29.3040   42.5310 C   0  0  0  0  0  3  0  0  0  0  0  0
   38.9640   29.4900   42.6740 C   0  0  0  0  0  2  0  0  0  0  0  0
   39.5600   28.1320   42.3660 C   0  0  0  0  0  2  0  0  0  0  0  0
  1  5  1  0  0  0  0
  1 11  1  0  0  0  0
  2  1  1  0  0  0  0
  3  2  2  0  0  0  0
  3  4  1  0  0  0  0
  4  9  1  0  0  0  0
  4  5  1  0  0  0  0
  5 23  1  0  0  0  0
  5 10  1  1  0  0  0
  6  2  1  0  0  0  0
  7  3  1  0  0  0  0
  8  4  1  0  0  0  0
 11 16  1  0  0  0  0
 11 12  1  0  0  0  0
 13 11  1  0  0  0  0
 14 19  1  0  0  0  0
 15 16  1  0  0  0  0
 15 14  2  0  0  0  0
 16 17  2  0  0  0  0
 17 18  1  0  0  0  0
 18 22  1  0  0  0  0
 19 18  2  0  0  0  0
 20 14  1  0  0  0  0
 21 15  1  0  0  0  0
 23 25  1  0  0  0  0
 25 24  2  1  0  0  0
 25 28  1  0  0  0  0
 25 26  1  0  0  0  0
 27 26  1  0  0  0  0
 28 33  1  0  0  0  0
 29 30  1  0  0  0  0
 30 35  1  0  0  0  0
 30 31  1  0  0  0  0
 31 32  1  0  0  0  0
 33 34  1  0  0  0  0
 33 32  1  0  0  0  0
 35 34  1  0  0  0  0
M  END
>  <minimizedAffinity>
-5.12675571

$$$$

 OpenBabel03252505003D

 35 37  0  0  1  0  0  0  0  0999 V2000
   37.0790   30.5500   40.3240 N   0  0  0  0  0  0  0  0  0  0  0  0
   37.1000   29.8100   39.1190 C   0  0  0  0  0  0  0  0  0  0  0  0
   37.1060   30.8730   38.0880 C   0  0  0  0  0  0  0  0  0  0  0  0
   37.1390   32.2260   38.7910 C   0  0  0  0  0  0  0  0  0  0  0  0
   37.6400   31.8300   40.1860 C   0  0  2  0  0  0  0  0  0  0  0  0
   37.1120   28.8070   38.7600 H   0  0  0  0  0  0  0  0  0  0  0  0
   37.1170   30.8090   37.0130 H   0  0  0  0  0  0  0  0  0  0  0  0
   36.1300   32.6590   38.8200 H   0  0  0  0  0  0  0  0  0  0  0  0
   37.8970   32.8240   38.2630 H   0  0  0  0  0  0  0  0  0  0  0  0
   37.3490   32.5180   40.9750 H   0  0  0  0  0  0  0  0  0  0  0  0
   36.5160   30.0020   41.4480 C   0  0  0  0  0  0  0  0  0  0  0  0
   36.3060   30.7220   42.2740 H   0  0  0  0  0  0  0  0  0  0  0  0
   35.4810   29.6650   41.1760 H   0  0  0  0  0  0  0  0  0  0  0  0
   39.1330   27.9310   43.2370 C   0  0  0  0  0  0  0  0  0  0  0  0
   38.5150   29.0690   42.6460 C   0  0  0  0  0  0  0  0  0  0  0  0
   37.2650   28.9220   42.0550 C   0  0  0  0  0  0  0  0  0  0  0  0
   36.7130   27.6900   42.0830 N   0  0  0  0  0  0  0  0  0  0  0  0
   37.3200   26.5930   42.6570 C   0  0  0  0  0  0  0  0  0  0  0  0
   38.5170   26.7180   43.2270 N   0  0  0  0  0  0  0  0  0  0  0  0
   40.1060   28.0860   43.6850 H   0  0  0  0  0  0  0  0  0  0  0  0
   38.9890   30.0370   42.6440 H   0  0  0  0  0  0  0  0  0  0  0  0
   36.7910   25.6510   42.6250 H   0  0  0  0  0  0  0  0  0  0  0  0
   39.0260   31.6470   40.0610 O   0  0  0  0  0  0  0  0  0  0  0  0
   39.1540   34.1600   40.9190 O   0  0  0  0  0  0  0  0  0  0  0  0
   39.9170   33.0290   40.2730 P   0  0  2  0  0  0  0  0  0  0  0  0
   40.4110   33.5790   38.7410 O   0  0  0  0  0  0  0  0  0  0  0  0
   40.8500   32.8040   38.3050 H   0  0  0  0  0  0  0  0  0  0  0  0
   41.3580   32.7170   41.1280 O   0  0  0  0  0  0  0  0  0  0  0  0
   43.3170   33.3060   43.5100 H   0  0  0  0  0  0  0  0  0  0  0  0
   42.8940   32.8140   42.7190 N   0  0  0  0  0  0  0  0  0  0  0  0
   43.8050   32.8480   41.5970 C   0  0  0  0  0  2  0  0  0  0  0  0
   43.4160   31.7120   40.6450 C   0  0  0  0  0  2  0  0  0  0  0  0
   41.9240   31.5010   40.8200 C   0  0  0  0  0  3  0  0  0  0  0  0
   41.8150   30.6800   42.1130 C   0  0  0  0  0  2  0  0  0  0  0  0
   42.6280   31.4440   43.1380 C   0  0  0  0  0  2  0  0  0  0  0  0
  1 11  1  0  0  0  0
  2  1  1  0  0  0  0
  3  4  1  0  0  0  0
  3  2  2  0  0  0  0
  4  8  1  0  0  0  0
  4  5  1  0  0  0  0
  5  1  1  0  0  0  0
  5 10  1  1  0  0  0
  6  2  1  0  0  0  0
  7  3  1  0  0  0  0
  9  4  1  0  0  0  0
 11 16  1  0  0  0  0
 11 12  1  0  0  0  0
 13 11  1  0  0  0  0
 14 20  1  0  0  0  0
 15 14  2  0  0  0  0
 16 17  2  0  0  0  0
 16 15  1  0  0  0  0
 17 18  1  0  0  0  0
 18 19  2  0  0  0  0
 19 14  1  0  0  0  0
 21 15  1  0  0  0  0
 22 18  1  0  0  0  0
 23  5  1  0  0  0  0
 23 25  1  0  0  0  0
 25 24  2  1  0  0  0
 25 28  1  0  0  0  0
 26 25  1  0  0  0  0
 27 26  1  0  0  0  0
 30 35  1  0  0  0  0
 30 29  1  0  0  0  0
 31 30  1  0  0  0  0
 32 33  1  0  0  0  0
 32 31  1  0  0  0  0
 33 28  1  0  0  0  0
 33 34  1  0  0  0  0
 34 35  1  0  0  0  0
M  END
>  <minimizedAffinity>
-4.9926424

$$$$

 OpenBabel03252505003D

 35 37  0  0  1  0  0  0  0  0999 V2000
   38.8120   31.6930   39.9060 N   0  0  0  0  0  0  0  0  0  0  0  0
   38.8180   32.8670   40.6950 C   0  0  0  0  0  0  0  0  0  0  0  0
   37.8000   33.7090   40.0260 C   0  0  0  0  0  0  0  0  0  0  0  0
   37.2050   32.9170   38.8670 C   0  0  0  0  0  0  0  0  0  0  0  0
   37.5870   31.4820   39.2540 C   0  0  2  0  0  0  0  0  0  0  0  0
   39.2920   33.2910   41.5490 H   0  0  0  0  0  0  0  0  0  0  0  0
   37.4480   34.7010   40.2550 H   0  0  0  0  0  0  0  0  0  0  0  0
   37.6670   33.2290   37.9220 H   0  0  0  0  0  0  0  0  0  0  0  0
   36.1150   33.0570   38.9320 H   0  0  0  0  0  0  0  0  0  0  0  0
   37.6560   30.7980   38.4120 H   0  0  0  0  0  0  0  0  0  0  0  0
   39.9460   30.9250   39.8220 C   0  0  0  0  0  0  0  0  0  0  0  0
   40.3950   30.6330   40.8000 H   0  0  0  0  0  0  0  0  0  0  0  0
   39.6460   29.9270   39.4060 H   0  0  0  0  0  0  0  0  0  0  0  0
   42.0700   32.4340   37.0750 C   0  0  0  0  0  0  0  0  0  0  0  0
   40.9380   31.8500   37.7110 C   0  0  0  0  0  0  0  0  0  0  0  0
   41.0300   31.4970   39.0530 C   0  0  0  0  0  0  0  0  0  0  0  0
   42.2050   31.7360   39.6720 N   0  0  0  0  0  0  0  0  0  0  0  0
   43.2970   32.3020   39.0480 C   0  0  0  0  0  0  0  0  0  0  0  0
   43.2250   32.6460   37.7630 N   0  0  0  0  0  0  0  0  0  0  0  0
   41.9590   32.6940   36.0310 H   0  0  0  0  0  0  0  0  0  0  0  0
   40.0160   31.6760   37.1810 H   0  0  0  0  0  0  0  0  0  0  0  0
   44.1920   32.4500   39.6360 H   0  0  0  0  0  0  0  0  0  0  0  0
   36.6710   31.0910   40.2420 O   0  0  0  0  0  0  0  0  0  0  0  0
   36.4000   28.7890   38.9400 O   0  0  0  0  0  0  0  0  0  0  0  0
   36.3770   29.4600   40.2920 P   0  0  2  0  0  0  0  0  0  0  0  0
   34.8210   29.2220   40.9350 O   0  0  0  0  0  0  0  0  0  0  0  0
   34.8020   29.7250   41.7890 H   0  0  0  0  0  0  0  0  0  0  0  0
   37.4370   28.6690   41.3670 O   0  0  0  0  0  0  0  0  0  0  0  0
   39.7970   26.6880   41.9750 H   0  0  0  0  0  0  0  0  0  0  0  0
   39.0660   27.3840   42.1410 N   0  0  0  0  0  0  0  0  0  0  0  0
   37.9930   26.7760   42.8950 C   0  0  0  0  0  2  0  0  0  0  0  0
   37.1970   27.9010   43.5650 C   0  0  0  0  0  2  0  0  0  0  0  0
   37.3330   29.1140   42.6640 C   0  0  0  0  0  3  0  0  0  0  0  0
   38.7230   29.6710   43.0010 C   0  0  0  0  0  2  0  0  0  0  0  0
   39.6640   28.4910   42.8780 C   0  0  0  0  0  2  0  0  0  0  0  0
  1  2  1  0  0  0  0
  2  6  1  0  0  0  0
  3  7  1  0  0  0  0
  3  2  2  0  0  0  0
  4  9  1  0  0  0  0
  4  5  1  0  0  0  0
  4  3  1  0  0  0  0
  5 10  1  6  0  0  0
  5  1  1  0  0  0  0
  5 23  1  0  0  0  0
  8  4  1  0  0  0  0
 11  1  1  0  0  0  0
 11 12  1  0  0  0  0
 13 11  1  0  0  0  0
 14 15  2  0  0  0  0
 14 19  1  0  0  0  0
 15 16  1  0  0  0  0
 16 17  2  0  0  0  0
 16 11  1  0  0  0  0
 18 22  1  0  0  0  0
 18 17  1  0  0  0  0
 19 18  2  0  0  0  0
 20 14  1  0  0  0  0
 21 15  1  0  0  0  0
 23 25  1  0  0  0  0
 25 24  2  6  0  0  0
 25 26  1  0  0  0  0
 25 28  1  0  0  0  0
 26 27  1  0  0  0  0
 28 33  1  0  0  0  0
 29 30  1  0  0  0  0
 30 35  1  0  0  0  0
 30 31  1  0  0  0  0
 31 32  1  0  0  0  0
 33 34  1  0  0  0  0
 33 32  1  0  0  0  0
 35 34  1  0  0  0  0
M  END
>  <minimizedAffinity>
-4.96576262

$$$$
