
 OpenBabel03252509003D

 43 45  0  0  1  0  0  0  0  0999 V2000
   46.9660   34.4220   43.1430 N   0  0  0  0  0  0  0  0  0  0  0  0
   46.4400   35.6410   42.6270 C   0  0  0  0  0  0  0  0  0  0  0  0
   44.9600   35.8520   42.8720 C   0  0  0  0  0  0  0  0  0  0  0  0
   44.4610   35.2930   44.1670 C   0  0  0  0  0  0  0  0  0  0  0  0
   45.5720   34.6880   44.9870 C   0  0  0  0  0  0  0  0  0  0  0  0
   46.2210   33.6430   44.0120 C   0  0  2  0  0  0  0  0  0  0  0  0
   46.9560   36.4840   43.1740 H   0  0  0  0  0  0  0  0  0  0  0  0
   46.6260   35.8380   41.5660 H   0  0  0  0  0  0  0  0  0  0  0  0
   44.4320   35.2790   42.0690 H   0  0  0  0  0  0  0  0  0  0  0  0
   44.7260   36.9120   42.7170 H   0  0  0  0  0  0  0  0  0  0  0  0
   44.0960   36.1760   44.7650 H   0  0  0  0  0  0  0  0  0  0  0  0
   43.6250   34.5950   44.0900 H   0  0  0  0  0  0  0  0  0  0  0  0
   45.1860   34.1160   45.8290 H   0  0  0  0  0  0  0  0  0  0  0  0
   46.3500   35.4400   45.2310 H   0  0  0  0  0  0  0  0  0  0  0  0
   45.3640   33.0720   43.6260 H   0  0  0  0  0  0  0  0  0  0  0  0
   47.9270   33.7960   42.2930 C   0  0  0  0  0  0  0  0  0  0  0  0
   48.6210   33.1590   42.8660 H   0  0  0  0  0  0  0  0  0  0  0  0
   48.5200   34.5840   41.7900 H   0  0  0  0  0  0  0  0  0  0  0  0
   47.2090   32.9410   41.2920 C   0  0  0  0  0  0  0  0  0  0  0  0
   47.1790   31.8850   41.5880 H   0  0  0  0  0  0  0  0  0  0  0  0
   46.1310   33.2420   41.1700 H   0  0  0  0  0  0  0  0  0  0  0  0
   49.2860   32.1870   38.2580 C   0  0  0  0  0  0  0  0  0  0  0  0
   48.6690   32.0630   39.5120 C   0  0  0  0  0  0  0  0  0  0  0  0
   47.8560   33.0780   39.9700 C   0  0  0  0  0  0  0  0  0  0  0  0
   47.6900   34.1560   39.1770 N   0  0  0  0  0  0  0  0  0  0  0  0
   48.2920   34.2590   37.9730 C   0  0  0  0  0  0  0  0  0  0  0  0
   49.0880   33.2850   37.5010 N   0  0  0  0  0  0  0  0  0  0  0  0
   49.9300   31.4230   37.8530 H   0  0  0  0  0  0  0  0  0  0  0  0
   48.8770   31.1590   40.0480 H   0  0  0  0  0  0  0  0  0  0  0  0
   48.0320   35.2020   37.4890 H   0  0  0  0  0  0  0  0  0  0  0  0
   47.0330   32.9200   44.8700 O   0  0  0  0  0  0  0  0  0  0  0  0
   45.4970   30.8870   44.1220 O   0  0  0  0  0  0  0  0  0  0  0  0
   46.4220   31.3960   45.2330 P   0  0  2  0  0  0  0  0  0  0  0  0
   45.4030   31.6000   46.5920 O   0  0  0  0  0  0  0  0  0  0  0  0
   46.0010   31.7380   47.3820 H   0  0  0  0  0  0  0  0  0  0  0  0
   47.5940   30.2910   45.6420 O   0  0  0  0  0  0  0  0  0  0  0  0
   48.7810   28.6960   40.9220 H   0  0  0  0  0  0  0  0  0  0  0  0
   48.4090   29.1590   41.7590 N   0  0  0  0  0  0  0  0  0  0  0  0
   49.4500   29.7790   42.5290 C   0  0  0  0  0  2  0  0  0  0  0  0
   48.7800   30.5940   43.6210 C   0  0  0  0  0  2  0  0  0  0  0  0
   48.1470   29.6020   44.5840 C   0  0  0  0  0  3  0  0  0  0  0  0
   47.0980   28.8460   43.7960 C   0  0  0  0  0  2  0  0  0  0  0  0
   47.7120   28.2110   42.5850 C   0  0  0  0  0  2  0  0  0  0  0  0
  1  6  1  0  0  0  0
  2  3  1  0  0  0  0
  2  1  1  0  0  0  0
  2  7  1  0  0  0  0
  3  4  1  0  0  0  0
  4 11  1  0  0  0  0
  4  5  1  0  0  0  0
  5 14  1  0  0  0  0
  5 13  1  0  0  0  0
  6 15  1  6  0  0  0
  6 31  1  0  0  0  0
  6  5  1  0  0  0  0
  8  2  1  0  0  0  0
  9  3  1  0  0  0  0
 10  3  1  0  0  0  0
 12  4  1  0  0  0  0
 16 17  1  0  0  0  0
 16  1  1  0  0  0  0
 18 16  1  0  0  0  0
 19 20  1  0  0  0  0
 19 16  1  0  0  0  0
 21 19  1  0  0  0  0
 22 23  1  0  0  0  0
 23 24  2  0  0  0  0
 23 29  1  0  0  0  0
 24 19  1  0  0  0  0
 25 24  1  0  0  0  0
 26 25  2  0  0  0  0
 27 26  1  0  0  0  0
 27 22  2  0  0  0  0
 28 22  1  0  0  0  0
 30 26  1  0  0  0  0
 31 33  1  0  0  0  0
 33 32  2  6  0  0  0
 33 36  1  0  0  0  0
 33 34  1  0  0  0  0
 34 35  1  0  0  0  0
 37 38  1  0  0  0  0
 38 39  1  0  0  0  0
 38 43  1  0  0  0  0
 39 40  1  0  0  0  0
 40 41  1  0  0  0  0
 41 36  1  0  0  0  0
 42 41  1  0  0  0  0
 43 42  1  0  0  0  0
M  END
>  <minimizedAffinity>
-3.80961466

>  <minimizedRMSD>
0.558878124

$$$$
