
 OpenBabel03252509003D

 43 45  0  0  1  0  0  0  0  0999 V2000
   47.1450   34.1900   43.0820 N   0  0  0  0  0  0  0  0  0  0  0  0
   46.6220   35.3860   42.5110 C   0  0  0  0  0  0  0  0  0  0  0  0
   45.1350   35.5920   42.7120 C   0  0  0  0  0  0  0  0  0  0  0  0
   44.6080   35.0730   44.0130 C   0  0  0  0  0  0  0  0  0  0  0  0
   45.7030   34.5070   44.8810 C   0  0  0  0  0  0  0  0  0  0  0  0
   46.3850   33.4350   43.9590 C   0  0  2  0  0  0  0  0  0  0  0  0
   47.1170   36.2520   43.0410 H   0  0  0  0  0  0  0  0  0  0  0  0
   46.8320   35.5480   41.4490 H   0  0  0  0  0  0  0  0  0  0  0  0
   44.6310   34.9860   41.9170 H   0  0  0  0  0  0  0  0  0  0  0  0
   44.8950   36.6430   42.5140 H   0  0  0  0  0  0  0  0  0  0  0  0
   44.2210   35.9730   44.5710 H   0  0  0  0  0  0  0  0  0  0  0  0
   43.7800   34.3650   43.9400 H   0  0  0  0  0  0  0  0  0  0  0  0
   45.3010   33.9610   45.7330 H   0  0  0  0  0  0  0  0  0  0  0  0
   46.4680   35.2750   45.1170 H   0  0  0  0  0  0  0  0  0  0  0  0
   45.5430   32.8430   43.5730 H   0  0  0  0  0  0  0  0  0  0  0  0
   48.1320   33.5450   42.2780 C   0  0  0  0  0  0  0  0  0  0  0  0
   48.8030   32.9160   42.8870 H   0  0  0  0  0  0  0  0  0  0  0  0
   48.7450   34.3200   41.7810 H   0  0  0  0  0  0  0  0  0  0  0  0
   47.4450   32.6730   41.2700 C   0  0  0  0  0  0  0  0  0  0  0  0
   47.5460   31.6050   41.5020 H   0  0  0  0  0  0  0  0  0  0  0  0
   46.3360   32.8610   41.2300 H   0  0  0  0  0  0  0  0  0  0  0  0
   49.3180   32.2740   38.0410 C   0  0  0  0  0  0  0  0  0  0  0  0
   48.8000   32.0150   39.3190 C   0  0  0  0  0  0  0  0  0  0  0  0
   47.9880   32.9510   39.9230 C   0  0  0  0  0  0  0  0  0  0  0  0
   47.7260   34.0870   39.2450 N   0  0  0  0  0  0  0  0  0  0  0  0
   48.2340   34.3190   38.0160 C   0  0  0  0  0  0  0  0  0  0  0  0
   49.0270   33.4250   37.4030 N   0  0  0  0  0  0  0  0  0  0  0  0
   49.9570   31.5750   37.5250 H   0  0  0  0  0  0  0  0  0  0  0  0
   49.0780   31.0770   39.7560 H   0  0  0  0  0  0  0  0  0  0  0  0
   47.9070   35.2890   37.6380 H   0  0  0  0  0  0  0  0  0  0  0  0
   47.1820   32.7490   44.8620 O   0  0  0  0  0  0  0  0  0  0  0  0
   45.9680   30.5830   43.9220 O   0  0  0  0  0  0  0  0  0  0  0  0
   46.6500   31.1820   45.1560 P   0  0  2  0  0  0  0  0  0  0  0  0
   45.4080   31.3100   46.3250 O   0  0  0  0  0  0  0  0  0  0  0  0
   45.8540   31.5070   47.1980 H   0  0  0  0  0  0  0  0  0  0  0  0
   47.8280   30.1880   45.7780 O   0  0  0  0  0  0  0  0  0  0  0  0
   50.2750   26.1540   43.7850 H   0  0  0  0  0  0  0  0  0  0  0  0
   49.8640   26.8820   44.3780 N   0  0  0  0  0  0  0  0  0  0  0  0
   48.4310   26.9040   44.2770 C   0  0  0  0  0  2  0  0  0  0  0  0
   47.9190   27.8700   45.3310 C   0  0  0  0  0  2  0  0  0  0  0  0
   48.3440   29.2640   44.8950 C   0  0  0  0  0  3  0  0  0  0  0  0
   49.8570   29.2710   44.8910 C   0  0  0  0  0  2  0  0  0  0  0  0
   50.3810   28.1720   44.0160 C   0  0  0  0  0  2  0  0  0  0  0  0
  1  6  1  0  0  0  0
  2  3  1  0  0  0  0
  2  7  1  0  0  0  0
  2  1  1  0  0  0  0
  3  4  1  0  0  0  0
  4 11  1  0  0  0  0
  4  5  1  0  0  0  0
  5 14  1  0  0  0  0
  5 13  1  0  0  0  0
  6 15  1  6  0  0  0
  6 31  1  0  0  0  0
  6  5  1  0  0  0  0
  8  2  1  0  0  0  0
  9  3  1  0  0  0  0
 10  3  1  0  0  0  0
 12  4  1  0  0  0  0
 16 17  1  0  0  0  0
 16  1  1  0  0  0  0
 18 16  1  0  0  0  0
 19 20  1  0  0  0  0
 19 16  1  0  0  0  0
 21 19  1  0  0  0  0
 22 23  1  0  0  0  0
 23 29  1  0  0  0  0
 23 24  2  0  0  0  0
 24 19  1  0  0  0  0
 25 24  1  0  0  0  0
 26 25  2  0  0  0  0
 27 26  1  0  0  0  0
 27 22  2  0  0  0  0
 28 22  1  0  0  0  0
 30 26  1  0  0  0  0
 31 33  1  0  0  0  0
 33 32  2  6  0  0  0
 33 36  1  0  0  0  0
 33 34  1  0  0  0  0
 34 35  1  0  0  0  0
 37 38  1  0  0  0  0
 39 38  1  0  0  0  0
 39 40  1  0  0  0  0
 41 40  1  0  0  0  0
 41 36  1  0  0  0  0
 42 41  1  0  0  0  0
 43 38  1  0  0  0  0
 43 42  1  0  0  0  0
M  END
>  <minimizedAffinity>
-3.71963382

>  <minimizedRMSD>
0.142672241

$$$$
