
 OpenBabel03252509133D

 30 33  0  0  0  0  0  0  0  0999 V2000
   39.4660   30.4080   42.1180 C   0  0  0  0  0  0  0  0  0  0  0  0
   38.2220   29.9580   41.6650 C   0  0  0  0  0  0  0  0  0  0  0  0
   37.3460   30.7490   40.9380 C   0  0  0  0  0  0  0  0  0  0  0  0
   37.7150   32.0600   40.6380 C   0  0  0  0  0  0  0  0  0  0  0  0
   37.1480   33.0920   39.9740 N   0  0  0  0  0  0  0  0  0  0  0  0
   37.9850   34.1550   39.9970 C   0  0  0  0  0  0  0  0  0  0  0  0
   39.0630   33.7570   40.6800 N   0  0  0  0  0  0  0  0  0  0  0  0
   38.9340   32.4870   41.0860 C   0  0  0  0  0  0  0  0  0  0  0  0
   39.8270   31.7180   41.8130 C   0  0  0  0  0  0  0  0  0  0  0  0
   40.1200   29.7470   42.6880 H   0  0  0  0  0  0  0  0  0  0  0  0
   36.2100   33.0680   39.5160 H   0  0  0  0  0  0  0  0  0  0  0  0
   37.7660   35.1270   39.5280 H   0  0  0  0  0  0  0  0  0  0  0  0
   40.7780   32.1100   42.1410 H   0  0  0  0  0  0  0  0  0  0  0  0
   37.8770   26.3080   41.4690 C   0  0  0  0  0  0  0  0  0  0  0  0
   37.0720   26.0130   42.5600 C   0  0  0  0  0  0  0  0  0  0  0  0
   36.6500   27.0670   43.3610 C   0  0  0  0  0  0  0  0  0  0  0  0
   37.0420   28.3400   43.0430 N   0  0  0  0  0  0  0  0  0  0  0  0
   37.8240   28.5860   41.9750 C   0  0  0  0  0  0  0  0  0  0  0  0
   38.2420   27.5820   41.1890 N   0  0  0  0  0  0  0  0  0  0  0  0
   38.1810   25.4520   40.8750 H   0  0  0  0  0  0  0  0  0  0  0  0
   36.7270   25.0510   42.8730 H   0  0  0  0  0  0  0  0  0  0  0  0
   36.0340   26.9880   44.2260 H   0  0  0  0  0  0  0  0  0  0  0  0
   35.7710   30.1490   40.3780 S   0  0  0  0  0  0  0  0  0  0  0  0
   35.3740   29.0060   35.1730 H   0  0  0  0  0  0  0  0  0  0  0  0
   35.5310   28.6100   36.1320 N   0  0  0  0  0  0  0  0  0  0  0  0
   36.7460   29.1760   36.6310 C   0  0  0  0  0  2  0  0  0  0  0  0
   36.4600   30.0460   37.8090 C   0  0  0  0  0  2  0  0  0  0  0  0
   35.8480   29.1570   38.8920 C   0  0  0  0  0  3  0  0  0  0  0  0
   34.5300   28.6680   38.3870 C   0  0  0  0  0  2  0  0  0  0  0  0
   34.3600   28.8930   36.9030 C   0  0  0  0  0  2  0  0  0  0  0  0
  1 10  1  0  0  0  0
  2 18  1  0  0  0  0
  2  1  2  0  0  0  0
  3  2  1  0  0  0  0
  4  3  2  0  0  0  0
  4  8  1  0  0  0  0
  5  6  1  0  0  0  0
  5  4  1  0  0  0  0
  6  7  2  0  0  0  0
  7  8  1  0  0  0  0
  8  9  2  0  0  0  0
  9  1  1  0  0  0  0
  9 13  1  0  0  0  0
 11  5  1  0  0  0  0
 12  6  1  0  0  0  0
 14 15  1  0  0  0  0
 15 21  1  0  0  0  0
 15 16  2  0  0  0  0
 16 22  1  0  0  0  0
 17 16  1  0  0  0  0
 18 17  2  0  0  0  0
 19 14  2  0  0  0  0
 19 18  1  0  0  0  0
 20 14  1  0  0  0  0
 23  3  1  0  0  0  0
 24 25  1  0  0  0  0
 25 26  1  0  0  0  0
 25 30  1  0  0  0  0
 26 27  1  0  0  0  0
 27 28  1  0  0  0  0
 28 23  1  0  0  0  0
 29 28  1  0  0  0  0
 30 29  1  0  0  0  0
M  END
>  <minimizedAffinity>
-5.74888468

$$$$

 OpenBabel03252509133D

 30 33  0  0  0  0  0  0  0  0999 V2000
   40.2590   29.8280   42.2610 C   0  0  0  0  0  0  0  0  0  0  0  0
   39.2590   30.5620   41.6150 C   0  0  0  0  0  0  0  0  0  0  0  0
   37.9220   30.2000   41.6280 C   0  0  0  0  0  0  0  0  0  0  0  0
   37.5440   29.0480   42.3160 C   0  0  0  0  0  0  0  0  0  0  0  0
   36.3790   28.4000   42.5450 N   0  0  0  0  0  0  0  0  0  0  0  0
   36.6150   27.3040   43.3010 C   0  0  0  0  0  0  0  0  0  0  0  0
   37.9330   27.2930   43.5280 N   0  0  0  0  0  0  0  0  0  0  0  0
   38.5300   28.3390   42.9440 C   0  0  0  0  0  0  0  0  0  0  0  0
   39.8730   28.6790   42.9460 C   0  0  0  0  0  0  0  0  0  0  0  0
   41.2990   30.1540   42.2210 H   0  0  0  0  0  0  0  0  0  0  0  0
   35.4450   28.7040   42.1920 H   0  0  0  0  0  0  0  0  0  0  0  0
   35.8360   26.5990   43.6320 H   0  0  0  0  0  0  0  0  0  0  0  0
   40.6100   28.0800   43.4610 H   0  0  0  0  0  0  0  0  0  0  0  0
   39.4630   34.0770   40.5730 C   0  0  0  0  0  0  0  0  0  0  0  0
   40.3680   34.0380   39.5220 C   0  0  0  0  0  0  0  0  0  0  0  0
   40.9060   32.8050   39.1740 C   0  0  0  0  0  0  0  0  0  0  0  0
   40.5250   31.6920   39.8750 N   0  0  0  0  0  0  0  0  0  0  0  0
   39.6440   31.7720   40.8890 C   0  0  0  0  0  0  0  0  0  0  0  0
   39.1120   32.9530   41.2410 N   0  0  0  0  0  0  0  0  0  0  0  0
   39.0700   35.0620   40.8080 H   0  0  0  0  0  0  0  0  0  0  0  0
   40.7140   34.8580   38.9300 H   0  0  0  0  0  0  0  0  0  0  0  0
   41.6090   32.6280   38.3930 H   0  0  0  0  0  0  0  0  0  0  0  0
   36.6750   31.1530   40.7960 S   0  0  0  0  0  0  0  0  0  0  0  0
   38.4570   29.8730   35.9230 H   0  0  0  0  0  0  0  0  0  0  0  0
   37.6620   30.2870   36.4680 N   0  0  0  0  0  0  0  0  0  0  0  0
   37.1450   29.2570   37.3150 C   0  0  0  0  0  2  0  0  0  0  0  0
   37.3760   29.6060   38.7470 C   0  0  0  0  0  2  0  0  0  0  0  0
   36.6150   30.9020   39.0260 C   0  0  0  0  0  3  0  0  0  0  0  0
   37.2460   31.9830   38.2120 C   0  0  0  0  0  2  0  0  0  0  0  0
   38.1680   31.4410   37.1450 C   0  0  0  0  0  2  0  0  0  0  0  0
  1  9  1  0  0  0  0
  2  3  1  0  0  0  0
  2  1  2  0  0  0  0
  3  4  2  0  0  0  0
  4  5  1  0  0  0  0
  4  8  1  0  0  0  0
  5  6  1  0  0  0  0
  6  7  2  0  0  0  0
  6 12  1  0  0  0  0
  8  9  2  0  0  0  0
  8  7  1  0  0  0  0
  9 13  1  0  0  0  0
 10  1  1  0  0  0  0
 11  5  1  0  0  0  0
 14 20  1  0  0  0  0
 14 19  1  0  0  0  0
 15 14  2  0  0  0  0
 16 15  1  0  0  0  0
 16 17  2  0  0  0  0
 17 18  1  0  0  0  0
 18 19  2  0  0  0  0
 18  2  1  0  0  0  0
 21 15  1  0  0  0  0
 22 16  1  0  0  0  0
 23  3  1  0  0  0  0
 24 25  1  0  0  0  0
 25 30  1  0  0  0  0
 25 26  1  0  0  0  0
 26 27  1  0  0  0  0
 27 28  1  0  0  0  0
 28 23  1  0  0  0  0
 29 28  1  0  0  0  0
 30 29  1  0  0  0  0
M  END
>  <minimizedAffinity>
-5.72733831

$$$$

 OpenBabel03252509133D

 30 33  0  0  0  0  0  0  0  0999 V2000
   37.2810   33.0220   39.7300 C   0  0  0  0  0  0  0  0  0  0  0  0
   37.6380   31.6690   39.7020 C   0  0  0  0  0  0  0  0  0  0  0  0
   38.9270   31.2180   39.9380 C   0  0  0  0  0  0  0  0  0  0  0  0
   39.9250   32.1500   40.2180 C   0  0  0  0  0  0  0  0  0  0  0  0
   41.2470   32.0930   40.4930 N   0  0  0  0  0  0  0  0  0  0  0  0
   41.7200   33.3450   40.6890 C   0  0  0  0  0  0  0  0  0  0  0  0
   40.6730   34.1610   40.5310 N   0  0  0  0  0  0  0  0  0  0  0  0
   39.5630   33.4690   40.2440 C   0  0  0  0  0  0  0  0  0  0  0  0
   38.2840   33.9460   40.0120 C   0  0  0  0  0  0  0  0  0  0  0  0
   36.2520   33.3270   39.5380 H   0  0  0  0  0  0  0  0  0  0  0  0
   41.8110   31.2160   40.5450 H   0  0  0  0  0  0  0  0  0  0  0  0
   42.7700   33.5820   40.9280 H   0  0  0  0  0  0  0  0  0  0  0  0
   38.0560   35.0010   40.0450 H   0  0  0  0  0  0  0  0  0  0  0  0
   34.8960   29.2680   40.1450 C   0  0  0  0  0  0  0  0  0  0  0  0
   34.6550   28.8300   38.8510 C   0  0  0  0  0  0  0  0  0  0  0  0
   35.4330   29.3590   37.8290 C   0  0  0  0  0  0  0  0  0  0  0  0
   36.3960   30.2830   38.1400 N   0  0  0  0  0  0  0  0  0  0  0  0
   36.5990   30.6820   39.4080 C   0  0  0  0  0  0  0  0  0  0  0  0
   35.8580   30.1830   40.4090 N   0  0  0  0  0  0  0  0  0  0  0  0
   34.2620   28.8260   40.9080 H   0  0  0  0  0  0  0  0  0  0  0  0
   33.9250   28.1170   38.5300 H   0  0  0  0  0  0  0  0  0  0  0  0
   35.3580   29.1160   36.7950 H   0  0  0  0  0  0  0  0  0  0  0  0
   39.3490   29.4930   39.8940 S   0  0  0  0  0  0  0  0  0  0  0  0
   36.9470   27.0940   44.0210 H   0  0  0  0  0  0  0  0  0  0  0  0
   37.8520   27.4790   43.6570 N   0  0  0  0  0  0  0  0  0  0  0  0
   38.2140   26.7010   42.5130 C   0  0  0  0  0  2  0  0  0  0  0  0
   38.1790   27.5490   41.2840 C   0  0  0  0  0  2  0  0  0  0  0  0
   39.2090   28.6620   41.4710 C   0  0  0  0  0  3  0  0  0  0  0  0
   38.7490   29.5220   42.6020 C   0  0  0  0  0  2  0  0  0  0  0  0
   37.6510   28.8740   43.4120 C   0  0  0  0  0  2  0  0  0  0  0  0
  1  9  1  0  0  0  0
  2  1  2  0  0  0  0
  2  3  1  0  0  0  0
  3  4  2  0  0  0  0
  4  8  1  0  0  0  0
  4  5  1  0  0  0  0
  5 11  1  0  0  0  0
  5  6  1  0  0  0  0
  6 12  1  0  0  0  0
  7  6  2  0  0  0  0
  8  7  1  0  0  0  0
  9 13  1  0  0  0  0
  9  8  2  0  0  0  0
 10  1  1  0  0  0  0
 14 19  1  0  0  0  0
 14 20  1  0  0  0  0
 15 14  2  0  0  0  0
 16 17  2  0  0  0  0
 16 15  1  0  0  0  0
 17 18  1  0  0  0  0
 18  2  1  0  0  0  0
 18 19  2  0  0  0  0
 21 15  1  0  0  0  0
 22 16  1  0  0  0  0
 23  3  1  0  0  0  0
 23 28  1  0  0  0  0
 25 24  1  0  0  0  0
 26 25  1  0  0  0  0
 27 28  1  0  0  0  0
 27 26  1  0  0  0  0
 28 29  1  0  0  0  0
 29 30  1  0  0  0  0
 30 25  1  0  0  0  0
M  END
>  <minimizedAffinity>
-5.65191603

$$$$

 OpenBabel03252509133D

 30 33  0  0  0  0  0  0  0  0999 V2000
   36.6460   26.5160   39.4100 C   0  0  0  0  0  0  0  0  0  0  0  0
   36.3900   27.8820   39.2520 C   0  0  0  0  0  0  0  0  0  0  0  0
   36.4590   28.7940   40.2930 C   0  0  0  0  0  0  0  0  0  0  0  0
   36.7990   28.3380   41.5650 C   0  0  0  0  0  0  0  0  0  0  0  0
   36.9620   28.9060   42.7820 N   0  0  0  0  0  0  0  0  0  0  0  0
   37.3060   27.9540   43.6800 C   0  0  0  0  0  0  0  0  0  0  0  0
   37.3500   26.8060   42.9970 N   0  0  0  0  0  0  0  0  0  0  0  0
   37.0470   27.0010   41.7070 C   0  0  0  0  0  0  0  0  0  0  0  0
   36.9850   26.0690   40.6850 C   0  0  0  0  0  0  0  0  0  0  0  0
   36.5780   25.8370   38.5600 H   0  0  0  0  0  0  0  0  0  0  0  0
   36.8400   29.9210   42.9890 H   0  0  0  0  0  0  0  0  0  0  0  0
   37.4980   28.1490   44.7470 H   0  0  0  0  0  0  0  0  0  0  0  0
   37.1920   25.0230   40.8560 H   0  0  0  0  0  0  0  0  0  0  0  0
   34.4050   28.8160   36.3070 C   0  0  0  0  0  0  0  0  0  0  0  0
   35.3640   29.2910   35.4250 C   0  0  0  0  0  0  0  0  0  0  0  0
   36.6890   29.2920   35.8420 C   0  0  0  0  0  0  0  0  0  0  0  0
   36.9900   28.8260   37.0940 N   0  0  0  0  0  0  0  0  0  0  0  0
   36.0310   28.3730   37.9210 C   0  0  0  0  0  0  0  0  0  0  0  0
   34.7450   28.3640   37.5380 N   0  0  0  0  0  0  0  0  0  0  0  0
   33.3850   28.8370   35.9360 H   0  0  0  0  0  0  0  0  0  0  0  0
   35.2090   29.6700   34.4370 H   0  0  0  0  0  0  0  0  0  0  0  0
   37.5240   29.6270   35.2720 H   0  0  0  0  0  0  0  0  0  0  0  0
   36.1270   30.5240   40.0590 S   0  0  0  0  0  0  0  0  0  0  0  0
   39.7530   34.1710   38.6060 H   0  0  0  0  0  0  0  0  0  0  0  0
   39.4940   33.4530   39.3260 N   0  0  0  0  0  0  0  0  0  0  0  0
   38.2770   33.8860   39.9380 C   0  0  0  0  0  2  0  0  0  0  0  0
   37.1750   32.9310   39.6200 C   0  0  0  0  0  2  0  0  0  0  0  0
   37.5670   31.5750   40.2060 C   0  0  0  0  0  3  0  0  0  0  0  0
   38.7770   31.0960   39.4730 C   0  0  0  0  0  2  0  0  0  0  0  0
   39.4310   32.1890   38.6600 C   0  0  0  0  0  2  0  0  0  0  0  0
  1  9  1  0  0  0  0
  2  1  2  0  0  0  0
  2  3  1  0  0  0  0
  3  4  2  0  0  0  0
  4  8  1  0  0  0  0
  4  5  1  0  0  0  0
  5 11  1  0  0  0  0
  5  6  1  0  0  0  0
  6 12  1  0  0  0  0
  7  6  2  0  0  0  0
  8  7  1  0  0  0  0
  9 13  1  0  0  0  0
  9  8  2  0  0  0  0
 10  1  1  0  0  0  0
 14 19  1  0  0  0  0
 15 16  1  0  0  0  0
 15 14  2  0  0  0  0
 16 17  2  0  0  0  0
 17 18  1  0  0  0  0
 18  2  1  0  0  0  0
 19 18  2  0  0  0  0
 20 14  1  0  0  0  0
 21 15  1  0  0  0  0
 22 16  1  0  0  0  0
 23 28  1  0  0  0  0
 23  3  1  0  0  0  0
 24 25  1  0  0  0  0
 25 26  1  0  0  0  0
 27 26  1  0  0  0  0
 27 28  1  0  0  0  0
 29 28  1  0  0  0  0
 30 25  1  0  0  0  0
 30 29  1  0  0  0  0
M  END
>  <minimizedAffinity>
-5.41594791

$$$$

 OpenBabel03252509133D

 30 33  0  0  0  0  0  0  0  0999 V2000
   37.1800   30.2310   37.0010 C   0  0  0  0  0  0  0  0  0  0  0  0
   36.6050   29.5780   38.0970 C   0  0  0  0  0  0  0  0  0  0  0  0
   36.4780   30.1600   39.3480 C   0  0  0  0  0  0  0  0  0  0  0  0
   36.9420   31.4610   39.5340 C   0  0  0  0  0  0  0  0  0  0  0  0
   36.9880   32.3300   40.5700 N   0  0  0  0  0  0  0  0  0  0  0  0
   37.5630   33.4840   40.1630 C   0  0  0  0  0  0  0  0  0  0  0  0
   37.8640   33.3090   38.8720 N   0  0  0  0  0  0  0  0  0  0  0  0
   37.5000   32.0890   38.4550 C   0  0  0  0  0  0  0  0  0  0  0  0
   37.6400   31.5300   37.1960 C   0  0  0  0  0  0  0  0  0  0  0  0
   37.2580   29.7290   36.0360 H   0  0  0  0  0  0  0  0  0  0  0  0
   36.6340   32.1330   41.5320 H   0  0  0  0  0  0  0  0  0  0  0  0
   37.7240   34.3600   40.8130 H   0  0  0  0  0  0  0  0  0  0  0  0
   38.0900   32.0750   36.3790 H   0  0  0  0  0  0  0  0  0  0  0  0
   34.4160   26.7480   37.2710 C   0  0  0  0  0  0  0  0  0  0  0  0
   35.2020   25.6470   37.5740 C   0  0  0  0  0  0  0  0  0  0  0  0
   36.4830   25.8780   38.0610 C   0  0  0  0  0  0  0  0  0  0  0  0
   36.9100   27.1700   38.2200 N   0  0  0  0  0  0  0  0  0  0  0  0
   36.1160   28.2110   37.9140 C   0  0  0  0  0  0  0  0  0  0  0  0
   34.8760   28.0100   37.4420 N   0  0  0  0  0  0  0  0  0  0  0  0
   33.4240   26.5170   36.8930 H   0  0  0  0  0  0  0  0  0  0  0  0
   34.9430   24.6150   37.4780 H   0  0  0  0  0  0  0  0  0  0  0  0
   37.1930   25.1320   38.3340 H   0  0  0  0  0  0  0  0  0  0  0  0
   35.7450   29.3040   40.7200 S   0  0  0  0  0  0  0  0  0  0  0  0
   39.8050   26.7740   43.1030 H   0  0  0  0  0  0  0  0  0  0  0  0
   39.0040   27.4370   43.2410 N   0  0  0  0  0  0  0  0  0  0  0  0
   39.2730   28.5980   42.4510 C   0  0  0  0  0  2  0  0  0  0  0  0
   38.2620   28.7220   41.3600 C   0  0  0  0  0  2  0  0  0  0  0  0
   36.8950   28.8830   42.0240 C   0  0  0  0  0  3  0  0  0  0  0  0
   36.5910   27.6140   42.7510 C   0  0  0  0  0  2  0  0  0  0  0  0
   37.8070   26.7300   42.9050 C   0  0  0  0  0  2  0  0  0  0  0  0
  1  9  2  0  0  0  0
  1  2  1  0  0  0  0
  2  3  2  0  0  0  0
  3  4  1  0  0  0  0
  3 23  1  0  0  0  0
  4  5  1  0  0  0  0
  5 11  1  0  0  0  0
  6  5  1  0  0  0  0
  6 12  1  0  0  0  0
  7  6  2  0  0  0  0
  8  7  1  0  0  0  0
  8  4  2  0  0  0  0
  9  8  1  0  0  0  0
 10  1  1  0  0  0  0
 13  9  1  0  0  0  0
 14 19  2  0  0  0  0
 14 15  1  0  0  0  0
 15 16  2  0  0  0  0
 16 17  1  0  0  0  0
 16 22  1  0  0  0  0
 18  2  1  0  0  0  0
 18 17  2  0  0  0  0
 19 18  1  0  0  0  0
 20 14  1  0  0  0  0
 21 15  1  0  0  0  0
 23 28  1  0  0  0  0
 24 25  1  0  0  0  0
 26 25  1  0  0  0  0
 27 28  1  0  0  0  0
 27 26  1  0  0  0  0
 28 29  1  0  0  0  0
 29 30  1  0  0  0  0
 30 25  1  0  0  0  0
M  END
>  <minimizedAffinity>
-5.20642567

$$$$

 OpenBabel03252509133D

 30 33  0  0  0  0  0  0  0  0999 V2000
   35.0620   28.3070   38.5470 C   0  0  0  0  0  0  0  0  0  0  0  0
   36.3520   28.8180   38.7250 C   0  0  0  0  0  0  0  0  0  0  0  0
   37.0870   29.3990   37.7050 C   0  0  0  0  0  0  0  0  0  0  0  0
   36.5210   29.4850   36.4330 C   0  0  0  0  0  0  0  0  0  0  0  0
   36.9150   29.9670   35.2330 N   0  0  0  0  0  0  0  0  0  0  0  0
   35.9300   29.7780   34.3260 C   0  0  0  0  0  0  0  0  0  0  0  0
   34.9350   29.1770   34.9880 N   0  0  0  0  0  0  0  0  0  0  0  0
   35.2600   28.9830   36.2720 C   0  0  0  0  0  0  0  0  0  0  0  0
   34.5040   28.3970   37.2750 C   0  0  0  0  0  0  0  0  0  0  0  0
   34.5240   27.8580   39.3830 H   0  0  0  0  0  0  0  0  0  0  0  0
   37.8390   30.4150   35.0420 H   0  0  0  0  0  0  0  0  0  0  0  0
   35.9930   30.0800   33.2690 H   0  0  0  0  0  0  0  0  0  0  0  0
   33.5100   28.0170   37.0890 H   0  0  0  0  0  0  0  0  0  0  0  0
   37.4010   29.6980   42.1320 C   0  0  0  0  0  0  0  0  0  0  0  0
   38.0930   28.5690   42.5450 C   0  0  0  0  0  0  0  0  0  0  0  0
   38.1980   27.5080   41.6550 C   0  0  0  0  0  0  0  0  0  0  0  0
   37.6190   27.6200   40.4180 N   0  0  0  0  0  0  0  0  0  0  0  0
   36.9560   28.7330   40.0550 C   0  0  0  0  0  0  0  0  0  0  0  0
   36.8440   29.7690   40.9000 N   0  0  0  0  0  0  0  0  0  0  0  0
   37.3460   30.4990   42.8640 H   0  0  0  0  0  0  0  0  0  0  0  0
   38.5690   28.4060   43.4890 H   0  0  0  0  0  0  0  0  0  0  0  0
   38.6970   26.5850   41.8370 H   0  0  0  0  0  0  0  0  0  0  0  0
   38.7250   30.0380   37.9620 S   0  0  0  0  0  0  0  0  0  0  0  0
   38.4980   34.5750   40.7770 H   0  0  0  0  0  0  0  0  0  0  0  0
   38.5660   34.1610   39.8150 N   0  0  0  0  0  0  0  0  0  0  0  0
   39.8010   33.4420   39.7500 C   0  0  0  0  0  2  0  0  0  0  0  0
   39.5360   31.9820   39.5890 C   0  0  0  0  0  2  0  0  0  0  0  0
   38.7870   31.7990   38.2690 C   0  0  0  0  0  3  0  0  0  0  0  0
   37.4580   32.4650   38.4050 C   0  0  0  0  0  2  0  0  0  0  0  0
   37.3880   33.3770   39.6080 C   0  0  0  0  0  2  0  0  0  0  0  0
  1  2  1  0  0  0  0
  1 10  1  0  0  0  0
  2 18  1  0  0  0  0
  3 23  1  0  0  0  0
  3  2  2  0  0  0  0
  4  3  1  0  0  0  0
  5  4  1  0  0  0  0
  6  7  2  0  0  0  0
  6  5  1  0  0  0  0
  7  8  1  0  0  0  0
  8  4  2  0  0  0  0
  8  9  1  0  0  0  0
  9  1  2  0  0  0  0
 11  5  1  0  0  0  0
 12  6  1  0  0  0  0
 13  9  1  0  0  0  0
 14 15  1  0  0  0  0
 14 20  1  0  0  0  0
 15 21  1  0  0  0  0
 16 22  1  0  0  0  0
 16 15  2  0  0  0  0
 17 16  1  0  0  0  0
 18 17  2  0  0  0  0
 18 19  1  0  0  0  0
 19 14  2  0  0  0  0
 23 28  1  0  0  0  0
 25 24  1  0  0  0  0
 26 25  1  0  0  0  0
 27 26  1  0  0  0  0
 28 29  1  0  0  0  0
 28 27  1  0  0  0  0
 29 30  1  0  0  0  0
 30 25  1  0  0  0  0
M  END
>  <minimizedAffinity>
-5.19133186

$$$$

 OpenBabel03252509133D

 30 33  0  0  0  0  0  0  0  0999 V2000
   38.7490   30.8200   37.7000 C   0  0  0  0  0  0  0  0  0  0  0  0
   37.8010   30.4670   38.6660 C   0  0  0  0  0  0  0  0  0  0  0  0
   37.5960   31.1910   39.8300 C   0  0  0  0  0  0  0  0  0  0  0  0
   38.3690   32.3290   40.0580 C   0  0  0  0  0  0  0  0  0  0  0  0
   38.4530   33.2560   41.0390 N   0  0  0  0  0  0  0  0  0  0  0  0
   39.4070   34.1610   40.7220 C   0  0  0  0  0  0  0  0  0  0  0  0
   39.9000   33.7740   39.5400 N   0  0  0  0  0  0  0  0  0  0  0  0
   39.2920   32.6630   39.1060 C   0  0  0  0  0  0  0  0  0  0  0  0
   39.5160   31.9580   37.9360 C   0  0  0  0  0  0  0  0  0  0  0  0
   38.8730   30.2170   36.8000 H   0  0  0  0  0  0  0  0  0  0  0  0
   37.8700   33.2670   41.9050 H   0  0  0  0  0  0  0  0  0  0  0  0
   39.6790   35.0230   41.3520 H   0  0  0  0  0  0  0  0  0  0  0  0
   40.2610   32.2690   37.2180 H   0  0  0  0  0  0  0  0  0  0  0  0
   36.7750   26.9510   38.4100 C   0  0  0  0  0  0  0  0  0  0  0  0
   35.4520   27.0420   38.0060 C   0  0  0  0  0  0  0  0  0  0  0  0
   34.9130   28.3100   37.8230 C   0  0  0  0  0  0  0  0  0  0  0  0
   35.7050   29.4050   38.0460 N   0  0  0  0  0  0  0  0  0  0  0  0
   36.9850   29.2750   38.4380 C   0  0  0  0  0  0  0  0  0  0  0  0
   37.5240   28.0590   38.6200 N   0  0  0  0  0  0  0  0  0  0  0  0
   37.1500   25.9400   38.5400 H   0  0  0  0  0  0  0  0  0  0  0  0
   34.7730   26.2390   37.8130 H   0  0  0  0  0  0  0  0  0  0  0  0
   33.9170   28.5280   37.5170 H   0  0  0  0  0  0  0  0  0  0  0  0
   36.3840   30.7180   41.0390 S   0  0  0  0  0  0  0  0  0  0  0  0
   39.1900   26.5420   42.8420 H   0  0  0  0  0  0  0  0  0  0  0  0
   38.4120   27.2140   43.0550 N   0  0  0  0  0  0  0  0  0  0  0  0
   38.9870   28.5210   43.1220 C   0  0  0  0  0  2  0  0  0  0  0  0
   38.4630   29.3700   42.0120 C   0  0  0  0  0  2  0  0  0  0  0  0
   36.9510   29.4840   42.2040 C   0  0  0  0  0  3  0  0  0  0  0  0
   36.3650   28.1230   42.0190 C   0  0  0  0  0  2  0  0  0  0  0  0
   37.4120   27.0340   42.0480 C   0  0  0  0  0  2  0  0  0  0  0  0
  1  9  2  0  0  0  0
  1  2  1  0  0  0  0
  2  3  2  0  0  0  0
  3  4  1  0  0  0  0
  3 23  1  0  0  0  0
  4  5  1  0  0  0  0
  5 11  1  0  0  0  0
  6  5  1  0  0  0  0
  6 12  1  0  0  0  0
  7  6  2  0  0  0  0
  8  7  1  0  0  0  0
  8  4  2  0  0  0  0
  9  8  1  0  0  0  0
 10  1  1  0  0  0  0
 13  9  1  0  0  0  0
 14 20  1  0  0  0  0
 14 19  1  0  0  0  0
 15 14  2  0  0  0  0
 16 15  1  0  0  0  0
 16 17  2  0  0  0  0
 17 18  1  0  0  0  0
 18 19  2  0  0  0  0
 18  2  1  0  0  0  0
 21 15  1  0  0  0  0
 22 16  1  0  0  0  0
 23 28  1  0  0  0  0
 24 25  1  0  0  0  0
 25 26  1  0  0  0  0
 27 28  1  0  0  0  0
 27 26  1  0  0  0  0
 29 30  1  0  0  0  0
 29 28  1  0  0  0  0
 30 25  1  0  0  0  0
M  END
>  <minimizedAffinity>
-5.11952162

$$$$

 OpenBabel03252509133D

 30 33  0  0  0  0  0  0  0  0999 V2000
   37.2620   30.5760   36.7400 C   0  0  0  0  0  0  0  0  0  0  0  0
   36.9390   30.5750   38.1010 C   0  0  0  0  0  0  0  0  0  0  0  0
   35.9760   29.7450   38.6530 C   0  0  0  0  0  0  0  0  0  0  0  0
   35.2900   28.8630   37.8190 C   0  0  0  0  0  0  0  0  0  0  0  0
   34.3220   27.9350   37.9870 N   0  0  0  0  0  0  0  0  0  0  0  0
   34.0350   27.3650   36.7940 C   0  0  0  0  0  0  0  0  0  0  0  0
   34.8380   27.9560   35.9030 N   0  0  0  0  0  0  0  0  0  0  0  0
   35.6150   28.8730   36.4920 C   0  0  0  0  0  0  0  0  0  0  0  0
   36.5720   29.6910   35.9140 C   0  0  0  0  0  0  0  0  0  0  0  0
   38.0280   31.2490   36.3530 H   0  0  0  0  0  0  0  0  0  0  0  0
   33.8700   27.6980   38.8970 H   0  0  0  0  0  0  0  0  0  0  0  0
   33.2790   26.5760   36.6500 H   0  0  0  0  0  0  0  0  0  0  0  0
   36.7880   29.6550   34.8570 H   0  0  0  0  0  0  0  0  0  0  0  0
   37.7980   33.5770   40.0340 C   0  0  0  0  0  0  0  0  0  0  0  0
   38.9920   33.2230   40.6430 C   0  0  0  0  0  0  0  0  0  0  0  0
   39.5010   31.9550   40.3900 C   0  0  0  0  0  0  0  0  0  0  0  0
   38.8070   31.1160   39.5570 N   0  0  0  0  0  0  0  0  0  0  0  0
   37.6510   31.4970   38.9850 C   0  0  0  0  0  0  0  0  0  0  0  0
   37.1430   32.7180   39.2170 N   0  0  0  0  0  0  0  0  0  0  0  0
   37.4410   34.5770   40.2630 H   0  0  0  0  0  0  0  0  0  0  0  0
   39.5880   33.8170   41.3020 H   0  0  0  0  0  0  0  0  0  0  0  0
   40.4020   31.5510   40.7880 H   0  0  0  0  0  0  0  0  0  0  0  0
   35.5870   29.7690   40.3860 S   0  0  0  0  0  0  0  0  0  0  0  0
   39.8740   27.9170   42.9860 H   0  0  0  0  0  0  0  0  0  0  0  0
   38.9030   27.6930   42.6560 N   0  0  0  0  0  0  0  0  0  0  0  0
   38.0090   28.5820   43.3300 C   0  0  0  0  0  2  0  0  0  0  0  0
   37.3660   29.5040   42.3490 C   0  0  0  0  0  2  0  0  0  0  0  0
   36.5640   28.6420   41.3740 C   0  0  0  0  0  3  0  0  0  0  0  0
   37.5330   27.8040   40.6070 C   0  0  0  0  0  2  0  0  0  0  0  0
   38.9090   27.7940   41.2290 C   0  0  0  0  0  2  0  0  0  0  0  0
  1  2  1  0  0  0  0
  2  3  2  0  0  0  0
  2 18  1  0  0  0  0
  3 23  1  0  0  0  0
  4  5  1  0  0  0  0
  4  3  1  0  0  0  0
  5 11  1  0  0  0  0
  6  5  1  0  0  0  0
  7  8  1  0  0  0  0
  7  6  2  0  0  0  0
  8  4  2  0  0  0  0
  9  8  1  0  0  0  0
  9  1  2  0  0  0  0
 10  1  1  0  0  0  0
 12  6  1  0  0  0  0
 13  9  1  0  0  0  0
 14 20  1  0  0  0  0
 14 15  1  0  0  0  0
 15 21  1  0  0  0  0
 16 15  2  0  0  0  0
 16 22  1  0  0  0  0
 17 16  1  0  0  0  0
 18 19  1  0  0  0  0
 18 17  2  0  0  0  0
 19 14  2  0  0  0  0
 23 28  1  0  0  0  0
 25 24  1  0  0  0  0
 25 26  1  0  0  0  0
 27 26  1  0  0  0  0
 28 27  1  0  0  0  0
 29 30  1  0  0  0  0
 29 28  1  0  0  0  0
 30 25  1  0  0  0  0
M  END
>  <minimizedAffinity>
-5.05656958

$$$$

 OpenBabel03252509133D

 30 33  0  0  0  0  0  0  0  0999 V2000
   34.5620   28.2250   38.2590 C   0  0  0  0  0  0  0  0  0  0  0  0
   35.8950   28.4870   38.5940 C   0  0  0  0  0  0  0  0  0  0  0  0
   36.8050   29.0460   37.7110 C   0  0  0  0  0  0  0  0  0  0  0  0
   36.3800   29.3690   36.4230 C   0  0  0  0  0  0  0  0  0  0  0  0
   36.9550   29.9100   35.3250 N   0  0  0  0  0  0  0  0  0  0  0  0
   36.0400   29.9930   34.3320 C   0  0  0  0  0  0  0  0  0  0  0  0
   34.9050   29.5000   34.8390 N   0  0  0  0  0  0  0  0  0  0  0  0
   35.0750   29.1100   36.1080 C   0  0  0  0  0  0  0  0  0  0  0  0
   34.1460   28.5510   36.9710 C   0  0  0  0  0  0  0  0  0  0  0  0
   33.8840   27.7830   38.9900 H   0  0  0  0  0  0  0  0  0  0  0  0
   37.9520   30.2130   35.2590 H   0  0  0  0  0  0  0  0  0  0  0  0
   36.2490   30.3980   33.3290 H   0  0  0  0  0  0  0  0  0  0  0  0
   33.1260   28.3690   36.6670 H   0  0  0  0  0  0  0  0  0  0  0  0
   37.2490   26.6030   41.4400 C   0  0  0  0  0  0  0  0  0  0  0  0
   37.2070   27.5270   42.4730 C   0  0  0  0  0  0  0  0  0  0  0  0
   36.7140   28.7950   42.1910 C   0  0  0  0  0  0  0  0  0  0  0  0
   36.2950   29.0760   40.9170 N   0  0  0  0  0  0  0  0  0  0  0  0
   36.3520   28.1510   39.9420 C   0  0  0  0  0  0  0  0  0  0  0  0
   36.8250   26.9200   40.1940 N   0  0  0  0  0  0  0  0  0  0  0  0
   37.6420   25.6260   41.7090 H   0  0  0  0  0  0  0  0  0  0  0  0
   37.5150   27.3850   43.4870 H   0  0  0  0  0  0  0  0  0  0  0  0
   36.6250   29.6000   42.8830 H   0  0  0  0  0  0  0  0  0  0  0  0
   38.4920   29.3650   38.1650 S   0  0  0  0  0  0  0  0  0  0  0  0
   39.1030   34.5760   39.1800 H   0  0  0  0  0  0  0  0  0  0  0  0
   39.1260   33.6110   39.5900 N   0  0  0  0  0  0  0  0  0  0  0  0
   37.8060   33.0710   39.4810 C   0  0  0  0  0  2  0  0  0  0  0  0
   37.8030   31.9070   38.5470 C   0  0  0  0  0  2  0  0  0  0  0  0
   38.7230   30.8430   39.1450 C   0  0  0  0  0  3  0  0  0  0  0  0
   40.1120   31.3920   39.1440 C   0  0  0  0  0  2  0  0  0  0  0  0
   40.1450   32.8830   38.8980 C   0  0  0  0  0  2  0  0  0  0  0  0
  1  2  1  0  0  0  0
  1 10  1  0  0  0  0
  2 18  1  0  0  0  0
  3 23  1  0  0  0  0
  3  2  2  0  0  0  0
  4  3  1  0  0  0  0
  5  4  1  0  0  0  0
  6  7  2  0  0  0  0
  6  5  1  0  0  0  0
  7  8  1  0  0  0  0
  8  4  2  0  0  0  0
  8  9  1  0  0  0  0
  9  1  2  0  0  0  0
 11  5  1  0  0  0  0
 12  6  1  0  0  0  0
 13  9  1  0  0  0  0
 14 20  1  0  0  0  0
 14 15  1  0  0  0  0
 15 21  1  0  0  0  0
 16 15  2  0  0  0  0
 16 22  1  0  0  0  0
 17 16  1  0  0  0  0
 18 19  1  0  0  0  0
 18 17  2  0  0  0  0
 19 14  2  0  0  0  0
 23 28  1  0  0  0  0
 24 25  1  0  0  0  0
 26 25  1  0  0  0  0
 27 28  1  0  0  0  0
 27 26  1  0  0  0  0
 29 28  1  0  0  0  0
 30 29  1  0  0  0  0
 30 25  1  0  0  0  0
M  END
>  <minimizedAffinity>
-5.03445101

$$$$
