
 OpenBabel03252509003D

 43 45  0  0  1  0  0  0  0  0999 V2000
   47.2280   33.7740   42.9020 N   0  0  0  0  0  0  0  0  0  0  0  0
   46.9170   35.1090   42.5150 C   0  0  0  0  0  0  0  0  0  0  0  0
   45.4990   35.5470   42.8190 C   0  0  0  0  0  0  0  0  0  0  0  0
   44.9230   34.9600   44.0690 C   0  0  0  0  0  0  0  0  0  0  0  0
   45.9210   34.0970   44.8000 C   0  0  0  0  0  0  0  0  0  0  0  0
   46.3680   33.0550   43.7150 C   0  0  2  0  0  0  0  0  0  0  0  0
   47.5770   35.7940   43.1240 H   0  0  0  0  0  0  0  0  0  0  0  0
   47.1230   35.3720   41.4730 H   0  0  0  0  0  0  0  0  0  0  0  0
   44.8710   35.1520   41.9810 H   0  0  0  0  0  0  0  0  0  0  0  0
   45.4500   36.6400   42.7680 H   0  0  0  0  0  0  0  0  0  0  0  0
   44.7230   35.8310   44.7560 H   0  0  0  0  0  0  0  0  0  0  0  0
   43.9780   34.4260   43.9500 H   0  0  0  0  0  0  0  0  0  0  0  0
   45.4500   33.5220   45.5960 H   0  0  0  0  0  0  0  0  0  0  0  0
   46.8200   34.6780   45.0910 H   0  0  0  0  0  0  0  0  0  0  0  0
   45.4210   32.6790   43.3010 H   0  0  0  0  0  0  0  0  0  0  0  0
   48.0580   33.0770   41.9720 C   0  0  0  0  0  0  0  0  0  0  0  0
   48.5460   32.2050   42.4400 H   0  0  0  0  0  0  0  0  0  0  0  0
   48.8480   33.7650   41.6190 H   0  0  0  0  0  0  0  0  0  0  0  0
   47.2120   32.5960   40.8320 C   0  0  0  0  0  0  0  0  0  0  0  0
   47.0150   31.5170   40.8810 H   0  0  0  0  0  0  0  0  0  0  0  0
   46.1960   33.0790   40.8210 H   0  0  0  0  0  0  0  0  0  0  0  0
   49.3170   32.3090   37.7360 C   0  0  0  0  0  0  0  0  0  0  0  0
   48.6880   31.9960   38.9510 C   0  0  0  0  0  0  0  0  0  0  0  0
   47.8720   32.9310   39.5510 C   0  0  0  0  0  0  0  0  0  0  0  0
   47.7150   34.1190   38.9310 N   0  0  0  0  0  0  0  0  0  0  0  0
   48.3280   34.4020   37.7630 C   0  0  0  0  0  0  0  0  0  0  0  0
   49.1280   33.5110   37.1550 N   0  0  0  0  0  0  0  0  0  0  0  0
   49.9640   31.6140   37.2250 H   0  0  0  0  0  0  0  0  0  0  0  0
   48.8900   31.0210   39.3440 H   0  0  0  0  0  0  0  0  0  0  0  0
   48.0740   35.4090   37.4270 H   0  0  0  0  0  0  0  0  0  0  0  0
   47.0510   32.1240   44.4810 O   0  0  0  0  0  0  0  0  0  0  0  0
   45.0180   30.5520   43.8140 O   0  0  0  0  0  0  0  0  0  0  0  0
   46.1330   30.7630   44.8440 P   0  0  2  0  0  0  0  0  0  0  0  0
   45.3180   31.1130   46.3070 O   0  0  0  0  0  0  0  0  0  0  0  0
   46.0010   31.0600   47.0360 H   0  0  0  0  0  0  0  0  0  0  0  0
   47.0430   29.3940   45.0870 O   0  0  0  0  0  0  0  0  0  0  0  0
   50.0770   29.5950   40.9670 H   0  0  0  0  0  0  0  0  0  0  0  0
   49.4540   29.7760   41.7610 N   0  0  0  0  0  0  0  0  0  0  0  0
   50.0540   29.3830   43.0050 C   0  0  0  0  0  2  0  0  0  0  0  0
   49.1440   29.8710   44.1200 C   0  0  0  0  0  2  0  0  0  0  0  0
   47.8710   29.0450   44.0420 C   0  0  0  0  0  3  0  0  0  0  0  0
   47.2400   29.3480   42.7000 C   0  0  0  0  0  2  0  0  0  0  0  0
   48.2130   29.0730   41.5930 C   0  0  0  0  0  2  0  0  0  0  0  0
  1  6  1  0  0  0  0
  2  3  1  0  0  0  0
  2  1  1  0  0  0  0
  2  7  1  0  0  0  0
  3  4  1  0  0  0  0
  4 11  1  0  0  0  0
  4  5  1  0  0  0  0
  5 14  1  0  0  0  0
  5 13  1  0  0  0  0
  6 15  1  6  0  0  0
  6 31  1  0  0  0  0
  6  5  1  0  0  0  0
  8  2  1  0  0  0  0
  9  3  1  0  0  0  0
 10  3  1  0  0  0  0
 12  4  1  0  0  0  0
 16 17  1  0  0  0  0
 16  1  1  0  0  0  0
 18 16  1  0  0  0  0
 19 20  1  0  0  0  0
 19 16  1  0  0  0  0
 21 19  1  0  0  0  0
 22 23  1  0  0  0  0
 23 29  1  0  0  0  0
 23 24  2  0  0  0  0
 24 19  1  0  0  0  0
 25 24  1  0  0  0  0
 26 25  2  0  0  0  0
 27 22  2  0  0  0  0
 27 26  1  0  0  0  0
 28 22  1  0  0  0  0
 30 26  1  0  0  0  0
 31 33  1  0  0  0  0
 33 32  2  6  0  0  0
 33 36  1  0  0  0  0
 33 34  1  0  0  0  0
 34 35  1  0  0  0  0
 37 38  1  0  0  0  0
 38 39  1  0  0  0  0
 39 40  1  0  0  0  0
 41 40  1  0  0  0  0
 41 36  1  0  0  0  0
 42 41  1  0  0  0  0
 43 38  1  0  0  0  0
 43 42  1  0  0  0  0
M  END
>  <minimizedAffinity>
-3.75309849

>  <minimizedRMSD>
0.749810398

$$$$
