
 OpenBabel03252509123D

 30 33  0  0  0  0  0  0  0  0999 V2000
   47.8750   30.5940   44.8100 C   0  0  0  0  0  0  0  0  0  0  0  0
   47.5840   31.7540   44.0840 C   0  0  0  0  0  0  0  0  0  0  0  0
   46.7810   32.7740   44.5700 C   0  0  0  0  0  0  0  0  0  0  0  0
   46.2310   32.6470   45.8450 C   0  0  0  0  0  0  0  0  0  0  0  0
   45.4310   33.4030   46.6300 N   0  0  0  0  0  0  0  0  0  0  0  0
   45.2160   32.7640   47.8020 C   0  0  0  0  0  0  0  0  0  0  0  0
   45.8940   31.6140   47.7210 N   0  0  0  0  0  0  0  0  0  0  0  0
   46.5230   31.5090   46.5440 C   0  0  0  0  0  0  0  0  0  0  0  0
   47.3220   30.4760   46.0830 C   0  0  0  0  0  0  0  0  0  0  0  0
   48.5130   29.8190   44.3840 H   0  0  0  0  0  0  0  0  0  0  0  0
   45.0420   34.3350   46.3660 H   0  0  0  0  0  0  0  0  0  0  0  0
   44.5970   33.1630   48.6210 H   0  0  0  0  0  0  0  0  0  0  0  0
   47.5190   29.5980   46.6810 H   0  0  0  0  0  0  0  0  0  0  0  0
   48.0290   31.5080   40.4480 C   0  0  0  0  0  0  0  0  0  0  0  0
   49.2300   32.1690   40.2360 C   0  0  0  0  0  0  0  0  0  0  0  0
   49.8840   32.6990   41.3420 C   0  0  0  0  0  0  0  0  0  0  0  0
   49.3220   32.5470   42.5810 N   0  0  0  0  0  0  0  0  0  0  0  0
   48.1550   31.8980   42.7450 C   0  0  0  0  0  0  0  0  0  0  0  0
   47.5070   31.3790   41.6900 N   0  0  0  0  0  0  0  0  0  0  0  0
   47.5560   31.1130   39.5540 H   0  0  0  0  0  0  0  0  0  0  0  0
   49.7300   32.3290   39.3050 H   0  0  0  0  0  0  0  0  0  0  0  0
   50.8080   33.2290   41.3280 H   0  0  0  0  0  0  0  0  0  0  0  0
   46.4290   34.2350   43.6230 S   0  0  0  0  0  0  0  0  0  0  0  0
   42.3590   34.3790   40.1630 H   0  0  0  0  0  0  0  0  0  0  0  0
   42.6430   34.5120   41.1650 N   0  0  0  0  0  0  0  0  0  0  0  0
   43.1050   33.2470   41.6460 C   0  0  0  0  0  2  0  0  0  0  0  0
   44.5610   33.3180   41.9630 C   0  0  0  0  0  2  0  0  0  0  0  0
   44.7330   34.3610   43.0690 C   0  0  0  0  0  3  0  0  0  0  0  0
   44.3490   35.6890   42.5050 C   0  0  0  0  0  2  0  0  0  0  0  0
   43.6080   35.5690   41.1940 C   0  0  0  0  0  2  0  0  0  0  0  0
  1  9  1  0  0  0  0
  2  3  1  0  0  0  0
  2  1  2  0  0  0  0
  3  4  2  0  0  0  0
  4  8  1  0  0  0  0
  4  5  1  0  0  0  0
  5  6  1  0  0  0  0
  6 12  1  0  0  0  0
  7  6  2  0  0  0  0
  8  7  1  0  0  0  0
  9  8  2  0  0  0  0
  9 13  1  0  0  0  0
 10  1  1  0  0  0  0
 11  5  1  0  0  0  0
 14 19  1  0  0  0  0
 15 14  2  0  0  0  0
 15 16  1  0  0  0  0
 16 17  2  0  0  0  0
 17 18  1  0  0  0  0
 18  2  1  0  0  0  0
 19 18  2  0  0  0  0
 20 14  1  0  0  0  0
 21 15  1  0  0  0  0
 22 16  1  0  0  0  0
 23  3  1  0  0  0  0
 24 25  1  0  0  0  0
 25 30  1  0  0  0  0
 25 26  1  0  0  0  0
 26 27  1  0  0  0  0
 27 28  1  0  0  0  0
 28 23  1  0  0  0  0
 29 28  1  0  0  0  0
 30 29  1  0  0  0  0
M  END
>  <minimizedAffinity>
-4.92330647

>  <minimizedRMSD>
1.78806746

$$$$
