
 OpenBabel03252509003D

 43 45  0  0  1  0  0  0  0  0999 V2000
   46.7360   34.4320   43.4570 N   0  0  0  0  0  0  0  0  0  0  0  0
   46.2600   35.5750   42.7530 C   0  0  0  0  0  0  0  0  0  0  0  0
   44.7700   35.8230   42.8710 C   0  0  0  0  0  0  0  0  0  0  0  0
   44.1810   35.4400   44.1920 C   0  0  0  0  0  0  0  0  0  0  0  0
   45.2290   34.9440   45.1560 C   0  0  0  0  0  0  0  0  0  0  0  0
   45.9260   33.7770   44.3700 C   0  0  2  0  0  0  0  0  0  0  0  0
   46.7500   36.4800   43.2180 H   0  0  0  0  0  0  0  0  0  0  0  0
   46.5170   35.6300   41.6900 H   0  0  0  0  0  0  0  0  0  0  0  0
   44.2880   35.1510   42.1170 H   0  0  0  0  0  0  0  0  0  0  0  0
   44.5600   36.8540   42.5630 H   0  0  0  0  0  0  0  0  0  0  0  0
   43.7900   36.3960   44.6450 H   0  0  0  0  0  0  0  0  0  0  0  0
   43.3440   34.7420   44.1520 H   0  0  0  0  0  0  0  0  0  0  0  0
   44.7820   34.4890   46.0390 H   0  0  0  0  0  0  0  0  0  0  0  0
   45.9990   35.7180   45.3500 H   0  0  0  0  0  0  0  0  0  0  0  0
   45.0890   33.1640   44.0070 H   0  0  0  0  0  0  0  0  0  0  0  0
   47.7420   33.6960   42.7610 C   0  0  0  0  0  0  0  0  0  0  0  0
   48.3510   33.0900   43.4530 H   0  0  0  0  0  0  0  0  0  0  0  0
   48.4130   34.4120   42.2500 H   0  0  0  0  0  0  0  0  0  0  0  0
   47.0810   32.7790   41.7770 C   0  0  0  0  0  0  0  0  0  0  0  0
   47.1180   31.7280   42.0920 H   0  0  0  0  0  0  0  0  0  0  0  0
   45.9860   33.0080   41.6500 H   0  0  0  0  0  0  0  0  0  0  0  0
   49.1960   32.0990   38.7510 C   0  0  0  0  0  0  0  0  0  0  0  0
   48.5870   31.9580   40.0080 C   0  0  0  0  0  0  0  0  0  0  0  0
   47.7190   32.9330   40.4520 C   0  0  0  0  0  0  0  0  0  0  0  0
   47.4930   33.9890   39.6440 N   0  0  0  0  0  0  0  0  0  0  0  0
   48.0880   34.1070   38.4380 C   0  0  0  0  0  0  0  0  0  0  0  0
   48.9380   33.1740   37.9800 N   0  0  0  0  0  0  0  0  0  0  0  0
   49.8820   31.3660   38.3570 H   0  0  0  0  0  0  0  0  0  0  0  0
   48.8450   31.0760   40.5560 H   0  0  0  0  0  0  0  0  0  0  0  0
   47.7770   35.0270   37.9420 H   0  0  0  0  0  0  0  0  0  0  0  0
   46.6720   33.1690   45.3670 O   0  0  0  0  0  0  0  0  0  0  0  0
   45.4400   31.0120   44.4300 O   0  0  0  0  0  0  0  0  0  0  0  0
   46.2800   31.5500   45.5940 P   0  0  2  0  0  0  0  0  0  0  0  0
   45.2370   31.4960   46.9480 O   0  0  0  0  0  0  0  0  0  0  0  0
   45.8070   31.6490   47.7570 H   0  0  0  0  0  0  0  0  0  0  0  0
   47.5940   30.5900   45.9280 O   0  0  0  0  0  0  0  0  0  0  0  0
   50.2080   27.4600   42.8300 H   0  0  0  0  0  0  0  0  0  0  0  0
   49.8870   28.1320   43.5350 N   0  0  0  0  0  0  0  0  0  0  0  0
   48.9720   27.5310   44.4630 C   0  0  0  0  0  2  0  0  0  0  0  0
   48.7180   28.5440   45.5680 C   0  0  0  0  0  2  0  0  0  0  0  0
   47.9230   29.6810   44.9460 C   0  0  0  0  0  3  0  0  0  0  0  0
   48.8090   30.2970   43.8850 C   0  0  0  0  0  2  0  0  0  0  0  0
   49.2470   29.2520   42.9010 C   0  0  0  0  0  2  0  0  0  0  0  0
  1  6  1  0  0  0  0
  2  3  1  0  0  0  0
  2  7  1  0  0  0  0
  2  1  1  0  0  0  0
  3  4  1  0  0  0  0
  4 11  1  0  0  0  0
  4  5  1  0  0  0  0
  5 14  1  0  0  0  0
  5 13  1  0  0  0  0
  6 15  1  6  0  0  0
  6  5  1  0  0  0  0
  6 31  1  0  0  0  0
  8  2  1  0  0  0  0
  9  3  1  0  0  0  0
 10  3  1  0  0  0  0
 12  4  1  0  0  0  0
 16 17  1  0  0  0  0
 16  1  1  0  0  0  0
 18 16  1  0  0  0  0
 19 20  1  0  0  0  0
 19 16  1  0  0  0  0
 21 19  1  0  0  0  0
 22 23  1  0  0  0  0
 23 24  2  0  0  0  0
 23 29  1  0  0  0  0
 24 19  1  0  0  0  0
 25 24  1  0  0  0  0
 26 25  2  0  0  0  0
 27 26  1  0  0  0  0
 27 22  2  0  0  0  0
 28 22  1  0  0  0  0
 30 26  1  0  0  0  0
 31 33  1  0  0  0  0
 33 32  2  6  0  0  0
 33 36  1  0  0  0  0
 33 34  1  0  0  0  0
 34 35  1  0  0  0  0
 37 38  1  0  0  0  0
 38 39  1  0  0  0  0
 39 40  1  0  0  0  0
 41 40  1  0  0  0  0
 41 36  1  0  0  0  0
 42 41  1  0  0  0  0
 43 38  1  0  0  0  0
 43 42  1  0  0  0  0
M  END
>  <minimizedAffinity>
-3.93184996

>  <minimizedRMSD>
0.825585961

$$$$
