
 OpenBabel03242521103D

 17 18  0  0  0  0  0  0  0  0999 V2000
   36.8250   27.2490   42.7850 C   0  0  0  0  0  0  0  0  0  0  0  0
   38.0650   27.3910   43.4470 C   0  0  0  0  0  0  0  0  0  0  0  0
   38.7570   28.6040   43.2700 C   0  0  0  0  0  0  0  0  0  0  0  0
   38.2110   29.5650   42.4860 N   0  0  0  0  0  0  0  0  0  0  0  0
   37.0160   29.3830   41.8690 C   0  0  0  0  0  0  0  0  0  0  0  0
   36.3160   28.2420   42.0070 N   0  0  0  0  0  0  0  0  0  0  0  0
   36.2410   26.3520   42.8720 H   0  0  0  0  0  0  0  0  0  0  0  0
   38.4180   26.5650   44.0530 H   0  0  0  0  0  0  0  0  0  0  0  0
   39.7080   28.7140   43.7730 H   0  0  0  0  0  0  0  0  0  0  0  0
   36.5220   30.7880   40.8970 S   0  0  0  0  0  0  0  0  0  0  0  0
   40.4060   33.9480   38.6740 H   0  0  0  0  0  0  0  0  0  0  0  0
   39.7220   33.3790   39.1750 N   0  0  0  0  0  0  0  0  0  0  0  0
   38.7070   34.0670   39.9090 C   0  0  0  0  0  2  0  0  0  0  0  0
   37.4520   33.1960   39.8950 C   0  0  0  0  0  2  0  0  0  0  0  0
   37.8600   31.8810   40.4610 C   0  0  0  0  0  3  0  0  0  0  0  0
   38.7120   31.1850   39.4200 C   0  0  0  0  0  2  0  0  0  0  0  0
   39.2770   32.2150   38.4680 C   0  0  0  0  0  2  0  0  0  0  0  0
  1  7  1  0  0  0  0
  1  2  1  0  0  0  0
  2  8  1  0  0  0  0
  3  2  2  0  0  0  0
  3  9  1  0  0  0  0
  4  3  1  0  0  0  0
  5  6  1  0  0  0  0
  5  4  2  0  0  0  0
  6  1  2  0  0  0  0
 10  5  1  0  0  0  0
 11 12  1  0  0  0  0
 12 13  1  0  0  0  0
 14 13  1  0  0  0  0
 14 15  1  0  0  0  0
 15 10  1  0  0  0  0
 16 15  1  0  0  0  0
 17 12  1  0  0  0  0
 17 16  1  0  0  0  0
M  END
>  <minimizedAffinity>
-4.12813473

$$$$

 OpenBabel03242521103D

 17 18  0  0  0  0  0  0  0  0999 V2000
   37.1500   27.3070   42.8290 C   0  0  0  0  0  0  0  0  0  0  0  0
   38.4370   27.5880   43.3410 C   0  0  0  0  0  0  0  0  0  0  0  0
   38.9870   28.8500   43.0520 C   0  0  0  0  0  0  0  0  0  0  0  0
   38.2690   29.7270   42.3080 N   0  0  0  0  0  0  0  0  0  0  0  0
   37.0360   29.4130   41.8370 C   0  0  0  0  0  0  0  0  0  0  0  0
   36.4670   28.2190   42.0860 N   0  0  0  0  0  0  0  0  0  0  0  0
   36.6680   26.3650   43.0070 H   0  0  0  0  0  0  0  0  0  0  0  0
   38.9320   26.8220   43.9250 H   0  0  0  0  0  0  0  0  0  0  0  0
   39.9730   29.0660   43.4400 H   0  0  0  0  0  0  0  0  0  0  0  0
   36.3060   30.7280   40.8880 S   0  0  0  0  0  0  0  0  0  0  0  0
   38.0390   30.6690   35.6910 H   0  0  0  0  0  0  0  0  0  0  0  0
   37.6270   30.6580   36.6250 N   0  0  0  0  0  0  0  0  0  0  0  0
   37.3190   29.3820   37.1920 C   0  0  0  0  0  2  0  0  0  0  0  0
   37.4820   29.4930   38.7060 C   0  0  0  0  0  2  0  0  0  0  0  0
   36.5910   30.6070   39.1330 C   0  0  0  0  0  3  0  0  0  0  0  0
   37.2300   31.9000   38.6730 C   0  0  0  0  0  2  0  0  0  0  0  0
   38.1880   31.6080   37.5400 C   0  0  0  0  0  2  0  0  0  0  0  0
  1  7  1  0  0  0  0
  1  2  1  0  0  0  0
  2  8  1  0  0  0  0
  3  2  2  0  0  0  0
  3  9  1  0  0  0  0
  4  3  1  0  0  0  0
  5  6  1  0  0  0  0
  5  4  2  0  0  0  0
  6  1  2  0  0  0  0
 10  5  1  0  0  0  0
 11 12  1  0  0  0  0
 12 13  1  0  0  0  0
 12 17  1  0  0  0  0
 13 14  1  0  0  0  0
 14 15  1  0  0  0  0
 15 10  1  0  0  0  0
 16 15  1  0  0  0  0
 17 16  1  0  0  0  0
M  END
>  <minimizedAffinity>
-3.97571063

$$$$

 OpenBabel03242521103D

 17 18  0  0  0  0  0  0  0  0999 V2000
   37.9180   26.9840   41.5040 C   0  0  0  0  0  0  0  0  0  0  0  0
   38.0650   26.9500   42.9080 C   0  0  0  0  0  0  0  0  0  0  0  0
   37.7410   28.1190   43.6220 C   0  0  0  0  0  0  0  0  0  0  0  0
   37.3080   29.2070   42.9400 N   0  0  0  0  0  0  0  0  0  0  0  0
   37.1820   29.1930   41.5880 C   0  0  0  0  0  0  0  0  0  0  0  0
   37.4800   28.1000   40.8620 N   0  0  0  0  0  0  0  0  0  0  0  0
   38.1470   26.1310   40.8940 H   0  0  0  0  0  0  0  0  0  0  0  0
   38.4190   26.0320   43.3630 H   0  0  0  0  0  0  0  0  0  0  0  0
   37.8560   28.0970   44.6960 H   0  0  0  0  0  0  0  0  0  0  0  0
   36.6010   30.7420   40.9350 S   0  0  0  0  0  0  0  0  0  0  0  0
   40.2070   34.4820   39.1930 H   0  0  0  0  0  0  0  0  0  0  0  0
   39.5680   33.7260   39.4460 N   0  0  0  0  0  0  0  0  0  0  0  0
   40.1240   32.5900   40.1110 C   0  0  0  0  0  2  0  0  0  0  0  0
   39.0540   32.0240   41.0420 C   0  0  0  0  0  2  0  0  0  0  0  0
   37.8720   31.7390   40.1820 C   0  0  0  0  0  3  0  0  0  0  0  0
   37.2580   33.0700   39.8000 C   0  0  0  0  0  2  0  0  0  0  0  0
   38.2960   34.1590   39.9460 C   0  0  0  0  0  2  0  0  0  0  0  0
  1  2  1  0  0  0  0
  2  8  1  0  0  0  0
  2  3  2  0  0  0  0
  3  9  1  0  0  0  0
  4  3  1  0  0  0  0
  5  4  2  0  0  0  0
  6  1  2  0  0  0  0
  6  5  1  0  0  0  0
  7  1  1  0  0  0  0
 10  5  1  0  0  0  0
 11 12  1  0  0  0  0
 12 17  1  0  0  0  0
 12 13  1  0  0  0  0
 13 14  1  0  0  0  0
 15 10  1  0  0  0  0
 15 14  1  0  0  0  0
 16 17  1  0  0  0  0
 16 15  1  0  0  0  0
M  END
>  <minimizedAffinity>
-3.96179819

$$$$

 OpenBabel03242521103D

 17 18  0  0  0  0  0  0  0  0999 V2000
   39.3490   24.4620   40.1660 C   0  0  0  0  0  0  0  0  0  0  0  0
   38.3990   23.4200   40.2540 C   0  0  0  0  0  0  0  0  0  0  0  0
   37.3470   23.5790   41.1760 C   0  0  0  0  0  0  0  0  0  0  0  0
   37.2940   24.7070   41.9250 N   0  0  0  0  0  0  0  0  0  0  0  0
   38.2310   25.6820   41.8060 C   0  0  0  0  0  0  0  0  0  0  0  0
   39.2550   25.5770   40.9400 N   0  0  0  0  0  0  0  0  0  0  0  0
   40.1790   24.4100   39.4870 H   0  0  0  0  0  0  0  0  0  0  0  0
   38.5270   22.5560   39.6120 H   0  0  0  0  0  0  0  0  0  0  0  0
   36.6210   22.7810   41.2470 H   0  0  0  0  0  0  0  0  0  0  0  0
   37.9390   27.0540   42.9000 S   0  0  0  0  0  0  0  0  0  0  0  0
   35.0790   31.0780   40.5240 H   0  0  0  0  0  0  0  0  0  0  0  0
   35.5310   30.3070   41.0190 N   0  0  0  0  0  0  0  0  0  0  0  0
   35.1720   28.9790   40.6330 C   0  0  0  0  0  2  0  0  0  0  0  0
   36.3920   28.0850   40.8480 C   0  0  0  0  0  2  0  0  0  0  0  0
   36.7720   28.2480   42.2790 C   0  0  0  0  0  3  0  0  0  0  0  0
   37.3850   29.6250   42.4300 C   0  0  0  0  0  2  0  0  0  0  0  0
   36.9250   30.5040   41.2900 C   0  0  0  0  0  2  0  0  0  0  0  0
  1  2  2  0  0  0  0
  1  6  1  0  0  0  0
  2  3  1  0  0  0  0
  3  9  1  0  0  0  0
  3  4  2  0  0  0  0
  5  4  1  0  0  0  0
  5 10  1  0  0  0  0
  6  5  2  0  0  0  0
  7  1  1  0  0  0  0
  8  2  1  0  0  0  0
 11 12  1  0  0  0  0
 12 17  1  0  0  0  0
 13 14  1  0  0  0  0
 13 12  1  0  0  0  0
 14 15  1  0  0  0  0
 15 16  1  0  0  0  0
 15 10  1  0  0  0  0
 17 16  1  0  0  0  0
M  END
>  <minimizedAffinity>
-3.88531613

$$$$

 OpenBabel03242521103D

 17 18  0  0  0  0  0  0  0  0999 V2000
   37.0950   29.7290   38.9350 C   0  0  0  0  0  0  0  0  0  0  0  0
   36.8450   31.0390   39.4010 C   0  0  0  0  0  0  0  0  0  0  0  0
   36.6290   31.2050   40.7820 C   0  0  0  0  0  0  0  0  0  0  0  0
   36.6700   30.1170   41.5900 N   0  0  0  0  0  0  0  0  0  0  0  0
   36.9120   28.8760   41.0960 C   0  0  0  0  0  0  0  0  0  0  0  0
   37.1250   28.6670   39.7840 N   0  0  0  0  0  0  0  0  0  0  0  0
   37.2670   29.5260   37.8950 H   0  0  0  0  0  0  0  0  0  0  0  0
   36.8330   31.8450   38.6780 H   0  0  0  0  0  0  0  0  0  0  0  0
   36.4350   32.2060   41.1410 H   0  0  0  0  0  0  0  0  0  0  0  0
   36.9090   27.6210   42.3560 S   0  0  0  0  0  0  0  0  0  0  0  0
   39.4170   22.7860   41.7630 H   0  0  0  0  0  0  0  0  0  0  0  0
   38.9510   23.6950   41.7760 N   0  0  0  0  0  0  0  0  0  0  0  0
   37.5800   23.7370   41.3740 C   0  0  0  0  0  2  0  0  0  0  0  0
   36.9000   24.8590   42.1540 C   0  0  0  0  0  2  0  0  0  0  0  0
   37.6820   26.0920   41.8650 C   0  0  0  0  0  3  0  0  0  0  0  0
   38.9990   25.9760   42.6040 C   0  0  0  0  0  2  0  0  0  0  0  0
   39.2790   24.5210   42.9000 C   0  0  0  0  0  2  0  0  0  0  0  0
  1  2  2  0  0  0  0
  1  6  1  0  0  0  0
  2  3  1  0  0  0  0
  3  9  1  0  0  0  0
  3  4  2  0  0  0  0
  5  4  1  0  0  0  0
  5 10  1  0  0  0  0
  6  5  2  0  0  0  0
  7  1  1  0  0  0  0
  8  2  1  0  0  0  0
 11 12  1  0  0  0  0
 12 17  1  0  0  0  0
 13 12  1  0  0  0  0
 13 14  1  0  0  0  0
 15 14  1  0  0  0  0
 15 10  1  0  0  0  0
 15 16  1  0  0  0  0
 16 17  1  0  0  0  0
M  END
>  <minimizedAffinity>
-3.87636447

$$$$

 OpenBabel03242521103D

 17 18  0  0  0  0  0  0  0  0999 V2000
   37.6070   29.5790   39.2640 C   0  0  0  0  0  0  0  0  0  0  0  0
   36.5530   30.4670   39.5710 C   0  0  0  0  0  0  0  0  0  0  0  0
   36.2340   30.6470   40.9300 C   0  0  0  0  0  0  0  0  0  0  0  0
   36.9410   29.9710   41.8680 N   0  0  0  0  0  0  0  0  0  0  0  0
   37.9470   29.1260   41.5250 C   0  0  0  0  0  0  0  0  0  0  0  0
   38.2900   28.9210   40.2390 N   0  0  0  0  0  0  0  0  0  0  0  0
   37.9060   29.3900   38.2500 H   0  0  0  0  0  0  0  0  0  0  0  0
   36.0460   30.9620   38.7510 H   0  0  0  0  0  0  0  0  0  0  0  0
   35.4240   31.3240   41.1680 H   0  0  0  0  0  0  0  0  0  0  0  0
   38.7140   28.3600   42.9340 S   0  0  0  0  0  0  0  0  0  0  0  0
   37.9230   22.9900   42.1880 H   0  0  0  0  0  0  0  0  0  0  0  0
   38.0890   23.9710   42.4210 N   0  0  0  0  0  0  0  0  0  0  0  0
   39.4450   24.3760   42.6230 C   0  0  0  0  0  2  0  0  0  0  0  0
   39.5660   25.8340   42.1840 C   0  0  0  0  0  2  0  0  0  0  0  0
   38.5550   26.5860   42.9780 C   0  0  0  0  0  3  0  0  0  0  0  0
   37.1890   26.2250   42.4300 C   0  0  0  0  0  2  0  0  0  0  0  0
   37.2780   24.9050   41.6990 C   0  0  0  0  0  2  0  0  0  0  0  0
  1  2  2  0  0  0  0
  1  6  1  0  0  0  0
  2  3  1  0  0  0  0
  3  9  1  0  0  0  0
  3  4  2  0  0  0  0
  5  4  1  0  0  0  0
  5 10  1  0  0  0  0
  6  5  2  0  0  0  0
  7  1  1  0  0  0  0
  8  2  1  0  0  0  0
 10 15  1  0  0  0  0
 11 12  1  0  0  0  0
 12 13  1  0  0  0  0
 14 13  1  0  0  0  0
 14 15  1  0  0  0  0
 16 15  1  0  0  0  0
 17 12  1  0  0  0  0
 17 16  1  0  0  0  0
M  END
>  <minimizedAffinity>
-3.84386921

$$$$

 OpenBabel03242521103D

 17 18  0  0  0  0  0  0  0  0999 V2000
   37.3700   27.7880   43.5640 C   0  0  0  0  0  0  0  0  0  0  0  0
   38.7530   27.5510   43.4020 C   0  0  0  0  0  0  0  0  0  0  0  0
   39.2780   27.6470   42.1000 C   0  0  0  0  0  0  0  0  0  0  0  0
   38.4460   27.9570   41.0760 N   0  0  0  0  0  0  0  0  0  0  0  0
   37.1220   28.1760   41.2800 C   0  0  0  0  0  0  0  0  0  0  0  0
   36.5730   28.0970   42.5060 N   0  0  0  0  0  0  0  0  0  0  0  0
   36.8990   27.7320   44.5270 H   0  0  0  0  0  0  0  0  0  0  0  0
   39.3370   27.3090   44.2820 H   0  0  0  0  0  0  0  0  0  0  0  0
   40.3360   27.4630   41.9730 H   0  0  0  0  0  0  0  0  0  0  0  0
   36.2490   28.5620   39.7790 S   0  0  0  0  0  0  0  0  0  0  0  0
   37.6440   33.7440   38.6750 H   0  0  0  0  0  0  0  0  0  0  0  0
   37.3130   32.7880   38.8140 N   0  0  0  0  0  0  0  0  0  0  0  0
   37.6130   31.8330   37.7940 C   0  0  0  0  0  2  0  0  0  0  0  0
   37.7660   30.4690   38.4630 C   0  0  0  0  0  2  0  0  0  0  0  0
   36.4940   30.2290   39.2000 C   0  0  0  0  0  3  0  0  0  0  0  0
   36.4880   31.1480   40.4030 C   0  0  0  0  0  2  0  0  0  0  0  0
   37.4350   32.3000   40.1560 C   0  0  0  0  0  2  0  0  0  0  0  0
  1  7  1  0  0  0  0
  2  1  1  0  0  0  0
  2  8  1  0  0  0  0
  3  2  2  0  0  0  0
  4  5  2  0  0  0  0
  4  3  1  0  0  0  0
  5  6  1  0  0  0  0
  6  1  2  0  0  0  0
  9  3  1  0  0  0  0
 10  5  1  0  0  0  0
 11 12  1  0  0  0  0
 12 17  1  0  0  0  0
 13 14  1  0  0  0  0
 13 12  1  0  0  0  0
 14 15  1  0  0  0  0
 15 10  1  0  0  0  0
 15 16  1  0  0  0  0
 17 16  1  0  0  0  0
M  END
>  <minimizedAffinity>
-3.75993609

$$$$

 OpenBabel03242521103D

 17 18  0  0  0  0  0  0  0  0999 V2000
   37.8910   26.8830   41.6810 C   0  0  0  0  0  0  0  0  0  0  0  0
   37.0000   26.8410   42.7770 C   0  0  0  0  0  0  0  0  0  0  0  0
   37.0320   27.9210   43.6790 C   0  0  0  0  0  0  0  0  0  0  0  0
   37.9020   28.9370   43.4590 N   0  0  0  0  0  0  0  0  0  0  0  0
   38.7410   28.9330   42.3910 C   0  0  0  0  0  0  0  0  0  0  0  0
   38.7480   27.9240   41.5010 N   0  0  0  0  0  0  0  0  0  0  0  0
   37.9240   26.0940   40.9540 H   0  0  0  0  0  0  0  0  0  0  0  0
   36.3420   25.9850   42.8680 H   0  0  0  0  0  0  0  0  0  0  0  0
   36.3530   27.8900   44.5200 H   0  0  0  0  0  0  0  0  0  0  0  0
   39.7830   30.3730   42.3300 S   0  0  0  0  0  0  0  0  0  0  0  0
   38.2300   34.1540   38.6810 H   0  0  0  0  0  0  0  0  0  0  0  0
   38.4710   33.5020   39.4290 N   0  0  0  0  0  0  0  0  0  0  0  0
   37.4370   32.6390   39.9070 C   0  0  0  0  0  2  0  0  0  0  0  0
   38.0910   31.3340   40.3590 C   0  0  0  0  0  2  0  0  0  0  0  0
   39.1140   31.7180   41.3710 C   0  0  0  0  0  3  0  0  0  0  0  0
   40.2570   32.3800   40.6310 C   0  0  0  0  0  2  0  0  0  0  0  0
   39.7600   32.8890   39.2970 C   0  0  0  0  0  2  0  0  0  0  0  0
  1  2  1  0  0  0  0
  2  8  1  0  0  0  0
  2  3  2  0  0  0  0
  3  9  1  0  0  0  0
  4  3  1  0  0  0  0
  5  4  2  0  0  0  0
  6  1  2  0  0  0  0
  6  5  1  0  0  0  0
  7  1  1  0  0  0  0
 10  5  1  0  0  0  0
 11 12  1  0  0  0  0
 12 13  1  0  0  0  0
 13 14  1  0  0  0  0
 14 15  1  0  0  0  0
 15 10  1  0  0  0  0
 16 15  1  0  0  0  0
 17 12  1  0  0  0  0
 17 16  1  0  0  0  0
M  END
>  <minimizedAffinity>
-3.74757075

$$$$

 OpenBabel03242521103D

 17 18  0  0  0  0  0  0  0  0999 V2000
   40.6400   32.4320   38.2760 C   0  0  0  0  0  0  0  0  0  0  0  0
   41.1410   33.3660   39.2090 C   0  0  0  0  0  0  0  0  0  0  0  0
   40.2950   33.7380   40.2700 C   0  0  0  0  0  0  0  0  0  0  0  0
   39.0570   33.1920   40.3470 N   0  0  0  0  0  0  0  0  0  0  0  0
   38.6180   32.2980   39.4250 C   0  0  0  0  0  0  0  0  0  0  0  0
   39.3890   31.9100   38.3930 N   0  0  0  0  0  0  0  0  0  0  0  0
   41.2280   32.1020   37.4400 H   0  0  0  0  0  0  0  0  0  0  0  0
   42.1450   33.7470   39.0630 H   0  0  0  0  0  0  0  0  0  0  0  0
   40.6750   34.4560   40.9850 H   0  0  0  0  0  0  0  0  0  0  0  0
   36.9620   31.7340   39.7470 S   0  0  0  0  0  0  0  0  0  0  0  0
   36.6230   27.6370   43.3680 H   0  0  0  0  0  0  0  0  0  0  0  0
   36.6660   28.4620   42.7670 N   0  0  0  0  0  0  0  0  0  0  0  0
   37.8160   29.3010   42.8860 C   0  0  0  0  0  2  0  0  0  0  0  0
   38.0830   29.9230   41.5160 C   0  0  0  0  0  2  0  0  0  0  0  0
   36.8250   30.6220   41.1320 C   0  0  0  0  0  3  0  0  0  0  0  0
   35.8060   29.5580   40.7800 C   0  0  0  0  0  2  0  0  0  0  0  0
   36.2040   28.2520   41.4270 C   0  0  0  0  0  2  0  0  0  0  0  0
  1  6  2  0  0  0  0
  1  2  1  0  0  0  0
  2  3  2  0  0  0  0
  3  4  1  0  0  0  0
  3  9  1  0  0  0  0
  5 10  1  0  0  0  0
  5  4  2  0  0  0  0
  6  5  1  0  0  0  0
  7  1  1  0  0  0  0
  8  2  1  0  0  0  0
 10 15  1  0  0  0  0
 12 13  1  0  0  0  0
 12 11  1  0  0  0  0
 14 13  1  0  0  0  0
 15 14  1  0  0  0  0
 16 15  1  0  0  0  0
 16 17  1  0  0  0  0
 17 12  1  0  0  0  0
M  END
>  <minimizedAffinity>
-3.72851419

$$$$
