
 OpenBabel03252501033D

 29 31  0  0  1  0  0  0  0  0999 V2000
   47.1520   34.9280   41.8730 C   0  0  1  0  0  0  0  0  0  0  0  0
   47.8400   33.6450   41.5870 C   0  0  0  0  0  0  0  0  0  0  0  0
   46.6680   34.1220   40.7390 C   0  0  1  0  0  0  0  0  0  0  0  0
   47.7350   35.8560   41.6940 H   0  0  0  0  0  0  0  0  0  0  0  0
   48.8700   33.6580   41.1550 H   0  0  0  0  0  0  0  0  0  0  0  0
   47.6360   32.7050   42.1240 H   0  0  0  0  0  0  0  0  0  0  0  0
   47.0020   34.3290   39.7020 H   0  0  0  0  0  0  0  0  0  0  0  0
   45.6430   34.0060   45.1960 C   0  0  0  0  0  0  0  0  0  0  0  0
   46.4650   33.9460   44.0590 C   0  0  0  0  0  0  0  0  0  0  0  0
   46.3080   34.9530   43.1000 C   0  0  0  0  0  0  0  0  0  0  0  0
   45.3890   35.9410   43.2880 N   0  0  0  0  0  0  0  0  0  0  0  0
   44.6090   35.9720   44.3950 C   0  0  0  0  0  0  0  0  0  0  0  0
   44.7380   35.0060   45.3460 N   0  0  0  0  0  0  0  0  0  0  0  0
   45.6620   33.3040   45.9970 H   0  0  0  0  0  0  0  0  0  0  0  0
   47.1590   33.1380   43.9970 H   0  0  0  0  0  0  0  0  0  0  0  0
   43.9340   36.8030   44.4080 H   0  0  0  0  0  0  0  0  0  0  0  0
   45.4420   33.5860   40.8330 O   0  0  0  0  0  0  0  0  0  0  0  0
   44.0110   31.8910   39.3710 O   0  0  0  0  0  0  0  0  0  0  0  0
   44.5830   33.2860   39.4720 P   0  0  2  0  0  0  0  0  0  0  0  0
   45.4460   33.5450   38.0370 O   0  0  0  0  0  0  0  0  0  0  0  0
   45.9300   32.7300   37.7340 H   0  0  0  0  0  0  0  0  0  0  0  0
   43.2520   34.3300   39.4140 O   0  0  0  0  0  0  0  0  0  0  0  0
   40.7880   37.0870   40.0320 H   0  0  0  0  0  0  0  0  0  0  0  0
   40.3730   36.1660   40.3120 N   0  0  0  0  0  0  0  0  0  0  0  0
   40.5280   35.2410   39.2260 C   0  0  0  0  0  0  0  0  0  0  0  0
   40.9170   33.9010   39.8220 C   0  0  0  0  0  0  0  0  0  0  0  0
   42.3250   34.0080   40.4040 C   0  0  0  0  0  0  0  0  0  0  0  0
   42.2820   35.0810   41.4450 C   0  0  0  0  0  0  0  0  0  0  0  0
   40.9270   35.7500   41.5600 C   0  0  0  0  0  0  0  0  0  0  0  0
  1  4  1  6  0  0  0
  1 10  1  0  0  0  0
  2  1  1  0  0  0  0
  2  6  1  0  0  0  0
  3  7  1  6  0  0  0
  3 17  1  0  0  0  0
  3  2  1  0  0  0  0
  3  1  1  0  0  0  0
  5  2  1  0  0  0  0
  8 13  1  0  0  0  0
  8 14  1  0  0  0  0
  9  8  2  0  0  0  0
 10 11  2  0  0  0  0
 10  9  1  0  0  0  0
 11 12  1  0  0  0  0
 12 16  1  0  0  0  0
 12 13  2  0  0  0  0
 15  9  1  0  0  0  0
 19 18  2  1  0  0  0
 19 17  1  0  0  0  0
 20 19  1  0  0  0  0
 21 20  1  0  0  0  0
 22 19  1  0  0  0  0
 22 27  1  0  0  0  0
 23 24  1  0  0  0  0
 24 29  1  0  0  0  0
 25 26  1  0  0  0  0
 25 24  1  0  0  0  0
 26 27  1  0  0  0  0
 27 28  1  0  0  0  0
 28 29  1  0  0  0  0
M  END
>  <minimizedAffinity>
-5.01135683

>  <minimizedRMSD>
3.1219604

$$$$
