
 OpenBabel03252505283D

 22 23  0  0  0  0  0  0  0  0999 V2000
   35.9530   28.2530   41.2350 O   0  0  0  0  0  0  0  0  0  0  0  0
   36.6590   29.6100   41.2740 P   0  0  1  0  0  0  0  0  0  0  0  0
   35.5190   30.8450   41.3350 O   0  0  0  0  0  0  0  0  0  0  0  0
   34.5820   30.5070   41.3150 H   0  0  0  0  0  0  0  0  0  0  0  0
   37.6360   29.6200   42.6300 O   0  0  0  0  0  0  0  0  0  0  0  0
   40.9920   28.4580   42.7580 C   0  0  0  0  0  0  0  0  0  0  0  0
   40.9070   27.1670   43.3370 C   0  0  0  0  0  0  0  0  0  0  0  0
   39.6070   26.7270   43.6780 C   0  0  0  0  0  0  0  0  0  0  0  0
   38.5510   27.5320   43.4440 N   0  0  0  0  0  0  0  0  0  0  0  0
   38.7000   28.7610   42.8880 C   0  0  0  0  0  0  0  0  0  0  0  0
   39.9050   29.2080   42.5520 N   0  0  0  0  0  0  0  0  0  0  0  0
   41.9610   28.8280   42.4850 H   0  0  0  0  0  0  0  0  0  0  0  0
   41.8000   26.5700   43.4970 H   0  0  0  0  0  0  0  0  0  0  0  0
   39.5040   25.7630   44.1150 H   0  0  0  0  0  0  0  0  0  0  0  0
   37.5150   29.7410   39.8400 O   0  0  0  0  0  0  0  0  0  0  0  0
   39.2000   33.0940   36.7990 H   0  0  0  0  0  0  0  0  0  0  0  0
   39.3060   32.1450   37.1920 N   0  0  0  0  0  0  0  0  0  0  0  0
   38.0370   31.4470   37.2220 C   0  0  0  0  0  2  0  0  0  0  0  0
   37.3370   31.7420   38.5310 C   0  0  0  0  0  2  0  0  0  0  0  0
   38.0910   30.9600   39.6020 C   0  0  0  0  0  3  0  0  0  0  0  0
   39.5590   30.8880   39.2760 C   0  0  0  0  0  2  0  0  0  0  0  0
   39.9380   32.1060   38.4800 C   0  0  0  0  0  2  0  0  0  0  0  0
  2  1  2  6  0  0  0
  2  3  1  0  0  0  0
  2  5  1  0  0  0  0
  4  3  1  0  0  0  0
  5 10  1  0  0  0  0
  6  7  1  0  0  0  0
  7 13  1  0  0  0  0
  7  8  2  0  0  0  0
  8 14  1  0  0  0  0
  9  8  1  0  0  0  0
 10  9  2  0  0  0  0
 11  6  2  0  0  0  0
 11 10  1  0  0  0  0
 12  6  1  0  0  0  0
 15  2  1  0  0  0  0
 16 17  1  0  0  0  0
 17 18  1  0  0  0  0
 17 22  1  0  0  0  0
 18 19  1  0  0  0  0
 19 20  1  0  0  0  0
 20 15  1  0  0  0  0
 21 20  1  0  0  0  0
 22 21  1  0  0  0  0
M  END
>  <minimizedAffinity>
-4.91076565

$$$$

 OpenBabel03252505283D

 22 23  0  0  0  0  0  0  0  0999 V2000
   36.9770   28.6230   40.5330 O   0  0  0  0  0  0  0  0  0  0  0  0
   37.2300   29.9310   41.2860 P   0  0  1  0  0  0  0  0  0  0  0  0
   35.7880   30.7820   41.4530 O   0  0  0  0  0  0  0  0  0  0  0  0
   35.0170   30.3210   41.0250 H   0  0  0  0  0  0  0  0  0  0  0  0
   37.8710   29.5280   42.7770 O   0  0  0  0  0  0  0  0  0  0  0  0
   39.5520   26.5280   43.6740 C   0  0  0  0  0  0  0  0  0  0  0  0
   40.9290   26.8230   43.5180 C   0  0  0  0  0  0  0  0  0  0  0  0
   41.2360   28.1340   43.0820 C   0  0  0  0  0  0  0  0  0  0  0  0
   40.2330   29.0050   42.8440 N   0  0  0  0  0  0  0  0  0  0  0  0
   38.9320   28.6590   43.0110 C   0  0  0  0  0  0  0  0  0  0  0  0
   38.6060   27.4370   43.4210 N   0  0  0  0  0  0  0  0  0  0  0  0
   39.2780   25.5450   44.0030 H   0  0  0  0  0  0  0  0  0  0  0  0
   41.6850   26.0730   43.7290 H   0  0  0  0  0  0  0  0  0  0  0  0
   42.2590   28.3920   42.9540 H   0  0  0  0  0  0  0  0  0  0  0  0
   38.2770   30.8300   40.3370 O   0  0  0  0  0  0  0  0  0  0  0  0
   39.5660   31.8830   35.8020 H   0  0  0  0  0  0  0  0  0  0  0  0
   39.1150   32.2030   36.6740 N   0  0  0  0  0  0  0  0  0  0  0  0
   39.9180   31.8650   37.8330 C   0  0  0  0  0  2  0  0  0  0  0  0
   39.5310   30.4860   38.3220 C   0  0  0  0  0  2  0  0  0  0  0  0
   38.1660   30.6390   38.9860 C   0  0  0  0  0  3  0  0  0  0  0  0
   37.3470   31.6900   38.2860 C   0  0  0  0  0  2  0  0  0  0  0  0
   37.7640   31.7490   36.8430 C   0  0  0  0  0  2  0  0  0  0  0  0
  2  1  2  6  0  0  0
  2  3  1  0  0  0  0
  2  5  1  0  0  0  0
  4  3  1  0  0  0  0
  5 10  1  0  0  0  0
  6 12  1  0  0  0  0
  7  6  1  0  0  0  0
  7 13  1  0  0  0  0
  8  7  2  0  0  0  0
  9 10  2  0  0  0  0
  9  8  1  0  0  0  0
 10 11  1  0  0  0  0
 11  6  2  0  0  0  0
 14  8  1  0  0  0  0
 15  2  1  0  0  0  0
 16 17  1  0  0  0  0
 17 22  1  0  0  0  0
 17 18  1  0  0  0  0
 18 19  1  0  0  0  0
 19 20  1  0  0  0  0
 20 15  1  0  0  0  0
 21 20  1  0  0  0  0
 22 21  1  0  0  0  0
M  END
>  <minimizedAffinity>
-4.887784

$$$$

 OpenBabel03252505283D

 22 23  0  0  0  0  0  0  0  0999 V2000
   34.5490   29.3980   39.4180 O   0  0  0  0  0  0  0  0  0  0  0  0
   35.7780   29.6000   40.3070 P   0  0  1  0  0  0  0  0  0  0  0  0
   35.5250   30.9000   41.3440 O   0  0  0  0  0  0  0  0  0  0  0  0
   34.6420   31.3390   41.2030 H   0  0  0  0  0  0  0  0  0  0  0  0
   36.0100   28.1810   41.1610 O   0  0  0  0  0  0  0  0  0  0  0  0
   38.9100   28.6260   43.1660 C   0  0  0  0  0  0  0  0  0  0  0  0
   39.3950   27.3150   43.3980 C   0  0  0  0  0  0  0  0  0  0  0  0
   38.6500   26.2660   42.8110 C   0  0  0  0  0  0  0  0  0  0  0  0
   37.5510   26.5590   42.0850 N   0  0  0  0  0  0  0  0  0  0  0  0
   37.1360   27.8390   41.9020 C   0  0  0  0  0  0  0  0  0  0  0  0
   37.8120   28.8500   42.4370 N   0  0  0  0  0  0  0  0  0  0  0  0
   39.4480   29.4490   43.5940 H   0  0  0  0  0  0  0  0  0  0  0  0
   40.2890   27.1510   43.9920 H   0  0  0  0  0  0  0  0  0  0  0  0
   38.9840   25.2690   42.9630 H   0  0  0  0  0  0  0  0  0  0  0  0
   37.0500   29.9710   39.2820 O   0  0  0  0  0  0  0  0  0  0  0  0
   39.9220   33.5100   37.6830 H   0  0  0  0  0  0  0  0  0  0  0  0
   39.8450   32.6200   38.2010 N   0  0  0  0  0  0  0  0  0  0  0  0
   39.0290   31.6640   37.4790 C   0  0  0  0  0  2  0  0  0  0  0  0
   37.5810   31.8430   37.8810 C   0  0  0  0  0  2  0  0  0  0  0  0
   37.4590   31.2770   39.2920 C   0  0  0  0  0  3  0  0  0  0  0  0
   38.7240   31.5150   40.0730 C   0  0  0  0  0  2  0  0  0  0  0  0
   39.3880   32.7600   39.5530 C   0  0  0  0  0  2  0  0  0  0  0  0
  2  1  2  6  0  0  0
  2  5  1  0  0  0  0
  2  3  1  0  0  0  0
  4  3  1  0  0  0  0
  5 10  1  0  0  0  0
  6  7  1  0  0  0  0
  6 12  1  0  0  0  0
  7 13  1  0  0  0  0
  8 14  1  0  0  0  0
  8  7  2  0  0  0  0
  9  8  1  0  0  0  0
 10  9  2  0  0  0  0
 10 11  1  0  0  0  0
 11  6  2  0  0  0  0
 15 20  1  0  0  0  0
 15  2  1  0  0  0  0
 16 17  1  0  0  0  0
 17 22  1  0  0  0  0
 18 19  1  0  0  0  0
 18 17  1  0  0  0  0
 19 20  1  0  0  0  0
 20 21  1  0  0  0  0
 22 21  1  0  0  0  0
M  END
>  <minimizedAffinity>
-4.75625372

$$$$

 OpenBabel03252505283D

 22 23  0  0  0  0  0  0  0  0999 V2000
   38.5920   30.4150   41.7710 O   0  0  0  0  0  0  0  0  0  0  0  0
   37.4630   29.4130   42.0250 P   0  0  1  0  0  0  0  0  0  0  0  0
   37.1940   29.2630   43.6790 O   0  0  0  0  0  0  0  0  0  0  0  0
   37.8140   29.8220   44.2230 H   0  0  0  0  0  0  0  0  0  0  0  0
   36.1040   29.9900   41.2410 O   0  0  0  0  0  0  0  0  0  0  0  0
   36.2880   29.7470   37.7010 C   0  0  0  0  0  0  0  0  0  0  0  0
   35.0650   29.1440   37.3140 C   0  0  0  0  0  0  0  0  0  0  0  0
   34.1720   28.8290   38.3640 C   0  0  0  0  0  0  0  0  0  0  0  0
   34.5200   29.1080   39.6380 N   0  0  0  0  0  0  0  0  0  0  0  0
   35.7100   29.6860   39.9420 C   0  0  0  0  0  0  0  0  0  0  0  0
   36.5740   29.9980   38.9820 N   0  0  0  0  0  0  0  0  0  0  0  0
   36.9930   30.0020   36.9330 H   0  0  0  0  0  0  0  0  0  0  0  0
   34.8490   28.9470   36.2680 H   0  0  0  0  0  0  0  0  0  0  0  0
   33.2440   28.3750   38.1130 H   0  0  0  0  0  0  0  0  0  0  0  0
   37.9940   27.9390   41.4320 O   0  0  0  0  0  0  0  0  0  0  0  0
   38.8780   23.4480   42.9760 H   0  0  0  0  0  0  0  0  0  0  0  0
   38.6400   24.0630   42.1820 N   0  0  0  0  0  0  0  0  0  0  0  0
   39.4850   25.2410   42.1600 C   0  0  0  0  0  2  0  0  0  0  0  0
   38.8430   26.3290   42.9930 C   0  0  0  0  0  2  0  0  0  0  0  0
   37.6590   26.8430   42.1810 C   0  0  0  0  0  3  0  0  0  0  0  0
   37.0340   25.7280   41.3850 C   0  0  0  0  0  2  0  0  0  0  0  0
   37.2550   24.4310   42.1130 C   0  0  0  0  0  2  0  0  0  0  0  0
  2  1  2  6  0  0  0
  2  3  1  0  0  0  0
  3  4  1  0  0  0  0
  5  2  1  0  0  0  0
  6 11  1  0  0  0  0
  7  6  2  0  0  0  0
  7  8  1  0  0  0  0
  8  9  2  0  0  0  0
  9 10  1  0  0  0  0
 10  5  1  0  0  0  0
 11 10  2  0  0  0  0
 12  6  1  0  0  0  0
 13  7  1  0  0  0  0
 14  8  1  0  0  0  0
 15  2  1  0  0  0  0
 15 20  1  0  0  0  0
 17 16  1  0  0  0  0
 18 17  1  0  0  0  0
 18 19  1  0  0  0  0
 20 19  1  0  0  0  0
 21 22  1  0  0  0  0
 21 20  1  0  0  0  0
 22 17  1  0  0  0  0
M  END
>  <minimizedAffinity>
-4.5816083

$$$$

 OpenBabel03252505283D

 22 23  0  0  0  0  0  0  0  0999 V2000
   37.1150   28.1690   40.0740 O   0  0  0  0  0  0  0  0  0  0  0  0
   36.5090   28.8490   41.3030 P   0  0  1  0  0  0  0  0  0  0  0  0
   34.8940   29.2200   41.0130 O   0  0  0  0  0  0  0  0  0  0  0  0
   34.5980   28.9640   40.0970 H   0  0  0  0  0  0  0  0  0  0  0  0
   36.6640   27.7860   42.5840 O   0  0  0  0  0  0  0  0  0  0  0  0
   38.5010   24.7500   42.3910 C   0  0  0  0  0  0  0  0  0  0  0  0
   39.6940   25.0010   43.1150 C   0  0  0  0  0  0  0  0  0  0  0  0
   39.8170   26.2940   43.6750 C   0  0  0  0  0  0  0  0  0  0  0  0
   38.8260   27.1920   43.4970 N   0  0  0  0  0  0  0  0  0  0  0  0
   37.7070   26.8890   42.7900 C   0  0  0  0  0  0  0  0  0  0  0  0
   37.5560   25.6840   42.2500 N   0  0  0  0  0  0  0  0  0  0  0  0
   38.3690   23.7810   41.9510 H   0  0  0  0  0  0  0  0  0  0  0  0
   40.4510   24.2310   43.2210 H   0  0  0  0  0  0  0  0  0  0  0  0
   40.6990   26.5190   44.2250 H   0  0  0  0  0  0  0  0  0  0  0  0
   37.3570   30.2780   41.5230 O   0  0  0  0  0  0  0  0  0  0  0  0
   39.2300   34.0450   39.1490 H   0  0  0  0  0  0  0  0  0  0  0  0
   38.4050   33.6330   39.6150 N   0  0  0  0  0  0  0  0  0  0  0  0
   38.7640   33.0440   40.8890 C   0  0  0  0  0  2  0  0  0  0  0  0
   39.1670   31.6020   40.6750 C   0  0  0  0  0  2  0  0  0  0  0  0
   37.8790   30.8380   40.3880 C   0  0  0  0  0  3  0  0  0  0  0  0
   36.9050   31.7010   39.6300 C   0  0  0  0  0  2  0  0  0  0  0  0
   37.6770   32.6960   38.8080 C   0  0  0  0  0  2  0  0  0  0  0  0
  2  1  2  6  0  0  0
  2 15  1  0  0  0  0
  2  5  1  0  0  0  0
  3  2  1  0  0  0  0
  4  3  1  0  0  0  0
  5 10  1  0  0  0  0
  6  7  1  0  0  0  0
  7 13  1  0  0  0  0
  7  8  2  0  0  0  0
  8 14  1  0  0  0  0
  9  8  1  0  0  0  0
 10  9  2  0  0  0  0
 11  6  2  0  0  0  0
 11 10  1  0  0  0  0
 12  6  1  0  0  0  0
 16 17  1  0  0  0  0
 17 18  1  0  0  0  0
 19 18  1  0  0  0  0
 20 19  1  0  0  0  0
 20 15  1  0  0  0  0
 21 20  1  0  0  0  0
 22 17  1  0  0  0  0
 22 21  1  0  0  0  0
M  END
>  <minimizedAffinity>
-4.57920408

$$$$

 OpenBabel03252505283D

 22 23  0  0  0  0  0  0  0  0999 V2000
   36.6820   31.5130   38.9700 O   0  0  0  0  0  0  0  0  0  0  0  0
   36.9220   30.8690   40.3370 P   0  0  1  0  0  0  0  0  0  0  0  0
   35.4920   30.8590   41.2220 O   0  0  0  0  0  0  0  0  0  0  0  0
   34.7340   31.2850   40.7360 H   0  0  0  0  0  0  0  0  0  0  0  0
   37.4750   29.3150   40.0620 O   0  0  0  0  0  0  0  0  0  0  0  0
   37.4840   25.9230   41.1180 C   0  0  0  0  0  0  0  0  0  0  0  0
   37.0640   25.9620   42.4720 C   0  0  0  0  0  0  0  0  0  0  0  0
   36.7750   27.2460   42.9920 C   0  0  0  0  0  0  0  0  0  0  0  0
   36.9120   28.3290   42.2000 N   0  0  0  0  0  0  0  0  0  0  0  0
   37.3220   28.2230   40.9100 C   0  0  0  0  0  0  0  0  0  0  0  0
   37.6010   27.0340   40.3860 N   0  0  0  0  0  0  0  0  0  0  0  0
   37.7120   24.9680   40.6860 H   0  0  0  0  0  0  0  0  0  0  0  0
   36.9740   25.0490   43.0530 H   0  0  0  0  0  0  0  0  0  0  0  0
   36.4570   27.3150   44.0040 H   0  0  0  0  0  0  0  0  0  0  0  0
   38.0370   31.8370   41.1290 O   0  0  0  0  0  0  0  0  0  0  0  0
   42.5840   33.3050   40.4220 H   0  0  0  0  0  0  0  0  0  0  0  0
   41.6970   33.4370   40.9340 N   0  0  0  0  0  0  0  0  0  0  0  0
   41.1740   32.1720   41.4100 C   0  0  0  0  0  2  0  0  0  0  0  0
   40.2860   31.5680   40.3430 C   0  0  0  0  0  2  0  0  0  0  0  0
   39.0050   32.3960   40.3390 C   0  0  0  0  0  3  0  0  0  0  0  0
   39.2990   33.8370   40.6610 C   0  0  0  0  0  2  0  0  0  0  0  0
   40.6950   34.1600   40.2050 C   0  0  0  0  0  2  0  0  0  0  0  0
  2  1  2  6  0  0  0
  2 15  1  0  0  0  0
  2  3  1  0  0  0  0
  4  3  1  0  0  0  0
  5  2  1  0  0  0  0
  5 10  1  0  0  0  0
  6  7  1  0  0  0  0
  7  8  2  0  0  0  0
  7 13  1  0  0  0  0
  8 14  1  0  0  0  0
  9  8  1  0  0  0  0
 10  9  2  0  0  0  0
 11 10  1  0  0  0  0
 11  6  2  0  0  0  0
 12  6  1  0  0  0  0
 16 17  1  0  0  0  0
 17 18  1  0  0  0  0
 19 18  1  0  0  0  0
 20 19  1  0  0  0  0
 20 21  1  0  0  0  0
 20 15  1  0  0  0  0
 22 21  1  0  0  0  0
 22 17  1  0  0  0  0
M  END
>  <minimizedAffinity>
-4.4868989

$$$$

 OpenBabel03252505283D

 22 23  0  0  0  0  0  0  0  0999 V2000
   38.7170   30.9750   39.3550 O   0  0  0  0  0  0  0  0  0  0  0  0
   38.4760   31.7850   40.6300 P   0  0  1  0  0  0  0  0  0  0  0  0
   36.8830   32.3240   40.6720 O   0  0  0  0  0  0  0  0  0  0  0  0
   36.3640   32.0550   39.8660 H   0  0  0  0  0  0  0  0  0  0  0  0
   38.8090   30.7810   41.9250 O   0  0  0  0  0  0  0  0  0  0  0  0
   36.2520   28.3150   41.8550 C   0  0  0  0  0  0  0  0  0  0  0  0
   36.5830   27.4180   42.9010 C   0  0  0  0  0  0  0  0  0  0  0  0
   37.7530   27.7270   43.6330 C   0  0  0  0  0  0  0  0  0  0  0  0
   38.4700   28.8230   43.3080 N   0  0  0  0  0  0  0  0  0  0  0  0
   38.0980   29.6420   42.2910 C   0  0  0  0  0  0  0  0  0  0  0  0
   37.0040   29.3850   41.5820 N   0  0  0  0  0  0  0  0  0  0  0  0
   35.3710   28.1150   41.2770 H   0  0  0  0  0  0  0  0  0  0  0  0
   35.9600   26.5540   43.1110 H   0  0  0  0  0  0  0  0  0  0  0  0
   38.0340   27.0770   44.4260 H   0  0  0  0  0  0  0  0  0  0  0  0
   39.4910   33.1150   40.5470 O   0  0  0  0  0  0  0  0  0  0  0  0
   44.2500   33.7200   39.9840 H   0  0  0  0  0  0  0  0  0  0  0  0
   43.3170   34.1610   40.0350 N   0  0  0  0  0  0  0  0  0  0  0  0
   42.5550   33.6420   41.1530 C   0  0  0  0  0  2  0  0  0  0  0  0
   41.7810   32.4220   40.7040 C   0  0  0  0  0  2  0  0  0  0  0  0
   40.6430   32.9390   39.8300 C   0  0  0  0  0  3  0  0  0  0  0  0
   41.0740   34.1580   39.0580 C   0  0  0  0  0  2  0  0  0  0  0  0
   42.5580   34.0810   38.8210 C   0  0  0  0  0  2  0  0  0  0  0  0
  2  1  2  6  0  0  0
  2  3  1  0  0  0  0
  2  5  1  0  0  0  0
  4  3  1  0  0  0  0
  5 10  1  0  0  0  0
  6  7  1  0  0  0  0
  7 13  1  0  0  0  0
  7  8  2  0  0  0  0
  8 14  1  0  0  0  0
  9  8  1  0  0  0  0
 10  9  2  0  0  0  0
 11  6  2  0  0  0  0
 11 10  1  0  0  0  0
 12  6  1  0  0  0  0
 15  2  1  0  0  0  0
 16 17  1  0  0  0  0
 17 18  1  0  0  0  0
 19 18  1  0  0  0  0
 20 15  1  0  0  0  0
 20 19  1  0  0  0  0
 21 20  1  0  0  0  0
 22 21  1  0  0  0  0
 22 17  1  0  0  0  0
M  END
>  <minimizedAffinity>
-4.47259474

$$$$

 OpenBabel03252505283D

 22 23  0  0  0  0  0  0  0  0999 V2000
   37.5490   28.7350   43.6660 O   0  0  0  0  0  0  0  0  0  0  0  0
   37.5560   28.9470   42.1510 P   0  0  1  0  0  0  0  0  0  0  0  0
   35.9990   29.2900   41.6140 O   0  0  0  0  0  0  0  0  0  0  0  0
   35.3280   29.2800   42.3490 H   0  0  0  0  0  0  0  0  0  0  0  0
   38.5990   30.2140   41.8330 O   0  0  0  0  0  0  0  0  0  0  0  0
   38.8740   33.5620   40.6740 C   0  0  0  0  0  0  0  0  0  0  0  0
   37.8520   33.6940   39.7010 C   0  0  0  0  0  0  0  0  0  0  0  0
   37.0600   32.5440   39.4750 C   0  0  0  0  0  0  0  0  0  0  0  0
   37.3110   31.4180   40.1740 N   0  0  0  0  0  0  0  0  0  0  0  0
   38.3090   31.3560   41.0920 C   0  0  0  0  0  0  0  0  0  0  0  0
   39.0730   32.4160   41.3320 N   0  0  0  0  0  0  0  0  0  0  0  0
   39.4960   34.4120   40.8740 H   0  0  0  0  0  0  0  0  0  0  0  0
   37.7030   34.6330   39.1750 H   0  0  0  0  0  0  0  0  0  0  0  0
   36.2830   32.6060   38.7530 H   0  0  0  0  0  0  0  0  0  0  0  0
   38.0510   27.4970   41.4710 O   0  0  0  0  0  0  0  0  0  0  0  0
   36.5330   22.9160   41.2680 H   0  0  0  0  0  0  0  0  0  0  0  0
   37.1330   23.6520   40.8610 N   0  0  0  0  0  0  0  0  0  0  0  0
   37.8600   24.3640   41.8940 C   0  0  0  0  0  2  0  0  0  0  0  0
   37.0240   25.5290   42.3780 C   0  0  0  0  0  2  0  0  0  0  0  0
   37.0640   26.5710   41.2650 C   0  0  0  0  0  3  0  0  0  0  0  0
   37.1220   25.9080   39.9140 C   0  0  0  0  0  2  0  0  0  0  0  0
   36.4410   24.5700   40.0020 C   0  0  0  0  0  2  0  0  0  0  0  0
  2  1  2  1  0  0  0
  3  2  1  0  0  0  0
  3  4  1  0  0  0  0
  5  2  1  0  0  0  0
  6 12  1  0  0  0  0
  6 11  1  0  0  0  0
  7  6  2  0  0  0  0
  8  7  1  0  0  0  0
  8  9  2  0  0  0  0
  9 10  1  0  0  0  0
 10 11  2  0  0  0  0
 10  5  1  0  0  0  0
 13  7  1  0  0  0  0
 14  8  1  0  0  0  0
 15  2  1  0  0  0  0
 17 16  1  0  0  0  0
 17 18  1  0  0  0  0
 18 19  1  0  0  0  0
 20 15  1  0  0  0  0
 20 19  1  0  0  0  0
 21 22  1  0  0  0  0
 21 20  1  0  0  0  0
 22 17  1  0  0  0  0
M  END
>  <minimizedAffinity>
-4.42664003

$$$$

 OpenBabel03252505283D

 22 23  0  0  0  0  0  0  0  0999 V2000
   35.4910   28.5320   40.9560 O   0  0  0  0  0  0  0  0  0  0  0  0
   36.2830   29.7900   40.5920 P   0  0  1  0  0  0  0  0  0  0  0  0
   35.6220   31.1260   41.3730 O   0  0  0  0  0  0  0  0  0  0  0  0
   34.8220   30.8960   41.9190 H   0  0  0  0  0  0  0  0  0  0  0  0
   37.8650   29.5340   41.0670 O   0  0  0  0  0  0  0  0  0  0  0  0
   38.7630   27.2990   43.6790 C   0  0  0  0  0  0  0  0  0  0  0  0
   39.3330   26.1800   43.0210 C   0  0  0  0  0  0  0  0  0  0  0  0
   39.3860   26.2550   41.6090 C   0  0  0  0  0  0  0  0  0  0  0  0
   38.9060   27.3500   40.9840 N   0  0  0  0  0  0  0  0  0  0  0  0
   38.3700   28.3890   41.6740 C   0  0  0  0  0  0  0  0  0  0  0  0
   38.3040   28.3550   43.0010 N   0  0  0  0  0  0  0  0  0  0  0  0
   38.7040   27.2810   44.7500 H   0  0  0  0  0  0  0  0  0  0  0  0
   39.7010   25.3310   43.5870 H   0  0  0  0  0  0  0  0  0  0  0  0
   39.8070   25.4350   41.0800 H   0  0  0  0  0  0  0  0  0  0  0  0
   36.1130   29.9970   38.9380 O   0  0  0  0  0  0  0  0  0  0  0  0
   38.2340   29.1240   34.6860 H   0  0  0  0  0  0  0  0  0  0  0  0
   37.5740   28.8000   35.4120 N   0  0  0  0  0  0  0  0  0  0  0  0
   36.6850   29.8680   35.8250 C   0  0  0  0  0  2  0  0  0  0  0  0
   37.3220   30.6310   36.9670 C   0  0  0  0  0  2  0  0  0  0  0  0
   37.2260   29.7240   38.1890 C   0  0  0  0  0  3  0  0  0  0  0  0
   37.3550   28.2770   37.7920 C   0  0  0  0  0  2  0  0  0  0  0  0
   38.1980   28.1890   36.5500 C   0  0  0  0  0  2  0  0  0  0  0  0
  2  1  2  1  0  0  0
  2  5  1  0  0  0  0
  2  3  1  0  0  0  0
  3  4  1  0  0  0  0
  5 10  1  0  0  0  0
  6 12  1  0  0  0  0
  7 13  1  0  0  0  0
  7  6  1  0  0  0  0
  8  7  2  0  0  0  0
  9  8  1  0  0  0  0
  9 10  2  0  0  0  0
 10 11  1  0  0  0  0
 11  6  2  0  0  0  0
 14  8  1  0  0  0  0
 15  2  1  0  0  0  0
 16 17  1  0  0  0  0
 17 18  1  0  0  0  0
 17 22  1  0  0  0  0
 18 19  1  0  0  0  0
 19 20  1  0  0  0  0
 20 15  1  0  0  0  0
 21 20  1  0  0  0  0
 22 21  1  0  0  0  0
M  END
>  <minimizedAffinity>
-4.42325211

$$$$
