
 OpenBabel03252509003D

 43 45  0  0  1  0  0  0  0  0999 V2000
   46.7760   34.3640   43.6270 N   0  0  0  0  0  0  0  0  0  0  0  0
   46.4010   35.2420   42.5690 C   0  0  0  0  0  0  0  0  0  0  0  0
   44.9080   35.4120   42.3810 C   0  0  0  0  0  0  0  0  0  0  0  0
   44.1140   35.3620   43.6490 C   0  0  0  0  0  0  0  0  0  0  0  0
   44.9960   35.2130   44.8620 C   0  0  0  0  0  0  0  0  0  0  0  0
   45.8390   33.9270   44.5480 C   0  0  2  0  0  0  0  0  0  0  0  0
   46.7870   36.2690   42.8360 H   0  0  0  0  0  0  0  0  0  0  0  0
   46.8300   35.0260   41.5860 H   0  0  0  0  0  0  0  0  0  0  0  0
   44.5720   34.5330   41.7770 H   0  0  0  0  0  0  0  0  0  0  0  0
   44.7300   36.3060   41.7720 H   0  0  0  0  0  0  0  0  0  0  0  0
   43.6320   36.3760   43.7530 H   0  0  0  0  0  0  0  0  0  0  0  0
   43.3100   34.6240   43.6740 H   0  0  0  0  0  0  0  0  0  0  0  0
   44.4180   34.9840   45.7560 H   0  0  0  0  0  0  0  0  0  0  0  0
   45.7060   36.0600   44.9520 H   0  0  0  0  0  0  0  0  0  0  0  0
   45.0880   33.1850   44.2430 H   0  0  0  0  0  0  0  0  0  0  0  0
   47.9000   33.5370   43.3260 C   0  0  0  0  0  0  0  0  0  0  0  0
   48.4030   33.1880   44.2430 H   0  0  0  0  0  0  0  0  0  0  0  0
   48.6270   34.1290   42.7390 H   0  0  0  0  0  0  0  0  0  0  0  0
   47.4300   32.3400   42.5540 C   0  0  0  0  0  0  0  0  0  0  0  0
   47.5710   31.4030   43.1070 H   0  0  0  0  0  0  0  0  0  0  0  0
   46.3290   32.3850   42.3270 H   0  0  0  0  0  0  0  0  0  0  0  0
   50.0960   31.6790   39.9940 C   0  0  0  0  0  0  0  0  0  0  0  0
   49.4140   31.7420   41.2190 C   0  0  0  0  0  0  0  0  0  0  0  0
   48.1430   32.2760   41.2600 C   0  0  0  0  0  0  0  0  0  0  0  0
   47.6090   32.7160   40.1020 N   0  0  0  0  0  0  0  0  0  0  0  0
   48.2800   32.6470   38.9330 C   0  0  0  0  0  0  0  0  0  0  0  0
   49.5180   32.1320   38.8630 N   0  0  0  0  0  0  0  0  0  0  0  0
   51.0900   31.2710   39.9070 H   0  0  0  0  0  0  0  0  0  0  0  0
   49.9420   31.3600   42.0680 H   0  0  0  0  0  0  0  0  0  0  0  0
   47.6790   33.0530   38.1180 H   0  0  0  0  0  0  0  0  0  0  0  0
   46.4200   33.6600   45.7770 O   0  0  0  0  0  0  0  0  0  0  0  0
   45.4990   31.2330   45.2230 O   0  0  0  0  0  0  0  0  0  0  0  0
   46.1370   32.0940   46.3180 P   0  0  2  0  0  0  0  0  0  0  0  0
   44.9390   32.2170   47.5320 O   0  0  0  0  0  0  0  0  0  0  0  0
   45.3870   32.6000   48.3410 H   0  0  0  0  0  0  0  0  0  0  0  0
   47.4730   31.3750   46.9960 O   0  0  0  0  0  0  0  0  0  0  0  0
   49.4560   26.6990   46.3440 H   0  0  0  0  0  0  0  0  0  0  0  0
   49.2710   27.6900   46.5240 N   0  0  0  0  0  0  0  0  0  0  0  0
   48.3350   27.8690   47.5990 C   0  0  0  0  0  2  0  0  0  0  0  0
   48.2850   29.3550   47.9120 C   0  0  0  0  0  2  0  0  0  0  0  0
   47.6190   30.0310   46.7240 C   0  0  0  0  0  3  0  0  0  0  0  0
   48.5200   29.7930   45.5310 C   0  0  0  0  0  2  0  0  0  0  0  0
   48.7550   28.3250   45.3420 C   0  0  0  0  0  2  0  0  0  0  0  0
  1  6  1  0  0  0  0
  2  7  1  0  0  0  0
  2  1  1  0  0  0  0
  3  2  1  0  0  0  0
  3  4  1  0  0  0  0
  4 12  1  0  0  0  0
  4 11  1  0  0  0  0
  4  5  1  0  0  0  0
  5 14  1  0  0  0  0
  5 13  1  0  0  0  0
  6 15  1  6  0  0  0
  6  5  1  0  0  0  0
  6 31  1  0  0  0  0
  8  2  1  0  0  0  0
  9  3  1  0  0  0  0
 10  3  1  0  0  0  0
 16  1  1  0  0  0  0
 16 17  1  0  0  0  0
 18 16  1  0  0  0  0
 19 20  1  0  0  0  0
 19 16  1  0  0  0  0
 21 19  1  0  0  0  0
 22 23  1  0  0  0  0
 23 24  2  0  0  0  0
 23 29  1  0  0  0  0
 24 19  1  0  0  0  0
 25 24  1  0  0  0  0
 26 25  2  0  0  0  0
 27 26  1  0  0  0  0
 27 22  2  0  0  0  0
 28 22  1  0  0  0  0
 30 26  1  0  0  0  0
 31 33  1  0  0  0  0
 33 32  2  6  0  0  0
 33 36  1  0  0  0  0
 33 34  1  0  0  0  0
 34 35  1  0  0  0  0
 37 38  1  0  0  0  0
 38 39  1  0  0  0  0
 39 40  1  0  0  0  0
 41 36  1  0  0  0  0
 41 40  1  0  0  0  0
 42 41  1  0  0  0  0
 43 42  1  0  0  0  0
 43 38  1  0  0  0  0
M  END
>  <minimizedAffinity>
-4.29239035

>  <minimizedRMSD>
1.81919515

$$$$
