
 OpenBabel03252509003D

 43 45  0  0  1  0  0  0  0  0999 V2000
   46.6130   34.5370   43.6250 N   0  0  0  0  0  0  0  0  0  0  0  0
   46.1180   35.5170   42.7170 C   0  0  0  0  0  0  0  0  0  0  0  0
   44.6120   35.6770   42.7100 C   0  0  0  0  0  0  0  0  0  0  0  0
   43.9610   35.4710   44.0420 C   0  0  0  0  0  0  0  0  0  0  0  0
   44.9710   35.2080   45.1300 C   0  0  0  0  0  0  0  0  0  0  0  0
   45.7860   33.9820   44.5860 C   0  0  2  0  0  0  0  0  0  0  0  0
   46.5220   36.5160   43.0540 H   0  0  0  0  0  0  0  0  0  0  0  0
   46.4400   35.4190   41.6760 H   0  0  0  0  0  0  0  0  0  0  0  0
   44.2200   34.8620   42.0510 H   0  0  0  0  0  0  0  0  0  0  0  0
   44.3620   36.6280   42.2270 H   0  0  0  0  0  0  0  0  0  0  0  0
   43.4850   36.4580   44.3100 H   0  0  0  0  0  0  0  0  0  0  0  0
   43.1700   34.7190   44.0710 H   0  0  0  0  0  0  0  0  0  0  0  0
   44.4950   34.8710   46.0500 H   0  0  0  0  0  0  0  0  0  0  0  0
   45.6790   36.0550   45.2370 H   0  0  0  0  0  0  0  0  0  0  0  0
   45.0110   33.2630   44.2820 H   0  0  0  0  0  0  0  0  0  0  0  0
   47.7050   33.7700   43.1150 C   0  0  0  0  0  0  0  0  0  0  0  0
   48.2940   33.3150   43.9290 H   0  0  0  0  0  0  0  0  0  0  0  0
   48.3710   34.4420   42.5420 H   0  0  0  0  0  0  0  0  0  0  0  0
   47.1660   32.6750   42.2450 C   0  0  0  0  0  0  0  0  0  0  0  0
   47.3830   31.6760   42.6440 H   0  0  0  0  0  0  0  0  0  0  0  0
   46.0450   32.7170   42.1530 H   0  0  0  0  0  0  0  0  0  0  0  0
   49.3060   32.1150   39.2120 C   0  0  0  0  0  0  0  0  0  0  0  0
   48.7720   31.9950   40.5040 C   0  0  0  0  0  0  0  0  0  0  0  0
   47.7240   32.8070   40.8810 C   0  0  0  0  0  0  0  0  0  0  0  0
   47.2550   33.6900   39.9760 N   0  0  0  0  0  0  0  0  0  0  0  0
   47.7810   33.7920   38.7380 C   0  0  0  0  0  0  0  0  0  0  0  0
   48.8020   33.0140   38.3420 N   0  0  0  0  0  0  0  0  0  0  0  0
   50.1250   31.5050   38.8660 H   0  0  0  0  0  0  0  0  0  0  0  0
   49.2280   31.2570   41.1310 H   0  0  0  0  0  0  0  0  0  0  0  0
   47.2660   34.5610   38.1600 H   0  0  0  0  0  0  0  0  0  0  0  0
   46.4990   33.5940   45.7090 O   0  0  0  0  0  0  0  0  0  0  0  0
   45.6150   31.1830   45.0340 O   0  0  0  0  0  0  0  0  0  0  0  0
   46.1660   32.0200   46.1940 P   0  0  2  0  0  0  0  0  0  0  0  0
   44.8740   32.1260   47.3090 O   0  0  0  0  0  0  0  0  0  0  0  0
   45.2560   32.4900   48.1590 H   0  0  0  0  0  0  0  0  0  0  0  0
   47.4390   31.2790   46.9640 O   0  0  0  0  0  0  0  0  0  0  0  0
   48.2510   26.2430   47.4220 H   0  0  0  0  0  0  0  0  0  0  0  0
   48.1250   27.2530   47.5520 N   0  0  0  0  0  0  0  0  0  0  0  0
   46.8100   27.6780   47.1610 C   0  0  0  0  0  2  0  0  0  0  0  0
   46.6650   29.1330   47.5760 C   0  0  0  0  0  2  0  0  0  0  0  0
   47.5960   29.9390   46.6830 C   0  0  0  0  0  3  0  0  0  0  0  0
   49.0010   29.4620   46.9840 C   0  0  0  0  0  2  0  0  0  0  0  0
   49.1010   27.9780   46.7860 C   0  0  0  0  0  2  0  0  0  0  0  0
  1  6  1  0  0  0  0
  2  7  1  0  0  0  0
  2  1  1  0  0  0  0
  3  2  1  0  0  0  0
  3  4  1  0  0  0  0
  4 12  1  0  0  0  0
  4 11  1  0  0  0  0
  4  5  1  0  0  0  0
  5 14  1  0  0  0  0
  5 13  1  0  0  0  0
  6 15  1  6  0  0  0
  6  5  1  0  0  0  0
  6 31  1  0  0  0  0
  8  2  1  0  0  0  0
  9  3  1  0  0  0  0
 10  3  1  0  0  0  0
 16  1  1  0  0  0  0
 16 17  1  0  0  0  0
 18 16  1  0  0  0  0
 19 20  1  0  0  0  0
 19 16  1  0  0  0  0
 21 19  1  0  0  0  0
 22 23  1  0  0  0  0
 23 24  2  0  0  0  0
 23 29  1  0  0  0  0
 24 19  1  0  0  0  0
 25 24  1  0  0  0  0
 26 25  2  0  0  0  0
 27 26  1  0  0  0  0
 27 22  2  0  0  0  0
 28 22  1  0  0  0  0
 30 26  1  0  0  0  0
 31 33  1  0  0  0  0
 33 32  2  6  0  0  0
 33 36  1  0  0  0  0
 33 34  1  0  0  0  0
 34 35  1  0  0  0  0
 37 38  1  0  0  0  0
 39 38  1  0  0  0  0
 39 40  1  0  0  0  0
 41 36  1  0  0  0  0
 41 42  1  0  0  0  0
 41 40  1  0  0  0  0
 43 42  1  0  0  0  0
 43 38  1  0  0  0  0
M  END
>  <minimizedAffinity>
-4.36875772

>  <minimizedRMSD>
1.70676577

$$$$
