
 OpenBabel03242518153D

 30 32  0  0  0  0  0  0  0  0999 V2000
   47.0550   32.7420   43.9840 C   0  0  0  0  0  0  0  0  0  0  0  0
   47.2810   32.5850   45.0620 H   0  0  0  0  0  0  0  0  0  0  0  0
   46.7250   33.8270   43.9560 H   0  0  0  0  0  0  0  0  0  0  0  0
   45.9470   31.9420   43.6180 C   0  0  0  0  0  0  0  0  0  0  0  0
   45.5390   30.6020   43.8130 C   0  0  0  0  0  0  0  0  0  0  0  0
   44.3780   30.1440   43.2890 C   0  0  0  0  0  0  0  0  0  0  0  0
   43.5960   31.0750   42.5400 C   0  0  0  0  0  0  0  0  0  0  0  0
   44.5270   32.6160   42.5840 S   0  0  0  0  0  0  0  0  0  0  0  0
   46.2500   30.0460   44.4010 H   0  0  0  0  0  0  0  0  0  0  0  0
   44.0560   29.1310   43.4280 H   0  0  0  0  0  0  0  0  0  0  0  0
   42.4590   30.8630   41.9510 O   0  0  0  0  0  0  0  0  0  0  0  0
   40.8170   27.5340   43.1490 H   0  0  0  0  0  0  0  0  0  0  0  0
   39.9360   28.0320   42.9400 N   0  0  0  0  0  0  0  0  0  0  0  0
   39.7090   29.1990   43.7710 C   0  0  0  0  0  0  0  0  0  0  0  0
   40.7100   30.2800   43.4190 C   0  0  0  0  0  0  0  0  0  0  0  0
   41.6490   29.7620   42.3390 C   0  0  0  0  0  0  0  0  0  0  0  0
   40.7770   29.4030   41.1550 C   0  0  0  0  0  0  0  0  0  0  0  0
   39.7900   28.3410   41.5310 C   0  0  0  0  0  0  0  0  0  0  0  0
   48.3120   32.5790   43.2320 C   0  0  0  0  0  0  0  0  0  0  0  0
   49.2220   32.4810   43.8590 H   0  0  0  0  0  0  0  0  0  0  0  0
   48.2590   31.6150   42.6480 H   0  0  0  0  0  0  0  0  0  0  0  0
   48.4860   33.6770   42.2820 C   0  0  0  0  0  0  0  0  0  0  0  0
   49.1430   34.8390   42.6330 C   0  0  0  0  0  0  0  0  0  0  0  0
   49.2690   35.8380   41.6820 C   0  0  0  0  0  0  0  0  0  0  0  0
   48.7390   35.6290   40.4490 N   0  0  0  0  0  0  0  0  0  0  0  0
   48.1040   34.4790   40.1450 C   0  0  0  0  0  0  0  0  0  0  0  0
   47.9800   33.5270   41.0370 N   0  0  0  0  0  0  0  0  0  0  0  0
   49.5490   34.9590   43.6310 H   0  0  0  0  0  0  0  0  0  0  0  0
   49.7740   36.7520   41.9250 H   0  0  0  0  0  0  0  0  0  0  0  0
   47.7010   34.3660   39.1450 H   0  0  0  0  0  0  0  0  0  0  0  0
  1  2  1  0  0  0  0
  3  1  1  0  0  0  0
  4  5  2  0  0  0  0
  4  1  1  0  0  0  0
  5  9  1  0  0  0  0
  6 10  1  0  0  0  0
  6  5  1  0  0  0  0
  7  8  1  0  0  0  0
  7  6  2  0  0  0  0
  8  4  1  0  0  0  0
 11 16  1  0  0  0  0
 11  7  1  0  0  0  0
 13 12  1  0  0  0  0
 13 14  1  0  0  0  0
 15 14  1  0  0  0  0
 16 15  1  0  0  0  0
 17 18  1  0  0  0  0
 17 16  1  0  0  0  0
 18 13  1  0  0  0  0
 19 20  1  0  0  0  0
 19  1  1  0  0  0  0
 21 19  1  0  0  0  0
 22 23  1  0  0  0  0
 22 19  1  0  0  0  0
 23 28  1  0  0  0  0
 24 29  1  0  0  0  0
 24 23  2  0  0  0  0
 25 24  1  0  0  0  0
 26 25  2  0  0  0  0
 26 27  1  0  0  0  0
 27 22  2  0  0  0  0
 30 26  1  0  0  0  0
M  END
>  <minimizedAffinity>
-3.64889121

>  <minimizedRMSD>
9.11559486

$$$$
