
 OpenBabel03252508273D

 23 25  0  0  0  0  0  0  0  0999 V2000
   37.3920   30.1090   41.1860 C   0  0  0  0  0  0  0  0  0  0  0  0
   36.3080   29.3880   40.7600 C   0  0  0  0  0  0  0  0  0  0  0  0
   36.2930   28.1550   41.4060 C   0  0  0  0  0  0  0  0  0  0  0  0
   37.3760   28.1690   42.2090 N   0  0  0  0  0  0  0  0  0  0  0  0
   38.0270   29.3110   42.0880 N   0  0  0  0  0  0  0  0  0  0  0  0
   35.5920   29.7650   40.0230 H   0  0  0  0  0  0  0  0  0  0  0  0
   35.5410   27.4050   41.2430 H   0  0  0  0  0  0  0  0  0  0  0  0
   37.4450   33.5300   39.6050 C   0  0  0  0  0  0  0  0  0  0  0  0
   36.9580   32.2420   39.9570 C   0  0  0  0  0  0  0  0  0  0  0  0
   37.7670   31.4490   40.7530 C   0  0  0  0  0  0  0  0  0  0  0  0
   38.9750   31.9430   41.1530 N   0  0  0  0  0  0  0  0  0  0  0  0
   39.4090   33.1700   40.8020 C   0  0  0  0  0  0  0  0  0  0  0  0
   38.6360   33.9460   40.0330 N   0  0  0  0  0  0  0  0  0  0  0  0
   36.8230   34.1660   38.9800 H   0  0  0  0  0  0  0  0  0  0  0  0
   36.0140   31.8780   39.6330 H   0  0  0  0  0  0  0  0  0  0  0  0
   40.3750   33.5370   41.1350 H   0  0  0  0  0  0  0  0  0  0  0  0
   38.9330   24.2560   43.8770 H   0  0  0  0  0  0  0  0  0  0  0  0
   39.3790   24.6960   43.0610 N   0  0  0  0  0  0  0  0  0  0  0  0
   38.5030   24.8790   41.9420 C   0  0  0  0  0  2  0  0  0  0  0  0
   37.3370   25.7750   42.2540 C   0  0  0  0  0  2  0  0  0  0  0  0
   37.6460   27.0040   43.0330 C   0  0  0  0  0  3  0  0  0  0  0  0
   38.9750   27.0580   43.6800 C   0  0  0  0  0  2  0  0  0  0  0  0
   39.9540   25.9950   43.3200 C   0  0  0  0  0  2  0  0  0  0  0  0
  1  5  2  0  0  0  0
  2  1  1  0  0  0  0
  2  3  2  0  0  0  0
  3  4  1  0  0  0  0
  4 21  1  0  0  0  0
  5  4  1  0  0  0  0
  6  2  1  0  0  0  0
  7  3  1  0  0  0  0
  8  9  2  0  0  0  0
  8 13  1  0  0  0  0
  9 10  1  0  0  0  0
 10 11  2  0  0  0  0
 10  1  1  0  0  0  0
 12 16  1  0  0  0  0
 12 11  1  0  0  0  0
 13 12  2  0  0  0  0
 14  8  1  0  0  0  0
 15  9  1  0  0  0  0
 18 23  1  0  0  0  0
 18 17  1  0  0  0  0
 19 20  1  0  0  0  0
 19 18  1  0  0  0  0
 20 21  1  0  0  0  0
 21 22  1  0  0  0  0
 23 22  1  0  0  0  0
M  END
>  <minimizedAffinity>
-5.0646081

$$$$

 OpenBabel03252508273D

 23 25  0  0  0  0  0  0  0  0999 V2000
   38.8770   30.0810   41.7720 C   0  0  0  0  0  0  0  0  0  0  0  0
   40.1340   29.8460   42.2650 C   0  0  0  0  0  0  0  0  0  0  0  0
   40.1560   28.6050   42.8970 C   0  0  0  0  0  0  0  0  0  0  0  0
   38.9030   28.1250   42.7660 N   0  0  0  0  0  0  0  0  0  0  0  0
   38.1450   28.9820   42.1070 N   0  0  0  0  0  0  0  0  0  0  0  0
   40.9610   30.5540   42.1530 H   0  0  0  0  0  0  0  0  0  0  0  0
   41.0290   28.1910   43.3660 H   0  0  0  0  0  0  0  0  0  0  0  0
   37.0450   32.4850   39.5210 C   0  0  0  0  0  0  0  0  0  0  0  0
   37.3670   31.2610   40.1680 C   0  0  0  0  0  0  0  0  0  0  0  0
   38.4380   31.2640   41.0440 C   0  0  0  0  0  0  0  0  0  0  0  0
   39.1200   32.4310   41.2380 N   0  0  0  0  0  0  0  0  0  0  0  0
   38.7890   33.5770   40.6090 C   0  0  0  0  0  0  0  0  0  0  0  0
   37.7550   33.5860   39.7600 N   0  0  0  0  0  0  0  0  0  0  0  0
   36.2060   32.5010   38.8300 H   0  0  0  0  0  0  0  0  0  0  0  0
   36.8230   30.3640   40.0010 H   0  0  0  0  0  0  0  0  0  0  0  0
   39.3490   34.4910   40.7830 H   0  0  0  0  0  0  0  0  0  0  0  0
   38.2970   23.6920   43.4650 H   0  0  0  0  0  0  0  0  0  0  0  0
   38.8190   24.0290   42.6460 N   0  0  0  0  0  0  0  0  0  0  0  0
   38.0620   24.8860   41.7820 C   0  0  0  0  0  2  0  0  0  0  0  0
   37.5960   26.1410   42.4670 C   0  0  0  0  0  2  0  0  0  0  0  0
   38.5950   26.8230   43.3310 C   0  0  0  0  0  3  0  0  0  0  0  0
   39.8080   26.0510   43.6760 C   0  0  0  0  0  2  0  0  0  0  0  0
   40.0230   24.7610   42.9610 C   0  0  0  0  0  2  0  0  0  0  0  0
  1  5  2  0  0  0  0
  1  2  1  0  0  0  0
  2  3  2  0  0  0  0
  3  7  1  0  0  0  0
  4  3  1  0  0  0  0
  4 21  1  0  0  0  0
  5  4  1  0  0  0  0
  6  2  1  0  0  0  0
  8 13  2  0  0  0  0
  8  9  1  0  0  0  0
  9 10  2  0  0  0  0
 10 11  1  0  0  0  0
 10  1  1  0  0  0  0
 12 16  1  0  0  0  0
 12 11  2  0  0  0  0
 13 12  1  0  0  0  0
 14  8  1  0  0  0  0
 15  9  1  0  0  0  0
 18 23  1  0  0  0  0
 18 17  1  0  0  0  0
 19 20  1  0  0  0  0
 19 18  1  0  0  0  0
 20 21  1  0  0  0  0
 21 22  1  0  0  0  0
 23 22  1  0  0  0  0
M  END
>  <minimizedAffinity>
-4.93139935

$$$$

 OpenBabel03252508273D

 23 25  0  0  0  0  0  0  0  0999 V2000
   37.9600   29.0680   42.0900 C   0  0  0  0  0  0  0  0  0  0  0  0
   37.8180   28.8360   43.4330 C   0  0  0  0  0  0  0  0  0  0  0  0
   37.9180   27.4680   43.6760 C   0  0  0  0  0  0  0  0  0  0  0  0
   38.1190   26.9130   42.4650 N   0  0  0  0  0  0  0  0  0  0  0  0
   38.1460   27.8420   41.5270 N   0  0  0  0  0  0  0  0  0  0  0  0
   37.6530   29.6340   44.1640 H   0  0  0  0  0  0  0  0  0  0  0  0
   37.8400   27.0290   44.6540 H   0  0  0  0  0  0  0  0  0  0  0  0
   36.9340   32.0790   40.0680 C   0  0  0  0  0  0  0  0  0  0  0  0
   36.8450   30.7900   40.6630 C   0  0  0  0  0  0  0  0  0  0  0  0
   37.9190   30.3640   41.4260 C   0  0  0  0  0  0  0  0  0  0  0  0
   38.9930   31.1960   41.5640 N   0  0  0  0  0  0  0  0  0  0  0  0
   39.0470   32.4130   40.9870 C   0  0  0  0  0  0  0  0  0  0  0  0
   38.0150   32.8360   40.2470 N   0  0  0  0  0  0  0  0  0  0  0  0
   36.1000   32.4300   39.4660 H   0  0  0  0  0  0  0  0  0  0  0  0
   35.9990   30.1600   40.5410 H   0  0  0  0  0  0  0  0  0  0  0  0
   39.9150   33.0530   41.1140 H   0  0  0  0  0  0  0  0  0  0  0  0
   38.0110   22.5750   41.1670 H   0  0  0  0  0  0  0  0  0  0  0  0
   37.7720   23.3270   40.5080 N   0  0  0  0  0  0  0  0  0  0  0  0
   36.6680   24.1410   40.9230 C   0  0  0  0  0  2  0  0  0  0  0  0
   36.9230   24.8520   42.2230 C   0  0  0  0  0  2  0  0  0  0  0  0
   38.2670   25.4700   42.3770 C   0  0  0  0  0  3  0  0  0  0  0  0
   39.2980   25.0610   41.4000 C   0  0  0  0  0  2  0  0  0  0  0  0
   38.8500   24.2480   40.2340 C   0  0  0  0  0  2  0  0  0  0  0  0
  1  2  1  0  0  0  0
  2  3  2  0  0  0  0
  2  6  1  0  0  0  0
  3  7  1  0  0  0  0
  4  3  1  0  0  0  0
  5  1  2  0  0  0  0
  5  4  1  0  0  0  0
  8 13  2  0  0  0  0
  8  9  1  0  0  0  0
  9 10  2  0  0  0  0
 10 11  1  0  0  0  0
 10  1  1  0  0  0  0
 12 16  1  0  0  0  0
 12 11  2  0  0  0  0
 13 12  1  0  0  0  0
 14  8  1  0  0  0  0
 15  9  1  0  0  0  0
 18 19  1  0  0  0  0
 18 17  1  0  0  0  0
 19 20  1  0  0  0  0
 20 21  1  0  0  0  0
 21  4  1  0  0  0  0
 22 21  1  0  0  0  0
 23 18  1  0  0  0  0
 23 22  1  0  0  0  0
M  END
>  <minimizedAffinity>
-4.72755766

$$$$

 OpenBabel03252508273D

 23 25  0  0  0  0  0  0  0  0999 V2000
   37.9340   30.0040   41.1670 C   0  0  0  0  0  0  0  0  0  0  0  0
   37.2510   29.5320   42.2570 C   0  0  0  0  0  0  0  0  0  0  0  0
   37.3160   28.1410   42.2750 C   0  0  0  0  0  0  0  0  0  0  0  0
   38.0420   27.8130   41.1870 N   0  0  0  0  0  0  0  0  0  0  0  0
   38.4090   28.8980   40.5300 N   0  0  0  0  0  0  0  0  0  0  0  0
   36.7480   30.1870   42.9760 H   0  0  0  0  0  0  0  0  0  0  0  0
   36.8580   27.5330   43.0320 H   0  0  0  0  0  0  0  0  0  0  0  0
   39.2340   33.5150   40.7350 C   0  0  0  0  0  0  0  0  0  0  0  0
   39.1920   32.1630   41.1740 C   0  0  0  0  0  0  0  0  0  0  0  0
   38.1040   31.4010   40.7880 C   0  0  0  0  0  0  0  0  0  0  0  0
   37.1400   31.9820   40.0150 N   0  0  0  0  0  0  0  0  0  0  0  0
   37.2090   33.2680   39.6150 C   0  0  0  0  0  0  0  0  0  0  0  0
   38.2560   34.0150   39.9820 N   0  0  0  0  0  0  0  0  0  0  0  0
   40.0830   34.1280   41.0280 H   0  0  0  0  0  0  0  0  0  0  0  0
   39.9540   31.7320   41.7750 H   0  0  0  0  0  0  0  0  0  0  0  0
   36.4270   33.7040   39.0000 H   0  0  0  0  0  0  0  0  0  0  0  0
   38.7320   23.3500   41.5230 H   0  0  0  0  0  0  0  0  0  0  0  0
   38.3810   23.8900   42.3240 N   0  0  0  0  0  0  0  0  0  0  0  0
   39.2560   24.9410   42.7500 C   0  0  0  0  0  2  0  0  0  0  0  0
   39.4920   25.9730   41.6830 C   0  0  0  0  0  2  0  0  0  0  0  0
   38.2940   26.4080   40.9170 C   0  0  0  0  0  3  0  0  0  0  0  0
   37.0810   25.5740   41.0590 C   0  0  0  0  0  2  0  0  0  0  0  0
   37.0980   24.5160   42.1090 C   0  0  0  0  0  2  0  0  0  0  0  0
  1  2  1  0  0  0  0
  2  3  2  0  0  0  0
  2  6  1  0  0  0  0
  3  7  1  0  0  0  0
  4  3  1  0  0  0  0
  5  1  2  0  0  0  0
  5  4  1  0  0  0  0
  8 14  1  0  0  0  0
  8  9  1  0  0  0  0
  9 15  1  0  0  0  0
 10  1  1  0  0  0  0
 10  9  2  0  0  0  0
 11 10  1  0  0  0  0
 12 13  1  0  0  0  0
 12 11  2  0  0  0  0
 13  8  2  0  0  0  0
 16 12  1  0  0  0  0
 17 18  1  0  0  0  0
 18 19  1  0  0  0  0
 20 19  1  0  0  0  0
 21 22  1  0  0  0  0
 21  4  1  0  0  0  0
 21 20  1  0  0  0  0
 22 23  1  0  0  0  0
 23 18  1  0  0  0  0
M  END
>  <minimizedAffinity>
-4.66899538

$$$$

 OpenBabel03252508273D

 23 25  0  0  0  0  0  0  0  0999 V2000
   37.9510   29.4930   40.9740 C   0  0  0  0  0  0  0  0  0  0  0  0
   38.1470   30.0420   42.2140 C   0  0  0  0  0  0  0  0  0  0  0  0
   38.2350   29.0240   43.1600 C   0  0  0  0  0  0  0  0  0  0  0  0
   38.0880   27.8820   42.4570 N   0  0  0  0  0  0  0  0  0  0  0  0
   37.9220   28.1460   41.1740 N   0  0  0  0  0  0  0  0  0  0  0  0
   38.2170   31.1210   42.3850 H   0  0  0  0  0  0  0  0  0  0  0  0
   38.3880   29.1960   44.2090 H   0  0  0  0  0  0  0  0  0  0  0  0
   37.4700   32.1650   38.3600 C   0  0  0  0  0  0  0  0  0  0  0  0
   37.5930   31.5830   39.6510 C   0  0  0  0  0  0  0  0  0  0  0  0
   37.8070   30.2170   39.7180 C   0  0  0  0  0  0  0  0  0  0  0  0
   37.8880   29.5110   38.5520 N   0  0  0  0  0  0  0  0  0  0  0  0
   37.7670   30.0930   37.3420 C   0  0  0  0  0  0  0  0  0  0  0  0
   37.5600   31.4120   37.2650 N   0  0  0  0  0  0  0  0  0  0  0  0
   37.3020   33.2370   38.2890 H   0  0  0  0  0  0  0  0  0  0  0  0
   37.5270   32.1520   40.5460 H   0  0  0  0  0  0  0  0  0  0  0  0
   37.8360   29.5050   36.4310 H   0  0  0  0  0  0  0  0  0  0  0  0
   38.7690   23.5780   43.6900 H   0  0  0  0  0  0  0  0  0  0  0  0
   39.2370   23.9680   42.8620 N   0  0  0  0  0  0  0  0  0  0  0  0
   38.3390   24.4550   41.8570 C   0  0  0  0  0  2  0  0  0  0  0  0
   37.4620   25.5730   42.3500 C   0  0  0  0  0  2  0  0  0  0  0  0
   38.1330   26.6170   43.1690 C   0  0  0  0  0  3  0  0  0  0  0  0
   39.4860   26.2940   43.6730 C   0  0  0  0  0  2  0  0  0  0  0  0
   40.1360   25.0630   43.1410 C   0  0  0  0  0  2  0  0  0  0  0  0
  1  5  2  0  0  0  0
  1  2  1  0  0  0  0
  2  6  1  0  0  0  0
  2  3  2  0  0  0  0
  3  7  1  0  0  0  0
  4  3  1  0  0  0  0
  4 21  1  0  0  0  0
  5  4  1  0  0  0  0
  8  9  1  0  0  0  0
  9 10  2  0  0  0  0
  9 15  1  0  0  0  0
 10  1  1  0  0  0  0
 11 10  1  0  0  0  0
 12 11  2  0  0  0  0
 13 12  1  0  0  0  0
 13  8  2  0  0  0  0
 14  8  1  0  0  0  0
 16 12  1  0  0  0  0
 18 23  1  0  0  0  0
 18 17  1  0  0  0  0
 19 20  1  0  0  0  0
 19 18  1  0  0  0  0
 20 21  1  0  0  0  0
 21 22  1  0  0  0  0
 23 22  1  0  0  0  0
M  END
>  <minimizedAffinity>
-4.65231609

$$$$

 OpenBabel03252508273D

 23 25  0  0  0  0  0  0  0  0999 V2000
   38.2370   28.2140   41.7430 C   0  0  0  0  0  0  0  0  0  0  0  0
   37.1190   28.8950   42.1470 C   0  0  0  0  0  0  0  0  0  0  0  0
   36.9610   30.0310   41.3570 C   0  0  0  0  0  0  0  0  0  0  0  0
   37.9950   30.0010   40.4930 N   0  0  0  0  0  0  0  0  0  0  0  0
   38.7500   28.9390   40.7100 N   0  0  0  0  0  0  0  0  0  0  0  0
   36.4790   28.5580   42.9700 H   0  0  0  0  0  0  0  0  0  0  0  0
   36.1560   30.7320   41.4760 H   0  0  0  0  0  0  0  0  0  0  0  0
   40.2120   25.6540   43.6800 C   0  0  0  0  0  0  0  0  0  0  0  0
   39.8100   26.9310   43.2010 C   0  0  0  0  0  0  0  0  0  0  0  0
   38.7510   26.9750   42.3110 C   0  0  0  0  0  0  0  0  0  0  0  0
   38.1560   25.8010   41.9460 N   0  0  0  0  0  0  0  0  0  0  0  0
   38.5610   24.6050   42.4190 C   0  0  0  0  0  0  0  0  0  0  0  0
   39.5840   24.5510   43.2790 N   0  0  0  0  0  0  0  0  0  0  0  0
   41.0430   25.6020   44.3800 H   0  0  0  0  0  0  0  0  0  0  0  0
   40.2880   27.8320   43.4990 H   0  0  0  0  0  0  0  0  0  0  0  0
   38.0680   23.6880   42.1110 H   0  0  0  0  0  0  0  0  0  0  0  0
   38.7610   33.9390   38.3920 H   0  0  0  0  0  0  0  0  0  0  0  0
   39.1120   33.7740   39.3440 N   0  0  0  0  0  0  0  0  0  0  0  0
   38.0880   33.4820   40.3040 C   0  0  0  0  0  2  0  0  0  0  0  0
   37.3150   32.2370   39.9720 C   0  0  0  0  0  2  0  0  0  0  0  0
   38.1170   31.0700   39.5180 C   0  0  0  0  0  3  0  0  0  0  0  0
   39.5210   31.3410   39.1410 C   0  0  0  0  0  2  0  0  0  0  0  0
   40.0640   32.6930   39.4530 C   0  0  0  0  0  2  0  0  0  0  0  0
  1  2  1  0  0  0  0
  1 10  1  0  0  0  0
  2  6  1  0  0  0  0
  3  7  1  0  0  0  0
  3  2  2  0  0  0  0
  4  5  1  0  0  0  0
  4  3  1  0  0  0  0
  5  1  2  0  0  0  0
  8 14  1  0  0  0  0
  9 15  1  0  0  0  0
  9  8  2  0  0  0  0
 10  9  1  0  0  0  0
 11 10  2  0  0  0  0
 11 12  1  0  0  0  0
 12 13  2  0  0  0  0
 13  8  1  0  0  0  0
 16 12  1  0  0  0  0
 17 18  1  0  0  0  0
 18 23  1  0  0  0  0
 18 19  1  0  0  0  0
 20 19  1  0  0  0  0
 21 20  1  0  0  0  0
 21  4  1  0  0  0  0
 22 23  1  0  0  0  0
 22 21  1  0  0  0  0
M  END
>  <minimizedAffinity>
-4.60749054

$$$$

 OpenBabel03252508273D

 23 25  0  0  0  0  0  0  0  0999 V2000
   38.5560   28.5660   41.4400 C   0  0  0  0  0  0  0  0  0  0  0  0
   38.9170   29.4910   42.3840 C   0  0  0  0  0  0  0  0  0  0  0  0
   38.9840   30.7500   41.7930 C   0  0  0  0  0  0  0  0  0  0  0  0
   38.6590   30.5460   40.5010 N   0  0  0  0  0  0  0  0  0  0  0  0
   38.4060   29.2690   40.2830 N   0  0  0  0  0  0  0  0  0  0  0  0
   39.1120   29.2330   43.4300 H   0  0  0  0  0  0  0  0  0  0  0  0
   39.2470   31.6460   42.3260 H   0  0  0  0  0  0  0  0  0  0  0  0
   37.1080   25.1480   42.0900 C   0  0  0  0  0  0  0  0  0  0  0  0
   37.1440   26.5560   41.9000 C   0  0  0  0  0  0  0  0  0  0  0  0
   38.3760   27.1360   41.6520 C   0  0  0  0  0  0  0  0  0  0  0  0
   39.4780   26.3320   41.6030 N   0  0  0  0  0  0  0  0  0  0  0  0
   39.4110   24.9980   41.7880 C   0  0  0  0  0  0  0  0  0  0  0  0
   38.2260   24.4260   42.0280 N   0  0  0  0  0  0  0  0  0  0  0  0
   36.1480   24.6760   42.2850 H   0  0  0  0  0  0  0  0  0  0  0  0
   36.2730   27.1630   41.9430 H   0  0  0  0  0  0  0  0  0  0  0  0
   40.3050   24.3830   41.7430 H   0  0  0  0  0  0  0  0  0  0  0  0
   39.0430   33.3130   36.9360 H   0  0  0  0  0  0  0  0  0  0  0  0
   39.1480   32.2960   36.8270 N   0  0  0  0  0  0  0  0  0  0  0  0
   40.2070   31.7290   37.6080 C   0  0  0  0  0  2  0  0  0  0  0  0
   40.0120   31.9250   39.0850 C   0  0  0  0  0  2  0  0  0  0  0  0
   38.6380   31.6860   39.6010 C   0  0  0  0  0  3  0  0  0  0  0  0
   37.5600   31.5950   38.5920 C   0  0  0  0  0  2  0  0  0  0  0  0
   37.9690   31.5330   37.1600 C   0  0  0  0  0  2  0  0  0  0  0  0
  1 10  1  0  0  0  0
  1  2  1  0  0  0  0
  2  6  1  0  0  0  0
  3  7  1  0  0  0  0
  3  2  2  0  0  0  0
  4  3  1  0  0  0  0
  5  4  1  0  0  0  0
  5  1  2  0  0  0  0
  8 14  1  0  0  0  0
  9 15  1  0  0  0  0
  9  8  2  0  0  0  0
 10  9  1  0  0  0  0
 11 10  2  0  0  0  0
 11 12  1  0  0  0  0
 12 13  2  0  0  0  0
 13  8  1  0  0  0  0
 16 12  1  0  0  0  0
 18 17  1  0  0  0  0
 18 23  1  0  0  0  0
 18 19  1  0  0  0  0
 19 20  1  0  0  0  0
 20 21  1  0  0  0  0
 21  4  1  0  0  0  0
 22 21  1  0  0  0  0
 23 22  1  0  0  0  0
M  END
>  <minimizedAffinity>
-4.60328102

$$$$

 OpenBabel03252508273D

 23 25  0  0  0  0  0  0  0  0999 V2000
   38.7020   31.7530   39.8090 C   0  0  0  0  0  0  0  0  0  0  0  0
   37.3920   31.8100   39.4100 C   0  0  0  0  0  0  0  0  0  0  0  0
   36.6280   30.9750   40.2200 C   0  0  0  0  0  0  0  0  0  0  0  0
   37.5050   30.4350   41.0900 N   0  0  0  0  0  0  0  0  0  0  0  0
   38.7240   30.8850   40.8580 N   0  0  0  0  0  0  0  0  0  0  0  0
   37.0480   32.4310   38.5760 H   0  0  0  0  0  0  0  0  0  0  0  0
   35.5670   30.8440   40.1090 H   0  0  0  0  0  0  0  0  0  0  0  0
   41.3860   33.0210   37.4860 C   0  0  0  0  0  0  0  0  0  0  0  0
   40.2860   32.2420   37.9380 C   0  0  0  0  0  0  0  0  0  0  0  0
   39.8200   32.4780   39.2200 C   0  0  0  0  0  0  0  0  0  0  0  0
   40.4360   33.4370   39.9720 N   0  0  0  0  0  0  0  0  0  0  0  0
   41.4780   34.1590   39.5150 C   0  0  0  0  0  0  0  0  0  0  0  0
   41.9370   33.9400   38.2770 N   0  0  0  0  0  0  0  0  0  0  0  0
   41.7640   32.8480   36.4820 H   0  0  0  0  0  0  0  0  0  0  0  0
   39.8220   31.5000   37.3350 H   0  0  0  0  0  0  0  0  0  0  0  0
   41.9480   34.9160   40.1360 H   0  0  0  0  0  0  0  0  0  0  0  0
   36.6470   26.7650   43.6020 H   0  0  0  0  0  0  0  0  0  0  0  0
   37.4160   26.7680   42.9200 N   0  0  0  0  0  0  0  0  0  0  0  0
   37.0020   27.0170   41.5710 C   0  0  0  0  0  2  0  0  0  0  0  0
   36.3490   28.3600   41.3990 C   0  0  0  0  0  2  0  0  0  0  0  0
   37.0100   29.5010   42.0870 C   0  0  0  0  0  3  0  0  0  0  0  0
   38.0290   29.1600   43.1030 C   0  0  0  0  0  2  0  0  0  0  0  0
   38.4550   27.7340   43.1910 C   0  0  0  0  0  2  0  0  0  0  0  0
  1  5  2  0  0  0  0
  2  1  1  0  0  0  0
  2  3  2  0  0  0  0
  3  4  1  0  0  0  0
  4 21  1  0  0  0  0
  5  4  1  0  0  0  0
  6  2  1  0  0  0  0
  7  3  1  0  0  0  0
  8  9  2  0  0  0  0
  8 13  1  0  0  0  0
  9 10  1  0  0  0  0
 10  1  1  0  0  0  0
 10 11  2  0  0  0  0
 12 11  1  0  0  0  0
 12 16  1  0  0  0  0
 13 12  2  0  0  0  0
 14  8  1  0  0  0  0
 15  9  1  0  0  0  0
 18 23  1  0  0  0  0
 18 17  1  0  0  0  0
 19 18  1  0  0  0  0
 20 19  1  0  0  0  0
 20 21  1  0  0  0  0
 21 22  1  0  0  0  0
 22 23  1  0  0  0  0
M  END
>  <minimizedAffinity>
-4.59242678

$$$$

 OpenBabel03252508273D

 23 25  0  0  0  0  0  0  0  0999 V2000
   36.0400   29.5610   39.3750 C   0  0  0  0  0  0  0  0  0  0  0  0
   36.2140   30.7570   40.0200 C   0  0  0  0  0  0  0  0  0  0  0  0
   36.6650   30.5180   41.3160 C   0  0  0  0  0  0  0  0  0  0  0  0
   36.7500   29.1760   41.4140 N   0  0  0  0  0  0  0  0  0  0  0  0
   36.3860   28.6050   40.2810 N   0  0  0  0  0  0  0  0  0  0  0  0
   36.0160   31.7250   39.5490 H   0  0  0  0  0  0  0  0  0  0  0  0
   36.8770   31.2960   42.0260 H   0  0  0  0  0  0  0  0  0  0  0  0
   33.9870   28.7960   36.3070 C   0  0  0  0  0  0  0  0  0  0  0  0
   34.3060   28.9360   37.6860 C   0  0  0  0  0  0  0  0  0  0  0  0
   35.5800   29.3740   38.0050 C   0  0  0  0  0  0  0  0  0  0  0  0
   36.4510   29.6450   36.9880 N   0  0  0  0  0  0  0  0  0  0  0  0
   36.1180   29.5020   35.6900 C   0  0  0  0  0  0  0  0  0  0  0  0
   34.8890   29.0800   35.3700 N   0  0  0  0  0  0  0  0  0  0  0  0
   32.9910   28.4540   36.0390 H   0  0  0  0  0  0  0  0  0  0  0  0
   33.6120   28.7190   38.4600 H   0  0  0  0  0  0  0  0  0  0  0  0
   36.8310   29.7260   34.9030 H   0  0  0  0  0  0  0  0  0  0  0  0
   38.8340   26.7300   44.6060 H   0  0  0  0  0  0  0  0  0  0  0  0
   39.1760   26.7310   43.6360 N   0  0  0  0  0  0  0  0  0  0  0  0
   38.2160   26.2740   42.6750 C   0  0  0  0  0  2  0  0  0  0  0  0
   36.9800   27.1280   42.6330 C   0  0  0  0  0  2  0  0  0  0  0  0
   37.2000   28.5980   42.6680 C   0  0  0  0  0  3  0  0  0  0  0  0
   38.5530   29.0550   43.0540 C   0  0  0  0  0  2  0  0  0  0  0  0
   39.6190   28.0200   43.1580 C   0  0  0  0  0  2  0  0  0  0  0  0
  1  2  1  0  0  0  0
  1  5  2  0  0  0  0
  2  3  2  0  0  0  0
  3  4  1  0  0  0  0
  3  7  1  0  0  0  0
  4 21  1  0  0  0  0
  5  4  1  0  0  0  0
  6  2  1  0  0  0  0
  8  9  1  0  0  0  0
  9 10  2  0  0  0  0
  9 15  1  0  0  0  0
 10  1  1  0  0  0  0
 11 10  1  0  0  0  0
 12 11  2  0  0  0  0
 13 12  1  0  0  0  0
 13  8  2  0  0  0  0
 14  8  1  0  0  0  0
 16 12  1  0  0  0  0
 18 17  1  0  0  0  0
 19 18  1  0  0  0  0
 20 21  1  0  0  0  0
 20 19  1  0  0  0  0
 21 22  1  0  0  0  0
 22 23  1  0  0  0  0
 23 18  1  0  0  0  0
M  END
>  <minimizedAffinity>
-4.58221436

$$$$
