
 OpenBabel03252500443D

 32 34  0  0  1  0  0  0  0  0999 V2000
   47.6330   35.1060   41.7350 C   0  0  1  0  0  0  0  0  0  0  0  0
   49.1230   34.8320   41.5350 C   0  0  0  0  0  0  0  0  0  0  0  0
   48.1700   34.8650   40.3610 C   0  0  1  0  0  0  0  0  0  0  0  0
   47.4620   36.1760   41.9570 H   0  0  0  0  0  0  0  0  0  0  0  0
   49.5210   33.8690   41.8860 H   0  0  0  0  0  0  0  0  0  0  0  0
   49.8470   35.6530   41.5510 H   0  0  0  0  0  0  0  0  0  0  0  0
   48.2450   35.7090   39.6510 H   0  0  0  0  0  0  0  0  0  0  0  0
   46.8150   34.0120   42.3020 C   0  0  0  0  0  0  0  0  0  0  0  0
   47.4920   33.1640   42.6150 H   0  0  0  0  0  0  0  0  0  0  0  0
   46.1440   33.5150   41.5420 H   0  0  0  0  0  0  0  0  0  0  0  0
   46.0710   34.3680   43.5130 C   0  0  0  0  0  0  0  0  0  0  0  0
   45.3310   35.5130   43.3960 C   0  0  0  0  0  0  0  0  0  0  0  0
   44.5750   36.0000   44.4780 C   0  0  0  0  0  0  0  0  0  0  0  0
   44.6470   35.2410   45.6250 N   0  0  0  0  0  0  0  0  0  0  0  0
   45.3840   34.1150   45.7170 C   0  0  0  0  0  0  0  0  0  0  0  0
   46.0910   33.6810   44.6710 N   0  0  0  0  0  0  0  0  0  0  0  0
   45.1440   36.2220   42.6010 H   0  0  0  0  0  0  0  0  0  0  0  0
   43.9540   36.8560   44.5600 H   0  0  0  0  0  0  0  0  0  0  0  0
   45.3790   33.5770   46.6720 H   0  0  0  0  0  0  0  0  0  0  0  0
   47.8660   33.6700   39.7630 O   0  0  0  0  0  0  0  0  0  0  0  0
   48.6720   35.0320   37.6110 O   0  0  0  0  0  0  0  0  0  0  0  0
   48.2110   33.6840   38.1030 P   0  0  1  0  0  0  0  0  0  0  0  0
   49.5410   32.6170   37.8770 O   0  0  0  0  0  0  0  0  0  0  0  0
   49.3090   31.9080   37.2390 H   0  0  0  0  0  0  0  0  0  0  0  0
   46.9040   33.1110   37.2250 O   0  0  0  0  0  0  0  0  0  0  0  0
   45.2680   33.6660   33.9060 H   0  0  0  0  0  0  0  0  0  0  0  0
   45.3500   32.6480   34.1700 N   0  0  0  0  0  0  0  0  0  0  0  0
   44.9440   32.4660   35.5350 C   0  0  0  0  0  0  0  0  0  0  0  0
   45.8230   31.3790   36.1380 C   0  0  0  0  0  0  0  0  0  0  0  0
   47.1750   32.0660   36.3780 C   0  0  0  0  0  0  0  0  0  0  0  0
   47.6520   32.5030   35.0190 C   0  0  0  0  0  0  0  0  0  0  0  0
   46.6870   32.1460   33.9040 C   0  0  0  0  0  0  0  0  0  0  0  0
  1  4  1  1  0  0  0
  1  8  1  0  0  0  0
  2  6  1  0  0  0  0
  2  1  1  0  0  0  0
  2  5  1  0  0  0  0
  3  7  1  6  0  0  0
  3  2  1  0  0  0  0
  3  1  1  0  0  0  0
  8  9  1  0  0  0  0
  8 11  1  0  0  0  0
 10  8  1  0  0  0  0
 11 16  1  0  0  0  0
 12 11  2  0  0  0  0
 12 13  1  0  0  0  0
 13 18  1  0  0  0  0
 13 14  2  0  0  0  0
 14 15  1  0  0  0  0
 15 19  1  0  0  0  0
 16 15  2  0  0  0  0
 17 12  1  0  0  0  0
 20  3  1  0  0  0  0
 22 21  2  6  0  0  0
 22 20  1  0  0  0  0
 23 22  1  0  0  0  0
 24 23  1  0  0  0  0
 25 22  1  0  0  0  0
 26 27  1  0  0  0  0
 27 28  1  0  0  0  0
 28 29  1  0  0  0  0
 29 30  1  0  0  0  0
 30 25  1  0  0  0  0
 31 30  1  0  0  0  0
 32 27  1  0  0  0  0
 32 31  1  0  0  0  0
M  END
>  <minimizedAffinity>
-5.28363705

>  <minimizedRMSD>
3.1859858

$$$$
