
 OpenBabel03252503163D

 34 37  0  0  0  0  0  0  0  0999 V2000
   45.8630   35.0750   42.4630 C   0  0  0  0  0  0  0  0  0  0  0  0
   46.9760   35.6530   42.2580 O   0  0  0  0  0  0  0  0  0  0  0  0
   44.8860   34.7220   41.3690 C   0  0  0  0  0  0  0  0  0  0  0  0
   43.6200   35.2600   41.2010 C   0  0  0  0  0  0  0  0  0  0  0  0
   43.1340   34.6490   40.1090 N   0  0  0  0  0  0  0  0  0  0  0  0
   44.0450   33.7840   39.6290 C   0  0  0  0  0  0  0  0  0  0  0  0
   45.1580   33.8150   40.4110 N   0  0  0  0  0  0  0  0  0  0  0  0
   44.0210   32.8980   38.5020 N   0  0  0  0  0  0  0  0  0  0  0  0
   43.1410   36.0070   41.8200 H   0  0  0  0  0  0  0  0  0  0  0  0
   43.8690   31.8760   38.6900 H   0  0  0  0  0  0  0  0  0  0  0  0
   44.1750   33.5080   37.6470 H   0  0  0  0  0  0  0  0  0  0  0  0
   38.9410   35.0910   38.3730 H   0  0  0  0  0  0  0  0  0  0  0  0
   39.7010   34.7420   37.7820 N   0  0  0  0  0  0  0  0  0  0  0  0
   40.2350   33.4550   38.1610 C   0  0  0  0  0  0  0  0  0  0  0  0
   41.1550   33.5160   39.3440 C   0  0  0  0  0  0  0  0  0  0  0  0
   41.8340   34.8490   39.4940 C   0  0  0  0  0  0  0  0  0  0  0  0
   42.0140   35.5350   38.1320 C   0  0  0  0  0  0  0  0  0  0  0  0
   40.7060   35.7020   37.4530 C   0  0  0  0  0  0  0  0  0  0  0  0
   44.7930   35.6370   44.5870 C   0  0  0  0  0  0  0  0  0  0  0  0
   45.5600   34.7600   43.8180 C   0  0  0  0  0  0  0  0  0  0  0  0
   45.9790   33.6090   44.4730 C   0  0  0  0  0  0  0  0  0  0  0  0
   45.6680   33.3610   45.7460 N   0  0  0  0  0  0  0  0  0  0  0  0
   44.9150   34.2490   46.4590 C   0  0  0  0  0  0  0  0  0  0  0  0
   44.4860   35.3800   45.8690 N   0  0  0  0  0  0  0  0  0  0  0  0
   44.4340   36.5610   44.1260 H   0  0  0  0  0  0  0  0  0  0  0  0
   44.6590   34.0510   47.4970 H   0  0  0  0  0  0  0  0  0  0  0  0
   46.7630   32.6720   43.7590 C   0  0  0  0  0  0  0  0  0  0  0  0
   48.0900   32.5450   43.4850 C   0  0  0  0  0  0  0  0  0  0  0  0
   48.5570   31.5310   42.7670 C   0  0  0  0  0  0  0  0  0  0  0  0
   47.6690   30.6180   42.3130 C   0  0  0  0  0  0  0  0  0  0  0  0
   46.0710   31.2520   42.9510 S   0  0  0  0  0  0  0  0  0  0  0  0
   48.7250   33.3510   43.9070 H   0  0  0  0  0  0  0  0  0  0  0  0
   49.5970   31.3680   42.5110 H   0  0  0  0  0  0  0  0  0  0  0  0
   47.7690   29.7170   41.7220 H   0  0  0  0  0  0  0  0  0  0  0  0
  1 20  1  0  0  0  0
  2  1  2  0  0  0  0
  3  1  1  0  0  0  0
  4  3  2  0  0  0  0
  4  9  1  0  0  0  0
  5  4  1  0  0  0  0
  6  5  1  0  0  0  0
  6  7  2  0  0  0  0
  7  3  1  0  0  0  0
  8 10  1  0  0  0  0
  8  6  1  0  0  0  0
 11  8  1  0  0  0  0
 13 14  1  0  0  0  0
 13 12  1  0  0  0  0
 14 15  1  0  0  0  0
 15 16  1  0  0  0  0
 16  5  1  0  0  0  0
 17 16  1  0  0  0  0
 18 13  1  0  0  0  0
 18 17  1  0  0  0  0
 19 24  1  0  0  0  0
 20 21  1  0  0  0  0
 20 19  2  0  0  0  0
 21 22  2  0  0  0  0
 22 23  1  0  0  0  0
 23 26  1  0  0  0  0
 24 23  2  0  0  0  0
 25 19  1  0  0  0  0
 27 21  1  0  0  0  0
 28 27  2  0  0  0  0
 28 32  1  0  0  0  0
 29 28  1  0  0  0  0
 30 29  2  0  0  0  0
 30 31  1  0  0  0  0
 31 27  1  0  0  0  0
 33 29  1  0  0  0  0
 34 30  1  0  0  0  0
M  END
>  <minimizedAffinity>
-5.62980604

>  <minimizedRMSD>
1.63391316

$$$$
