
 OpenBabel03252504233D

 30 33  0  0  0  0  0  0  0  0999 V2000
   37.8010   30.5210   40.6720 C   0  0  0  0  0  0  0  0  0  0  0  0
   36.8730   31.3950   40.1100 C   0  0  0  0  0  0  0  0  0  0  0  0
   37.3240   32.6610   39.6350 C   0  0  0  0  0  0  0  0  0  0  0  0
   38.6590   32.9230   39.7710 N   0  0  0  0  0  0  0  0  0  0  0  0
   39.5260   32.0410   40.3260 C   0  0  0  0  0  0  0  0  0  0  0  0
   39.0860   30.8510   40.7690 N   0  0  0  0  0  0  0  0  0  0  0  0
   40.8960   32.4170   40.4180 N   0  0  0  0  0  0  0  0  0  0  0  0
   41.6890   32.2420   41.5030 C   0  0  0  0  0  0  0  0  0  0  0  0
   42.9290   32.7330   41.2000 N   0  0  0  0  0  0  0  0  0  0  0  0
   42.8540   33.1850   39.9500 C   0  0  0  0  0  0  0  0  0  0  0  0
   43.7560   33.7880   39.0820 C   0  0  0  0  0  0  0  0  0  0  0  0
   43.4430   34.1610   37.8540 N   0  0  0  0  0  0  0  0  0  0  0  0
   42.2040   33.9790   37.3520 C   0  0  0  0  0  0  0  0  0  0  0  0
   41.3290   33.3970   38.1890 N   0  0  0  0  0  0  0  0  0  0  0  0
   41.5930   33.0030   39.4320 C   0  0  0  0  0  0  0  0  0  0  0  0
   35.8090   31.2760   39.9580 H   0  0  0  0  0  0  0  0  0  0  0  0
   36.6780   33.3780   39.1960 H   0  0  0  0  0  0  0  0  0  0  0  0
   41.3760   31.7920   42.4390 H   0  0  0  0  0  0  0  0  0  0  0  0
   41.9150   34.2720   36.3520 H   0  0  0  0  0  0  0  0  0  0  0  0
   45.0970   34.0440   39.4750 N   0  0  0  0  0  0  0  0  0  0  0  0
   45.9790   33.7560   39.0090 H   0  0  0  0  0  0  0  0  0  0  0  0
   45.1520   34.6080   40.3720 H   0  0  0  0  0  0  0  0  0  0  0  0
   37.1250   28.9660   41.2360 S   0  0  0  0  0  0  0  0  0  0  0  0
   38.9470   26.0340   41.7410 H   0  0  0  0  0  0  0  0  0  0  0  0
   38.4250   26.1500   42.6360 N   0  0  0  0  0  0  0  0  0  0  0  0
   39.0510   27.0350   43.5860 C   0  0  0  0  0  2  0  0  0  0  0  0
   38.7910   28.4990   43.3000 C   0  0  0  0  0  2  0  0  0  0  0  0
   37.3240   28.7460   42.9940 C   0  0  0  0  0  3  0  0  0  0  0  0
   36.5750   27.4980   43.4080 C   0  0  0  0  0  2  0  0  0  0  0  0
   37.0190   26.3990   42.4350 C   0  0  0  0  0  2  0  0  0  0  0  0
  1  6  1  0  0  0  0
  1 23  1  0  0  0  0
  2  1  2  0  0  0  0
  3  4  2  0  0  0  0
  3  2  1  0  0  0  0
  4  5  1  0  0  0  0
  5  7  1  0  0  0  0
  5  6  2  0  0  0  0
  7  8  1  0  0  0  0
  8 18  1  0  0  0  0
  9  8  2  0  0  0  0
 10  9  1  0  0  0  0
 11 20  1  0  0  0  0
 11 10  2  0  0  0  0
 12 11  1  0  0  0  0
 13 12  2  0  0  0  0
 13 14  1  0  0  0  0
 14 15  2  0  0  0  0
 15 10  1  0  0  0  0
 15  7  1  0  0  0  0
 16  2  1  0  0  0  0
 17  3  1  0  0  0  0
 19 13  1  0  0  0  0
 20 22  1  0  0  0  0
 21 20  1  0  0  0  0
 23 28  1  0  0  0  0
 24 25  1  0  0  0  0
 25 26  1  0  0  0  0
 27 26  1  0  0  0  0
 28 27  1  0  0  0  0
 28 29  1  0  0  0  0
 30 25  1  0  0  0  0
 30 29  1  0  0  0  0
M  END
>  <minimizedAffinity>
-5.90319538

$$$$

 OpenBabel03252504233D

 30 33  0  0  0  0  0  0  0  0999 V2000
   37.3710   26.6770   42.1250 C   0  0  0  0  0  0  0  0  0  0  0  0
   36.9850   27.1910   43.3610 C   0  0  0  0  0  0  0  0  0  0  0  0
   37.3280   28.5370   43.6800 C   0  0  0  0  0  0  0  0  0  0  0  0
   38.0220   29.2320   42.7290 N   0  0  0  0  0  0  0  0  0  0  0  0
   38.3760   28.6890   41.5390 C   0  0  0  0  0  0  0  0  0  0  0  0
   38.0470   27.4190   41.2510 N   0  0  0  0  0  0  0  0  0  0  0  0
   39.0980   29.5030   40.6210 N   0  0  0  0  0  0  0  0  0  0  0  0
   40.1840   29.1150   39.9090 C   0  0  0  0  0  0  0  0  0  0  0  0
   40.5890   30.1770   39.1470 N   0  0  0  0  0  0  0  0  0  0  0  0
   39.7430   31.1700   39.4150 C   0  0  0  0  0  0  0  0  0  0  0  0
   39.6180   32.4810   38.9740 C   0  0  0  0  0  0  0  0  0  0  0  0
   38.6720   33.3010   39.3950 N   0  0  0  0  0  0  0  0  0  0  0  0
   37.7470   32.9130   40.2980 C   0  0  0  0  0  0  0  0  0  0  0  0
   37.8650   31.6450   40.7270 N   0  0  0  0  0  0  0  0  0  0  0  0
   38.7980   30.7810   40.3350 C   0  0  0  0  0  0  0  0  0  0  0  0
   36.4370   26.7240   44.1670 H   0  0  0  0  0  0  0  0  0  0  0  0
   37.0690   28.9970   44.5990 H   0  0  0  0  0  0  0  0  0  0  0  0
   40.6390   28.1310   39.9510 H   0  0  0  0  0  0  0  0  0  0  0  0
   36.9590   33.5580   40.6620 H   0  0  0  0  0  0  0  0  0  0  0  0
   40.5220   33.0280   38.0250 N   0  0  0  0  0  0  0  0  0  0  0  0
   40.3150   33.4850   37.1160 H   0  0  0  0  0  0  0  0  0  0  0  0
   41.5340   32.9300   38.3310 H   0  0  0  0  0  0  0  0  0  0  0  0
   36.8920   24.9800   41.8320 S   0  0  0  0  0  0  0  0  0  0  0  0
   37.8150   21.6320   41.4930 H   0  0  0  0  0  0  0  0  0  0  0  0
   38.0510   22.0420   40.5640 N   0  0  0  0  0  0  0  0  0  0  0  0
   36.9430   22.1220   39.6450 C   0  0  0  0  0  2  0  0  0  0  0  0
   36.0460   23.3160   39.8910 C   0  0  0  0  0  2  0  0  0  0  0  0
   36.8610   24.5810   40.0950 C   0  0  0  0  0  3  0  0  0  0  0  0
   38.2740   24.2680   39.6520 C   0  0  0  0  0  2  0  0  0  0  0  0
   38.8200   23.2580   40.6670 C   0  0  0  0  0  2  0  0  0  0  0  0
  1  2  1  0  0  0  0
  2  3  2  0  0  0  0
  2 16  1  0  0  0  0
  3 17  1  0  0  0  0
  4  3  1  0  0  0  0
  5  4  2  0  0  0  0
  6  5  1  0  0  0  0
  6  1  2  0  0  0  0
  7  5  1  0  0  0  0
  8 18  1  0  0  0  0
  8  7  1  0  0  0  0
  9 10  1  0  0  0  0
  9  8  2  0  0  0  0
 10 15  1  0  0  0  0
 11 12  1  0  0  0  0
 11 10  2  0  0  0  0
 12 13  2  0  0  0  0
 13 19  1  0  0  0  0
 13 14  1  0  0  0  0
 15  7  1  0  0  0  0
 15 14  2  0  0  0  0
 20 22  1  0  0  0  0
 20 11  1  0  0  0  0
 21 20  1  0  0  0  0
 23  1  1  0  0  0  0
 25 30  1  0  0  0  0
 25 24  1  0  0  0  0
 26 27  1  0  0  0  0
 26 25  1  0  0  0  0
 27 28  1  0  0  0  0
 28 23  1  0  0  0  0
 29 28  1  0  0  0  0
 29 30  1  0  0  0  0
M  END
>  <minimizedAffinity>
-5.49956417

$$$$

 OpenBabel03252504233D

 30 33  0  0  0  0  0  0  0  0999 V2000
   39.8310   27.2890   40.9630 C   0  0  0  0  0  0  0  0  0  0  0  0
   40.1740   26.2110   40.1500 C   0  0  0  0  0  0  0  0  0  0  0  0
   40.6810   26.4730   38.8440 C   0  0  0  0  0  0  0  0  0  0  0  0
   40.7920   27.7870   38.4850 N   0  0  0  0  0  0  0  0  0  0  0  0
   40.4440   28.8040   39.3110 C   0  0  0  0  0  0  0  0  0  0  0  0
   39.9680   28.5420   40.5400 N   0  0  0  0  0  0  0  0  0  0  0  0
   40.6010   30.1360   38.8350 N   0  0  0  0  0  0  0  0  0  0  0  0
   39.6930   31.1330   38.9720 C   0  0  0  0  0  0  0  0  0  0  0  0
   40.2100   32.2550   38.3830 N   0  0  0  0  0  0  0  0  0  0  0  0
   41.4060   31.9090   37.9110 C   0  0  0  0  0  0  0  0  0  0  0  0
   42.4070   32.5830   37.2230 C   0  0  0  0  0  0  0  0  0  0  0  0
   43.5390   32.0140   36.8480 N   0  0  0  0  0  0  0  0  0  0  0  0
   43.8030   30.7170   37.1130 C   0  0  0  0  0  0  0  0  0  0  0  0
   42.8360   30.0630   37.7770 N   0  0  0  0  0  0  0  0  0  0  0  0
   41.6800   30.5880   38.1760 C   0  0  0  0  0  0  0  0  0  0  0  0
   40.1250   25.1490   40.3470 H   0  0  0  0  0  0  0  0  0  0  0  0
   40.9630   25.7060   38.1690 H   0  0  0  0  0  0  0  0  0  0  0  0
   38.7320   31.0390   39.4650 H   0  0  0  0  0  0  0  0  0  0  0  0
   44.7190   30.2220   36.8210 H   0  0  0  0  0  0  0  0  0  0  0  0
   42.2680   33.9530   36.8750 N   0  0  0  0  0  0  0  0  0  0  0  0
   42.9030   34.7470   37.0850 H   0  0  0  0  0  0  0  0  0  0  0  0
   41.3780   34.1400   36.3280 H   0  0  0  0  0  0  0  0  0  0  0  0
   39.2030   26.8440   42.5770 S   0  0  0  0  0  0  0  0  0  0  0  0
   37.8530   29.9130   41.6110 H   0  0  0  0  0  0  0  0  0  0  0  0
   37.0830   29.4730   42.1590 N   0  0  0  0  0  0  0  0  0  0  0  0
   36.2610   28.5570   41.4080 C   0  0  0  0  0  2  0  0  0  0  0  0
   36.8780   27.1820   41.2620 C   0  0  0  0  0  2  0  0  0  0  0  0
   37.4280   26.6840   42.5860 C   0  0  0  0  0  3  0  0  0  0  0  0
   36.8710   27.5930   43.6610 C   0  0  0  0  0  2  0  0  0  0  0  0
   37.5230   28.9620   43.4330 C   0  0  0  0  0  2  0  0  0  0  0  0
  1 23  1  0  0  0  0
  2 16  1  0  0  0  0
  2  1  2  0  0  0  0
  3  2  1  0  0  0  0
  4  3  2  0  0  0  0
  4  5  1  0  0  0  0
  5  6  2  0  0  0  0
  6  1  1  0  0  0  0
  7  8  1  0  0  0  0
  7  5  1  0  0  0  0
  8 18  1  0  0  0  0
  9  8  2  0  0  0  0
 10 15  1  0  0  0  0
 10  9  1  0  0  0  0
 11 10  2  0  0  0  0
 12 13  2  0  0  0  0
 12 11  1  0  0  0  0
 13 14  1  0  0  0  0
 14 15  2  0  0  0  0
 15  7  1  0  0  0  0
 17  3  1  0  0  0  0
 19 13  1  0  0  0  0
 20 21  1  0  0  0  0
 20 11  1  0  0  0  0
 22 20  1  0  0  0  0
 23 28  1  0  0  0  0
 24 25  1  0  0  0  0
 25 30  1  0  0  0  0
 26 25  1  0  0  0  0
 27 26  1  0  0  0  0
 27 28  1  0  0  0  0
 28 29  1  0  0  0  0
 30 29  1  0  0  0  0
M  END
>  <minimizedAffinity>
-5.49290371

$$$$

 OpenBabel03252504233D

 30 33  0  0  0  0  0  0  0  0999 V2000
   38.4640   26.3860   42.3280 C   0  0  0  0  0  0  0  0  0  0  0  0
   37.1430   26.4370   42.7680 C   0  0  0  0  0  0  0  0  0  0  0  0
   36.5410   27.7110   42.9810 C   0  0  0  0  0  0  0  0  0  0  0  0
   37.3230   28.8050   42.7320 N   0  0  0  0  0  0  0  0  0  0  0  0
   38.6060   28.7060   42.3060 C   0  0  0  0  0  0  0  0  0  0  0  0
   39.1600   27.4980   42.1090 N   0  0  0  0  0  0  0  0  0  0  0  0
   39.3300   29.9100   42.0780 N   0  0  0  0  0  0  0  0  0  0  0  0
   40.6040   30.1500   42.4720 C   0  0  0  0  0  0  0  0  0  0  0  0
   40.9370   31.4140   42.0690 N   0  0  0  0  0  0  0  0  0  0  0  0
   39.8650   31.9010   41.4470 C   0  0  0  0  0  0  0  0  0  0  0  0
   39.5710   33.1070   40.8250 C   0  0  0  0  0  0  0  0  0  0  0  0
   38.4040   33.3680   40.2620 N   0  0  0  0  0  0  0  0  0  0  0  0
   37.4020   32.4630   40.2540 C   0  0  0  0  0  0  0  0  0  0  0  0
   37.6840   31.2950   40.8560 N   0  0  0  0  0  0  0  0  0  0  0  0
   38.8400   30.9840   41.4360 C   0  0  0  0  0  0  0  0  0  0  0  0
   36.4510   25.6350   42.9850 H   0  0  0  0  0  0  0  0  0  0  0  0
   35.5420   27.8300   43.3140 H   0  0  0  0  0  0  0  0  0  0  0  0
   41.2320   29.4500   43.0110 H   0  0  0  0  0  0  0  0  0  0  0  0
   36.4370   32.6440   39.8020 H   0  0  0  0  0  0  0  0  0  0  0  0
   40.5280   34.1540   40.7580 N   0  0  0  0  0  0  0  0  0  0  0  0
   40.8820   34.6610   39.9240 H   0  0  0  0  0  0  0  0  0  0  0  0
   40.9040   34.4170   41.7150 H   0  0  0  0  0  0  0  0  0  0  0  0
   39.1170   24.7380   42.0980 S   0  0  0  0  0  0  0  0  0  0  0  0
   36.0230   25.0120   40.5090 H   0  0  0  0  0  0  0  0  0  0  0  0
   36.5530   24.3580   39.8940 N   0  0  0  0  0  0  0  0  0  0  0  0
   37.4160   25.0030   38.9360 C   0  0  0  0  0  2  0  0  0  0  0  0
   38.7390   25.4430   39.5270 C   0  0  0  0  0  2  0  0  0  0  0  0
   39.3540   24.3450   40.3750 C   0  0  0  0  0  3  0  0  0  0  0  0
   38.5910   23.0750   40.0660 C   0  0  0  0  0  2  0  0  0  0  0  0
   37.1790   23.2850   40.6250 C   0  0  0  0  0  2  0  0  0  0  0  0
  1  2  1  0  0  0  0
  2  3  2  0  0  0  0
  2 16  1  0  0  0  0
  3 17  1  0  0  0  0
  4  3  1  0  0  0  0
  5  4  2  0  0  0  0
  6  5  1  0  0  0  0
  6  1  2  0  0  0  0
  7  5  1  0  0  0  0
  7  8  1  0  0  0  0
  8 18  1  0  0  0  0
  9  8  2  0  0  0  0
 10  9  1  0  0  0  0
 11 10  2  0  0  0  0
 12 11  1  0  0  0  0
 13 12  2  0  0  0  0
 13 14  1  0  0  0  0
 14 15  2  0  0  0  0
 15 10  1  0  0  0  0
 15  7  1  0  0  0  0
 19 13  1  0  0  0  0
 20 11  1  0  0  0  0
 20 22  1  0  0  0  0
 21 20  1  0  0  0  0
 23  1  1  0  0  0  0
 25 24  1  0  0  0  0
 25 30  1  0  0  0  0
 26 27  1  0  0  0  0
 26 25  1  0  0  0  0
 27 28  1  0  0  0  0
 28 23  1  0  0  0  0
 29 28  1  0  0  0  0
 29 30  1  0  0  0  0
M  END
>  <minimizedAffinity>
-5.44015074

$$$$

 OpenBabel03252504233D

 30 33  0  0  0  0  0  0  0  0999 V2000
   38.7000   29.8360   41.6370 C   0  0  0  0  0  0  0  0  0  0  0  0
   38.5000   29.6150   42.9980 C   0  0  0  0  0  0  0  0  0  0  0  0
   37.7220   28.4900   43.4010 C   0  0  0  0  0  0  0  0  0  0  0  0
   37.2250   27.7020   42.4010 N   0  0  0  0  0  0  0  0  0  0  0  0
   37.4460   27.9580   41.0890 C   0  0  0  0  0  0  0  0  0  0  0  0
   38.1810   29.0210   40.7230 N   0  0  0  0  0  0  0  0  0  0  0  0
   36.8800   27.0700   40.1300 N   0  0  0  0  0  0  0  0  0  0  0  0
   36.2400   27.4420   38.9950 C   0  0  0  0  0  0  0  0  0  0  0  0
   35.8420   26.3050   38.3450 N   0  0  0  0  0  0  0  0  0  0  0  0
   36.2510   25.2850   39.0980 C   0  0  0  0  0  0  0  0  0  0  0  0
   36.1590   23.9040   38.9900 C   0  0  0  0  0  0  0  0  0  0  0  0
   36.6540   23.0710   39.8880 N   0  0  0  0  0  0  0  0  0  0  0  0
   37.2940   23.5140   40.9900 C   0  0  0  0  0  0  0  0  0  0  0  0
   37.3850   24.8510   41.0980 N   0  0  0  0  0  0  0  0  0  0  0  0
   36.9040   25.7310   40.2240 C   0  0  0  0  0  0  0  0  0  0  0  0
   38.8520   30.1750   43.8520 H   0  0  0  0  0  0  0  0  0  0  0  0
   37.5270   28.2570   44.4170 H   0  0  0  0  0  0  0  0  0  0  0  0
   36.0790   28.4660   38.6760 H   0  0  0  0  0  0  0  0  0  0  0  0
   37.7120   22.8600   41.7430 H   0  0  0  0  0  0  0  0  0  0  0  0
   35.5110   23.2940   37.8830 N   0  0  0  0  0  0  0  0  0  0  0  0
   35.8780   22.5780   37.2260 H   0  0  0  0  0  0  0  0  0  0  0  0
   34.5210   23.6520   37.7490 H   0  0  0  0  0  0  0  0  0  0  0  0
   39.6860   31.2750   41.2460 S   0  0  0  0  0  0  0  0  0  0  0  0
   38.6510   31.2210   37.9140 H   0  0  0  0  0  0  0  0  0  0  0  0
   38.5980   32.2310   38.1660 N   0  0  0  0  0  0  0  0  0  0  0  0
   37.3790   32.6190   38.8310 C   0  0  0  0  0  2  0  0  0  0  0  0
   37.3770   32.2990   40.3110 C   0  0  0  0  0  2  0  0  0  0  0  0
   38.6810   32.7210   40.9650 C   0  0  0  0  0  3  0  0  0  0  0  0
   39.3970   33.6160   39.9770 C   0  0  0  0  0  2  0  0  0  0  0  0
   39.7970   32.7130   38.8040 C   0  0  0  0  0  2  0  0  0  0  0  0
  1  2  1  0  0  0  0
  2  3  2  0  0  0  0
  2 16  1  0  0  0  0
  3 17  1  0  0  0  0
  4  3  1  0  0  0  0
  5  4  2  0  0  0  0
  6  5  1  0  0  0  0
  6  1  2  0  0  0  0
  7 15  1  0  0  0  0
  7  5  1  0  0  0  0
  8  7  1  0  0  0  0
  9  8  2  0  0  0  0
  9 10  1  0  0  0  0
 10 15  1  0  0  0  0
 11 10  2  0  0  0  0
 11 12  1  0  0  0  0
 12 13  2  0  0  0  0
 13 14  1  0  0  0  0
 13 19  1  0  0  0  0
 15 14  2  0  0  0  0
 18  8  1  0  0  0  0
 20 11  1  0  0  0  0
 21 20  1  0  0  0  0
 22 20  1  0  0  0  0
 23  1  1  0  0  0  0
 24 25  1  0  0  0  0
 25 30  1  0  0  0  0
 25 26  1  0  0  0  0
 26 27  1  0  0  0  0
 27 28  1  0  0  0  0
 28 23  1  0  0  0  0
 29 28  1  0  0  0  0
 30 29  1  0  0  0  0
M  END
>  <minimizedAffinity>
-5.4318099

$$$$

 OpenBabel03252504233D

 30 33  0  0  0  0  0  0  0  0999 V2000
   37.3710   26.6820   42.1160 C   0  0  0  0  0  0  0  0  0  0  0  0
   36.9870   27.1900   43.3550 C   0  0  0  0  0  0  0  0  0  0  0  0
   37.3290   28.5350   43.6790 C   0  0  0  0  0  0  0  0  0  0  0  0
   38.0210   29.2340   42.7300 N   0  0  0  0  0  0  0  0  0  0  0  0
   38.3750   28.6970   41.5370 C   0  0  0  0  0  0  0  0  0  0  0  0
   38.0450   27.4270   41.2450 N   0  0  0  0  0  0  0  0  0  0  0  0
   39.0950   29.5150   40.6210 N   0  0  0  0  0  0  0  0  0  0  0  0
   40.1800   29.1300   39.9070 C   0  0  0  0  0  0  0  0  0  0  0  0
   40.5830   30.1960   39.1490 N   0  0  0  0  0  0  0  0  0  0  0  0
   39.7370   31.1870   39.4220 C   0  0  0  0  0  0  0  0  0  0  0  0
   39.6100   32.4990   38.9870 C   0  0  0  0  0  0  0  0  0  0  0  0
   38.6630   33.3170   39.4120 N   0  0  0  0  0  0  0  0  0  0  0  0
   37.7400   32.9250   40.3150 C   0  0  0  0  0  0  0  0  0  0  0  0
   37.8600   31.6550   40.7380 N   0  0  0  0  0  0  0  0  0  0  0  0
   38.7930   30.7930   40.3420 C   0  0  0  0  0  0  0  0  0  0  0  0
   36.4400   26.7190   44.1600 H   0  0  0  0  0  0  0  0  0  0  0  0
   37.0710   28.9910   44.6010 H   0  0  0  0  0  0  0  0  0  0  0  0
   40.6350   28.1470   39.9450 H   0  0  0  0  0  0  0  0  0  0  0  0
   36.9530   33.5680   40.6830 H   0  0  0  0  0  0  0  0  0  0  0  0
   40.5130   33.0510   38.0380 N   0  0  0  0  0  0  0  0  0  0  0  0
   40.3040   33.5120   37.1320 H   0  0  0  0  0  0  0  0  0  0  0  0
   41.5240   32.9530   38.3420 H   0  0  0  0  0  0  0  0  0  0  0  0
   36.8940   24.9850   41.8180 S   0  0  0  0  0  0  0  0  0  0  0  0
   39.3560   26.1260   39.6250 H   0  0  0  0  0  0  0  0  0  0  0  0
   39.5720   25.1110   39.7220 N   0  0  0  0  0  0  0  0  0  0  0  0
   40.3620   24.7730   40.8800 C   0  0  0  0  0  2  0  0  0  0  0  0
   39.5470   24.6720   42.1510 C   0  0  0  0  0  2  0  0  0  0  0  0
   38.2790   23.8690   41.9280 C   0  0  0  0  0  3  0  0  0  0  0  0
   38.4350   23.1670   40.5960 C   0  0  0  0  0  2  0  0  0  0  0  0
   38.4140   24.2720   39.5340 C   0  0  0  0  0  2  0  0  0  0  0  0
  1  2  1  0  0  0  0
  2  3  2  0  0  0  0
  2 16  1  0  0  0  0
  3 17  1  0  0  0  0
  4  3  1  0  0  0  0
  5  4  2  0  0  0  0
  6  5  1  0  0  0  0
  6  1  2  0  0  0  0
  7  5  1  0  0  0  0
  8 18  1  0  0  0  0
  8  7  1  0  0  0  0
  9 10  1  0  0  0  0
  9  8  2  0  0  0  0
 10 15  1  0  0  0  0
 11 12  1  0  0  0  0
 11 10  2  0  0  0  0
 12 13  2  0  0  0  0
 13 19  1  0  0  0  0
 13 14  1  0  0  0  0
 15  7  1  0  0  0  0
 15 14  2  0  0  0  0
 20 22  1  0  0  0  0
 20 11  1  0  0  0  0
 21 20  1  0  0  0  0
 23 28  1  0  0  0  0
 23  1  1  0  0  0  0
 24 25  1  0  0  0  0
 25 26  1  0  0  0  0
 26 27  1  0  0  0  0
 28 27  1  0  0  0  0
 29 28  1  0  0  0  0
 30 25  1  0  0  0  0
 30 29  1  0  0  0  0
M  END
>  <minimizedAffinity>
-5.35513926

$$$$

 OpenBabel03252504233D

 30 33  0  0  0  0  0  0  0  0999 V2000
   39.8320   31.2560   40.5840 C   0  0  0  0  0  0  0  0  0  0  0  0
   40.0970   31.5160   41.9260 C   0  0  0  0  0  0  0  0  0  0  0  0
   39.5890   30.6190   42.9100 C   0  0  0  0  0  0  0  0  0  0  0  0
   38.8670   29.5530   42.4500 N   0  0  0  0  0  0  0  0  0  0  0  0
   38.6340   29.3410   41.1320 C   0  0  0  0  0  0  0  0  0  0  0  0
   39.1190   30.1950   40.2150 N   0  0  0  0  0  0  0  0  0  0  0  0
   37.8690   28.1980   40.7630 N   0  0  0  0  0  0  0  0  0  0  0  0
   36.8700   28.1820   39.8480 C   0  0  0  0  0  0  0  0  0  0  0  0
   36.3850   26.9040   39.7790 N   0  0  0  0  0  0  0  0  0  0  0  0
   37.0990   26.1890   40.6460 C   0  0  0  0  0  0  0  0  0  0  0  0
   37.0950   24.8560   41.0360 C   0  0  0  0  0  0  0  0  0  0  0  0
   37.9210   24.3630   41.9420 N   0  0  0  0  0  0  0  0  0  0  0  0
   38.8390   25.1350   42.5600 C   0  0  0  0  0  0  0  0  0  0  0  0
   38.8450   26.4250   42.1840 N   0  0  0  0  0  0  0  0  0  0  0  0
   38.0360   26.9700   41.2800 C   0  0  0  0  0  0  0  0  0  0  0  0
   40.6550   32.3220   42.3810 H   0  0  0  0  0  0  0  0  0  0  0  0
   39.7490   30.7500   43.9500 H   0  0  0  0  0  0  0  0  0  0  0  0
   36.5290   29.0410   39.2800 H   0  0  0  0  0  0  0  0  0  0  0  0
   39.5300   24.7620   43.3040 H   0  0  0  0  0  0  0  0  0  0  0  0
   36.1810   23.9260   40.4720 N   0  0  0  0  0  0  0  0  0  0  0  0
   36.3790   23.0190   40.0060 H   0  0  0  0  0  0  0  0  0  0  0  0
   35.1740   24.2470   40.5620 H   0  0  0  0  0  0  0  0  0  0  0  0
   40.5140   32.4470   39.4380 S   0  0  0  0  0  0  0  0  0  0  0  0
   41.5620   34.5240   36.8370 H   0  0  0  0  0  0  0  0  0  0  0  0
   42.3410   33.8360   36.9250 N   0  0  0  0  0  0  0  0  0  0  0  0
   43.3090   34.1540   37.9450 C   0  0  0  0  0  2  0  0  0  0  0  0
   42.8650   33.7550   39.3360 C   0  0  0  0  0  2  0  0  0  0  0  0
   42.2910   32.3500   39.3480 C   0  0  0  0  0  3  0  0  0  0  0  0
   42.6690   31.7130   38.0280 C   0  0  0  0  0  2  0  0  0  0  0  0
   41.8800   32.4700   36.9540 C   0  0  0  0  0  2  0  0  0  0  0  0
  1  2  1  0  0  0  0
  2 16  1  0  0  0  0
  2  3  2  0  0  0  0
  3 17  1  0  0  0  0
  4  3  1  0  0  0  0
  5  4  2  0  0  0  0
  6  1  2  0  0  0  0
  6  5  1  0  0  0  0
  7  5  1  0  0  0  0
  7 15  1  0  0  0  0
  8  7  1  0  0  0  0
  9  8  2  0  0  0  0
  9 10  1  0  0  0  0
 10 11  2  0  0  0  0
 10 15  1  0  0  0  0
 11 12  1  0  0  0  0
 12 13  2  0  0  0  0
 13 19  1  0  0  0  0
 14 13  1  0  0  0  0
 15 14  2  0  0  0  0
 18  8  1  0  0  0  0
 20 22  1  0  0  0  0
 20 11  1  0  0  0  0
 21 20  1  0  0  0  0
 23  1  1  0  0  0  0
 24 25  1  0  0  0  0
 25 30  1  0  0  0  0
 25 26  1  0  0  0  0
 26 27  1  0  0  0  0
 27 28  1  0  0  0  0
 28 23  1  0  0  0  0
 29 28  1  0  0  0  0
 30 29  1  0  0  0  0
M  END
>  <minimizedAffinity>
-5.31651211

$$$$

 OpenBabel03252504233D

 30 33  0  0  0  0  0  0  0  0999 V2000
   36.8910   26.0260   38.6360 C   0  0  0  0  0  0  0  0  0  0  0  0
   35.6870   26.2110   37.9610 C   0  0  0  0  0  0  0  0  0  0  0  0
   35.0430   27.4800   38.0460 C   0  0  0  0  0  0  0  0  0  0  0  0
   35.6710   28.4340   38.7970 N   0  0  0  0  0  0  0  0  0  0  0  0
   36.8440   28.2070   39.4370 C   0  0  0  0  0  0  0  0  0  0  0  0
   37.4390   27.0060   39.3480 N   0  0  0  0  0  0  0  0  0  0  0  0
   37.4110   29.2730   40.1920 N   0  0  0  0  0  0  0  0  0  0  0  0
   37.9410   29.1620   41.4340 C   0  0  0  0  0  0  0  0  0  0  0  0
   38.3760   30.4010   41.8170 N   0  0  0  0  0  0  0  0  0  0  0  0
   38.1010   31.2210   40.8040 C   0  0  0  0  0  0  0  0  0  0  0  0
   38.2890   32.5780   40.5780 C   0  0  0  0  0  0  0  0  0  0  0  0
   37.9220   33.1860   39.4640 N   0  0  0  0  0  0  0  0  0  0  0  0
   37.3280   32.5170   38.4540 C   0  0  0  0  0  0  0  0  0  0  0  0
   37.1440   31.2040   38.6700 N   0  0  0  0  0  0  0  0  0  0  0  0
   37.4940   30.5450   39.7720 C   0  0  0  0  0  0  0  0  0  0  0  0
   35.1220   25.5250   37.3460 H   0  0  0  0  0  0  0  0  0  0  0  0
   34.1260   27.6960   37.5600 H   0  0  0  0  0  0  0  0  0  0  0  0
   38.0010   28.2430   42.0080 H   0  0  0  0  0  0  0  0  0  0  0  0
   37.0160   32.9840   37.5300 H   0  0  0  0  0  0  0  0  0  0  0  0
   38.9010   33.4090   41.5550 N   0  0  0  0  0  0  0  0  0  0  0  0
   39.7240   34.0340   41.4550 H   0  0  0  0  0  0  0  0  0  0  0  0
   38.4160   33.3470   42.4960 H   0  0  0  0  0  0  0  0  0  0  0  0
   37.6070   24.3970   38.4640 S   0  0  0  0  0  0  0  0  0  0  0  0
   38.4550   26.0190   41.4350 H   0  0  0  0  0  0  0  0  0  0  0  0
   38.4560   25.0120   41.7020 N   0  0  0  0  0  0  0  0  0  0  0  0
   37.1590   24.4780   42.0350 C   0  0  0  0  0  2  0  0  0  0  0  0
   36.3360   24.1050   40.8200 C   0  0  0  0  0  2  0  0  0  0  0  0
   37.1630   23.3230   39.8160 C   0  0  0  0  0  3  0  0  0  0  0  0
   38.4300   22.9010   40.5270 C   0  0  0  0  0  2  0  0  0  0  0  0
   39.2150   24.1920   40.7900 C   0  0  0  0  0  2  0  0  0  0  0  0
  1  6  1  0  0  0  0
  2  3  1  0  0  0  0
  2  1  2  0  0  0  0
  3  4  2  0  0  0  0
  4  5  1  0  0  0  0
  5  7  1  0  0  0  0
  6  5  2  0  0  0  0
  7  8  1  0  0  0  0
  8  9  2  0  0  0  0
  8 18  1  0  0  0  0
 10  9  1  0  0  0  0
 11 10  1  0  0  0  0
 11 20  1  0  0  0  0
 12 11  2  0  0  0  0
 13 14  2  0  0  0  0
 13 12  1  0  0  0  0
 14 15  1  0  0  0  0
 15  7  1  0  0  0  0
 15 10  2  0  0  0  0
 16  2  1  0  0  0  0
 17  3  1  0  0  0  0
 19 13  1  0  0  0  0
 20 22  1  0  0  0  0
 21 20  1  0  0  0  0
 23  1  1  0  0  0  0
 23 28  1  0  0  0  0
 24 25  1  0  0  0  0
 25 26  1  0  0  0  0
 27 26  1  0  0  0  0
 28 29  1  0  0  0  0
 28 27  1  0  0  0  0
 29 30  1  0  0  0  0
 30 25  1  0  0  0  0
M  END
>  <minimizedAffinity>
-5.17507887

$$$$

 OpenBabel03252504233D

 30 33  0  0  0  0  0  0  0  0999 V2000
   38.4530   29.3330   42.2270 C   0  0  0  0  0  0  0  0  0  0  0  0
   38.0700   28.9600   43.5130 C   0  0  0  0  0  0  0  0  0  0  0  0
   37.2650   27.7950   43.6770 C   0  0  0  0  0  0  0  0  0  0  0  0
   36.9260   27.1220   42.5370 N   0  0  0  0  0  0  0  0  0  0  0  0
   37.3230   27.5240   41.3040 C   0  0  0  0  0  0  0  0  0  0  0  0
   38.0810   28.6240   41.1650 N   0  0  0  0  0  0  0  0  0  0  0  0
   36.9120   26.7480   40.1840 N   0  0  0  0  0  0  0  0  0  0  0  0
   36.4280   27.2420   39.0190 C   0  0  0  0  0  0  0  0  0  0  0  0
   36.1460   26.1840   38.1980 N   0  0  0  0  0  0  0  0  0  0  0  0
   36.4660   25.0880   38.8830 C   0  0  0  0  0  0  0  0  0  0  0  0
   36.4150   23.7270   38.6110 C   0  0  0  0  0  0  0  0  0  0  0  0
   36.7970   22.8000   39.4720 N   0  0  0  0  0  0  0  0  0  0  0  0
   37.2700   23.1190   40.6950 C   0  0  0  0  0  0  0  0  0  0  0  0
   37.3190   24.4350   40.9610 N   0  0  0  0  0  0  0  0  0  0  0  0
   36.9480   25.4060   40.1310 C   0  0  0  0  0  0  0  0  0  0  0  0
   38.2900   29.4220   44.4660 H   0  0  0  0  0  0  0  0  0  0  0  0
   36.9350   27.4490   44.6240 H   0  0  0  0  0  0  0  0  0  0  0  0
   36.2940   28.2950   38.7950 H   0  0  0  0  0  0  0  0  0  0  0  0
   37.5910   22.3860   41.4220 H   0  0  0  0  0  0  0  0  0  0  0  0
   35.9390   23.2430   37.3630 N   0  0  0  0  0  0  0  0  0  0  0  0
   36.4070   22.6060   36.6900 H   0  0  0  0  0  0  0  0  0  0  0  0
   34.9700   23.6100   37.1330 H   0  0  0  0  0  0  0  0  0  0  0  0
   39.4560   30.8100   42.1390 S   0  0  0  0  0  0  0  0  0  0  0  0
   40.3550   34.1790   41.9990 H   0  0  0  0  0  0  0  0  0  0  0  0
   40.1200   33.9510   41.0100 N   0  0  0  0  0  0  0  0  0  0  0  0
   41.1930   33.3440   40.2630 C   0  0  0  0  0  2  0  0  0  0  0  0
   41.3350   31.8590   40.5200 C   0  0  0  0  0  2  0  0  0  0  0  0
   39.9870   31.1630   40.4740 C   0  0  0  0  0  3  0  0  0  0  0  0
   39.0100   32.1410   39.8580 C   0  0  0  0  0  2  0  0  0  0  0  0
   38.8530   33.2760   40.8770 C   0  0  0  0  0  2  0  0  0  0  0  0
  1  2  1  0  0  0  0
  2  3  2  0  0  0  0
  2 16  1  0  0  0  0
  3 17  1  0  0  0  0
  4  3  1  0  0  0  0
  5  4  2  0  0  0  0
  6  5  1  0  0  0  0
  6  1  2  0  0  0  0
  7  5  1  0  0  0  0
  8  7  1  0  0  0  0
  9 10  1  0  0  0  0
  9  8  2  0  0  0  0
 10 15  1  0  0  0  0
 11 10  2  0  0  0  0
 11 12  1  0  0  0  0
 12 13  2  0  0  0  0
 13 14  1  0  0  0  0
 13 19  1  0  0  0  0
 15  7  1  0  0  0  0
 15 14  2  0  0  0  0
 18  8  1  0  0  0  0
 20 11  1  0  0  0  0
 21 20  1  0  0  0  0
 22 20  1  0  0  0  0
 23  1  1  0  0  0  0
 25 24  1  0  0  0  0
 26 27  1  0  0  0  0
 26 25  1  0  0  0  0
 28 27  1  0  0  0  0
 28 23  1  0  0  0  0
 29 28  1  0  0  0  0
 29 30  1  0  0  0  0
 30 25  1  0  0  0  0
M  END
>  <minimizedAffinity>
-5.14950085

$$$$
