
 OpenBabel03242519263D

 38 41  0  0  0  0  0  0  0  0999 V2000
   37.1450   28.2960   41.6190 C   0  0  0  0  0  0  0  0  0  0  0  0
   35.8360   28.6010   41.2050 C   0  0  0  0  0  0  0  0  0  0  0  0
   35.5770   29.7790   40.4880 C   0  0  0  0  0  0  0  0  0  0  0  0
   36.6680   30.5810   40.2350 N   0  0  0  0  0  0  0  0  0  0  0  0
   37.9270   30.2560   40.6530 C   0  0  0  0  0  0  0  0  0  0  0  0
   38.1470   29.1260   41.3330 N   0  0  0  0  0  0  0  0  0  0  0  0
   34.9280   28.0360   41.3570 H   0  0  0  0  0  0  0  0  0  0  0  0
   34.6180   30.0810   40.1400 H   0  0  0  0  0  0  0  0  0  0  0  0
   37.2830   27.0330   42.3650 C   0  0  0  0  0  0  0  0  0  0  0  0
   38.3570   27.0420   43.3580 C   0  0  0  0  0  0  0  0  0  0  0  0
   39.4920   26.1400   43.0430 C   0  0  0  0  0  0  0  0  0  0  0  0
   39.0650   24.7140   42.7390 C   0  0  0  0  0  0  0  0  0  0  0  0
   37.7420   24.6150   42.0070 C   0  0  0  0  0  0  0  0  0  0  0  0
   37.4240   25.9200   41.3100 C   0  0  0  0  0  0  0  0  0  0  0  0
   36.2690   26.8260   42.8180 H   0  0  0  0  0  0  0  0  0  0  0  0
   37.9510   26.7370   44.3630 H   0  0  0  0  0  0  0  0  0  0  0  0
   38.7570   28.0540   43.4930 H   0  0  0  0  0  0  0  0  0  0  0  0
   40.0830   26.0420   44.0010 H   0  0  0  0  0  0  0  0  0  0  0  0
   40.2230   26.4950   42.3130 H   0  0  0  0  0  0  0  0  0  0  0  0
   39.8220   24.2940   42.0400 H   0  0  0  0  0  0  0  0  0  0  0  0
   39.0860   24.0560   43.6250 H   0  0  0  0  0  0  0  0  0  0  0  0
   37.6930   23.8050   41.2710 H   0  0  0  0  0  0  0  0  0  0  0  0
   36.9310   24.4940   42.7760 H   0  0  0  0  0  0  0  0  0  0  0  0
   36.4530   25.8070   40.7990 H   0  0  0  0  0  0  0  0  0  0  0  0
   38.2150   26.1950   40.5630 H   0  0  0  0  0  0  0  0  0  0  0  0
   38.9740   31.2060   40.3100 C   0  0  0  0  0  0  0  0  0  0  0  0
   38.5800   32.4890   40.0750 N   0  0  0  0  0  0  0  0  0  0  0  0
   39.6680   33.2310   39.7750 C   0  0  0  0  0  0  0  0  0  0  0  0
   40.7430   32.3900   39.8270 N   0  0  0  0  0  0  0  0  0  0  0  0
   40.3120   31.1680   40.1510 N   0  0  0  0  0  0  0  0  0  0  0  0
   39.6280   34.2880   39.5470 H   0  0  0  0  0  0  0  0  0  0  0  0
   41.3400   33.7540   36.3370 H   0  0  0  0  0  0  0  0  0  0  0  0
   42.2130   33.5740   36.8450 N   0  0  0  0  0  0  0  0  0  0  0  0
   42.6010   34.5360   37.8170 C   0  0  0  0  0  2  0  0  0  0  0  0
   42.2180   34.2460   39.2290 C   0  0  0  0  0  2  0  0  0  0  0  0
   42.1150   32.7810   39.5680 C   0  0  0  0  0  3  0  0  0  0  0  0
   42.7790   31.8800   38.5530 C   0  0  0  0  0  2  0  0  0  0  0  0
   42.5230   32.2220   37.1360 C   0  0  0  0  0  2  0  0  0  0  0  0
  1  9  1  0  0  0  0
  2  7  1  0  0  0  0
  2  1  2  0  0  0  0
  3  2  1  0  0  0  0
  4  3  2  0  0  0  0
  4  5  1  0  0  0  0
  5  6  2  0  0  0  0
  6  1  1  0  0  0  0
  8  3  1  0  0  0  0
  9 15  1  0  0  0  0
  9 10  1  0  0  0  0
 10 17  1  0  0  0  0
 10 16  1  0  0  0  0
 11 10  1  0  0  0  0
 11 18  1  0  0  0  0
 12 11  1  0  0  0  0
 12 21  1  0  0  0  0
 13 12  1  0  0  0  0
 13 23  1  0  0  0  0
 14 13  1  0  0  0  0
 14  9  1  0  0  0  0
 19 11  1  0  0  0  0
 20 12  1  0  0  0  0
 22 13  1  0  0  0  0
 24 14  1  0  0  0  0
 25 14  1  0  0  0  0
 26  5  1  0  0  0  0
 27 26  1  0  0  0  0
 28 29  1  0  0  0  0
 28 27  2  0  0  0  0
 29 30  1  0  0  0  0
 30 26  2  0  0  0  0
 31 28  1  0  0  0  0
 32 33  1  0  0  0  0
 33 38  1  0  0  0  0
 33 34  1  0  0  0  0
 34 35  1  0  0  0  0
 35 36  1  0  0  0  0
 36 29  1  0  0  0  0
 37 36  1  0  0  0  0
 38 37  1  0  0  0  0
M  END
>  <minimizedAffinity>
-6.11261177

$$$$

 OpenBabel03242519263D

 38 41  0  0  0  0  0  0  0  0999 V2000
   32.7840   29.4370   36.0320 C   0  0  0  0  0  0  0  0  0  0  0  0
   33.5570   29.1700   34.8890 C   0  0  0  0  0  0  0  0  0  0  0  0
   34.8780   28.7130   35.0190 C   0  0  0  0  0  0  0  0  0  0  0  0
   35.3350   28.5550   36.3080 N   0  0  0  0  0  0  0  0  0  0  0  0
   34.5570   28.8240   37.3980 C   0  0  0  0  0  0  0  0  0  0  0  0
   33.3010   29.2570   37.2460 N   0  0  0  0  0  0  0  0  0  0  0  0
   33.2850   29.2650   33.8480 H   0  0  0  0  0  0  0  0  0  0  0  0
   35.5270   28.4890   34.2050 H   0  0  0  0  0  0  0  0  0  0  0  0
   31.4160   29.9120   35.7600 C   0  0  0  0  0  0  0  0  0  0  0  0
   31.3060   30.7600   34.5730 C   0  0  0  0  0  0  0  0  0  0  0  0
   30.9650   32.1760   34.8590 C   0  0  0  0  0  0  0  0  0  0  0  0
   29.7370   32.3360   35.7390 C   0  0  0  0  0  0  0  0  0  0  0  0
   29.5930   31.2540   36.7900 C   0  0  0  0  0  0  0  0  0  0  0  0
   30.9270   30.5910   37.0530 C   0  0  0  0  0  0  0  0  0  0  0  0
   30.7710   28.9870   35.6990 H   0  0  0  0  0  0  0  0  0  0  0  0
   30.5120   30.3540   33.8850 H   0  0  0  0  0  0  0  0  0  0  0  0
   32.2380   30.7470   33.9940 H   0  0  0  0  0  0  0  0  0  0  0  0
   30.6440   32.6210   33.8710 H   0  0  0  0  0  0  0  0  0  0  0  0
   31.7770   32.8260   35.1940 H   0  0  0  0  0  0  0  0  0  0  0  0
   29.8700   33.2840   36.3070 H   0  0  0  0  0  0  0  0  0  0  0  0
   28.8040   32.4670   35.1640 H   0  0  0  0  0  0  0  0  0  0  0  0
   29.1830   31.6040   37.7440 H   0  0  0  0  0  0  0  0  0  0  0  0
   28.9460   30.4410   36.3610 H   0  0  0  0  0  0  0  0  0  0  0  0
   30.7750   29.8080   37.8150 H   0  0  0  0  0  0  0  0  0  0  0  0
   31.6930   31.3270   37.4150 H   0  0  0  0  0  0  0  0  0  0  0  0
   35.1840   28.6100   38.6930 C   0  0  0  0  0  0  0  0  0  0  0  0
   34.6090   29.2330   39.7590 N   0  0  0  0  0  0  0  0  0  0  0  0
   35.3100   28.9280   40.8730 C   0  0  0  0  0  0  0  0  0  0  0  0
   36.3300   28.1080   40.4820 N   0  0  0  0  0  0  0  0  0  0  0  0
   36.2440   27.9230   39.1620 N   0  0  0  0  0  0  0  0  0  0  0  0
   35.0590   29.2970   41.8590 H   0  0  0  0  0  0  0  0  0  0  0  0
   36.6620   29.9230   43.7980 H   0  0  0  0  0  0  0  0  0  0  0  0
   37.4150   29.2440   43.6420 N   0  0  0  0  0  0  0  0  0  0  0  0
   37.1040   27.8750   43.8650 C   0  0  0  0  0  2  0  0  0  0  0  0
   36.7150   27.0790   42.6650 C   0  0  0  0  0  2  0  0  0  0  0  0
   37.3280   27.5450   41.3700 C   0  0  0  0  0  3  0  0  0  0  0  0
   38.5050   28.4730   41.5610 C   0  0  0  0  0  2  0  0  0  0  0  0
   38.3270   29.5210   42.5920 C   0  0  0  0  0  2  0  0  0  0  0  0
  1  6  1  0  0  0  0
  2  3  1  0  0  0  0
  2  1  2  0  0  0  0
  3  4  2  0  0  0  0
  4  5  1  0  0  0  0
  5 26  1  0  0  0  0
  6  5  2  0  0  0  0
  7  2  1  0  0  0  0
  8  3  1  0  0  0  0
  9  1  1  0  0  0  0
  9 14  1  0  0  0  0
 10 11  1  0  0  0  0
 10  9  1  0  0  0  0
 11 19  1  0  0  0  0
 11 12  1  0  0  0  0
 12 20  1  0  0  0  0
 12 13  1  0  0  0  0
 13 14  1  0  0  0  0
 13 22  1  0  0  0  0
 14 25  1  0  0  0  0
 14 24  1  0  0  0  0
 15  9  1  0  0  0  0
 16 10  1  0  0  0  0
 17 10  1  0  0  0  0
 18 11  1  0  0  0  0
 21 12  1  0  0  0  0
 23 13  1  0  0  0  0
 26 30  2  0  0  0  0
 26 27  1  0  0  0  0
 27 28  2  0  0  0  0
 28 31  1  0  0  0  0
 29 28  1  0  0  0  0
 29 36  1  0  0  0  0
 30 29  1  0  0  0  0
 33 32  1  0  0  0  0
 33 34  1  0  0  0  0
 35 34  1  0  0  0  0
 36 37  1  0  0  0  0
 36 35  1  0  0  0  0
 37 38  1  0  0  0  0
 38 33  1  0  0  0  0
M  END
>  <minimizedAffinity>
-6.07762384

$$$$

 OpenBabel03242519263D

 38 41  0  0  0  0  0  0  0  0999 V2000
   37.0210   28.6310   41.6270 C   0  0  0  0  0  0  0  0  0  0  0  0
   35.7560   28.5370   41.0200 C   0  0  0  0  0  0  0  0  0  0  0  0
   35.3040   29.5550   40.1650 C   0  0  0  0  0  0  0  0  0  0  0  0
   36.1680   30.6120   39.9790 N   0  0  0  0  0  0  0  0  0  0  0  0
   37.3910   30.6720   40.5850 C   0  0  0  0  0  0  0  0  0  0  0  0
   37.7970   29.6880   41.3940 N   0  0  0  0  0  0  0  0  0  0  0  0
   35.0180   27.7540   41.1060 H   0  0  0  0  0  0  0  0  0  0  0  0
   34.3630   29.5590   39.6680 H   0  0  0  0  0  0  0  0  0  0  0  0
   37.3750   27.5000   42.5020 C   0  0  0  0  0  0  0  0  0  0  0  0
   38.2790   27.8540   43.5950 C   0  0  0  0  0  0  0  0  0  0  0  0
   39.6350   27.2590   43.4900 C   0  0  0  0  0  0  0  0  0  0  0  0
   39.6190   25.7540   43.2830 C   0  0  0  0  0  0  0  0  0  0  0  0
   38.4660   25.2660   42.4300 C   0  0  0  0  0  0  0  0  0  0  0  0
   37.9220   26.3930   41.5800 C   0  0  0  0  0  0  0  0  0  0  0  0
   36.3970   27.0680   42.8640 H   0  0  0  0  0  0  0  0  0  0  0  0
   37.8400   27.5220   44.5780 H   0  0  0  0  0  0  0  0  0  0  0  0
   38.3940   28.9430   43.6730 H   0  0  0  0  0  0  0  0  0  0  0  0
   40.1060   27.3820   44.5100 H   0  0  0  0  0  0  0  0  0  0  0  0
   40.3400   27.7420   42.8090 H   0  0  0  0  0  0  0  0  0  0  0  0
   40.5390   25.4990   42.7110 H   0  0  0  0  0  0  0  0  0  0  0  0
   39.6920   25.1850   44.2260 H   0  0  0  0  0  0  0  0  0  0  0  0
   38.7140   24.4240   41.7750 H   0  0  0  0  0  0  0  0  0  0  0  0
   37.6210   24.9900   43.1180 H   0  0  0  0  0  0  0  0  0  0  0  0
   37.0820   25.9980   40.9840 H   0  0  0  0  0  0  0  0  0  0  0  0
   38.7060   26.8140   40.8960 H   0  0  0  0  0  0  0  0  0  0  0  0
   38.1860   31.8530   40.2920 C   0  0  0  0  0  0  0  0  0  0  0  0
   37.5440   33.0530   40.3540 N   0  0  0  0  0  0  0  0  0  0  0  0
   38.4220   34.0350   40.0570 C   0  0  0  0  0  0  0  0  0  0  0  0
   39.6200   33.4270   39.8080 N   0  0  0  0  0  0  0  0  0  0  0  0
   39.4660   32.1080   39.9530 N   0  0  0  0  0  0  0  0  0  0  0  0
   38.1640   35.0850   40.0370 H   0  0  0  0  0  0  0  0  0  0  0  0
   42.7620   31.3350   40.1940 H   0  0  0  0  0  0  0  0  0  0  0  0
   42.9650   32.3260   40.0250 N   0  0  0  0  0  0  0  0  0  0  0  0
   42.8490   32.7880   38.6850 C   0  0  0  0  0  2  0  0  0  0  0  0
   41.5550   33.4300   38.3150 C   0  0  0  0  0  2  0  0  0  0  0  0
   40.8430   34.1190   39.4490 C   0  0  0  0  0  3  0  0  0  0  0  0
   41.7250   34.3710   40.6500 C   0  0  0  0  0  2  0  0  0  0  0  0
   42.6000   33.2430   41.0420 C   0  0  0  0  0  2  0  0  0  0  0  0
  1  9  1  0  0  0  0
  2  7  1  0  0  0  0
  2  1  2  0  0  0  0
  3  2  1  0  0  0  0
  4  3  2  0  0  0  0
  4  5  1  0  0  0  0
  5  6  2  0  0  0  0
  6  1  1  0  0  0  0
  8  3  1  0  0  0  0
  9 15  1  0  0  0  0
  9 10  1  0  0  0  0
 10 17  1  0  0  0  0
 10 16  1  0  0  0  0
 11 10  1  0  0  0  0
 11 18  1  0  0  0  0
 12 11  1  0  0  0  0
 12 21  1  0  0  0  0
 13 23  1  0  0  0  0
 13 12  1  0  0  0  0
 14 13  1  0  0  0  0
 14  9  1  0  0  0  0
 19 11  1  0  0  0  0
 20 12  1  0  0  0  0
 22 13  1  0  0  0  0
 24 14  1  0  0  0  0
 25 14  1  0  0  0  0
 26 27  1  0  0  0  0
 26  5  1  0  0  0  0
 28 27  2  0  0  0  0
 29 30  1  0  0  0  0
 29 28  1  0  0  0  0
 30 26  2  0  0  0  0
 31 28  1  0  0  0  0
 33 32  1  0  0  0  0
 33 38  1  0  0  0  0
 34 33  1  0  0  0  0
 35 34  1  0  0  0  0
 35 36  1  0  0  0  0
 36 29  1  0  0  0  0
 36 37  1  0  0  0  0
 37 38  1  0  0  0  0
M  END
>  <minimizedAffinity>
-5.89721918

$$$$

 OpenBabel03242519263D

 38 41  0  0  0  0  0  0  0  0999 V2000
   38.5630   25.1840   42.0540 C   0  0  0  0  0  0  0  0  0  0  0  0
   39.4190   24.8180   43.1070 C   0  0  0  0  0  0  0  0  0  0  0  0
   40.2630   25.7730   43.6970 C   0  0  0  0  0  0  0  0  0  0  0  0
   40.1850   27.0460   43.1780 N   0  0  0  0  0  0  0  0  0  0  0  0
   39.3420   27.3680   42.1530 C   0  0  0  0  0  0  0  0  0  0  0  0
   38.5480   26.4390   41.6090 N   0  0  0  0  0  0  0  0  0  0  0  0
   39.5460   23.8530   43.5750 H   0  0  0  0  0  0  0  0  0  0  0  0
   40.9380   25.5770   44.4960 H   0  0  0  0  0  0  0  0  0  0  0  0
   37.7310   24.0900   41.5210 C   0  0  0  0  0  0  0  0  0  0  0  0
   38.4850   23.0720   40.7900 C   0  0  0  0  0  0  0  0  0  0  0  0
   38.2020   23.0260   39.3330 C   0  0  0  0  0  0  0  0  0  0  0  0
   36.7210   22.9240   39.0090 C   0  0  0  0  0  0  0  0  0  0  0  0
   35.8310   23.6840   39.9700 C   0  0  0  0  0  0  0  0  0  0  0  0
   36.6200   24.7560   40.6880 C   0  0  0  0  0  0  0  0  0  0  0  0
   37.1680   23.6680   42.4040 H   0  0  0  0  0  0  0  0  0  0  0  0
   38.2580   22.0520   41.2110 H   0  0  0  0  0  0  0  0  0  0  0  0
   39.5650   23.2150   40.9190 H   0  0  0  0  0  0  0  0  0  0  0  0
   38.6230   22.0420   38.9680 H   0  0  0  0  0  0  0  0  0  0  0  0
   38.6910   23.7760   38.7070 H   0  0  0  0  0  0  0  0  0  0  0  0
   36.5750   23.4120   38.0200 H   0  0  0  0  0  0  0  0  0  0  0  0
   36.3770   21.8830   38.8760 H   0  0  0  0  0  0  0  0  0  0  0  0
   34.9560   24.1490   39.5020 H   0  0  0  0  0  0  0  0  0  0  0  0
   35.5090   22.9720   40.7780 H   0  0  0  0  0  0  0  0  0  0  0  0
   35.9380   25.2780   41.3810 H   0  0  0  0  0  0  0  0  0  0  0  0
   37.0670   25.4940   39.9700 H   0  0  0  0  0  0  0  0  0  0  0  0
   39.3770   28.7540   41.7140 C   0  0  0  0  0  0  0  0  0  0  0  0
   39.3530   29.7040   42.6900 N   0  0  0  0  0  0  0  0  0  0  0  0
   39.3930   30.9240   42.1130 C   0  0  0  0  0  0  0  0  0  0  0  0
   39.4410   30.7180   40.7630 N   0  0  0  0  0  0  0  0  0  0  0  0
   39.4310   29.4020   40.5340 N   0  0  0  0  0  0  0  0  0  0  0  0
   39.3850   31.8520   42.6700 H   0  0  0  0  0  0  0  0  0  0  0  0
   36.5950   33.2180   40.9850 H   0  0  0  0  0  0  0  0  0  0  0  0
   37.1470   33.3220   40.1260 N   0  0  0  0  0  0  0  0  0  0  0  0
   38.3940   33.9930   40.2390 C   0  0  0  0  0  2  0  0  0  0  0  0
   39.6000   33.1300   40.4010 C   0  0  0  0  0  2  0  0  0  0  0  0
   39.4940   31.7690   39.7650 C   0  0  0  0  0  3  0  0  0  0  0  0
   38.3660   31.6570   38.7660 C   0  0  0  0  0  2  0  0  0  0  0  0
   37.0820   32.2630   39.1860 C   0  0  0  0  0  2  0  0  0  0  0  0
  1  2  1  0  0  0  0
  2  7  1  0  0  0  0
  2  3  2  0  0  0  0
  3  8  1  0  0  0  0
  4  3  1  0  0  0  0
  5  4  2  0  0  0  0
  6  1  2  0  0  0  0
  6  5  1  0  0  0  0
  9  1  1  0  0  0  0
  9 15  1  0  0  0  0
 10 17  1  0  0  0  0
 10 16  1  0  0  0  0
 10  9  1  0  0  0  0
 11 10  1  0  0  0  0
 12 11  1  0  0  0  0
 12 13  1  0  0  0  0
 13 14  1  0  0  0  0
 13 23  1  0  0  0  0
 14 24  1  0  0  0  0
 14  9  1  0  0  0  0
 18 11  1  0  0  0  0
 19 11  1  0  0  0  0
 20 12  1  0  0  0  0
 21 12  1  0  0  0  0
 22 13  1  0  0  0  0
 25 14  1  0  0  0  0
 26  5  1  0  0  0  0
 26 27  1  0  0  0  0
 28 31  1  0  0  0  0
 28 27  2  0  0  0  0
 29 28  1  0  0  0  0
 30 29  1  0  0  0  0
 30 26  2  0  0  0  0
 33 34  1  0  0  0  0
 33 32  1  0  0  0  0
 34 35  1  0  0  0  0
 36 35  1  0  0  0  0
 36 29  1  0  0  0  0
 37 38  1  0  0  0  0
 37 36  1  0  0  0  0
 38 33  1  0  0  0  0
M  END
>  <minimizedAffinity>
-5.872087

$$$$

 OpenBabel03242519263D

 38 41  0  0  0  0  0  0  0  0999 V2000
   32.5570   29.3390   37.0860 C   0  0  0  0  0  0  0  0  0  0  0  0
   33.0860   29.1500   35.7980 C   0  0  0  0  0  0  0  0  0  0  0  0
   34.4500   28.8620   35.6280 C   0  0  0  0  0  0  0  0  0  0  0  0
   35.1960   28.7840   36.7830 N   0  0  0  0  0  0  0  0  0  0  0  0
   34.6500   28.9740   38.0210 C   0  0  0  0  0  0  0  0  0  0  0  0
   33.3480   29.2460   38.1540 N   0  0  0  0  0  0  0  0  0  0  0  0
   32.5810   29.1910   34.8440 H   0  0  0  0  0  0  0  0  0  0  0  0
   34.9260   28.7050   34.6890 H   0  0  0  0  0  0  0  0  0  0  0  0
   31.1140   29.6370   37.1280 C   0  0  0  0  0  0  0  0  0  0  0  0
   30.7020   30.7100   36.2240 C   0  0  0  0  0  0  0  0  0  0  0  0
   30.2410   31.9450   36.9060 C   0  0  0  0  0  0  0  0  0  0  0  0
   29.1680   31.6920   37.9520 C   0  0  0  0  0  0  0  0  0  0  0  0
   29.3380   30.3850   38.6990 C   0  0  0  0  0  0  0  0  0  0  0  0
   30.7690   29.9040   38.6050 C   0  0  0  0  0  0  0  0  0  0  0  0
   30.5880   28.6600   36.9170 H   0  0  0  0  0  0  0  0  0  0  0  0
   29.8610   30.3540   35.5640 H   0  0  0  0  0  0  0  0  0  0  0  0
   31.5180   30.9850   35.5440 H   0  0  0  0  0  0  0  0  0  0  0  0
   29.7060   32.5520   36.1170 H   0  0  0  0  0  0  0  0  0  0  0  0
   31.0100   32.6210   37.2880 H   0  0  0  0  0  0  0  0  0  0  0  0
   29.2750   32.4890   38.7210 H   0  0  0  0  0  0  0  0  0  0  0  0
   28.1430   31.8020   37.5570 H   0  0  0  0  0  0  0  0  0  0  0  0
   29.0530   30.4290   39.7560 H   0  0  0  0  0  0  0  0  0  0  0  0
   28.7340   29.6020   38.1640 H   0  0  0  0  0  0  0  0  0  0  0  0
   30.8460   28.9500   39.1530 H   0  0  0  0  0  0  0  0  0  0  0  0
   31.4870   30.6480   39.0400 H   0  0  0  0  0  0  0  0  0  0  0  0
   35.5680   28.8630   39.1430 C   0  0  0  0  0  0  0  0  0  0  0  0
   36.8970   28.9030   38.8490 N   0  0  0  0  0  0  0  0  0  0  0  0
   37.6020   28.7890   39.9960 C   0  0  0  0  0  0  0  0  0  0  0  0
   36.6890   28.6760   41.0070 N   0  0  0  0  0  0  0  0  0  0  0  0
   35.4630   28.7210   40.4790 N   0  0  0  0  0  0  0  0  0  0  0  0
   38.6830   28.7930   40.0400 H   0  0  0  0  0  0  0  0  0  0  0  0
   39.8070   26.6170   41.6650 H   0  0  0  0  0  0  0  0  0  0  0  0
   39.2740   26.8100   42.5200 N   0  0  0  0  0  0  0  0  0  0  0  0
   39.4170   28.1050   43.0880 C   0  0  0  0  0  2  0  0  0  0  0  0
   38.3770   29.1090   42.7210 C   0  0  0  0  0  2  0  0  0  0  0  0
   37.0200   28.5310   42.4110 C   0  0  0  0  0  3  0  0  0  0  0  0
   36.8490   27.1080   42.8900 C   0  0  0  0  0  2  0  0  0  0  0  0
   37.9960   26.2080   42.6330 C   0  0  0  0  0  2  0  0  0  0  0  0
  1  9  1  0  0  0  0
  1  6  1  0  0  0  0
  2  1  2  0  0  0  0
  3  2  1  0  0  0  0
  3  4  2  0  0  0  0
  4  5  1  0  0  0  0
  5  6  2  0  0  0  0
  5 26  1  0  0  0  0
  7  2  1  0  0  0  0
  8  3  1  0  0  0  0
  9 14  1  0  0  0  0
 10 11  1  0  0  0  0
 10  9  1  0  0  0  0
 11 19  1  0  0  0  0
 11 12  1  0  0  0  0
 12 13  1  0  0  0  0
 12 20  1  0  0  0  0
 13 22  1  0  0  0  0
 14 13  1  0  0  0  0
 14 25  1  0  0  0  0
 14 24  1  0  0  0  0
 15  9  1  0  0  0  0
 16 10  1  0  0  0  0
 17 10  1  0  0  0  0
 18 11  1  0  0  0  0
 21 12  1  0  0  0  0
 23 13  1  0  0  0  0
 26 30  2  0  0  0  0
 27 26  1  0  0  0  0
 27 28  2  0  0  0  0
 28 31  1  0  0  0  0
 28 29  1  0  0  0  0
 29 36  1  0  0  0  0
 30 29  1  0  0  0  0
 32 33  1  0  0  0  0
 33 38  1  0  0  0  0
 33 34  1  0  0  0  0
 35 34  1  0  0  0  0
 36 35  1  0  0  0  0
 36 37  1  0  0  0  0
 38 37  1  0  0  0  0
M  END
>  <minimizedAffinity>
-5.80936098

$$$$

 OpenBabel03242519263D

 38 41  0  0  0  0  0  0  0  0999 V2000
   32.7120   29.1900   36.6790 C   0  0  0  0  0  0  0  0  0  0  0  0
   33.2340   29.3710   35.3860 C   0  0  0  0  0  0  0  0  0  0  0  0
   34.5750   29.0560   35.1140 C   0  0  0  0  0  0  0  0  0  0  0  0
   35.3080   28.5760   36.1770 N   0  0  0  0  0  0  0  0  0  0  0  0
   34.7690   28.4130   37.4220 C   0  0  0  0  0  0  0  0  0  0  0  0
   33.4890   28.7190   37.6540 N   0  0  0  0  0  0  0  0  0  0  0  0
   32.7390   29.7380   34.4990 H   0  0  0  0  0  0  0  0  0  0  0  0
   35.0450   29.1640   34.1650 H   0  0  0  0  0  0  0  0  0  0  0  0
   31.2940   29.5580   36.8340 C   0  0  0  0  0  0  0  0  0  0  0  0
   30.8450   30.5980   35.9080 C   0  0  0  0  0  0  0  0  0  0  0  0
   30.5030   31.8900   36.5540 C   0  0  0  0  0  0  0  0  0  0  0  0
   29.5230   31.7480   37.7060 C   0  0  0  0  0  0  0  0  0  0  0  0
   29.7060   30.4780   38.5120 C   0  0  0  0  0  0  0  0  0  0  0  0
   31.1000   29.9240   38.3170 C   0  0  0  0  0  0  0  0  0  0  0  0
   30.7100   28.5980   36.7310 H   0  0  0  0  0  0  0  0  0  0  0  0
   29.9320   30.2460   35.3500 H   0  0  0  0  0  0  0  0  0  0  0  0
   31.6050   30.7950   35.1410 H   0  0  0  0  0  0  0  0  0  0  0  0
   29.9220   32.4760   35.7810 H   0  0  0  0  0  0  0  0  0  0  0  0
   31.3330   32.5480   36.8220 H   0  0  0  0  0  0  0  0  0  0  0  0
   29.7360   32.5810   38.4130 H   0  0  0  0  0  0  0  0  0  0  0  0
   28.4710   31.8840   37.4000 H   0  0  0  0  0  0  0  0  0  0  0  0
   29.5240   30.5950   39.5860 H   0  0  0  0  0  0  0  0  0  0  0  0
   29.0220   29.6960   38.0820 H   0  0  0  0  0  0  0  0  0  0  0  0
   31.1880   29.0000   38.9120 H   0  0  0  0  0  0  0  0  0  0  0  0
   31.8870   30.6560   38.6390 H   0  0  0  0  0  0  0  0  0  0  0  0
   35.6710   27.8990   38.4400 C   0  0  0  0  0  0  0  0  0  0  0  0
   35.7300   26.5450   38.5750 N   0  0  0  0  0  0  0  0  0  0  0  0
   36.6090   26.2420   39.5550 C   0  0  0  0  0  0  0  0  0  0  0  0
   37.0950   27.4280   40.0270 N   0  0  0  0  0  0  0  0  0  0  0  0
   36.5210   28.4230   39.3460 N   0  0  0  0  0  0  0  0  0  0  0  0
   36.8410   25.2300   39.8620 H   0  0  0  0  0  0  0  0  0  0  0  0
   35.8640   29.3990   43.0270 H   0  0  0  0  0  0  0  0  0  0  0  0
   36.8740   29.2180   43.0600 N   0  0  0  0  0  0  0  0  0  0  0  0
   37.2830   27.9190   43.4650 C   0  0  0  0  0  2  0  0  0  0  0  0
   37.5760   26.9450   42.3750 C   0  0  0  0  0  2  0  0  0  0  0  0
   38.0700   27.5610   41.0920 C   0  0  0  0  0  3  0  0  0  0  0  0
   38.5430   28.9870   41.2520 C   0  0  0  0  0  2  0  0  0  0  0  0
   37.6750   29.8550   42.0790 C   0  0  0  0  0  2  0  0  0  0  0  0
  1  9  1  0  0  0  0
  1  6  1  0  0  0  0
  2  1  2  0  0  0  0
  3  2  1  0  0  0  0
  3  4  2  0  0  0  0
  4  5  1  0  0  0  0
  5  6  2  0  0  0  0
  5 26  1  0  0  0  0
  7  2  1  0  0  0  0
  8  3  1  0  0  0  0
  9 14  1  0  0  0  0
 10 11  1  0  0  0  0
 10  9  1  0  0  0  0
 11 19  1  0  0  0  0
 11 12  1  0  0  0  0
 12 20  1  0  0  0  0
 12 13  1  0  0  0  0
 13 22  1  0  0  0  0
 14 13  1  0  0  0  0
 14 25  1  0  0  0  0
 14 24  1  0  0  0  0
 15  9  1  0  0  0  0
 16 10  1  0  0  0  0
 17 10  1  0  0  0  0
 18 11  1  0  0  0  0
 21 12  1  0  0  0  0
 23 13  1  0  0  0  0
 26 27  1  0  0  0  0
 26 30  2  0  0  0  0
 27 28  2  0  0  0  0
 28 31  1  0  0  0  0
 28 29  1  0  0  0  0
 29 36  1  0  0  0  0
 30 29  1  0  0  0  0
 32 33  1  0  0  0  0
 33 34  1  0  0  0  0
 35 34  1  0  0  0  0
 36 37  1  0  0  0  0
 36 35  1  0  0  0  0
 37 38  1  0  0  0  0
 38 33  1  0  0  0  0
M  END
>  <minimizedAffinity>
-5.77316236

$$$$

 OpenBabel03242519263D

 38 41  0  0  0  0  0  0  0  0999 V2000
   37.3740   27.1020   41.7650 C   0  0  0  0  0  0  0  0  0  0  0  0
   36.9860   27.2630   43.1060 C   0  0  0  0  0  0  0  0  0  0  0  0
   37.3930   28.3950   43.8300 C   0  0  0  0  0  0  0  0  0  0  0  0
   38.1750   29.2980   43.1440 N   0  0  0  0  0  0  0  0  0  0  0  0
   38.5360   29.1100   41.8400 C   0  0  0  0  0  0  0  0  0  0  0  0
   38.1330   28.0230   41.1730 N   0  0  0  0  0  0  0  0  0  0  0  0
   36.3790   26.6130   43.7200 H   0  0  0  0  0  0  0  0  0  0  0  0
   37.1420   28.5910   44.8460 H   0  0  0  0  0  0  0  0  0  0  0  0
   36.8830   25.8720   41.1190 C   0  0  0  0  0  0  0  0  0  0  0  0
   36.9540   24.6840   41.9690 C   0  0  0  0  0  0  0  0  0  0  0  0
   37.9350   23.6650   41.5200 C   0  0  0  0  0  0  0  0  0  0  0  0
   37.7660   23.2640   40.0640 C   0  0  0  0  0  0  0  0  0  0  0  0
   37.3300   24.4020   39.1640 C   0  0  0  0  0  0  0  0  0  0  0  0
   37.6610   25.7350   39.7970 C   0  0  0  0  0  0  0  0  0  0  0  0
   35.8320   26.1000   40.7720 H   0  0  0  0  0  0  0  0  0  0  0  0
   35.9450   24.1850   42.0160 H   0  0  0  0  0  0  0  0  0  0  0  0
   37.2000   24.9570   43.0040 H   0  0  0  0  0  0  0  0  0  0  0  0
   37.6810   22.7210   42.0870 H   0  0  0  0  0  0  0  0  0  0  0  0
   38.9860   23.8450   41.7590 H   0  0  0  0  0  0  0  0  0  0  0  0
   38.7720   22.9630   39.6950 H   0  0  0  0  0  0  0  0  0  0  0  0
   37.1260   22.3750   39.9310 H   0  0  0  0  0  0  0  0  0  0  0  0
   37.7660   24.3740   38.1590 H   0  0  0  0  0  0  0  0  0  0  0  0
   36.2080   24.3820   39.1030 H   0  0  0  0  0  0  0  0  0  0  0  0
   37.3210   26.5320   39.1150 H   0  0  0  0  0  0  0  0  0  0  0  0
   38.7620   25.8440   39.9850 H   0  0  0  0  0  0  0  0  0  0  0  0
   39.3660   30.1510   41.2550 C   0  0  0  0  0  0  0  0  0  0  0  0
   38.8680   31.4180   41.2860 N   0  0  0  0  0  0  0  0  0  0  0  0
   39.7600   32.2520   40.7090 C   0  0  0  0  0  0  0  0  0  0  0  0
   40.8190   31.4840   40.3170 N   0  0  0  0  0  0  0  0  0  0  0  0
   40.5700   30.2150   40.6530 N   0  0  0  0  0  0  0  0  0  0  0  0
   39.6050   33.3180   40.6060 H   0  0  0  0  0  0  0  0  0  0  0  0
   40.1240   33.2760   37.0460 H   0  0  0  0  0  0  0  0  0  0  0  0
   41.1230   33.0910   37.1910 N   0  0  0  0  0  0  0  0  0  0  0  0
   41.8140   33.9560   38.0830 C   0  0  0  0  0  2  0  0  0  0  0  0
   41.9580   33.4820   39.4890 C   0  0  0  0  0  2  0  0  0  0  0  0
   42.0050   31.9840   39.6510 C   0  0  0  0  0  3  0  0  0  0  0  0
   42.2830   31.2480   38.3600 C   0  0  0  0  0  2  0  0  0  0  0  0
   41.5380   31.7360   37.1780 C   0  0  0  0  0  2  0  0  0  0  0  0
  1  2  1  0  0  0  0
  2  7  1  0  0  0  0
  2  3  2  0  0  0  0
  3  8  1  0  0  0  0
  4  3  1  0  0  0  0
  5  4  2  0  0  0  0
  6  1  2  0  0  0  0
  6  5  1  0  0  0  0
  9  1  1  0  0  0  0
  9 10  1  0  0  0  0
 10 16  1  0  0  0  0
 10 17  1  0  0  0  0
 11 19  1  0  0  0  0
 11 10  1  0  0  0  0
 11 18  1  0  0  0  0
 12 11  1  0  0  0  0
 13 14  1  0  0  0  0
 13 12  1  0  0  0  0
 14 25  1  0  0  0  0
 14  9  1  0  0  0  0
 15  9  1  0  0  0  0
 20 12  1  0  0  0  0
 21 12  1  0  0  0  0
 22 13  1  0  0  0  0
 23 13  1  0  0  0  0
 24 14  1  0  0  0  0
 26 27  1  0  0  0  0
 26  5  1  0  0  0  0
 28 27  2  0  0  0  0
 29 30  1  0  0  0  0
 29 28  1  0  0  0  0
 30 26  2  0  0  0  0
 31 28  1  0  0  0  0
 32 33  1  0  0  0  0
 33 34  1  0  0  0  0
 34 35  1  0  0  0  0
 35 36  1  0  0  0  0
 36 29  1  0  0  0  0
 37 36  1  0  0  0  0
 38 33  1  0  0  0  0
 38 37  1  0  0  0  0
M  END
>  <minimizedAffinity>
-5.74523163

$$$$

 OpenBabel03242519263D

 38 41  0  0  0  0  0  0  0  0999 V2000
   35.7770   28.3920   40.1850 C   0  0  0  0  0  0  0  0  0  0  0  0
   36.5600   27.3590   39.6380 C   0  0  0  0  0  0  0  0  0  0  0  0
   36.2870   26.8710   38.3510 C   0  0  0  0  0  0  0  0  0  0  0  0
   35.2310   27.4630   37.6940 N   0  0  0  0  0  0  0  0  0  0  0  0
   34.4900   28.4640   38.2550 C   0  0  0  0  0  0  0  0  0  0  0  0
   34.7710   28.9120   39.4830 N   0  0  0  0  0  0  0  0  0  0  0  0
   37.4000   26.8400   40.0760 H   0  0  0  0  0  0  0  0  0  0  0  0
   36.8310   26.0940   37.8670 H   0  0  0  0  0  0  0  0  0  0  0  0
   36.1640   28.8120   41.5430 C   0  0  0  0  0  0  0  0  0  0  0  0
   37.0810   29.9510   41.5740 C   0  0  0  0  0  0  0  0  0  0  0  0
   38.4440   29.6300   42.0670 C   0  0  0  0  0  0  0  0  0  0  0  0
   38.4480   28.9100   43.4050 C   0  0  0  0  0  0  0  0  0  0  0  0
   37.2880   27.9530   43.5880 C   0  0  0  0  0  0  0  0  0  0  0  0
   36.7120   27.5570   42.2470 C   0  0  0  0  0  0  0  0  0  0  0  0
   35.1990   29.0110   42.0950 H   0  0  0  0  0  0  0  0  0  0  0  0
   36.6640   30.7610   42.2370 H   0  0  0  0  0  0  0  0  0  0  0  0
   37.1800   30.4030   40.5790 H   0  0  0  0  0  0  0  0  0  0  0  0
   38.9310   30.6240   42.2980 H   0  0  0  0  0  0  0  0  0  0  0  0
   39.1290   29.1530   41.3620 H   0  0  0  0  0  0  0  0  0  0  0  0
   39.3620   28.2760   43.4250 H   0  0  0  0  0  0  0  0  0  0  0  0
   38.5470   29.5950   44.2660 H   0  0  0  0  0  0  0  0  0  0  0  0
   37.5380   27.0420   44.1430 H   0  0  0  0  0  0  0  0  0  0  0  0
   36.4600   28.5100   44.1050 H   0  0  0  0  0  0  0  0  0  0  0  0
   35.8690   26.8690   42.4260 H   0  0  0  0  0  0  0  0  0  0  0  0
   37.4780   27.0550   41.5980 H   0  0  0  0  0  0  0  0  0  0  0  0
   33.4060   28.9850   37.4380 C   0  0  0  0  0  0  0  0  0  0  0  0
   33.5770   28.9260   36.0880 N   0  0  0  0  0  0  0  0  0  0  0  0
   32.4850   29.4450   35.4860 C   0  0  0  0  0  0  0  0  0  0  0  0
   31.6330   29.8290   36.4820 N   0  0  0  0  0  0  0  0  0  0  0  0
   32.2000   29.5460   37.6580 N   0  0  0  0  0  0  0  0  0  0  0  0
   32.3680   29.5160   34.4120 H   0  0  0  0  0  0  0  0  0  0  0  0
   29.2990   29.5700   39.4620 H   0  0  0  0  0  0  0  0  0  0  0  0
   28.8240   29.9020   38.6150 N   0  0  0  0  0  0  0  0  0  0  0  0
   29.0140   31.2660   38.2630 C   0  0  0  0  0  2  0  0  0  0  0  0
   30.0810   31.5500   37.2610 C   0  0  0  0  0  2  0  0  0  0  0  0
   30.3340   30.4390   36.2740 C   0  0  0  0  0  3  0  0  0  0  0  0
   29.2270   29.4130   36.2270 C   0  0  0  0  0  2  0  0  0  0  0  0
   28.7000   28.9840   37.5420 C   0  0  0  0  0  2  0  0  0  0  0  0
  1  9  1  0  0  0  0
  2  7  1  0  0  0  0
  2  1  1  0  0  0  0
  3  2  2  0  0  0  0
  4  5  2  0  0  0  0
  4  3  1  0  0  0  0
  5  6  1  0  0  0  0
  6  1  2  0  0  0  0
  8  3  1  0  0  0  0
  9 10  1  0  0  0  0
  9 15  1  0  0  0  0
  9 14  1  0  0  0  0
 10 11  1  0  0  0  0
 10 16  1  0  0  0  0
 11 18  1  0  0  0  0
 11 12  1  0  0  0  0
 12 20  1  0  0  0  0
 12 13  1  0  0  0  0
 12 21  1  0  0  0  0
 13 23  1  0  0  0  0
 13 22  1  0  0  0  0
 14 24  1  0  0  0  0
 14 13  1  0  0  0  0
 17 10  1  0  0  0  0
 19 11  1  0  0  0  0
 25 14  1  0  0  0  0
 26 30  2  0  0  0  0
 26  5  1  0  0  0  0
 27 26  1  0  0  0  0
 28 27  2  0  0  0  0
 28 29  1  0  0  0  0
 29 30  1  0  0  0  0
 31 28  1  0  0  0  0
 33 32  1  0  0  0  0
 34 33  1  0  0  0  0
 35 34  1  0  0  0  0
 36 29  1  0  0  0  0
 36 35  1  0  0  0  0
 37 36  1  0  0  0  0
 37 38  1  0  0  0  0
 38 33  1  0  0  0  0
M  END
>  <minimizedAffinity>
-5.66388083

$$$$

 OpenBabel03242519263D

 38 41  0  0  0  0  0  0  0  0999 V2000
   37.1500   27.0030   41.6760 C   0  0  0  0  0  0  0  0  0  0  0  0
   37.0740   27.0210   43.0800 C   0  0  0  0  0  0  0  0  0  0  0  0
   37.3200   28.2080   43.7880 C   0  0  0  0  0  0  0  0  0  0  0  0
   37.6310   29.3110   43.0230 N   0  0  0  0  0  0  0  0  0  0  0  0
   37.6970   29.2590   41.6590 C   0  0  0  0  0  0  0  0  0  0  0  0
   37.4570   28.1150   41.0100 N   0  0  0  0  0  0  0  0  0  0  0  0
   36.8390   26.2120   43.7570 H   0  0  0  0  0  0  0  0  0  0  0  0
   37.2820   28.3040   44.8470 H   0  0  0  0  0  0  0  0  0  0  0  0
   36.8720   25.6970   41.0550 C   0  0  0  0  0  0  0  0  0  0  0  0
   37.1440   24.5540   41.9270 C   0  0  0  0  0  0  0  0  0  0  0  0
   38.2820   23.7060   41.4920 C   0  0  0  0  0  0  0  0  0  0  0  0
   38.1820   23.2560   40.0450 C   0  0  0  0  0  0  0  0  0  0  0  0
   37.5590   24.2870   39.1250 C   0  0  0  0  0  0  0  0  0  0  0  0
   37.6620   25.6680   39.7330 C   0  0  0  0  0  0  0  0  0  0  0  0
   35.7980   25.7380   40.7080 H   0  0  0  0  0  0  0  0  0  0  0  0
   36.2330   23.8930   41.9860 H   0  0  0  0  0  0  0  0  0  0  0  0
   37.3410   24.8830   42.9550 H   0  0  0  0  0  0  0  0  0  0  0  0
   38.1900   22.7440   42.0770 H   0  0  0  0  0  0  0  0  0  0  0  0
   39.2880   24.0650   41.7230 H   0  0  0  0  0  0  0  0  0  0  0  0
   39.2230   23.1210   39.6770 H   0  0  0  0  0  0  0  0  0  0  0  0
   37.7000   22.2690   39.9300 H   0  0  0  0  0  0  0  0  0  0  0  0
   37.9930   24.3140   38.1200 H   0  0  0  0  0  0  0  0  0  0  0  0
   36.4560   24.0770   39.0690 H   0  0  0  0  0  0  0  0  0  0  0  0
   37.1910   26.3840   39.0380 H   0  0  0  0  0  0  0  0  0  0  0  0
   38.7290   25.9640   39.9150 H   0  0  0  0  0  0  0  0  0  0  0  0
   38.0400   30.5060   40.9940 C   0  0  0  0  0  0  0  0  0  0  0  0
   37.0320   31.4080   40.8320 N   0  0  0  0  0  0  0  0  0  0  0  0
   37.5200   32.5000   40.2030 C   0  0  0  0  0  0  0  0  0  0  0  0
   38.8460   32.2610   39.9760 N   0  0  0  0  0  0  0  0  0  0  0  0
   39.1490   31.0530   40.4570 N   0  0  0  0  0  0  0  0  0  0  0  0
   36.9220   33.3660   39.9550 H   0  0  0  0  0  0  0  0  0  0  0  0
   42.5130   31.3680   40.3610 H   0  0  0  0  0  0  0  0  0  0  0  0
   42.3740   32.3030   39.9630 N   0  0  0  0  0  0  0  0  0  0  0  0
   42.0320   32.3720   38.5850 C   0  0  0  0  0  2  0  0  0  0  0  0
   40.5790   32.4860   38.2670 C   0  0  0  0  0  2  0  0  0  0  0  0
   39.7540   33.1810   39.3180 C   0  0  0  0  0  3  0  0  0  0  0  0
   40.5800   33.9670   40.3100 C   0  0  0  0  0  2  0  0  0  0  0  0
   41.7950   33.2840   40.8070 C   0  0  0  0  0  2  0  0  0  0  0  0
  1  2  1  0  0  0  0
  2  7  1  0  0  0  0
  2  3  2  0  0  0  0
  3  8  1  0  0  0  0
  4  3  1  0  0  0  0
  5  4  2  0  0  0  0
  6  5  1  0  0  0  0
  6  1  2  0  0  0  0
  9  1  1  0  0  0  0
  9 10  1  0  0  0  0
 10 16  1  0  0  0  0
 10 17  1  0  0  0  0
 11 19  1  0  0  0  0
 11 10  1  0  0  0  0
 11 18  1  0  0  0  0
 12 11  1  0  0  0  0
 13 14  1  0  0  0  0
 13 12  1  0  0  0  0
 14 25  1  0  0  0  0
 14  9  1  0  0  0  0
 15  9  1  0  0  0  0
 20 12  1  0  0  0  0
 21 12  1  0  0  0  0
 22 13  1  0  0  0  0
 23 13  1  0  0  0  0
 24 14  1  0  0  0  0
 26  5  1  0  0  0  0
 27 26  1  0  0  0  0
 28 27  2  0  0  0  0
 29 28  1  0  0  0  0
 29 30  1  0  0  0  0
 30 26  2  0  0  0  0
 31 28  1  0  0  0  0
 33 32  1  0  0  0  0
 33 38  1  0  0  0  0
 34 33  1  0  0  0  0
 35 34  1  0  0  0  0
 35 36  1  0  0  0  0
 36 29  1  0  0  0  0
 36 37  1  0  0  0  0
 37 38  1  0  0  0  0
M  END
>  <minimizedAffinity>
-5.61759615

$$$$
