
 OpenBabel03252505473D

 27 29  0  0  1  0  0  0  0  0999 V2000
   46.4990   33.5370   43.5070 C   0  0  0  0  0  0  0  0  0  0  0  0
   46.5840   34.8280   42.9100 C   0  0  0  0  0  0  0  0  0  0  0  0
   47.4420   35.0530   41.8410 C   0  0  0  0  0  0  0  0  0  0  0  0
   48.1830   33.9980   41.4040 N   0  0  0  0  0  0  0  0  0  0  0  0
   48.0750   32.7700   42.0050 C   0  0  0  0  0  0  0  0  0  0  0  0
   47.2510   32.5480   43.0320 N   0  0  0  0  0  0  0  0  0  0  0  0
   45.9770   35.6400   43.2880 H   0  0  0  0  0  0  0  0  0  0  0  0
   47.5350   36.0010   41.3670 H   0  0  0  0  0  0  0  0  0  0  0  0
   45.5840   33.3620   44.6410 C   0  0  1  0  0  0  0  0  0  0  0  0
   46.3450   33.4980   46.0100 C   0  0  1  0  0  0  0  0  0  0  0  0
   45.1940   34.3660   45.5550 C   0  0  0  0  0  0  0  0  0  0  0  0
   45.0150   32.3890   44.5680 H   0  0  0  0  0  0  0  0  0  0  0  0
   47.3540   33.8990   45.9960 H   0  0  0  0  0  0  0  0  0  0  0  0
   44.2050   34.2650   46.0770 H   0  0  0  0  0  0  0  0  0  0  0  0
   45.4620   35.4350   45.4330 H   0  0  0  0  0  0  0  0  0  0  0  0
   45.9500   32.4550   47.0300 C   0  0  0  0  0  0  0  0  0  0  0  0
   46.8980   32.2380   47.9870 F   0  0  0  0  0  0  0  0  0  0  0  0
   44.7830   32.8920   47.6810 F   0  0  0  0  0  0  0  0  0  0  0  0
   45.5850   31.2680   46.4100 F   0  0  0  0  0  0  0  0  0  0  0  0
   48.8850   31.7850   41.4670 O   0  0  0  0  0  0  0  0  0  0  0  0
   51.7650   29.5960   40.8890 H   0  0  0  0  0  0  0  0  0  0  0  0
   51.8550   30.1620   40.0080 N   0  0  0  0  0  0  0  0  0  0  0  0
   52.2760   31.5030   40.3610 C   0  0  0  0  0  2  0  0  0  0  0  0
   51.2660   32.0340   41.3560 C   0  0  0  0  0  2  0  0  0  0  0  0
   49.9530   32.1500   40.6370 C   0  0  0  0  0  3  0  0  0  0  0  0
   49.9180   31.4910   39.2910 C   0  0  0  0  0  2  0  0  0  0  0  0
   50.6250   30.1670   39.2460 C   0  0  0  0  0  2  0  0  0  0  0  0
  1  9  1  0  0  0  0
  2  7  1  0  0  0  0
  2  1  2  0  0  0  0
  3  2  1  0  0  0  0
  4  3  2  0  0  0  0
  4  5  1  0  0  0  0
  5  6  2  0  0  0  0
  6  1  1  0  0  0  0
  8  3  1  0  0  0  0
  9 12  1  6  0  0  0
  9 11  1  0  0  0  0
  9 10  1  0  0  0  0
 10 13  1  1  0  0  0
 10 16  1  0  0  0  0
 11 10  1  0  0  0  0
 11 14  1  0  0  0  0
 15 11  1  0  0  0  0
 16 18  1  0  0  0  0
 16 17  1  0  0  0  0
 19 16  1  0  0  0  0
 20  5  1  0  0  0  0
 22 23  1  0  0  0  0
 22 21  1  0  0  0  0
 23 24  1  0  0  0  0
 25 24  1  0  0  0  0
 25 20  1  0  0  0  0
 26 25  1  0  0  0  0
 27 26  1  0  0  0  0
 27 22  1  0  0  0  0
M  END
>  <minimizedAffinity>
-4.4056468

>  <minimizedRMSD>
6.83693933

$$$$
