
 OpenBabel03252504463D

 25 26  0  0  0  0  0  0  0  0999 V2000
   47.8040   32.1070   44.1060 O   0  0  0  0  0  0  0  0  0  0  0  0
   48.4470   33.3860   40.7840 C   0  0  0  0  0  0  0  0  0  0  0  0
   49.3310   32.4340   40.2990 C   0  0  0  0  0  0  0  0  0  0  0  0
   49.6770   31.3700   41.1530 C   0  0  0  0  0  0  0  0  0  0  0  0
   49.1400   31.3290   42.3810 N   0  0  0  0  0  0  0  0  0  0  0  0
   48.2730   32.2890   42.8130 C   0  0  0  0  0  0  0  0  0  0  0  0
   47.9370   33.3120   42.0000 N   0  0  0  0  0  0  0  0  0  0  0  0
   49.7570   32.4800   39.3060 H   0  0  0  0  0  0  0  0  0  0  0  0
   50.3590   30.6430   40.7660 H   0  0  0  0  0  0  0  0  0  0  0  0
   48.0790   34.5160   39.8770 C   0  0  0  0  0  0  0  0  0  0  0  0
   47.4130   35.2290   40.3850 H   0  0  0  0  0  0  0  0  0  0  0  0
   48.9840   35.0800   39.5670 H   0  0  0  0  0  0  0  0  0  0  0  0
   47.6160   34.0920   38.9530 H   0  0  0  0  0  0  0  0  0  0  0  0
   45.9290   30.3820   44.4790 O   0  0  0  0  0  0  0  0  0  0  0  0
   47.3970   30.6370   44.8070 P   0  0  1  0  0  0  0  0  0  0  0  0
   48.2570   29.3290   44.1700 O   0  0  0  0  0  0  0  0  0  0  0  0
   49.2400   29.5040   44.2040 H   0  0  0  0  0  0  0  0  0  0  0  0
   47.6370   30.6840   46.4630 O   0  0  0  0  0  0  0  0  0  0  0  0
   43.6570   31.5640   47.7470 H   0  0  0  0  0  0  0  0  0  0  0  0
   44.4330   31.9620   48.2790 N   0  0  0  0  0  0  0  0  0  0  0  0
   45.1260   33.0700   47.7200 C   0  0  0  0  0  2  0  0  0  0  0  0
   46.4360   32.7210   47.0380 C   0  0  0  0  0  2  0  0  0  0  0  0
   46.6310   31.2450   47.1920 C   0  0  0  0  0  3  0  0  0  0  0  0
   46.6350   30.9410   48.6610 C   0  0  0  0  0  2  0  0  0  0  0  0
   45.1790   31.0930   49.1220 C   0  0  0  0  0  2  0  0  0  0  0  0
  1 15  1  0  0  0  0
  2  7  1  0  0  0  0
  3  2  2  0  0  0  0
  3  4  1  0  0  0  0
  4  5  2  0  0  0  0
  5  6  1  0  0  0  0
  6  1  1  0  0  0  0
  7  6  2  0  0  0  0
  8  3  1  0  0  0  0
  9  4  1  0  0  0  0
 10 11  1  0  0  0  0
 10  2  1  0  0  0  0
 12 10  1  0  0  0  0
 13 10  1  0  0  0  0
 15 14  2  6  0  0  0
 15 18  1  0  0  0  0
 16 17  1  0  0  0  0
 16 15  1  0  0  0  0
 18 23  1  0  0  0  0
 19 20  1  0  0  0  0
 20 25  1  0  0  0  0
 21 20  1  0  0  0  0
 22 23  1  0  0  0  0
 22 21  1  0  0  0  0
 23 24  1  0  0  0  0
 24 25  1  0  0  0  0
M  END
>  <minimizedAffinity>
-3.90140009

>  <minimizedRMSD>
4.28467417

$$$$
