
 OpenBabel03252505473D

 27 29  0  0  1  0  0  0  0  0999 V2000
   44.9910   33.9340   42.3680 C   0  0  0  0  0  0  0  0  0  0  0  0
   45.6790   33.8470   41.1240 C   0  0  0  0  0  0  0  0  0  0  0  0
   44.9890   33.5460   39.9560 C   0  0  0  0  0  0  0  0  0  0  0  0
   43.6470   33.3420   40.0630 N   0  0  0  0  0  0  0  0  0  0  0  0
   43.0190   33.4330   41.2780 C   0  0  0  0  0  0  0  0  0  0  0  0
   43.6790   33.7230   42.4020 N   0  0  0  0  0  0  0  0  0  0  0  0
   46.7480   34.0160   41.0840 H   0  0  0  0  0  0  0  0  0  0  0  0
   45.4650   33.4720   39.0080 H   0  0  0  0  0  0  0  0  0  0  0  0
   45.7760   34.2430   43.5680 C   0  0  1  0  0  0  0  0  0  0  0  0
   46.0400   32.9490   44.4220 C   0  0  1  0  0  0  0  0  0  0  0  0
   47.1050   33.8370   43.8190 C   0  0  0  0  0  0  0  0  0  0  0  0
   45.2920   35.0610   44.1800 H   0  0  0  0  0  0  0  0  0  0  0  0
   45.8280   31.9860   43.9680 H   0  0  0  0  0  0  0  0  0  0  0  0
   47.7390   34.4590   44.5060 H   0  0  0  0  0  0  0  0  0  0  0  0
   47.7360   33.3260   43.0630 H   0  0  0  0  0  0  0  0  0  0  0  0
   45.8530   33.1530   45.9080 C   0  0  0  0  0  0  0  0  0  0  0  0
   45.4060   32.0420   46.5610 F   0  0  0  0  0  0  0  0  0  0  0  0
   47.0950   33.5030   46.4670 F   0  0  0  0  0  0  0  0  0  0  0  0
   45.0330   34.2440   46.1590 F   0  0  0  0  0  0  0  0  0  0  0  0
   41.6550   33.1990   41.2480 O   0  0  0  0  0  0  0  0  0  0  0  0
   42.4660   34.5090   37.9260 H   0  0  0  0  0  0  0  0  0  0  0  0
   41.4260   34.6520   37.8680 N   0  0  0  0  0  0  0  0  0  0  0  0
   41.0550   35.7180   38.7770 C   0  0  0  0  0  2  0  0  0  0  0  0
   41.5680   35.3270   40.1470 C   0  0  0  0  0  2  0  0  0  0  0  0
   40.8190   34.0950   40.5680 C   0  0  0  0  0  3  0  0  0  0  0  0
   40.0130   33.4520   39.4790 C   0  0  0  0  0  2  0  0  0  0  0  0
   40.7040   33.4300   38.1460 C   0  0  0  0  0  2  0  0  0  0  0  0
  1  6  1  0  0  0  0
  1  9  1  0  0  0  0
  2  1  2  0  0  0  0
  3  4  2  0  0  0  0
  3  2  1  0  0  0  0
  4  5  1  0  0  0  0
  5  6  2  0  0  0  0
  7  2  1  0  0  0  0
  8  3  1  0  0  0  0
  9 11  1  0  0  0  0
  9 12  1  1  0  0  0
  9 10  1  0  0  0  0
 10 13  1  6  0  0  0
 10 16  1  0  0  0  0
 11 10  1  0  0  0  0
 11 14  1  0  0  0  0
 15 11  1  0  0  0  0
 16 19  1  0  0  0  0
 16 18  1  0  0  0  0
 16 17  1  0  0  0  0
 20  5  1  0  0  0  0
 22 21  1  0  0  0  0
 22 27  1  0  0  0  0
 22 23  1  0  0  0  0
 23 24  1  0  0  0  0
 24 25  1  0  0  0  0
 25 20  1  0  0  0  0
 26 25  1  0  0  0  0
 27 26  1  0  0  0  0
M  END
>  <minimizedAffinity>
-4.57511568

>  <minimizedRMSD>
8.19144154

$$$$
