
 OpenBabel03242516233D

 27 29  0  0  0  0  0  0  0  0999 V2000
   37.4080   30.9780   40.6700 C   0  0  0  0  0  0  0  0  0  0  0  0
   37.7930   29.9640   41.5430 C   0  0  0  0  0  0  0  0  0  0  0  0
   37.0300   28.8330   41.7050 C   0  0  0  0  0  0  0  0  0  0  0  0
   35.8450   28.6760   40.9930 C   0  0  0  0  0  0  0  0  0  0  0  0
   35.4530   29.6510   40.1390 C   0  0  0  0  0  0  0  0  0  0  0  0
   36.2260   30.7890   39.9800 C   0  0  0  0  0  0  0  0  0  0  0  0
   38.7290   30.1160   42.0870 H   0  0  0  0  0  0  0  0  0  0  0  0
   35.2160   27.8230   41.0770 H   0  0  0  0  0  0  0  0  0  0  0  0
   34.5330   29.5910   39.5500 H   0  0  0  0  0  0  0  0  0  0  0  0
   35.8980   31.5640   39.2900 H   0  0  0  0  0  0  0  0  0  0  0  0
   40.3730   33.0990   40.4910 C   0  0  0  0  0  0  0  0  0  0  0  0
   39.8720   34.3640   40.2250 C   0  0  0  0  0  0  0  0  0  0  0  0
   38.4890   34.4970   40.1030 C   0  0  0  0  0  0  0  0  0  0  0  0
   37.6830   33.4080   40.2460 N   0  0  0  0  0  0  0  0  0  0  0  0
   38.2330   32.1780   40.5080 C   0  0  0  0  0  0  0  0  0  0  0  0
   39.5760   32.0220   40.6310 N   0  0  0  0  0  0  0  0  0  0  0  0
   41.4530   32.9200   40.5990 H   0  0  0  0  0  0  0  0  0  0  0  0
   40.5590   35.1990   40.1200 H   0  0  0  0  0  0  0  0  0  0  0  0
   38.0790   35.4740   39.8960 H   0  0  0  0  0  0  0  0  0  0  0  0
   37.5730   27.5760   42.8270 S   0  0  0  0  0  0  0  0  0  0  0  0
   41.7020   24.2360   43.3700 H   0  0  0  0  0  0  0  0  0  0  0  0
   40.9950   24.9310   43.0510 N   0  0  0  0  0  0  0  0  0  0  0  0
   39.6400   24.4090   43.0680 C   0  0  0  0  0  2  0  0  0  0  0  0
   38.7650   25.2640   42.1970 C   0  0  0  0  0  2  0  0  0  0  0  0
   39.0700   26.7220   42.2550 C   0  0  0  0  0  3  0  0  0  0  0  0
   40.2000   27.1680   43.0900 C   0  0  0  0  0  2  0  0  0  0  0  0
   40.9310   26.1280   43.8670 C   0  0  0  0  0  2  0  0  0  0  0  0
  1  2  1  0  0  0  0
  2  3  2  0  0  0  0
  2  7  1  0  0  0  0
  3 20  1  0  0  0  0
  4  8  1  0  0  0  0
  4  3  1  0  0  0  0
  5  4  2  0  0  0  0
  6  5  1  0  0  0  0
  6  1  2  0  0  0  0
  9  5  1  0  0  0  0
 10  6  1  0  0  0  0
 11 17  1  0  0  0  0
 11 16  1  0  0  0  0
 12 11  2  0  0  0  0
 13 12  1  0  0  0  0
 13 14  2  0  0  0  0
 14 15  1  0  0  0  0
 15 16  2  0  0  0  0
 15  1  1  0  0  0  0
 18 12  1  0  0  0  0
 19 13  1  0  0  0  0
 22 23  1  0  0  0  0
 22 21  1  0  0  0  0
 22 27  1  0  0  0  0
 24 25  1  0  0  0  0
 24 23  1  0  0  0  0
 25 20  1  0  0  0  0
 25 26  1  0  0  0  0
 26 27  1  0  0  0  0
M  END
>  <minimizedAffinity>
-5.32942486

$$$$

 OpenBabel03242516233D

 27 29  0  0  0  0  0  0  0  0999 V2000
   37.4250   26.5410   41.7060 C   0  0  0  0  0  0  0  0  0  0  0  0
   36.9490   27.7490   41.2030 C   0  0  0  0  0  0  0  0  0  0  0  0
   37.1280   28.9280   41.8860 C   0  0  0  0  0  0  0  0  0  0  0  0
   37.7960   28.9390   43.1060 C   0  0  0  0  0  0  0  0  0  0  0  0
   38.2660   27.7750   43.6130 C   0  0  0  0  0  0  0  0  0  0  0  0
   38.0830   26.5900   42.9210 C   0  0  0  0  0  0  0  0  0  0  0  0
   36.4300   27.7080   40.2420 H   0  0  0  0  0  0  0  0  0  0  0  0
   37.9640   29.8200   43.6770 H   0  0  0  0  0  0  0  0  0  0  0  0
   38.7990   27.7140   44.5670 H   0  0  0  0  0  0  0  0  0  0  0  0
   38.4660   25.6630   43.3410 H   0  0  0  0  0  0  0  0  0  0  0  0
   36.2480   24.2320   39.1370 C   0  0  0  0  0  0  0  0  0  0  0  0
   36.7880   23.0090   39.5040 C   0  0  0  0  0  0  0  0  0  0  0  0
   37.5730   22.9700   40.6570 C   0  0  0  0  0  0  0  0  0  0  0  0
   37.7850   24.1080   41.3760 N   0  0  0  0  0  0  0  0  0  0  0  0
   37.2260   25.2930   40.9660 C   0  0  0  0  0  0  0  0  0  0  0  0
   36.4590   25.3570   39.8480 N   0  0  0  0  0  0  0  0  0  0  0  0
   35.6210   24.3360   38.2400 H   0  0  0  0  0  0  0  0  0  0  0  0
   36.5880   22.1320   38.8950 H   0  0  0  0  0  0  0  0  0  0  0  0
   38.0020   22.0280   40.9610 H   0  0  0  0  0  0  0  0  0  0  0  0
   36.5030   30.4330   41.1930 S   0  0  0  0  0  0  0  0  0  0  0  0
   39.1460   34.6980   39.3720 H   0  0  0  0  0  0  0  0  0  0  0  0
   38.7540   33.7510   39.5580 N   0  0  0  0  0  0  0  0  0  0  0  0
   38.9400   33.3230   40.9330 C   0  0  0  0  0  2  0  0  0  0  0  0
   38.7770   31.8320   41.0180 C   0  0  0  0  0  2  0  0  0  0  0  0
   37.7140   31.2750   40.1340 C   0  0  0  0  0  3  0  0  0  0  0  0
   36.9840   32.2000   39.2490 C   0  0  0  0  0  2  0  0  0  0  0  0
   37.3250   33.6480   39.3380 C   0  0  0  0  0  2  0  0  0  0  0  0
  1  6  1  0  0  0  0
  2  1  2  0  0  0  0
  2  3  1  0  0  0  0
  3  4  2  0  0  0  0
  4  5  1  0  0  0  0
  4  8  1  0  0  0  0
  5  9  1  0  0  0  0
  6 10  1  0  0  0  0
  6  5  2  0  0  0  0
  7  2  1  0  0  0  0
 11 12  2  0  0  0  0
 11 16  1  0  0  0  0
 12 13  1  0  0  0  0
 13 19  1  0  0  0  0
 13 14  2  0  0  0  0
 15 14  1  0  0  0  0
 15  1  1  0  0  0  0
 16 15  2  0  0  0  0
 17 11  1  0  0  0  0
 18 12  1  0  0  0  0
 20  3  1  0  0  0  0
 21 22  1  0  0  0  0
 22 23  1  0  0  0  0
 23 24  1  0  0  0  0
 25 24  1  0  0  0  0
 25 20  1  0  0  0  0
 26 27  1  0  0  0  0
 26 25  1  0  0  0  0
 27 22  1  0  0  0  0
M  END
>  <minimizedAffinity>
-5.30408001

$$$$

 OpenBabel03242516233D

 27 29  0  0  0  0  0  0  0  0999 V2000
   38.0970   31.3140   41.0660 C   0  0  0  0  0  0  0  0  0  0  0  0
   39.4290   31.7120   41.1370 C   0  0  0  0  0  0  0  0  0  0  0  0
   39.8510   32.9000   40.5900 C   0  0  0  0  0  0  0  0  0  0  0  0
   38.9450   33.7380   39.9470 C   0  0  0  0  0  0  0  0  0  0  0  0
   37.6450   33.3690   39.8670 C   0  0  0  0  0  0  0  0  0  0  0  0
   37.2260   32.1710   40.4200 C   0  0  0  0  0  0  0  0  0  0  0  0
   40.1160   31.0330   41.6500 H   0  0  0  0  0  0  0  0  0  0  0  0
   39.2130   34.6680   39.5070 H   0  0  0  0  0  0  0  0  0  0  0  0
   36.8820   33.9810   39.3750 H   0  0  0  0  0  0  0  0  0  0  0  0
   36.1780   31.8880   40.3470 H   0  0  0  0  0  0  0  0  0  0  0  0
   36.3150   28.1540   41.4660 C   0  0  0  0  0  0  0  0  0  0  0  0
   36.7810   27.6500   42.6710 C   0  0  0  0  0  0  0  0  0  0  0  0
   37.7270   28.4060   43.3640 C   0  0  0  0  0  0  0  0  0  0  0  0
   38.1590   29.5930   42.8530 N   0  0  0  0  0  0  0  0  0  0  0  0
   37.6640   30.0450   41.6550 C   0  0  0  0  0  0  0  0  0  0  0  0
   36.7430   29.3270   40.9610 N   0  0  0  0  0  0  0  0  0  0  0  0
   35.5710   27.6110   40.8670 H   0  0  0  0  0  0  0  0  0  0  0  0
   36.4040   26.6980   43.0330 H   0  0  0  0  0  0  0  0  0  0  0  0
   38.1020   28.0320   44.3040 H   0  0  0  0  0  0  0  0  0  0  0  0
   41.5570   33.3540   40.7150 S   0  0  0  0  0  0  0  0  0  0  0  0
   44.6760   34.0940   36.4460 H   0  0  0  0  0  0  0  0  0  0  0  0
   44.0800   33.7200   37.2140 N   0  0  0  0  0  0  0  0  0  0  0  0
   44.5710   34.0720   38.5340 C   0  0  0  0  0  2  0  0  0  0  0  0
   43.9610   33.1560   39.5560 C   0  0  0  0  0  2  0  0  0  0  0  0
   42.5380   32.7970   39.2920 C   0  0  0  0  0  3  0  0  0  0  0  0
   41.9020   33.3130   38.0660 C   0  0  0  0  0  2  0  0  0  0  0  0
   42.7140   34.2070   37.1960 C   0  0  0  0  0  2  0  0  0  0  0  0
  1  2  1  0  0  0  0
  1 15  1  0  0  0  0
  2  7  1  0  0  0  0
  3 20  1  0  0  0  0
  3  2  2  0  0  0  0
  4  3  1  0  0  0  0
  5  4  2  0  0  0  0
  5  6  1  0  0  0  0
  6  1  2  0  0  0  0
  8  4  1  0  0  0  0
  9  5  1  0  0  0  0
 10  6  1  0  0  0  0
 11 12  1  0  0  0  0
 12 18  1  0  0  0  0
 12 13  2  0  0  0  0
 13 19  1  0  0  0  0
 14 13  1  0  0  0  0
 15 14  2  0  0  0  0
 16 11  2  0  0  0  0
 16 15  1  0  0  0  0
 17 11  1  0  0  0  0
 21 22  1  0  0  0  0
 22 23  1  0  0  0  0
 23 24  1  0  0  0  0
 25 24  1  0  0  0  0
 25 20  1  0  0  0  0
 26 25  1  0  0  0  0
 27 22  1  0  0  0  0
 27 26  1  0  0  0  0
M  END
>  <minimizedAffinity>
-5.21955013

$$$$

 OpenBabel03242516233D

 27 29  0  0  0  0  0  0  0  0999 V2000
   37.4310   30.9910   40.7560 C   0  0  0  0  0  0  0  0  0  0  0  0
   37.7230   30.0650   41.7540 C   0  0  0  0  0  0  0  0  0  0  0  0
   36.9560   28.9400   41.9320 C   0  0  0  0  0  0  0  0  0  0  0  0
   35.8590   28.6990   41.1100 C   0  0  0  0  0  0  0  0  0  0  0  0
   35.5580   29.5870   40.1330 C   0  0  0  0  0  0  0  0  0  0  0  0
   36.3360   30.7200   39.9580 C   0  0  0  0  0  0  0  0  0  0  0  0
   38.5910   30.2820   42.3830 H   0  0  0  0  0  0  0  0  0  0  0  0
   35.2320   27.8460   41.2000 H   0  0  0  0  0  0  0  0  0  0  0  0
   34.7110   29.4590   39.4520 H   0  0  0  0  0  0  0  0  0  0  0  0
   36.0810   31.4240   39.1690 H   0  0  0  0  0  0  0  0  0  0  0  0
   40.4040   33.0980   40.5410 C   0  0  0  0  0  0  0  0  0  0  0  0
   39.9060   34.3630   40.2680 C   0  0  0  0  0  0  0  0  0  0  0  0
   38.5220   34.5010   40.1530 C   0  0  0  0  0  0  0  0  0  0  0  0
   37.7130   33.4160   40.3100 N   0  0  0  0  0  0  0  0  0  0  0  0
   38.2600   32.1860   40.5790 C   0  0  0  0  0  0  0  0  0  0  0  0
   39.6030   32.0250   40.6950 N   0  0  0  0  0  0  0  0  0  0  0  0
   41.4830   32.9160   40.6440 H   0  0  0  0  0  0  0  0  0  0  0  0
   40.5950   35.1950   40.1520 H   0  0  0  0  0  0  0  0  0  0  0  0
   38.1140   35.4770   39.9410 H   0  0  0  0  0  0  0  0  0  0  0  0
   37.3780   27.7970   43.2170 S   0  0  0  0  0  0  0  0  0  0  0  0
   38.3890   24.1590   39.4430 H   0  0  0  0  0  0  0  0  0  0  0  0
   38.3140   24.7180   40.3190 N   0  0  0  0  0  0  0  0  0  0  0  0
   38.8310   26.0670   40.1740 C   0  0  0  0  0  2  0  0  0  0  0  0
   39.1090   26.6430   41.5330 C   0  0  0  0  0  2  0  0  0  0  0  0
   38.1180   26.2660   42.5800 C   0  0  0  0  0  3  0  0  0  0  0  0
   37.0250   25.3490   42.2100 C   0  0  0  0  0  2  0  0  0  0  0  0
   36.9550   24.9010   40.7910 C   0  0  0  0  0  2  0  0  0  0  0  0
  1  2  1  0  0  0  0
  2  3  2  0  0  0  0
  2  7  1  0  0  0  0
  3 20  1  0  0  0  0
  4  8  1  0  0  0  0
  4  3  1  0  0  0  0
  5  4  2  0  0  0  0
  6  5  1  0  0  0  0
  6  1  2  0  0  0  0
  9  5  1  0  0  0  0
 10  6  1  0  0  0  0
 11 17  1  0  0  0  0
 11 16  1  0  0  0  0
 12 11  2  0  0  0  0
 13 12  1  0  0  0  0
 13 14  2  0  0  0  0
 14 15  1  0  0  0  0
 15 16  2  0  0  0  0
 15  1  1  0  0  0  0
 18 12  1  0  0  0  0
 19 13  1  0  0  0  0
 21 22  1  0  0  0  0
 22 27  1  0  0  0  0
 23 22  1  0  0  0  0
 23 24  1  0  0  0  0
 24 25  1  0  0  0  0
 25 20  1  0  0  0  0
 26 25  1  0  0  0  0
 27 26  1  0  0  0  0
M  END
>  <minimizedAffinity>
-5.09410715

$$$$

 OpenBabel03242516233D

 27 29  0  0  0  0  0  0  0  0999 V2000
   38.2260   27.9230   41.5050 C   0  0  0  0  0  0  0  0  0  0  0  0
   38.8530   28.6390   40.4880 C   0  0  0  0  0  0  0  0  0  0  0  0
   39.4250   29.8650   40.7250 C   0  0  0  0  0  0  0  0  0  0  0  0
   39.3900   30.4230   42.0000 C   0  0  0  0  0  0  0  0  0  0  0  0
   38.7860   29.7430   43.0020 C   0  0  0  0  0  0  0  0  0  0  0  0
   38.2110   28.5070   42.7570 C   0  0  0  0  0  0  0  0  0  0  0  0
   38.8650   28.1740   39.4980 H   0  0  0  0  0  0  0  0  0  0  0  0
   39.8170   31.3660   42.2410 H   0  0  0  0  0  0  0  0  0  0  0  0
   38.7220   30.1240   44.0260 H   0  0  0  0  0  0  0  0  0  0  0  0
   37.7280   27.9730   43.5730 H   0  0  0  0  0  0  0  0  0  0  0  0
   37.0730   24.5030   42.0490 C   0  0  0  0  0  0  0  0  0  0  0  0
   36.5140   24.1350   40.8360 C   0  0  0  0  0  0  0  0  0  0  0  0
   36.5290   25.0760   39.8060 C   0  0  0  0  0  0  0  0  0  0  0  0
   37.0810   26.3040   40.0120 N   0  0  0  0  0  0  0  0  0  0  0  0
   37.6220   26.6170   41.2350 C   0  0  0  0  0  0  0  0  0  0  0  0
   37.6180   25.7190   42.2530 N   0  0  0  0  0  0  0  0  0  0  0  0
   37.0940   23.8130   42.9040 H   0  0  0  0  0  0  0  0  0  0  0  0
   36.0860   23.1420   40.7240 H   0  0  0  0  0  0  0  0  0  0  0  0
   36.0990   24.8090   38.8530 H   0  0  0  0  0  0  0  0  0  0  0  0
   40.2100   30.7270   39.3930 S   0  0  0  0  0  0  0  0  0  0  0  0
   36.6780   34.6840   40.0010 H   0  0  0  0  0  0  0  0  0  0  0  0
   37.3780   33.9930   39.6580 N   0  0  0  0  0  0  0  0  0  0  0  0
   38.6060   33.9980   40.4340 C   0  0  0  0  0  2  0  0  0  0  0  0
   39.7000   33.3420   39.6420 C   0  0  0  0  0  2  0  0  0  0  0  0
   39.2610   32.1700   38.8330 C   0  0  0  0  0  3  0  0  0  0  0  0
   37.8310   31.8100   38.8420 C   0  0  0  0  0  2  0  0  0  0  0  0
   36.9260   32.6160   39.7080 C   0  0  0  0  0  2  0  0  0  0  0  0
  1  6  1  0  0  0  0
  2  3  1  0  0  0  0
  2  1  2  0  0  0  0
  3  4  2  0  0  0  0
  4  8  1  0  0  0  0
  4  5  1  0  0  0  0
  5  9  1  0  0  0  0
  6  5  2  0  0  0  0
  6 10  1  0  0  0  0
  7  2  1  0  0  0  0
 11 16  1  0  0  0  0
 11 17  1  0  0  0  0
 12 11  2  0  0  0  0
 13 14  2  0  0  0  0
 13 12  1  0  0  0  0
 14 15  1  0  0  0  0
 15  1  1  0  0  0  0
 15 16  2  0  0  0  0
 18 12  1  0  0  0  0
 19 13  1  0  0  0  0
 20  3  1  0  0  0  0
 22 27  1  0  0  0  0
 22 21  1  0  0  0  0
 22 23  1  0  0  0  0
 24 23  1  0  0  0  0
 25 26  1  0  0  0  0
 25 20  1  0  0  0  0
 25 24  1  0  0  0  0
 26 27  1  0  0  0  0
M  END
>  <minimizedAffinity>
-4.98521137

$$$$

 OpenBabel03242516233D

 27 29  0  0  0  0  0  0  0  0999 V2000
   38.5490   26.3610   41.5790 C   0  0  0  0  0  0  0  0  0  0  0  0
   38.8810   27.5290   40.8990 C   0  0  0  0  0  0  0  0  0  0  0  0
   38.8970   28.7470   41.5350 C   0  0  0  0  0  0  0  0  0  0  0  0
   38.5800   28.8380   42.8870 C   0  0  0  0  0  0  0  0  0  0  0  0
   38.2540   27.7140   43.5660 C   0  0  0  0  0  0  0  0  0  0  0  0
   38.2390   26.4890   42.9200 C   0  0  0  0  0  0  0  0  0  0  0  0
   39.1270   27.4250   39.8380 H   0  0  0  0  0  0  0  0  0  0  0  0
   38.5780   29.7520   43.4300 H   0  0  0  0  0  0  0  0  0  0  0  0
   37.9940   27.7150   44.6300 H   0  0  0  0  0  0  0  0  0  0  0  0
   37.9740   25.5940   43.4790 H   0  0  0  0  0  0  0  0  0  0  0  0
   39.3690   23.7740   39.1390 C   0  0  0  0  0  0  0  0  0  0  0  0
   38.5870   22.6920   39.5120 C   0  0  0  0  0  0  0  0  0  0  0  0
   37.7590   22.8480   40.6240 C   0  0  0  0  0  0  0  0  0  0  0  0
   37.7390   24.0310   41.3000 N   0  0  0  0  0  0  0  0  0  0  0  0
   38.5360   25.0710   40.8860 C   0  0  0  0  0  0  0  0  0  0  0  0
   39.3500   24.9440   39.8080 N   0  0  0  0  0  0  0  0  0  0  0  0
   40.0450   23.7220   38.2730 H   0  0  0  0  0  0  0  0  0  0  0  0
   38.6410   21.7710   38.9390 H   0  0  0  0  0  0  0  0  0  0  0  0
   37.1420   22.0180   40.9320 H   0  0  0  0  0  0  0  0  0  0  0  0
   39.3310   30.1970   40.6180 S   0  0  0  0  0  0  0  0  0  0  0  0
   36.9450   34.7680   39.2320 H   0  0  0  0  0  0  0  0  0  0  0  0
   37.2690   33.8930   39.6950 N   0  0  0  0  0  0  0  0  0  0  0  0
   37.1210   32.7190   38.8520 C   0  0  0  0  0  2  0  0  0  0  0  0
   37.1690   31.4840   39.7040 C   0  0  0  0  0  2  0  0  0  0  0  0
   38.1380   31.5490   40.8350 C   0  0  0  0  0  3  0  0  0  0  0  0
   38.8930   32.7990   41.0380 C   0  0  0  0  0  2  0  0  0  0  0  0
   38.6730   33.9000   40.0590 C   0  0  0  0  0  2  0  0  0  0  0  0
  1  6  1  0  0  0  0
  2  3  1  0  0  0  0
  2  1  2  0  0  0  0
  3  4  2  0  0  0  0
  4  8  1  0  0  0  0
  4  5  1  0  0  0  0
  5  9  1  0  0  0  0
  6 10  1  0  0  0  0
  6  5  2  0  0  0  0
  7  2  1  0  0  0  0
 11 12  2  0  0  0  0
 11 16  1  0  0  0  0
 12 13  1  0  0  0  0
 13 19  1  0  0  0  0
 13 14  2  0  0  0  0
 15 14  1  0  0  0  0
 15  1  1  0  0  0  0
 16 15  2  0  0  0  0
 17 11  1  0  0  0  0
 18 12  1  0  0  0  0
 20 25  1  0  0  0  0
 20  3  1  0  0  0  0
 21 22  1  0  0  0  0
 22 27  1  0  0  0  0
 23 22  1  0  0  0  0
 23 24  1  0  0  0  0
 24 25  1  0  0  0  0
 25 26  1  0  0  0  0
 27 26  1  0  0  0  0
M  END
>  <minimizedAffinity>
-4.92013502

$$$$

 OpenBabel03242516233D

 27 29  0  0  0  0  0  0  0  0999 V2000
   37.3180   26.8030   41.5830 C   0  0  0  0  0  0  0  0  0  0  0  0
   36.8140   27.9810   41.0380 C   0  0  0  0  0  0  0  0  0  0  0  0
   36.9910   29.1910   41.6650 C   0  0  0  0  0  0  0  0  0  0  0  0
   37.6850   29.2640   42.8690 C   0  0  0  0  0  0  0  0  0  0  0  0
   38.1830   28.1300   43.4150 C   0  0  0  0  0  0  0  0  0  0  0  0
   38.0010   26.9130   42.7790 C   0  0  0  0  0  0  0  0  0  0  0  0
   36.2740   27.8910   40.0910 H   0  0  0  0  0  0  0  0  0  0  0  0
   37.8540   30.1710   43.3970 H   0  0  0  0  0  0  0  0  0  0  0  0
   38.7370   28.1170   44.3580 H   0  0  0  0  0  0  0  0  0  0  0  0
   38.4060   26.0100   43.2300 H   0  0  0  0  0  0  0  0  0  0  0  0
   37.5320   23.2280   40.8800 C   0  0  0  0  0  0  0  0  0  0  0  0
   36.8130   23.0670   39.7060 C   0  0  0  0  0  0  0  0  0  0  0  0
   36.2390   24.2060   39.1400 C   0  0  0  0  0  0  0  0  0  0  0  0
   36.3970   25.4190   39.7390 N   0  0  0  0  0  0  0  0  0  0  0  0
   37.1200   25.5210   40.9020 C   0  0  0  0  0  0  0  0  0  0  0  0
   37.6870   24.4280   41.4720 N   0  0  0  0  0  0  0  0  0  0  0  0
   38.0110   22.3740   41.3800 H   0  0  0  0  0  0  0  0  0  0  0  0
   36.7170   22.0770   39.2690 H   0  0  0  0  0  0  0  0  0  0  0  0
   35.6750   24.1030   38.2260 H   0  0  0  0  0  0  0  0  0  0  0  0
   36.3300   30.6560   40.9220 S   0  0  0  0  0  0  0  0  0  0  0  0
   39.4020   29.7480   36.6520 H   0  0  0  0  0  0  0  0  0  0  0  0
   38.8150   30.1530   37.4110 N   0  0  0  0  0  0  0  0  0  0  0  0
   37.4990   29.5450   37.4930 C   0  0  0  0  0  2  0  0  0  0  0  0
   36.5800   30.4470   38.2660 C   0  0  0  0  0  2  0  0  0  0  0  0
   37.2210   31.1440   39.4170 C   0  0  0  0  0  3  0  0  0  0  0  0
   38.6610   30.9330   39.6480 C   0  0  0  0  0  2  0  0  0  0  0  0
   39.3710   29.9890   38.7400 C   0  0  0  0  0  2  0  0  0  0  0  0
  1  6  1  0  0  0  0
  2  1  2  0  0  0  0
  2  3  1  0  0  0  0
  3  4  2  0  0  0  0
  4  8  1  0  0  0  0
  4  5  1  0  0  0  0
  5  9  1  0  0  0  0
  6 10  1  0  0  0  0
  6  5  2  0  0  0  0
  7  2  1  0  0  0  0
 11 17  1  0  0  0  0
 11 16  1  0  0  0  0
 12 11  2  0  0  0  0
 13 12  1  0  0  0  0
 13 14  2  0  0  0  0
 14 15  1  0  0  0  0
 15 16  2  0  0  0  0
 15  1  1  0  0  0  0
 18 12  1  0  0  0  0
 19 13  1  0  0  0  0
 20  3  1  0  0  0  0
 21 22  1  0  0  0  0
 22 23  1  0  0  0  0
 22 27  1  0  0  0  0
 23 24  1  0  0  0  0
 24 25  1  0  0  0  0
 25 26  1  0  0  0  0
 25 20  1  0  0  0  0
 27 26  1  0  0  0  0
M  END
>  <minimizedAffinity>
-4.91818333

$$$$

 OpenBabel03242516233D

 27 29  0  0  0  0  0  0  0  0999 V2000
   38.3840   24.8690   42.0620 C   0  0  0  0  0  0  0  0  0  0  0  0
   37.7980   26.1020   42.3340 C   0  0  0  0  0  0  0  0  0  0  0  0
   38.3680   26.9850   43.2190 C   0  0  0  0  0  0  0  0  0  0  0  0
   39.5570   26.6620   43.8670 C   0  0  0  0  0  0  0  0  0  0  0  0
   40.1430   25.4680   43.6160 C   0  0  0  0  0  0  0  0  0  0  0  0
   39.5630   24.5820   42.7240 C   0  0  0  0  0  0  0  0  0  0  0  0
   36.8660   26.3270   41.8090 H   0  0  0  0  0  0  0  0  0  0  0  0
   40.0440   27.3060   44.5590 H   0  0  0  0  0  0  0  0  0  0  0  0
   41.0770   25.1520   44.0920 H   0  0  0  0  0  0  0  0  0  0  0  0
   40.0460   23.6260   42.5330 H   0  0  0  0  0  0  0  0  0  0  0  0
   35.9150   23.4300   39.7920 C   0  0  0  0  0  0  0  0  0  0  0  0
   36.5070   22.2610   39.3410 C   0  0  0  0  0  0  0  0  0  0  0  0
   37.7800   21.9550   39.8220 C   0  0  0  0  0  0  0  0  0  0  0  0
   38.3960   22.7920   40.7030 N   0  0  0  0  0  0  0  0  0  0  0  0
   37.7630   23.9390   41.1160 C   0  0  0  0  0  0  0  0  0  0  0  0
   36.5250   24.2580   40.6630 N   0  0  0  0  0  0  0  0  0  0  0  0
   34.9140   23.7340   39.4550 H   0  0  0  0  0  0  0  0  0  0  0  0
   35.9720   21.6280   38.6370 H   0  0  0  0  0  0  0  0  0  0  0  0
   38.2590   21.0490   39.4830 H   0  0  0  0  0  0  0  0  0  0  0  0
   37.5780   28.5400   43.5210 S   0  0  0  0  0  0  0  0  0  0  0  0
   37.9020   29.6130   38.3020 H   0  0  0  0  0  0  0  0  0  0  0  0
   37.8380   29.6420   39.3410 N   0  0  0  0  0  0  0  0  0  0  0  0
   36.6890   28.9210   39.8580 C   0  0  0  0  0  2  0  0  0  0  0  0
   36.4070   29.3700   41.2630 C   0  0  0  0  0  2  0  0  0  0  0  0
   37.6230   29.6440   42.0800 C   0  0  0  0  0  3  0  0  0  0  0  0
   38.9430   29.5060   41.4380 C   0  0  0  0  0  2  0  0  0  0  0  0
   38.9720   29.0470   40.0210 C   0  0  0  0  0  2  0  0  0  0  0  0
  1  2  2  0  0  0  0
  1  6  1  0  0  0  0
  2  3  1  0  0  0  0
  3 20  1  0  0  0  0
  3  4  2  0  0  0  0
  4  8  1  0  0  0  0
  5  4  1  0  0  0  0
  5  9  1  0  0  0  0
  6  5  2  0  0  0  0
  7  2  1  0  0  0  0
 10  6  1  0  0  0  0
 11 16  1  0  0  0  0
 12 11  2  0  0  0  0
 12 13  1  0  0  0  0
 13 14  2  0  0  0  0
 14 15  1  0  0  0  0
 15  1  1  0  0  0  0
 16 15  2  0  0  0  0
 17 11  1  0  0  0  0
 18 12  1  0  0  0  0
 19 13  1  0  0  0  0
 21 22  1  0  0  0  0
 22 23  1  0  0  0  0
 22 27  1  0  0  0  0
 23 24  1  0  0  0  0
 24 25  1  0  0  0  0
 25 20  1  0  0  0  0
 26 25  1  0  0  0  0
 27 26  1  0  0  0  0
M  END
>  <minimizedAffinity>
-4.84432125

$$$$

 OpenBabel03242516233D

 27 29  0  0  0  0  0  0  0  0999 V2000
   37.6630   28.9790   41.2640 C   0  0  0  0  0  0  0  0  0  0  0  0
   37.6510   27.6000   41.0740 C   0  0  0  0  0  0  0  0  0  0  0  0
   37.5760   26.7330   42.1370 C   0  0  0  0  0  0  0  0  0  0  0  0
   37.5090   27.2200   43.4390 C   0  0  0  0  0  0  0  0  0  0  0  0
   37.5190   28.5580   43.6450 C   0  0  0  0  0  0  0  0  0  0  0  0
   37.5950   29.4280   42.5700 C   0  0  0  0  0  0  0  0  0  0  0  0
   37.7040   27.2480   40.0410 H   0  0  0  0  0  0  0  0  0  0  0  0
   37.4470   26.5980   44.2980 H   0  0  0  0  0  0  0  0  0  0  0  0
   37.4690   29.0080   44.6420 H   0  0  0  0  0  0  0  0  0  0  0  0
   37.6030   30.5000   42.7510 H   0  0  0  0  0  0  0  0  0  0  0  0
   36.9770   31.8460   39.1110 C   0  0  0  0  0  0  0  0  0  0  0  0
   37.8150   31.6620   38.0220 C   0  0  0  0  0  0  0  0  0  0  0  0
   38.6350   30.5340   38.0220 C   0  0  0  0  0  0  0  0  0  0  0  0
   38.5930   29.6600   39.0660 N   0  0  0  0  0  0  0  0  0  0  0  0
   37.7440   29.8900   40.1200 C   0  0  0  0  0  0  0  0  0  0  0  0
   36.9370   30.9810   40.1440 N   0  0  0  0  0  0  0  0  0  0  0  0
   36.3050   32.7130   39.1790 H   0  0  0  0  0  0  0  0  0  0  0  0
   37.8100   32.3900   37.2160 H   0  0  0  0  0  0  0  0  0  0  0  0
   39.2950   30.3730   37.1830 H   0  0  0  0  0  0  0  0  0  0  0  0
   37.5610   24.9890   41.8330 S   0  0  0  0  0  0  0  0  0  0  0  0
   42.8910   25.1960   42.0620 H   0  0  0  0  0  0  0  0  0  0  0  0
   41.8890   24.9230   41.9750 N   0  0  0  0  0  0  0  0  0  0  0  0
   41.1050   25.2690   43.1470 C   0  0  0  0  0  2  0  0  0  0  0  0
   39.8330   24.4700   43.1500 C   0  0  0  0  0  2  0  0  0  0  0  0
   39.2270   24.2670   41.8030 C   0  0  0  0  0  3  0  0  0  0  0  0
   39.9380   24.8020   40.6280 C   0  0  0  0  0  2  0  0  0  0  0  0
   41.1950   25.5630   40.8740 C   0  0  0  0  0  2  0  0  0  0  0  0
  1  6  1  0  0  0  0
  2  1  2  0  0  0  0
  2  3  1  0  0  0  0
  3  4  2  0  0  0  0
  4  5  1  0  0  0  0
  4  8  1  0  0  0  0
  5  9  1  0  0  0  0
  6 10  1  0  0  0  0
  6  5  2  0  0  0  0
  7  2  1  0  0  0  0
 11 17  1  0  0  0  0
 11 16  1  0  0  0  0
 12 11  2  0  0  0  0
 13 12  1  0  0  0  0
 13 14  2  0  0  0  0
 14 15  1  0  0  0  0
 15 16  2  0  0  0  0
 15  1  1  0  0  0  0
 18 12  1  0  0  0  0
 19 13  1  0  0  0  0
 20  3  1  0  0  0  0
 22 21  1  0  0  0  0
 22 23  1  0  0  0  0
 23 24  1  0  0  0  0
 25 20  1  0  0  0  0
 25 24  1  0  0  0  0
 26 27  1  0  0  0  0
 26 25  1  0  0  0  0
 27 22  1  0  0  0  0
M  END
>  <minimizedAffinity>
-4.83094788

$$$$
