
 OpenBabel03242521593D

 31 33  0  0  0  0  0  0  0  0999 V2000
   37.6460   28.5930   41.7110 C   0  0  0  0  0  0  0  0  0  0  0  0
   36.4590   28.0720   41.2350 C   0  0  0  0  0  0  0  0  0  0  0  0
   35.4720   28.8090   40.5860 C   0  0  0  0  0  0  0  0  0  0  0  0
   35.6970   30.1570   40.4080 C   0  0  0  0  0  0  0  0  0  0  0  0
   36.8640   30.6500   40.8790 C   0  0  0  0  0  0  0  0  0  0  0  0
   37.7910   29.9200   41.4970 N   0  0  0  0  0  0  0  0  0  0  0  0
   36.3720   26.9880   41.4240 H   0  0  0  0  0  0  0  0  0  0  0  0
   34.6280   28.1920   40.2990 H   0  0  0  0  0  0  0  0  0  0  0  0
   34.8290   30.5520   39.9120 H   0  0  0  0  0  0  0  0  0  0  0  0
   39.5990   25.8910   43.4630 C   0  0  0  0  0  0  0  0  0  0  0  0
   38.5100   26.4960   42.8090 C   0  0  0  0  0  0  0  0  0  0  0  0
   38.6520   27.7950   42.4000 C   0  0  0  0  0  0  0  0  0  0  0  0
   39.8480   28.4240   42.6530 N   0  0  0  0  0  0  0  0  0  0  0  0
   40.8750   27.8300   43.2770 C   0  0  0  0  0  0  0  0  0  0  0  0
   40.7410   26.5590   43.6790 N   0  0  0  0  0  0  0  0  0  0  0  0
   39.4340   24.8630   43.7660 H   0  0  0  0  0  0  0  0  0  0  0  0
   37.5710   26.0190   42.6050 H   0  0  0  0  0  0  0  0  0  0  0  0
   41.7580   28.4370   43.4120 H   0  0  0  0  0  0  0  0  0  0  0  0
   37.1020   32.0000   40.7010 O   0  0  0  0  0  0  0  0  0  0  0  0
   38.6210   34.1600   40.7220 O   0  0  0  0  0  0  0  0  0  0  0  0
   38.6720   32.6580   40.5320 P   0  0  1  0  0  0  0  0  0  0  0  0
   39.6820   31.9820   41.6910 O   0  0  0  0  0  0  0  0  0  0  0  0
   39.6610   32.5100   42.5090 H   0  0  0  0  0  0  0  0  0  0  0  0
   39.2070   32.3240   38.9550 O   0  0  0  0  0  0  0  0  0  0  0  0
   41.0530   33.8080   36.5770 H   0  0  0  0  0  0  0  0  0  0  0  0
   42.0710   33.6500   36.8190 N   0  0  0  0  0  0  0  0  0  0  0  0
   42.2330   34.1590   38.1850 C   0  0  0  0  0  2  0  0  0  0  0  0
   41.0210   33.7750   38.9810 C   0  0  0  0  0  2  0  0  0  0  0  0
   40.6010   32.3520   38.8690 C   0  0  0  0  0  3  0  0  0  0  0  0
   40.9560   31.6720   37.5780 C   0  0  0  0  0  2  0  0  0  0  0  0
   42.2190   32.2010   36.9530 C   0  0  0  0  0  2  0  0  0  0  0  0
  1 12  1  0  0  0  0
  2  7  1  0  0  0  0
  2  1  2  0  0  0  0
  3  2  1  0  0  0  0
  4  3  2  0  0  0  0
  4  5  1  0  0  0  0
  5  6  2  0  0  0  0
  6  1  1  0  0  0  0
  8  3  1  0  0  0  0
  9  4  1  0  0  0  0
 10 15  1  0  0  0  0
 10 16  1  0  0  0  0
 11 10  2  0  0  0  0
 12 13  2  0  0  0  0
 12 11  1  0  0  0  0
 13 14  1  0  0  0  0
 14 18  1  0  0  0  0
 14 15  2  0  0  0  0
 17 11  1  0  0  0  0
 19  5  1  0  0  0  0
 21 19  1  0  0  0  0
 21 20  2  1  0  0  0
 21 22  1  0  0  0  0
 22 23  1  0  0  0  0
 24 21  1  0  0  0  0
 25 26  1  0  0  0  0
 26 31  1  0  0  0  0
 26 27  1  0  0  0  0
 27 28  1  0  0  0  0
 29 24  1  0  0  0  0
 29 28  1  0  0  0  0
 30 29  1  0  0  0  0
 31 30  1  0  0  0  0
M  END
>  <minimizedAffinity>
-5.86304474

$$$$

 OpenBabel03242521593D

 31 33  0  0  0  0  0  0  0  0999 V2000
   37.4000   26.6300   41.6940 C   0  0  0  0  0  0  0  0  0  0  0  0
   37.1960   26.8440   43.0420 C   0  0  0  0  0  0  0  0  0  0  0  0
   37.3220   28.0750   43.6790 C   0  0  0  0  0  0  0  0  0  0  0  0
   37.6770   29.1600   42.9060 C   0  0  0  0  0  0  0  0  0  0  0  0
   37.8710   28.9320   41.5880 C   0  0  0  0  0  0  0  0  0  0  0  0
   37.7440   27.7410   41.0050 N   0  0  0  0  0  0  0  0  0  0  0  0
   36.9170   25.9190   43.5750 H   0  0  0  0  0  0  0  0  0  0  0  0
   37.1140   28.0070   44.7410 H   0  0  0  0  0  0  0  0  0  0  0  0
   37.7410   30.0040   43.5670 H   0  0  0  0  0  0  0  0  0  0  0  0
   37.6320   22.9960   40.7330 C   0  0  0  0  0  0  0  0  0  0  0  0
   37.8730   24.1640   41.4790 C   0  0  0  0  0  0  0  0  0  0  0  0
   37.2750   25.3230   41.0610 C   0  0  0  0  0  0  0  0  0  0  0  0
   36.4770   25.2710   39.9430 N   0  0  0  0  0  0  0  0  0  0  0  0
   36.2590   24.1460   39.2460 C   0  0  0  0  0  0  0  0  0  0  0  0
   36.8410   23.0100   39.6510 N   0  0  0  0  0  0  0  0  0  0  0  0
   38.1290   22.1070   41.1060 H   0  0  0  0  0  0  0  0  0  0  0  0
   38.4930   24.2220   42.3520 H   0  0  0  0  0  0  0  0  0  0  0  0
   35.6100   24.2430   38.3880 H   0  0  0  0  0  0  0  0  0  0  0  0
   38.2220   30.0140   40.8010 O   0  0  0  0  0  0  0  0  0  0  0  0
   36.4630   30.1420   38.8360 O   0  0  0  0  0  0  0  0  0  0  0  0
   37.0810   30.9610   39.9500 P   0  0  1  0  0  0  0  0  0  0  0  0
   35.8770   31.4600   41.0100 O   0  0  0  0  0  0  0  0  0  0  0  0
   35.1570   30.8050   41.0390 H   0  0  0  0  0  0  0  0  0  0  0  0
   37.9060   32.2790   39.2660 O   0  0  0  0  0  0  0  0  0  0  0  0
   40.1090   33.6620   37.1450 H   0  0  0  0  0  0  0  0  0  0  0  0
   41.0680   33.2880   37.3920 N   0  0  0  0  0  0  0  0  0  0  0  0
   41.2510   33.5910   38.8160 C   0  0  0  0  0  2  0  0  0  0  0  0
   39.9520   33.3500   39.5240 C   0  0  0  0  0  2  0  0  0  0  0  0
   39.2840   32.0550   39.2220 C   0  0  0  0  0  3  0  0  0  0  0  0
   39.5720   31.4790   37.8660 C   0  0  0  0  0  2  0  0  0  0  0  0
   40.9400   31.8320   37.3460 C   0  0  0  0  0  2  0  0  0  0  0  0
  1  2  1  0  0  0  0
  2  7  1  0  0  0  0
  2  3  2  0  0  0  0
  3  8  1  0  0  0  0
  4  9  1  0  0  0  0
  4  3  1  0  0  0  0
  5  4  2  0  0  0  0
  6  5  1  0  0  0  0
  6  1  2  0  0  0  0
 10 16  1  0  0  0  0
 10 11  1  0  0  0  0
 11 17  1  0  0  0  0
 12 11  2  0  0  0  0
 12  1  1  0  0  0  0
 13 12  1  0  0  0  0
 14 15  1  0  0  0  0
 14 13  2  0  0  0  0
 15 10  2  0  0  0  0
 18 14  1  0  0  0  0
 19  5  1  0  0  0  0
 21 20  2  6  0  0  0
 21 19  1  0  0  0  0
 21 22  1  0  0  0  0
 22 23  1  0  0  0  0
 24 21  1  0  0  0  0
 25 26  1  0  0  0  0
 26 27  1  0  0  0  0
 27 28  1  0  0  0  0
 29 24  1  0  0  0  0
 29 28  1  0  0  0  0
 30 29  1  0  0  0  0
 31 26  1  0  0  0  0
 31 30  1  0  0  0  0
M  END
>  <minimizedAffinity>
-5.81700993

$$$$

 OpenBabel03242521593D

 31 33  0  0  0  0  0  0  0  0999 V2000
   37.8650   25.3550   41.8150 C   0  0  0  0  0  0  0  0  0  0  0  0
   38.9680   25.3530   42.6450 C   0  0  0  0  0  0  0  0  0  0  0  0
   39.3670   26.4250   43.4390 C   0  0  0  0  0  0  0  0  0  0  0  0
   38.6050   27.5730   43.3900 C   0  0  0  0  0  0  0  0  0  0  0  0
   37.5290   27.5570   42.5730 C   0  0  0  0  0  0  0  0  0  0  0  0
   37.1700   26.5150   41.8240 N   0  0  0  0  0  0  0  0  0  0  0  0
   39.5120   24.3930   42.6160 H   0  0  0  0  0  0  0  0  0  0  0  0
   40.2600   26.1970   44.0090 H   0  0  0  0  0  0  0  0  0  0  0  0
   39.0740   28.2830   44.0460 H   0  0  0  0  0  0  0  0  0  0  0  0
   36.1260   22.9170   39.5330 C   0  0  0  0  0  0  0  0  0  0  0  0
   36.3160   24.0940   40.2790 C   0  0  0  0  0  0  0  0  0  0  0  0
   37.4830   24.2200   40.9850 C   0  0  0  0  0  0  0  0  0  0  0  0
   38.3920   23.1900   40.9190 N   0  0  0  0  0  0  0  0  0  0  0  0
   38.1910   22.0760   40.2010 C   0  0  0  0  0  0  0  0  0  0  0  0
   37.0520   21.9490   39.5080 N   0  0  0  0  0  0  0  0  0  0  0  0
   35.1860   22.8670   38.9930 H   0  0  0  0  0  0  0  0  0  0  0  0
   35.6180   24.9040   40.3420 H   0  0  0  0  0  0  0  0  0  0  0  0
   38.9860   21.3460   40.2340 H   0  0  0  0  0  0  0  0  0  0  0  0
   36.7540   28.7010   42.5200 O   0  0  0  0  0  0  0  0  0  0  0  0
   37.2420   29.3840   40.0160 O   0  0  0  0  0  0  0  0  0  0  0  0
   37.0270   29.9640   41.3990 P   0  0  1  0  0  0  0  0  0  0  0  0
   35.6930   30.9820   41.3770 O   0  0  0  0  0  0  0  0  0  0  0  0
   35.0430   30.6780   40.7190 H   0  0  0  0  0  0  0  0  0  0  0  0
   38.4390   30.7820   41.8730 O   0  0  0  0  0  0  0  0  0  0  0  0
   40.6450   33.3080   41.9870 H   0  0  0  0  0  0  0  0  0  0  0  0
   40.9290   33.5290   40.9910 N   0  0  0  0  0  0  0  0  0  0  0  0
   41.4130   32.2620   40.4320 C   0  0  0  0  0  2  0  0  0  0  0  0
   40.5230   31.1570   40.9180 C   0  0  0  0  0  2  0  0  0  0  0  0
   39.0620   31.4020   40.7880 C   0  0  0  0  0  3  0  0  0  0  0  0
   38.6400   32.8430   40.8300 C   0  0  0  0  0  2  0  0  0  0  0  0
   39.6770   33.7840   40.2780 C   0  0  0  0  0  2  0  0  0  0  0  0
  1  6  2  0  0  0  0
  1  2  1  0  0  0  0
  2  3  2  0  0  0  0
  3  8  1  0  0  0  0
  4  3  1  0  0  0  0
  4  9  1  0  0  0  0
  5  4  2  0  0  0  0
  6  5  1  0  0  0  0
  7  2  1  0  0  0  0
 10 11  1  0  0  0  0
 11 17  1  0  0  0  0
 11 12  2  0  0  0  0
 12  1  1  0  0  0  0
 13 12  1  0  0  0  0
 14 18  1  0  0  0  0
 14 13  2  0  0  0  0
 15 10  2  0  0  0  0
 15 14  1  0  0  0  0
 16 10  1  0  0  0  0
 19  5  1  0  0  0  0
 21 20  2  6  0  0  0
 21 24  1  0  0  0  0
 21 19  1  0  0  0  0
 22 21  1  0  0  0  0
 23 22  1  0  0  0  0
 26 25  1  0  0  0  0
 27 28  1  0  0  0  0
 27 26  1  0  0  0  0
 29 30  1  0  0  0  0
 29 28  1  0  0  0  0
 29 24  1  0  0  0  0
 31 30  1  0  0  0  0
 31 26  1  0  0  0  0
M  END
>  <minimizedAffinity>
-5.74710512

$$$$

 OpenBabel03242521593D

 31 33  0  0  0  0  0  0  0  0999 V2000
   37.2620   28.0410   41.1300 C   0  0  0  0  0  0  0  0  0  0  0  0
   36.4010   27.5460   40.1710 C   0  0  0  0  0  0  0  0  0  0  0  0
   35.5660   28.3250   39.3740 C   0  0  0  0  0  0  0  0  0  0  0  0
   35.6030   29.6910   39.5570 C   0  0  0  0  0  0  0  0  0  0  0  0
   36.4530   30.1580   40.4980 C   0  0  0  0  0  0  0  0  0  0  0  0
   37.2410   29.3880   41.2470 N   0  0  0  0  0  0  0  0  0  0  0  0
   36.4430   26.4450   40.1000 H   0  0  0  0  0  0  0  0  0  0  0  0
   34.9780   27.7220   38.6910 H   0  0  0  0  0  0  0  0  0  0  0  0
   34.8890   30.1130   38.8750 H   0  0  0  0  0  0  0  0  0  0  0  0
   39.6570   26.6470   43.6790 C   0  0  0  0  0  0  0  0  0  0  0  0
   38.9030   27.6170   42.9940 C   0  0  0  0  0  0  0  0  0  0  0  0
   38.1120   27.1960   41.9580 C   0  0  0  0  0  0  0  0  0  0  0  0
   38.1050   25.8550   41.6550 N   0  0  0  0  0  0  0  0  0  0  0  0
   38.8310   24.9460   42.3220 C   0  0  0  0  0  0  0  0  0  0  0  0
   39.6060   25.3530   43.3360 N   0  0  0  0  0  0  0  0  0  0  0  0
   40.2660   27.0330   44.4900 H   0  0  0  0  0  0  0  0  0  0  0  0
   38.8980   28.6660   43.2180 H   0  0  0  0  0  0  0  0  0  0  0  0
   38.7340   23.9260   41.9820 H   0  0  0  0  0  0  0  0  0  0  0  0
   36.5020   31.5270   40.6860 O   0  0  0  0  0  0  0  0  0  0  0  0
   38.2810   31.7870   38.7520 O   0  0  0  0  0  0  0  0  0  0  0  0
   37.6290   32.5400   39.8930 P   0  0  1  0  0  0  0  0  0  0  0  0
   36.8300   33.8880   39.2880 O   0  0  0  0  0  0  0  0  0  0  0  0
   36.5060   33.7150   38.3860 H   0  0  0  0  0  0  0  0  0  0  0  0
   38.8260   32.9680   41.0190 O   0  0  0  0  0  0  0  0  0  0  0  0
   41.4460   32.8730   43.1150 H   0  0  0  0  0  0  0  0  0  0  0  0
   42.0900   32.1010   42.7850 N   0  0  0  0  0  0  0  0  0  0  0  0
   41.2560   30.8950   42.7250 C   0  0  0  0  0  2  0  0  0  0  0  0
   39.9110   31.2740   42.1810 C   0  0  0  0  0  2  0  0  0  0  0  0
   39.9260   32.1090   40.9510 C   0  0  0  0  0  3  0  0  0  0  0  0
   41.1320   32.9860   40.7770 C   0  0  0  0  0  2  0  0  0  0  0  0
   42.3820   32.4080   41.3850 C   0  0  0  0  0  2  0  0  0  0  0  0
  1  6  1  0  0  0  0
  1 12  1  0  0  0  0
  2  1  2  0  0  0  0
  3  4  2  0  0  0  0
  3  2  1  0  0  0  0
  4  5  1  0  0  0  0
  5 19  1  0  0  0  0
  5  6  2  0  0  0  0
  7  2  1  0  0  0  0
  8  3  1  0  0  0  0
  9  4  1  0  0  0  0
 10 16  1  0  0  0  0
 11 17  1  0  0  0  0
 11 10  2  0  0  0  0
 12 11  1  0  0  0  0
 13 12  2  0  0  0  0
 13 14  1  0  0  0  0
 14 15  2  0  0  0  0
 15 10  1  0  0  0  0
 18 14  1  0  0  0  0
 21 20  2  6  0  0  0
 21 19  1  0  0  0  0
 21 24  1  0  0  0  0
 22 21  1  0  0  0  0
 23 22  1  0  0  0  0
 26 25  1  0  0  0  0
 27 26  1  0  0  0  0
 28 27  1  0  0  0  0
 29 24  1  0  0  0  0
 29 28  1  0  0  0  0
 30 29  1  0  0  0  0
 30 31  1  0  0  0  0
 31 26  1  0  0  0  0
M  END
>  <minimizedAffinity>
-5.63823605

$$$$

 OpenBabel03242521593D

 31 33  0  0  0  0  0  0  0  0999 V2000
   37.8550   26.7450   41.7350 C   0  0  0  0  0  0  0  0  0  0  0  0
   37.5760   26.9480   43.0710 C   0  0  0  0  0  0  0  0  0  0  0  0
   37.4680   28.1950   43.6800 C   0  0  0  0  0  0  0  0  0  0  0  0
   37.6530   29.3090   42.8890 C   0  0  0  0  0  0  0  0  0  0  0  0
   37.9230   29.0920   41.5820 C   0  0  0  0  0  0  0  0  0  0  0  0
   38.0210   27.8850   41.0270 N   0  0  0  0  0  0  0  0  0  0  0  0
   37.4450   25.9990   43.6200 H   0  0  0  0  0  0  0  0  0  0  0  0
   37.2420   28.1130   44.7370 H   0  0  0  0  0  0  0  0  0  0  0  0
   37.5490   30.1640   43.5300 H   0  0  0  0  0  0  0  0  0  0  0  0
   37.4150   23.1620   40.6610 C   0  0  0  0  0  0  0  0  0  0  0  0
   37.1310   24.3650   41.3340 C   0  0  0  0  0  0  0  0  0  0  0  0
   37.9760   25.4240   41.1320 C   0  0  0  0  0  0  0  0  0  0  0  0
   39.0450   25.2450   40.2850 N   0  0  0  0  0  0  0  0  0  0  0  0
   39.2970   24.0900   39.6530 C   0  0  0  0  0  0  0  0  0  0  0  0
   38.4730   23.0510   39.8470 N   0  0  0  0  0  0  0  0  0  0  0  0
   36.7160   22.3560   40.8560 H   0  0  0  0  0  0  0  0  0  0  0  0
   36.3040   24.5200   41.9980 H   0  0  0  0  0  0  0  0  0  0  0  0
   40.1690   24.0840   39.0150 H   0  0  0  0  0  0  0  0  0  0  0  0
   38.1060   30.2010   40.7780 O   0  0  0  0  0  0  0  0  0  0  0  0
   35.5260   30.2480   40.2180 O   0  0  0  0  0  0  0  0  0  0  0  0
   36.8320   30.9530   39.9190 P   0  0  1  0  0  0  0  0  0  0  0  0
   36.7200   32.5610   40.3910 O   0  0  0  0  0  0  0  0  0  0  0  0
   36.1210   32.6500   41.1530 H   0  0  0  0  0  0  0  0  0  0  0  0
   37.1660   30.8040   38.2600 O   0  0  0  0  0  0  0  0  0  0  0  0
   37.8680   29.6080   35.2040 H   0  0  0  0  0  0  0  0  0  0  0  0
   37.6890   28.5640   35.2210 N   0  0  0  0  0  0  0  0  0  0  0  0
   38.5000   28.0460   36.3290 C   0  0  0  0  0  2  0  0  0  0  0  0
   38.4230   29.0180   37.4680 C   0  0  0  0  0  2  0  0  0  0  0  0
   37.0560   29.4790   37.8310 C   0  0  0  0  0  3  0  0  0  0  0  0
   36.0550   29.4830   36.7120 C   0  0  0  0  0  2  0  0  0  0  0  0
   36.3090   28.4140   35.6820 C   0  0  0  0  0  2  0  0  0  0  0  0
  1  2  1  0  0  0  0
  2  7  1  0  0  0  0
  2  3  2  0  0  0  0
  3  8  1  0  0  0  0
  4  9  1  0  0  0  0
  4  3  1  0  0  0  0
  5  4  2  0  0  0  0
  6  5  1  0  0  0  0
  6  1  2  0  0  0  0
 10 16  1  0  0  0  0
 10 11  1  0  0  0  0
 11 17  1  0  0  0  0
 12 11  2  0  0  0  0
 12  1  1  0  0  0  0
 13 12  1  0  0  0  0
 14 15  1  0  0  0  0
 14 13  2  0  0  0  0
 15 10  2  0  0  0  0
 18 14  1  0  0  0  0
 19  5  1  0  0  0  0
 21 20  2  1  0  0  0
 21 22  1  0  0  0  0
 21 19  1  0  0  0  0
 22 23  1  0  0  0  0
 24 21  1  0  0  0  0
 25 26  1  0  0  0  0
 26 31  1  0  0  0  0
 26 27  1  0  0  0  0
 27 28  1  0  0  0  0
 28 29  1  0  0  0  0
 29 24  1  0  0  0  0
 30 29  1  0  0  0  0
 31 30  1  0  0  0  0
M  END
>  <minimizedAffinity>
-5.56494713

$$$$

 OpenBabel03242521593D

 31 33  0  0  0  0  0  0  0  0999 V2000
   37.2840   26.6850   41.6450 C   0  0  0  0  0  0  0  0  0  0  0  0
   37.9510   26.6270   42.8520 C   0  0  0  0  0  0  0  0  0  0  0  0
   38.2340   27.7280   43.6570 C   0  0  0  0  0  0  0  0  0  0  0  0
   37.8180   28.9650   43.2150 C   0  0  0  0  0  0  0  0  0  0  0  0
   37.1660   29.0030   42.0320 C   0  0  0  0  0  0  0  0  0  0  0  0
   36.9090   27.9320   41.2810 N   0  0  0  0  0  0  0  0  0  0  0  0
   38.2420   25.5970   43.1200 H   0  0  0  0  0  0  0  0  0  0  0  0
   38.7640   27.4450   44.5590 H   0  0  0  0  0  0  0  0  0  0  0  0
   38.1380   29.6800   43.9500 H   0  0  0  0  0  0  0  0  0  0  0  0
   36.9740   23.2170   40.2100 C   0  0  0  0  0  0  0  0  0  0  0  0
   37.3090   24.2160   41.1430 C   0  0  0  0  0  0  0  0  0  0  0  0
   37.0170   25.5150   40.8190 C   0  0  0  0  0  0  0  0  0  0  0  0
   36.4170   25.7590   39.6060 N   0  0  0  0  0  0  0  0  0  0  0  0
   36.1060   24.7910   38.7320 C   0  0  0  0  0  0  0  0  0  0  0  0
   36.3880   23.5200   39.0440 N   0  0  0  0  0  0  0  0  0  0  0  0
   37.2260   22.2070   40.5160 H   0  0  0  0  0  0  0  0  0  0  0  0
   37.7770   24.0430   42.0910 H   0  0  0  0  0  0  0  0  0  0  0  0
   35.6360   25.1190   37.8160 H   0  0  0  0  0  0  0  0  0  0  0  0
   36.7390   30.2380   41.5800 O   0  0  0  0  0  0  0  0  0  0  0  0
   38.4520   30.4670   39.5830 O   0  0  0  0  0  0  0  0  0  0  0  0
   37.7140   31.2740   40.6310 P   0  0  1  0  0  0  0  0  0  0  0  0
   36.7390   32.4130   39.8750 O   0  0  0  0  0  0  0  0  0  0  0  0
   36.4340   32.0800   39.0120 H   0  0  0  0  0  0  0  0  0  0  0  0
   38.8530   32.0020   41.6610 O   0  0  0  0  0  0  0  0  0  0  0  0
   41.7070   33.2240   42.9350 H   0  0  0  0  0  0  0  0  0  0  0  0
   42.5060   32.6690   42.5180 N   0  0  0  0  0  0  0  0  0  0  0  0
   42.2040   31.2640   42.8180 C   0  0  0  0  0  2  0  0  0  0  0  0
   40.7320   31.0470   42.6380 C   0  0  0  0  0  2  0  0  0  0  0  0
   40.1520   31.5750   41.3740 C   0  0  0  0  0  3  0  0  0  0  0  0
   40.8610   32.7580   40.7800 C   0  0  0  0  0  2  0  0  0  0  0  0
   42.3380   32.7730   41.0690 C   0  0  0  0  0  2  0  0  0  0  0  0
  1  2  1  0  0  0  0
  2  7  1  0  0  0  0
  2  3  2  0  0  0  0
  3  8  1  0  0  0  0
  4  3  1  0  0  0  0
  4  9  1  0  0  0  0
  5  4  2  0  0  0  0
  6  1  2  0  0  0  0
  6  5  1  0  0  0  0
 10 16  1  0  0  0  0
 10 11  1  0  0  0  0
 11 17  1  0  0  0  0
 12 11  2  0  0  0  0
 12  1  1  0  0  0  0
 13 12  1  0  0  0  0
 14 15  1  0  0  0  0
 14 13  2  0  0  0  0
 15 10  2  0  0  0  0
 18 14  1  0  0  0  0
 19  5  1  0  0  0  0
 21 20  2  6  0  0  0
 21 19  1  0  0  0  0
 21 24  1  0  0  0  0
 22 21  1  0  0  0  0
 23 22  1  0  0  0  0
 26 27  1  0  0  0  0
 26 25  1  0  0  0  0
 28 27  1  0  0  0  0
 29 24  1  0  0  0  0
 29 28  1  0  0  0  0
 30 31  1  0  0  0  0
 30 29  1  0  0  0  0
 31 26  1  0  0  0  0
M  END
>  <minimizedAffinity>
-5.46156073

$$$$

 OpenBabel03242521593D

 31 33  0  0  0  0  0  0  0  0999 V2000
   38.9920   31.9080   38.8390 C   0  0  0  0  0  0  0  0  0  0  0  0
   38.2790   31.5190   37.7230 C   0  0  0  0  0  0  0  0  0  0  0  0
   37.1130   30.7590   37.7500 C   0  0  0  0  0  0  0  0  0  0  0  0
   36.6380   30.3640   38.9830 C   0  0  0  0  0  0  0  0  0  0  0  0
   37.3480   30.7550   40.0640 C   0  0  0  0  0  0  0  0  0  0  0  0
   38.4620   31.4830   40.0080 N   0  0  0  0  0  0  0  0  0  0  0  0
   38.7360   31.8820   36.7870 H   0  0  0  0  0  0  0  0  0  0  0  0
   36.7240   30.5750   36.7550 H   0  0  0  0  0  0  0  0  0  0  0  0
   35.7540   29.7810   38.8010 H   0  0  0  0  0  0  0  0  0  0  0  0
   41.9330   34.1570   39.5260 C   0  0  0  0  0  0  0  0  0  0  0  0
   40.7320   33.4700   39.7780 C   0  0  0  0  0  0  0  0  0  0  0  0
   40.2180   32.6920   38.7740 C   0  0  0  0  0  0  0  0  0  0  0  0
   40.9090   32.6330   37.5870 N   0  0  0  0  0  0  0  0  0  0  0  0
   42.0530   33.2960   37.3670 C   0  0  0  0  0  0  0  0  0  0  0  0
   42.5590   34.0570   38.3450 N   0  0  0  0  0  0  0  0  0  0  0  0
   42.2960   34.7580   40.3530 H   0  0  0  0  0  0  0  0  0  0  0  0
   40.1820   33.5070   40.6980 H   0  0  0  0  0  0  0  0  0  0  0  0
   42.4930   33.1610   36.3900 H   0  0  0  0  0  0  0  0  0  0  0  0
   36.8780   30.3690   41.3060 O   0  0  0  0  0  0  0  0  0  0  0  0
   39.0060   30.0320   42.8330 O   0  0  0  0  0  0  0  0  0  0  0  0
   37.7480   29.3360   42.3550 P   0  0  1  0  0  0  0  0  0  0  0  0
   36.7860   28.9530   43.6770 O   0  0  0  0  0  0  0  0  0  0  0  0
   36.9080   29.6070   44.3880 H   0  0  0  0  0  0  0  0  0  0  0  0
   38.1900   27.9530   41.4730 O   0  0  0  0  0  0  0  0  0  0  0  0
   38.3010   24.8220   40.2700 H   0  0  0  0  0  0  0  0  0  0  0  0
   37.3190   24.4290   40.3140 N   0  0  0  0  0  0  0  0  0  0  0  0
   36.8990   24.5780   41.7120 C   0  0  0  0  0  2  0  0  0  0  0  0
   37.3900   25.9020   42.2160 C   0  0  0  0  0  2  0  0  0  0  0  0
   37.1180   27.0690   41.3330 C   0  0  0  0  0  3  0  0  0  0  0  0
   37.0170   26.7620   39.8670 C   0  0  0  0  0  2  0  0  0  0  0  0
   36.4860   25.3820   39.5820 C   0  0  0  0  0  2  0  0  0  0  0  0
  1  6  1  0  0  0  0
  2  3  1  0  0  0  0
  2  1  2  0  0  0  0
  3  4  2  0  0  0  0
  4  5  1  0  0  0  0
  5 19  1  0  0  0  0
  6  5  2  0  0  0  0
  7  2  1  0  0  0  0
  8  3  1  0  0  0  0
  9  4  1  0  0  0  0
 10 11  1  0  0  0  0
 10 16  1  0  0  0  0
 11 17  1  0  0  0  0
 12  1  1  0  0  0  0
 12 11  2  0  0  0  0
 13 12  1  0  0  0  0
 14 13  2  0  0  0  0
 14 15  1  0  0  0  0
 15 10  2  0  0  0  0
 18 14  1  0  0  0  0
 19 21  1  0  0  0  0
 21 20  2  1  0  0  0
 21 22  1  0  0  0  0
 22 23  1  0  0  0  0
 24 21  1  0  0  0  0
 25 26  1  0  0  0  0
 26 27  1  0  0  0  0
 27 28  1  0  0  0  0
 29 24  1  0  0  0  0
 29 28  1  0  0  0  0
 30 29  1  0  0  0  0
 31 30  1  0  0  0  0
 31 26  1  0  0  0  0
M  END
>  <minimizedAffinity>
-5.45332909

$$$$

 OpenBabel03242521593D

 31 33  0  0  0  0  0  0  0  0999 V2000
   38.1500   31.2490   38.4690 C   0  0  0  0  0  0  0  0  0  0  0  0
   37.2570   32.2920   38.6080 C   0  0  0  0  0  0  0  0  0  0  0  0
   37.3760   33.3200   39.5390 C   0  0  0  0  0  0  0  0  0  0  0  0
   38.4640   33.2930   40.3840 C   0  0  0  0  0  0  0  0  0  0  0  0
   39.3290   32.2650   40.2330 C   0  0  0  0  0  0  0  0  0  0  0  0
   39.1900   31.2940   39.3320 N   0  0  0  0  0  0  0  0  0  0  0  0
   36.4220   32.2270   37.8890 H   0  0  0  0  0  0  0  0  0  0  0  0
   36.5600   34.0300   39.4660 H   0  0  0  0  0  0  0  0  0  0  0  0
   38.3740   34.1440   41.0320 H   0  0  0  0  0  0  0  0  0  0  0  0
   36.9690   28.9400   35.7380 C   0  0  0  0  0  0  0  0  0  0  0  0
   36.9510   30.0460   36.6070 C   0  0  0  0  0  0  0  0  0  0  0  0
   37.9880   30.1790   37.4920 C   0  0  0  0  0  0  0  0  0  0  0  0
   38.9790   29.2260   37.4740 N   0  0  0  0  0  0  0  0  0  0  0  0
   38.9780   28.1800   36.6360 C   0  0  0  0  0  0  0  0  0  0  0  0
   37.9660   28.0450   35.7680 N   0  0  0  0  0  0  0  0  0  0  0  0
   36.1260   28.8820   35.0580 H   0  0  0  0  0  0  0  0  0  0  0  0
   36.1860   30.7970   36.6340 H   0  0  0  0  0  0  0  0  0  0  0  0
   39.8160   27.5050   36.7260 H   0  0  0  0  0  0  0  0  0  0  0  0
   40.4270   32.2290   41.0720 O   0  0  0  0  0  0  0  0  0  0  0  0
   41.3200   29.7850   41.5200 O   0  0  0  0  0  0  0  0  0  0  0  0
   40.6950   30.9800   42.2090 P   0  0  1  0  0  0  0  0  0  0  0  0
   41.7280   31.5380   43.4100 O   0  0  0  0  0  0  0  0  0  0  0  0
   42.6550   31.3720   43.1640 H   0  0  0  0  0  0  0  0  0  0  0  0
   39.1850   30.5190   42.8390 O   0  0  0  0  0  0  0  0  0  0  0  0
   36.5260   28.7060   43.7890 H   0  0  0  0  0  0  0  0  0  0  0  0
   36.4560   27.8760   43.1350 N   0  0  0  0  0  0  0  0  0  0  0  0
   36.4110   28.4450   41.7840 C   0  0  0  0  0  2  0  0  0  0  0  0
   37.3710   29.5960   41.7210 C   0  0  0  0  0  2  0  0  0  0  0  0
   38.7300   29.3310   42.2630 C   0  0  0  0  0  3  0  0  0  0  0  0
   38.8070   28.2870   43.3400 C   0  0  0  0  0  2  0  0  0  0  0  0
   37.7590   27.2150   43.2060 C   0  0  0  0  0  2  0  0  0  0  0  0
  1  2  2  0  0  0  0
  1  6  1  0  0  0  0
  2  3  1  0  0  0  0
  3  4  2  0  0  0  0
  4  9  1  0  0  0  0
  5  4  1  0  0  0  0
  5 19  1  0  0  0  0
  6  5  2  0  0  0  0
  7  2  1  0  0  0  0
  8  3  1  0  0  0  0
 10 15  2  0  0  0  0
 10 11  1  0  0  0  0
 11 17  1  0  0  0  0
 11 12  2  0  0  0  0
 12  1  1  0  0  0  0
 13 12  1  0  0  0  0
 14 18  1  0  0  0  0
 14 13  2  0  0  0  0
 15 14  1  0  0  0  0
 16 10  1  0  0  0  0
 19 21  1  0  0  0  0
 21 20  2  6  0  0  0
 21 24  1  0  0  0  0
 21 22  1  0  0  0  0
 23 22  1  0  0  0  0
 26 31  1  0  0  0  0
 26 25  1  0  0  0  0
 27 26  1  0  0  0  0
 28 27  1  0  0  0  0
 28 29  1  0  0  0  0
 29 24  1  0  0  0  0
 29 30  1  0  0  0  0
 31 30  1  0  0  0  0
M  END
>  <minimizedAffinity>
-5.45045185

$$$$

 OpenBabel03242521593D

 31 33  0  0  0  0  0  0  0  0999 V2000
   40.3420   32.8290   38.9820 C   0  0  0  0  0  0  0  0  0  0  0  0
   40.0850   33.7640   39.9650 C   0  0  0  0  0  0  0  0  0  0  0  0
   38.8170   34.0870   40.4420 C   0  0  0  0  0  0  0  0  0  0  0  0
   37.7410   33.4250   39.8920 C   0  0  0  0  0  0  0  0  0  0  0  0
   38.0110   32.5130   38.9320 C   0  0  0  0  0  0  0  0  0  0  0  0
   39.2360   32.2240   38.4940 N   0  0  0  0  0  0  0  0  0  0  0  0
   41.0070   34.2380   40.3430 H   0  0  0  0  0  0  0  0  0  0  0  0
   38.8560   34.8460   41.2150 H   0  0  0  0  0  0  0  0  0  0  0  0
   36.8610   33.8160   40.3680 H   0  0  0  0  0  0  0  0  0  0  0  0
   43.3510   31.7740   36.9790 C   0  0  0  0  0  0  0  0  0  0  0  0
   41.9930   32.0000   37.2690 C   0  0  0  0  0  0  0  0  0  0  0  0
   41.6810   32.5260   38.4950 C   0  0  0  0  0  0  0  0  0  0  0  0
   42.7130   32.8000   39.3610 N   0  0  0  0  0  0  0  0  0  0  0  0
   44.0020   32.5780   39.0640 C   0  0  0  0  0  0  0  0  0  0  0  0
   44.3120   32.0640   37.8670 N   0  0  0  0  0  0  0  0  0  0  0  0
   43.5430   31.3570   35.9960 H   0  0  0  0  0  0  0  0  0  0  0  0
   41.1770   31.7910   36.6060 H   0  0  0  0  0  0  0  0  0  0  0  0
   44.7130   32.8390   39.8340 H   0  0  0  0  0  0  0  0  0  0  0  0
   36.9400   31.8390   38.3750 O   0  0  0  0  0  0  0  0  0  0  0  0
   35.6450   29.6830   37.5680 O   0  0  0  0  0  0  0  0  0  0  0  0
   36.7080   30.1520   38.5400 P   0  0  1  0  0  0  0  0  0  0  0  0
   38.1530   29.3610   38.2120 O   0  0  0  0  0  0  0  0  0  0  0  0
   38.2190   29.1550   37.2630 H   0  0  0  0  0  0  0  0  0  0  0  0
   36.1700   29.8550   40.1240 O   0  0  0  0  0  0  0  0  0  0  0  0
   36.4110   29.6220   43.4630 H   0  0  0  0  0  0  0  0  0  0  0  0
   37.2090   28.9620   43.6800 N   0  0  0  0  0  0  0  0  0  0  0  0
   36.9010   27.7230   42.9580 C   0  0  0  0  0  2  0  0  0  0  0  0
   36.3350   28.0830   41.6170 C   0  0  0  0  0  2  0  0  0  0  0  0
   37.0980   29.1030   40.8480 C   0  0  0  0  0  3  0  0  0  0  0  0
   37.8800   30.0840   41.6730 C   0  0  0  0  0  2  0  0  0  0  0  0
   38.3690   29.5110   42.9770 C   0  0  0  0  0  2  0  0  0  0  0  0
  1  2  1  0  0  0  0
  2  7  1  0  0  0  0
  2  3  2  0  0  0  0
  3  8  1  0  0  0  0
  4  9  1  0  0  0  0
  4  3  1  0  0  0  0
  5  4  2  0  0  0  0
  6  5  1  0  0  0  0
  6  1  2  0  0  0  0
 10 11  2  0  0  0  0
 10 15  1  0  0  0  0
 11 12  1  0  0  0  0
 12  1  1  0  0  0  0
 12 13  2  0  0  0  0
 14 13  1  0  0  0  0
 14 18  1  0  0  0  0
 15 14  2  0  0  0  0
 16 10  1  0  0  0  0
 17 11  1  0  0  0  0
 19 21  1  0  0  0  0
 19  5  1  0  0  0  0
 21 20  2  6  0  0  0
 21 24  1  0  0  0  0
 22 21  1  0  0  0  0
 23 22  1  0  0  0  0
 24 29  1  0  0  0  0
 25 26  1  0  0  0  0
 27 26  1  0  0  0  0
 28 27  1  0  0  0  0
 29 28  1  0  0  0  0
 29 30  1  0  0  0  0
 30 31  1  0  0  0  0
 31 26  1  0  0  0  0
M  END
>  <minimizedAffinity>
-5.28074837

$$$$
