
 OpenBabel03252509323D

 25 26  0  0  0  0  0  0  0  0999 V2000
   36.4450   28.2610   41.6410 O   0  0  0  0  0  0  0  0  0  0  0  0
   36.9760   28.0430   42.9180 C   0  0  0  0  0  0  0  0  0  0  0  0
   37.5840   28.9200   43.2770 H   0  0  0  0  0  0  0  0  0  0  0  0
   36.1770   27.9030   43.6870 H   0  0  0  0  0  0  0  0  0  0  0  0
   39.8680   25.8210   43.6680 C   0  0  0  0  0  0  0  0  0  0  0  0
   39.0290   26.9490   43.6510 C   0  0  0  0  0  0  0  0  0  0  0  0
   37.8500   26.8850   42.9420 C   0  0  0  0  0  0  0  0  0  0  0  0
   37.5460   25.7170   42.2820 N   0  0  0  0  0  0  0  0  0  0  0  0
   38.3800   24.6490   42.3200 C   0  0  0  0  0  0  0  0  0  0  0  0
   39.5190   24.7000   43.0010 N   0  0  0  0  0  0  0  0  0  0  0  0
   40.8060   25.8560   44.2250 H   0  0  0  0  0  0  0  0  0  0  0  0
   39.3830   27.8000   44.2100 H   0  0  0  0  0  0  0  0  0  0  0  0
   38.1450   23.7280   41.8020 H   0  0  0  0  0  0  0  0  0  0  0  0
   38.0940   30.2530   42.0040 O   0  0  0  0  0  0  0  0  0  0  0  0
   36.9150   29.8230   41.1720 P   0  0  2  0  0  0  0  0  0  0  0  0
   35.5750   30.8220   41.3350 O   0  0  0  0  0  0  0  0  0  0  0  0
   35.6100   31.3950   42.1530 H   0  0  0  0  0  0  0  0  0  0  0  0
   37.4110   29.7350   39.5590 O   0  0  0  0  0  0  0  0  0  0  0  0
   39.3920   32.0630   35.7690 H   0  0  0  0  0  0  0  0  0  0  0  0
   39.0970   32.1890   36.7520 N   0  0  0  0  0  0  0  0  0  0  0  0
   37.7180   31.7920   36.9650 C   0  0  0  0  0  2  0  0  0  0  0  0
   37.4160   31.7910   38.4430 C   0  0  0  0  0  2  0  0  0  0  0  0
   38.2400   30.7590   39.1860 C   0  0  0  0  0  3  0  0  0  0  0  0
   39.3610   30.3250   38.2750 C   0  0  0  0  0  2  0  0  0  0  0  0
   39.9880   31.6110   37.7320 C   0  0  0  0  0  2  0  0  0  0  0  0
  1  2  1  0  0  0  0
  2  7  1  0  0  0  0
  2  3  1  0  0  0  0
  2  4  1  0  0  0  0
  5 11  1  0  0  0  0
  6  5  1  0  0  0  0
  6 12  1  0  0  0  0
  7  6  2  0  0  0  0
  8  9  2  0  0  0  0
  8  7  1  0  0  0  0
  9 10  1  0  0  0  0
 10  5  2  0  0  0  0
 13  9  1  0  0  0  0
 15 16  1  0  0  0  0
 15  1  1  0  0  0  0
 15 14  2  1  0  0  0
 16 17  1  0  0  0  0
 18 15  1  0  0  0  0
 19 20  1  0  0  0  0
 20 21  1  0  0  0  0
 20 25  1  0  0  0  0
 21 22  1  0  0  0  0
 22 23  1  0  0  0  0
 23 18  1  0  0  0  0
 24 23  1  0  0  0  0
 25 24  1  0  0  0  0
M  END
>  <minimizedAffinity>
-5.288908

$$$$

 OpenBabel03252509323D

 25 26  0  0  0  0  0  0  0  0999 V2000
   37.3370   29.8260   39.7410 O   0  0  0  0  0  0  0  0  0  0  0  0
   37.1620   30.8960   38.8570 C   0  0  0  0  0  0  0  0  0  0  0  0
   37.4210   30.6150   37.7970 H   0  0  0  0  0  0  0  0  0  0  0  0
   36.1000   31.2420   38.8190 H   0  0  0  0  0  0  0  0  0  0  0  0
   40.1220   33.1360   39.1510 C   0  0  0  0  0  0  0  0  0  0  0  0
   39.3170   32.0380   38.8020 C   0  0  0  0  0  0  0  0  0  0  0  0
   38.0030   32.0250   39.2110 C   0  0  0  0  0  0  0  0  0  0  0  0
   37.5350   33.0910   39.9450 N   0  0  0  0  0  0  0  0  0  0  0  0
   38.3420   34.1340   40.2640 C   0  0  0  0  0  0  0  0  0  0  0  0
   39.6110   34.1550   39.8730 N   0  0  0  0  0  0  0  0  0  0  0  0
   41.1670   33.1610   38.8340 H   0  0  0  0  0  0  0  0  0  0  0  0
   39.8050   31.2690   38.2240 H   0  0  0  0  0  0  0  0  0  0  0  0
   37.9780   34.9750   40.8410 H   0  0  0  0  0  0  0  0  0  0  0  0
   34.7850   29.2870   39.6020 O   0  0  0  0  0  0  0  0  0  0  0  0
   35.8740   29.6370   40.5810 P   0  0  2  0  0  0  0  0  0  0  0  0
   35.5910   31.0610   41.4240 O   0  0  0  0  0  0  0  0  0  0  0  0
   34.9050   31.6440   40.9890 H   0  0  0  0  0  0  0  0  0  0  0  0
   36.0690   28.3360   41.6420 O   0  0  0  0  0  0  0  0  0  0  0  0
   39.0490   25.1710   43.8350 H   0  0  0  0  0  0  0  0  0  0  0  0
   38.9800   25.8180   43.0320 N   0  0  0  0  0  0  0  0  0  0  0  0
   37.8060   25.5600   42.2190 C   0  0  0  0  0  2  0  0  0  0  0  0
   37.6450   26.6630   41.2020 C   0  0  0  0  0  2  0  0  0  0  0  0
   37.3790   28.0020   41.8600 C   0  0  0  0  0  3  0  0  0  0  0  0
   37.7320   27.8730   43.3200 C   0  0  0  0  0  2  0  0  0  0  0  0
   39.1150   27.2170   43.3670 C   0  0  0  0  0  2  0  0  0  0  0  0
  1 15  1  0  0  0  0
  2  7  1  0  0  0  0
  2  1  1  0  0  0  0
  3  2  1  0  0  0  0
  4  2  1  0  0  0  0
  5 10  1  0  0  0  0
  6  5  2  0  0  0  0
  6  7  1  0  0  0  0
  7  8  2  0  0  0  0
  8  9  1  0  0  0  0
  9 13  1  0  0  0  0
 10  9  2  0  0  0  0
 11  5  1  0  0  0  0
 12  6  1  0  0  0  0
 15 14  2  6  0  0  0
 15 16  1  0  0  0  0
 15 18  1  0  0  0  0
 17 16  1  0  0  0  0
 18 23  1  0  0  0  0
 20 25  1  0  0  0  0
 20 19  1  0  0  0  0
 21 20  1  0  0  0  0
 22 23  1  0  0  0  0
 22 21  1  0  0  0  0
 23 24  1  0  0  0  0
 24 25  1  0  0  0  0
M  END
>  <minimizedAffinity>
-4.87899685

$$$$

 OpenBabel03252509323D

 25 26  0  0  0  0  0  0  0  0999 V2000
   38.3990   29.1230   41.2150 O   0  0  0  0  0  0  0  0  0  0  0  0
   37.7270   29.7250   40.1460 C   0  0  0  0  0  0  0  0  0  0  0  0
   38.1080   29.3630   39.1500 H   0  0  0  0  0  0  0  0  0  0  0  0
   36.6350   29.4870   40.1470 H   0  0  0  0  0  0  0  0  0  0  0  0
   37.2330   33.3360   39.3830 C   0  0  0  0  0  0  0  0  0  0  0  0
   37.0700   31.9400   39.3620 C   0  0  0  0  0  0  0  0  0  0  0  0
   37.8850   31.1680   40.1590 C   0  0  0  0  0  0  0  0  0  0  0  0
   38.8240   31.7990   40.9420 N   0  0  0  0  0  0  0  0  0  0  0  0
   38.9530   33.1490   40.9360 C   0  0  0  0  0  0  0  0  0  0  0  0
   38.1710   33.9030   40.1710 N   0  0  0  0  0  0  0  0  0  0  0  0
   36.5940   33.9630   38.7570 H   0  0  0  0  0  0  0  0  0  0  0  0
   36.2980   31.5720   38.7050 H   0  0  0  0  0  0  0  0  0  0  0  0
   39.6890   33.6510   41.5510 H   0  0  0  0  0  0  0  0  0  0  0  0
   35.9030   28.4000   41.4770 O   0  0  0  0  0  0  0  0  0  0  0  0
   37.2140   28.4340   42.2170 P   0  0  2  0  0  0  0  0  0  0  0  0
   37.1660   29.3370   43.6320 O   0  0  0  0  0  0  0  0  0  0  0  0
   36.3900   29.9640   43.6720 H   0  0  0  0  0  0  0  0  0  0  0  0
   37.6860   26.8420   42.5310 O   0  0  0  0  0  0  0  0  0  0  0  0
   41.4950   24.2270   44.0660 H   0  0  0  0  0  0  0  0  0  0  0  0
   41.1260   24.7480   43.2530 N   0  0  0  0  0  0  0  0  0  0  0  0
   39.8020   24.3000   42.8690 C   0  0  0  0  0  2  0  0  0  0  0  0
   39.2340   25.2350   41.8290 C   0  0  0  0  0  2  0  0  0  0  0  0
   39.0300   26.6320   42.3790 C   0  0  0  0  0  3  0  0  0  0  0  0
   39.8050   26.7340   43.6690 C   0  0  0  0  0  2  0  0  0  0  0  0
   41.2030   26.1870   43.3700 C   0  0  0  0  0  2  0  0  0  0  0  0
  1 15  1  0  0  0  0
  2  4  1  0  0  0  0
  2  7  1  0  0  0  0
  2  1  1  0  0  0  0
  3  2  1  0  0  0  0
  5 10  1  0  0  0  0
  6  5  2  0  0  0  0
  6  7  1  0  0  0  0
  7  8  2  0  0  0  0
  9  8  1  0  0  0  0
  9 13  1  0  0  0  0
 10  9  2  0  0  0  0
 11  5  1  0  0  0  0
 12  6  1  0  0  0  0
 15 14  2  6  0  0  0
 15 18  1  0  0  0  0
 15 16  1  0  0  0  0
 16 17  1  0  0  0  0
 20 25  1  0  0  0  0
 20 19  1  0  0  0  0
 21 20  1  0  0  0  0
 22 23  1  0  0  0  0
 22 21  1  0  0  0  0
 23 18  1  0  0  0  0
 23 24  1  0  0  0  0
 25 24  1  0  0  0  0
M  END
>  <minimizedAffinity>
-4.78629971

$$$$

 OpenBabel03252509323D

 25 26  0  0  0  0  0  0  0  0999 V2000
   37.2210   28.5040   40.4680 O   0  0  0  0  0  0  0  0  0  0  0  0
   38.2960   27.7290   40.9180 C   0  0  0  0  0  0  0  0  0  0  0  0
   39.1880   27.8080   40.2350 H   0  0  0  0  0  0  0  0  0  0  0  0
   38.6620   28.0590   41.9200 H   0  0  0  0  0  0  0  0  0  0  0  0
   36.9260   24.4950   42.1540 C   0  0  0  0  0  0  0  0  0  0  0  0
   37.2590   25.8590   42.0920 C   0  0  0  0  0  0  0  0  0  0  0  0
   37.9460   26.3220   40.9930 C   0  0  0  0  0  0  0  0  0  0  0  0
   38.2750   25.4270   40.0010 N   0  0  0  0  0  0  0  0  0  0  0  0
   37.9370   24.1170   40.0950 C   0  0  0  0  0  0  0  0  0  0  0  0
   37.2740   23.6600   41.1520 N   0  0  0  0  0  0  0  0  0  0  0  0
   36.3810   24.1110   43.0200 H   0  0  0  0  0  0  0  0  0  0  0  0
   36.9430   26.4530   42.9340 H   0  0  0  0  0  0  0  0  0  0  0  0
   38.1930   23.4080   39.3180 H   0  0  0  0  0  0  0  0  0  0  0  0
   37.8350   29.6700   42.7230 O   0  0  0  0  0  0  0  0  0  0  0  0
   37.2430   29.9440   41.3660 P   0  0  2  0  0  0  0  0  0  0  0  0
   35.6680   30.5250   41.4230 O   0  0  0  0  0  0  0  0  0  0  0  0
   35.2180   30.3530   42.2980 H   0  0  0  0  0  0  0  0  0  0  0  0
   38.2570   31.0260   40.5550 O   0  0  0  0  0  0  0  0  0  0  0  0
   39.3310   33.1370   36.3010 H   0  0  0  0  0  0  0  0  0  0  0  0
   39.2320   32.2180   36.7640 N   0  0  0  0  0  0  0  0  0  0  0  0
   40.0350   32.1210   37.9680 C   0  0  0  0  0  2  0  0  0  0  0  0
   39.6830   30.8550   38.7090 C   0  0  0  0  0  2  0  0  0  0  0  0
   38.2480   30.8660   39.1950 C   0  0  0  0  0  3  0  0  0  0  0  0
   37.5260   31.9690   38.4640 C   0  0  0  0  0  2  0  0  0  0  0  0
   37.8680   31.7920   36.9820 C   0  0  0  0  0  2  0  0  0  0  0  0
  1  2  1  0  0  0  0
  1 15  1  0  0  0  0
  2  7  1  0  0  0  0
  2  4  1  0  0  0  0
  3  2  1  0  0  0  0
  5 11  1  0  0  0  0
  6  5  1  0  0  0  0
  6 12  1  0  0  0  0
  7  6  2  0  0  0  0
  8  9  2  0  0  0  0
  8  7  1  0  0  0  0
  9 10  1  0  0  0  0
 10  5  2  0  0  0  0
 13  9  1  0  0  0  0
 15 16  1  0  0  0  0
 15 14  2  1  0  0  0
 16 17  1  0  0  0  0
 18 15  1  0  0  0  0
 19 20  1  0  0  0  0
 20 25  1  0  0  0  0
 20 21  1  0  0  0  0
 21 22  1  0  0  0  0
 22 23  1  0  0  0  0
 23 18  1  0  0  0  0
 24 23  1  0  0  0  0
 25 24  1  0  0  0  0
M  END
>  <minimizedAffinity>
-4.67525721

$$$$

 OpenBabel03252509323D

 25 26  0  0  0  0  0  0  0  0999 V2000
   37.9010   28.6550   40.8980 O   0  0  0  0  0  0  0  0  0  0  0  0
   36.7220   27.9390   41.1380 C   0  0  0  0  0  0  0  0  0  0  0  0
   36.2940   28.1600   42.1560 H   0  0  0  0  0  0  0  0  0  0  0  0
   35.9130   28.2050   40.4150 H   0  0  0  0  0  0  0  0  0  0  0  0
   37.1160   24.4840   39.8080 C   0  0  0  0  0  0  0  0  0  0  0  0
   36.8990   25.8720   39.8550 C   0  0  0  0  0  0  0  0  0  0  0  0
   36.9450   26.5060   41.0760 C   0  0  0  0  0  0  0  0  0  0  0  0
   37.2020   25.7510   42.1970 N   0  0  0  0  0  0  0  0  0  0  0  0
   37.4070   24.4130   42.1130 C   0  0  0  0  0  0  0  0  0  0  0  0
   37.3650   23.7920   40.9390 N   0  0  0  0  0  0  0  0  0  0  0  0
   37.0830   23.9660   38.8470 H   0  0  0  0  0  0  0  0  0  0  0  0
   36.7080   26.3460   38.9060 H   0  0  0  0  0  0  0  0  0  0  0  0
   37.6100   23.8140   42.9910 H   0  0  0  0  0  0  0  0  0  0  0  0
   39.5620   28.5380   42.9100 O   0  0  0  0  0  0  0  0  0  0  0  0
   38.3860   29.3170   42.3840 P   0  0  2  0  0  0  0  0  0  0  0  0
   37.0520   29.2940   43.4040 O   0  0  0  0  0  0  0  0  0  0  0  0
   37.0850   28.5570   44.0770 H   0  0  0  0  0  0  0  0  0  0  0  0
   38.8920   30.9020   42.0860 O   0  0  0  0  0  0  0  0  0  0  0  0
   37.1980   34.6250   39.4450 H   0  0  0  0  0  0  0  0  0  0  0  0
   37.8240   33.8030   39.4050 N   0  0  0  0  0  0  0  0  0  0  0  0
   38.8050   33.8080   40.4730 C   0  0  0  0  0  2  0  0  0  0  0  0
   39.5360   32.4880   40.4930 C   0  0  0  0  0  2  0  0  0  0  0  0
   38.6100   31.3340   40.8180 C   0  0  0  0  0  3  0  0  0  0  0  0
   37.1930   31.8230   40.6500 C   0  0  0  0  0  2  0  0  0  0  0  0
   37.1460   32.5310   39.2930 C   0  0  0  0  0  2  0  0  0  0  0  0
  1  2  1  0  0  0  0
  1 15  1  0  0  0  0
  2  3  1  0  0  0  0
  4  2  1  0  0  0  0
  5  6  2  0  0  0  0
  5 10  1  0  0  0  0
  6  7  1  0  0  0  0
  7  2  1  0  0  0  0
  7  8  2  0  0  0  0
  9  8  1  0  0  0  0
  9 13  1  0  0  0  0
 10  9  2  0  0  0  0
 11  5  1  0  0  0  0
 12  6  1  0  0  0  0
 15 14  2  1  0  0  0
 15 16  1  0  0  0  0
 16 17  1  0  0  0  0
 18 15  1  0  0  0  0
 20 19  1  0  0  0  0
 20 21  1  0  0  0  0
 21 22  1  0  0  0  0
 22 23  1  0  0  0  0
 23 18  1  0  0  0  0
 24 23  1  0  0  0  0
 25 20  1  0  0  0  0
 25 24  1  0  0  0  0
M  END
>  <minimizedAffinity>
-4.59657431

$$$$

 OpenBabel03252509323D

 25 26  0  0  0  0  0  0  0  0999 V2000
   35.9350   28.6230   41.1990 O   0  0  0  0  0  0  0  0  0  0  0  0
   36.0360   30.0140   41.0800 C   0  0  0  0  0  0  0  0  0  0  0  0
   35.0430   30.5230   41.2300 H   0  0  0  0  0  0  0  0  0  0  0  0
   36.7130   30.4540   41.8520 H   0  0  0  0  0  0  0  0  0  0  0  0
   37.4500   32.0500   38.3010 C   0  0  0  0  0  0  0  0  0  0  0  0
   36.9870   31.6840   39.5770 C   0  0  0  0  0  0  0  0  0  0  0  0
   36.5170   30.4040   39.7670 C   0  0  0  0  0  0  0  0  0  0  0  0
   36.5220   29.5390   38.6970 N   0  0  0  0  0  0  0  0  0  0  0  0
   36.9760   29.9280   37.4800 C   0  0  0  0  0  0  0  0  0  0  0  0
   37.4320   31.1610   37.2870 N   0  0  0  0  0  0  0  0  0  0  0  0
   37.8260   33.0620   38.1350 H   0  0  0  0  0  0  0  0  0  0  0  0
   37.0370   32.4550   40.3290 H   0  0  0  0  0  0  0  0  0  0  0  0
   36.9820   29.2510   36.6350 H   0  0  0  0  0  0  0  0  0  0  0  0
   36.1440   27.2110   43.3870 O   0  0  0  0  0  0  0  0  0  0  0  0
   36.9100   28.1690   42.5130 P   0  0  2  0  0  0  0  0  0  0  0  0
   37.3750   29.5760   43.3030 O   0  0  0  0  0  0  0  0  0  0  0  0
   36.8610   29.7430   44.1430 H   0  0  0  0  0  0  0  0  0  0  0  0
   38.2520   27.3560   41.8860 O   0  0  0  0  0  0  0  0  0  0  0  0
   41.9880   24.3830   42.8360 H   0  0  0  0  0  0  0  0  0  0  0  0
   41.1650   24.8360   43.2660 N   0  0  0  0  0  0  0  0  0  0  0  0
   41.1630   26.2730   43.0700 C   0  0  0  0  0  2  0  0  0  0  0  0
   39.8410   26.8420   43.5230 C   0  0  0  0  0  2  0  0  0  0  0  0
   38.6890   26.3320   42.6810 C   0  0  0  0  0  3  0  0  0  0  0  0
   39.1830   25.1360   41.9060 C   0  0  0  0  0  2  0  0  0  0  0  0
   39.8950   24.2370   42.9200 C   0  0  0  0  0  2  0  0  0  0  0  0
  1 15  1  0  0  0  0
  2  1  1  0  0  0  0
  2  3  1  0  0  0  0
  2  4  1  0  0  0  0
  5  6  1  0  0  0  0
  6  7  2  0  0  0  0
  6 12  1  0  0  0  0
  7  2  1  0  0  0  0
  8  7  1  0  0  0  0
  9  8  2  0  0  0  0
 10  9  1  0  0  0  0
 10  5  2  0  0  0  0
 11  5  1  0  0  0  0
 13  9  1  0  0  0  0
 15 16  1  0  0  0  0
 15 14  2  1  0  0  0
 16 17  1  0  0  0  0
 18 15  1  0  0  0  0
 18 23  1  0  0  0  0
 19 20  1  0  0  0  0
 21 20  1  0  0  0  0
 21 22  1  0  0  0  0
 23 22  1  0  0  0  0
 24 23  1  0  0  0  0
 24 25  1  0  0  0  0
 25 20  1  0  0  0  0
M  END
>  <minimizedAffinity>
-4.57268953

$$$$

 OpenBabel03252509323D

 25 26  0  0  0  0  0  0  0  0999 V2000
   38.1130   30.1470   40.7700 O   0  0  0  0  0  0  0  0  0  0  0  0
   37.8180   29.7000   42.0630 C   0  0  0  0  0  0  0  0  0  0  0  0
   38.5110   30.1420   42.8310 H   0  0  0  0  0  0  0  0  0  0  0  0
   36.7910   29.9970   42.3870 H   0  0  0  0  0  0  0  0  0  0  0  0
   37.2090   26.0620   41.5500 C   0  0  0  0  0  0  0  0  0  0  0  0
   37.0840   27.4580   41.4400 C   0  0  0  0  0  0  0  0  0  0  0  0
   37.9360   28.2570   42.1690 C   0  0  0  0  0  0  0  0  0  0  0  0
   38.8730   27.6520   42.9740 N   0  0  0  0  0  0  0  0  0  0  0  0
   38.9630   26.3010   43.0570 C   0  0  0  0  0  0  0  0  0  0  0  0
   38.1460   25.5210   42.3570 N   0  0  0  0  0  0  0  0  0  0  0  0
   36.5410   25.4140   40.9780 H   0  0  0  0  0  0  0  0  0  0  0  0
   36.3110   27.8040   40.7740 H   0  0  0  0  0  0  0  0  0  0  0  0
   39.6990   25.8190   43.6890 H   0  0  0  0  0  0  0  0  0  0  0  0
   37.5200   32.6700   40.4420 O   0  0  0  0  0  0  0  0  0  0  0  0
   36.9250   31.2880   40.3600 P   0  0  2  0  0  0  0  0  0  0  0  0
   35.6240   31.0530   41.3950 O   0  0  0  0  0  0  0  0  0  0  0  0
   35.5780   31.7300   42.1280 H   0  0  0  0  0  0  0  0  0  0  0  0
   36.4820   30.9970   38.7560 O   0  0  0  0  0  0  0  0  0  0  0  0
   34.2160   27.6340   36.0620 H   0  0  0  0  0  0  0  0  0  0  0  0
   35.1180   27.8570   36.5150 N   0  0  0  0  0  0  0  0  0  0  0  0
   35.6220   29.1590   36.1230 C   0  0  0  0  0  2  0  0  0  0  0  0
   36.8140   29.5170   36.9750 C   0  0  0  0  0  2  0  0  0  0  0  0
   36.4380   29.6670   38.4350 C   0  0  0  0  0  3  0  0  0  0  0  0
   35.0770   29.0470   38.6240 C   0  0  0  0  0  2  0  0  0  0  0  0
   35.1380   27.6740   37.9490 C   0  0  0  0  0  2  0  0  0  0  0  0
  1  2  1  0  0  0  0
  2  7  1  0  0  0  0
  2  4  1  0  0  0  0
  2  3  1  0  0  0  0
  5 10  1  0  0  0  0
  6  5  2  0  0  0  0
  6  7  1  0  0  0  0
  7  8  2  0  0  0  0
  8  9  1  0  0  0  0
  9 13  1  0  0  0  0
 10  9  2  0  0  0  0
 11  5  1  0  0  0  0
 12  6  1  0  0  0  0
 15 14  2  1  0  0  0
 15  1  1  0  0  0  0
 15 16  1  0  0  0  0
 16 17  1  0  0  0  0
 18 15  1  0  0  0  0
 19 20  1  0  0  0  0
 20 25  1  0  0  0  0
 21 20  1  0  0  0  0
 21 22  1  0  0  0  0
 22 23  1  0  0  0  0
 23 24  1  0  0  0  0
 23 18  1  0  0  0  0
 25 24  1  0  0  0  0
M  END
>  <minimizedAffinity>
-4.50114632

$$$$

 OpenBabel03252509323D

 25 26  0  0  0  0  0  0  0  0999 V2000
   37.7060   29.8560   40.1340 O   0  0  0  0  0  0  0  0  0  0  0  0
   37.6360   30.1700   38.7720 C   0  0  0  0  0  0  0  0  0  0  0  0
   37.2680   29.3020   38.1570 H   0  0  0  0  0  0  0  0  0  0  0  0
   36.9160   31.0010   38.5680 H   0  0  0  0  0  0  0  0  0  0  0  0
   41.1300   29.9370   37.5070 C   0  0  0  0  0  0  0  0  0  0  0  0
   39.8760   29.5630   38.0210 C   0  0  0  0  0  0  0  0  0  0  0  0
   38.9340   30.5430   38.2420 C   0  0  0  0  0  0  0  0  0  0  0  0
   39.2640   31.8460   37.9480 N   0  0  0  0  0  0  0  0  0  0  0  0
   40.4850   32.1690   37.4540 C   0  0  0  0  0  0  0  0  0  0  0  0
   41.4000   31.2310   37.2370 N   0  0  0  0  0  0  0  0  0  0  0  0
   41.8880   29.1710   37.3260 H   0  0  0  0  0  0  0  0  0  0  0  0
   39.7440   28.5100   38.2070 H   0  0  0  0  0  0  0  0  0  0  0  0
   40.7500   33.1930   37.2210 H   0  0  0  0  0  0  0  0  0  0  0  0
   35.2730   29.1630   39.4840 O   0  0  0  0  0  0  0  0  0  0  0  0
   36.1150   29.5840   40.6600 P   0  0  2  0  0  0  0  0  0  0  0  0
   35.5830   30.9950   41.4000 O   0  0  0  0  0  0  0  0  0  0  0  0
   34.9690   31.5320   40.8230 H   0  0  0  0  0  0  0  0  0  0  0  0
   36.1630   28.3040   41.7620 O   0  0  0  0  0  0  0  0  0  0  0  0
   38.3630   24.1930   43.1630 H   0  0  0  0  0  0  0  0  0  0  0  0
   38.3720   24.9260   42.4340 N   0  0  0  0  0  0  0  0  0  0  0  0
   37.0700   25.1060   41.8220 C   0  0  0  0  0  2  0  0  0  0  0  0
   37.0950   26.3250   40.9330 C   0  0  0  0  0  2  0  0  0  0  0  0
   37.3330   27.5950   41.7240 C   0  0  0  0  0  3  0  0  0  0  0  0
   37.8400   27.1970   43.0870 C   0  0  0  0  0  2  0  0  0  0  0  0
   38.9600   26.1820   42.8440 C   0  0  0  0  0  2  0  0  0  0  0  0
  1 15  1  0  0  0  0
  2  1  1  0  0  0  0
  3  2  1  0  0  0  0
  4  2  1  0  0  0  0
  5  6  1  0  0  0  0
  6 12  1  0  0  0  0
  6  7  2  0  0  0  0
  7  2  1  0  0  0  0
  8  7  1  0  0  0  0
  9  8  2  0  0  0  0
 10  9  1  0  0  0  0
 10  5  2  0  0  0  0
 11  5  1  0  0  0  0
 13  9  1  0  0  0  0
 15 14  2  6  0  0  0
 15 16  1  0  0  0  0
 15 18  1  0  0  0  0
 17 16  1  0  0  0  0
 20 25  1  0  0  0  0
 20 19  1  0  0  0  0
 21 20  1  0  0  0  0
 22 23  1  0  0  0  0
 22 21  1  0  0  0  0
 23 18  1  0  0  0  0
 23 24  1  0  0  0  0
 25 24  1  0  0  0  0
M  END
>  <minimizedAffinity>
-4.39128256

$$$$

 OpenBabel03252509323D

 25 26  0  0  0  0  0  0  0  0999 V2000
   36.9850   29.2220   39.9260 O   0  0  0  0  0  0  0  0  0  0  0  0
   35.6940   28.6810   39.9440 C   0  0  0  0  0  0  0  0  0  0  0  0
   35.7010   27.5840   40.1960 H   0  0  0  0  0  0  0  0  0  0  0  0
   35.0490   29.1580   40.7210 H   0  0  0  0  0  0  0  0  0  0  0  0
   35.1680   28.9860   36.2700 C   0  0  0  0  0  0  0  0  0  0  0  0
   35.8110   28.8570   37.5130 C   0  0  0  0  0  0  0  0  0  0  0  0
   35.0420   28.8140   38.6540 C   0  0  0  0  0  0  0  0  0  0  0  0
   33.6750   28.8990   38.5250 N   0  0  0  0  0  0  0  0  0  0  0  0
   33.0890   29.0230   37.3080 C   0  0  0  0  0  0  0  0  0  0  0  0
   33.8220   29.0650   36.2020 N   0  0  0  0  0  0  0  0  0  0  0  0
   35.7640   29.0220   35.3560 H   0  0  0  0  0  0  0  0  0  0  0  0
   36.8870   28.8010   37.4770 H   0  0  0  0  0  0  0  0  0  0  0  0
   32.0130   29.0900   37.2020 H   0  0  0  0  0  0  0  0  0  0  0  0
   37.5830   29.5840   42.4430 O   0  0  0  0  0  0  0  0  0  0  0  0
   37.0800   30.3120   41.2240 P   0  0  2  0  0  0  0  0  0  0  0  0
   35.5560   30.9880   41.4250 O   0  0  0  0  0  0  0  0  0  0  0  0
   35.0520   30.5990   42.1950 H   0  0  0  0  0  0  0  0  0  0  0  0
   38.2150   31.4920   40.8070 O   0  0  0  0  0  0  0  0  0  0  0  0
   40.3050   33.5720   36.9330 H   0  0  0  0  0  0  0  0  0  0  0  0
   40.3010   32.7110   37.5040 N   0  0  0  0  0  0  0  0  0  0  0  0
   40.5030   32.9870   38.9130 C   0  0  0  0  0  2  0  0  0  0  0  0
   40.2690   31.7290   39.7130 C   0  0  0  0  0  2  0  0  0  0  0  0
   38.8340   31.2540   39.6090 C   0  0  0  0  0  3  0  0  0  0  0  0
   38.1960   31.9740   38.4480 C   0  0  0  0  0  2  0  0  0  0  0  0
   39.1720   31.8380   37.2760 C   0  0  0  0  0  2  0  0  0  0  0  0
  1  2  1  0  0  0  0
  1 15  1  0  0  0  0
  2  3  1  0  0  0  0
  2  4  1  0  0  0  0
  5  6  1  0  0  0  0
  6  7  2  0  0  0  0
  7  2  1  0  0  0  0
  8  7  1  0  0  0  0
  9  8  2  0  0  0  0
 10  5  2  0  0  0  0
 10  9  1  0  0  0  0
 11  5  1  0  0  0  0
 12  6  1  0  0  0  0
 13  9  1  0  0  0  0
 15 16  1  0  0  0  0
 15 14  2  1  0  0  0
 16 17  1  0  0  0  0
 18 15  1  0  0  0  0
 19 20  1  0  0  0  0
 20 21  1  0  0  0  0
 21 22  1  0  0  0  0
 23 22  1  0  0  0  0
 23 18  1  0  0  0  0
 24 23  1  0  0  0  0
 25 20  1  0  0  0  0
 25 24  1  0  0  0  0
M  END
>  <minimizedAffinity>
-4.32239723

$$$$
