
 OpenBabel03242516473D

 40 44  0  0  1  0  0  0  0  0999 V2000
   37.3380   29.6110   41.9700 C   0  0  0  0  0  0  0  0  0  0  0  0
   36.1760   29.3400   41.3380 N   0  0  0  0  0  0  0  0  0  0  0  0
   35.9860   30.1830   40.3170 C   0  0  0  0  0  0  0  0  0  0  0  0
   37.0610   31.0140   40.3020 N   0  0  0  0  0  0  0  0  0  0  0  0
   37.8750   30.6880   41.2800 N   0  0  0  0  0  0  0  0  0  0  0  0
   35.1400   30.2120   39.6220 H   0  0  0  0  0  0  0  0  0  0  0  0
   38.6450   31.0340   37.6390 O   0  0  0  0  0  0  0  0  0  0  0  0
   38.5500   31.8760   38.5850 C   0  0  0  0  0  0  0  0  0  0  0  0
   37.3180   32.1030   39.3750 C   0  0  2  0  0  0  0  0  0  0  0  0
   37.6160   33.3890   40.1210 C   0  0  0  0  0  0  0  0  0  0  0  0
   39.1140   33.2530   40.3800 C   0  0  0  0  0  0  0  0  0  0  0  0
   39.5720   32.7630   39.0880 N   0  0  0  0  0  0  0  0  0  0  0  0
   36.4170   32.2420   38.7210 H   0  0  0  0  0  0  0  0  0  0  0  0
   37.1270   33.3290   41.1110 H   0  0  0  0  0  0  0  0  0  0  0  0
   37.3840   34.2830   39.5490 H   0  0  0  0  0  0  0  0  0  0  0  0
   39.3140   32.5780   41.2100 H   0  0  0  0  0  0  0  0  0  0  0  0
   39.5190   34.2920   40.5110 H   0  0  0  0  0  0  0  0  0  0  0  0
   41.9970   33.6430   35.9750 H   0  0  0  0  0  0  0  0  0  0  0  0
   42.6610   33.4720   36.7440 N   0  0  0  0  0  0  0  0  0  0  0  0
   42.6100   34.4700   37.7730 C   0  0  0  0  0  2  0  0  0  0  0  0
   41.4470   34.2990   38.7130 C   0  0  0  0  0  2  0  0  0  0  0  0
   40.7590   33.0030   38.3210 C   0  0  0  0  0  3  0  0  0  0  0  0
   41.7920   31.9180   38.3960 C   0  0  0  0  0  2  0  0  0  0  0  0
   42.7230   32.1230   37.2200 C   0  0  0  0  0  2  0  0  0  0  0  0
   38.4800   27.5720   43.1730 C   0  0  1  0  0  0  0  0  0  0  0  0
   37.9870   28.9760   43.1230 C   0  0  2  0  0  0  0  0  0  0  0  0
   37.2430   27.9840   43.8670 C   0  0  0  0  0  0  0  0  0  0  0  0
   39.4100   27.4470   43.7670 H   0  0  0  0  0  0  0  0  0  0  0  0
   38.5680   29.7370   43.7260 H   0  0  0  0  0  0  0  0  0  0  0  0
   37.2200   28.0400   44.9940 H   0  0  0  0  0  0  0  0  0  0  0  0
   36.2590   27.6440   43.4770 H   0  0  0  0  0  0  0  0  0  0  0  0
   39.5130   26.6850   41.0950 C   0  0  0  0  0  0  0  0  0  0  0  0
   38.4480   26.6880   41.9940 C   0  0  0  0  0  0  0  0  0  0  0  0
   37.4120   25.8280   41.7210 C   0  0  0  0  0  0  0  0  0  0  0  0
   37.4910   25.0440   40.6160 N   0  0  0  0  0  0  0  0  0  0  0  0
   38.5170   25.0600   39.7760 C   0  0  0  0  0  0  0  0  0  0  0  0
   39.5340   25.8980   40.0340 N   0  0  0  0  0  0  0  0  0  0  0  0
   40.3780   27.3200   41.2110 H   0  0  0  0  0  0  0  0  0  0  0  0
   36.5550   25.7720   42.3670 H   0  0  0  0  0  0  0  0  0  0  0  0
   38.4180   24.3710   38.9450 H   0  0  0  0  0  0  0  0  0  0  0  0
  1 26  1  0  0  0  0
  2  1  1  0  0  0  0
  3  2  2  0  0  0  0
  4  3  1  0  0  0  0
  4  5  1  0  0  0  0
  5  1  2  0  0  0  0
  6  3  1  0  0  0  0
  7  8  2  0  0  0  0
  8 12  1  0  0  0  0
  8  9  1  0  0  0  0
  9 13  1  6  0  0  0
  9 10  1  0  0  0  0
  9  4  1  0  0  0  0
 10 11  1  0  0  0  0
 10 14  1  0  0  0  0
 11 17  1  0  0  0  0
 11 16  1  0  0  0  0
 12 11  1  0  0  0  0
 15 10  1  0  0  0  0
 18 19  1  0  0  0  0
 19 24  1  0  0  0  0
 19 20  1  0  0  0  0
 20 21  1  0  0  0  0
 22 23  1  0  0  0  0
 22 21  1  0  0  0  0
 22 12  1  0  0  0  0
 24 23  1  0  0  0  0
 25 28  1  1  0  0  0
 25 27  1  0  0  0  0
 26 25  1  0  0  0  0
 26 29  1  1  0  0  0
 26 27  1  0  0  0  0
 27 30  1  0  0  0  0
 31 27  1  0  0  0  0
 32 38  1  0  0  0  0
 32 33  1  0  0  0  0
 33 25  1  0  0  0  0
 34 33  2  0  0  0  0
 34 39  1  0  0  0  0
 35 34  1  0  0  0  0
 36 37  1  0  0  0  0
 36 35  2  0  0  0  0
 37 32  2  0  0  0  0
 40 36  1  0  0  0  0
M  END
>  <minimizedAffinity>
-6.47601795

$$$$

 OpenBabel03242516473D

 40 44  0  0  1  0  0  0  0  0999 V2000
   36.4790   28.7850   40.1270 C   0  0  0  0  0  0  0  0  0  0  0  0
   36.1270   29.4560   41.2440 N   0  0  0  0  0  0  0  0  0  0  0  0
   36.2990   30.7730   41.0770 C   0  0  0  0  0  0  0  0  0  0  0  0
   36.7750   30.9390   39.8160 N   0  0  0  0  0  0  0  0  0  0  0  0
   36.8890   29.7650   39.2360 N   0  0  0  0  0  0  0  0  0  0  0  0
   36.1020   31.5700   41.8010 H   0  0  0  0  0  0  0  0  0  0  0  0
   38.3500   31.4550   37.1980 O   0  0  0  0  0  0  0  0  0  0  0  0
   38.3270   32.0580   38.3160 C   0  0  0  0  0  0  0  0  0  0  0  0
   37.1190   32.1910   39.1620 C   0  0  2  0  0  0  0  0  0  0  0  0
   37.5220   33.2390   40.1810 C   0  0  0  0  0  0  0  0  0  0  0  0
   39.0050   32.9290   40.3690 C   0  0  0  0  0  0  0  0  0  0  0  0
   39.4180   32.7200   38.9890 N   0  0  0  0  0  0  0  0  0  0  0  0
   36.2310   32.5500   38.5770 H   0  0  0  0  0  0  0  0  0  0  0  0
   37.0320   32.9880   41.1390 H   0  0  0  0  0  0  0  0  0  0  0  0
   37.3630   34.2570   39.8370 H   0  0  0  0  0  0  0  0  0  0  0  0
   39.1510   32.0650   41.0140 H   0  0  0  0  0  0  0  0  0  0  0  0
   39.4930   33.8740   40.7290 H   0  0  0  0  0  0  0  0  0  0  0  0
   41.8990   33.9510   36.0440 H   0  0  0  0  0  0  0  0  0  0  0  0
   42.5500   33.6750   36.7940 N   0  0  0  0  0  0  0  0  0  0  0  0
   42.4960   34.5360   37.9400 C   0  0  0  0  0  2  0  0  0  0  0  0
   41.3180   34.2640   38.8350 C   0  0  0  0  0  2  0  0  0  0  0  0
   40.6190   33.0370   38.2740 C   0  0  0  0  0  3  0  0  0  0  0  0
   41.6380   31.9370   38.2250 C   0  0  0  0  0  2  0  0  0  0  0  0
   42.5890   32.2760   37.0960 C   0  0  0  0  0  2  0  0  0  0  0  0
   37.3610   26.3240   40.4080 C   0  0  1  0  0  0  0  0  0  0  0  0
   36.4630   27.3510   39.8110 C   0  0  2  0  0  0  0  0  0  0  0  0
   37.5510   26.8110   39.0260 C   0  0  0  0  0  0  0  0  0  0  0  0
   36.8700   25.3400   40.5650 H   0  0  0  0  0  0  0  0  0  0  0  0
   35.4190   27.0110   39.5380 H   0  0  0  0  0  0  0  0  0  0  0  0
   37.3200   26.1350   38.1530 H   0  0  0  0  0  0  0  0  0  0  0  0
   38.4210   27.4620   38.7910 H   0  0  0  0  0  0  0  0  0  0  0  0
   39.6390   26.9610   41.1650 C   0  0  0  0  0  0  0  0  0  0  0  0
   38.3180   26.6490   41.4800 C   0  0  0  0  0  0  0  0  0  0  0  0
   37.9800   26.6810   42.8120 C   0  0  0  0  0  0  0  0  0  0  0  0
   38.9360   27.0090   43.7180 N   0  0  0  0  0  0  0  0  0  0  0  0
   40.1870   27.3020   43.3920 C   0  0  0  0  0  0  0  0  0  0  0  0
   40.5270   27.2730   42.0930 N   0  0  0  0  0  0  0  0  0  0  0  0
   40.0140   26.9670   40.1540 H   0  0  0  0  0  0  0  0  0  0  0  0
   36.9810   26.4520   43.1350 H   0  0  0  0  0  0  0  0  0  0  0  0
   40.8210   27.5410   44.2390 H   0  0  0  0  0  0  0  0  0  0  0  0
  1  2  1  0  0  0  0
  3  2  2  0  0  0  0
  3  6  1  0  0  0  0
  4  3  1  0  0  0  0
  5  4  1  0  0  0  0
  5  1  2  0  0  0  0
  7  8  2  0  0  0  0
  8 12  1  0  0  0  0
  8  9  1  0  0  0  0
  9 13  1  6  0  0  0
  9  4  1  0  0  0  0
  9 10  1  0  0  0  0
 10 11  1  0  0  0  0
 10 14  1  0  0  0  0
 11 17  1  0  0  0  0
 11 16  1  0  0  0  0
 12 11  1  0  0  0  0
 15 10  1  0  0  0  0
 18 19  1  0  0  0  0
 19 24  1  0  0  0  0
 19 20  1  0  0  0  0
 20 21  1  0  0  0  0
 22 21  1  0  0  0  0
 22 12  1  0  0  0  0
 23 22  1  0  0  0  0
 24 23  1  0  0  0  0
 25 28  1  1  0  0  0
 25 33  1  0  0  0  0
 26 29  1  6  0  0  0
 26  1  1  0  0  0  0
 26 25  1  0  0  0  0
 27 26  1  0  0  0  0
 27 25  1  0  0  0  0
 30 27  1  0  0  0  0
 31 27  1  0  0  0  0
 32 33  2  0  0  0  0
 32 37  1  0  0  0  0
 33 34  1  0  0  0  0
 34 39  1  0  0  0  0
 34 35  2  0  0  0  0
 36 35  1  0  0  0  0
 36 40  1  0  0  0  0
 37 36  2  0  0  0  0
 38 32  1  0  0  0  0
M  END
>  <minimizedAffinity>
-6.09725046

$$$$

 OpenBabel03242516473D

 40 44  0  0  1  0  0  0  0  0999 V2000
   36.8430   26.1120   41.2140 C   0  0  0  0  0  0  0  0  0  0  0  0
   36.6880   26.6640   39.9920 N   0  0  0  0  0  0  0  0  0  0  0  0
   36.7900   27.9960   40.0590 C   0  0  0  0  0  0  0  0  0  0  0  0
   37.0180   28.2960   41.3640 N   0  0  0  0  0  0  0  0  0  0  0  0
   37.0520   27.1860   42.0660 N   0  0  0  0  0  0  0  0  0  0  0  0
   36.7110   28.7160   39.2370 H   0  0  0  0  0  0  0  0  0  0  0  0
   36.7110   31.1000   40.0820 O   0  0  0  0  0  0  0  0  0  0  0  0
   37.5420   30.6280   40.9180 C   0  0  0  0  0  0  0  0  0  0  0  0
   37.2030   29.6160   41.9450 C   0  0  2  0  0  0  0  0  0  0  0  0
   38.4080   29.6380   42.8660 C   0  0  0  0  0  0  0  0  0  0  0  0
   39.5410   29.9110   41.8800 C   0  0  0  0  0  0  0  0  0  0  0  0
   38.9420   30.9500   41.0550 N   0  0  0  0  0  0  0  0  0  0  0  0
   36.2800   29.8910   42.5200 H   0  0  0  0  0  0  0  0  0  0  0  0
   38.5680   28.6100   43.2400 H   0  0  0  0  0  0  0  0  0  0  0  0
   38.3480   30.4010   43.6350 H   0  0  0  0  0  0  0  0  0  0  0  0
   39.8170   29.0110   41.3340 H   0  0  0  0  0  0  0  0  0  0  0  0
   40.3760   30.3810   42.4650 H   0  0  0  0  0  0  0  0  0  0  0  0
   39.7040   33.7800   38.2700 H   0  0  0  0  0  0  0  0  0  0  0  0
   40.2610   34.0950   39.0780 N   0  0  0  0  0  0  0  0  0  0  0  0
   39.4620   34.5340   40.1850 C   0  0  0  0  0  2  0  0  0  0  0  0
   38.8910   33.4010   40.9950 C   0  0  0  0  0  2  0  0  0  0  0  0
   39.4770   32.1210   40.4250 C   0  0  0  0  0  3  0  0  0  0  0  0
   40.9700   32.2530   40.4940 C   0  0  0  0  0  2  0  0  0  0  0  0
   41.3670   33.2560   39.4310 C   0  0  0  0  0  2  0  0  0  0  0  0
   38.0250   23.8670   41.9010 C   0  0  1  0  0  0  0  0  0  0  0  0
   36.8250   24.7120   41.6560 C   0  0  2  0  0  0  0  0  0  0  0  0
   37.1850   23.6880   40.7000 C   0  0  0  0  0  0  0  0  0  0  0  0
   37.9060   23.1580   42.7480 H   0  0  0  0  0  0  0  0  0  0  0  0
   35.9220   24.5080   42.3060 H   0  0  0  0  0  0  0  0  0  0  0  0
   36.5330   22.7720   40.5980 H   0  0  0  0  0  0  0  0  0  0  0  0
   37.5800   23.9920   39.7070 H   0  0  0  0  0  0  0  0  0  0  0  0
   40.1360   24.6160   42.9750 C   0  0  0  0  0  0  0  0  0  0  0  0
   39.3940   24.4060   41.8140 C   0  0  0  0  0  0  0  0  0  0  0  0
   40.0130   24.7110   40.6260 C   0  0  0  0  0  0  0  0  0  0  0  0
   41.2840   25.1860   40.6580 N   0  0  0  0  0  0  0  0  0  0  0  0
   41.9690   25.3770   41.7770 C   0  0  0  0  0  0  0  0  0  0  0  0
   41.3720   25.0820   42.9430 N   0  0  0  0  0  0  0  0  0  0  0  0
   39.7500   24.4110   43.9610 H   0  0  0  0  0  0  0  0  0  0  0  0
   39.5060   24.5770   39.6880 H   0  0  0  0  0  0  0  0  0  0  0  0
   42.9700   25.7630   41.6220 H   0  0  0  0  0  0  0  0  0  0  0  0
  1 26  1  0  0  0  0
  1  5  2  0  0  0  0
  2  3  2  0  0  0  0
  2  1  1  0  0  0  0
  3  4  1  0  0  0  0
  4  9  1  0  0  0  0
  4  5  1  0  0  0  0
  6  3  1  0  0  0  0
  7  8  2  0  0  0  0
  8 12  1  0  0  0  0
  8  9  1  0  0  0  0
  9 13  1  1  0  0  0
  9 10  1  0  0  0  0
 10 14  1  0  0  0  0
 10 15  1  0  0  0  0
 11 17  1  0  0  0  0
 11 10  1  0  0  0  0
 12 11  1  0  0  0  0
 16 11  1  0  0  0  0
 18 19  1  0  0  0  0
 19 24  1  0  0  0  0
 19 20  1  0  0  0  0
 20 21  1  0  0  0  0
 22 23  1  0  0  0  0
 22 21  1  0  0  0  0
 22 12  1  0  0  0  0
 24 23  1  0  0  0  0
 25 28  1  1  0  0  0
 26 25  1  0  0  0  0
 26 29  1  1  0  0  0
 27 26  1  0  0  0  0
 27 25  1  0  0  0  0
 30 27  1  0  0  0  0
 31 27  1  0  0  0  0
 32 38  1  0  0  0  0
 33 25  1  0  0  0  0
 33 32  2  0  0  0  0
 34 35  2  0  0  0  0
 34 33  1  0  0  0  0
 35 36  1  0  0  0  0
 36 37  2  0  0  0  0
 37 32  1  0  0  0  0
 39 34  1  0  0  0  0
 40 36  1  0  0  0  0
M  END
>  <minimizedAffinity>
-6.03121853

$$$$

 OpenBabel03242516473D

 40 44  0  0  1  0  0  0  0  0999 V2000
   37.1640   25.7320   39.2390 C   0  0  0  0  0  0  0  0  0  0  0  0
   38.3700   25.7520   38.6330 N   0  0  0  0  0  0  0  0  0  0  0  0
   38.5530   26.9060   37.9810 C   0  0  0  0  0  0  0  0  0  0  0  0
   37.4260   27.6390   38.1810 N   0  0  0  0  0  0  0  0  0  0  0  0
   36.5890   26.9550   38.9270 N   0  0  0  0  0  0  0  0  0  0  0  0
   39.4270   27.2150   37.3990 H   0  0  0  0  0  0  0  0  0  0  0  0
   39.3560   29.9580   37.4770 O   0  0  0  0  0  0  0  0  0  0  0  0
   38.2110   29.9350   38.0260 C   0  0  0  0  0  0  0  0  0  0  0  0
   37.1420   28.9720   37.6750 C   0  0  2  0  0  0  0  0  0  0  0  0
   35.9140   29.5550   38.3470 C   0  0  0  0  0  0  0  0  0  0  0  0
   36.5170   30.1620   39.6110 C   0  0  0  0  0  0  0  0  0  0  0  0
   37.7100   30.7970   39.0690 N   0  0  0  0  0  0  0  0  0  0  0  0
   36.9760   28.9110   36.5670 H   0  0  0  0  0  0  0  0  0  0  0  0
   35.2790   28.7150   38.6840 H   0  0  0  0  0  0  0  0  0  0  0  0
   35.4060   30.3010   37.7440 H   0  0  0  0  0  0  0  0  0  0  0  0
   36.7200   29.4000   40.3610 H   0  0  0  0  0  0  0  0  0  0  0  0
   35.8220   30.9780   39.9460 H   0  0  0  0  0  0  0  0  0  0  0  0
   39.8180   34.2180   38.6250 H   0  0  0  0  0  0  0  0  0  0  0  0
   39.6420   34.1850   39.6390 N   0  0  0  0  0  0  0  0  0  0  0  0
   38.2610   34.3650   39.9840 C   0  0  0  0  0  2  0  0  0  0  0  0
   37.4300   33.1280   39.7790 C   0  0  0  0  0  2  0  0  0  0  0  0
   38.3890   32.0200   39.3810 C   0  0  0  0  0  3  0  0  0  0  0  0
   39.4140   31.9150   40.4720 C   0  0  0  0  0  2  0  0  0  0  0  0
   40.3050   33.1330   40.3500 C   0  0  0  0  0  2  0  0  0  0  0  0
   36.7610   24.4860   41.5190 C   0  0  1  0  0  0  0  0  0  0  0  0
   36.5120   24.7120   40.0690 C   0  0  2  0  0  0  0  0  0  0  0  0
   37.2920   23.5690   40.4900 C   0  0  0  0  0  0  0  0  0  0  0  0
   35.8550   24.1860   42.0860 H   0  0  0  0  0  0  0  0  0  0  0  0
   35.4630   24.5040   39.6990 H   0  0  0  0  0  0  0  0  0  0  0  0
   36.8610   22.5330   40.3800 H   0  0  0  0  0  0  0  0  0  0  0  0
   38.3850   23.5570   40.2810 H   0  0  0  0  0  0  0  0  0  0  0  0
   38.9530   24.9640   42.5850 C   0  0  0  0  0  0  0  0  0  0  0  0
   37.6470   25.3620   42.3060 C   0  0  0  0  0  0  0  0  0  0  0  0
   37.2650   26.5920   42.7860 C   0  0  0  0  0  0  0  0  0  0  0  0
   38.1660   27.3260   43.4860 N   0  0  0  0  0  0  0  0  0  0  0  0
   39.4040   26.9240   43.7380 C   0  0  0  0  0  0  0  0  0  0  0  0
   39.7870   25.7230   43.2740 N   0  0  0  0  0  0  0  0  0  0  0  0
   39.3590   24.0190   42.2580 H   0  0  0  0  0  0  0  0  0  0  0  0
   36.2740   26.9690   42.6120 H   0  0  0  0  0  0  0  0  0  0  0  0
   39.9920   27.6320   44.3110 H   0  0  0  0  0  0  0  0  0  0  0  0
  1 26  1  0  0  0  0
  2  1  1  0  0  0  0
  3  4  1  0  0  0  0
  3  2  2  0  0  0  0
  4  5  1  0  0  0  0
  5  1  2  0  0  0  0
  6  3  1  0  0  0  0
  7  8  2  0  0  0  0
  8 12  1  0  0  0  0
  9 13  1  6  0  0  0
  9  8  1  0  0  0  0
  9  4  1  0  0  0  0
  9 10  1  0  0  0  0
 10 14  1  0  0  0  0
 10 11  1  0  0  0  0
 11 17  1  0  0  0  0
 11 16  1  0  0  0  0
 12 22  1  0  0  0  0
 12 11  1  0  0  0  0
 15 10  1  0  0  0  0
 18 19  1  0  0  0  0
 19 20  1  0  0  0  0
 19 24  1  0  0  0  0
 21 20  1  0  0  0  0
 22 21  1  0  0  0  0
 22 23  1  0  0  0  0
 24 23  1  0  0  0  0
 25 28  1  1  0  0  0
 25 33  1  0  0  0  0
 26 29  1  6  0  0  0
 26 27  1  0  0  0  0
 26 25  1  0  0  0  0
 27 25  1  0  0  0  0
 30 27  1  0  0  0  0
 31 27  1  0  0  0  0
 32 37  1  0  0  0  0
 33 32  2  0  0  0  0
 33 34  1  0  0  0  0
 34 35  2  0  0  0  0
 35 36  1  0  0  0  0
 36 40  1  0  0  0  0
 37 36  2  0  0  0  0
 38 32  1  0  0  0  0
 39 34  1  0  0  0  0
M  END
>  <minimizedAffinity>
-5.78909492

$$$$

 OpenBabel03242516473D

 40 44  0  0  1  0  0  0  0  0999 V2000
   36.6510   30.5070   39.8340 C   0  0  0  0  0  0  0  0  0  0  0  0
   35.6620   29.6320   40.1170 N   0  0  0  0  0  0  0  0  0  0  0  0
   35.9320   28.9620   41.2440 C   0  0  0  0  0  0  0  0  0  0  0  0
   37.1290   29.4280   41.6870 N   0  0  0  0  0  0  0  0  0  0  0  0
   37.5710   30.3470   40.8590 N   0  0  0  0  0  0  0  0  0  0  0  0
   35.3220   28.1910   41.7260 H   0  0  0  0  0  0  0  0  0  0  0  0
   40.1760   29.2660   42.2220 O   0  0  0  0  0  0  0  0  0  0  0  0
   39.2070   28.5170   42.5590 C   0  0  0  0  0  0  0  0  0  0  0  0
   37.8490   29.0110   42.8790 C   0  0  2  0  0  0  0  0  0  0  0  0
   37.1830   27.8090   43.5200 C   0  0  0  0  0  0  0  0  0  0  0  0
   37.8120   26.6590   42.7370 C   0  0  0  0  0  0  0  0  0  0  0  0
   39.2040   27.0810   42.7000 N   0  0  0  0  0  0  0  0  0  0  0  0
   37.8710   29.8660   43.6060 H   0  0  0  0  0  0  0  0  0  0  0  0
   36.1140   27.8220   43.2400 H   0  0  0  0  0  0  0  0  0  0  0  0
   37.3770   27.7260   44.5850 H   0  0  0  0  0  0  0  0  0  0  0  0
   37.3520   26.5480   41.7570 H   0  0  0  0  0  0  0  0  0  0  0  0
   37.7510   25.7480   43.3910 H   0  0  0  0  0  0  0  0  0  0  0  0
   41.8620   24.1070   43.3600 H   0  0  0  0  0  0  0  0  0  0  0  0
   42.4540   24.8730   43.0070 N   0  0  0  0  0  0  0  0  0  0  0  0
   42.2230   25.1830   41.6260 C   0  0  0  0  0  2  0  0  0  0  0  0
   40.9870   26.0100   41.4000 C   0  0  0  0  0  2  0  0  0  0  0  0
   40.4420   26.3620   42.7730 C   0  0  0  0  0  3  0  0  0  0  0  0
   41.5410   27.0650   43.5130 C   0  0  0  0  0  2  0  0  0  0  0  0
   42.5700   26.0120   43.8670 C   0  0  0  0  0  2  0  0  0  0  0  0
   38.1150   31.9480   38.1950 C   0  0  1  0  0  0  0  0  0  0  0  0
   36.8150   31.4610   38.7310 C   0  0  2  0  0  0  0  0  0  0  0  0
   37.2590   32.8010   39.0450 C   0  0  0  0  0  0  0  0  0  0  0  0
   38.1110   32.1130   37.0970 H   0  0  0  0  0  0  0  0  0  0  0  0
   35.9660   31.3660   37.9880 H   0  0  0  0  0  0  0  0  0  0  0  0
   36.7180   33.6830   38.5960 H   0  0  0  0  0  0  0  0  0  0  0  0
   37.5800   33.0330   40.0840 H   0  0  0  0  0  0  0  0  0  0  0  0
   40.1090   32.1060   39.6680 C   0  0  0  0  0  0  0  0  0  0  0  0
   39.4060   31.4250   38.6760 C   0  0  0  0  0  0  0  0  0  0  0  0
   39.9740   30.2640   38.2090 C   0  0  0  0  0  0  0  0  0  0  0  0
   41.1590   29.8630   38.7330 N   0  0  0  0  0  0  0  0  0  0  0  0
   41.8090   30.5290   39.6770 C   0  0  0  0  0  0  0  0  0  0  0  0
   41.2620   31.6650   40.1400 N   0  0  0  0  0  0  0  0  0  0  0  0
   39.7580   33.0260   40.1070 H   0  0  0  0  0  0  0  0  0  0  0  0
   39.4930   29.6820   37.4440 H   0  0  0  0  0  0  0  0  0  0  0  0
   42.7420   30.0690   39.9820 H   0  0  0  0  0  0  0  0  0  0  0  0
  1  2  1  0  0  0  0
  1  5  2  0  0  0  0
  2  3  2  0  0  0  0
  3  4  1  0  0  0  0
  3  6  1  0  0  0  0
  4  9  1  0  0  0  0
  5  4  1  0  0  0  0
  7  8  2  0  0  0  0
  8 12  1  0  0  0  0
  8  9  1  0  0  0  0
  9 10  1  0  0  0  0
  9 13  1  1  0  0  0
 10 15  1  0  0  0  0
 11 17  1  0  0  0  0
 11 10  1  0  0  0  0
 12 11  1  0  0  0  0
 12 22  1  0  0  0  0
 14 10  1  0  0  0  0
 16 11  1  0  0  0  0
 19 18  1  0  0  0  0
 19 24  1  0  0  0  0
 20 19  1  0  0  0  0
 21 20  1  0  0  0  0
 21 22  1  0  0  0  0
 22 23  1  0  0  0  0
 23 24  1  0  0  0  0
 25 28  1  6  0  0  0
 25 33  1  0  0  0  0
 25 26  1  0  0  0  0
 25 27  1  0  0  0  0
 26 29  1  6  0  0  0
 26 27  1  0  0  0  0
 26  1  1  0  0  0  0
 27 31  1  0  0  0  0
 30 27  1  0  0  0  0
 32 38  1  0  0  0  0
 32 37  1  0  0  0  0
 33 32  2  0  0  0  0
 34 33  1  0  0  0  0
 34 35  2  0  0  0  0
 35 36  1  0  0  0  0
 36 40  1  0  0  0  0
 36 37  2  0  0  0  0
 39 34  1  0  0  0  0
M  END
>  <minimizedAffinity>
-5.78350353

$$$$

 OpenBabel03242516473D

 40 44  0  0  1  0  0  0  0  0999 V2000
   37.6240   32.8670   39.6510 C   0  0  0  0  0  0  0  0  0  0  0  0
   37.2670   32.1830   38.5420 N   0  0  0  0  0  0  0  0  0  0  0  0
   36.6620   31.0360   38.8700 C   0  0  0  0  0  0  0  0  0  0  0  0
   36.6340   30.9920   40.2280 N   0  0  0  0  0  0  0  0  0  0  0  0
   37.2040   32.0740   40.7080 N   0  0  0  0  0  0  0  0  0  0  0  0
   36.2620   30.2740   38.1930 H   0  0  0  0  0  0  0  0  0  0  0  0
   37.9000   29.4430   42.5930 O   0  0  0  0  0  0  0  0  0  0  0  0
   37.1310   29.0830   41.6480 C   0  0  0  0  0  0  0  0  0  0  0  0
   36.0760   29.9420   41.0640 C   0  0  2  0  0  0  0  0  0  0  0  0
   35.2560   28.9710   40.2370 C   0  0  0  0  0  0  0  0  0  0  0  0
   36.3310   28.0070   39.7420 C   0  0  0  0  0  0  0  0  0  0  0  0
   37.1100   27.8170   40.9570 N   0  0  0  0  0  0  0  0  0  0  0  0
   35.4300   30.4120   41.8510 H   0  0  0  0  0  0  0  0  0  0  0  0
   34.8920   29.5100   39.3430 H   0  0  0  0  0  0  0  0  0  0  0  0
   34.4880   28.4600   40.8090 H   0  0  0  0  0  0  0  0  0  0  0  0
   36.8940   28.4320   38.9130 H   0  0  0  0  0  0  0  0  0  0  0  0
   35.8180   27.0350   39.5120 H   0  0  0  0  0  0  0  0  0  0  0  0
   38.7060   25.2610   43.6520 H   0  0  0  0  0  0  0  0  0  0  0  0
   38.9210   24.8100   42.7500 N   0  0  0  0  0  0  0  0  0  0  0  0
   37.7600   24.3210   42.0660 C   0  0  0  0  0  2  0  0  0  0  0  0
   36.9830   25.4020   41.3630 C   0  0  0  0  0  2  0  0  0  0  0  0
   37.7870   26.6820   41.5120 C   0  0  0  0  0  3  0  0  0  0  0  0
   39.1470   26.4130   40.9400 C   0  0  0  0  0  2  0  0  0  0  0  0
   39.8590   25.5050   41.9200 C   0  0  0  0  0  2  0  0  0  0  0  0
   39.7680   34.3790   39.8100 C   0  0  1  0  0  0  0  0  0  0  0  0
   38.2960   34.1610   39.8180 C   0  0  2  0  0  0  0  0  0  0  0  0
   38.9870   34.4190   41.0620 C   0  0  0  0  0  0  0  0  0  0  0  0
   40.0740   35.3380   39.3400 H   0  0  0  0  0  0  0  0  0  0  0  0
   37.6590   35.0000   39.4050 H   0  0  0  0  0  0  0  0  0  0  0  0
   38.8210   35.4000   41.5940 H   0  0  0  0  0  0  0  0  0  0  0  0
   39.0940   33.5930   41.8000 H   0  0  0  0  0  0  0  0  0  0  0  0
   41.1150   33.0330   38.2140 C   0  0  0  0  0  0  0  0  0  0  0  0
   40.7190   33.2900   39.5260 C   0  0  0  0  0  0  0  0  0  0  0  0
   41.2730   32.4950   40.5000 C   0  0  0  0  0  0  0  0  0  0  0  0
   42.1530   31.5300   40.1310 N   0  0  0  0  0  0  0  0  0  0  0  0
   42.5130   31.3060   38.8750 C   0  0  0  0  0  0  0  0  0  0  0  0
   41.9770   32.0770   37.9150 N   0  0  0  0  0  0  0  0  0  0  0  0
   40.7440   33.5950   37.3710 H   0  0  0  0  0  0  0  0  0  0  0  0
   41.0180   32.6300   41.5360 H   0  0  0  0  0  0  0  0  0  0  0  0
   43.2250   30.4970   38.7560 H   0  0  0  0  0  0  0  0  0  0  0  0
  1 26  1  0  0  0  0
  1  5  2  0  0  0  0
  2  3  2  0  0  0  0
  2  1  1  0  0  0  0
  3  4  1  0  0  0  0
  4  5  1  0  0  0  0
  4  9  1  0  0  0  0
  6  3  1  0  0  0  0
  8  7  2  0  0  0  0
  9  8  1  0  0  0  0
  9 13  1  1  0  0  0
 10 15  1  0  0  0  0
 10  9  1  0  0  0  0
 11 10  1  0  0  0  0
 11 12  1  0  0  0  0
 12 22  1  0  0  0  0
 12  8  1  0  0  0  0
 14 10  1  0  0  0  0
 16 11  1  0  0  0  0
 17 11  1  0  0  0  0
 19 18  1  0  0  0  0
 20 19  1  0  0  0  0
 21 22  1  0  0  0  0
 21 20  1  0  0  0  0
 23 22  1  0  0  0  0
 23 24  1  0  0  0  0
 24 19  1  0  0  0  0
 25 28  1  6  0  0  0
 25 26  1  0  0  0  0
 25 27  1  0  0  0  0
 26 29  1  6  0  0  0
 26 27  1  0  0  0  0
 27 30  1  0  0  0  0
 27 31  1  0  0  0  0
 32 33  1  0  0  0  0
 33 25  1  0  0  0  0
 33 34  2  0  0  0  0
 34 39  1  0  0  0  0
 35 34  1  0  0  0  0
 36 35  2  0  0  0  0
 37 32  2  0  0  0  0
 37 36  1  0  0  0  0
 38 32  1  0  0  0  0
 40 36  1  0  0  0  0
M  END
>  <minimizedAffinity>
-5.77480555

$$$$

 OpenBabel03242516473D

 40 44  0  0  1  0  0  0  0  0999 V2000
   36.6600   30.4760   39.8400 C   0  0  0  0  0  0  0  0  0  0  0  0
   35.5840   29.6930   40.0670 N   0  0  0  0  0  0  0  0  0  0  0  0
   35.7600   28.9590   41.1720 C   0  0  0  0  0  0  0  0  0  0  0  0
   36.9850   29.2890   41.6590 N   0  0  0  0  0  0  0  0  0  0  0  0
   37.5340   30.1900   40.8770 N   0  0  0  0  0  0  0  0  0  0  0  0
   35.0660   28.2340   41.6110 H   0  0  0  0  0  0  0  0  0  0  0  0
   39.9850   29.1980   42.4260 O   0  0  0  0  0  0  0  0  0  0  0  0
   39.0350   28.3710   42.5880 C   0  0  0  0  0  0  0  0  0  0  0  0
   37.6300   28.7600   42.8490 C   0  0  2  0  0  0  0  0  0  0  0  0
   36.9840   27.4590   43.2830 C   0  0  0  0  0  0  0  0  0  0  0  0
   37.7330   26.4440   42.4240 C   0  0  0  0  0  0  0  0  0  0  0  0
   39.0990   26.9300   42.5550 N   0  0  0  0  0  0  0  0  0  0  0  0
   37.5490   29.5190   43.6720 H   0  0  0  0  0  0  0  0  0  0  0  0
   35.9400   27.4600   42.9170 H   0  0  0  0  0  0  0  0  0  0  0  0
   37.0970   27.2540   44.3430 H   0  0  0  0  0  0  0  0  0  0  0  0
   37.3590   26.4350   41.4020 H   0  0  0  0  0  0  0  0  0  0  0  0
   37.6720   25.4570   42.9560 H   0  0  0  0  0  0  0  0  0  0  0  0
   41.8550   24.0180   43.0770 H   0  0  0  0  0  0  0  0  0  0  0  0
   42.4310   24.8480   42.8700 N   0  0  0  0  0  0  0  0  0  0  0  0
   42.2930   25.3150   41.5210 C   0  0  0  0  0  2  0  0  0  0  0  0
   41.0340   26.1080   41.2920 C   0  0  0  0  0  2  0  0  0  0  0  0
   40.3650   26.2630   42.6470 C   0  0  0  0  0  3  0  0  0  0  0  0
   41.3630   26.9180   43.5560 C   0  0  0  0  0  2  0  0  0  0  0  0
   42.4160   25.8760   43.8670 C   0  0  0  0  0  2  0  0  0  0  0  0
   37.3280   31.1170   37.3800 C   0  0  1  0  0  0  0  0  0  0  0  0
   36.9440   31.4500   38.7790 C   0  0  2  0  0  0  0  0  0  0  0  0
   38.3160   31.6210   38.3550 C   0  0  0  0  0  0  0  0  0  0  0  0
   36.9160   31.8200   36.6250 H   0  0  0  0  0  0  0  0  0  0  0  0
   36.3350   32.3920   38.9240 H   0  0  0  0  0  0  0  0  0  0  0  0
   38.7370   32.6620   38.2470 H   0  0  0  0  0  0  0  0  0  0  0  0
   39.0930   30.9310   38.7520 H   0  0  0  0  0  0  0  0  0  0  0  0
   38.5370   28.9810   36.9970 C   0  0  0  0  0  0  0  0  0  0  0  0
   37.3660   29.7290   36.8870 C   0  0  0  0  0  0  0  0  0  0  0  0
   36.2850   29.0960   36.3220 C   0  0  0  0  0  0  0  0  0  0  0  0
   36.4230   27.8090   35.9170 N   0  0  0  0  0  0  0  0  0  0  0  0
   37.5490   27.1190   36.0330 C   0  0  0  0  0  0  0  0  0  0  0  0
   38.6120   27.7280   36.5830 N   0  0  0  0  0  0  0  0  0  0  0  0
   39.4460   29.3770   37.4230 H   0  0  0  0  0  0  0  0  0  0  0  0
   35.3460   29.6060   36.2020 H   0  0  0  0  0  0  0  0  0  0  0  0
   37.4870   26.1040   35.6580 H   0  0  0  0  0  0  0  0  0  0  0  0
  1  2  1  0  0  0  0
  1  5  2  0  0  0  0
  2  3  2  0  0  0  0
  3  6  1  0  0  0  0
  3  4  1  0  0  0  0
  4  9  1  0  0  0  0
  5  4  1  0  0  0  0
  7  8  2  0  0  0  0
  8  9  1  0  0  0  0
  9 10  1  0  0  0  0
  9 13  1  1  0  0  0
 10 15  1  0  0  0  0
 11 12  1  0  0  0  0
 11 17  1  0  0  0  0
 11 10  1  0  0  0  0
 12  8  1  0  0  0  0
 12 22  1  0  0  0  0
 14 10  1  0  0  0  0
 16 11  1  0  0  0  0
 19 18  1  0  0  0  0
 19 24  1  0  0  0  0
 20 19  1  0  0  0  0
 21 20  1  0  0  0  0
 21 22  1  0  0  0  0
 22 23  1  0  0  0  0
 23 24  1  0  0  0  0
 25 28  1  6  0  0  0
 25 27  1  0  0  0  0
 25 26  1  0  0  0  0
 26 29  1  1  0  0  0
 26  1  1  0  0  0  0
 27 31  1  0  0  0  0
 27 26  1  0  0  0  0
 30 27  1  0  0  0  0
 32 38  1  0  0  0  0
 33 32  1  0  0  0  0
 33 25  1  0  0  0  0
 34 33  2  0  0  0  0
 35 36  2  0  0  0  0
 35 34  1  0  0  0  0
 36 37  1  0  0  0  0
 37 32  2  0  0  0  0
 39 34  1  0  0  0  0
 40 36  1  0  0  0  0
M  END
>  <minimizedAffinity>
-5.75635386

$$$$

 OpenBabel03242516473D

 40 44  0  0  1  0  0  0  0  0999 V2000
   38.5740   24.6370   42.2840 C   0  0  0  0  0  0  0  0  0  0  0  0
   39.7220   24.3450   42.9310 N   0  0  0  0  0  0  0  0  0  0  0  0
   40.2760   25.4550   43.4330 C   0  0  0  0  0  0  0  0  0  0  0  0
   39.4520   26.4800   43.0930 N   0  0  0  0  0  0  0  0  0  0  0  0
   38.4340   26.0110   42.4080 N   0  0  0  0  0  0  0  0  0  0  0  0
   41.2050   25.5390   44.0060 H   0  0  0  0  0  0  0  0  0  0  0  0
   37.3490   28.7480   43.2820 O   0  0  0  0  0  0  0  0  0  0  0  0
   38.5380   28.7190   42.8350 C   0  0  0  0  0  0  0  0  0  0  0  0
   39.6210   27.8890   43.4110 C   0  0  2  0  0  0  0  0  0  0  0  0
   40.8700   28.4450   42.7570 C   0  0  0  0  0  0  0  0  0  0  0  0
   40.3490   28.8190   41.3710 C   0  0  0  0  0  0  0  0  0  0  0  0
   39.0830   29.4480   41.7160 N   0  0  0  0  0  0  0  0  0  0  0  0
   39.6920   28.0020   44.5250 H   0  0  0  0  0  0  0  0  0  0  0  0
   41.5750   27.6070   42.6030 H   0  0  0  0  0  0  0  0  0  0  0  0
   41.2840   29.3020   43.2780 H   0  0  0  0  0  0  0  0  0  0  0  0
   40.2530   27.9430   40.7330 H   0  0  0  0  0  0  0  0  0  0  0  0
   41.0280   29.6190   40.9720 H   0  0  0  0  0  0  0  0  0  0  0  0
   36.4370   32.4820   41.3450 H   0  0  0  0  0  0  0  0  0  0  0  0
   36.9600   32.5220   40.4580 N   0  0  0  0  0  0  0  0  0  0  0  0
   38.3260   32.9270   40.6200 C   0  0  0  0  0  2  0  0  0  0  0  0
   39.2190   31.8230   41.1200 C   0  0  0  0  0  2  0  0  0  0  0  0
   38.3700   30.5650   41.1690 C   0  0  0  0  0  3  0  0  0  0  0  0
   37.8230   30.3530   39.7880 C   0  0  0  0  0  2  0  0  0  0  0  0
   36.7630   31.4140   39.5730 C   0  0  0  0  0  2  0  0  0  0  0  0
   37.5700   23.5430   40.1140 C   0  0  1  0  0  0  0  0  0  0  0  0
   37.6110   23.7790   41.5830 C   0  0  2  0  0  0  0  0  0  0  0  0
   36.5830   24.4110   40.7870 C   0  0  0  0  0  0  0  0  0  0  0  0
   37.2730   22.5100   39.8360 H   0  0  0  0  0  0  0  0  0  0  0  0
   37.2880   22.9170   42.2420 H   0  0  0  0  0  0  0  0  0  0  0  0
   35.5120   24.0710   40.8930 H   0  0  0  0  0  0  0  0  0  0  0  0
   36.6240   25.5110   40.6280 H   0  0  0  0  0  0  0  0  0  0  0  0
   39.7020   23.3270   38.8570 C   0  0  0  0  0  0  0  0  0  0  0  0
   38.5910   24.0930   39.2040 C   0  0  0  0  0  0  0  0  0  0  0  0
   38.5110   25.3460   38.6460 C   0  0  0  0  0  0  0  0  0  0  0  0
   39.4980   25.7490   37.8060 N   0  0  0  0  0  0  0  0  0  0  0  0
   40.5450   25.0000   37.4910 C   0  0  0  0  0  0  0  0  0  0  0  0
   40.6330   23.7740   38.0320 N   0  0  0  0  0  0  0  0  0  0  0  0
   39.8670   22.3310   39.2360 H   0  0  0  0  0  0  0  0  0  0  0  0
   37.6840   25.9980   38.8650 H   0  0  0  0  0  0  0  0  0  0  0  0
   41.2400   25.4750   36.8080 H   0  0  0  0  0  0  0  0  0  0  0  0
  1  5  2  0  0  0  0
  1  2  1  0  0  0  0
  2  3  2  0  0  0  0
  3  6  1  0  0  0  0
  4  9  1  0  0  0  0
  4  3  1  0  0  0  0
  5  4  1  0  0  0  0
  8  7  2  0  0  0  0
  8  9  1  0  0  0  0
  9 13  1  1  0  0  0
 10 15  1  0  0  0  0
 10  9  1  0  0  0  0
 11 12  1  0  0  0  0
 11 10  1  0  0  0  0
 12  8  1  0  0  0  0
 14 10  1  0  0  0  0
 16 11  1  0  0  0  0
 17 11  1  0  0  0  0
 19 20  1  0  0  0  0
 19 18  1  0  0  0  0
 20 21  1  0  0  0  0
 21 22  1  0  0  0  0
 22 12  1  0  0  0  0
 23 22  1  0  0  0  0
 24 23  1  0  0  0  0
 24 19  1  0  0  0  0
 25 28  1  6  0  0  0
 25 27  1  0  0  0  0
 25 26  1  0  0  0  0
 26 29  1  1  0  0  0
 26  1  1  0  0  0  0
 27 30  1  0  0  0  0
 27 26  1  0  0  0  0
 31 27  1  0  0  0  0
 32 33  1  0  0  0  0
 32 38  1  0  0  0  0
 33 25  1  0  0  0  0
 34 39  1  0  0  0  0
 34 33  2  0  0  0  0
 35 34  1  0  0  0  0
 36 35  2  0  0  0  0
 36 37  1  0  0  0  0
 37 32  2  0  0  0  0
 40 36  1  0  0  0  0
M  END
>  <minimizedAffinity>
-5.66318798

$$$$

 OpenBabel03242516473D

 40 44  0  0  1  0  0  0  0  0999 V2000
   39.3830   28.1580   42.4310 C   0  0  0  0  0  0  0  0  0  0  0  0
   38.2730   28.6050   43.0560 N   0  0  0  0  0  0  0  0  0  0  0  0
   37.7140   29.6070   42.3680 C   0  0  0  0  0  0  0  0  0  0  0  0
   38.4960   29.8000   41.2730 N   0  0  0  0  0  0  0  0  0  0  0  0
   39.4940   28.9460   41.2960 N   0  0  0  0  0  0  0  0  0  0  0  0
   36.8090   30.1700   42.6200 H   0  0  0  0  0  0  0  0  0  0  0  0
   39.7990   29.9880   38.4690 O   0  0  0  0  0  0  0  0  0  0  0  0
   39.4840   30.8700   39.3270 C   0  0  0  0  0  0  0  0  0  0  0  0
   38.3030   30.7790   40.2160 C   0  0  2  0  0  0  0  0  0  0  0  0
   38.1910   32.1790   40.7880 C   0  0  0  0  0  0  0  0  0  0  0  0
   39.6590   32.5830   40.8980 C   0  0  0  0  0  0  0  0  0  0  0  0
   40.1710   32.1040   39.6220 N   0  0  0  0  0  0  0  0  0  0  0  0
   37.3680   30.5230   39.6510 H   0  0  0  0  0  0  0  0  0  0  0  0
   37.8190   32.0930   41.8260 H   0  0  0  0  0  0  0  0  0  0  0  0
   37.6310   32.8590   40.1550 H   0  0  0  0  0  0  0  0  0  0  0  0
   40.1320   32.1300   41.7670 H   0  0  0  0  0  0  0  0  0  0  0  0
   39.6910   33.7050   40.8760 H   0  0  0  0  0  0  0  0  0  0  0  0
   41.9610   33.2550   36.1850 H   0  0  0  0  0  0  0  0  0  0  0  0
   42.6750   33.4640   36.8980 N   0  0  0  0  0  0  0  0  0  0  0  0
   42.3060   34.5360   37.7770 C   0  0  0  0  0  2  0  0  0  0  0  0
   41.3310   34.1210   38.8460 C   0  0  0  0  0  2  0  0  0  0  0  0
   41.1510   32.6190   38.7110 C   0  0  0  0  0  3  0  0  0  0  0  0
   42.5140   32.0020   38.8310 C   0  0  0  0  0  2  0  0  0  0  0  0
   43.2510   32.3250   37.5480 C   0  0  0  0  0  2  0  0  0  0  0  0
   40.1380   25.6410   42.4800 C   0  0  1  0  0  0  0  0  0  0  0  0
   40.3260   27.0870   42.7760 C   0  0  2  0  0  0  0  0  0  0  0  0
   39.9710   26.1800   43.8450 C   0  0  0  0  0  0  0  0  0  0  0  0
   41.0800   25.1110   42.2260 H   0  0  0  0  0  0  0  0  0  0  0  0
   41.3900   27.4700   42.7650 H   0  0  0  0  0  0  0  0  0  0  0  0
   40.7310   25.9410   44.6430 H   0  0  0  0  0  0  0  0  0  0  0  0
   38.9520   26.2410   44.2870 H   0  0  0  0  0  0  0  0  0  0  0  0
   37.7820   24.8660   42.3340 C   0  0  0  0  0  0  0  0  0  0  0  0
   38.9910   25.1440   41.6990 C   0  0  0  0  0  0  0  0  0  0  0  0
   39.0300   24.9440   40.3400 C   0  0  0  0  0  0  0  0  0  0  0  0
   37.9100   24.4990   39.7160 N   0  0  0  0  0  0  0  0  0  0  0  0
   36.7720   24.2430   40.3430 C   0  0  0  0  0  0  0  0  0  0  0  0
   36.7230   24.4340   41.6720 N   0  0  0  0  0  0  0  0  0  0  0  0
   37.6380   24.9870   43.3970 H   0  0  0  0  0  0  0  0  0  0  0  0
   39.9260   25.1350   39.7780 H   0  0  0  0  0  0  0  0  0  0  0  0
   35.9770   23.8940   39.6940 H   0  0  0  0  0  0  0  0  0  0  0  0
  1 26  1  0  0  0  0
  1  2  1  0  0  0  0
  3  6  1  0  0  0  0
  3  2  2  0  0  0  0
  4  5  1  0  0  0  0
  4  3  1  0  0  0  0
  5  1  2  0  0  0  0
  7  8  2  0  0  0  0
  8 12  1  0  0  0  0
  8  9  1  0  0  0  0
  9 13  1  6  0  0  0
  9 10  1  0  0  0  0
  9  4  1  0  0  0  0
 10 11  1  0  0  0  0
 10 14  1  0  0  0  0
 11 16  1  0  0  0  0
 12 11  1  0  0  0  0
 15 10  1  0  0  0  0
 17 11  1  0  0  0  0
 18 19  1  0  0  0  0
 19 24  1  0  0  0  0
 19 20  1  0  0  0  0
 20 21  1  0  0  0  0
 22 23  1  0  0  0  0
 22 21  1  0  0  0  0
 22 12  1  0  0  0  0
 24 23  1  0  0  0  0
 25 28  1  6  0  0  0
 25 26  1  0  0  0  0
 25 27  1  0  0  0  0
 26 29  1  1  0  0  0
 26 27  1  0  0  0  0
 27 31  1  0  0  0  0
 27 30  1  0  0  0  0
 32 38  1  0  0  0  0
 33 32  1  0  0  0  0
 33 25  1  0  0  0  0
 34 33  2  0  0  0  0
 35 34  1  0  0  0  0
 35 36  2  0  0  0  0
 36 37  1  0  0  0  0
 37 32  2  0  0  0  0
 39 34  1  0  0  0  0
 40 36  1  0  0  0  0
M  END
>  <minimizedAffinity>
-5.6590476

$$$$
