
 OpenBabel03242518163D

 30 32  0  0  0  0  0  0  0  0999 V2000
   36.5250   28.2530   41.9910 C   0  0  0  0  0  0  0  0  0  0  0  0
   36.8050   27.4640   41.2590 H   0  0  0  0  0  0  0  0  0  0  0  0
   35.3920   28.2100   41.9780 H   0  0  0  0  0  0  0  0  0  0  0  0
   36.9180   29.5170   41.4880 C   0  0  0  0  0  0  0  0  0  0  0  0
   36.3070   30.5710   40.7720 C   0  0  0  0  0  0  0  0  0  0  0  0
   37.0080   31.6770   40.4260 C   0  0  0  0  0  0  0  0  0  0  0  0
   38.3800   31.7190   40.8200 C   0  0  0  0  0  0  0  0  0  0  0  0
   38.6700   30.1700   41.6900 S   0  0  0  0  0  0  0  0  0  0  0  0
   35.2710   30.3670   40.5610 H   0  0  0  0  0  0  0  0  0  0  0  0
   36.5580   32.4840   39.8830 H   0  0  0  0  0  0  0  0  0  0  0  0
   39.2390   32.6680   40.6010 O   0  0  0  0  0  0  0  0  0  0  0  0
   40.1000   33.4000   36.8680 H   0  0  0  0  0  0  0  0  0  0  0  0
   41.0410   33.0700   37.1440 N   0  0  0  0  0  0  0  0  0  0  0  0
   41.6910   33.9080   38.1320 C   0  0  0  0  0  2  0  0  0  0  0  0
   40.9720   33.7860   39.4600 C   0  0  0  0  0  2  0  0  0  0  0  0
   39.7770   32.8570   39.2990 C   0  0  0  0  0  3  0  0  0  0  0  0
   40.3340   31.5250   38.8430 C   0  0  0  0  0  2  0  0  0  0  0  0
   41.0490   31.6740   37.5350 C   0  0  0  0  0  2  0  0  0  0  0  0
   37.0300   27.8410   43.3130 C   0  0  0  0  0  0  0  0  0  0  0  0
   37.4740   28.6570   43.9180 H   0  0  0  0  0  0  0  0  0  0  0  0
   36.1610   27.4660   43.9280 H   0  0  0  0  0  0  0  0  0  0  0  0
   37.9940   26.7500   43.1750 C   0  0  0  0  0  0  0  0  0  0  0  0
   39.2310   26.7980   43.7840 C   0  0  0  0  0  0  0  0  0  0  0  0
   40.0950   25.7280   43.6080 C   0  0  0  0  0  0  0  0  0  0  0  0
   39.6830   24.6830   42.8440 N   0  0  0  0  0  0  0  0  0  0  0  0
   38.4650   24.6740   42.2660 C   0  0  0  0  0  0  0  0  0  0  0  0
   37.6410   25.6800   42.4260 N   0  0  0  0  0  0  0  0  0  0  0  0
   39.5140   27.6540   44.3850 H   0  0  0  0  0  0  0  0  0  0  0  0
   41.0630   25.7360   44.0690 H   0  0  0  0  0  0  0  0  0  0  0  0
   38.1900   23.8140   41.6660 H   0  0  0  0  0  0  0  0  0  0  0  0
  1 19  1  0  0  0  0
  2  1  1  0  0  0  0
  3  1  1  0  0  0  0
  4  8  1  0  0  0  0
  4  1  1  0  0  0  0
  5  4  2  0  0  0  0
  6  5  1  0  0  0  0
  6  7  2  0  0  0  0
  7  8  1  0  0  0  0
  9  5  1  0  0  0  0
 10  6  1  0  0  0  0
 11  7  1  0  0  0  0
 12 13  1  0  0  0  0
 13 18  1  0  0  0  0
 13 14  1  0  0  0  0
 14 15  1  0  0  0  0
 16 15  1  0  0  0  0
 16 11  1  0  0  0  0
 17 16  1  0  0  0  0
 18 17  1  0  0  0  0
 19 20  1  0  0  0  0
 19 21  1  0  0  0  0
 22 19  1  0  0  0  0
 22 23  1  0  0  0  0
 23 28  1  0  0  0  0
 24 23  2  0  0  0  0
 24 29  1  0  0  0  0
 25 24  1  0  0  0  0
 26 27  1  0  0  0  0
 26 25  2  0  0  0  0
 27 22  2  0  0  0  0
 30 26  1  0  0  0  0
M  END
>  <minimizedAffinity>
-5.36617231

$$$$

 OpenBabel03242518163D

 30 32  0  0  0  0  0  0  0  0999 V2000
   36.9210   25.3770   42.3890 C   0  0  0  0  0  0  0  0  0  0  0  0
   36.0650   25.3010   41.6830 H   0  0  0  0  0  0  0  0  0  0  0  0
   36.4440   25.1140   43.3840 H   0  0  0  0  0  0  0  0  0  0  0  0
   37.3530   26.7230   42.4570 C   0  0  0  0  0  0  0  0  0  0  0  0
   37.2400   27.7920   43.3750 C   0  0  0  0  0  0  0  0  0  0  0  0
   37.7840   29.0020   43.1050 C   0  0  0  0  0  0  0  0  0  0  0  0
   38.4690   29.1380   41.8600 C   0  0  0  0  0  0  0  0  0  0  0  0
   38.3360   27.5260   41.0690 S   0  0  0  0  0  0  0  0  0  0  0  0
   36.6920   27.5080   44.2580 H   0  0  0  0  0  0  0  0  0  0  0  0
   37.7060   29.8220   43.7910 H   0  0  0  0  0  0  0  0  0  0  0  0
   39.0620   30.1940   41.3920 O   0  0  0  0  0  0  0  0  0  0  0  0
   36.6030   33.1900   40.9550 H   0  0  0  0  0  0  0  0  0  0  0  0
   37.1980   33.4050   40.1370 N   0  0  0  0  0  0  0  0  0  0  0  0
   38.5670   33.7390   40.4780 C   0  0  0  0  0  2  0  0  0  0  0  0
   39.2790   32.5080   41.0020 C   0  0  0  0  0  2  0  0  0  0  0  0
   38.3020   31.3410   41.0370 C   0  0  0  0  0  3  0  0  0  0  0  0
   37.8240   31.1450   39.6140 C   0  0  0  0  0  2  0  0  0  0  0  0
   37.1350   32.3770   39.1160 C   0  0  0  0  0  2  0  0  0  0  0  0
   37.9060   24.3460   42.0150 C   0  0  0  0  0  0  0  0  0  0  0  0
   38.9120   24.7340   41.7570 H   0  0  0  0  0  0  0  0  0  0  0  0
   38.0760   23.6720   42.9040 H   0  0  0  0  0  0  0  0  0  0  0  0
   37.3980   23.5270   40.9150 C   0  0  0  0  0  0  0  0  0  0  0  0
   36.1770   23.7870   40.3260 C   0  0  0  0  0  0  0  0  0  0  0  0
   35.7580   22.9690   39.2900 C   0  0  0  0  0  0  0  0  0  0  0  0
   36.5680   21.9490   38.9020 N   0  0  0  0  0  0  0  0  0  0  0  0
   37.7540   21.7280   39.5030 C   0  0  0  0  0  0  0  0  0  0  0  0
   38.1590   22.4960   40.4840 N   0  0  0  0  0  0  0  0  0  0  0  0
   35.5670   24.6140   40.6710 H   0  0  0  0  0  0  0  0  0  0  0  0
   34.8150   23.1460   38.8120 H   0  0  0  0  0  0  0  0  0  0  0  0
   38.3580   20.9000   39.1530 H   0  0  0  0  0  0  0  0  0  0  0  0
  1  4  1  0  0  0  0
  1  3  1  0  0  0  0
  2  1  1  0  0  0  0
  4  5  2  0  0  0  0
  5  9  1  0  0  0  0
  6  5  1  0  0  0  0
  6 10  1  0  0  0  0
  7  6  2  0  0  0  0
  8  7  1  0  0  0  0
  8  4  1  0  0  0  0
 11  7  1  0  0  0  0
 13 14  1  0  0  0  0
 13 12  1  0  0  0  0
 14 15  1  0  0  0  0
 15 16  1  0  0  0  0
 16 11  1  0  0  0  0
 17 16  1  0  0  0  0
 18 17  1  0  0  0  0
 18 13  1  0  0  0  0
 19  1  1  0  0  0  0
 19 21  1  0  0  0  0
 20 19  1  0  0  0  0
 22 19  1  0  0  0  0
 23 28  1  0  0  0  0
 23 22  2  0  0  0  0
 24 23  1  0  0  0  0
 25 24  2  0  0  0  0
 25 26  1  0  0  0  0
 26 27  2  0  0  0  0
 27 22  1  0  0  0  0
 29 24  1  0  0  0  0
 30 26  1  0  0  0  0
M  END
>  <minimizedAffinity>
-5.20303059

$$$$

 OpenBabel03242518163D

 30 32  0  0  0  0  0  0  0  0999 V2000
   37.7170   30.4660   41.4330 C   0  0  0  0  0  0  0  0  0  0  0  0
   38.3380   30.4570   40.5110 H   0  0  0  0  0  0  0  0  0  0  0  0
   38.1980   31.2900   42.0470 H   0  0  0  0  0  0  0  0  0  0  0  0
   37.8950   29.2460   42.1290 C   0  0  0  0  0  0  0  0  0  0  0  0
   37.5950   28.7450   43.4160 C   0  0  0  0  0  0  0  0  0  0  0  0
   37.9330   27.4830   43.7690 C   0  0  0  0  0  0  0  0  0  0  0  0
   38.6010   26.6950   42.7840 C   0  0  0  0  0  0  0  0  0  0  0  0
   38.7450   27.7640   41.3420 S   0  0  0  0  0  0  0  0  0  0  0  0
   37.0910   29.4770   44.0250 H   0  0  0  0  0  0  0  0  0  0  0  0
   37.7130   27.0900   44.7420 H   0  0  0  0  0  0  0  0  0  0  0  0
   39.0170   25.4700   42.8960 O   0  0  0  0  0  0  0  0  0  0  0  0
   42.5570   24.1550   43.8720 H   0  0  0  0  0  0  0  0  0  0  0  0
   42.8700   25.0600   43.4820 N   0  0  0  0  0  0  0  0  0  0  0  0
   42.6070   25.2110   42.0640 C   0  0  0  0  0  2  0  0  0  0  0  0
   41.1140   25.3290   41.8300 C   0  0  0  0  0  2  0  0  0  0  0  0
   40.3870   25.2040   43.1620 C   0  0  0  0  0  3  0  0  0  0  0  0
   40.9040   26.3260   44.0350 C   0  0  0  0  0  2  0  0  0  0  0  0
   42.3820   26.1940   44.2420 C   0  0  0  0  0  2  0  0  0  0  0  0
   36.3480   30.8580   41.0510 C   0  0  0  0  0  0  0  0  0  0  0  0
   35.5800   30.6930   41.8330 H   0  0  0  0  0  0  0  0  0  0  0  0
   36.3330   31.9700   40.8600 H   0  0  0  0  0  0  0  0  0  0  0  0
   35.9480   30.1790   39.8180 C   0  0  0  0  0  0  0  0  0  0  0  0
   34.8940   29.2890   39.7930 C   0  0  0  0  0  0  0  0  0  0  0  0
   34.5720   28.6820   38.5900 C   0  0  0  0  0  0  0  0  0  0  0  0
   35.3100   28.9910   37.4910 N   0  0  0  0  0  0  0  0  0  0  0  0
   36.3330   29.8670   37.5570 C   0  0  0  0  0  0  0  0  0  0  0  0
   36.6450   30.4460   38.6900 N   0  0  0  0  0  0  0  0  0  0  0  0
   34.3360   29.0750   40.6970 H   0  0  0  0  0  0  0  0  0  0  0  0
   33.7590   27.9860   38.5380 H   0  0  0  0  0  0  0  0  0  0  0  0
   36.8860   30.0760   36.6490 H   0  0  0  0  0  0  0  0  0  0  0  0
  1  3  1  0  0  0  0
  1  4  1  0  0  0  0
  2  1  1  0  0  0  0
  4  5  2  0  0  0  0
  5  6  1  0  0  0  0
  5  9  1  0  0  0  0
  6 10  1  0  0  0  0
  7 11  1  0  0  0  0
  7  6  2  0  0  0  0
  8  4  1  0  0  0  0
  8  7  1  0  0  0  0
 11 16  1  0  0  0  0
 13 12  1  0  0  0  0
 13 18  1  0  0  0  0
 14 13  1  0  0  0  0
 15 14  1  0  0  0  0
 15 16  1  0  0  0  0
 16 17  1  0  0  0  0
 17 18  1  0  0  0  0
 19  1  1  0  0  0  0
 19 20  1  0  0  0  0
 21 19  1  0  0  0  0
 22 19  1  0  0  0  0
 23 22  1  0  0  0  0
 23 28  1  0  0  0  0
 24 23  2  0  0  0  0
 25 26  2  0  0  0  0
 25 24  1  0  0  0  0
 26 27  1  0  0  0  0
 27 22  2  0  0  0  0
 29 24  1  0  0  0  0
 30 26  1  0  0  0  0
M  END
>  <minimizedAffinity>
-5.16300154

$$$$

 OpenBabel03242518163D

 30 32  0  0  0  0  0  0  0  0999 V2000
   36.2390   30.4220   41.1930 C   0  0  0  0  0  0  0  0  0  0  0  0
   35.1970   30.8120   41.1890 H   0  0  0  0  0  0  0  0  0  0  0  0
   36.4270   30.2350   42.2960 H   0  0  0  0  0  0  0  0  0  0  0  0
   37.1210   31.4450   40.7690 C   0  0  0  0  0  0  0  0  0  0  0  0
   37.0260   32.6330   40.0090 C   0  0  0  0  0  0  0  0  0  0  0  0
   38.1170   33.3990   39.7740 C   0  0  0  0  0  0  0  0  0  0  0  0
   39.3530   32.9490   40.3290 C   0  0  0  0  0  0  0  0  0  0  0  0
   38.9540   31.4200   41.1930 S   0  0  0  0  0  0  0  0  0  0  0  0
   36.0190   32.8150   39.6710 H   0  0  0  0  0  0  0  0  0  0  0  0
   38.0600   34.3020   39.1990 H   0  0  0  0  0  0  0  0  0  0  0  0
   40.5180   33.5150   40.2350 O   0  0  0  0  0  0  0  0  0  0  0  0
   41.6050   34.4940   36.6200 H   0  0  0  0  0  0  0  0  0  0  0  0
   42.4130   33.8810   36.8250 N   0  0  0  0  0  0  0  0  0  0  0  0
   43.2550   34.3610   37.9040 C   0  0  0  0  0  2  0  0  0  0  0  0
   42.5090   34.2590   39.2190 C   0  0  0  0  0  2  0  0  0  0  0  0
   41.1070   33.7270   38.9600 C   0  0  0  0  0  3  0  0  0  0  0  0
   41.2800   32.3700   38.3110 C   0  0  0  0  0  2  0  0  0  0  0  0
   42.0290   32.4970   37.0200 C   0  0  0  0  0  2  0  0  0  0  0  0
   36.2460   29.1450   40.4570 C   0  0  0  0  0  0  0  0  0  0  0  0
   35.2490   28.7950   40.1210 H   0  0  0  0  0  0  0  0  0  0  0  0
   36.8390   29.2810   39.5070 H   0  0  0  0  0  0  0  0  0  0  0  0
   36.8930   28.1010   41.2510 C   0  0  0  0  0  0  0  0  0  0  0  0
   37.1180   26.8400   40.7400 C   0  0  0  0  0  0  0  0  0  0  0  0
   37.7340   25.9000   41.5500 C   0  0  0  0  0  0  0  0  0  0  0  0
   38.0880   26.2640   42.8110 N   0  0  0  0  0  0  0  0  0  0  0  0
   37.8500   27.5080   43.2730 C   0  0  0  0  0  0  0  0  0  0  0  0
   37.2680   28.4040   42.5150 N   0  0  0  0  0  0  0  0  0  0  0  0
   36.8180   26.5970   39.7270 H   0  0  0  0  0  0  0  0  0  0  0  0
   37.9230   24.9110   41.1810 H   0  0  0  0  0  0  0  0  0  0  0  0
   38.1530   27.7430   44.2870 H   0  0  0  0  0  0  0  0  0  0  0  0
  1  3  1  0  0  0  0
  2  1  1  0  0  0  0
  4  8  1  0  0  0  0
  4  1  1  0  0  0  0
  5  4  2  0  0  0  0
  6  5  1  0  0  0  0
  6  7  2  0  0  0  0
  7  8  1  0  0  0  0
  9  5  1  0  0  0  0
 10  6  1  0  0  0  0
 11  7  1  0  0  0  0
 12 13  1  0  0  0  0
 13 18  1  0  0  0  0
 13 14  1  0  0  0  0
 14 15  1  0  0  0  0
 16 15  1  0  0  0  0
 16 11  1  0  0  0  0
 17 16  1  0  0  0  0
 18 17  1  0  0  0  0
 19  1  1  0  0  0  0
 19 22  1  0  0  0  0
 20 19  1  0  0  0  0
 21 19  1  0  0  0  0
 22 27  1  0  0  0  0
 23 22  2  0  0  0  0
 23 24  1  0  0  0  0
 24 25  2  0  0  0  0
 25 26  1  0  0  0  0
 26 30  1  0  0  0  0
 27 26  2  0  0  0  0
 28 23  1  0  0  0  0
 29 24  1  0  0  0  0
M  END
>  <minimizedAffinity>
-5.16247845

$$$$

 OpenBabel03242518163D

 30 32  0  0  0  0  0  0  0  0999 V2000
   36.6170   27.3460   42.6620 C   0  0  0  0  0  0  0  0  0  0  0  0
   35.9350   26.5190   42.3650 H   0  0  0  0  0  0  0  0  0  0  0  0
   36.2290   27.6290   43.6890 H   0  0  0  0  0  0  0  0  0  0  0  0
   36.4140   28.4510   41.8020 C   0  0  0  0  0  0  0  0  0  0  0  0
   35.5600   28.7670   40.7200 C   0  0  0  0  0  0  0  0  0  0  0  0
   35.6480   29.9610   40.0880 C   0  0  0  0  0  0  0  0  0  0  0  0
   36.6370   30.8730   40.5670 C   0  0  0  0  0  0  0  0  0  0  0  0
   37.4470   30.0180   41.9300 S   0  0  0  0  0  0  0  0  0  0  0  0
   34.8790   27.9630   40.4980 H   0  0  0  0  0  0  0  0  0  0  0  0
   35.0070   30.2140   39.2670 H   0  0  0  0  0  0  0  0  0  0  0  0
   36.9020   32.0630   40.1200 O   0  0  0  0  0  0  0  0  0  0  0  0
   40.4580   33.2770   41.1660 H   0  0  0  0  0  0  0  0  0  0  0  0
   40.4540   33.7160   40.2290 N   0  0  0  0  0  0  0  0  0  0  0  0
   40.3920   32.7650   39.1360 C   0  0  0  0  0  2  0  0  0  0  0  0
   39.0340   32.0940   39.1160 C   0  0  0  0  0  2  0  0  0  0  0  0
   38.2020   32.6120   40.2810 C   0  0  0  0  0  3  0  0  0  0  0  0
   38.0870   34.1090   40.0880 C   0  0  0  0  0  2  0  0  0  0  0  0
   39.4430   34.7470   40.0990 C   0  0  0  0  0  2  0  0  0  0  0  0
   37.9780   26.7900   42.7740 C   0  0  0  0  0  0  0  0  0  0  0  0
   38.7940   27.5080   42.5550 H   0  0  0  0  0  0  0  0  0  0  0  0
   38.1500   26.4740   43.8430 H   0  0  0  0  0  0  0  0  0  0  0  0
   38.1190   25.6100   41.9220 C   0  0  0  0  0  0  0  0  0  0  0  0
   37.1190   24.6650   41.8250 C   0  0  0  0  0  0  0  0  0  0  0  0
   37.3220   23.5710   41.0000 C   0  0  0  0  0  0  0  0  0  0  0  0
   38.4980   23.4780   40.3250 N   0  0  0  0  0  0  0  0  0  0  0  0
   39.4520   24.4230   40.4470 C   0  0  0  0  0  0  0  0  0  0  0  0
   39.2690   25.4620   41.2250 N   0  0  0  0  0  0  0  0  0  0  0  0
   36.1970   24.7830   42.3830 H   0  0  0  0  0  0  0  0  0  0  0  0
   36.5630   22.8200   40.9030 H   0  0  0  0  0  0  0  0  0  0  0  0
   40.3710   24.2980   39.8860 H   0  0  0  0  0  0  0  0  0  0  0  0
  1 19  1  0  0  0  0
  1  3  1  0  0  0  0
  2  1  1  0  0  0  0
  4  8  1  0  0  0  0
  4  1  1  0  0  0  0
  5  4  2  0  0  0  0
  6  7  2  0  0  0  0
  6  5  1  0  0  0  0
  7  8  1  0  0  0  0
  9  5  1  0  0  0  0
 10  6  1  0  0  0  0
 11 16  1  0  0  0  0
 11  7  1  0  0  0  0
 13 12  1  0  0  0  0
 14 13  1  0  0  0  0
 15 14  1  0  0  0  0
 15 16  1  0  0  0  0
 17 18  1  0  0  0  0
 17 16  1  0  0  0  0
 18 13  1  0  0  0  0
 19 21  1  0  0  0  0
 20 19  1  0  0  0  0
 22 19  1  0  0  0  0
 23 22  1  0  0  0  0
 23 28  1  0  0  0  0
 24 23  2  0  0  0  0
 25 26  2  0  0  0  0
 25 24  1  0  0  0  0
 26 27  1  0  0  0  0
 27 22  2  0  0  0  0
 29 24  1  0  0  0  0
 30 26  1  0  0  0  0
M  END
>  <minimizedAffinity>
-5.07917356

$$$$

 OpenBabel03242518163D

 30 32  0  0  0  0  0  0  0  0999 V2000
   36.7750   31.0370   39.7470 C   0  0  0  0  0  0  0  0  0  0  0  0
   36.3750   31.9780   40.1850 H   0  0  0  0  0  0  0  0  0  0  0  0
   35.9000   30.6580   39.1340 H   0  0  0  0  0  0  0  0  0  0  0  0
   37.0150   30.1050   40.7840 C   0  0  0  0  0  0  0  0  0  0  0  0
   37.8390   30.0340   41.9310 C   0  0  0  0  0  0  0  0  0  0  0  0
   37.8280   28.9410   42.7300 C   0  0  0  0  0  0  0  0  0  0  0  0
   36.9520   27.8780   42.3570 C   0  0  0  0  0  0  0  0  0  0  0  0
   36.1360   28.4430   40.8540 S   0  0  0  0  0  0  0  0  0  0  0  0
   38.4310   30.9250   42.0560 H   0  0  0  0  0  0  0  0  0  0  0  0
   38.4470   28.8740   43.6030 H   0  0  0  0  0  0  0  0  0  0  0  0
   36.7760   26.7440   42.9660 O   0  0  0  0  0  0  0  0  0  0  0  0
   38.9620   23.5300   42.6390 H   0  0  0  0  0  0  0  0  0  0  0  0
   38.8750   23.7180   41.6250 N   0  0  0  0  0  0  0  0  0  0  0  0
   37.5160   23.6280   41.1260 C   0  0  0  0  0  2  0  0  0  0  0  0
   36.6920   24.7740   41.6760 C   0  0  0  0  0  2  0  0  0  0  0  0
   37.5560   25.6130   42.6060 C   0  0  0  0  0  3  0  0  0  0  0  0
   38.7170   26.1110   41.7710 C   0  0  0  0  0  2  0  0  0  0  0  0
   39.5090   24.9600   41.2310 C   0  0  0  0  0  2  0  0  0  0  0  0
   37.8960   31.3950   38.8580 C   0  0  0  0  0  0  0  0  0  0  0  0
   38.6530   30.5970   38.7180 H   0  0  0  0  0  0  0  0  0  0  0  0
   37.4860   31.5880   37.8240 H   0  0  0  0  0  0  0  0  0  0  0  0
   38.5500   32.6160   39.3250 C   0  0  0  0  0  0  0  0  0  0  0  0
   37.8230   33.6900   39.7950 C   0  0  0  0  0  0  0  0  0  0  0  0
   38.5090   34.8160   40.2200 C   0  0  0  0  0  0  0  0  0  0  0  0
   39.8660   34.8110   40.1530 N   0  0  0  0  0  0  0  0  0  0  0  0
   40.5400   33.7410   39.6860 C   0  0  0  0  0  0  0  0  0  0  0  0
   39.9010   32.6710   39.2820 N   0  0  0  0  0  0  0  0  0  0  0  0
   36.7400   33.6460   39.8300 H   0  0  0  0  0  0  0  0  0  0  0  0
   37.9720   35.6670   40.5910 H   0  0  0  0  0  0  0  0  0  0  0  0
   41.6230   33.7920   39.6540 H   0  0  0  0  0  0  0  0  0  0  0  0
  1  2  1  0  0  0  0
  1  4  1  0  0  0  0
  3  1  1  0  0  0  0
  4  8  1  0  0  0  0
  4  5  2  0  0  0  0
  5  9  1  0  0  0  0
  5  6  1  0  0  0  0
  6 10  1  0  0  0  0
  7  6  2  0  0  0  0
  7 11  1  0  0  0  0
  8  7  1  0  0  0  0
 13 12  1  0  0  0  0
 14 13  1  0  0  0  0
 14 15  1  0  0  0  0
 15 16  1  0  0  0  0
 16 11  1  0  0  0  0
 17 16  1  0  0  0  0
 18 13  1  0  0  0  0
 18 17  1  0  0  0  0
 19 22  1  0  0  0  0
 19  1  1  0  0  0  0
 20 19  1  0  0  0  0
 21 19  1  0  0  0  0
 22 23  1  0  0  0  0
 23 28  1  0  0  0  0
 23 24  2  0  0  0  0
 24 29  1  0  0  0  0
 25 24  1  0  0  0  0
 26 25  2  0  0  0  0
 27 22  2  0  0  0  0
 27 26  1  0  0  0  0
 30 26  1  0  0  0  0
M  END
>  <minimizedAffinity>
-4.98613071

$$$$

 OpenBabel03242518163D

 30 32  0  0  0  0  0  0  0  0999 V2000
   36.7870   30.5480   39.3740 C   0  0  0  0  0  0  0  0  0  0  0  0
   37.5380   29.7510   39.1820 H   0  0  0  0  0  0  0  0  0  0  0  0
   36.2290   30.6050   38.3890 H   0  0  0  0  0  0  0  0  0  0  0  0
   37.4540   31.7820   39.5670 C   0  0  0  0  0  0  0  0  0  0  0  0
   37.0900   33.1460   39.6400 C   0  0  0  0  0  0  0  0  0  0  0  0
   38.0240   34.1080   39.8260 C   0  0  0  0  0  0  0  0  0  0  0  0
   39.3800   33.6760   39.9430 C   0  0  0  0  0  0  0  0  0  0  0  0
   39.3200   31.8830   39.7870 S   0  0  0  0  0  0  0  0  0  0  0  0
   36.0270   33.2840   39.5310 H   0  0  0  0  0  0  0  0  0  0  0  0
   37.7620   35.1460   39.8830 H   0  0  0  0  0  0  0  0  0  0  0  0
   40.4340   34.4120   40.1230 O   0  0  0  0  0  0  0  0  0  0  0  0
   43.6800   32.4310   39.2580 H   0  0  0  0  0  0  0  0  0  0  0  0
   44.0910   33.3760   39.1690 N   0  0  0  0  0  0  0  0  0  0  0  0
   43.5140   34.1680   38.1000 C   0  0  0  0  0  2  0  0  0  0  0  0
   42.0860   34.5360   38.4480 C   0  0  0  0  0  2  0  0  0  0  0  0
   41.7200   33.9110   39.7860 C   0  0  0  0  0  3  0  0  0  0  0  0
   42.7000   34.4670   40.7970 C   0  0  0  0  0  2  0  0  0  0  0  0
   44.1040   34.1000   40.4250 C   0  0  0  0  0  2  0  0  0  0  0  0
   35.8840   30.0700   40.4370 C   0  0  0  0  0  0  0  0  0  0  0  0
   35.4190   30.8700   41.0480 H   0  0  0  0  0  0  0  0  0  0  0  0
   35.0170   29.5320   39.9570 H   0  0  0  0  0  0  0  0  0  0  0  0
   36.5790   29.1250   41.3110 C   0  0  0  0  0  0  0  0  0  0  0  0
   36.5410   27.7650   41.0800 C   0  0  0  0  0  0  0  0  0  0  0  0
   37.2210   26.9290   41.9500 C   0  0  0  0  0  0  0  0  0  0  0  0
   37.8940   27.4870   42.9910 N   0  0  0  0  0  0  0  0  0  0  0  0
   37.9070   28.8210   43.1820 C   0  0  0  0  0  0  0  0  0  0  0  0
   37.2670   29.6210   42.3650 N   0  0  0  0  0  0  0  0  0  0  0  0
   35.9900   27.3680   40.2350 H   0  0  0  0  0  0  0  0  0  0  0  0
   37.2100   25.8680   41.7970 H   0  0  0  0  0  0  0  0  0  0  0  0
   38.4600   29.2110   44.0290 H   0  0  0  0  0  0  0  0  0  0  0  0
  1  4  1  0  0  0  0
  1 19  1  0  0  0  0
  2  1  1  0  0  0  0
  3  1  1  0  0  0  0
  4  5  2  0  0  0  0
  4  8  1  0  0  0  0
  5  6  1  0  0  0  0
  6 10  1  0  0  0  0
  6  7  2  0  0  0  0
  7 11  1  0  0  0  0
  8  7  1  0  0  0  0
  9  5  1  0  0  0  0
 13 12  1  0  0  0  0
 13 18  1  0  0  0  0
 14 15  1  0  0  0  0
 14 13  1  0  0  0  0
 15 16  1  0  0  0  0
 16 11  1  0  0  0  0
 16 17  1  0  0  0  0
 18 17  1  0  0  0  0
 19 20  1  0  0  0  0
 19 22  1  0  0  0  0
 21 19  1  0  0  0  0
 22 27  1  0  0  0  0
 23 22  2  0  0  0  0
 23 24  1  0  0  0  0
 24 25  2  0  0  0  0
 25 26  1  0  0  0  0
 26 30  1  0  0  0  0
 27 26  2  0  0  0  0
 28 23  1  0  0  0  0
 29 24  1  0  0  0  0
M  END
>  <minimizedAffinity>
-4.87898207

$$$$

 OpenBabel03242518163D

 30 32  0  0  0  0  0  0  0  0999 V2000
   37.2300   31.3990   38.9340 C   0  0  0  0  0  0  0  0  0  0  0  0
   36.9030   32.2990   39.4990 H   0  0  0  0  0  0  0  0  0  0  0  0
   36.5230   31.3940   38.0470 H   0  0  0  0  0  0  0  0  0  0  0  0
   36.9670   30.2420   39.7060 C   0  0  0  0  0  0  0  0  0  0  0  0
   36.5030   28.9290   39.4620 C   0  0  0  0  0  0  0  0  0  0  0  0
   36.3470   28.0460   40.4760 C   0  0  0  0  0  0  0  0  0  0  0  0
   36.6730   28.5060   41.7880 C   0  0  0  0  0  0  0  0  0  0  0  0
   37.2070   30.2120   41.5710 S   0  0  0  0  0  0  0  0  0  0  0  0
   36.3070   28.7590   38.4170 H   0  0  0  0  0  0  0  0  0  0  0  0
   35.9960   27.0470   40.3070 H   0  0  0  0  0  0  0  0  0  0  0  0
   36.6030   27.8420   42.9020 O   0  0  0  0  0  0  0  0  0  0  0  0
   39.0540   25.2090   44.4090 H   0  0  0  0  0  0  0  0  0  0  0  0
   39.6350   25.4560   43.5900 N   0  0  0  0  0  0  0  0  0  0  0  0
   39.0290   25.1190   42.3170 C   0  0  0  0  0  2  0  0  0  0  0  0
   37.8310   26.0120   42.0670 C   0  0  0  0  0  2  0  0  0  0  0  0
   37.6380   26.9380   43.2600 C   0  0  0  0  0  3  0  0  0  0  0  0
   38.9160   27.7400   43.3850 C   0  0  0  0  0  2  0  0  0  0  0  0
   40.0860   26.8340   43.6200 C   0  0  0  0  0  2  0  0  0  0  0  0
   38.6120   31.6320   38.4750 C   0  0  0  0  0  0  0  0  0  0  0  0
   39.2870   30.7570   38.5650 H   0  0  0  0  0  0  0  0  0  0  0  0
   38.5890   31.8670   37.3720 H   0  0  0  0  0  0  0  0  0  0  0  0
   39.1960   32.7770   39.1730 C   0  0  0  0  0  0  0  0  0  0  0  0
   40.5480   33.0440   39.1170 C   0  0  0  0  0  0  0  0  0  0  0  0
   41.0320   34.1460   39.8040 C   0  0  0  0  0  0  0  0  0  0  0  0
   40.1520   34.9110   40.5020 N   0  0  0  0  0  0  0  0  0  0  0  0
   38.8370   34.6160   40.5320 C   0  0  0  0  0  0  0  0  0  0  0  0
   38.3690   33.5770   39.8850 N   0  0  0  0  0  0  0  0  0  0  0  0
   41.2100   32.4030   38.5460 H   0  0  0  0  0  0  0  0  0  0  0  0
   42.0780   34.3790   39.7800 H   0  0  0  0  0  0  0  0  0  0  0  0
   38.1810   35.2620   41.1040 H   0  0  0  0  0  0  0  0  0  0  0  0
  1  2  1  0  0  0  0
  1  4  1  0  0  0  0
  3  1  1  0  0  0  0
  4  8  1  0  0  0  0
  5  4  2  0  0  0  0
  5  6  1  0  0  0  0
  6  7  2  0  0  0  0
  7 11  1  0  0  0  0
  8  7  1  0  0  0  0
  9  5  1  0  0  0  0
 10  6  1  0  0  0  0
 11 16  1  0  0  0  0
 13 18  1  0  0  0  0
 13 12  1  0  0  0  0
 14 13  1  0  0  0  0
 15 14  1  0  0  0  0
 15 16  1  0  0  0  0
 16 17  1  0  0  0  0
 17 18  1  0  0  0  0
 19 20  1  0  0  0  0
 19  1  1  0  0  0  0
 19 22  1  0  0  0  0
 21 19  1  0  0  0  0
 22 27  1  0  0  0  0
 23 22  2  0  0  0  0
 23 24  1  0  0  0  0
 24 25  2  0  0  0  0
 25 26  1  0  0  0  0
 26 30  1  0  0  0  0
 27 26  2  0  0  0  0
 28 23  1  0  0  0  0
 29 24  1  0  0  0  0
M  END
>  <minimizedAffinity>
-4.83770132

$$$$

 OpenBabel03242518163D

 30 32  0  0  0  0  0  0  0  0999 V2000
   37.2490   25.6470   40.7950 C   0  0  0  0  0  0  0  0  0  0  0  0
   37.9380   25.4210   39.9520 H   0  0  0  0  0  0  0  0  0  0  0  0
   36.2990   25.1080   40.4880 H   0  0  0  0  0  0  0  0  0  0  0  0
   36.9740   27.0350   40.8150 C   0  0  0  0  0  0  0  0  0  0  0  0
   36.3380   27.9430   41.6920 C   0  0  0  0  0  0  0  0  0  0  0  0
   36.2340   29.2560   41.3800 C   0  0  0  0  0  0  0  0  0  0  0  0
   36.7930   29.6700   40.1330 C   0  0  0  0  0  0  0  0  0  0  0  0
   37.4740   28.1720   39.4010 S   0  0  0  0  0  0  0  0  0  0  0  0
   35.9770   27.4560   42.5820 H   0  0  0  0  0  0  0  0  0  0  0  0
   35.7540   29.9560   42.0350 H   0  0  0  0  0  0  0  0  0  0  0  0
   36.8110   30.8660   39.6290 O   0  0  0  0  0  0  0  0  0  0  0  0
   38.1880   33.6230   42.0200 H   0  0  0  0  0  0  0  0  0  0  0  0
   38.8360   33.8110   41.2360 N   0  0  0  0  0  0  0  0  0  0  0  0
   39.7320   32.7110   40.9370 C   0  0  0  0  0  2  0  0  0  0  0  0
   38.9450   31.5550   40.3540 C   0  0  0  0  0  2  0  0  0  0  0  0
   37.4680   31.9210   40.3180 C   0  0  0  0  0  3  0  0  0  0  0  0
   37.3590   33.1610   39.4560 C   0  0  0  0  0  2  0  0  0  0  0  0
   38.1530   34.2840   40.0480 C   0  0  0  0  0  2  0  0  0  0  0  0
   37.8080   25.0290   42.0110 C   0  0  0  0  0  0  0  0  0  0  0  0
   37.4180   25.4410   42.9640 H   0  0  0  0  0  0  0  0  0  0  0  0
   37.5160   23.9390   42.0270 H   0  0  0  0  0  0  0  0  0  0  0  0
   39.2680   25.1090   42.0010 C   0  0  0  0  0  0  0  0  0  0  0  0
   39.9980   25.1430   43.1710 C   0  0  0  0  0  0  0  0  0  0  0  0
   41.3790   25.2210   43.0850 C   0  0  0  0  0  0  0  0  0  0  0  0
   41.9490   25.2620   41.8530 N   0  0  0  0  0  0  0  0  0  0  0  0
   41.2010   25.2270   40.7320 C   0  0  0  0  0  0  0  0  0  0  0  0
   39.8940   25.1520   40.8030 N   0  0  0  0  0  0  0  0  0  0  0  0
   39.4960   25.1080   44.1310 H   0  0  0  0  0  0  0  0  0  0  0  0
   41.9730   25.2490   43.9770 H   0  0  0  0  0  0  0  0  0  0  0  0
   41.7090   25.2620   39.7760 H   0  0  0  0  0  0  0  0  0  0  0  0
  1  4  1  0  0  0  0
  1 19  1  0  0  0  0
  2  1  1  0  0  0  0
  3  1  1  0  0  0  0
  4  5  2  0  0  0  0
  5  9  1  0  0  0  0
  6  5  1  0  0  0  0
  6 10  1  0  0  0  0
  7  6  2  0  0  0  0
  8  7  1  0  0  0  0
  8  4  1  0  0  0  0
 11  7  1  0  0  0  0
 11 16  1  0  0  0  0
 13 12  1  0  0  0  0
 14 13  1  0  0  0  0
 15 14  1  0  0  0  0
 16 15  1  0  0  0  0
 17 18  1  0  0  0  0
 17 16  1  0  0  0  0
 18 13  1  0  0  0  0
 19 21  1  0  0  0  0
 19 20  1  0  0  0  0
 22 19  1  0  0  0  0
 22 23  1  0  0  0  0
 23 28  1  0  0  0  0
 24 23  2  0  0  0  0
 24 29  1  0  0  0  0
 25 24  1  0  0  0  0
 26 27  1  0  0  0  0
 26 25  2  0  0  0  0
 27 22  2  0  0  0  0
 30 26  1  0  0  0  0
M  END
>  <minimizedAffinity>
-4.73592997

$$$$
