
 OpenBabel03252509083D

 39 42  0  0  0  0  0  0  0  0999 V2000
   48.8570   33.3650   40.2710 C   0  0  0  0  0  0  0  0  0  0  0  0
   49.7010   32.9320   41.2500 C   0  0  0  0  0  0  0  0  0  0  0  0
   49.9090   33.7320   42.3560 C   0  0  0  0  0  0  0  0  0  0  0  0
   49.2750   34.9460   42.4670 C   0  0  0  0  0  0  0  0  0  0  0  0
   48.4070   35.4090   41.4820 C   0  0  0  0  0  0  0  0  0  0  0  0
   48.2090   34.5980   40.3790 C   0  0  0  0  0  0  0  0  0  0  0  0
   50.5830   33.4090   43.1580 H   0  0  0  0  0  0  0  0  0  0  0  0
   49.4570   35.5430   43.3360 H   0  0  0  0  0  0  0  0  0  0  0  0
   47.8910   36.3560   41.5360 H   0  0  0  0  0  0  0  0  0  0  0  0
   47.5300   34.9600   39.6060 H   0  0  0  0  0  0  0  0  0  0  0  0
   50.0020   27.9860   42.6320 Cl  0  0  0  0  0  0  0  0  0  0  0  0
   50.5700   29.4250   41.8410 C   0  0  0  0  0  0  0  0  0  0  0  0
   49.8660   30.5740   41.8850 C   0  0  0  0  0  0  0  0  0  0  0  0
   50.4110   31.6670   41.2230 C   0  0  0  0  0  0  0  0  0  0  0  0
   51.6030   31.5960   40.5520 C   0  0  0  0  0  0  0  0  0  0  0  0
   52.2970   30.4310   40.5200 C   0  0  0  0  0  0  0  0  0  0  0  0
   51.7690   29.3400   41.1720 C   0  0  0  0  0  0  0  0  0  0  0  0
   52.0000   32.4660   40.0460 H   0  0  0  0  0  0  0  0  0  0  0  0
   53.2500   30.3290   39.9980 H   0  0  0  0  0  0  0  0  0  0  0  0
   52.3340   28.4060   41.1400 H   0  0  0  0  0  0  0  0  0  0  0  0
   46.1880   30.4380   42.7300 C   0  0  0  0  0  0  0  0  0  0  0  0
   47.3900   30.4010   42.0160 C   0  0  0  0  0  0  0  0  0  0  0  0
   48.6190   30.6110   42.6100 C   0  0  0  0  0  0  0  0  0  0  0  0
   48.5720   30.8560   43.9460 N   0  0  0  0  0  0  0  0  0  0  0  0
   47.4220   30.8920   44.6370 C   0  0  0  0  0  0  0  0  0  0  0  0
   46.2450   30.6850   44.0330 N   0  0  0  0  0  0  0  0  0  0  0  0
   45.2300   30.2680   42.2330 H   0  0  0  0  0  0  0  0  0  0  0  0
   47.3300   30.1990   40.9580 H   0  0  0  0  0  0  0  0  0  0  0  0
   47.4650   31.0940   45.7050 H   0  0  0  0  0  0  0  0  0  0  0  0
   48.5370   32.4450   38.8950 S   0  0  0  0  0  0  0  0  0  0  0  0
   49.3820   32.8750   37.7100 O   0  0  0  0  0  0  0  0  0  0  0  0
   49.1000   31.0440   39.2620 O   0  0  0  0  0  0  0  0  0  0  0  0
   43.5890   33.7250   37.2400 H   0  0  0  0  0  0  0  0  0  0  0  0
   44.3700   33.1060   37.4640 N   0  0  0  0  0  0  0  0  0  0  0  0
   45.4810   33.1210   36.5490 C   0  0  0  0  0  2  0  0  0  0  0  0
   46.7300   33.3510   37.3050 C   0  0  0  0  0  2  0  0  0  0  0  0
   47.0660   32.0740   38.1680 C   0  0  0  0  0  3  0  0  0  0  0  0
   45.8210   32.0740   39.0500 C   0  0  0  0  0  2  0  0  0  0  0  0
   44.8710   33.1950   38.8170 C   0  0  0  0  0  2  0  0  0  0  0  0
  1  6  2  0  0  0  0
  1  2  1  0  0  0  0
  2  3  2  0  0  0  0
  3  4  1  0  0  0  0
  3  7  1  0  0  0  0
  4  8  1  0  0  0  0
  5  9  1  0  0  0  0
  5  4  2  0  0  0  0
  6  5  1  0  0  0  0
 10  6  1  0  0  0  0
 12 13  1  0  0  0  0
 12 11  1  0  0  0  0
 13 23  1  0  0  0  0
 14  2  1  0  0  0  0
 14 13  2  0  0  0  0
 15 14  1  0  0  0  0
 16 15  2  0  0  0  0
 16 17  1  0  0  0  0
 17 12  2  0  0  0  0
 18 15  1  0  0  0  0
 19 16  1  0  0  0  0
 20 17  1  0  0  0  0
 21 26  1  0  0  0  0
 22 23  1  0  0  0  0
 22 21  2  0  0  0  0
 23 24  2  0  0  0  0
 24 25  1  0  0  0  0
 25 29  1  0  0  0  0
 26 25  2  0  0  0  0
 27 21  1  0  0  0  0
 28 22  1  0  0  0  0
 30 32  2  0  0  0  0
 30  1  1  0  0  0  0
 31 30  2  0  0  0  0
 33 34  1  0  0  0  0
 34 39  1  0  0  0  0
 35 36  1  0  0  0  0
 35 34  1  0  0  0  0
 36 37  1  0  0  0  0
 37 30  1  0  0  0  0
 37 38  1  0  0  0  0
 39 38  1  0  0  0  0
M  END
>  <minimizedAffinity>
-4.78377199

>  <minimizedRMSD>
5.42953873

$$$$
