
 OpenBabel03252509103D

 39 42  0  0  0  0  0  0  0  0999 V2000
   37.5430   29.3540   41.5610 C   0  0  0  0  0  0  0  0  0  0  0  0
   36.6170   28.4000   41.2570 C   0  0  0  0  0  0  0  0  0  0  0  0
   36.3840   27.3810   42.1590 C   0  0  0  0  0  0  0  0  0  0  0  0
   37.0760   27.3300   43.3450 C   0  0  0  0  0  0  0  0  0  0  0  0
   38.0250   28.2920   43.6790 C   0  0  0  0  0  0  0  0  0  0  0  0
   38.2480   29.3060   42.7660 C   0  0  0  0  0  0  0  0  0  0  0  0
   35.6470   26.6020   41.9390 H   0  0  0  0  0  0  0  0  0  0  0  0
   36.8730   26.5270   44.0230 H   0  0  0  0  0  0  0  0  0  0  0  0
   38.5860   28.2830   44.6020 H   0  0  0  0  0  0  0  0  0  0  0  0
   38.9920   30.0610   43.0270 H   0  0  0  0  0  0  0  0  0  0  0  0
   35.9540   26.6730   36.4570 Cl  0  0  0  0  0  0  0  0  0  0  0  0
   35.5190   27.6070   37.8560 C   0  0  0  0  0  0  0  0  0  0  0  0
   36.2710   27.5880   38.9740 C   0  0  0  0  0  0  0  0  0  0  0  0
   35.8360   28.3740   40.0340 C   0  0  0  0  0  0  0  0  0  0  0  0
   34.7000   29.1360   39.9620 C   0  0  0  0  0  0  0  0  0  0  0  0
   33.9570   29.1430   38.8270 C   0  0  0  0  0  0  0  0  0  0  0  0
   34.3760   28.3690   37.7690 C   0  0  0  0  0  0  0  0  0  0  0  0
   34.3890   29.7370   40.8060 H   0  0  0  0  0  0  0  0  0  0  0  0
   33.0460   29.7350   38.7260 H   0  0  0  0  0  0  0  0  0  0  0  0
   33.7710   28.3800   36.8600 H   0  0  0  0  0  0  0  0  0  0  0  0
   38.6400   24.6820   39.4260 C   0  0  0  0  0  0  0  0  0  0  0  0
   37.4750   25.4560   39.4000 C   0  0  0  0  0  0  0  0  0  0  0  0
   37.4660   26.7790   39.0080 C   0  0  0  0  0  0  0  0  0  0  0  0
   38.6790   27.2760   38.6470 N   0  0  0  0  0  0  0  0  0  0  0  0
   39.8000   26.5380   38.6700 C   0  0  0  0  0  0  0  0  0  0  0  0
   39.7770   25.2570   39.0560 N   0  0  0  0  0  0  0  0  0  0  0  0
   38.6160   23.6360   39.7420 H   0  0  0  0  0  0  0  0  0  0  0  0
   36.5570   24.9770   39.7030 H   0  0  0  0  0  0  0  0  0  0  0  0
   40.7340   27.0060   38.3670 H   0  0  0  0  0  0  0  0  0  0  0  0
   37.8780   30.6380   40.5230 S   0  0  0  0  0  0  0  0  0  0  0  0
   36.7070   31.5980   40.4040 O   0  0  0  0  0  0  0  0  0  0  0  0
   38.9500   31.4550   41.2950 O   0  0  0  0  0  0  0  0  0  0  0  0
   39.1010   33.0260   35.8660 H   0  0  0  0  0  0  0  0  0  0  0  0
   38.9500   32.2430   36.5070 N   0  0  0  0  0  0  0  0  0  0  0  0
   39.9540   32.0400   37.5170 C   0  0  0  0  0  2  0  0  0  0  0  0
   39.3020   31.9670   38.8420 C   0  0  0  0  0  2  0  0  0  0  0  0
   38.4840   30.6230   38.9530 C   0  0  0  0  0  3  0  0  0  0  0  0
   37.5010   30.8710   37.8130 C   0  0  0  0  0  2  0  0  0  0  0  0
   37.6420   32.1810   37.1210 C   0  0  0  0  0  2  0  0  0  0  0  0
  1  6  1  0  0  0  0
  2  1  2  0  0  0  0
  2  3  1  0  0  0  0
  3  4  2  0  0  0  0
  4  5  1  0  0  0  0
  4  8  1  0  0  0  0
  5  9  1  0  0  0  0
  6 10  1  0  0  0  0
  6  5  2  0  0  0  0
  7  3  1  0  0  0  0
 11 12  1  0  0  0  0
 12 13  1  0  0  0  0
 13 23  1  0  0  0  0
 13 14  2  0  0  0  0
 14  2  1  0  0  0  0
 15 14  1  0  0  0  0
 15 18  1  0  0  0  0
 16 15  2  0  0  0  0
 17 12  2  0  0  0  0
 17 16  1  0  0  0  0
 19 16  1  0  0  0  0
 20 17  1  0  0  0  0
 21 27  1  0  0  0  0
 22 21  1  0  0  0  0
 22 28  1  0  0  0  0
 23 22  2  0  0  0  0
 24 25  2  0  0  0  0
 24 23  1  0  0  0  0
 25 26  1  0  0  0  0
 26 21  2  0  0  0  0
 29 25  1  0  0  0  0
 30 32  2  0  0  0  0
 30  1  1  0  0  0  0
 31 30  2  0  0  0  0
 33 34  1  0  0  0  0
 34 39  1  0  0  0  0
 34 35  1  0  0  0  0
 35 36  1  0  0  0  0
 36 37  1  0  0  0  0
 37 30  1  0  0  0  0
 38 37  1  0  0  0  0
 39 38  1  0  0  0  0
M  END
>  <minimizedAffinity>
-6.45684433

$$$$

 OpenBabel03252509103D

 39 42  0  0  0  0  0  0  0  0999 V2000
   36.4980   26.1640   39.4540 C   0  0  0  0  0  0  0  0  0  0  0  0
   36.9330   25.7620   40.6820 C   0  0  0  0  0  0  0  0  0  0  0  0
   36.8790   24.4210   41.0070 C   0  0  0  0  0  0  0  0  0  0  0  0
   36.3940   23.5060   40.1050 C   0  0  0  0  0  0  0  0  0  0  0  0
   35.9450   23.8900   38.8440 C   0  0  0  0  0  0  0  0  0  0  0  0
   36.0050   25.2360   38.5330 C   0  0  0  0  0  0  0  0  0  0  0  0
   37.2210   24.0730   41.9870 H   0  0  0  0  0  0  0  0  0  0  0  0
   36.3650   22.4740   40.3860 H   0  0  0  0  0  0  0  0  0  0  0  0
   35.5590   23.1970   38.1100 H   0  0  0  0  0  0  0  0  0  0  0  0
   35.6530   25.5380   37.5450 H   0  0  0  0  0  0  0  0  0  0  0  0
   40.9310   28.2740   42.7270 Cl  0  0  0  0  0  0  0  0  0  0  0  0
   39.2620   27.7980   42.6420 C   0  0  0  0  0  0  0  0  0  0  0  0
   38.8150   26.9760   41.6710 C   0  0  0  0  0  0  0  0  0  0  0  0
   37.4640   26.6540   41.6970 C   0  0  0  0  0  0  0  0  0  0  0  0
   36.6130   27.1410   42.6540 C   0  0  0  0  0  0  0  0  0  0  0  0
   37.0820   27.9660   43.6240 C   0  0  0  0  0  0  0  0  0  0  0  0
   38.4190   28.2920   43.6110 C   0  0  0  0  0  0  0  0  0  0  0  0
   35.5660   26.8710   42.6460 H   0  0  0  0  0  0  0  0  0  0  0  0
   36.4420   28.3760   44.4060 H   0  0  0  0  0  0  0  0  0  0  0  0
   38.7870   28.9580   44.3950 H   0  0  0  0  0  0  0  0  0  0  0  0
   41.3110   24.8030   39.8530 C   0  0  0  0  0  0  0  0  0  0  0  0
   40.4150   25.2770   40.8160 C   0  0  0  0  0  0  0  0  0  0  0  0
   39.7440   26.4770   40.6860 C   0  0  0  0  0  0  0  0  0  0  0  0
   40.0200   27.1640   39.5460 N   0  0  0  0  0  0  0  0  0  0  0  0
   40.8780   26.7140   38.6180 C   0  0  0  0  0  0  0  0  0  0  0  0
   41.5150   25.5470   38.7720 N   0  0  0  0  0  0  0  0  0  0  0  0
   41.8280   23.8490   39.9840 H   0  0  0  0  0  0  0  0  0  0  0  0
   40.2580   24.6640   41.6890 H   0  0  0  0  0  0  0  0  0  0  0  0
   41.0480   27.3210   37.7310 H   0  0  0  0  0  0  0  0  0  0  0  0
   36.5420   27.7780   38.9730 S   0  0  0  0  0  0  0  0  0  0  0  0
   37.1450   27.9470   37.5900 O   0  0  0  0  0  0  0  0  0  0  0  0
   35.0430   28.1340   38.7690 O   0  0  0  0  0  0  0  0  0  0  0  0
   36.3820   32.9790   40.3180 H   0  0  0  0  0  0  0  0  0  0  0  0
   36.7840   32.0410   40.2450 N   0  0  0  0  0  0  0  0  0  0  0  0
   36.2320   31.0370   41.1160 C   0  0  0  0  0  2  0  0  0  0  0  0
   35.8400   29.8610   40.3120 C   0  0  0  0  0  2  0  0  0  0  0  0
   37.1340   29.1270   39.7870 C   0  0  0  0  0  3  0  0  0  0  0  0
   37.7040   30.2650   38.9460 C   0  0  0  0  0  2  0  0  0  0  0  0
   36.8810   31.5050   38.9060 C   0  0  0  0  0  2  0  0  0  0  0  0
  1  2  1  0  0  0  0
  2  3  2  0  0  0  0
  2 14  1  0  0  0  0
  3  7  1  0  0  0  0
  4  8  1  0  0  0  0
  4  3  1  0  0  0  0
  5  4  2  0  0  0  0
  6  5  1  0  0  0  0
  6  1  2  0  0  0  0
  9  5  1  0  0  0  0
 10  6  1  0  0  0  0
 12 11  1  0  0  0  0
 12 17  1  0  0  0  0
 13 14  1  0  0  0  0
 13 12  2  0  0  0  0
 14 15  2  0  0  0  0
 15 16  1  0  0  0  0
 16 19  1  0  0  0  0
 17 16  2  0  0  0  0
 17 20  1  0  0  0  0
 18 15  1  0  0  0  0
 21 27  1  0  0  0  0
 21 22  1  0  0  0  0
 22 28  1  0  0  0  0
 23 22  2  0  0  0  0
 23 13  1  0  0  0  0
 24 23  1  0  0  0  0
 25 26  1  0  0  0  0
 25 24  2  0  0  0  0
 26 21  2  0  0  0  0
 29 25  1  0  0  0  0
 30  1  1  0  0  0  0
 30 37  1  0  0  0  0
 31 30  2  0  0  0  0
 32 30  2  0  0  0  0
 34 33  1  0  0  0  0
 34 35  1  0  0  0  0
 36 35  1  0  0  0  0
 37 36  1  0  0  0  0
 38 37  1  0  0  0  0
 39 38  1  0  0  0  0
 39 34  1  0  0  0  0
M  END
>  <minimizedAffinity>
-6.21841097

$$$$

 OpenBabel03252509103D

 39 42  0  0  0  0  0  0  0  0999 V2000
   36.2010   27.2110   39.2300 C   0  0  0  0  0  0  0  0  0  0  0  0
   35.9020   28.2060   40.1120 C   0  0  0  0  0  0  0  0  0  0  0  0
   34.8570   29.0620   39.8270 C   0  0  0  0  0  0  0  0  0  0  0  0
   34.1290   28.9110   38.6720 C   0  0  0  0  0  0  0  0  0  0  0  0
   34.4120   27.9010   37.7570 C   0  0  0  0  0  0  0  0  0  0  0  0
   35.4630   27.0520   38.0550 C   0  0  0  0  0  0  0  0  0  0  0  0
   34.5970   29.8720   40.5180 H   0  0  0  0  0  0  0  0  0  0  0  0
   33.3250   29.5910   38.4800 H   0  0  0  0  0  0  0  0  0  0  0  0
   33.8610   27.7530   36.8400 H   0  0  0  0  0  0  0  0  0  0  0  0
   35.6870   26.2610   37.3380 H   0  0  0  0  0  0  0  0  0  0  0  0
   39.4820   30.7860   42.7580 Cl  0  0  0  0  0  0  0  0  0  0  0  0
   38.2310   29.5940   42.5730 C   0  0  0  0  0  0  0  0  0  0  0  0
   37.5930   29.4240   41.3990 C   0  0  0  0  0  0  0  0  0  0  0  0
   36.6110   28.4410   41.3570 C   0  0  0  0  0  0  0  0  0  0  0  0
   36.2950   27.6760   42.4480 C   0  0  0  0  0  0  0  0  0  0  0  0
   36.9500   27.8620   43.6220 C   0  0  0  0  0  0  0  0  0  0  0  0
   37.9240   28.8320   43.6770 C   0  0  0  0  0  0  0  0  0  0  0  0
   35.5250   26.9190   42.3820 H   0  0  0  0  0  0  0  0  0  0  0  0
   36.7310   27.2760   44.5150 H   0  0  0  0  0  0  0  0  0  0  0  0
   38.4450   28.9750   44.6260 H   0  0  0  0  0  0  0  0  0  0  0  0
   37.7570   32.2580   38.9090 C   0  0  0  0  0  0  0  0  0  0  0  0
   37.3900   31.4730   40.0060 C   0  0  0  0  0  0  0  0  0  0  0  0
   37.9610   30.2430   40.2690 C   0  0  0  0  0  0  0  0  0  0  0  0
   38.9100   29.8520   39.3780 N   0  0  0  0  0  0  0  0  0  0  0  0
   39.2660   30.6030   38.3240 C   0  0  0  0  0  0  0  0  0  0  0  0
   38.6950   31.7910   38.0940 N   0  0  0  0  0  0  0  0  0  0  0  0
   37.2880   33.2280   38.7270 H   0  0  0  0  0  0  0  0  0  0  0  0
   36.6280   31.8640   40.6610 H   0  0  0  0  0  0  0  0  0  0  0  0
   40.0350   30.2220   37.6530 H   0  0  0  0  0  0  0  0  0  0  0  0
   37.4520   26.1150   39.5080 S   0  0  0  0  0  0  0  0  0  0  0  0
   37.0640   25.0480   40.5160 O   0  0  0  0  0  0  0  0  0  0  0  0
   37.5540   25.3390   38.1670 O   0  0  0  0  0  0  0  0  0  0  0  0
   42.3150   24.5050   41.1320 H   0  0  0  0  0  0  0  0  0  0  0  0
   41.5810   25.1770   40.8940 N   0  0  0  0  0  0  0  0  0  0  0  0
   41.2850   25.3330   39.4940 C   0  0  0  0  0  2  0  0  0  0  0  0
   39.8320   25.1640   39.2840 C   0  0  0  0  0  2  0  0  0  0  0  0
   39.0650   26.4000   39.8950 C   0  0  0  0  0  3  0  0  0  0  0  0
   39.4850   26.2190   41.3500 C   0  0  0  0  0  2  0  0  0  0  0  0
   40.3420   25.0340   41.6260 C   0  0  0  0  0  2  0  0  0  0  0  0
  1 30  1  0  0  0  0
  1  2  1  0  0  0  0
  2 14  1  0  0  0  0
  3  2  2  0  0  0  0
  3  7  1  0  0  0  0
  4  3  1  0  0  0  0
  5  6  1  0  0  0  0
  5  4  2  0  0  0  0
  6  1  2  0  0  0  0
  8  4  1  0  0  0  0
  9  5  1  0  0  0  0
 10  6  1  0  0  0  0
 12 11  1  0  0  0  0
 12 17  1  0  0  0  0
 13 12  2  0  0  0  0
 14 13  1  0  0  0  0
 14 15  2  0  0  0  0
 15 16  1  0  0  0  0
 16 17  2  0  0  0  0
 16 19  1  0  0  0  0
 17 20  1  0  0  0  0
 18 15  1  0  0  0  0
 21 22  1  0  0  0  0
 22 23  2  0  0  0  0
 22 28  1  0  0  0  0
 23 13  1  0  0  0  0
 24 23  1  0  0  0  0
 25 24  2  0  0  0  0
 26 25  1  0  0  0  0
 26 21  2  0  0  0  0
 27 21  1  0  0  0  0
 29 25  1  0  0  0  0
 30 37  1  0  0  0  0
 30 31  2  0  0  0  0
 32 30  2  0  0  0  0
 34 33  1  0  0  0  0
 34 39  1  0  0  0  0
 35 34  1  0  0  0  0
 36 35  1  0  0  0  0
 36 37  1  0  0  0  0
 37 38  1  0  0  0  0
 38 39  1  0  0  0  0
M  END
>  <minimizedAffinity>
-6.15321541

$$$$

 OpenBabel03252509103D

 39 42  0  0  0  0  0  0  0  0999 V2000
   36.0980   27.4790   39.1080 C   0  0  0  0  0  0  0  0  0  0  0  0
   35.8170   28.3480   40.1200 C   0  0  0  0  0  0  0  0  0  0  0  0
   34.7140   29.1720   40.0090 C   0  0  0  0  0  0  0  0  0  0  0  0
   33.9130   29.1160   38.8950 C   0  0  0  0  0  0  0  0  0  0  0  0
   34.1780   28.2370   37.8480 C   0  0  0  0  0  0  0  0  0  0  0  0
   35.2850   27.4180   37.9730 C   0  0  0  0  0  0  0  0  0  0  0  0
   34.4660   29.8800   40.8080 H   0  0  0  0  0  0  0  0  0  0  0  0
   33.0660   29.7680   38.8380 H   0  0  0  0  0  0  0  0  0  0  0  0
   33.5690   28.1650   36.9590 H   0  0  0  0  0  0  0  0  0  0  0  0
   35.4950   26.7290   37.1540 H   0  0  0  0  0  0  0  0  0  0  0  0
   39.4660   30.7840   42.8070 Cl  0  0  0  0  0  0  0  0  0  0  0  0
   38.2540   29.5610   42.5690 C   0  0  0  0  0  0  0  0  0  0  0  0
   37.5420   29.4930   41.4260 C   0  0  0  0  0  0  0  0  0  0  0  0
   36.6010   28.4750   41.3350 C   0  0  0  0  0  0  0  0  0  0  0  0
   36.3930   27.5780   42.3490 C   0  0  0  0  0  0  0  0  0  0  0  0
   37.1210   27.6630   43.4910 C   0  0  0  0  0  0  0  0  0  0  0  0
   38.0570   28.6660   43.5940 C   0  0  0  0  0  0  0  0  0  0  0  0
   35.6520   26.7970   42.2470 H   0  0  0  0  0  0  0  0  0  0  0  0
   36.9890   26.9700   44.3230 H   0  0  0  0  0  0  0  0  0  0  0  0
   38.6370   28.7270   44.5180 H   0  0  0  0  0  0  0  0  0  0  0  0
   37.4000   32.5850   39.2620 C   0  0  0  0  0  0  0  0  0  0  0  0
   37.1420   31.6640   40.2830 C   0  0  0  0  0  0  0  0  0  0  0  0
   37.7970   30.4510   40.3770 C   0  0  0  0  0  0  0  0  0  0  0  0
   38.7120   30.2190   39.4000 N   0  0  0  0  0  0  0  0  0  0  0  0
   38.9630   31.1000   38.4180 C   0  0  0  0  0  0  0  0  0  0  0  0
   38.3130   32.2670   38.3520 N   0  0  0  0  0  0  0  0  0  0  0  0
   36.8660   33.5370   39.2130 H   0  0  0  0  0  0  0  0  0  0  0  0
   36.3990   31.9330   41.0150 H   0  0  0  0  0  0  0  0  0  0  0  0
   39.7120   30.8430   37.6710 H   0  0  0  0  0  0  0  0  0  0  0  0
   37.4160   26.4300   39.1700 S   0  0  0  0  0  0  0  0  0  0  0  0
   38.5930   27.0340   39.9150 O   0  0  0  0  0  0  0  0  0  0  0  0
   36.9260   25.2940   40.1100 O   0  0  0  0  0  0  0  0  0  0  0  0
   41.7040   25.2060   36.1720 H   0  0  0  0  0  0  0  0  0  0  0  0
   40.7150   25.2180   36.4330 N   0  0  0  0  0  0  0  0  0  0  0  0
   40.3360   24.3930   37.5490 C   0  0  0  0  0  2  0  0  0  0  0  0
   39.5890   25.2130   38.5260 C   0  0  0  0  0  2  0  0  0  0  0  0
   38.1750   25.5830   37.9310 C   0  0  0  0  0  3  0  0  0  0  0  0
   38.6510   26.3790   36.7190 C   0  0  0  0  0  2  0  0  0  0  0  0
   40.1270   26.5300   36.5920 C   0  0  0  0  0  2  0  0  0  0  0  0
  1 30  1  0  0  0  0
  1  2  1  0  0  0  0
  2 14  1  0  0  0  0
  3  2  2  0  0  0  0
  3  7  1  0  0  0  0
  4  3  1  0  0  0  0
  5  6  1  0  0  0  0
  5  4  2  0  0  0  0
  6  1  2  0  0  0  0
  8  4  1  0  0  0  0
  9  5  1  0  0  0  0
 10  6  1  0  0  0  0
 12 11  1  0  0  0  0
 12 17  1  0  0  0  0
 13 12  2  0  0  0  0
 14 13  1  0  0  0  0
 14 15  2  0  0  0  0
 15 16  1  0  0  0  0
 16 17  2  0  0  0  0
 16 19  1  0  0  0  0
 17 20  1  0  0  0  0
 18 15  1  0  0  0  0
 21 22  1  0  0  0  0
 22 23  2  0  0  0  0
 22 28  1  0  0  0  0
 23 13  1  0  0  0  0
 24 23  1  0  0  0  0
 25 24  2  0  0  0  0
 26 25  1  0  0  0  0
 26 21  2  0  0  0  0
 27 21  1  0  0  0  0
 29 25  1  0  0  0  0
 30 31  2  0  0  0  0
 30 32  2  0  0  0  0
 33 34  1  0  0  0  0
 34 39  1  0  0  0  0
 34 35  1  0  0  0  0
 35 36  1  0  0  0  0
 37 36  1  0  0  0  0
 37 30  1  0  0  0  0
 38 37  1  0  0  0  0
 39 38  1  0  0  0  0
M  END
>  <minimizedAffinity>
-6.10238409

$$$$

 OpenBabel03252509103D

 39 42  0  0  0  0  0  0  0  0999 V2000
   36.7150   29.7510   38.6780 C   0  0  0  0  0  0  0  0  0  0  0  0
   37.3310   30.8200   38.0990 C   0  0  0  0  0  0  0  0  0  0  0  0
   37.3260   30.9320   36.7230 C   0  0  0  0  0  0  0  0  0  0  0  0
   36.7090   29.9800   35.9490 C   0  0  0  0  0  0  0  0  0  0  0  0
   36.0710   28.8800   36.5150 C   0  0  0  0  0  0  0  0  0  0  0  0
   36.0850   28.7800   37.8950 C   0  0  0  0  0  0  0  0  0  0  0  0
   37.8160   31.7810   36.2330 H   0  0  0  0  0  0  0  0  0  0  0  0
   36.7230   30.0950   34.8850 H   0  0  0  0  0  0  0  0  0  0  0  0
   35.5760   28.1130   35.9380 H   0  0  0  0  0  0  0  0  0  0  0  0
   35.5860   27.9180   38.3400 H   0  0  0  0  0  0  0  0  0  0  0  0
   41.6380   32.7380   40.1590 Cl  0  0  0  0  0  0  0  0  0  0  0  0
   39.9430   32.7620   39.7780 C   0  0  0  0  0  0  0  0  0  0  0  0
   39.3670   31.7620   39.0810 C   0  0  0  0  0  0  0  0  0  0  0  0
   38.0040   31.8760   38.8330 C   0  0  0  0  0  0  0  0  0  0  0  0
   37.2690   32.9480   39.2670 C   0  0  0  0  0  0  0  0  0  0  0  0
   37.8670   33.9440   39.9680 C   0  0  0  0  0  0  0  0  0  0  0  0
   39.2160   33.8420   40.2210 C   0  0  0  0  0  0  0  0  0  0  0  0
   36.2100   33.0060   39.0570 H   0  0  0  0  0  0  0  0  0  0  0  0
   37.3210   34.8140   40.3330 H   0  0  0  0  0  0  0  0  0  0  0  0
   39.6890   34.6500   40.7850 H   0  0  0  0  0  0  0  0  0  0  0  0
   41.6260   29.5310   37.0380 C   0  0  0  0  0  0  0  0  0  0  0  0
   40.8460   30.6180   37.4440 C   0  0  0  0  0  0  0  0  0  0  0  0
   40.1730   30.6450   38.6490 C   0  0  0  0  0  0  0  0  0  0  0  0
   40.3270   29.5320   39.4140 N   0  0  0  0  0  0  0  0  0  0  0  0
   41.0740   28.4860   39.0290 C   0  0  0  0  0  0  0  0  0  0  0  0
   41.7150   28.4880   37.8540 N   0  0  0  0  0  0  0  0  0  0  0  0
   42.1480   29.5370   36.0770 H   0  0  0  0  0  0  0  0  0  0  0  0
   40.7820   31.4590   36.7720 H   0  0  0  0  0  0  0  0  0  0  0  0
   41.1490   27.6300   39.6960 H   0  0  0  0  0  0  0  0  0  0  0  0
   36.6630   29.5450   40.3500 S   0  0  0  0  0  0  0  0  0  0  0  0
   35.9700   30.7020   41.0470 O   0  0  0  0  0  0  0  0  0  0  0  0
   35.6790   28.3580   40.5350 O   0  0  0  0  0  0  0  0  0  0  0  0
   38.9040   26.4760   44.1490 H   0  0  0  0  0  0  0  0  0  0  0  0
   38.7930   27.3020   43.5560 N   0  0  0  0  0  0  0  0  0  0  0  0
   39.1640   27.1530   42.1740 C   0  0  0  0  0  2  0  0  0  0  0  0
   38.0460   27.6040   41.3200 C   0  0  0  0  0  2  0  0  0  0  0  0
   37.9010   29.1720   41.4270 C   0  0  0  0  0  3  0  0  0  0  0  0
   37.5910   29.2600   42.9180 C   0  0  0  0  0  2  0  0  0  0  0  0
   37.5060   27.9580   43.6320 C   0  0  0  0  0  2  0  0  0  0  0  0
  1 30  1  0  0  0  0
  2  1  1  0  0  0  0
  2 14  1  0  0  0  0
  3  2  2  0  0  0  0
  4  5  2  0  0  0  0
  4  3  1  0  0  0  0
  5  6  1  0  0  0  0
  6 10  1  0  0  0  0
  6  1  2  0  0  0  0
  7  3  1  0  0  0  0
  8  4  1  0  0  0  0
  9  5  1  0  0  0  0
 12 11  1  0  0  0  0
 12 17  1  0  0  0  0
 13 12  2  0  0  0  0
 14 13  1  0  0  0  0
 14 15  2  0  0  0  0
 15 16  1  0  0  0  0
 16 17  2  0  0  0  0
 16 19  1  0  0  0  0
 17 20  1  0  0  0  0
 18 15  1  0  0  0  0
 21 22  2  0  0  0  0
 21 26  1  0  0  0  0
 22 23  1  0  0  0  0
 23 13  1  0  0  0  0
 23 24  2  0  0  0  0
 25 24  1  0  0  0  0
 25 29  1  0  0  0  0
 26 25  2  0  0  0  0
 27 21  1  0  0  0  0
 28 22  1  0  0  0  0
 30 32  2  0  0  0  0
 30 31  2  0  0  0  0
 30 37  1  0  0  0  0
 34 39  1  0  0  0  0
 34 33  1  0  0  0  0
 35 34  1  0  0  0  0
 36 37  1  0  0  0  0
 36 35  1  0  0  0  0
 37 38  1  0  0  0  0
 38 39  1  0  0  0  0
M  END
>  <minimizedAffinity>
-6.07153988

$$$$

 OpenBabel03252509103D

 39 42  0  0  0  0  0  0  0  0999 V2000
   37.2630   29.6150   39.0320 C   0  0  0  0  0  0  0  0  0  0  0  0
   36.6700   28.7720   39.9240 C   0  0  0  0  0  0  0  0  0  0  0  0
   35.4290   28.2460   39.6250 C   0  0  0  0  0  0  0  0  0  0  0  0
   34.8020   28.5690   38.4470 C   0  0  0  0  0  0  0  0  0  0  0  0
   35.3870   29.4270   37.5190 C   0  0  0  0  0  0  0  0  0  0  0  0
   36.6300   29.9450   37.8310 C   0  0  0  0  0  0  0  0  0  0  0  0
   34.9290   27.5670   40.3250 H   0  0  0  0  0  0  0  0  0  0  0  0
   33.8400   28.1460   38.2440 H   0  0  0  0  0  0  0  0  0  0  0  0
   34.9230   29.7010   36.5820 H   0  0  0  0  0  0  0  0  0  0  0  0
   37.0900   30.6180   37.1060 H   0  0  0  0  0  0  0  0  0  0  0  0
   39.0940   25.2330   42.7660 Cl  0  0  0  0  0  0  0  0  0  0  0  0
   38.3500   26.7810   42.4970 C   0  0  0  0  0  0  0  0  0  0  0  0
   37.8310   27.1100   41.2980 C   0  0  0  0  0  0  0  0  0  0  0  0
   37.2560   28.3710   41.1900 C   0  0  0  0  0  0  0  0  0  0  0  0
   37.2120   29.2480   42.2420 C   0  0  0  0  0  0  0  0  0  0  0  0
   37.7390   28.8960   43.4420 C   0  0  0  0  0  0  0  0  0  0  0  0
   38.3110   27.6510   43.5620 C   0  0  0  0  0  0  0  0  0  0  0  0
   36.7570   30.2220   42.1250 H   0  0  0  0  0  0  0  0  0  0  0  0
   37.7250   29.5620   44.3060 H   0  0  0  0  0  0  0  0  0  0  0  0
   38.7340   27.3770   44.5320 H   0  0  0  0  0  0  0  0  0  0  0  0
   36.9930   24.2690   38.9570 C   0  0  0  0  0  0  0  0  0  0  0  0
   36.9270   25.1870   40.0100 C   0  0  0  0  0  0  0  0  0  0  0  0
   37.8880   26.1560   40.2160 C   0  0  0  0  0  0  0  0  0  0  0  0
   38.9070   26.1510   39.3160 N   0  0  0  0  0  0  0  0  0  0  0  0
   38.9740   25.2730   38.3040 C   0  0  0  0  0  0  0  0  0  0  0  0
   38.0280   24.3440   38.1290 N   0  0  0  0  0  0  0  0  0  0  0  0
   36.2170   23.5120   38.8180 H   0  0  0  0  0  0  0  0  0  0  0  0
   36.0820   25.1150   40.6750 H   0  0  0  0  0  0  0  0  0  0  0  0
   39.8210   25.3320   37.6230 H   0  0  0  0  0  0  0  0  0  0  0  0
   38.7830   30.2890   39.3130 S   0  0  0  0  0  0  0  0  0  0  0  0
   39.8610   29.2290   39.4540 O   0  0  0  0  0  0  0  0  0  0  0  0
   39.1220   30.9840   37.9660 O   0  0  0  0  0  0  0  0  0  0  0  0
   40.7300   35.1020   40.6980 H   0  0  0  0  0  0  0  0  0  0  0  0
   40.4330   34.1340   40.8430 N   0  0  0  0  0  0  0  0  0  0  0  0
   39.0150   33.8890   40.8250 C   0  0  0  0  0  2  0  0  0  0  0  0
   38.7230   32.8000   39.8710 C   0  0  0  0  0  2  0  0  0  0  0  0
   39.2580   31.4340   40.4510 C   0  0  0  0  0  3  0  0  0  0  0  0
   40.7400   31.7910   40.5170 C   0  0  0  0  0  2  0  0  0  0  0  0
   41.0940   33.1470   40.0170 C   0  0  0  0  0  2  0  0  0  0  0  0
  1 30  1  0  0  0  0
  1  2  1  0  0  0  0
  2 14  1  0  0  0  0
  3  2  2  0  0  0  0
  3  7  1  0  0  0  0
  4  3  1  0  0  0  0
  5  6  1  0  0  0  0
  5  4  2  0  0  0  0
  6  1  2  0  0  0  0
  8  4  1  0  0  0  0
  9  5  1  0  0  0  0
 10  6  1  0  0  0  0
 12 11  1  0  0  0  0
 12 17  1  0  0  0  0
 13 12  2  0  0  0  0
 14 13  1  0  0  0  0
 14 15  2  0  0  0  0
 15 16  1  0  0  0  0
 16 17  2  0  0  0  0
 16 19  1  0  0  0  0
 17 20  1  0  0  0  0
 18 15  1  0  0  0  0
 21 22  1  0  0  0  0
 22 23  2  0  0  0  0
 22 28  1  0  0  0  0
 23 13  1  0  0  0  0
 24 23  1  0  0  0  0
 25 24  2  0  0  0  0
 26 25  1  0  0  0  0
 26 21  2  0  0  0  0
 27 21  1  0  0  0  0
 29 25  1  0  0  0  0
 30 31  2  0  0  0  0
 30 37  1  0  0  0  0
 32 30  2  0  0  0  0
 33 34  1  0  0  0  0
 35 34  1  0  0  0  0
 36 37  1  0  0  0  0
 36 35  1  0  0  0  0
 37 38  1  0  0  0  0
 39 38  1  0  0  0  0
 39 34  1  0  0  0  0
M  END
>  <minimizedAffinity>
-6.03585863

$$$$

 OpenBabel03252509103D

 39 42  0  0  0  0  0  0  0  0999 V2000
   37.3040   28.3480   38.7560 C   0  0  0  0  0  0  0  0  0  0  0  0
   36.9560   27.3820   39.6520 C   0  0  0  0  0  0  0  0  0  0  0  0
   36.1850   26.3190   39.2260 C   0  0  0  0  0  0  0  0  0  0  0  0
   35.7730   26.2380   37.9180 C   0  0  0  0  0  0  0  0  0  0  0  0
   36.1160   27.2110   36.9830 C   0  0  0  0  0  0  0  0  0  0  0  0
   36.8890   28.2700   37.4240 C   0  0  0  0  0  0  0  0  0  0  0  0
   35.8900   25.5290   39.9260 H   0  0  0  0  0  0  0  0  0  0  0  0
   35.1760   25.4020   37.6180 H   0  0  0  0  0  0  0  0  0  0  0  0
   35.8120   27.1790   35.9470 H   0  0  0  0  0  0  0  0  0  0  0  0
   37.1580   29.0330   36.6920 H   0  0  0  0  0  0  0  0  0  0  0  0
   40.0300   25.6500   43.3970 Cl  0  0  0  0  0  0  0  0  0  0  0  0
   38.7240   26.6050   42.7630 C   0  0  0  0  0  0  0  0  0  0  0  0
   38.4100   26.5820   41.4530 C   0  0  0  0  0  0  0  0  0  0  0  0
   37.3460   27.3800   41.0500 C   0  0  0  0  0  0  0  0  0  0  0  0
   36.6420   28.1600   41.9300 C   0  0  0  0  0  0  0  0  0  0  0  0
   36.9740   28.1690   43.2450 C   0  0  0  0  0  0  0  0  0  0  0  0
   38.0250   27.3830   43.6580 C   0  0  0  0  0  0  0  0  0  0  0  0
   35.8200   28.7710   41.5840 H   0  0  0  0  0  0  0  0  0  0  0  0
   36.4410   28.7740   43.9800 H   0  0  0  0  0  0  0  0  0  0  0  0
   38.2850   27.3980   44.7180 H   0  0  0  0  0  0  0  0  0  0  0  0
   39.5630   23.6310   39.3980 C   0  0  0  0  0  0  0  0  0  0  0  0
   38.8200   24.4360   40.2680 C   0  0  0  0  0  0  0  0  0  0  0  0
   39.1680   25.7400   40.5590 C   0  0  0  0  0  0  0  0  0  0  0  0
   40.2900   26.1840   39.9340 N   0  0  0  0  0  0  0  0  0  0  0  0
   41.0060   25.4160   39.0980 C   0  0  0  0  0  0  0  0  0  0  0  0
   40.6450   24.1550   38.8360 N   0  0  0  0  0  0  0  0  0  0  0  0
   39.2630   22.6010   39.1870 H   0  0  0  0  0  0  0  0  0  0  0  0
   37.9440   23.9980   40.7190 H   0  0  0  0  0  0  0  0  0  0  0  0
   41.8940   25.8430   38.6350 H   0  0  0  0  0  0  0  0  0  0  0  0
   38.2540   29.6700   39.1900 S   0  0  0  0  0  0  0  0  0  0  0  0
   39.6380   29.2530   39.6530 O   0  0  0  0  0  0  0  0  0  0  0  0
   38.5180   30.3840   37.8360 O   0  0  0  0  0  0  0  0  0  0  0  0
   39.1740   34.5870   41.1550 H   0  0  0  0  0  0  0  0  0  0  0  0
   38.7540   33.6550   41.1190 N   0  0  0  0  0  0  0  0  0  0  0  0
   37.7550   33.4420   40.1050 C   0  0  0  0  0  2  0  0  0  0  0  0
   38.1060   32.2360   39.3260 C   0  0  0  0  0  2  0  0  0  0  0  0
   37.9060   30.9530   40.2220 C   0  0  0  0  0  3  0  0  0  0  0  0
   38.9270   31.2840   41.3070 C   0  0  0  0  0  2  0  0  0  0  0  0
   39.6850   32.5490   41.1070 C   0  0  0  0  0  2  0  0  0  0  0  0
  1 30  1  0  0  0  0
  1  2  1  0  0  0  0
  2 14  1  0  0  0  0
  3  2  2  0  0  0  0
  3  7  1  0  0  0  0
  4  3  1  0  0  0  0
  5  6  1  0  0  0  0
  5  4  2  0  0  0  0
  6  1  2  0  0  0  0
  8  4  1  0  0  0  0
  9  5  1  0  0  0  0
 10  6  1  0  0  0  0
 12 11  1  0  0  0  0
 12 17  1  0  0  0  0
 13 12  2  0  0  0  0
 14 13  1  0  0  0  0
 14 15  2  0  0  0  0
 15 16  1  0  0  0  0
 16 17  2  0  0  0  0
 16 19  1  0  0  0  0
 17 20  1  0  0  0  0
 18 15  1  0  0  0  0
 21 22  1  0  0  0  0
 22 23  2  0  0  0  0
 22 28  1  0  0  0  0
 23 13  1  0  0  0  0
 24 23  1  0  0  0  0
 25 24  2  0  0  0  0
 26 25  1  0  0  0  0
 26 21  2  0  0  0  0
 27 21  1  0  0  0  0
 29 25  1  0  0  0  0
 30 31  2  0  0  0  0
 30 37  1  0  0  0  0
 32 30  2  0  0  0  0
 34 33  1  0  0  0  0
 35 34  1  0  0  0  0
 36 35  1  0  0  0  0
 36 37  1  0  0  0  0
 37 38  1  0  0  0  0
 39 34  1  0  0  0  0
 39 38  1  0  0  0  0
M  END
>  <minimizedAffinity>
-5.82671642

$$$$

 OpenBabel03252509103D

 39 42  0  0  0  0  0  0  0  0999 V2000
   37.8400   28.7790   41.4920 C   0  0  0  0  0  0  0  0  0  0  0  0
   36.9400   27.9240   40.9290 C   0  0  0  0  0  0  0  0  0  0  0  0
   35.7980   28.4400   40.3480 C   0  0  0  0  0  0  0  0  0  0  0  0
   35.5740   29.7950   40.3390 C   0  0  0  0  0  0  0  0  0  0  0  0
   36.4780   30.6900   40.9060 C   0  0  0  0  0  0  0  0  0  0  0  0
   37.6160   30.1580   41.4840 C   0  0  0  0  0  0  0  0  0  0  0  0
   35.0580   27.7750   39.8900 H   0  0  0  0  0  0  0  0  0  0  0  0
   34.6790   30.1650   39.8820 H   0  0  0  0  0  0  0  0  0  0  0  0
   36.3340   31.7600   40.9150 H   0  0  0  0  0  0  0  0  0  0  0  0
   38.3260   30.8580   41.9290 H   0  0  0  0  0  0  0  0  0  0  0  0
   38.2940   23.6800   38.3550 Cl  0  0  0  0  0  0  0  0  0  0  0  0
   37.6960   24.5450   39.7390 C   0  0  0  0  0  0  0  0  0  0  0  0
   37.5850   25.8890   39.7320 C   0  0  0  0  0  0  0  0  0  0  0  0
   37.0920   26.4820   40.8870 C   0  0  0  0  0  0  0  0  0  0  0  0
   36.7340   25.7510   41.9900 C   0  0  0  0  0  0  0  0  0  0  0  0
   36.8520   24.3990   41.9760 C   0  0  0  0  0  0  0  0  0  0  0  0
   37.3390   23.7990   40.8380 C   0  0  0  0  0  0  0  0  0  0  0  0
   36.3540   26.2430   42.8740 H   0  0  0  0  0  0  0  0  0  0  0  0
   36.5780   23.7780   42.8300 H   0  0  0  0  0  0  0  0  0  0  0  0
   37.4310   22.7100   40.8370 H   0  0  0  0  0  0  0  0  0  0  0  0
   39.5710   27.8880   37.2180 C   0  0  0  0  0  0  0  0  0  0  0  0
   39.2150   27.1800   38.3700 C   0  0  0  0  0  0  0  0  0  0  0  0
   37.9640   26.6230   38.5480 C   0  0  0  0  0  0  0  0  0  0  0  0
   37.1020   26.8140   37.5150 N   0  0  0  0  0  0  0  0  0  0  0  0
   37.4380   27.4920   36.4070 C   0  0  0  0  0  0  0  0  0  0  0  0
   38.6580   28.0220   36.2630 N   0  0  0  0  0  0  0  0  0  0  0  0
   40.5690   28.3180   37.1050 H   0  0  0  0  0  0  0  0  0  0  0  0
   39.9650   27.0780   39.1380 H   0  0  0  0  0  0  0  0  0  0  0  0
   36.6930   27.6040   35.6220 H   0  0  0  0  0  0  0  0  0  0  0  0
   39.2640   28.2330   42.2090 S   0  0  0  0  0  0  0  0  0  0  0  0
   40.3030   29.3340   42.3270 O   0  0  0  0  0  0  0  0  0  0  0  0
   38.8450   27.9610   43.6800 O   0  0  0  0  0  0  0  0  0  0  0  0
   42.7710   24.3740   43.5070 H   0  0  0  0  0  0  0  0  0  0  0  0
   42.2060   24.9570   42.8840 N   0  0  0  0  0  0  0  0  0  0  0  0
   40.7920   24.6920   42.8650 C   0  0  0  0  0  2  0  0  0  0  0  0
   40.0590   25.9540   43.0990 C   0  0  0  0  0  2  0  0  0  0  0  0
   40.2090   26.8910   41.8380 C   0  0  0  0  0  3  0  0  0  0  0  0
   41.7240   27.0620   41.8730 C   0  0  0  0  0  2  0  0  0  0  0  0
   42.4200   26.3830   42.9990 C   0  0  0  0  0  2  0  0  0  0  0  0
  1 30  1  0  0  0  0
  2  1  2  0  0  0  0
  3  2  1  0  0  0  0
  4  3  2  0  0  0  0
  4  5  1  0  0  0  0
  5  9  1  0  0  0  0
  5  6  2  0  0  0  0
  6  1  1  0  0  0  0
  6 10  1  0  0  0  0
  7  3  1  0  0  0  0
  8  4  1  0  0  0  0
 11 12  1  0  0  0  0
 12 17  1  0  0  0  0
 13 12  2  0  0  0  0
 13 14  1  0  0  0  0
 14  2  1  0  0  0  0
 14 15  2  0  0  0  0
 15 18  1  0  0  0  0
 16 15  1  0  0  0  0
 16 19  1  0  0  0  0
 17 16  2  0  0  0  0
 20 17  1  0  0  0  0
 21 22  1  0  0  0  0
 22 23  2  0  0  0  0
 22 28  1  0  0  0  0
 23 13  1  0  0  0  0
 24 23  1  0  0  0  0
 25 24  2  0  0  0  0
 26 25  1  0  0  0  0
 26 21  2  0  0  0  0
 27 21  1  0  0  0  0
 29 25  1  0  0  0  0
 30 31  2  0  0  0  0
 30 32  2  0  0  0  0
 34 39  1  0  0  0  0
 34 33  1  0  0  0  0
 35 34  1  0  0  0  0
 35 36  1  0  0  0  0
 37 38  1  0  0  0  0
 37 30  1  0  0  0  0
 37 36  1  0  0  0  0
 38 39  1  0  0  0  0
M  END
>  <minimizedAffinity>
-5.81522799

$$$$

 OpenBabel03252509103D

 39 42  0  0  0  0  0  0  0  0999 V2000
   36.8180   28.1110   38.8690 C   0  0  0  0  0  0  0  0  0  0  0  0
   37.0910   28.9170   39.9350 C   0  0  0  0  0  0  0  0  0  0  0  0
   36.9850   30.2860   39.7840 C   0  0  0  0  0  0  0  0  0  0  0  0
   36.6110   30.8260   38.5780 C   0  0  0  0  0  0  0  0  0  0  0  0
   36.3250   30.0250   37.4760 C   0  0  0  0  0  0  0  0  0  0  0  0
   36.4360   28.6560   37.6410 C   0  0  0  0  0  0  0  0  0  0  0  0
   37.2000   30.9560   40.6230 H   0  0  0  0  0  0  0  0  0  0  0  0
   36.5380   31.8900   38.4920 H   0  0  0  0  0  0  0  0  0  0  0  0
   36.0270   30.4150   36.5140 H   0  0  0  0  0  0  0  0  0  0  0  0
   36.2130   28.0270   36.7780 H   0  0  0  0  0  0  0  0  0  0  0  0
   40.8150   27.7790   43.2970 Cl  0  0  0  0  0  0  0  0  0  0  0  0
   39.1600   27.9120   42.7830 C   0  0  0  0  0  0  0  0  0  0  0  0
   38.8410   28.3760   41.5580 C   0  0  0  0  0  0  0  0  0  0  0  0
   37.4890   28.4390   41.2460 C   0  0  0  0  0  0  0  0  0  0  0  0
   36.5150   28.0540   42.1290 C   0  0  0  0  0  0  0  0  0  0  0  0
   36.8560   27.5890   43.3580 C   0  0  0  0  0  0  0  0  0  0  0  0
   38.1930   27.5210   43.6800 C   0  0  0  0  0  0  0  0  0  0  0  0
   35.4710   28.1160   41.8550 H   0  0  0  0  0  0  0  0  0  0  0  0
   36.1150   27.2710   44.0920 H   0  0  0  0  0  0  0  0  0  0  0  0
   38.4580   27.1470   44.6710 H   0  0  0  0  0  0  0  0  0  0  0  0
   41.4250   30.4070   39.7000 C   0  0  0  0  0  0  0  0  0  0  0  0
   40.4010   30.0460   40.5810 C   0  0  0  0  0  0  0  0  0  0  0  0
   39.8960   28.7630   40.6520 C   0  0  0  0  0  0  0  0  0  0  0  0
   40.4710   27.8740   39.7990 N   0  0  0  0  0  0  0  0  0  0  0  0
   41.4540   28.2160   38.9520 C   0  0  0  0  0  0  0  0  0  0  0  0
   41.9240   29.4680   38.9050 N   0  0  0  0  0  0  0  0  0  0  0  0
   41.8050   31.4320   39.6660 H   0  0  0  0  0  0  0  0  0  0  0  0
   40.0050   30.8170   41.2220 H   0  0  0  0  0  0  0  0  0  0  0  0
   41.8650   27.4490   38.2990 H   0  0  0  0  0  0  0  0  0  0  0  0
   36.9100   26.4320   38.9720 S   0  0  0  0  0  0  0  0  0  0  0  0
   35.8330   25.7480   38.1490 O   0  0  0  0  0  0  0  0  0  0  0  0
   38.2240   26.0960   38.2150 O   0  0  0  0  0  0  0  0  0  0  0  0
   38.6680   22.0700   41.5730 H   0  0  0  0  0  0  0  0  0  0  0  0
   38.0920   22.9010   41.4200 N   0  0  0  0  0  0  0  0  0  0  0  0
   38.7450   24.1730   41.5870 C   0  0  0  0  0  2  0  0  0  0  0  0
   38.5150   24.9980   40.3830 C   0  0  0  0  0  2  0  0  0  0  0  0
   37.0010   25.4410   40.3290 C   0  0  0  0  0  3  0  0  0  0  0  0
   36.3720   24.0540   40.2350 C   0  0  0  0  0  2  0  0  0  0  0  0
   37.3320   22.9180   40.1890 C   0  0  0  0  0  2  0  0  0  0  0  0
  1 30  1  0  0  0  0
  1  2  1  0  0  0  0
  2 14  1  0  0  0  0
  3  2  2  0  0  0  0
  3  7  1  0  0  0  0
  4  3  1  0  0  0  0
  5  6  1  0  0  0  0
  5  4  2  0  0  0  0
  6  1  2  0  0  0  0
  8  4  1  0  0  0  0
  9  5  1  0  0  0  0
 10  6  1  0  0  0  0
 12 11  1  0  0  0  0
 12 17  1  0  0  0  0
 13 12  2  0  0  0  0
 14 13  1  0  0  0  0
 14 15  2  0  0  0  0
 15 16  1  0  0  0  0
 16 17  2  0  0  0  0
 16 19  1  0  0  0  0
 17 20  1  0  0  0  0
 18 15  1  0  0  0  0
 21 22  1  0  0  0  0
 22 23  2  0  0  0  0
 22 28  1  0  0  0  0
 23 13  1  0  0  0  0
 24 23  1  0  0  0  0
 25 24  2  0  0  0  0
 26 25  1  0  0  0  0
 26 21  2  0  0  0  0
 27 21  1  0  0  0  0
 29 25  1  0  0  0  0
 30 37  1  0  0  0  0
 31 30  2  0  0  0  0
 32 30  2  0  0  0  0
 34 33  1  0  0  0  0
 34 35  1  0  0  0  0
 36 35  1  0  0  0  0
 37 36  1  0  0  0  0
 38 37  1  0  0  0  0
 39 38  1  0  0  0  0
 39 34  1  0  0  0  0
M  END
>  <minimizedAffinity>
-5.80463171

$$$$
