
 OpenBabel03252509083D

 39 42  0  0  0  0  0  0  0  0999 V2000
   47.5200   31.6850   39.1710 C   0  0  0  0  0  0  0  0  0  0  0  0
   47.1070   32.9790   39.0590 C   0  0  0  0  0  0  0  0  0  0  0  0
   47.7790   33.8240   38.1980 C   0  0  0  0  0  0  0  0  0  0  0  0
   48.8470   33.3670   37.4660 C   0  0  0  0  0  0  0  0  0  0  0  0
   49.2870   32.0490   37.5610 C   0  0  0  0  0  0  0  0  0  0  0  0
   48.6050   31.2140   38.4270 C   0  0  0  0  0  0  0  0  0  0  0  0
   47.4680   34.8690   38.0910 H   0  0  0  0  0  0  0  0  0  0  0  0
   49.3470   34.0460   36.8070 H   0  0  0  0  0  0  0  0  0  0  0  0
   50.1220   31.6560   37.0000 H   0  0  0  0  0  0  0  0  0  0  0  0
   48.9490   30.1810   38.5030 H   0  0  0  0  0  0  0  0  0  0  0  0
   45.3340   35.6060   43.1120 Cl  0  0  0  0  0  0  0  0  0  0  0  0
   45.1640   34.7340   41.6180 C   0  0  0  0  0  0  0  0  0  0  0  0
   46.2360   34.2340   40.9720 C   0  0  0  0  0  0  0  0  0  0  0  0
   45.9900   33.5500   39.7880 C   0  0  0  0  0  0  0  0  0  0  0  0
   44.7250   33.3860   39.2860 C   0  0  0  0  0  0  0  0  0  0  0  0
   43.6590   33.8970   39.9520 C   0  0  0  0  0  0  0  0  0  0  0  0
   43.8880   34.5760   41.1270 C   0  0  0  0  0  0  0  0  0  0  0  0
   44.5670   32.8490   38.3610 H   0  0  0  0  0  0  0  0  0  0  0  0
   42.6350   33.7900   39.5910 H   0  0  0  0  0  0  0  0  0  0  0  0
   43.0240   34.9840   41.6550 H   0  0  0  0  0  0  0  0  0  0  0  0
   49.5670   35.7380   41.9180 C   0  0  0  0  0  0  0  0  0  0  0  0
   48.2950   35.5700   41.3640 C   0  0  0  0  0  0  0  0  0  0  0  0
   47.5510   34.4190   41.5370 C   0  0  0  0  0  0  0  0  0  0  0  0
   48.1510   33.4590   42.2880 N   0  0  0  0  0  0  0  0  0  0  0  0
   49.3720   33.6160   42.8230 C   0  0  0  0  0  0  0  0  0  0  0  0
   50.0700   34.7430   42.6380 N   0  0  0  0  0  0  0  0  0  0  0  0
   50.1330   36.6610   41.7640 H   0  0  0  0  0  0  0  0  0  0  0  0
   47.8980   36.3860   40.7810 H   0  0  0  0  0  0  0  0  0  0  0  0
   49.7880   32.8020   43.4140 H   0  0  0  0  0  0  0  0  0  0  0  0
   46.7480   30.5840   40.1880 S   0  0  0  0  0  0  0  0  0  0  0  0
   45.5840   29.8910   39.5020 O   0  0  0  0  0  0  0  0  0  0  0  0
   47.8010   29.4550   40.3620 O   0  0  0  0  0  0  0  0  0  0  0  0
   45.3990   28.7370   45.0500 H   0  0  0  0  0  0  0  0  0  0  0  0
   45.4490   29.4150   44.2860 N   0  0  0  0  0  0  0  0  0  0  0  0
   46.7310   30.0300   44.0600 C   0  0  0  0  0  2  0  0  0  0  0  0
   47.0980   29.8780   42.6370 C   0  0  0  0  0  2  0  0  0  0  0  0
   46.1650   30.7920   41.7530 C   0  0  0  0  0  3  0  0  0  0  0  0
   44.8290   30.1400   42.1010 C   0  0  0  0  0  2  0  0  0  0  0  0
   44.9080   28.9730   43.0210 C   0  0  0  0  0  2  0  0  0  0  0  0
  1 30  1  0  0  0  0
  2  1  1  0  0  0  0
  2 14  1  0  0  0  0
  3  2  2  0  0  0  0
  4  5  2  0  0  0  0
  4  3  1  0  0  0  0
  5  6  1  0  0  0  0
  6 10  1  0  0  0  0
  6  1  2  0  0  0  0
  7  3  1  0  0  0  0
  8  4  1  0  0  0  0
  9  5  1  0  0  0  0
 12 11  1  0  0  0  0
 13 23  1  0  0  0  0
 13 12  2  0  0  0  0
 14 13  1  0  0  0  0
 15 14  2  0  0  0  0
 15 16  1  0  0  0  0
 16 17  2  0  0  0  0
 17 12  1  0  0  0  0
 17 20  1  0  0  0  0
 18 15  1  0  0  0  0
 19 16  1  0  0  0  0
 21 26  1  0  0  0  0
 22 23  1  0  0  0  0
 22 21  2  0  0  0  0
 23 24  2  0  0  0  0
 24 25  1  0  0  0  0
 25 29  1  0  0  0  0
 26 25  2  0  0  0  0
 27 21  1  0  0  0  0
 28 22  1  0  0  0  0
 30 32  2  0  0  0  0
 30 37  1  0  0  0  0
 31 30  2  0  0  0  0
 34 33  1  0  0  0  0
 35 34  1  0  0  0  0
 36 35  1  0  0  0  0
 37 38  1  0  0  0  0
 37 36  1  0  0  0  0
 38 39  1  0  0  0  0
 39 34  1  0  0  0  0
M  END
>  <minimizedAffinity>
-4.58783484

>  <minimizedRMSD>
1.09899175

$$$$
