
 OpenBabel03252509083D

 39 42  0  0  0  0  0  0  0  0999 V2000
   47.6570   31.8460   38.9640 C   0  0  0  0  0  0  0  0  0  0  0  0
   47.1740   33.1210   38.9380 C   0  0  0  0  0  0  0  0  0  0  0  0
   47.7800   34.0500   38.1170 C   0  0  0  0  0  0  0  0  0  0  0  0
   48.8540   33.6950   37.3380 C   0  0  0  0  0  0  0  0  0  0  0  0
   49.3650   32.4000   37.3440 C   0  0  0  0  0  0  0  0  0  0  0  0
   48.7480   31.4800   38.1720 C   0  0  0  0  0  0  0  0  0  0  0  0
   47.4130   35.0820   38.0790 H   0  0  0  0  0  0  0  0  0  0  0  0
   49.3030   34.4390   36.7120 H   0  0  0  0  0  0  0  0  0  0  0  0
   50.2070   32.0860   36.7440 H   0  0  0  0  0  0  0  0  0  0  0  0
   49.1480   30.4640   38.1790 H   0  0  0  0  0  0  0  0  0  0  0  0
   45.3540   35.3560   43.1990 Cl  0  0  0  0  0  0  0  0  0  0  0  0
   45.1980   34.5930   41.6460 C   0  0  0  0  0  0  0  0  0  0  0  0
   46.2800   34.1890   40.9510 C   0  0  0  0  0  0  0  0  0  0  0  0
   46.0440   33.5870   39.7210 C   0  0  0  0  0  0  0  0  0  0  0  0
   44.7800   33.4060   39.2240 C   0  0  0  0  0  0  0  0  0  0  0  0
   43.7040   33.8190   39.9400 C   0  0  0  0  0  0  0  0  0  0  0  0
   43.9230   34.4170   41.1600 C   0  0  0  0  0  0  0  0  0  0  0  0
   44.6310   32.9340   38.2630 H   0  0  0  0  0  0  0  0  0  0  0  0
   42.6800   33.6950   39.5840 H   0  0  0  0  0  0  0  0  0  0  0  0
   43.0500   34.7470   41.7280 H   0  0  0  0  0  0  0  0  0  0  0  0
   49.5830   35.7420   41.9180 C   0  0  0  0  0  0  0  0  0  0  0  0
   48.3100   35.5600   41.3680 C   0  0  0  0  0  0  0  0  0  0  0  0
   47.5950   34.3880   41.5120 C   0  0  0  0  0  0  0  0  0  0  0  0
   48.2220   33.4210   42.2320 N   0  0  0  0  0  0  0  0  0  0  0  0
   49.4430   33.5900   42.7620 C   0  0  0  0  0  0  0  0  0  0  0  0
   50.1130   34.7370   42.6060 N   0  0  0  0  0  0  0  0  0  0  0  0
   50.1260   36.6810   41.7880 H   0  0  0  0  0  0  0  0  0  0  0  0
   47.8910   36.3830   40.8120 H   0  0  0  0  0  0  0  0  0  0  0  0
   49.8810   32.7690   43.3260 H   0  0  0  0  0  0  0  0  0  0  0  0
   46.9660   30.6470   39.9270 S   0  0  0  0  0  0  0  0  0  0  0  0
   46.9900   29.2870   39.2520 O   0  0  0  0  0  0  0  0  0  0  0  0
   47.9780   30.4990   41.0960 O   0  0  0  0  0  0  0  0  0  0  0  0
   43.7500   29.1940   43.9790 H   0  0  0  0  0  0  0  0  0  0  0  0
   43.9860   29.5740   43.0600 N   0  0  0  0  0  0  0  0  0  0  0  0
   44.6130   30.8690   43.0450 C   0  0  0  0  0  2  0  0  0  0  0  0
   45.8520   30.8000   42.2400 C   0  0  0  0  0  2  0  0  0  0  0  0
   45.4810   30.6260   40.7170 C   0  0  0  0  0  3  0  0  0  0  0  0
   44.7560   29.2860   40.8210 C   0  0  0  0  0  2  0  0  0  0  0  0
   44.7140   28.6850   42.1820 C   0  0  0  0  0  2  0  0  0  0  0  0
  1 30  1  0  0  0  0
  2  1  1  0  0  0  0
  2 14  1  0  0  0  0
  3  2  2  0  0  0  0
  4  5  2  0  0  0  0
  4  3  1  0  0  0  0
  5  6  1  0  0  0  0
  6 10  1  0  0  0  0
  6  1  2  0  0  0  0
  7  3  1  0  0  0  0
  8  4  1  0  0  0  0
  9  5  1  0  0  0  0
 12 11  1  0  0  0  0
 13 23  1  0  0  0  0
 13 12  2  0  0  0  0
 14 13  1  0  0  0  0
 15 14  2  0  0  0  0
 15 16  1  0  0  0  0
 16 17  2  0  0  0  0
 17 12  1  0  0  0  0
 17 20  1  0  0  0  0
 18 15  1  0  0  0  0
 19 16  1  0  0  0  0
 21 26  1  0  0  0  0
 22 23  1  0  0  0  0
 22 21  2  0  0  0  0
 23 24  2  0  0  0  0
 24 25  1  0  0  0  0
 25 29  1  0  0  0  0
 26 25  2  0  0  0  0
 27 21  1  0  0  0  0
 28 22  1  0  0  0  0
 30 37  1  0  0  0  0
 30 32  2  0  0  0  0
 31 30  2  0  0  0  0
 34 33  1  0  0  0  0
 35 34  1  0  0  0  0
 36 35  1  0  0  0  0
 37 38  1  0  0  0  0
 37 36  1  0  0  0  0
 38 39  1  0  0  0  0
 39 34  1  0  0  0  0
M  END
>  <minimizedAffinity>
-4.65451431

>  <minimizedRMSD>
0.992297292

$$$$
