
 OpenBabel03242513433D

 38 41  0  0  0  0  0  0  0  0999 V2000
   39.7920   30.1070   39.9800 C   0  0  0  0  0  0  0  0  0  0  0  0
   38.5490   29.6820   40.3830 C   0  0  0  0  0  0  0  0  0  0  0  0
   37.5650   30.6220   40.5040 C   0  0  0  0  0  0  0  0  0  0  0  0
   37.7690   31.9670   40.2410 C   0  0  0  0  0  0  0  0  0  0  0  0
   37.0570   33.1150   40.2570 N   0  0  0  0  0  0  0  0  0  0  0  0
   37.8200   34.1610   39.8900 C   0  0  0  0  0  0  0  0  0  0  0  0
   39.0320   33.6610   39.6380 N   0  0  0  0  0  0  0  0  0  0  0  0
   39.0380   32.3250   39.8430 C   0  0  0  0  0  0  0  0  0  0  0  0
   40.0600   31.4350   39.7030 C   0  0  0  0  0  0  0  0  0  0  0  0
   40.5700   29.3610   39.8850 H   0  0  0  0  0  0  0  0  0  0  0  0
   36.5710   30.3410   40.8170 H   0  0  0  0  0  0  0  0  0  0  0  0
   36.0380   33.1360   40.5300 H   0  0  0  0  0  0  0  0  0  0  0  0
   37.4780   35.2000   39.8220 H   0  0  0  0  0  0  0  0  0  0  0  0
   38.4020   26.4490   42.0890 C   0  0  0  0  0  0  0  0  0  0  0  0
   37.7740   25.6290   41.1580 C   0  0  0  0  0  0  0  0  0  0  0  0
   37.4110   26.2210   39.9450 C   0  0  0  0  0  0  0  0  0  0  0  0
   37.6740   27.5380   39.7190 N   0  0  0  0  0  0  0  0  0  0  0  0
   38.2880   28.2740   40.6710 C   0  0  0  0  0  0  0  0  0  0  0  0
   38.6500   27.7550   41.8370 N   0  0  0  0  0  0  0  0  0  0  0  0
   38.7360   26.1140   43.0760 H   0  0  0  0  0  0  0  0  0  0  0  0
   36.9310   25.5740   39.2440 H   0  0  0  0  0  0  0  0  0  0  0  0
   37.5470   24.2140   41.5280 C   0  0  0  0  0  0  0  0  0  0  0  0
   36.1740   24.0580   41.5540 F   0  0  0  0  0  0  0  0  0  0  0  0
   38.0870   23.9880   42.7530 F   0  0  0  0  0  0  0  0  0  0  0  0
   38.1600   23.4160   40.5540 F   0  0  0  0  0  0  0  0  0  0  0  0
   41.3100   31.8570   39.3000 O   0  0  0  0  0  0  0  0  0  0  0  0
   42.1130   33.8410   37.8420 O   0  0  0  0  0  0  0  0  0  0  0  0
   41.6870   32.3640   37.7260 P   0  0  2  0  0  0  0  0  0  0  0  0
   40.2600   32.3350   36.8120 O   0  0  0  0  0  0  0  0  0  0  0  0
   40.4540   32.4560   35.8570 H   0  0  0  0  0  0  0  0  0  0  0  0
   42.8980   31.5010   36.9840 O   0  0  0  0  0  0  0  0  0  0  0  0
   44.6450   27.3520   37.1180 H   0  0  0  0  0  0  0  0  0  0  0  0
   44.1920   27.9060   36.3520 N   0  0  0  0  0  0  0  0  0  0  0  0
   42.7460   27.9200   36.4820 C   0  0  0  0  0  2  0  0  0  0  0  0
   42.2600   29.1880   37.1510 C   0  0  0  0  0  2  0  0  0  0  0  0
   42.4920   30.4090   36.2500 C   0  0  0  0  0  3  0  0  0  0  0  0
   43.6610   30.0160   35.3680 C   0  0  0  0  0  2  0  0  0  0  0  0
   44.6230   29.2720   36.3040 C   0  0  0  0  0  2  0  0  0  0  0  0
  1  2  1  0  0  0  0
  2  3  2  0  0  0  0
  2 18  1  0  0  0  0
  3 11  1  0  0  0  0
  4  5  1  0  0  0  0
  4  3  1  0  0  0  0
  5 12  1  0  0  0  0
  6  5  1  0  0  0  0
  7  8  1  0  0  0  0
  7  6  2  0  0  0  0
  8  4  2  0  0  0  0
  9  8  1  0  0  0  0
  9  1  2  0  0  0  0
 10  1  1  0  0  0  0
 13  6  1  0  0  0  0
 14 20  1  0  0  0  0
 15 22  1  0  0  0  0
 15 14  2  0  0  0  0
 16 15  1  0  0  0  0
 17 16  2  0  0  0  0
 17 18  1  0  0  0  0
 18 19  2  0  0  0  0
 19 14  1  0  0  0  0
 21 16  1  0  0  0  0
 22 23  1  0  0  0  0
 22 24  1  0  0  0  0
 25 22  1  0  0  0  0
 26  9  1  0  0  0  0
 28 27  2  1  0  0  0
 28 26  1  0  0  0  0
 29 28  1  0  0  0  0
 30 29  1  0  0  0  0
 31 28  1  0  0  0  0
 33 34  1  0  0  0  0
 33 32  1  0  0  0  0
 34 35  1  0  0  0  0
 36 31  1  0  0  0  0
 36 35  1  0  0  0  0
 37 36  1  0  0  0  0
 37 38  1  0  0  0  0
 38 33  1  0  0  0  0
M  END
>  <minimizedAffinity>
-6.34909391

$$$$

 OpenBabel03242513433D

 38 41  0  0  0  0  0  0  0  0999 V2000
   34.3600   28.8310   38.6910 C   0  0  0  0  0  0  0  0  0  0  0  0
   33.9720   28.4940   37.4170 C   0  0  0  0  0  0  0  0  0  0  0  0
   34.5910   27.4280   36.8270 C   0  0  0  0  0  0  0  0  0  0  0  0
   35.5790   26.6870   37.4530 C   0  0  0  0  0  0  0  0  0  0  0  0
   36.3660   25.6240   37.1790 N   0  0  0  0  0  0  0  0  0  0  0  0
   37.1740   25.3410   38.2180 C   0  0  0  0  0  0  0  0  0  0  0  0
   36.8890   26.2410   39.1610 N   0  0  0  0  0  0  0  0  0  0  0  0
   35.9200   27.0790   38.7290 C   0  0  0  0  0  0  0  0  0  0  0  0
   35.3400   28.1320   39.3710 C   0  0  0  0  0  0  0  0  0  0  0  0
   33.8690   29.6760   39.1570 H   0  0  0  0  0  0  0  0  0  0  0  0
   34.3240   27.1220   35.8270 H   0  0  0  0  0  0  0  0  0  0  0  0
   36.3170   25.1160   36.2550 H   0  0  0  0  0  0  0  0  0  0  0  0
   37.9060   24.5250   38.2460 H   0  0  0  0  0  0  0  0  0  0  0  0
   30.9260   30.3960   36.7200 C   0  0  0  0  0  0  0  0  0  0  0  0
   31.0210   30.6560   35.3570 C   0  0  0  0  0  0  0  0  0  0  0  0
   32.1520   30.1610   34.7020 C   0  0  0  0  0  0  0  0  0  0  0  0
   33.0940   29.4630   35.3940 N   0  0  0  0  0  0  0  0  0  0  0  0
   32.9350   29.2480   36.7180 C   0  0  0  0  0  0  0  0  0  0  0  0
   31.8780   29.6990   37.3820 N   0  0  0  0  0  0  0  0  0  0  0  0
   30.0950   30.7260   37.3520 H   0  0  0  0  0  0  0  0  0  0  0  0
   32.2050   30.3720   33.6570 H   0  0  0  0  0  0  0  0  0  0  0  0
   29.9270   31.4280   34.7250 C   0  0  0  0  0  0  0  0  0  0  0  0
   28.8680   30.5450   34.6230 F   0  0  0  0  0  0  0  0  0  0  0  0
   30.3340   31.8450   33.5000 F   0  0  0  0  0  0  0  0  0  0  0  0
   29.6400   32.5170   35.5580 F   0  0  0  0  0  0  0  0  0  0  0  0
   35.7260   28.4750   40.6500 O   0  0  0  0  0  0  0  0  0  0  0  0
   37.4210   29.4950   42.3220 O   0  0  0  0  0  0  0  0  0  0  0  0
   36.6470   29.8460   41.0360 P   0  0  2  0  0  0  0  0  0  0  0  0
   35.5780   31.1000   41.4330 O   0  0  0  0  0  0  0  0  0  0  0  0
   36.0530   31.9570   41.4980 H   0  0  0  0  0  0  0  0  0  0  0  0
   37.7230   30.3180   39.8610 O   0  0  0  0  0  0  0  0  0  0  0  0
   39.7800   31.7260   36.1100 H   0  0  0  0  0  0  0  0  0  0  0  0
   39.1360   32.2020   36.7860 N   0  0  0  0  0  0  0  0  0  0  0  0
   37.7520   31.8210   36.5680 C   0  0  0  0  0  2  0  0  0  0  0  0
   37.3180   30.7330   37.5270 C   0  0  0  0  0  2  0  0  0  0  0  0
   37.2600   31.2590   38.9680 C   0  0  0  0  0  3  0  0  0  0  0  0
   38.2480   32.4090   38.9930 C   0  0  0  0  0  2  0  0  0  0  0  0
   39.4390   31.9190   38.1580 C   0  0  0  0  0  2  0  0  0  0  0  0
  1 10  1  0  0  0  0
  1  9  1  0  0  0  0
  2  1  2  0  0  0  0
  3  2  1  0  0  0  0
  3  4  2  0  0  0  0
  4  8  1  0  0  0  0
  5  4  1  0  0  0  0
  5  6  1  0  0  0  0
  6 13  1  0  0  0  0
  6  7  2  0  0  0  0
  8  7  1  0  0  0  0
  8  9  2  0  0  0  0
  9 26  1  0  0  0  0
 11  3  1  0  0  0  0
 12  5  1  0  0  0  0
 14 20  1  0  0  0  0
 14 19  1  0  0  0  0
 15 14  2  0  0  0  0
 16 15  1  0  0  0  0
 16 17  2  0  0  0  0
 17 18  1  0  0  0  0
 18 19  2  0  0  0  0
 18  2  1  0  0  0  0
 21 16  1  0  0  0  0
 22 15  1  0  0  0  0
 22 25  1  0  0  0  0
 23 22  1  0  0  0  0
 24 22  1  0  0  0  0
 26 28  1  0  0  0  0
 28 29  1  0  0  0  0
 28 27  2  1  0  0  0
 29 30  1  0  0  0  0
 31 28  1  0  0  0  0
 32 33  1  0  0  0  0
 33 38  1  0  0  0  0
 34 33  1  0  0  0  0
 34 35  1  0  0  0  0
 35 36  1  0  0  0  0
 36 37  1  0  0  0  0
 36 31  1  0  0  0  0
 38 37  1  0  0  0  0
M  END
>  <minimizedAffinity>
-6.23553658

$$$$

 OpenBabel03242513433D

 38 41  0  0  0  0  0  0  0  0999 V2000
   38.9250   29.7470   41.4770 C   0  0  0  0  0  0  0  0  0  0  0  0
   37.8990   29.2800   40.6920 C   0  0  0  0  0  0  0  0  0  0  0  0
   37.1780   30.1970   39.9800 C   0  0  0  0  0  0  0  0  0  0  0  0
   37.4370   31.5580   40.0190 C   0  0  0  0  0  0  0  0  0  0  0  0
   36.9480   32.6920   39.4710 N   0  0  0  0  0  0  0  0  0  0  0  0
   37.6330   33.7680   39.8990 C   0  0  0  0  0  0  0  0  0  0  0  0
   38.5690   33.3020   40.7300 N   0  0  0  0  0  0  0  0  0  0  0  0
   38.4780   31.9570   40.8270 C   0  0  0  0  0  0  0  0  0  0  0  0
   39.2340   31.0920   41.5610 C   0  0  0  0  0  0  0  0  0  0  0  0
   39.4940   29.0200   42.0410 H   0  0  0  0  0  0  0  0  0  0  0  0
   36.3620   29.8830   39.3470 H   0  0  0  0  0  0  0  0  0  0  0  0
   36.1330   32.6820   38.8010 H   0  0  0  0  0  0  0  0  0  0  0  0
   37.4340   34.8040   39.6020 H   0  0  0  0  0  0  0  0  0  0  0  0
   36.5810   26.0590   39.5660 C   0  0  0  0  0  0  0  0  0  0  0  0
   37.0420   25.1740   40.5340 C   0  0  0  0  0  0  0  0  0  0  0  0
   37.8090   25.7190   41.5680 C   0  0  0  0  0  0  0  0  0  0  0  0
   38.0710   27.0540   41.5950 N   0  0  0  0  0  0  0  0  0  0  0  0
   37.5900   27.8550   40.6200 C   0  0  0  0  0  0  0  0  0  0  0  0
   36.8590   27.3820   39.6190 N   0  0  0  0  0  0  0  0  0  0  0  0
   35.9740   25.7640   38.7050 H   0  0  0  0  0  0  0  0  0  0  0  0
   38.1520   25.0220   42.3010 H   0  0  0  0  0  0  0  0  0  0  0  0
   36.6850   23.7440   40.3870 C   0  0  0  0  0  0  0  0  0  0  0  0
   37.4550   23.0760   41.3210 F   0  0  0  0  0  0  0  0  0  0  0  0
   36.9880   23.3430   39.1270 F   0  0  0  0  0  0  0  0  0  0  0  0
   35.3120   23.6230   40.6370 F   0  0  0  0  0  0  0  0  0  0  0  0
   40.2650   31.5550   42.3520 O   0  0  0  0  0  0  0  0  0  0  0  0
   42.3920   30.4580   41.3640 O   0  0  0  0  0  0  0  0  0  0  0  0
   41.8450   31.8310   41.8010 P   0  0  2  0  0  0  0  0  0  0  0  0
   42.7790   32.3330   43.1220 O   0  0  0  0  0  0  0  0  0  0  0  0
   43.6540   32.6670   42.8250 H   0  0  0  0  0  0  0  0  0  0  0  0
   41.9660   32.8980   40.5330 O   0  0  0  0  0  0  0  0  0  0  0  0
   42.4980   34.9540   36.5620 H   0  0  0  0  0  0  0  0  0  0  0  0
   42.5890   33.9530   36.8590 N   0  0  0  0  0  0  0  0  0  0  0  0
   43.8440   33.7090   37.5480 C   0  0  0  0  0  2  0  0  0  0  0  0
   43.6670   33.7300   39.0510 C   0  0  0  0  0  2  0  0  0  0  0  0
   42.8290   32.5340   39.5230 C   0  0  0  0  0  3  0  0  0  0  0  0
   41.9720   32.1720   38.3260 C   0  0  0  0  0  2  0  0  0  0  0  0
   41.5390   33.5200   37.7340 C   0  0  0  0  0  2  0  0  0  0  0  0
  1  9  1  0  0  0  0
  1 10  1  0  0  0  0
  2  1  2  0  0  0  0
  3  4  2  0  0  0  0
  3  2  1  0  0  0  0
  4  8  1  0  0  0  0
  5  6  1  0  0  0  0
  5  4  1  0  0  0  0
  6  7  2  0  0  0  0
  7  8  1  0  0  0  0
  8  9  2  0  0  0  0
  9 26  1  0  0  0  0
 11  3  1  0  0  0  0
 12  5  1  0  0  0  0
 13  6  1  0  0  0  0
 14 19  2  0  0  0  0
 14 15  1  0  0  0  0
 15 16  2  0  0  0  0
 16 17  1  0  0  0  0
 16 21  1  0  0  0  0
 18  2  1  0  0  0  0
 18 17  2  0  0  0  0
 19 18  1  0  0  0  0
 20 14  1  0  0  0  0
 22 15  1  0  0  0  0
 22 25  1  0  0  0  0
 22 23  1  0  0  0  0
 24 22  1  0  0  0  0
 28 27  2  6  0  0  0
 28 26  1  0  0  0  0
 28 29  1  0  0  0  0
 30 29  1  0  0  0  0
 31 28  1  0  0  0  0
 32 33  1  0  0  0  0
 33 34  1  0  0  0  0
 33 38  1  0  0  0  0
 34 35  1  0  0  0  0
 35 36  1  0  0  0  0
 36 31  1  0  0  0  0
 37 36  1  0  0  0  0
 38 37  1  0  0  0  0
M  END
>  <minimizedAffinity>
-6.19202614

$$$$

 OpenBabel03242513433D

 38 41  0  0  0  0  0  0  0  0999 V2000
   40.1970   30.8540   40.4890 C   0  0  0  0  0  0  0  0  0  0  0  0
   40.3360   30.0420   41.5880 C   0  0  0  0  0  0  0  0  0  0  0  0
   41.2470   30.4100   42.5370 C   0  0  0  0  0  0  0  0  0  0  0  0
   42.0260   31.5510   42.4350 C   0  0  0  0  0  0  0  0  0  0  0  0
   42.9790   32.1870   43.1500 N   0  0  0  0  0  0  0  0  0  0  0  0
   43.3870   33.3060   42.5230 C   0  0  0  0  0  0  0  0  0  0  0  0
   42.6770   33.3740   41.3940 N   0  0  0  0  0  0  0  0  0  0  0  0
   41.8360   32.3200   41.3070 C   0  0  0  0  0  0  0  0  0  0  0  0
   40.9440   32.0060   40.3270 C   0  0  0  0  0  0  0  0  0  0  0  0
   39.4750   30.5610   39.7380 H   0  0  0  0  0  0  0  0  0  0  0  0
   41.3950   29.8070   43.4200 H   0  0  0  0  0  0  0  0  0  0  0  0
   43.3250   31.8140   44.0750 H   0  0  0  0  0  0  0  0  0  0  0  0
   44.1510   33.9970   42.8960 H   0  0  0  0  0  0  0  0  0  0  0  0
   38.9120   26.7210   41.0140 C   0  0  0  0  0  0  0  0  0  0  0  0
   38.0150   26.5760   42.0670 C   0  0  0  0  0  0  0  0  0  0  0  0
   37.9220   27.6450   42.9640 C   0  0  0  0  0  0  0  0  0  0  0  0
   38.6860   28.7570   42.7850 N   0  0  0  0  0  0  0  0  0  0  0  0
   39.5370   28.8290   41.7370 C   0  0  0  0  0  0  0  0  0  0  0  0
   39.6600   27.8390   40.8620 N   0  0  0  0  0  0  0  0  0  0  0  0
   39.0830   25.9620   40.2440 H   0  0  0  0  0  0  0  0  0  0  0  0
   37.2280   27.5130   43.7640 H   0  0  0  0  0  0  0  0  0  0  0  0
   37.2440   25.3150   42.1470 C   0  0  0  0  0  0  0  0  0  0  0  0
   36.7080   25.1330   40.8860 F   0  0  0  0  0  0  0  0  0  0  0  0
   36.2670   25.4550   43.0780 F   0  0  0  0  0  0  0  0  0  0  0  0
   38.1360   24.2950   42.5030 F   0  0  0  0  0  0  0  0  0  0  0  0
   40.8000   32.8180   39.2200 O   0  0  0  0  0  0  0  0  0  0  0  0
   42.2180   33.7030   37.2420 O   0  0  0  0  0  0  0  0  0  0  0  0
   41.4230   32.4590   37.6840 P   0  0  2  0  0  0  0  0  0  0  0  0
   40.1170   32.3050   36.6140 O   0  0  0  0  0  0  0  0  0  0  0  0
   40.4120   31.9320   35.7540 H   0  0  0  0  0  0  0  0  0  0  0  0
   42.4130   31.1260   37.6250 O   0  0  0  0  0  0  0  0  0  0  0  0
   44.7750   27.4310   36.5980 H   0  0  0  0  0  0  0  0  0  0  0  0
   44.1890   28.0800   36.0210 N   0  0  0  0  0  0  0  0  0  0  0  0
   42.7710   27.8210   36.1930 C   0  0  0  0  0  2  0  0  0  0  0  0
   42.1480   28.7760   37.1890 C   0  0  0  0  0  2  0  0  0  0  0  0
   42.1250   30.2080   36.6390 C   0  0  0  0  0  3  0  0  0  0  0  0
   43.2730   30.2550   35.6500 C   0  0  0  0  0  2  0  0  0  0  0  0
   44.4030   29.4650   36.3250 C   0  0  0  0  0  2  0  0  0  0  0  0
  1  2  1  0  0  0  0
  2 18  1  0  0  0  0
  2  3  2  0  0  0  0
  3 11  1  0  0  0  0
  4  3  1  0  0  0  0
  4  5  1  0  0  0  0
  5 12  1  0  0  0  0
  6 13  1  0  0  0  0
  6  5  1  0  0  0  0
  7  6  2  0  0  0  0
  8  7  1  0  0  0  0
  8  4  2  0  0  0  0
  9  1  2  0  0  0  0
  9  8  1  0  0  0  0
 10  1  1  0  0  0  0
 14 15  1  0  0  0  0
 15 22  1  0  0  0  0
 15 16  2  0  0  0  0
 16 21  1  0  0  0  0
 17 16  1  0  0  0  0
 18 17  2  0  0  0  0
 19 14  2  0  0  0  0
 19 18  1  0  0  0  0
 20 14  1  0  0  0  0
 22 25  1  0  0  0  0
 22 24  1  0  0  0  0
 23 22  1  0  0  0  0
 26  9  1  0  0  0  0
 28 27  2  6  0  0  0
 28 26  1  0  0  0  0
 29 28  1  0  0  0  0
 30 29  1  0  0  0  0
 31 28  1  0  0  0  0
 33 34  1  0  0  0  0
 33 38  1  0  0  0  0
 33 32  1  0  0  0  0
 34 35  1  0  0  0  0
 36 35  1  0  0  0  0
 36 31  1  0  0  0  0
 37 38  1  0  0  0  0
 37 36  1  0  0  0  0
M  END
>  <minimizedAffinity>
-6.10638094

$$$$

 OpenBabel03242513433D

 38 41  0  0  0  0  0  0  0  0999 V2000
   42.0570   30.2650   40.4020 C   0  0  0  0  0  0  0  0  0  0  0  0
   41.8060   29.8120   41.6750 C   0  0  0  0  0  0  0  0  0  0  0  0
   42.2040   30.6000   42.7180 C   0  0  0  0  0  0  0  0  0  0  0  0
   42.8420   31.8180   42.5460 C   0  0  0  0  0  0  0  0  0  0  0  0
   43.3480   32.8060   43.3140 N   0  0  0  0  0  0  0  0  0  0  0  0
   43.8710   33.7880   42.5540 C   0  0  0  0  0  0  0  0  0  0  0  0
   43.6880   33.4090   41.2870 N   0  0  0  0  0  0  0  0  0  0  0  0
   43.0630   32.2110   41.2440 C   0  0  0  0  0  0  0  0  0  0  0  0
   42.6900   31.4710   40.1620 C   0  0  0  0  0  0  0  0  0  0  0  0
   41.7420   29.6400   39.5770 H   0  0  0  0  0  0  0  0  0  0  0  0
   42.0300   30.2910   43.7380 H   0  0  0  0  0  0  0  0  0  0  0  0
   43.3150   32.7670   44.3680 H   0  0  0  0  0  0  0  0  0  0  0  0
   44.3420   34.7000   42.9370 H   0  0  0  0  0  0  0  0  0  0  0  0
   40.1150   26.6190   41.1050 C   0  0  0  0  0  0  0  0  0  0  0  0
   39.8880   26.1480   42.3930 C   0  0  0  0  0  0  0  0  0  0  0  0
   40.3310   26.9560   43.4440 C   0  0  0  0  0  0  0  0  0  0  0  0
   40.9500   28.1400   43.1830 N   0  0  0  0  0  0  0  0  0  0  0  0
   41.1370   28.5350   41.9040 C   0  0  0  0  0  0  0  0  0  0  0  0
   40.7340   27.8010   40.8750 N   0  0  0  0  0  0  0  0  0  0  0  0
   39.8200   26.0860   40.1950 H   0  0  0  0  0  0  0  0  0  0  0  0
   40.1470   26.5760   44.4240 H   0  0  0  0  0  0  0  0  0  0  0  0
   39.2040   24.8430   42.5390 C   0  0  0  0  0  0  0  0  0  0  0  0
   37.8580   25.1430   42.6280 F   0  0  0  0  0  0  0  0  0  0  0  0
   39.6450   24.2390   43.6710 F   0  0  0  0  0  0  0  0  0  0  0  0
   39.5090   24.0750   41.4080 F   0  0  0  0  0  0  0  0  0  0  0  0
   42.9410   31.9200   38.8820 O   0  0  0  0  0  0  0  0  0  0  0  0
   41.3660   31.1990   36.9570 O   0  0  0  0  0  0  0  0  0  0  0  0
   41.7430   32.4340   37.7970 P   0  0  2  0  0  0  0  0  0  0  0  0
   42.4450   33.5540   36.7360 O   0  0  0  0  0  0  0  0  0  0  0  0
   41.7570   34.0070   36.2000 H   0  0  0  0  0  0  0  0  0  0  0  0
   40.3740   33.0510   38.5090 O   0  0  0  0  0  0  0  0  0  0  0  0
   36.0950   33.7510   39.7260 H   0  0  0  0  0  0  0  0  0  0  0  0
   36.8370   33.1050   40.0860 N   0  0  0  0  0  0  0  0  0  0  0  0
   37.0030   31.9470   39.2270 C   0  0  0  0  0  2  0  0  0  0  0  0
   38.1690   32.1210   38.2760 C   0  0  0  0  0  2  0  0  0  0  0  0
   39.5030   32.1240   39.0360 C   0  0  0  0  0  3  0  0  0  0  0  0
   39.1470   32.6020   40.4300 C   0  0  0  0  0  2  0  0  0  0  0  0
   38.1240   33.7250   40.2080 C   0  0  0  0  0  2  0  0  0  0  0  0
  1  2  1  0  0  0  0
  2 18  1  0  0  0  0
  2  3  2  0  0  0  0
  3 11  1  0  0  0  0
  4  3  1  0  0  0  0
  4  5  1  0  0  0  0
  5 12  1  0  0  0  0
  6 13  1  0  0  0  0
  6  5  1  0  0  0  0
  7  6  2  0  0  0  0
  8  7  1  0  0  0  0
  8  4  2  0  0  0  0
  9  1  2  0  0  0  0
  9  8  1  0  0  0  0
 10  1  1  0  0  0  0
 14 15  1  0  0  0  0
 15 22  1  0  0  0  0
 15 16  2  0  0  0  0
 16 21  1  0  0  0  0
 17 16  1  0  0  0  0
 18 17  2  0  0  0  0
 19 14  2  0  0  0  0
 19 18  1  0  0  0  0
 20 14  1  0  0  0  0
 22 23  1  0  0  0  0
 22 24  1  0  0  0  0
 25 22  1  0  0  0  0
 26  9  1  0  0  0  0
 28 27  2  6  0  0  0
 28 31  1  0  0  0  0
 28 26  1  0  0  0  0
 29 28  1  0  0  0  0
 30 29  1  0  0  0  0
 31 36  1  0  0  0  0
 32 33  1  0  0  0  0
 33 38  1  0  0  0  0
 34 33  1  0  0  0  0
 35 36  1  0  0  0  0
 35 34  1  0  0  0  0
 36 37  1  0  0  0  0
 38 37  1  0  0  0  0
M  END
>  <minimizedAffinity>
-6.03976774

$$$$

 OpenBabel03242513433D

 38 41  0  0  0  0  0  0  0  0999 V2000
   36.6600   27.7560   39.3240 C   0  0  0  0  0  0  0  0  0  0  0  0
   36.6120   27.3130   38.0240 C   0  0  0  0  0  0  0  0  0  0  0  0
   36.6450   25.9630   37.8130 C   0  0  0  0  0  0  0  0  0  0  0  0
   36.7250   25.0380   38.8410 C   0  0  0  0  0  0  0  0  0  0  0  0
   36.7760   23.6970   38.9870 N   0  0  0  0  0  0  0  0  0  0  0  0
   36.8510   23.3550   40.2870 C   0  0  0  0  0  0  0  0  0  0  0  0
   36.8460   24.5030   40.9700 N   0  0  0  0  0  0  0  0  0  0  0  0
   36.7710   25.5510   40.1190 C   0  0  0  0  0  0  0  0  0  0  0  0
   36.7410   26.8850   40.3950 C   0  0  0  0  0  0  0  0  0  0  0  0
   36.6340   28.8250   39.4900 H   0  0  0  0  0  0  0  0  0  0  0  0
   36.6090   25.5630   36.8110 H   0  0  0  0  0  0  0  0  0  0  0  0
   36.7570   23.0440   38.1580 H   0  0  0  0  0  0  0  0  0  0  0  0
   36.9030   22.3290   40.6690 H   0  0  0  0  0  0  0  0  0  0  0  0
   36.7830   30.3790   36.0370 C   0  0  0  0  0  0  0  0  0  0  0  0
   36.3500   29.9660   34.7820 C   0  0  0  0  0  0  0  0  0  0  0  0
   36.0050   28.6180   34.6500 C   0  0  0  0  0  0  0  0  0  0  0  0
   36.0980   27.7790   35.7180 N   0  0  0  0  0  0  0  0  0  0  0  0
   36.5270   28.2510   36.9090 C   0  0  0  0  0  0  0  0  0  0  0  0
   36.8670   29.5220   37.0810 N   0  0  0  0  0  0  0  0  0  0  0  0
   37.0850   31.4030   36.2760 H   0  0  0  0  0  0  0  0  0  0  0  0
   35.6750   28.3220   33.6780 H   0  0  0  0  0  0  0  0  0  0  0  0
   36.2940   30.9800   33.7040 C   0  0  0  0  0  0  0  0  0  0  0  0
   37.0350   32.0500   34.1690 F   0  0  0  0  0  0  0  0  0  0  0  0
   35.0000   31.3340   33.5000 F   0  0  0  0  0  0  0  0  0  0  0  0
   36.8450   30.4050   32.5520 F   0  0  0  0  0  0  0  0  0  0  0  0
   36.7900   27.3360   41.6980 O   0  0  0  0  0  0  0  0  0  0  0  0
   39.0240   27.7410   42.9430 O   0  0  0  0  0  0  0  0  0  0  0  0
   37.8740   28.5110   42.2640 P   0  0  2  0  0  0  0  0  0  0  0  0
   37.0940   29.4000   43.4780 O   0  0  0  0  0  0  0  0  0  0  0  0
   37.6160   30.1970   43.7170 H   0  0  0  0  0  0  0  0  0  0  0  0
   38.4990   29.5080   41.0910 O   0  0  0  0  0  0  0  0  0  0  0  0
   37.9490   32.4900   37.7610 H   0  0  0  0  0  0  0  0  0  0  0  0
   38.3090   32.5810   38.7410 N   0  0  0  0  0  0  0  0  0  0  0  0
   37.2280   32.6020   39.7100 C   0  0  0  0  0  2  0  0  0  0  0  0
   37.0130   31.2400   40.3340 C   0  0  0  0  0  2  0  0  0  0  0  0
   38.2020   30.8460   41.2210 C   0  0  0  0  0  3  0  0  0  0  0  0
   39.3770   31.6120   40.6460 C   0  0  0  0  0  2  0  0  0  0  0  0
   39.1960   31.5210   39.1240 C   0  0  0  0  0  2  0  0  0  0  0  0
  1 10  1  0  0  0  0
  1  9  1  0  0  0  0
  2  1  2  0  0  0  0
  3  2  1  0  0  0  0
  3  4  2  0  0  0  0
  4  5  1  0  0  0  0
  4  8  1  0  0  0  0
  5  6  1  0  0  0  0
  6 13  1  0  0  0  0
  6  7  2  0  0  0  0
  8  9  2  0  0  0  0
  8  7  1  0  0  0  0
  9 26  1  0  0  0  0
 11  3  1  0  0  0  0
 12  5  1  0  0  0  0
 14 20  1  0  0  0  0
 14 19  1  0  0  0  0
 15 14  2  0  0  0  0
 16 15  1  0  0  0  0
 16 17  2  0  0  0  0
 17 18  1  0  0  0  0
 18 19  2  0  0  0  0
 18  2  1  0  0  0  0
 21 16  1  0  0  0  0
 22 23  1  0  0  0  0
 22 15  1  0  0  0  0
 24 22  1  0  0  0  0
 25 22  1  0  0  0  0
 26 28  1  0  0  0  0
 28 27  2  1  0  0  0
 28 29  1  0  0  0  0
 29 30  1  0  0  0  0
 31 36  1  0  0  0  0
 31 28  1  0  0  0  0
 32 33  1  0  0  0  0
 33 38  1  0  0  0  0
 33 34  1  0  0  0  0
 34 35  1  0  0  0  0
 35 36  1  0  0  0  0
 37 36  1  0  0  0  0
 38 37  1  0  0  0  0
M  END
>  <minimizedAffinity>
-5.95397758

$$$$

 OpenBabel03242513433D

 38 41  0  0  0  0  0  0  0  0999 V2000
   38.8480   29.9820   38.4270 C   0  0  0  0  0  0  0  0  0  0  0  0
   40.1420   30.4380   38.3660 C   0  0  0  0  0  0  0  0  0  0  0  0
   40.3760   31.7330   38.7360 C   0  0  0  0  0  0  0  0  0  0  0  0
   39.3740   32.5900   39.1630 C   0  0  0  0  0  0  0  0  0  0  0  0
   39.2530   33.8680   39.5830 N   0  0  0  0  0  0  0  0  0  0  0  0
   37.9730   34.1600   39.8760 C   0  0  0  0  0  0  0  0  0  0  0  0
   37.2770   33.0460   39.6370 N   0  0  0  0  0  0  0  0  0  0  0  0
   38.1000   32.0670   39.2000 C   0  0  0  0  0  0  0  0  0  0  0  0
   37.8030   30.7860   38.8440 C   0  0  0  0  0  0  0  0  0  0  0  0
   38.6650   28.9560   38.1330 H   0  0  0  0  0  0  0  0  0  0  0  0
   41.3750   32.1420   38.7070 H   0  0  0  0  0  0  0  0  0  0  0  0
   40.0860   34.5130   39.6540 H   0  0  0  0  0  0  0  0  0  0  0  0
   37.6130   35.1300   40.2380 H   0  0  0  0  0  0  0  0  0  0  0  0
   42.0420   27.8920   36.5530 C   0  0  0  0  0  0  0  0  0  0  0  0
   43.3060   27.9720   37.1280 C   0  0  0  0  0  0  0  0  0  0  0  0
   43.4740   28.9180   38.1430 C   0  0  0  0  0  0  0  0  0  0  0  0
   42.4310   29.7050   38.5250 N   0  0  0  0  0  0  0  0  0  0  0  0
   41.2300   29.5720   37.9220 C   0  0  0  0  0  0  0  0  0  0  0  0
   41.0240   28.6880   36.9540 N   0  0  0  0  0  0  0  0  0  0  0  0
   41.7760   27.1970   35.7500 H   0  0  0  0  0  0  0  0  0  0  0  0
   44.4510   28.9630   38.5710 H   0  0  0  0  0  0  0  0  0  0  0  0
   44.3530   27.0580   36.6200 C   0  0  0  0  0  0  0  0  0  0  0  0
   44.5800   26.1560   37.6420 F   0  0  0  0  0  0  0  0  0  0  0  0
   45.4710   27.7780   36.3470 F   0  0  0  0  0  0  0  0  0  0  0  0
   43.8560   26.4450   35.4630 F   0  0  0  0  0  0  0  0  0  0  0  0
   36.5050   30.3210   38.9020 O   0  0  0  0  0  0  0  0  0  0  0  0
   34.3680   29.2310   39.8750 O   0  0  0  0  0  0  0  0  0  0  0  0
   35.7800   29.6810   40.2960 P   0  0  2  0  0  0  0  0  0  0  0  0
   35.5820   30.9440   41.4090 O   0  0  0  0  0  0  0  0  0  0  0  0
   35.3250   30.5950   42.2900 H   0  0  0  0  0  0  0  0  0  0  0  0
   36.5860   28.3970   40.9750 O   0  0  0  0  0  0  0  0  0  0  0  0
   39.9030   25.9910   42.8430 H   0  0  0  0  0  0  0  0  0  0  0  0
   39.1260   26.5620   43.2520 N   0  0  0  0  0  0  0  0  0  0  0  0
   39.4160   27.9830   43.1930 C   0  0  0  0  0  2  0  0  0  0  0  0
   38.7450   28.6390   42.0050 C   0  0  0  0  0  2  0  0  0  0  0  0
   37.2200   28.6510   42.1710 C   0  0  0  0  0  3  0  0  0  0  0  0
   36.9260   27.4750   43.0810 C   0  0  0  0  0  2  0  0  0  0  0  0
   37.8660   26.3630   42.5970 C   0  0  0  0  0  2  0  0  0  0  0  0
  1  9  1  0  0  0  0
  2  1  2  0  0  0  0
  2  3  1  0  0  0  0
  3  4  2  0  0  0  0
  4  8  1  0  0  0  0
  4  5  1  0  0  0  0
  5 12  1  0  0  0  0
  5  6  1  0  0  0  0
  6 13  1  0  0  0  0
  7  6  2  0  0  0  0
  8  7  1  0  0  0  0
  9 26  1  0  0  0  0
  9  8  2  0  0  0  0
 10  1  1  0  0  0  0
 11  3  1  0  0  0  0
 14 19  2  0  0  0  0
 14 15  1  0  0  0  0
 15 16  2  0  0  0  0
 16 17  1  0  0  0  0
 16 21  1  0  0  0  0
 18  2  1  0  0  0  0
 18 17  2  0  0  0  0
 19 18  1  0  0  0  0
 20 14  1  0  0  0  0
 22 15  1  0  0  0  0
 22 23  1  0  0  0  0
 24 22  1  0  0  0  0
 25 22  1  0  0  0  0
 26 28  1  0  0  0  0
 28 27  2  6  0  0  0
 28 31  1  0  0  0  0
 28 29  1  0  0  0  0
 29 30  1  0  0  0  0
 31 36  1  0  0  0  0
 32 33  1  0  0  0  0
 34 33  1  0  0  0  0
 35 36  1  0  0  0  0
 35 34  1  0  0  0  0
 36 37  1  0  0  0  0
 38 37  1  0  0  0  0
 38 33  1  0  0  0  0
M  END
>  <minimizedAffinity>
-5.90681934

$$$$

 OpenBabel03242513433D

 38 41  0  0  0  0  0  0  0  0999 V2000
   36.2870   30.4870   39.6820 C   0  0  0  0  0  0  0  0  0  0  0  0
   35.7420   29.2500   39.4320 C   0  0  0  0  0  0  0  0  0  0  0  0
   36.0020   28.2500   40.3260 C   0  0  0  0  0  0  0  0  0  0  0  0
   36.7830   28.4300   41.4560 C   0  0  0  0  0  0  0  0  0  0  0  0
   37.2250   27.6990   42.5020 N   0  0  0  0  0  0  0  0  0  0  0  0
   37.9860   28.4440   43.3250 C   0  0  0  0  0  0  0  0  0  0  0  0
   38.0220   29.6650   42.7870 N   0  0  0  0  0  0  0  0  0  0  0  0
   37.2990   29.6940   41.6450 C   0  0  0  0  0  0  0  0  0  0  0  0
   37.0750   30.7320   40.7910 C   0  0  0  0  0  0  0  0  0  0  0  0
   36.0800   31.2780   38.9730 H   0  0  0  0  0  0  0  0  0  0  0  0
   35.5980   27.2600   40.1770 H   0  0  0  0  0  0  0  0  0  0  0  0
   36.9790   26.6780   42.6130 H   0  0  0  0  0  0  0  0  0  0  0  0
   38.4630   28.0840   44.2440 H   0  0  0  0  0  0  0  0  0  0  0  0
   32.8370   28.8790   37.2390 C   0  0  0  0  0  0  0  0  0  0  0  0
   33.4080   28.5620   36.0110 C   0  0  0  0  0  0  0  0  0  0  0  0
   34.8030   28.4830   35.9690 C   0  0  0  0  0  0  0  0  0  0  0  0
   35.5360   28.7110   37.0940 N   0  0  0  0  0  0  0  0  0  0  0  0
   34.9130   29.0140   38.2540 C   0  0  0  0  0  0  0  0  0  0  0  0
   33.5920   29.1010   38.3410 N   0  0  0  0  0  0  0  0  0  0  0  0
   31.7600   28.9730   37.4100 H   0  0  0  0  0  0  0  0  0  0  0  0
   35.2200   28.2390   35.0180 H   0  0  0  0  0  0  0  0  0  0  0  0
   32.4970   28.3380   34.8660 C   0  0  0  0  0  0  0  0  0  0  0  0
   33.2240   27.5890   33.9600 F   0  0  0  0  0  0  0  0  0  0  0  0
   32.1500   29.5400   34.3390 F   0  0  0  0  0  0  0  0  0  0  0  0
   31.3710   27.6560   35.3460 F   0  0  0  0  0  0  0  0  0  0  0  0
   37.6210   31.9750   41.0370 O   0  0  0  0  0  0  0  0  0  0  0  0
   39.2780   33.8950   40.5140 O   0  0  0  0  0  0  0  0  0  0  0  0
   38.2110   33.0150   39.8340 P   0  0  2  0  0  0  0  0  0  0  0  0
   36.9490   34.0460   39.3690 O   0  0  0  0  0  0  0  0  0  0  0  0
   37.1890   34.5500   38.5600 H   0  0  0  0  0  0  0  0  0  0  0  0
   38.8840   32.2530   38.5200 O   0  0  0  0  0  0  0  0  0  0  0  0
   41.2520   29.4580   35.9000 H   0  0  0  0  0  0  0  0  0  0  0  0
   41.3450   29.7350   36.9060 N   0  0  0  0  0  0  0  0  0  0  0  0
   41.9610   31.0420   37.0490 C   0  0  0  0  0  2  0  0  0  0  0  0
   40.9250   32.1260   37.2540 C   0  0  0  0  0  2  0  0  0  0  0  0
   40.2290   31.9720   38.6140 C   0  0  0  0  0  3  0  0  0  0  0  0
   40.3470   30.4960   38.9380 C   0  0  0  0  0  2  0  0  0  0  0  0
   40.0930   29.7820   37.6030 C   0  0  0  0  0  2  0  0  0  0  0  0
  1  9  1  0  0  0  0
  2  1  2  0  0  0  0
  2  3  1  0  0  0  0
  3  4  2  0  0  0  0
  4  8  1  0  0  0  0
  4  5  1  0  0  0  0
  5 12  1  0  0  0  0
  5  6  1  0  0  0  0
  6 13  1  0  0  0  0
  7  6  2  0  0  0  0
  8  7  1  0  0  0  0
  9 26  1  0  0  0  0
  9  8  2  0  0  0  0
 10  1  1  0  0  0  0
 11  3  1  0  0  0  0
 14 20  1  0  0  0  0
 14 19  1  0  0  0  0
 15 14  2  0  0  0  0
 16 15  1  0  0  0  0
 16 17  2  0  0  0  0
 17 18  1  0  0  0  0
 18 19  2  0  0  0  0
 18  2  1  0  0  0  0
 21 16  1  0  0  0  0
 22 25  1  0  0  0  0
 22 15  1  0  0  0  0
 23 22  1  0  0  0  0
 24 22  1  0  0  0  0
 28 27  2  1  0  0  0
 28 26  1  0  0  0  0
 29 28  1  0  0  0  0
 30 29  1  0  0  0  0
 31 36  1  0  0  0  0
 31 28  1  0  0  0  0
 32 33  1  0  0  0  0
 33 34  1  0  0  0  0
 33 38  1  0  0  0  0
 34 35  1  0  0  0  0
 35 36  1  0  0  0  0
 36 37  1  0  0  0  0
 38 37  1  0  0  0  0
M  END
>  <minimizedAffinity>
-5.82681751

$$$$

 OpenBabel03242513433D

 38 41  0  0  0  0  0  0  0  0999 V2000
   37.6290   30.6110   39.3770 C   0  0  0  0  0  0  0  0  0  0  0  0
   37.3300   30.5380   38.0380 C   0  0  0  0  0  0  0  0  0  0  0  0
   38.1770   31.1600   37.1640 C   0  0  0  0  0  0  0  0  0  0  0  0
   39.3070   31.8510   37.5690 C   0  0  0  0  0  0  0  0  0  0  0  0
   40.3150   32.5500   37.0060 N   0  0  0  0  0  0  0  0  0  0  0  0
   41.1640   33.0140   37.9420 C   0  0  0  0  0  0  0  0  0  0  0  0
   40.6790   32.5980   39.1150 N   0  0  0  0  0  0  0  0  0  0  0  0
   39.5460   31.8860   38.9260 C   0  0  0  0  0  0  0  0  0  0  0  0
   38.7410   31.2860   39.8460 C   0  0  0  0  0  0  0  0  0  0  0  0
   36.9570   30.1180   40.0680 H   0  0  0  0  0  0  0  0  0  0  0  0
   37.9880   31.1330   36.1020 H   0  0  0  0  0  0  0  0  0  0  0  0
   40.3840   32.6880   35.9610 H   0  0  0  0  0  0  0  0  0  0  0  0
   42.0620   33.6100   37.7430 H   0  0  0  0  0  0  0  0  0  0  0  0
   34.1260   28.7730   37.9710 C   0  0  0  0  0  0  0  0  0  0  0  0
   33.9560   28.4790   36.6220 C   0  0  0  0  0  0  0  0  0  0  0  0
   34.9660   28.9050   35.7550 C   0  0  0  0  0  0  0  0  0  0  0  0
   36.0500   29.5700   36.2410 N   0  0  0  0  0  0  0  0  0  0  0  0
   36.1490   29.8210   37.5650 C   0  0  0  0  0  0  0  0  0  0  0  0
   35.2140   29.4370   38.4250 N   0  0  0  0  0  0  0  0  0  0  0  0
   33.4120   28.4990   38.7540 H   0  0  0  0  0  0  0  0  0  0  0  0
   34.8160   28.6690   34.7250 H   0  0  0  0  0  0  0  0  0  0  0  0
   32.7300   27.7490   36.2260 C   0  0  0  0  0  0  0  0  0  0  0  0
   32.8380   26.5040   36.8160 F   0  0  0  0  0  0  0  0  0  0  0  0
   32.6980   27.6460   34.8720 F   0  0  0  0  0  0  0  0  0  0  0  0
   31.6310   28.4760   36.7010 F   0  0  0  0  0  0  0  0  0  0  0  0
   39.0350   31.3560   41.1920 O   0  0  0  0  0  0  0  0  0  0  0  0
   40.9800   31.2410   42.8980 O   0  0  0  0  0  0  0  0  0  0  0  0
   40.1310   30.3340   41.9870 P   0  0  2  0  0  0  0  0  0  0  0  0
   41.1800   29.6880   40.8230 O   0  0  0  0  0  0  0  0  0  0  0  0
   41.7210   28.9620   41.2050 H   0  0  0  0  0  0  0  0  0  0  0  0
   39.4310   29.1370   42.9020 O   0  0  0  0  0  0  0  0  0  0  0  0
   37.5740   25.0490   43.2490 H   0  0  0  0  0  0  0  0  0  0  0  0
   37.4310   25.8360   42.5730 N   0  0  0  0  0  0  0  0  0  0  0  0
   36.6060   26.8880   43.1380 C   0  0  0  0  0  2  0  0  0  0  0  0
   37.4460   28.0250   43.6790 C   0  0  0  0  0  2  0  0  0  0  0  0
   38.1520   28.7770   42.5420 C   0  0  0  0  0  3  0  0  0  0  0  0
   38.2810   27.7550   41.4310 C   0  0  0  0  0  2  0  0  0  0  0  0
   38.6560   26.4480   42.1440 C   0  0  0  0  0  2  0  0  0  0  0  0
  1  9  1  0  0  0  0
  1 10  1  0  0  0  0
  2  1  2  0  0  0  0
  3  4  2  0  0  0  0
  3  2  1  0  0  0  0
  4  8  1  0  0  0  0
  5  4  1  0  0  0  0
  5  6  1  0  0  0  0
  6  7  2  0  0  0  0
  8  7  1  0  0  0  0
  8  9  2  0  0  0  0
  9 26  1  0  0  0  0
 11  3  1  0  0  0  0
 12  5  1  0  0  0  0
 13  6  1  0  0  0  0
 14 19  1  0  0  0  0
 14 20  1  0  0  0  0
 15 14  2  0  0  0  0
 16 17  2  0  0  0  0
 16 15  1  0  0  0  0
 17 18  1  0  0  0  0
 18  2  1  0  0  0  0
 18 19  2  0  0  0  0
 21 16  1  0  0  0  0
 22 15  1  0  0  0  0
 22 25  1  0  0  0  0
 22 23  1  0  0  0  0
 24 22  1  0  0  0  0
 26 28  1  0  0  0  0
 28 27  2  1  0  0  0
 28 31  1  0  0  0  0
 29 30  1  0  0  0  0
 29 28  1  0  0  0  0
 33 34  1  0  0  0  0
 33 32  1  0  0  0  0
 34 35  1  0  0  0  0
 36 31  1  0  0  0  0
 36 35  1  0  0  0  0
 37 38  1  0  0  0  0
 37 36  1  0  0  0  0
 38 33  1  0  0  0  0
M  END
>  <minimizedAffinity>
-5.67045355

$$$$
