
 OpenBabel03252506353D

 31 33  0  0  1  0  0  0  0  0999 V2000
   44.4590   35.7350   45.0100 C   0  0  0  0  0  0  0  0  0  0  0  0
   45.1270   35.7210   43.7560 C   0  0  0  0  0  0  0  0  0  0  0  0
   46.0630   34.7370   43.5020 C   0  0  0  0  0  0  0  0  0  0  0  0
   46.2650   33.8490   44.5010 N   0  0  0  0  0  0  0  0  0  0  0  0
   45.6390   33.8640   45.6720 C   0  0  0  0  0  0  0  0  0  0  0  0
   44.7390   34.8000   45.9330 N   0  0  0  0  0  0  0  0  0  0  0  0
   45.9660   32.8570   46.6120 N   0  0  0  0  0  0  0  0  0  0  0  0
   45.1650   32.5480   47.8000 C   0  0  0  0  0  0  0  0  0  0  0  0
   46.2400   32.2520   48.8280 C   0  0  0  0  0  0  0  0  0  0  0  0
   47.5320   32.0980   48.0800 C   0  0  0  0  0  0  0  0  0  0  0  0
   47.0680   31.9410   46.6570 C   0  0  1  0  0  0  0  0  0  0  0  0
   43.7190   36.4810   45.2610 H   0  0  0  0  0  0  0  0  0  0  0  0
   46.5480   34.7480   42.5580 H   0  0  0  0  0  0  0  0  0  0  0  0
   44.5590   33.4280   48.0600 H   0  0  0  0  0  0  0  0  0  0  0  0
   44.5170   31.6600   47.5890 H   0  0  0  0  0  0  0  0  0  0  0  0
   45.9450   31.3650   49.4210 H   0  0  0  0  0  0  0  0  0  0  0  0
   46.3570   33.1510   49.4770 H   0  0  0  0  0  0  0  0  0  0  0  0
   48.2600   32.8970   48.2400 H   0  0  0  0  0  0  0  0  0  0  0  0
   47.9930   31.1380   48.3810 H   0  0  0  0  0  0  0  0  0  0  0  0
   47.8850   32.2690   45.9770 H   0  0  0  0  0  0  0  0  0  0  0  0
   44.7660   36.7570   42.8310 N   0  0  0  0  0  0  0  0  0  0  0  0
   43.7510   36.8180   42.5630 H   0  0  0  0  0  0  0  0  0  0  0  0
   45.5510   37.3620   42.5040 H   0  0  0  0  0  0  0  0  0  0  0  0
   46.5810   30.2320   46.3830 S   0  0  0  0  0  0  0  0  0  0  0  0
   46.4740   31.8430   41.9420 H   0  0  0  0  0  0  0  0  0  0  0  0
   46.4590   30.8090   41.8750 N   0  0  0  0  0  0  0  0  0  0  0  0
   45.3300   30.1810   42.4870 C   0  0  0  0  0  2  0  0  0  0  0  0
   45.2940   30.3980   43.9630 C   0  0  0  0  0  2  0  0  0  0  0  0
   46.5740   29.9340   44.5790 C   0  0  0  0  0  3  0  0  0  0  0  0
   47.7440   30.6270   43.9200 C   0  0  0  0  0  2  0  0  0  0  0  0
   47.6930   30.2800   42.4350 C   0  0  0  0  0  2  0  0  0  0  0  0
  1 12  1  0  0  0  0
  1  6  1  0  0  0  0
  2  1  2  0  0  0  0
  3  2  1  0  0  0  0
  3  4  2  0  0  0  0
  4  5  1  0  0  0  0
  5  6  2  0  0  0  0
  5  7  1  0  0  0  0
  7 11  1  0  0  0  0
  7  8  1  0  0  0  0
  8 14  1  0  0  0  0
  8  9  1  0  0  0  0
  9 16  1  0  0  0  0
  9 17  1  0  0  0  0
 10 18  1  0  0  0  0
 10 19  1  0  0  0  0
 10  9  1  0  0  0  0
 11 20  1  6  0  0  0
 11 10  1  0  0  0  0
 13  3  1  0  0  0  0
 15  8  1  0  0  0  0
 21  2  1  0  0  0  0
 22 21  1  0  0  0  0
 23 21  1  0  0  0  0
 24 11  1  0  0  0  0
 26 25  1  0  0  0  0
 26 31  1  0  0  0  0
 26 27  1  0  0  0  0
 27 28  1  0  0  0  0
 28 29  1  0  0  0  0
 29 24  1  0  0  0  0
 30 29  1  0  0  0  0
 31 30  1  0  0  0  0
M  END
>  <minimizedAffinity>
-4.94616032

>  <minimizedRMSD>
0.757454932

$$$$
