
 OpenBabel03252509083D

 39 42  0  0  0  0  0  0  0  0999 V2000
   47.6190   31.8140   38.9510 C   0  0  0  0  0  0  0  0  0  0  0  0
   47.1650   33.1000   38.9450 C   0  0  0  0  0  0  0  0  0  0  0  0
   47.7970   34.0300   38.1440 C   0  0  0  0  0  0  0  0  0  0  0  0
   48.8660   33.6640   37.3640 C   0  0  0  0  0  0  0  0  0  0  0  0
   49.3480   32.3580   37.3500 C   0  0  0  0  0  0  0  0  0  0  0  0
   48.7060   31.4370   38.1580 C   0  0  0  0  0  0  0  0  0  0  0  0
   47.4530   35.0700   38.1210 H   0  0  0  0  0  0  0  0  0  0  0  0
   49.3350   34.4080   36.7530 H   0  0  0  0  0  0  0  0  0  0  0  0
   50.1850   32.0350   36.7490 H   0  0  0  0  0  0  0  0  0  0  0  0
   49.0820   30.4130   38.1490 H   0  0  0  0  0  0  0  0  0  0  0  0
   45.3780   35.3720   43.2010 Cl  0  0  0  0  0  0  0  0  0  0  0  0
   45.2100   34.6010   41.6530 C   0  0  0  0  0  0  0  0  0  0  0  0
   46.2860   34.1860   40.9560 C   0  0  0  0  0  0  0  0  0  0  0  0
   46.0420   33.5780   39.7310 C   0  0  0  0  0  0  0  0  0  0  0  0
   44.7740   33.4020   39.2410 C   0  0  0  0  0  0  0  0  0  0  0  0
   43.7030   33.8250   39.9590 C   0  0  0  0  0  0  0  0  0  0  0  0
   43.9320   34.4290   41.1740 C   0  0  0  0  0  0  0  0  0  0  0  0
   44.6180   32.9250   38.2830 H   0  0  0  0  0  0  0  0  0  0  0  0
   42.6780   33.7050   39.6080 H   0  0  0  0  0  0  0  0  0  0  0  0
   43.0630   34.7680   41.7440 H   0  0  0  0  0  0  0  0  0  0  0  0
   49.5860   35.7390   41.9330 C   0  0  0  0  0  0  0  0  0  0  0  0
   48.3100   35.5620   41.3900 C   0  0  0  0  0  0  0  0  0  0  0  0
   47.6050   34.3810   41.5090 C   0  0  0  0  0  0  0  0  0  0  0  0
   48.2470   33.4000   42.1960 N   0  0  0  0  0  0  0  0  0  0  0  0
   49.4720   33.5640   42.7190 C   0  0  0  0  0  0  0  0  0  0  0  0
   50.1310   34.7210   42.5880 N   0  0  0  0  0  0  0  0  0  0  0  0
   50.1210   36.6860   41.8230 H   0  0  0  0  0  0  0  0  0  0  0  0
   47.8780   36.3970   40.8610 H   0  0  0  0  0  0  0  0  0  0  0  0
   49.9220   32.7310   43.2570 H   0  0  0  0  0  0  0  0  0  0  0  0
   46.8960   30.6150   39.8890 S   0  0  0  0  0  0  0  0  0  0  0  0
   45.6830   30.0090   39.2070 O   0  0  0  0  0  0  0  0  0  0  0  0
   47.9420   29.4670   39.8720 O   0  0  0  0  0  0  0  0  0  0  0  0
   46.1600   28.3260   44.6940 H   0  0  0  0  0  0  0  0  0  0  0  0
   46.0700   29.0490   43.9770 N   0  0  0  0  0  0  0  0  0  0  0  0
   47.2470   29.8300   43.7060 C   0  0  0  0  0  2  0  0  0  0  0  0
   47.5180   29.8120   42.2520 C   0  0  0  0  0  2  0  0  0  0  0  0
   46.4160   30.6540   41.5010 C   0  0  0  0  0  3  0  0  0  0  0  0
   45.1990   29.8210   41.8960 C   0  0  0  0  0  2  0  0  0  0  0  0
   45.4880   28.6200   42.7250 C   0  0  0  0  0  2  0  0  0  0  0  0
  1 30  1  0  0  0  0
  2  1  1  0  0  0  0
  2 14  1  0  0  0  0
  3  2  2  0  0  0  0
  4  3  1  0  0  0  0
  5  4  2  0  0  0  0
  5  6  1  0  0  0  0
  6  1  2  0  0  0  0
  7  3  1  0  0  0  0
  8  4  1  0  0  0  0
  9  5  1  0  0  0  0
 10  6  1  0  0  0  0
 12 11  1  0  0  0  0
 13 23  1  0  0  0  0
 13 12  2  0  0  0  0
 14 13  1  0  0  0  0
 15 14  2  0  0  0  0
 15 16  1  0  0  0  0
 16 17  2  0  0  0  0
 17 12  1  0  0  0  0
 17 20  1  0  0  0  0
 18 15  1  0  0  0  0
 19 16  1  0  0  0  0
 21 26  1  0  0  0  0
 22 23  1  0  0  0  0
 22 21  2  0  0  0  0
 23 24  2  0  0  0  0
 24 25  1  0  0  0  0
 25 29  1  0  0  0  0
 26 25  2  0  0  0  0
 27 21  1  0  0  0  0
 28 22  1  0  0  0  0
 30 37  1  0  0  0  0
 31 30  2  0  0  0  0
 32 30  2  0  0  0  0
 34 33  1  0  0  0  0
 35 34  1  0  0  0  0
 36 35  1  0  0  0  0
 37 38  1  0  0  0  0
 37 36  1  0  0  0  0
 38 39  1  0  0  0  0
 39 34  1  0  0  0  0
M  END
>  <minimizedAffinity>
-4.5876255

>  <minimizedRMSD>
1.62339699

$$$$
