
 OpenBabel03252509083D

 39 42  0  0  0  0  0  0  0  0999 V2000
   47.6860   31.8080   39.1410 C   0  0  0  0  0  0  0  0  0  0  0  0
   47.1710   33.0630   39.0080 C   0  0  0  0  0  0  0  0  0  0  0  0
   47.7460   33.9300   38.1010 C   0  0  0  0  0  0  0  0  0  0  0  0
   48.8210   33.5340   37.3440 C   0  0  0  0  0  0  0  0  0  0  0  0
   49.3650   32.2570   37.4600 C   0  0  0  0  0  0  0  0  0  0  0  0
   48.7790   31.3990   38.3730 C   0  0  0  0  0  0  0  0  0  0  0  0
   47.3520   34.9450   37.9750 H   0  0  0  0  0  0  0  0  0  0  0  0
   49.2450   34.2290   36.6490 H   0  0  0  0  0  0  0  0  0  0  0  0
   50.2080   31.9110   36.8810 H   0  0  0  0  0  0  0  0  0  0  0  0
   49.2040   30.3990   38.4650 H   0  0  0  0  0  0  0  0  0  0  0  0
   45.3250   35.4810   43.1570 Cl  0  0  0  0  0  0  0  0  0  0  0  0
   45.1780   34.6580   41.6330 C   0  0  0  0  0  0  0  0  0  0  0  0
   46.2640   34.2180   40.9670 C   0  0  0  0  0  0  0  0  0  0  0  0
   46.0370   33.5690   39.7600 C   0  0  0  0  0  0  0  0  0  0  0  0
   44.7770   33.3800   39.2560 C   0  0  0  0  0  0  0  0  0  0  0  0
   43.6960   33.8300   39.9430 C   0  0  0  0  0  0  0  0  0  0  0  0
   43.9070   34.4740   41.1410 C   0  0  0  0  0  0  0  0  0  0  0  0
   44.6340   32.8720   38.3130 H   0  0  0  0  0  0  0  0  0  0  0  0
   42.6760   33.7010   39.5800 H   0  0  0  0  0  0  0  0  0  0  0  0
   43.0310   34.8330   41.6850 H   0  0  0  0  0  0  0  0  0  0  0  0
   49.5740   35.7760   41.9020 C   0  0  0  0  0  0  0  0  0  0  0  0
   48.3060   35.5840   41.3450 C   0  0  0  0  0  0  0  0  0  0  0  0
   47.5750   34.4280   41.5350 C   0  0  0  0  0  0  0  0  0  0  0  0
   48.1820   33.4880   42.3060 N   0  0  0  0  0  0  0  0  0  0  0  0
   49.3990   33.6680   42.8430 C   0  0  0  0  0  0  0  0  0  0  0  0
   50.0850   34.7990   42.6420 N   0  0  0  0  0  0  0  0  0  0  0  0
   50.1310   36.7020   41.7350 H   0  0  0  0  0  0  0  0  0  0  0  0
   47.9030   36.3850   40.7470 H   0  0  0  0  0  0  0  0  0  0  0  0
   49.8200   32.8680   43.4500 H   0  0  0  0  0  0  0  0  0  0  0  0
   47.0350   30.6840   40.2150 S   0  0  0  0  0  0  0  0  0  0  0  0
   46.6210   29.4000   39.5180 O   0  0  0  0  0  0  0  0  0  0  0  0
   48.2570   30.2600   41.0760 O   0  0  0  0  0  0  0  0  0  0  0  0
   44.2520   29.0550   44.5140 H   0  0  0  0  0  0  0  0  0  0  0  0
   44.4570   29.6280   43.6920 N   0  0  0  0  0  0  0  0  0  0  0  0
   45.5300   30.5780   43.8250 C   0  0  0  0  0  2  0  0  0  0  0  0
   46.4840   30.3910   42.7110 C   0  0  0  0  0  2  0  0  0  0  0  0
   45.8200   30.8720   41.3640 C   0  0  0  0  0  3  0  0  0  0  0  0
   44.6560   29.8840   41.3290 C   0  0  0  0  0  2  0  0  0  0  0  0
   44.6150   28.9060   42.4490 C   0  0  0  0  0  2  0  0  0  0  0  0
  1 30  1  0  0  0  0
  2  1  1  0  0  0  0
  2 14  1  0  0  0  0
  3  2  2  0  0  0  0
  4  5  2  0  0  0  0
  4  3  1  0  0  0  0
  5  6  1  0  0  0  0
  6 10  1  0  0  0  0
  6  1  2  0  0  0  0
  7  3  1  0  0  0  0
  8  4  1  0  0  0  0
  9  5  1  0  0  0  0
 12 11  1  0  0  0  0
 13 23  1  0  0  0  0
 13 12  2  0  0  0  0
 14 13  1  0  0  0  0
 15 14  2  0  0  0  0
 15 16  1  0  0  0  0
 16 17  2  0  0  0  0
 17 12  1  0  0  0  0
 17 20  1  0  0  0  0
 18 15  1  0  0  0  0
 19 16  1  0  0  0  0
 21 26  1  0  0  0  0
 22 23  1  0  0  0  0
 22 21  2  0  0  0  0
 23 24  2  0  0  0  0
 24 25  1  0  0  0  0
 25 29  1  0  0  0  0
 26 25  2  0  0  0  0
 27 21  1  0  0  0  0
 28 22  1  0  0  0  0
 30 32  2  0  0  0  0
 30 37  1  0  0  0  0
 31 30  2  0  0  0  0
 34 35  1  0  0  0  0
 34 33  1  0  0  0  0
 36 35  1  0  0  0  0
 37 36  1  0  0  0  0
 38 37  1  0  0  0  0
 38 39  1  0  0  0  0
 39 34  1  0  0  0  0
M  END
>  <minimizedAffinity>
-4.65806246

>  <minimizedRMSD>
0.327845871

$$$$
