
 OpenBabel03252509083D

 39 42  0  0  0  0  0  0  0  0999 V2000
   47.4300   31.8580   38.5890 C   0  0  0  0  0  0  0  0  0  0  0  0
   47.1190   33.1670   38.8080 C   0  0  0  0  0  0  0  0  0  0  0  0
   47.8820   34.1460   38.2030 C   0  0  0  0  0  0  0  0  0  0  0  0
   48.9370   33.8060   37.3930 C   0  0  0  0  0  0  0  0  0  0  0  0
   49.2730   32.4760   37.1520 C   0  0  0  0  0  0  0  0  0  0  0  0
   48.5010   31.5060   37.7650 C   0  0  0  0  0  0  0  0  0  0  0  0
   47.6550   35.2060   38.3640 H   0  0  0  0  0  0  0  0  0  0  0  0
   49.5090   34.5880   36.9390 H   0  0  0  0  0  0  0  0  0  0  0  0
   50.0950   32.1720   36.5200 H   0  0  0  0  0  0  0  0  0  0  0  0
   48.7640   30.4640   37.5770 H   0  0  0  0  0  0  0  0  0  0  0  0
   45.4640   35.1720   43.2480 Cl  0  0  0  0  0  0  0  0  0  0  0  0
   45.2510   34.5260   41.6490 C   0  0  0  0  0  0  0  0  0  0  0  0
   46.3030   34.1280   40.9070 C   0  0  0  0  0  0  0  0  0  0  0  0
   46.0230   33.6220   39.6440 C   0  0  0  0  0  0  0  0  0  0  0  0
   44.7440   33.5270   39.1600 C   0  0  0  0  0  0  0  0  0  0  0  0
   43.6980   33.9320   39.9230 C   0  0  0  0  0  0  0  0  0  0  0  0
   43.9620   34.4350   41.1770 C   0  0  0  0  0  0  0  0  0  0  0  0
   44.5600   33.1290   38.1720 H   0  0  0  0  0  0  0  0  0  0  0  0
   42.6640   33.8740   39.5790 H   0  0  0  0  0  0  0  0  0  0  0  0
   43.1130   34.7590   41.7830 H   0  0  0  0  0  0  0  0  0  0  0  0
   49.6310   35.5110   42.0360 C   0  0  0  0  0  0  0  0  0  0  0  0
   48.3420   35.4200   41.5000 C   0  0  0  0  0  0  0  0  0  0  0  0
   47.6350   34.2350   41.4540 C   0  0  0  0  0  0  0  0  0  0  0  0
   48.2870   33.1610   41.9700 N   0  0  0  0  0  0  0  0  0  0  0  0
   49.5240   33.2430   42.4860 C   0  0  0  0  0  0  0  0  0  0  0  0
   50.1850   34.4050   42.5160 N   0  0  0  0  0  0  0  0  0  0  0  0
   50.1670   36.4630   42.0580 H   0  0  0  0  0  0  0  0  0  0  0  0
   47.9030   36.3260   41.1140 H   0  0  0  0  0  0  0  0  0  0  0  0
   49.9810   32.3380   42.8810 H   0  0  0  0  0  0  0  0  0  0  0  0
   46.5420   30.6010   39.2780 S   0  0  0  0  0  0  0  0  0  0  0  0
   47.1570   29.2430   38.9920 O   0  0  0  0  0  0  0  0  0  0  0  0
   46.7670   30.7950   40.8020 O   0  0  0  0  0  0  0  0  0  0  0  0
   42.3790   27.4730   37.9520 H   0  0  0  0  0  0  0  0  0  0  0  0
   42.8490   28.3300   38.2480 N   0  0  0  0  0  0  0  0  0  0  0  0
   43.3590   28.3460   39.5940 C   0  0  0  0  0  2  0  0  0  0  0  0
   44.7840   28.7460   39.5680 C   0  0  0  0  0  2  0  0  0  0  0  0
   44.8940   30.2720   39.1850 C   0  0  0  0  0  3  0  0  0  0  0  0
   44.2660   30.1940   37.7950 C   0  0  0  0  0  2  0  0  0  0  0  0
   43.8660   28.8320   37.3500 C   0  0  0  0  0  2  0  0  0  0  0  0
  1  2  1  0  0  0  0
  1 30  1  0  0  0  0
  2 14  1  0  0  0  0
  3  7  1  0  0  0  0
  3  2  2  0  0  0  0
  4  3  1  0  0  0  0
  5  4  2  0  0  0  0
  5  6  1  0  0  0  0
  6  1  2  0  0  0  0
  8  4  1  0  0  0  0
  9  5  1  0  0  0  0
 10  6  1  0  0  0  0
 12 11  1  0  0  0  0
 13 23  1  0  0  0  0
 13 12  2  0  0  0  0
 14 13  1  0  0  0  0
 15 14  2  0  0  0  0
 15 16  1  0  0  0  0
 16 17  2  0  0  0  0
 17 12  1  0  0  0  0
 17 20  1  0  0  0  0
 18 15  1  0  0  0  0
 19 16  1  0  0  0  0
 21 27  1  0  0  0  0
 21 26  1  0  0  0  0
 22 21  2  0  0  0  0
 23 22  1  0  0  0  0
 23 24  2  0  0  0  0
 24 25  1  0  0  0  0
 25 26  2  0  0  0  0
 25 29  1  0  0  0  0
 28 22  1  0  0  0  0
 30 32  2  0  0  0  0
 31 30  2  0  0  0  0
 33 34  1  0  0  0  0
 34 35  1  0  0  0  0
 36 35  1  0  0  0  0
 37 30  1  0  0  0  0
 37 36  1  0  0  0  0
 38 37  1  0  0  0  0
 39 38  1  0  0  0  0
 39 34  1  0  0  0  0
M  END
>  <minimizedAffinity>
-4.54376221

>  <minimizedRMSD>
1.65210474

$$$$
