
 OpenBabel03252508033D

 40 43  0  0  1  0  0  0  0  0999 V2000
   44.3810   34.5210   41.7000 C   0  0  0  0  0  0  0  0  0  0  0  0
   45.2920   34.5210   40.8000 O   0  0  0  0  0  0  0  0  0  0  0  0
   42.2510   33.3190   41.1640 C   0  0  0  0  0  0  0  0  0  0  0  0
   42.9420   34.4900   41.4050 C   0  0  0  0  0  0  0  0  0  0  0  0
   42.2520   35.6900   41.3730 C   0  0  0  0  0  0  0  0  0  0  0  0
   40.8960   35.7320   41.1050 C   0  0  0  0  0  0  0  0  0  0  0  0
   40.2030   34.5800   40.8660 C   0  0  0  0  0  0  0  0  0  0  0  0
   40.8970   33.4050   40.9020 C   0  0  0  0  0  0  0  0  0  0  0  0
   42.7220   36.6540   41.5490 H   0  0  0  0  0  0  0  0  0  0  0  0
   40.3840   36.6680   41.0850 H   0  0  0  0  0  0  0  0  0  0  0  0
   39.1620   34.5800   40.6560 H   0  0  0  0  0  0  0  0  0  0  0  0
   40.3360   32.4860   40.7090 H   0  0  0  0  0  0  0  0  0  0  0  0
   43.0250   31.8380   41.0980 S   0  0  0  0  0  0  0  0  0  0  0  0
   42.0000   30.8920   40.5700 O   0  0  0  0  0  0  0  0  0  0  0  0
   43.3760   31.4670   42.5780 O   0  0  0  0  0  0  0  0  0  0  0  0
   47.0990   33.1540   38.4180 H   0  0  0  0  0  0  0  0  0  0  0  0
   46.4900   32.3170   38.5490 N   0  0  0  0  0  0  0  0  0  0  0  0
   45.0880   32.6430   38.5260 C   0  0  0  0  0  0  0  0  0  0  0  0
   44.3500   31.4310   38.9150 C   0  0  0  0  0  0  0  0  0  0  0  0
   44.3190   31.1100   40.4180 C   0  0  0  0  0  0  0  0  0  0  0  0
   45.7260   31.5280   40.7930 C   0  0  0  0  0  0  0  0  0  0  0  0
   46.7470   31.5400   39.7090 C   0  0  0  0  0  0  0  0  0  0  0  0
   44.6670   34.5550   43.1000 C   0  0  0  0  0  0  0  0  0  0  0  0
   44.3070   35.7460   43.7890 C   0  0  0  0  0  0  0  0  0  0  0  0
   44.5660   35.7810   45.1570 C   0  0  0  0  0  0  0  0  0  0  0  0
   45.1370   34.6920   45.7360 N   0  0  0  0  0  0  0  0  0  0  0  0
   45.4650   33.5670   45.0270 C   0  0  0  0  0  0  0  0  0  0  0  0
   45.2190   33.5540   43.7670 N   0  0  0  0  0  0  0  0  0  0  0  0
   43.8620   36.6270   43.3990 H   0  0  0  0  0  0  0  0  0  0  0  0
   44.3310   36.6470   45.7800 H   0  0  0  0  0  0  0  0  0  0  0  0
   46.0680   32.4280   45.7420 C   0  0  1  0  0  0  0  0  0  0  0  0
   47.0100   32.6830   46.8900 C   0  0  0  0  0  0  0  0  0  0  0  0
   45.5910   32.2490   47.1390 C   0  0  1  0  0  0  0  0  0  0  0  0
   46.3150   31.5240   45.1540 H   0  0  0  0  0  0  0  0  0  0  0  0
   47.3090   33.7490   47.1070 H   0  0  0  0  0  0  0  0  0  0  0  0
   47.8300   31.9930   47.1120 H   0  0  0  0  0  0  0  0  0  0  0  0
   45.4940   31.2060   47.4900 H   0  0  0  0  0  0  0  0  0  0  0  0
   44.7830   33.2680   47.7690 N   0  0  0  0  0  0  0  0  0  0  0  0
   45.3140   34.0540   48.1760 H   0  0  0  0  0  0  0  0  0  0  0  0
   44.2340   32.8050   48.5400 H   0  0  0  0  0  0  0  0  0  0  0  0
  1 23  1  0  0  0  0
  2  1  2  0  0  0  0
  3  4  1  0  0  0  0
  4  1  1  0  0  0  0
  5  4  2  0  0  0  0
  5  9  1  0  0  0  0
  6  5  1  0  0  0  0
  7  8  1  0  0  0  0
  7  6  2  0  0  0  0
  8  3  2  0  0  0  0
 10  6  1  0  0  0  0
 11  7  1  0  0  0  0
 12  8  1  0  0  0  0
 13  3  1  0  0  0  0
 13 15  2  0  0  0  0
 14 13  2  0  0  0  0
 16 17  1  0  0  0  0
 17 22  1  0  0  0  0
 18 17  1  0  0  0  0
 18 19  1  0  0  0  0
 19 20  1  0  0  0  0
 20 21  1  0  0  0  0
 20 13  1  0  0  0  0
 22 21  1  0  0  0  0
 23 28  2  0  0  0  0
 23 24  1  0  0  0  0
 24 25  2  0  0  0  0
 25 26  1  0  0  0  0
 25 30  1  0  0  0  0
 27 26  2  0  0  0  0
 27 31  1  0  0  0  0
 28 27  1  0  0  0  0
 29 24  1  0  0  0  0
 31 34  1  6  0  0  0
 31 32  1  0  0  0  0
 31 33  1  0  0  0  0
 32 35  1  0  0  0  0
 32 36  1  0  0  0  0
 32 33  1  0  0  0  0
 33 37  1  1  0  0  0
 33 38  1  0  0  0  0
 38 39  1  0  0  0  0
 38 40  1  0  0  0  0
M  END
>  <minimizedAffinity>
-5.90407276

>  <minimizedRMSD>
1.21498549

$$$$
