
 OpenBabel03252509083D

 39 42  0  0  0  0  0  0  0  0999 V2000
   47.6610   31.8290   38.9970 C   0  0  0  0  0  0  0  0  0  0  0  0
   47.1790   33.1040   38.9510 C   0  0  0  0  0  0  0  0  0  0  0  0
   47.7860   34.0200   38.1160 C   0  0  0  0  0  0  0  0  0  0  0  0
   48.8590   33.6520   37.3420 C   0  0  0  0  0  0  0  0  0  0  0  0
   49.3690   32.3570   37.3690 C   0  0  0  0  0  0  0  0  0  0  0  0
   48.7520   31.4500   38.2110 C   0  0  0  0  0  0  0  0  0  0  0  0
   47.4190   35.0510   38.0610 H   0  0  0  0  0  0  0  0  0  0  0  0
   49.3090   34.3850   36.7040 H   0  0  0  0  0  0  0  0  0  0  0  0
   50.2100   32.0320   36.7740 H   0  0  0  0  0  0  0  0  0  0  0  0
   49.1510   30.4340   38.2340 H   0  0  0  0  0  0  0  0  0  0  0  0
   45.3600   35.3920   43.1850 Cl  0  0  0  0  0  0  0  0  0  0  0  0
   45.2040   34.6130   41.6400 C   0  0  0  0  0  0  0  0  0  0  0  0
   46.2850   34.1980   40.9510 C   0  0  0  0  0  0  0  0  0  0  0  0
   46.0500   33.5830   39.7270 C   0  0  0  0  0  0  0  0  0  0  0  0
   44.7860   33.4030   39.2300 C   0  0  0  0  0  0  0  0  0  0  0  0
   43.7100   33.8280   39.9390 C   0  0  0  0  0  0  0  0  0  0  0  0
   43.9290   34.4380   41.1530 C   0  0  0  0  0  0  0  0  0  0  0  0
   44.6370   32.9210   38.2730 H   0  0  0  0  0  0  0  0  0  0  0  0
   42.6870   33.7050   39.5820 H   0  0  0  0  0  0  0  0  0  0  0  0
   43.0570   34.7770   41.7160 H   0  0  0  0  0  0  0  0  0  0  0  0
   49.5890   35.7500   41.9190 C   0  0  0  0  0  0  0  0  0  0  0  0
   48.3160   35.5680   41.3680 C   0  0  0  0  0  0  0  0  0  0  0  0
   47.6000   34.3970   41.5130 C   0  0  0  0  0  0  0  0  0  0  0  0
   48.2270   33.4300   42.2340 N   0  0  0  0  0  0  0  0  0  0  0  0
   49.4480   33.5990   42.7650 C   0  0  0  0  0  0  0  0  0  0  0  0
   50.1180   34.7460   42.6070 N   0  0  0  0  0  0  0  0  0  0  0  0
   50.1330   36.6890   41.7870 H   0  0  0  0  0  0  0  0  0  0  0  0
   47.8970   36.3910   40.8110 H   0  0  0  0  0  0  0  0  0  0  0  0
   49.8850   32.7780   43.3300 H   0  0  0  0  0  0  0  0  0  0  0  0
   46.9700   30.6470   39.9790 S   0  0  0  0  0  0  0  0  0  0  0  0
   46.8630   29.3070   39.2730 O   0  0  0  0  0  0  0  0  0  0  0  0
   48.0520   30.4060   41.0670 O   0  0  0  0  0  0  0  0  0  0  0  0
   43.9760   29.2890   44.2290 H   0  0  0  0  0  0  0  0  0  0  0  0
   44.1660   29.6750   43.3020 N   0  0  0  0  0  0  0  0  0  0  0  0
   44.8640   30.9320   43.2640 C   0  0  0  0  0  2  0  0  0  0  0  0
   46.0350   30.8100   42.3700 C   0  0  0  0  0  2  0  0  0  0  0  0
   45.5470   30.6900   40.8760 C   0  0  0  0  0  3  0  0  0  0  0  0
   44.7550   29.3920   41.0090 C   0  0  0  0  0  2  0  0  0  0  0  0
   44.7770   28.7660   42.3590 C   0  0  0  0  0  2  0  0  0  0  0  0
  1 30  1  0  0  0  0
  2  1  1  0  0  0  0
  2 14  1  0  0  0  0
  3  2  2  0  0  0  0
  4  5  2  0  0  0  0
  4  3  1  0  0  0  0
  5  6  1  0  0  0  0
  6 10  1  0  0  0  0
  6  1  2  0  0  0  0
  7  3  1  0  0  0  0
  8  4  1  0  0  0  0
  9  5  1  0  0  0  0
 12 11  1  0  0  0  0
 13 23  1  0  0  0  0
 13 12  2  0  0  0  0
 14 13  1  0  0  0  0
 15 14  2  0  0  0  0
 15 16  1  0  0  0  0
 16 17  2  0  0  0  0
 17 12  1  0  0  0  0
 17 20  1  0  0  0  0
 18 15  1  0  0  0  0
 19 16  1  0  0  0  0
 21 26  1  0  0  0  0
 22 23  1  0  0  0  0
 22 21  2  0  0  0  0
 23 24  2  0  0  0  0
 24 25  1  0  0  0  0
 25 29  1  0  0  0  0
 26 25  2  0  0  0  0
 27 21  1  0  0  0  0
 28 22  1  0  0  0  0
 30 37  1  0  0  0  0
 30 32  2  0  0  0  0
 31 30  2  0  0  0  0
 34 33  1  0  0  0  0
 35 34  1  0  0  0  0
 36 35  1  0  0  0  0
 37 38  1  0  0  0  0
 37 36  1  0  0  0  0
 38 39  1  0  0  0  0
 39 34  1  0  0  0  0
M  END
>  <minimizedAffinity>
-4.66426945

>  <minimizedRMSD>
0.556486368

$$$$
