
 OpenBabel03242517043D

 31 33  0  0  0  0  0  0  0  0999 V2000
   46.5990   34.7620   41.9790 C   0  0  0  0  0  0  0  0  0  0  0  0
   47.9060   35.2170   41.9200 C   0  0  0  0  0  0  0  0  0  0  0  0
   48.6110   35.0180   40.7500 C   0  0  0  0  0  0  0  0  0  0  0  0
   48.0370   34.3930   39.6920 C   0  0  0  0  0  0  0  0  0  0  0  0
   46.7400   33.9290   39.7170 C   0  0  0  0  0  0  0  0  0  0  0  0
   46.0290   34.1350   40.9100 C   0  0  0  0  0  0  0  0  0  0  0  0
   48.3670   35.7210   42.7780 H   0  0  0  0  0  0  0  0  0  0  0  0
   49.6340   35.3640   40.6800 H   0  0  0  0  0  0  0  0  0  0  0  0
   48.5690   34.2250   38.7660 H   0  0  0  0  0  0  0  0  0  0  0  0
   46.2080   33.4180   38.9100 H   0  0  0  0  0  0  0  0  0  0  0  0
   44.5440   36.2340   44.7760 C   0  0  0  0  0  0  0  0  0  0  0  0
   45.1820   36.1320   43.5200 C   0  0  0  0  0  0  0  0  0  0  0  0
   45.8920   34.9950   43.2440 C   0  0  0  0  0  0  0  0  0  0  0  0
   45.9510   34.0180   44.1980 N   0  0  0  0  0  0  0  0  0  0  0  0
   45.3400   34.1200   45.3960 C   0  0  0  0  0  0  0  0  0  0  0  0
   44.6270   35.2430   45.6910 N   0  0  0  0  0  0  0  0  0  0  0  0
   44.0130   37.1760   44.8800 H   0  0  0  0  0  0  0  0  0  0  0  0
   45.1540   36.8750   42.7590 H   0  0  0  0  0  0  0  0  0  0  0  0
   45.3990   33.3350   46.1350 H   0  0  0  0  0  0  0  0  0  0  0  0
   43.4240   34.2980   40.9800 C   0  0  0  0  0  0  0  0  0  0  0  0
   43.2080   35.4680   40.7050 O   0  0  0  0  0  0  0  0  0  0  0  0
   44.6970   33.7100   41.0910 N   0  0  0  0  0  0  0  0  0  0  0  0
   44.7950   32.6990   41.3740 H   0  0  0  0  0  0  0  0  0  0  0  0
   42.3200   33.4700   41.2050 O   0  0  0  0  0  0  0  0  0  0  0  0
   38.8540   32.8140   39.1210 H   0  0  0  0  0  0  0  0  0  0  0  0
   39.2000   33.7050   38.7310 N   0  0  0  0  0  0  0  0  0  0  0  0
   39.2010   34.7700   39.6870 C   0  0  0  0  0  0  0  0  0  0  0  0
   40.2130   34.5920   40.7830 C   0  0  0  0  0  0  0  0  0  0  0  0
   41.2230   33.5370   40.3470 C   0  0  0  0  0  0  0  0  0  0  0  0
   41.6510   33.7970   38.9070 C   0  0  0  0  0  0  0  0  0  0  0  0
   40.4440   33.5640   38.0310 C   0  0  0  0  0  0  0  0  0  0  0  0
  1 13  1  0  0  0  0
  2  1  1  0  0  0  0
  2  7  1  0  0  0  0
  3  2  2  0  0  0  0
  4  5  2  0  0  0  0
  4  3  1  0  0  0  0
  5  6  1  0  0  0  0
  6 22  1  0  0  0  0
  6  1  2  0  0  0  0
  8  3  1  0  0  0  0
  9  4  1  0  0  0  0
 10  5  1  0  0  0  0
 11 17  1  0  0  0  0
 11 16  1  0  0  0  0
 12 11  2  0  0  0  0
 13 12  1  0  0  0  0
 13 14  2  0  0  0  0
 14 15  1  0  0  0  0
 15 16  2  0  0  0  0
 15 19  1  0  0  0  0
 18 12  1  0  0  0  0
 20 22  1  0  0  0  0
 20 24  1  0  0  0  0
 21 20  2  0  0  0  0
 22 23  1  0  0  0  0
 26 25  1  0  0  0  0
 26 27  1  0  0  0  0
 27 28  1  0  0  0  0
 29 28  1  0  0  0  0
 29 24  1  0  0  0  0
 30 29  1  0  0  0  0
 31 26  1  0  0  0  0
 31 30  1  0  0  0  0
M  END
>  <minimizedAffinity>
-6.39035225

>  <minimizedRMSD>
0.712165177

$$$$
