
 OpenBabel03252506383D

 42 45  0  0  1  0  0  0  0  0999 V2000
   44.5170   35.5080   45.1390 C   0  0  0  0  0  0  0  0  0  0  0  0
   45.1670   35.4910   43.8860 C   0  0  0  0  0  0  0  0  0  0  0  0
   46.0810   34.5280   43.6290 C   0  0  0  0  0  0  0  0  0  0  0  0
   46.3190   33.6210   44.6100 N   0  0  0  0  0  0  0  0  0  0  0  0
   45.7050   33.6420   45.7830 C   0  0  0  0  0  0  0  0  0  0  0  0
   44.8020   34.5780   46.0640 N   0  0  0  0  0  0  0  0  0  0  0  0
   46.0370   32.6330   46.7520 N   0  0  0  0  0  0  0  0  0  0  0  0
   45.3070   32.3920   47.9410 C   0  0  0  0  0  0  0  0  0  0  0  0
   46.3840   32.0460   48.9510 C   0  0  0  0  0  0  0  0  0  0  0  0
   47.6620   31.9370   48.1750 C   0  0  0  0  0  0  0  0  0  0  0  0
   47.1570   31.7200   46.7490 C   0  0  1  0  0  0  0  0  0  0  0  0
   43.7790   36.2970   45.3300 H   0  0  0  0  0  0  0  0  0  0  0  0
   46.5900   34.4910   42.6850 H   0  0  0  0  0  0  0  0  0  0  0  0
   44.9420   33.4090   48.2970 H   0  0  0  0  0  0  0  0  0  0  0  0
   44.4990   31.7480   48.0530 H   0  0  0  0  0  0  0  0  0  0  0  0
   46.4110   32.6960   49.8280 H   0  0  0  0  0  0  0  0  0  0  0  0
   46.1800   31.0140   49.3630 H   0  0  0  0  0  0  0  0  0  0  0  0
   48.2630   31.0780   48.4980 H   0  0  0  0  0  0  0  0  0  0  0  0
   48.1990   32.9030   48.2590 H   0  0  0  0  0  0  0  0  0  0  0  0
   47.9610   32.0130   46.0710 H   0  0  0  0  0  0  0  0  0  0  0  0
   44.8130   36.5180   42.9430 N   0  0  0  0  0  0  0  0  0  0  0  0
   44.4590   37.4440   43.2160 H   0  0  0  0  0  0  0  0  0  0  0  0
   44.9450   36.2480   41.9310 H   0  0  0  0  0  0  0  0  0  0  0  0
   46.6430   30.0300   46.5670 S   0  0  0  0  0  0  0  0  0  0  0  0
   45.6080   30.3730   43.4130 O   0  0  0  0  0  0  0  0  0  0  0  0
   44.9720   29.9000   44.3690 C   0  0  0  0  0  0  0  0  0  0  0  0
   45.0790   29.7470   45.8440 C   0  0  1  0  0  0  0  0  0  0  0  0
   44.5160   28.3640   46.0410 C   0  0  0  0  0  0  0  0  0  0  0  0
   43.1970   28.5710   45.2910 C   0  0  0  0  0  0  0  0  0  0  0  0
   43.7020   29.2650   44.1130 N   0  0  0  0  0  0  0  0  0  0  0  0
   44.2170   30.3840   46.1730 H   0  0  0  0  0  0  0  0  0  0  0  0
   44.2920   28.1030   47.0830 H   0  0  0  0  0  0  0  0  0  0  0  0
   45.0670   27.5910   45.4790 H   0  0  0  0  0  0  0  0  0  0  0  0
   42.7780   27.5840   45.0750 H   0  0  0  0  0  0  0  0  0  0  0  0
   42.5610   29.2020   45.9360 H   0  0  0  0  0  0  0  0  0  0  0  0
   40.0860   30.3550   41.0640 H   0  0  0  0  0  0  0  0  0  0  0  0
   40.1720   29.7500   41.9130 N   0  0  0  0  0  0  0  0  0  0  0  0
   40.9330   28.5440   41.6950 C   0  0  0  0  0  2  0  0  0  0  0  0
   41.8320   28.2330   42.8960 C   0  0  0  0  0  2  0  0  0  0  0  0
   42.9220   29.2460   42.8770 C   0  0  0  0  0  3  0  0  0  0  0  0
   42.2870   30.6120   42.6120 C   0  0  0  0  0  2  0  0  0  0  0  0
   40.8040   30.5730   42.9280 C   0  0  0  0  0  2  0  0  0  0  0  0
  1 12  1  0  0  0  0
  1  6  1  0  0  0  0
  2  1  2  0  0  0  0
  3  2  1  0  0  0  0
  3  4  2  0  0  0  0
  4  5  1  0  0  0  0
  5  6  2  0  0  0  0
  5  7  1  0  0  0  0
  7  8  1  0  0  0  0
  8 15  1  0  0  0  0
  8 14  1  0  0  0  0
  8  9  1  0  0  0  0
  9 17  1  0  0  0  0
  9 16  1  0  0  0  0
 10 19  1  0  0  0  0
 10 18  1  0  0  0  0
 10  9  1  0  0  0  0
 11 20  1  6  0  0  0
 11  7  1  0  0  0  0
 11 10  1  0  0  0  0
 13  3  1  0  0  0  0
 21 22  1  0  0  0  0
 21  2  1  0  0  0  0
 23 21  1  0  0  0  0
 24 11  1  0  0  0  0
 25 26  2  0  0  0  0
 26 27  1  0  0  0  0
 27 28  1  0  0  0  0
 27 31  1  1  0  0  0
 27 24  1  0  0  0  0
 28 32  1  0  0  0  0
 29 35  1  0  0  0  0
 29 28  1  0  0  0  0
 30 26  1  0  0  0  0
 30 29  1  0  0  0  0
 33 28  1  0  0  0  0
 34 29  1  0  0  0  0
 36 37  1  0  0  0  0
 37 42  1  0  0  0  0
 38 37  1  0  0  0  0
 38 39  1  0  0  0  0
 40 39  1  0  0  0  0
 40 30  1  0  0  0  0
 41 40  1  0  0  0  0
 41 42  1  0  0  0  0
M  END
>  <minimizedAffinity>
-5.6234498

>  <minimizedRMSD>
0.38273254

$$$$
