
 OpenBabel03252506383D

 42 45  0  0  1  0  0  0  0  0999 V2000
   44.5130   35.5280   45.1380 C   0  0  0  0  0  0  0  0  0  0  0  0
   45.1630   35.5080   43.8850 C   0  0  0  0  0  0  0  0  0  0  0  0
   46.0750   34.5420   43.6300 C   0  0  0  0  0  0  0  0  0  0  0  0
   46.3110   33.6370   44.6130 N   0  0  0  0  0  0  0  0  0  0  0  0
   45.6970   33.6610   45.7860 C   0  0  0  0  0  0  0  0  0  0  0  0
   44.7960   34.6000   46.0650 N   0  0  0  0  0  0  0  0  0  0  0  0
   46.0270   32.6540   46.7570 N   0  0  0  0  0  0  0  0  0  0  0  0
   45.2960   32.4170   47.9470 C   0  0  0  0  0  0  0  0  0  0  0  0
   46.3720   32.0710   48.9570 C   0  0  0  0  0  0  0  0  0  0  0  0
   47.6500   31.9580   48.1820 C   0  0  0  0  0  0  0  0  0  0  0  0
   47.1460   31.7390   46.7560 C   0  0  1  0  0  0  0  0  0  0  0  0
   43.7760   36.3180   45.3270 H   0  0  0  0  0  0  0  0  0  0  0  0
   46.5850   34.5030   42.6860 H   0  0  0  0  0  0  0  0  0  0  0  0
   44.9330   33.4350   48.3000 H   0  0  0  0  0  0  0  0  0  0  0  0
   44.4870   31.7740   48.0600 H   0  0  0  0  0  0  0  0  0  0  0  0
   46.4000   32.7220   49.8330 H   0  0  0  0  0  0  0  0  0  0  0  0
   46.1660   31.0400   49.3720 H   0  0  0  0  0  0  0  0  0  0  0  0
   48.2490   31.0980   48.5070 H   0  0  0  0  0  0  0  0  0  0  0  0
   48.1890   32.9230   48.2650 H   0  0  0  0  0  0  0  0  0  0  0  0
   47.9500   32.0290   46.0780 H   0  0  0  0  0  0  0  0  0  0  0  0
   44.8110   36.5330   42.9400 N   0  0  0  0  0  0  0  0  0  0  0  0
   44.4580   37.4600   43.2100 H   0  0  0  0  0  0  0  0  0  0  0  0
   44.9420   36.2610   41.9280 H   0  0  0  0  0  0  0  0  0  0  0  0
   46.6290   30.0500   46.5770 S   0  0  0  0  0  0  0  0  0  0  0  0
   45.6710   30.4450   43.4050 O   0  0  0  0  0  0  0  0  0  0  0  0
   45.0160   29.9470   44.3350 C   0  0  0  0  0  0  0  0  0  0  0  0
   45.0870   29.7660   45.8090 C   0  0  1  0  0  0  0  0  0  0  0  0
   44.5330   28.3740   45.9640 C   0  0  0  0  0  0  0  0  0  0  0  0
   43.2320   28.5830   45.1840 C   0  0  0  0  0  0  0  0  0  0  0  0
   43.7600   29.3040   44.0340 N   0  0  0  0  0  0  0  0  0  0  0  0
   44.2100   30.3880   46.1270 H   0  0  0  0  0  0  0  0  0  0  0  0
   44.2850   28.0900   46.9950 H   0  0  0  0  0  0  0  0  0  0  0  0
   45.1060   27.6170   45.4020 H   0  0  0  0  0  0  0  0  0  0  0  0
   42.8280   27.5960   44.9380 H   0  0  0  0  0  0  0  0  0  0  0  0
   42.5720   29.1940   45.8240 H   0  0  0  0  0  0  0  0  0  0  0  0
   40.2250   30.4390   40.9050 H   0  0  0  0  0  0  0  0  0  0  0  0
   40.2890   29.8220   41.7480 N   0  0  0  0  0  0  0  0  0  0  0  0
   41.0540   28.6190   41.5350 C   0  0  0  0  0  2  0  0  0  0  0  0
   41.9210   28.2900   42.7550 C   0  0  0  0  0  2  0  0  0  0  0  0
   43.0120   29.3020   42.7770 C   0  0  0  0  0  3  0  0  0  0  0  0
   42.3860   30.6720   42.5130 C   0  0  0  0  0  2  0  0  0  0  0  0
   40.8940   30.6320   42.7910 C   0  0  0  0  0  2  0  0  0  0  0  0
  1 12  1  0  0  0  0
  1  6  1  0  0  0  0
  2  1  2  0  0  0  0
  3  2  1  0  0  0  0
  3  4  2  0  0  0  0
  4  5  1  0  0  0  0
  5  6  2  0  0  0  0
  5  7  1  0  0  0  0
  7  8  1  0  0  0  0
  8 15  1  0  0  0  0
  8 14  1  0  0  0  0
  8  9  1  0  0  0  0
  9 17  1  0  0  0  0
  9 16  1  0  0  0  0
 10 19  1  0  0  0  0
 10 18  1  0  0  0  0
 10  9  1  0  0  0  0
 11 20  1  6  0  0  0
 11  7  1  0  0  0  0
 11 10  1  0  0  0  0
 13  3  1  0  0  0  0
 21 22  1  0  0  0  0
 21  2  1  0  0  0  0
 23 21  1  0  0  0  0
 24 11  1  0  0  0  0
 25 26  2  0  0  0  0
 26 27  1  0  0  0  0
 27 28  1  0  0  0  0
 27 31  1  1  0  0  0
 27 24  1  0  0  0  0
 28 32  1  0  0  0  0
 29 35  1  0  0  0  0
 29 28  1  0  0  0  0
 30 26  1  0  0  0  0
 30 29  1  0  0  0  0
 33 28  1  0  0  0  0
 34 29  1  0  0  0  0
 36 37  1  0  0  0  0
 37 42  1  0  0  0  0
 38 37  1  0  0  0  0
 38 39  1  0  0  0  0
 39 40  1  0  0  0  0
 40 30  1  0  0  0  0
 41 40  1  0  0  0  0
 41 42  1  0  0  0  0
M  END
>  <minimizedAffinity>
-5.61090994

>  <minimizedRMSD>
0.90448761

$$$$
