
 OpenBabel03252506373D

 42 45  0  0  1  0  0  0  0  0999 V2000
   44.5060   35.5430   45.1410 C   0  0  0  0  0  0  0  0  0  0  0  0
   45.1540   35.5350   43.8870 C   0  0  0  0  0  0  0  0  0  0  0  0
   46.0660   34.5720   43.6210 C   0  0  0  0  0  0  0  0  0  0  0  0
   46.3050   33.6580   44.5950 N   0  0  0  0  0  0  0  0  0  0  0  0
   45.6930   33.6710   45.7700 C   0  0  0  0  0  0  0  0  0  0  0  0
   44.7910   34.6070   46.0590 N   0  0  0  0  0  0  0  0  0  0  0  0
   46.0250   32.6550   46.7320 N   0  0  0  0  0  0  0  0  0  0  0  0
   45.2970   32.4070   47.9200 C   0  0  0  0  0  0  0  0  0  0  0  0
   46.3750   32.0530   48.9260 C   0  0  0  0  0  0  0  0  0  0  0  0
   47.6510   31.9480   48.1470 C   0  0  0  0  0  0  0  0  0  0  0  0
   47.1440   31.7410   46.7200 C   0  0  1  0  0  0  0  0  0  0  0  0
   43.7700   36.3320   45.3380 H   0  0  0  0  0  0  0  0  0  0  0  0
   46.5740   34.5410   42.6760 H   0  0  0  0  0  0  0  0  0  0  0  0
   44.9330   33.4220   48.2830 H   0  0  0  0  0  0  0  0  0  0  0  0
   44.4880   31.7630   48.0290 H   0  0  0  0  0  0  0  0  0  0  0  0
   46.4050   32.6970   49.8070 H   0  0  0  0  0  0  0  0  0  0  0  0
   46.1700   31.0190   49.3310 H   0  0  0  0  0  0  0  0  0  0  0  0
   48.2520   31.0860   48.4630 H   0  0  0  0  0  0  0  0  0  0  0  0
   48.1900   32.9120   48.2370 H   0  0  0  0  0  0  0  0  0  0  0  0
   47.9470   32.0380   46.0430 H   0  0  0  0  0  0  0  0  0  0  0  0
   44.8000   36.5680   42.9520 N   0  0  0  0  0  0  0  0  0  0  0  0
   44.4470   37.4920   43.2310 H   0  0  0  0  0  0  0  0  0  0  0  0
   44.9290   36.3050   41.9370 H   0  0  0  0  0  0  0  0  0  0  0  0
   46.6280   30.0530   46.5270 S   0  0  0  0  0  0  0  0  0  0  0  0
   45.6820   30.5720   43.3690 O   0  0  0  0  0  0  0  0  0  0  0  0
   45.0310   30.0200   44.2710 C   0  0  0  0  0  0  0  0  0  0  0  0
   45.0960   29.7750   45.7360 C   0  0  1  0  0  0  0  0  0  0  0  0
   44.5690   28.3660   45.8250 C   0  0  0  0  0  0  0  0  0  0  0  0
   43.2680   28.5850   45.0460 C   0  0  0  0  0  0  0  0  0  0  0  0
   43.7900   29.3680   43.9330 N   0  0  0  0  0  0  0  0  0  0  0  0
   44.2050   30.3640   46.0760 H   0  0  0  0  0  0  0  0  0  0  0  0
   44.3200   28.0320   46.8400 H   0  0  0  0  0  0  0  0  0  0  0  0
   45.1600   27.6470   45.2340 H   0  0  0  0  0  0  0  0  0  0  0  0
   42.8850   27.6030   44.7540 H   0  0  0  0  0  0  0  0  0  0  0  0
   42.5930   29.1550   45.7090 H   0  0  0  0  0  0  0  0  0  0  0  0
   40.2260   30.5330   40.8470 H   0  0  0  0  0  0  0  0  0  0  0  0
   40.3130   29.8710   41.6540 N   0  0  0  0  0  0  0  0  0  0  0  0
   41.1290   28.7160   41.3780 C   0  0  0  0  0  2  0  0  0  0  0  0
   42.0020   28.3530   42.5830 C   0  0  0  0  0  2  0  0  0  0  0  0
   43.0500   29.4070   42.6730 C   0  0  0  0  0  3  0  0  0  0  0  0
   42.3660   30.7630   42.4840 C   0  0  0  0  0  2  0  0  0  0  0  0
   40.8770   30.6430   42.7470 C   0  0  0  0  0  2  0  0  0  0  0  0
  1 12  1  0  0  0  0
  1  6  1  0  0  0  0
  2  1  2  0  0  0  0
  3  2  1  0  0  0  0
  3  4  2  0  0  0  0
  4  5  1  0  0  0  0
  5  6  2  0  0  0  0
  5  7  1  0  0  0  0
  7  8  1  0  0  0  0
  8 15  1  0  0  0  0
  8 14  1  0  0  0  0
  8  9  1  0  0  0  0
  9 17  1  0  0  0  0
  9 16  1  0  0  0  0
 10 19  1  0  0  0  0
 10 18  1  0  0  0  0
 10  9  1  0  0  0  0
 11 20  1  6  0  0  0
 11  7  1  0  0  0  0
 11 10  1  0  0  0  0
 13  3  1  0  0  0  0
 21 22  1  0  0  0  0
 21  2  1  0  0  0  0
 23 21  1  0  0  0  0
 24 11  1  0  0  0  0
 25 26  2  0  0  0  0
 26 27  1  0  0  0  0
 27 28  1  0  0  0  0
 27 31  1  1  0  0  0
 27 24  1  0  0  0  0
 28 32  1  0  0  0  0
 29 35  1  0  0  0  0
 29 28  1  0  0  0  0
 30 26  1  0  0  0  0
 30 29  1  0  0  0  0
 33 28  1  0  0  0  0
 34 29  1  0  0  0  0
 36 37  1  0  0  0  0
 37 42  1  0  0  0  0
 38 37  1  0  0  0  0
 38 39  1  0  0  0  0
 39 40  1  0  0  0  0
 40 30  1  0  0  0  0
 41 40  1  0  0  0  0
 41 42  1  0  0  0  0
M  END
>  <minimizedAffinity>
-5.59101486

>  <minimizedRMSD>
0.390535384

$$$$
