
 OpenBabel03252506383D

 42 45  0  0  1  0  0  0  0  0999 V2000
   44.5020   35.5230   45.1420 C   0  0  0  0  0  0  0  0  0  0  0  0
   45.1710   35.5210   43.8990 C   0  0  0  0  0  0  0  0  0  0  0  0
   46.1010   34.5700   43.6510 C   0  0  0  0  0  0  0  0  0  0  0  0
   46.3360   33.6610   44.6310 N   0  0  0  0  0  0  0  0  0  0  0  0
   45.7040   33.6690   45.7940 C   0  0  0  0  0  0  0  0  0  0  0  0
   44.7840   34.5920   46.0660 N   0  0  0  0  0  0  0  0  0  0  0  0
   46.0330   32.6590   46.7640 N   0  0  0  0  0  0  0  0  0  0  0  0
   45.2880   32.4030   47.9400 C   0  0  0  0  0  0  0  0  0  0  0  0
   46.3530   32.0650   48.9650 C   0  0  0  0  0  0  0  0  0  0  0  0
   47.6440   31.9770   48.2080 C   0  0  0  0  0  0  0  0  0  0  0  0
   47.1650   31.7600   46.7730 C   0  0  1  0  0  0  0  0  0  0  0  0
   43.7520   36.3020   45.3250 H   0  0  0  0  0  0  0  0  0  0  0  0
   46.6250   34.5450   42.7140 H   0  0  0  0  0  0  0  0  0  0  0  0
   44.9050   33.4130   48.2950 H   0  0  0  0  0  0  0  0  0  0  0  0
   44.4860   31.7480   48.0360 H   0  0  0  0  0  0  0  0  0  0  0  0
   46.3590   32.7110   49.8450 H   0  0  0  0  0  0  0  0  0  0  0  0
   46.1560   31.0290   49.3690 H   0  0  0  0  0  0  0  0  0  0  0  0
   48.2510   31.1230   48.5360 H   0  0  0  0  0  0  0  0  0  0  0  0
   48.1680   32.9480   48.3050 H   0  0  0  0  0  0  0  0  0  0  0  0
   47.9750   32.0670   46.1090 H   0  0  0  0  0  0  0  0  0  0  0  0
   44.8190   36.5480   42.9560 N   0  0  0  0  0  0  0  0  0  0  0  0
   44.4490   37.4680   43.2270 H   0  0  0  0  0  0  0  0  0  0  0  0
   44.9690   36.2850   41.9440 H   0  0  0  0  0  0  0  0  0  0  0  0
   46.6750   30.0650   46.5750 S   0  0  0  0  0  0  0  0  0  0  0  0
   45.6690   30.6510   43.4470 O   0  0  0  0  0  0  0  0  0  0  0  0
   45.0480   30.0530   44.3400 C   0  0  0  0  0  0  0  0  0  0  0  0
   45.1410   29.7660   45.7960 C   0  0  1  0  0  0  0  0  0  0  0  0
   44.6560   28.3400   45.8490 C   0  0  0  0  0  0  0  0  0  0  0  0
   43.3390   28.5440   45.0950 C   0  0  0  0  0  0  0  0  0  0  0  0
   43.8210   29.3750   43.9990 N   0  0  0  0  0  0  0  0  0  0  0  0
   44.2380   30.3180   46.1660 H   0  0  0  0  0  0  0  0  0  0  0  0
   44.4320   27.9680   46.8570 H   0  0  0  0  0  0  0  0  0  0  0  0
   45.2590   27.6570   45.2280 H   0  0  0  0  0  0  0  0  0  0  0  0
   42.9800   27.5600   44.7770 H   0  0  0  0  0  0  0  0  0  0  0  0
   42.6570   29.0730   45.7830 H   0  0  0  0  0  0  0  0  0  0  0  0
   43.0560   29.5290   39.2070 H   0  0  0  0  0  0  0  0  0  0  0  0
   43.3920   30.2180   39.9190 N   0  0  0  0  0  0  0  0  0  0  0  0
   42.3600   30.6890   40.8090 C   0  0  0  0  0  2  0  0  0  0  0  0
   42.8820   30.8180   42.2440 C   0  0  0  0  0  2  0  0  0  0  0  0
   43.0620   29.4310   42.7510 C   0  0  0  0  0  3  0  0  0  0  0  0
   43.7550   28.6180   41.6550 C   0  0  0  0  0  2  0  0  0  0  0  0
   44.4390   29.5430   40.6660 C   0  0  0  0  0  2  0  0  0  0  0  0
  1 12  1  0  0  0  0
  1  6  1  0  0  0  0
  2  1  2  0  0  0  0
  3  2  1  0  0  0  0
  3  4  2  0  0  0  0
  4  5  1  0  0  0  0
  5  6  2  0  0  0  0
  5  7  1  0  0  0  0
  7 11  1  0  0  0  0
  7  8  1  0  0  0  0
  8 15  1  0  0  0  0
  8 14  1  0  0  0  0
  8  9  1  0  0  0  0
  9 17  1  0  0  0  0
  9 16  1  0  0  0  0
 10 19  1  0  0  0  0
 10 18  1  0  0  0  0
 10  9  1  0  0  0  0
 11 20  1  6  0  0  0
 11 10  1  0  0  0  0
 13  3  1  0  0  0  0
 21 22  1  0  0  0  0
 21  2  1  0  0  0  0
 23 21  1  0  0  0  0
 24 11  1  0  0  0  0
 25 26  2  0  0  0  0
 26 27  1  0  0  0  0
 27 28  1  0  0  0  0
 27 31  1  1  0  0  0
 27 24  1  0  0  0  0
 28 32  1  0  0  0  0
 29 35  1  0  0  0  0
 29 28  1  0  0  0  0
 30 26  1  0  0  0  0
 30 29  1  0  0  0  0
 33 28  1  0  0  0  0
 34 29  1  0  0  0  0
 36 37  1  0  0  0  0
 37 42  1  0  0  0  0
 37 38  1  0  0  0  0
 38 39  1  0  0  0  0
 39 40  1  0  0  0  0
 40 30  1  0  0  0  0
 41 40  1  0  0  0  0
 42 41  1  0  0  0  0
M  END
>  <minimizedAffinity>
-5.17161179

>  <minimizedRMSD>
0.173668966

$$$$
