
 OpenBabel03252506383D

 42 45  0  0  1  0  0  0  0  0999 V2000
   44.5010   35.5250   45.1400 C   0  0  0  0  0  0  0  0  0  0  0  0
   45.1710   35.5230   43.8980 C   0  0  0  0  0  0  0  0  0  0  0  0
   46.1010   34.5730   43.6500 C   0  0  0  0  0  0  0  0  0  0  0  0
   46.3350   33.6640   44.6290 N   0  0  0  0  0  0  0  0  0  0  0  0
   45.7030   33.6710   45.7930 C   0  0  0  0  0  0  0  0  0  0  0  0
   44.7830   34.5940   46.0640 N   0  0  0  0  0  0  0  0  0  0  0  0
   46.0330   32.6610   46.7620 N   0  0  0  0  0  0  0  0  0  0  0  0
   45.2870   32.4050   47.9380 C   0  0  0  0  0  0  0  0  0  0  0  0
   46.3520   32.0670   48.9630 C   0  0  0  0  0  0  0  0  0  0  0  0
   47.6430   31.9790   48.2070 C   0  0  0  0  0  0  0  0  0  0  0  0
   47.1640   31.7630   46.7720 C   0  0  1  0  0  0  0  0  0  0  0  0
   43.7500   36.3030   45.3230 H   0  0  0  0  0  0  0  0  0  0  0  0
   46.6260   34.5480   42.7140 H   0  0  0  0  0  0  0  0  0  0  0  0
   44.9030   33.4150   48.2930 H   0  0  0  0  0  0  0  0  0  0  0  0
   44.4860   31.7490   48.0340 H   0  0  0  0  0  0  0  0  0  0  0  0
   46.3570   32.7130   49.8430 H   0  0  0  0  0  0  0  0  0  0  0  0
   46.1550   31.0310   49.3670 H   0  0  0  0  0  0  0  0  0  0  0  0
   48.2500   31.1260   48.5350 H   0  0  0  0  0  0  0  0  0  0  0  0
   48.1670   32.9510   48.3050 H   0  0  0  0  0  0  0  0  0  0  0  0
   47.9740   32.0700   46.1080 H   0  0  0  0  0  0  0  0  0  0  0  0
   44.8190   36.5510   42.9540 N   0  0  0  0  0  0  0  0  0  0  0  0
   44.4480   37.4700   43.2260 H   0  0  0  0  0  0  0  0  0  0  0  0
   44.9690   36.2880   41.9430 H   0  0  0  0  0  0  0  0  0  0  0  0
   46.6750   30.0680   46.5730 S   0  0  0  0  0  0  0  0  0  0  0  0
   45.6690   30.6520   43.4450 O   0  0  0  0  0  0  0  0  0  0  0  0
   45.0480   30.0550   44.3390 C   0  0  0  0  0  0  0  0  0  0  0  0
   45.1410   29.7680   45.7950 C   0  0  1  0  0  0  0  0  0  0  0  0
   44.6570   28.3420   45.8480 C   0  0  0  0  0  0  0  0  0  0  0  0
   43.3390   28.5460   45.0940 C   0  0  0  0  0  0  0  0  0  0  0  0
   43.8210   29.3760   43.9980 N   0  0  0  0  0  0  0  0  0  0  0  0
   44.2390   30.3200   46.1650 H   0  0  0  0  0  0  0  0  0  0  0  0
   44.4330   27.9700   46.8560 H   0  0  0  0  0  0  0  0  0  0  0  0
   45.2600   27.6590   45.2270 H   0  0  0  0  0  0  0  0  0  0  0  0
   42.9810   27.5620   44.7770 H   0  0  0  0  0  0  0  0  0  0  0  0
   42.6580   29.0750   45.7830 H   0  0  0  0  0  0  0  0  0  0  0  0
   43.0540   29.5290   39.2060 H   0  0  0  0  0  0  0  0  0  0  0  0
   43.3900   30.2180   39.9180 N   0  0  0  0  0  0  0  0  0  0  0  0
   42.3590   30.6890   40.8090 C   0  0  0  0  0  2  0  0  0  0  0  0
   42.8810   30.8190   42.2430 C   0  0  0  0  0  2  0  0  0  0  0  0
   43.0620   29.4310   42.7500 C   0  0  0  0  0  3  0  0  0  0  0  0
   43.7540   28.6200   41.6550 C   0  0  0  0  0  2  0  0  0  0  0  0
   44.4370   29.5430   40.6650 C   0  0  0  0  0  2  0  0  0  0  0  0
  1 12  1  0  0  0  0
  1  6  1  0  0  0  0
  2  1  2  0  0  0  0
  3  2  1  0  0  0  0
  3  4  2  0  0  0  0
  4  5  1  0  0  0  0
  5  6  2  0  0  0  0
  5  7  1  0  0  0  0
  7 11  1  0  0  0  0
  7  8  1  0  0  0  0
  8 15  1  0  0  0  0
  8 14  1  0  0  0  0
  8  9  1  0  0  0  0
  9 17  1  0  0  0  0
  9 16  1  0  0  0  0
 10 19  1  0  0  0  0
 10 18  1  0  0  0  0
 10  9  1  0  0  0  0
 11 20  1  6  0  0  0
 11 10  1  0  0  0  0
 13  3  1  0  0  0  0
 21 22  1  0  0  0  0
 21  2  1  0  0  0  0
 23 21  1  0  0  0  0
 24 11  1  0  0  0  0
 25 26  2  0  0  0  0
 26 27  1  0  0  0  0
 27 28  1  0  0  0  0
 27 31  1  1  0  0  0
 27 24  1  0  0  0  0
 28 32  1  0  0  0  0
 29 35  1  0  0  0  0
 29 28  1  0  0  0  0
 30 26  1  0  0  0  0
 30 29  1  0  0  0  0
 33 28  1  0  0  0  0
 34 29  1  0  0  0  0
 36 37  1  0  0  0  0
 37 42  1  0  0  0  0
 37 38  1  0  0  0  0
 38 39  1  0  0  0  0
 39 40  1  0  0  0  0
 40 30  1  0  0  0  0
 41 40  1  0  0  0  0
 42 41  1  0  0  0  0
M  END
>  <minimizedAffinity>
-5.17160463

>  <minimizedRMSD>
0.340173751

$$$$
