
 OpenBabel03252506153D

 37 39  0  0  0  0  0  0  0  0999 V2000
   45.1640   33.0170   41.4130 F   0  0  0  0  0  0  0  0  0  0  0  0
   46.2810   33.6760   41.1420 C   0  0  0  0  0  0  0  0  0  0  0  0
   46.7240   34.6180   42.0460 C   0  0  0  0  0  0  0  0  0  0  0  0
   47.9010   35.3740   41.8570 C   0  0  0  0  0  0  0  0  0  0  0  0
   48.6550   35.1570   40.6920 C   0  0  0  0  0  0  0  0  0  0  0  0
   48.1680   34.2040   39.8200 C   0  0  0  0  0  0  0  0  0  0  0  0
   47.0430   33.4770   39.9960 C   0  0  0  0  0  0  0  0  0  0  0  0
   48.1880   36.1020   42.6170 H   0  0  0  0  0  0  0  0  0  0  0  0
   49.5310   35.7570   40.6040 H   0  0  0  0  0  0  0  0  0  0  0  0
   48.8560   34.1420   38.9740 H   0  0  0  0  0  0  0  0  0  0  0  0
   45.4180   34.2010   45.4420 C   0  0  0  0  0  0  0  0  0  0  0  0
   44.5940   35.3430   45.5870 C   0  0  0  0  0  0  0  0  0  0  0  0
   44.4960   36.2560   44.4990 C   0  0  0  0  0  0  0  0  0  0  0  0
   45.2160   35.9610   43.3730 N   0  0  0  0  0  0  0  0  0  0  0  0
   45.9740   34.8800   43.2830 C   0  0  0  0  0  0  0  0  0  0  0  0
   46.0800   34.0000   44.3060 N   0  0  0  0  0  0  0  0  0  0  0  0
   44.0180   35.5880   46.4740 H   0  0  0  0  0  0  0  0  0  0  0  0
   43.8780   37.1400   44.5680 H   0  0  0  0  0  0  0  0  0  0  0  0
   45.4930   33.3200   46.5390 N   0  0  0  0  0  0  0  0  0  0  0  0
   46.1730   33.2490   47.3090 H   0  0  0  0  0  0  0  0  0  0  0  0
   44.6280   32.7550   46.3190 H   0  0  0  0  0  0  0  0  0  0  0  0
   46.6640   32.5630   39.0570 O   0  0  0  0  0  0  0  0  0  0  0  0
   47.0590   34.1390   36.9720 O   0  0  0  0  0  0  0  0  0  0  0  0
   46.4530   32.8260   37.4080 P   0  0  2  0  0  0  0  0  0  0  0  0
   44.7740   32.8450   37.0660 O   0  0  0  0  0  0  0  0  0  0  0  0
   40.6650   33.4210   38.6160 H   0  0  0  0  0  0  0  0  0  0  0  0
   41.3680   33.0560   39.2670 N   0  0  0  0  0  0  0  0  0  0  0  0
   41.8320   31.7280   38.9610 C   0  0  0  0  0  0  0  0  0  0  0  0
   42.9170   31.7210   37.9120 C   0  0  0  0  0  0  0  0  0  0  0  0
   44.0300   32.6810   38.2280 C   0  0  0  0  0  0  0  0  0  0  0  0
   43.4260   34.0340   38.5480 C   0  0  0  0  0  0  0  0  0  0  0  0
   42.3980   33.9740   39.6420 C   0  0  0  0  0  0  0  0  0  0  0  0
   47.0750   31.5880   36.4580 O   0  0  0  0  0  0  0  0  0  0  0  0
   46.4680   30.3560   36.7770 C   0  0  0  0  0  0  0  0  0  0  0  0
   45.3680   30.2820   35.9150 F   0  0  0  0  0  0  0  0  0  0  0  0
   47.2990   29.3070   36.4720 F   0  0  0  0  0  0  0  0  0  0  0  0
   46.1060   30.2440   38.0910 F   0  0  0  0  0  0  0  0  0  0  0  0
  2  1  1  0  0  0  0
  2  3  1  0  0  0  0
  3 15  1  0  0  0  0
  4  3  2  0  0  0  0
  4  8  1  0  0  0  0
  5  4  1  0  0  0  0
  6  7  1  0  0  0  0
  6  5  2  0  0  0  0
  7  2  2  0  0  0  0
  9  5  1  0  0  0  0
 10  6  1  0  0  0  0
 11 12  1  0  0  0  0
 11 19  1  0  0  0  0
 12 17  1  0  0  0  0
 13 18  1  0  0  0  0
 13 12  2  0  0  0  0
 14 13  1  0  0  0  0
 15 14  2  0  0  0  0
 15 16  1  0  0  0  0
 16 11  2  0  0  0  0
 19 20  1  0  0  0  0
 21 19  1  0  0  0  0
 22  7  1  0  0  0  0
 24 23  2  6  0  0  0
 24 22  1  0  0  0  0
 25 24  1  0  0  0  0
 25 30  1  0  0  0  0
 26 27  1  0  0  0  0
 27 32  1  0  0  0  0
 28 27  1  0  0  0  0
 29 30  1  0  0  0  0
 29 28  1  0  0  0  0
 30 31  1  0  0  0  0
 31 32  1  0  0  0  0
 33 34  1  0  0  0  0
 33 24  1  0  0  0  0
 34 37  1  0  0  0  0
 35 34  1  0  0  0  0
 36 34  1  0  0  0  0
M  END
>  <minimizedAffinity>
-5.50389338

>  <minimizedRMSD>
1.78777349

$$$$
