
 OpenBabel03252506383D

 42 45  0  0  1  0  0  0  0  0999 V2000
   44.5060   35.5440   45.1400 C   0  0  0  0  0  0  0  0  0  0  0  0
   45.1540   35.5360   43.8860 C   0  0  0  0  0  0  0  0  0  0  0  0
   46.0660   34.5730   43.6200 C   0  0  0  0  0  0  0  0  0  0  0  0
   46.3050   33.6590   44.5940 N   0  0  0  0  0  0  0  0  0  0  0  0
   45.6930   33.6720   45.7680 C   0  0  0  0  0  0  0  0  0  0  0  0
   44.7910   34.6080   46.0580 N   0  0  0  0  0  0  0  0  0  0  0  0
   46.0250   32.6560   46.7300 N   0  0  0  0  0  0  0  0  0  0  0  0
   45.2960   32.4080   47.9190 C   0  0  0  0  0  0  0  0  0  0  0  0
   46.3740   32.0530   48.9240 C   0  0  0  0  0  0  0  0  0  0  0  0
   47.6500   31.9490   48.1460 C   0  0  0  0  0  0  0  0  0  0  0  0
   47.1440   31.7420   46.7180 C   0  0  1  0  0  0  0  0  0  0  0  0
   43.7690   36.3320   45.3370 H   0  0  0  0  0  0  0  0  0  0  0  0
   46.5740   34.5430   42.6750 H   0  0  0  0  0  0  0  0  0  0  0  0
   44.9320   33.4220   48.2820 H   0  0  0  0  0  0  0  0  0  0  0  0
   44.4880   31.7630   48.0270 H   0  0  0  0  0  0  0  0  0  0  0  0
   46.4030   32.6970   49.8050 H   0  0  0  0  0  0  0  0  0  0  0  0
   46.1690   31.0190   49.3290 H   0  0  0  0  0  0  0  0  0  0  0  0
   48.2510   31.0860   48.4620 H   0  0  0  0  0  0  0  0  0  0  0  0
   48.1890   32.9130   48.2360 H   0  0  0  0  0  0  0  0  0  0  0  0
   47.9470   32.0390   46.0420 H   0  0  0  0  0  0  0  0  0  0  0  0
   44.8000   36.5700   42.9510 N   0  0  0  0  0  0  0  0  0  0  0  0
   44.4470   37.4940   43.2300 H   0  0  0  0  0  0  0  0  0  0  0  0
   44.9290   36.3070   41.9360 H   0  0  0  0  0  0  0  0  0  0  0  0
   46.6280   30.0540   46.5250 S   0  0  0  0  0  0  0  0  0  0  0  0
   45.6810   30.5720   43.3670 O   0  0  0  0  0  0  0  0  0  0  0  0
   45.0300   30.0210   44.2700 C   0  0  0  0  0  0  0  0  0  0  0  0
   45.0960   29.7760   45.7350 C   0  0  1  0  0  0  0  0  0  0  0  0
   44.5690   28.3670   45.8250 C   0  0  0  0  0  0  0  0  0  0  0  0
   43.2680   28.5860   45.0470 C   0  0  0  0  0  0  0  0  0  0  0  0
   43.7890   29.3680   43.9330 N   0  0  0  0  0  0  0  0  0  0  0  0
   44.2060   30.3650   46.0760 H   0  0  0  0  0  0  0  0  0  0  0  0
   44.3200   28.0330   46.8400 H   0  0  0  0  0  0  0  0  0  0  0  0
   45.1600   27.6480   45.2330 H   0  0  0  0  0  0  0  0  0  0  0  0
   42.8850   27.6040   44.7540 H   0  0  0  0  0  0  0  0  0  0  0  0
   42.5930   29.1560   45.7090 H   0  0  0  0  0  0  0  0  0  0  0  0
   40.2240   30.5320   40.8490 H   0  0  0  0  0  0  0  0  0  0  0  0
   40.3100   29.8710   41.6550 N   0  0  0  0  0  0  0  0  0  0  0  0
   41.1260   28.7160   41.3790 C   0  0  0  0  0  2  0  0  0  0  0  0
   42.0020   28.3530   42.5840 C   0  0  0  0  0  2  0  0  0  0  0  0
   43.0480   29.4080   42.6730 C   0  0  0  0  0  3  0  0  0  0  0  0
   42.3640   30.7630   42.4850 C   0  0  0  0  0  2  0  0  0  0  0  0
   40.8750   30.6430   42.7470 C   0  0  0  0  0  2  0  0  0  0  0  0
  1 12  1  0  0  0  0
  1  6  1  0  0  0  0
  2  1  2  0  0  0  0
  3  2  1  0  0  0  0
  3  4  2  0  0  0  0
  4  5  1  0  0  0  0
  5  6  2  0  0  0  0
  5  7  1  0  0  0  0
  7  8  1  0  0  0  0
  8 15  1  0  0  0  0
  8 14  1  0  0  0  0
  8  9  1  0  0  0  0
  9 17  1  0  0  0  0
  9 16  1  0  0  0  0
 10 19  1  0  0  0  0
 10 18  1  0  0  0  0
 10  9  1  0  0  0  0
 11 20  1  6  0  0  0
 11  7  1  0  0  0  0
 11 10  1  0  0  0  0
 13  3  1  0  0  0  0
 21 22  1  0  0  0  0
 21  2  1  0  0  0  0
 23 21  1  0  0  0  0
 24 11  1  0  0  0  0
 25 26  2  0  0  0  0
 26 27  1  0  0  0  0
 27 28  1  0  0  0  0
 27 31  1  1  0  0  0
 27 24  1  0  0  0  0
 28 32  1  0  0  0  0
 29 35  1  0  0  0  0
 29 28  1  0  0  0  0
 30 26  1  0  0  0  0
 30 29  1  0  0  0  0
 33 28  1  0  0  0  0
 34 29  1  0  0  0  0
 36 37  1  0  0  0  0
 37 42  1  0  0  0  0
 38 37  1  0  0  0  0
 38 39  1  0  0  0  0
 39 40  1  0  0  0  0
 40 30  1  0  0  0  0
 41 40  1  0  0  0  0
 41 42  1  0  0  0  0
M  END
>  <minimizedAffinity>
-5.59093571

>  <minimizedRMSD>
0.170549855

$$$$
