
 OpenBabel03252508083D

 42 45  0  0  0  0  0  0  0  0999 V2000
   45.0340   35.4970   43.3860 C   0  0  0  0  0  0  0  0  0  0  0  0
   45.4800   34.1810   43.4090 C   0  0  0  0  0  0  0  0  0  0  0  0
   45.4750   33.4820   44.5920 C   0  0  0  0  0  0  0  0  0  0  0  0
   45.0150   34.1460   45.7130 N   0  0  0  0  0  0  0  0  0  0  0  0
   44.5890   35.4070   45.6810 C   0  0  0  0  0  0  0  0  0  0  0  0
   44.6050   36.0720   44.5060 N   0  0  0  0  0  0  0  0  0  0  0  0
   45.0160   36.0940   42.4830 H   0  0  0  0  0  0  0  0  0  0  0  0
   44.2310   35.9320   46.5410 H   0  0  0  0  0  0  0  0  0  0  0  0
   45.8930   32.1470   44.7850 C   0  0  0  0  0  0  0  0  0  0  0  0
   45.6140   31.1020   43.8980 C   0  0  0  0  0  0  0  0  0  0  0  0
   45.9570   29.7940   44.1170 C   0  0  0  0  0  0  0  0  0  0  0  0
   46.6210   29.4480   45.2690 C   0  0  0  0  0  0  0  0  0  0  0  0
   46.9170   30.4950   46.1850 C   0  0  0  0  0  0  0  0  0  0  0  0
   47.5750   30.1590   47.3410 C   0  0  0  0  0  0  0  0  0  0  0  0
   47.8950   31.1250   48.2710 C   0  0  0  0  0  0  0  0  0  0  0  0
   47.5400   32.4660   48.0270 C   0  0  0  0  0  0  0  0  0  0  0  0
   46.8650   32.7580   46.8280 C   0  0  0  0  0  0  0  0  0  0  0  0
   46.5580   31.7760   45.9250 C   0  0  0  0  0  0  0  0  0  0  0  0
   45.0870   31.3830   42.9860 H   0  0  0  0  0  0  0  0  0  0  0  0
   45.7400   28.9980   43.4310 H   0  0  0  0  0  0  0  0  0  0  0  0
   46.9260   28.4410   45.5170 H   0  0  0  0  0  0  0  0  0  0  0  0
   47.8560   29.1360   47.5420 H   0  0  0  0  0  0  0  0  0  0  0  0
   48.4160   30.8090   49.1710 H   0  0  0  0  0  0  0  0  0  0  0  0
   47.8330   33.1350   48.8050 H   0  0  0  0  0  0  0  0  0  0  0  0
   46.7060   33.8140   46.8150 H   0  0  0  0  0  0  0  0  0  0  0  0
   45.9050   33.6440   42.2300 O   0  0  0  0  0  0  0  0  0  0  0  0
   48.2200   32.5400   41.7250 O   0  0  0  0  0  0  0  0  0  0  0  0
   47.4680   33.8150   41.5960 P   0  0  1  0  0  0  0  0  0  0  0  0
   47.4130   34.2250   39.9690 O   0  0  0  0  0  0  0  0  0  0  0  0
   47.1490   33.4020   35.2460 H   0  0  0  0  0  0  0  0  0  0  0  0
   47.0860   33.5420   36.2870 N   0  0  0  0  0  0  0  0  0  0  0  0
   48.4090   33.6160   36.8030 C   0  0  0  0  0  2  0  0  0  0  0  0
   48.6100   33.2260   38.2200 C   0  0  0  0  0  2  0  0  0  0  0  0
   47.3870   33.1650   39.0830 C   0  0  0  0  0  3  0  0  0  0  0  0
   46.1050   32.9980   38.3570 C   0  0  0  0  0  2  0  0  0  0  0  0
   46.3680   32.4860   36.9560 C   0  0  0  0  0  2  0  0  0  0  0  0
   48.2380   35.0510   42.4330 O   0  0  0  0  0  0  0  0  0  0  0  0
   49.5280   35.5120   42.2280 C   0  0  0  0  0  0  0  0  0  0  0  0
   49.3910   36.5280   41.5200 O   0  0  0  0  0  0  0  0  0  0  0  0
   50.4900   34.6670   42.8910 N   0  0  0  0  0  0  0  0  0  0  0  0
   51.2150   34.0600   42.4200 H   0  0  0  0  0  0  0  0  0  0  0  0
   50.4560   34.6650   43.9500 H   0  0  0  0  0  0  0  0  0  0  0  0
  1  2  2  0  0  0  0
  1  6  1  0  0  0  0
  2  3  1  0  0  0  0
  3  9  1  0  0  0  0
  3  4  2  0  0  0  0
  5  4  1  0  0  0  0
  5  8  1  0  0  0  0
  6  5  2  0  0  0  0
  7  1  1  0  0  0  0
  9 18  1  0  0  0  0
 10 11  1  0  0  0  0
 10  9  2  0  0  0  0
 11 12  2  0  0  0  0
 12 21  1  0  0  0  0
 12 13  1  0  0  0  0
 13 14  1  0  0  0  0
 14 22  1  0  0  0  0
 14 15  2  0  0  0  0
 15 23  1  0  0  0  0
 16 15  1  0  0  0  0
 16 24  1  0  0  0  0
 17 16  2  0  0  0  0
 18 13  2  0  0  0  0
 18 17  1  0  0  0  0
 19 10  1  0  0  0  0
 20 11  1  0  0  0  0
 25 17  1  0  0  0  0
 26  2  1  0  0  0  0
 28 27  2  1  0  0  0
 28 26  1  0  0  0  0
 28 37  1  0  0  0  0
 29 28  1  0  0  0  0
 30 31  1  0  0  0  0
 31 32  1  0  0  0  0
 31 36  1  0  0  0  0
 32 33  1  0  0  0  0
 33 34  1  0  0  0  0
 34 29  1  0  0  0  0
 35 34  1  0  0  0  0
 36 35  1  0  0  0  0
 38 37  1  0  0  0  0
 38 40  1  0  0  0  0
 39 38  2  0  0  0  0
 40 42  1  0  0  0  0
 41 40  1  0  0  0  0
M  END
>  <minimizedAffinity>
-6.51064682

>  <minimizedRMSD>
0.893568754

$$$$
