
 OpenBabel03252508083D

 42 45  0  0  0  0  0  0  0  0999 V2000
   45.1290   35.5530   43.2930 C   0  0  0  0  0  0  0  0  0  0  0  0
   45.5180   34.2190   43.3370 C   0  0  0  0  0  0  0  0  0  0  0  0
   45.4510   33.5310   44.5250 C   0  0  0  0  0  0  0  0  0  0  0  0
   44.9900   34.2230   45.6280 N   0  0  0  0  0  0  0  0  0  0  0  0
   44.6200   35.5000   45.5760 C   0  0  0  0  0  0  0  0  0  0  0  0
   44.6950   36.1550   44.3970 N   0  0  0  0  0  0  0  0  0  0  0  0
   45.1620   36.1430   42.3860 H   0  0  0  0  0  0  0  0  0  0  0  0
   44.2610   36.0470   46.4220 H   0  0  0  0  0  0  0  0  0  0  0  0
   45.8060   32.1800   44.7380 C   0  0  0  0  0  0  0  0  0  0  0  0
   45.4640   31.1340   43.8750 C   0  0  0  0  0  0  0  0  0  0  0  0
   45.7460   29.8150   44.1140 C   0  0  0  0  0  0  0  0  0  0  0  0
   46.4070   29.4590   45.2660 C   0  0  0  0  0  0  0  0  0  0  0  0
   46.7650   30.5060   46.1570 C   0  0  0  0  0  0  0  0  0  0  0  0
   47.4220   30.1600   47.3110 C   0  0  0  0  0  0  0  0  0  0  0  0
   47.8000   31.1260   48.2190 C   0  0  0  0  0  0  0  0  0  0  0  0
   47.5080   32.4780   47.9530 C   0  0  0  0  0  0  0  0  0  0  0  0
   46.8330   32.7800   46.7570 C   0  0  0  0  0  0  0  0  0  0  0  0
   46.4660   31.7990   45.8770 C   0  0  0  0  0  0  0  0  0  0  0  0
   44.9400   31.4240   42.9640 H   0  0  0  0  0  0  0  0  0  0  0  0
   45.4810   29.0180   43.4460 H   0  0  0  0  0  0  0  0  0  0  0  0
   46.6660   28.4420   45.5290 H   0  0  0  0  0  0  0  0  0  0  0  0
   47.6540   29.1280   47.5280 H   0  0  0  0  0  0  0  0  0  0  0  0
   48.3160   30.8010   49.1190 H   0  0  0  0  0  0  0  0  0  0  0  0
   47.8430   33.1460   48.7150 H   0  0  0  0  0  0  0  0  0  0  0  0
   46.7250   33.8430   46.7260 H   0  0  0  0  0  0  0  0  0  0  0  0
   45.9500   33.6550   42.1740 O   0  0  0  0  0  0  0  0  0  0  0  0
   48.1420   32.2970   41.7370 O   0  0  0  0  0  0  0  0  0  0  0  0
   47.5580   33.6600   41.6360 P   0  0  1  0  0  0  0  0  0  0  0  0
   47.6510   34.1480   40.0310 O   0  0  0  0  0  0  0  0  0  0  0  0
   47.5250   33.5870   35.2660 H   0  0  0  0  0  0  0  0  0  0  0  0
   47.4280   33.6840   36.3080 N   0  0  0  0  0  0  0  0  0  0  0  0
   48.7240   33.5840   36.8840 C   0  0  0  0  0  2  0  0  0  0  0  0
   48.8120   33.1060   38.2840 C   0  0  0  0  0  2  0  0  0  0  0  0
   47.5500   33.1420   39.0900 C   0  0  0  0  0  3  0  0  0  0  0  0
   46.2940   33.1550   38.3040 C   0  0  0  0  0  2  0  0  0  0  0  0
   46.5660   32.6840   36.8900 C   0  0  0  0  0  2  0  0  0  0  0  0
   48.4200   34.7510   42.5770 O   0  0  0  0  0  0  0  0  0  0  0  0
   49.6290   35.3490   42.2570 C   0  0  0  0  0  0  0  0  0  0  0  0
   49.3140   36.3960   41.6600 O   0  0  0  0  0  0  0  0  0  0  0  0
   50.7360   34.5540   42.7240 N   0  0  0  0  0  0  0  0  0  0  0  0
   51.4450   34.0550   42.1180 H   0  0  0  0  0  0  0  0  0  0  0  0
   50.8400   34.4700   43.7750 H   0  0  0  0  0  0  0  0  0  0  0  0
  1  2  2  0  0  0  0
  1  6  1  0  0  0  0
  2  3  1  0  0  0  0
  3  9  1  0  0  0  0
  3  4  2  0  0  0  0
  5  4  1  0  0  0  0
  5  8  1  0  0  0  0
  6  5  2  0  0  0  0
  7  1  1  0  0  0  0
  9 18  1  0  0  0  0
 10 11  1  0  0  0  0
 10  9  2  0  0  0  0
 11 12  2  0  0  0  0
 12 21  1  0  0  0  0
 12 13  1  0  0  0  0
 13 14  1  0  0  0  0
 14 22  1  0  0  0  0
 14 15  2  0  0  0  0
 15 23  1  0  0  0  0
 16 15  1  0  0  0  0
 16 24  1  0  0  0  0
 17 16  2  0  0  0  0
 18 13  2  0  0  0  0
 18 17  1  0  0  0  0
 19 10  1  0  0  0  0
 20 11  1  0  0  0  0
 25 17  1  0  0  0  0
 26  2  1  0  0  0  0
 28 27  2  1  0  0  0
 28 26  1  0  0  0  0
 28 37  1  0  0  0  0
 29 28  1  0  0  0  0
 30 31  1  0  0  0  0
 31 32  1  0  0  0  0
 31 36  1  0  0  0  0
 32 33  1  0  0  0  0
 33 34  1  0  0  0  0
 34 29  1  0  0  0  0
 35 34  1  0  0  0  0
 36 35  1  0  0  0  0
 38 37  1  0  0  0  0
 38 40  1  0  0  0  0
 39 38  2  0  0  0  0
 40 42  1  0  0  0  0
 41 40  1  0  0  0  0
M  END
>  <minimizedAffinity>
-6.44981527

>  <minimizedRMSD>
0.861159384

$$$$
