
 OpenBabel03252508073D

 42 45  0  0  0  0  0  0  0  0999 V2000
   45.4560   35.8660   42.6980 C   0  0  0  0  0  0  0  0  0  0  0  0
   45.6450   34.4910   42.7760 C   0  0  0  0  0  0  0  0  0  0  0  0
   45.3080   33.8240   43.9290 C   0  0  0  0  0  0  0  0  0  0  0  0
   44.7890   34.5770   44.9640 N   0  0  0  0  0  0  0  0  0  0  0  0
   44.6110   35.8940   44.8800 C   0  0  0  0  0  0  0  0  0  0  0  0
   44.9510   36.5270   43.7360 N   0  0  0  0  0  0  0  0  0  0  0  0
   45.7040   36.4420   41.8160 H   0  0  0  0  0  0  0  0  0  0  0  0
   44.2110   36.4890   45.6730 H   0  0  0  0  0  0  0  0  0  0  0  0
   45.4360   32.4370   44.1700 C   0  0  0  0  0  0  0  0  0  0  0  0
   44.9120   31.4450   43.3350 C   0  0  0  0  0  0  0  0  0  0  0  0
   44.9740   30.1030   43.6020 C   0  0  0  0  0  0  0  0  0  0  0  0
   45.5840   29.6650   44.7530 C   0  0  0  0  0  0  0  0  0  0  0  0
   46.1260   30.6570   45.6150 C   0  0  0  0  0  0  0  0  0  0  0  0
   46.7340   30.2310   46.7690 C   0  0  0  0  0  0  0  0  0  0  0  0
   47.2820   31.1390   47.6490 C   0  0  0  0  0  0  0  0  0  0  0  0
   47.2150   32.5150   47.3560 C   0  0  0  0  0  0  0  0  0  0  0  0
   46.5810   32.9000   46.1620 C   0  0  0  0  0  0  0  0  0  0  0  0
   46.0420   31.9750   45.3090 C   0  0  0  0  0  0  0  0  0  0  0  0
   44.4290   31.7990   42.4250 H   0  0  0  0  0  0  0  0  0  0  0  0
   44.5690   29.3470   42.9560 H   0  0  0  0  0  0  0  0  0  0  0  0
   45.6740   28.6260   45.0370 H   0  0  0  0  0  0  0  0  0  0  0  0
   46.7950   29.1790   47.0070 H   0  0  0  0  0  0  0  0  0  0  0  0
   47.7520   30.7510   48.5500 H   0  0  0  0  0  0  0  0  0  0  0  0
   47.6690   33.1330   48.0970 H   0  0  0  0  0  0  0  0  0  0  0  0
   46.6500   33.9650   46.1070 H   0  0  0  0  0  0  0  0  0  0  0  0
   46.1620   33.8680   41.6800 O   0  0  0  0  0  0  0  0  0  0  0  0
   47.9910   31.9990   41.6710 O   0  0  0  0  0  0  0  0  0  0  0  0
   47.7960   33.4600   41.4800 P   0  0  1  0  0  0  0  0  0  0  0  0
   48.3280   33.8600   39.9390 O   0  0  0  0  0  0  0  0  0  0  0  0
   49.4690   32.8330   35.3900 H   0  0  0  0  0  0  0  0  0  0  0  0
   49.1130   33.1090   36.3400 N   0  0  0  0  0  0  0  0  0  0  0  0
   49.8180   32.3510   37.3150 C   0  0  0  0  0  2  0  0  0  0  0  0
   49.1390   32.1090   38.6110 C   0  0  0  0  0  2  0  0  0  0  0  0
   47.9680   32.9850   38.9320 C   0  0  0  0  0  3  0  0  0  0  0  0
   47.3090   33.6190   37.7670 C   0  0  0  0  0  2  0  0  0  0  0  0
   47.6970   32.8910   36.4960 C   0  0  0  0  0  2  0  0  0  0  0  0
   48.6920   34.3340   42.5990 O   0  0  0  0  0  0  0  0  0  0  0  0
   49.8040   35.1200   42.3390 C   0  0  0  0  0  0  0  0  0  0  0  0
   49.3370   36.2150   41.9710 O   0  0  0  0  0  0  0  0  0  0  0  0
   51.0210   34.3900   42.5870 N   0  0  0  0  0  0  0  0  0  0  0  0
   51.7330   34.0990   41.8620 H   0  0  0  0  0  0  0  0  0  0  0  0
   51.2090   34.1250   43.5960 H   0  0  0  0  0  0  0  0  0  0  0  0
  1  2  2  0  0  0  0
  1  6  1  0  0  0  0
  2  3  1  0  0  0  0
  3  9  1  0  0  0  0
  3  4  2  0  0  0  0
  5  4  1  0  0  0  0
  5  8  1  0  0  0  0
  6  5  2  0  0  0  0
  7  1  1  0  0  0  0
  9 18  1  0  0  0  0
 10 11  1  0  0  0  0
 10  9  2  0  0  0  0
 11 12  2  0  0  0  0
 12 21  1  0  0  0  0
 12 13  1  0  0  0  0
 13 14  1  0  0  0  0
 14 22  1  0  0  0  0
 14 15  2  0  0  0  0
 15 23  1  0  0  0  0
 16 15  1  0  0  0  0
 16 24  1  0  0  0  0
 17 16  2  0  0  0  0
 18 13  2  0  0  0  0
 18 17  1  0  0  0  0
 19 10  1  0  0  0  0
 20 11  1  0  0  0  0
 25 17  1  0  0  0  0
 26  2  1  0  0  0  0
 28 27  2  1  0  0  0
 28 26  1  0  0  0  0
 28 37  1  0  0  0  0
 29 28  1  0  0  0  0
 30 31  1  0  0  0  0
 31 36  1  0  0  0  0
 31 32  1  0  0  0  0
 32 33  1  0  0  0  0
 33 34  1  0  0  0  0
 34 29  1  0  0  0  0
 35 34  1  0  0  0  0
 36 35  1  0  0  0  0
 38 40  1  0  0  0  0
 38 37  1  0  0  0  0
 39 38  2  0  0  0  0
 40 42  1  0  0  0  0
 41 40  1  0  0  0  0
M  END
>  <minimizedAffinity>
-6.02348232

>  <minimizedRMSD>
1.04741907

$$$$
