
 OpenBabel03242520473D

 26 27  0  0  0  0  0  0  0  0999 V2000
   36.6420   29.2980   40.6240 C   0  0  0  0  0  0  0  0  0  0  0  0
   35.5040   28.9240   40.9870 O   0  0  0  0  0  0  0  0  0  0  0  0
   37.1410   32.6390   39.1250 C   0  0  0  0  0  0  0  0  0  0  0  0
   36.8690   31.6270   40.0640 C   0  0  0  0  0  0  0  0  0  0  0  0
   36.9280   30.3050   39.6220 C   0  0  0  0  0  0  0  0  0  0  0  0
   37.2350   30.0480   38.3370 N   0  0  0  0  0  0  0  0  0  0  0  0
   37.4880   31.0670   37.4730 C   0  0  0  0  0  0  0  0  0  0  0  0
   37.4380   32.3320   37.8740 N   0  0  0  0  0  0  0  0  0  0  0  0
   37.0880   33.9960   39.5500 N   0  0  0  0  0  0  0  0  0  0  0  0
   36.6350   31.9410   41.0600 H   0  0  0  0  0  0  0  0  0  0  0  0
   37.7300   30.7870   36.4510 H   0  0  0  0  0  0  0  0  0  0  0  0
   36.5720   34.4090   40.3350 H   0  0  0  0  0  0  0  0  0  0  0  0
   37.6140   34.7510   39.0610 H   0  0  0  0  0  0  0  0  0  0  0  0
   37.8230   28.7670   41.1650 O   0  0  0  0  0  0  0  0  0  0  0  0
   39.1580   30.1800   43.0070 O   0  0  0  0  0  0  0  0  0  0  0  0
   38.3080   28.9770   42.7890 P   0  0  1  0  0  0  0  0  0  0  0  0
   36.8730   29.1790   43.6790 O   0  0  0  0  0  0  0  0  0  0  0  0
   36.8280   28.5430   44.4360 H   0  0  0  0  0  0  0  0  0  0  0  0
   39.0740   27.5630   43.3060 O   0  0  0  0  0  0  0  0  0  0  0  0
   38.0240   23.0710   42.9220 H   0  0  0  0  0  0  0  0  0  0  0  0
   38.6680   23.6000   42.2650 N   0  0  0  0  0  0  0  0  0  0  0  0
   37.8130   24.5560   41.5990 C   0  0  0  0  0  2  0  0  0  0  0  0
   37.6910   25.7570   42.5200 C   0  0  0  0  0  2  0  0  0  0  0  0
   38.9770   26.5390   42.3840 C   0  0  0  0  0  3  0  0  0  0  0  0
   40.1170   25.5720   42.6250 C   0  0  0  0  0  2  0  0  0  0  0  0
   39.6520   24.2180   43.1120 C   0  0  0  0  0  2  0  0  0  0  0  0
  1  2  2  0  0  0  0
  1 14  1  0  0  0  0
  3  9  1  0  0  0  0
  3  4  1  0  0  0  0
  4 10  1  0  0  0  0
  5  4  2  0  0  0  0
  5  1  1  0  0  0  0
  6  5  1  0  0  0  0
  7  8  1  0  0  0  0
  7  6  2  0  0  0  0
  8  3  2  0  0  0  0
  9 12  1  0  0  0  0
 11  7  1  0  0  0  0
 13  9  1  0  0  0  0
 14 16  1  0  0  0  0
 16 15  2  1  0  0  0
 16 19  1  0  0  0  0
 16 17  1  0  0  0  0
 17 18  1  0  0  0  0
 21 20  1  0  0  0  0
 21 26  1  0  0  0  0
 22 21  1  0  0  0  0
 22 23  1  0  0  0  0
 24 23  1  0  0  0  0
 24 25  1  0  0  0  0
 24 19  1  0  0  0  0
 25 26  1  0  0  0  0
M  END
>  <minimizedAffinity>
-5.53269529

$$$$

 OpenBabel03242520473D

 26 27  0  0  0  0  0  0  0  0999 V2000
   37.5880   28.4430   42.5010 C   0  0  0  0  0  0  0  0  0  0  0  0
   37.7450   29.5270   43.1070 O   0  0  0  0  0  0  0  0  0  0  0  0
   38.4280   24.8450   42.4020 C   0  0  0  0  0  0  0  0  0  0  0  0
   37.7630   26.0640   42.1800 C   0  0  0  0  0  0  0  0  0  0  0  0
   38.3070   27.2110   42.7580 C   0  0  0  0  0  0  0  0  0  0  0  0
   39.4290   27.1130   43.4970 N   0  0  0  0  0  0  0  0  0  0  0  0
   40.0290   25.9070   43.6800 C   0  0  0  0  0  0  0  0  0  0  0  0
   39.5270   24.8040   43.1370 N   0  0  0  0  0  0  0  0  0  0  0  0
   37.8930   23.6610   41.8230 N   0  0  0  0  0  0  0  0  0  0  0  0
   36.8790   26.0310   41.5770 H   0  0  0  0  0  0  0  0  0  0  0  0
   40.9300   25.9010   44.2860 H   0  0  0  0  0  0  0  0  0  0  0  0
   36.9300   23.4590   41.5350 H   0  0  0  0  0  0  0  0  0  0  0  0
   38.4840   22.8260   41.6220 H   0  0  0  0  0  0  0  0  0  0  0  0
   36.6610   28.2840   41.4590 O   0  0  0  0  0  0  0  0  0  0  0  0
   35.1420   29.1320   39.4230 O   0  0  0  0  0  0  0  0  0  0  0  0
   36.1740   29.5440   40.4140 P   0  0  1  0  0  0  0  0  0  0  0  0
   35.4930   30.7380   41.4160 O   0  0  0  0  0  0  0  0  0  0  0  0
   35.9120   31.6210   41.2570 H   0  0  0  0  0  0  0  0  0  0  0  0
   37.5480   30.1800   39.6650 O   0  0  0  0  0  0  0  0  0  0  0  0
   39.4140   34.2400   38.4530 H   0  0  0  0  0  0  0  0  0  0  0  0
   39.4450   33.8270   39.4290 N   0  0  0  0  0  0  0  0  0  0  0  0
   38.0690   33.8180   39.8720 C   0  0  0  0  0  2  0  0  0  0  0  0
   37.4330   32.5580   39.3110 C   0  0  0  0  0  2  0  0  0  0  0  0
   37.9070   31.4130   40.1750 C   0  0  0  0  0  3  0  0  0  0  0  0
   39.4190   31.4840   40.2220 C   0  0  0  0  0  2  0  0  0  0  0  0
   39.9940   32.5080   39.2690 C   0  0  0  0  0  2  0  0  0  0  0  0
  1  5  1  0  0  0  0
  1  2  2  0  0  0  0
  3  8  1  0  0  0  0
  4  3  2  0  0  0  0
  4  5  1  0  0  0  0
  5  6  2  0  0  0  0
  6  7  1  0  0  0  0
  7 11  1  0  0  0  0
  8  7  2  0  0  0  0
  9  3  1  0  0  0  0
 10  4  1  0  0  0  0
 12  9  1  0  0  0  0
 13  9  1  0  0  0  0
 14  1  1  0  0  0  0
 16 15  2  6  0  0  0
 16 17  1  0  0  0  0
 16 14  1  0  0  0  0
 18 17  1  0  0  0  0
 19 24  1  0  0  0  0
 19 16  1  0  0  0  0
 20 21  1  0  0  0  0
 21 22  1  0  0  0  0
 23 22  1  0  0  0  0
 23 24  1  0  0  0  0
 24 25  1  0  0  0  0
 26 21  1  0  0  0  0
 26 25  1  0  0  0  0
M  END
>  <minimizedAffinity>
-5.44584656

$$$$

 OpenBabel03242520473D

 26 27  0  0  0  0  0  0  0  0999 V2000
   36.8520   30.1820   40.5280 C   0  0  0  0  0  0  0  0  0  0  0  0
   36.2400   30.9980   41.2540 O   0  0  0  0  0  0  0  0  0  0  0  0
   37.6100   31.2280   37.0650 C   0  0  0  0  0  0  0  0  0  0  0  0
   37.5750   31.2000   38.4710 C   0  0  0  0  0  0  0  0  0  0  0  0
   36.8580   30.1700   39.0790 C   0  0  0  0  0  0  0  0  0  0  0  0
   36.2330   29.2550   38.3140 N   0  0  0  0  0  0  0  0  0  0  0  0
   36.3000   29.3320   36.9580 C   0  0  0  0  0  0  0  0  0  0  0  0
   36.9780   30.3050   36.3600 N   0  0  0  0  0  0  0  0  0  0  0  0
   38.3350   32.2690   36.4210 N   0  0  0  0  0  0  0  0  0  0  0  0
   38.1060   31.9760   38.9840 H   0  0  0  0  0  0  0  0  0  0  0  0
   35.7730   28.5610   36.4020 H   0  0  0  0  0  0  0  0  0  0  0  0
   38.5780   33.2010   36.7720 H   0  0  0  0  0  0  0  0  0  0  0  0
   38.7160   32.1640   35.4570 H   0  0  0  0  0  0  0  0  0  0  0  0
   37.6360   29.1420   41.0510 O   0  0  0  0  0  0  0  0  0  0  0  0
   39.2100   30.2670   42.9020 O   0  0  0  0  0  0  0  0  0  0  0  0
   38.2830   29.1340   42.6310 P   0  0  1  0  0  0  0  0  0  0  0  0
   36.9510   29.2820   43.6770 O   0  0  0  0  0  0  0  0  0  0  0  0
   36.9460   28.5610   44.3560 H   0  0  0  0  0  0  0  0  0  0  0  0
   39.0220   27.6390   42.8990 O   0  0  0  0  0  0  0  0  0  0  0  0
   37.5220   23.2600   42.8100 H   0  0  0  0  0  0  0  0  0  0  0  0
   37.9820   23.7590   41.9940 N   0  0  0  0  0  0  0  0  0  0  0  0
   37.0520   24.8030   41.6270 C   0  0  0  0  0  2  0  0  0  0  0  0
   37.3160   25.9770   42.5530 C   0  0  0  0  0  2  0  0  0  0  0  0
   38.5640   26.6590   42.0400 C   0  0  0  0  0  3  0  0  0  0  0  0
   39.6370   25.5970   41.9170 C   0  0  0  0  0  2  0  0  0  0  0  0
   39.2240   24.2680   42.5090 C   0  0  0  0  0  2  0  0  0  0  0  0
  1 14  1  0  0  0  0
  1  2  2  0  0  0  0
  3  4  1  0  0  0  0
  4 10  1  0  0  0  0
  4  5  2  0  0  0  0
  5  1  1  0  0  0  0
  6  5  1  0  0  0  0
  7  6  2  0  0  0  0
  8  7  1  0  0  0  0
  8  3  2  0  0  0  0
  9 12  1  0  0  0  0
  9  3  1  0  0  0  0
 11  7  1  0  0  0  0
 13  9  1  0  0  0  0
 14 16  1  0  0  0  0
 16 19  1  0  0  0  0
 16 15  2  1  0  0  0
 16 17  1  0  0  0  0
 17 18  1  0  0  0  0
 21 26  1  0  0  0  0
 21 20  1  0  0  0  0
 22 21  1  0  0  0  0
 22 23  1  0  0  0  0
 24 23  1  0  0  0  0
 24 19  1  0  0  0  0
 25 24  1  0  0  0  0
 25 26  1  0  0  0  0
M  END
>  <minimizedAffinity>
-5.44536638

$$$$

 OpenBabel03242520473D

 26 27  0  0  0  0  0  0  0  0999 V2000
   37.2320   28.2070   42.2210 C   0  0  0  0  0  0  0  0  0  0  0  0
   37.3970   29.1720   43.0010 O   0  0  0  0  0  0  0  0  0  0  0  0
   39.6990   25.5780   43.0360 C   0  0  0  0  0  0  0  0  0  0  0  0
   39.1040   26.8430   42.8730 C   0  0  0  0  0  0  0  0  0  0  0  0
   37.8030   26.8840   42.3710 C   0  0  0  0  0  0  0  0  0  0  0  0
   37.1740   25.7340   42.0630 N   0  0  0  0  0  0  0  0  0  0  0  0
   37.7990   24.5390   42.2400 C   0  0  0  0  0  0  0  0  0  0  0  0
   39.0370   24.4790   42.7180 N   0  0  0  0  0  0  0  0  0  0  0  0
   41.0250   25.5100   43.5470 N   0  0  0  0  0  0  0  0  0  0  0  0
   39.6920   27.6940   43.1490 H   0  0  0  0  0  0  0  0  0  0  0  0
   37.2330   23.6520   41.9730 H   0  0  0  0  0  0  0  0  0  0  0  0
   41.7660   26.2180   43.5220 H   0  0  0  0  0  0  0  0  0  0  0  0
   41.3880   24.6620   44.0340 H   0  0  0  0  0  0  0  0  0  0  0  0
   36.4420   28.2940   41.0650 O   0  0  0  0  0  0  0  0  0  0  0  0
   34.9170   29.6370   39.3200 O   0  0  0  0  0  0  0  0  0  0  0  0
   36.0370   29.7630   40.2920 P   0  0  1  0  0  0  0  0  0  0  0  0
   35.5430   30.8160   41.5320 O   0  0  0  0  0  0  0  0  0  0  0  0
   36.0450   31.6690   41.4990 H   0  0  0  0  0  0  0  0  0  0  0  0
   37.4300   30.3880   39.5690 O   0  0  0  0  0  0  0  0  0  0  0  0
   39.4000   34.4580   38.5750 H   0  0  0  0  0  0  0  0  0  0  0  0
   39.4410   33.9810   39.5220 N   0  0  0  0  0  0  0  0  0  0  0  0
   38.0760   33.9860   39.9980 C   0  0  0  0  0  2  0  0  0  0  0  0
   37.3860   32.7870   39.3730 C   0  0  0  0  0  2  0  0  0  0  0  0
   37.8430   31.5730   40.1490 C   0  0  0  0  0  3  0  0  0  0  0  0
   39.3570   31.5930   40.1610 C   0  0  0  0  0  2  0  0  0  0  0  0
   39.9420   32.6590   39.2620 C   0  0  0  0  0  2  0  0  0  0  0  0
  1  5  1  0  0  0  0
  1  2  2  0  0  0  0
  3  9  1  0  0  0  0
  4  3  1  0  0  0  0
  4 10  1  0  0  0  0
  5  4  2  0  0  0  0
  6  7  2  0  0  0  0
  6  5  1  0  0  0  0
  7  8  1  0  0  0  0
  8  3  2  0  0  0  0
  9 13  1  0  0  0  0
 11  7  1  0  0  0  0
 12  9  1  0  0  0  0
 14  1  1  0  0  0  0
 16 15  2  6  0  0  0
 16 14  1  0  0  0  0
 16 17  1  0  0  0  0
 18 17  1  0  0  0  0
 19 24  1  0  0  0  0
 19 16  1  0  0  0  0
 20 21  1  0  0  0  0
 21 22  1  0  0  0  0
 23 22  1  0  0  0  0
 23 24  1  0  0  0  0
 24 25  1  0  0  0  0
 26 21  1  0  0  0  0
 26 25  1  0  0  0  0
M  END
>  <minimizedAffinity>
-5.27569246

$$$$

 OpenBabel03242520473D

 26 27  0  0  0  0  0  0  0  0999 V2000
   37.2130   27.5970   43.0210 C   0  0  0  0  0  0  0  0  0  0  0  0
   36.1060   27.5690   43.6040 O   0  0  0  0  0  0  0  0  0  0  0  0
   38.6120   24.2960   42.1210 C   0  0  0  0  0  0  0  0  0  0  0  0
   37.7250   25.3830   42.2280 C   0  0  0  0  0  0  0  0  0  0  0  0
   38.1600   26.5020   42.9390 C   0  0  0  0  0  0  0  0  0  0  0  0
   39.3890   26.5030   43.4880 N   0  0  0  0  0  0  0  0  0  0  0  0
   40.2030   25.4230   43.3530 C   0  0  0  0  0  0  0  0  0  0  0  0
   39.8080   24.3480   42.6800 N   0  0  0  0  0  0  0  0  0  0  0  0
   38.1920   23.1430   41.4010 N   0  0  0  0  0  0  0  0  0  0  0  0
   36.7710   25.2790   41.7540 H   0  0  0  0  0  0  0  0  0  0  0  0
   41.1810   25.4920   43.8210 H   0  0  0  0  0  0  0  0  0  0  0  0
   37.2420   22.8080   41.2110 H   0  0  0  0  0  0  0  0  0  0  0  0
   38.8720   22.4830   40.9670 H   0  0  0  0  0  0  0  0  0  0  0  0
   37.6890   28.7340   42.3520 O   0  0  0  0  0  0  0  0  0  0  0  0
   37.4380   28.9210   39.6920 O   0  0  0  0  0  0  0  0  0  0  0  0
   36.9250   29.4320   40.9930 P   0  0  1  0  0  0  0  0  0  0  0  0
   35.2830   29.0050   41.1150 O   0  0  0  0  0  0  0  0  0  0  0  0
   34.7000   29.8030   41.0620 H   0  0  0  0  0  0  0  0  0  0  0  0
   37.0600   31.1120   41.1070 O   0  0  0  0  0  0  0  0  0  0  0  0
   39.9130   34.6600   40.2680 H   0  0  0  0  0  0  0  0  0  0  0  0
   39.3840   34.1200   39.5240 N   0  0  0  0  0  0  0  0  0  0  0  0
   39.9480   32.7890   39.5600 C   0  0  0  0  0  2  0  0  0  0  0  0
   39.2390   32.0390   40.6740 C   0  0  0  0  0  2  0  0  0  0  0  0
   37.8830   31.6460   40.1340 C   0  0  0  0  0  3  0  0  0  0  0  0
   37.2310   32.9030   39.5990 C   0  0  0  0  0  2  0  0  0  0  0  0
   38.0060   34.1590   39.9320 C   0  0  0  0  0  2  0  0  0  0  0  0
  1  2  2  0  0  0  0
  3  4  2  0  0  0  0
  3  8  1  0  0  0  0
  4  5  1  0  0  0  0
  5  1  1  0  0  0  0
  5  6  2  0  0  0  0
  7  6  1  0  0  0  0
  7 11  1  0  0  0  0
  8  7  2  0  0  0  0
  9  3  1  0  0  0  0
 10  4  1  0  0  0  0
 12  9  1  0  0  0  0
 13  9  1  0  0  0  0
 14  1  1  0  0  0  0
 16 15  2  6  0  0  0
 16 19  1  0  0  0  0
 16 17  1  0  0  0  0
 16 14  1  0  0  0  0
 18 17  1  0  0  0  0
 21 22  1  0  0  0  0
 21 26  1  0  0  0  0
 21 20  1  0  0  0  0
 22 23  1  0  0  0  0
 24 23  1  0  0  0  0
 24 19  1  0  0  0  0
 25 26  1  0  0  0  0
 25 24  1  0  0  0  0
M  END
>  <minimizedAffinity>
-5.22757101

$$$$

 OpenBabel03242520473D

 26 27  0  0  0  0  0  0  0  0999 V2000
   37.6000   28.5390   42.2880 C   0  0  0  0  0  0  0  0  0  0  0  0
   37.4180   29.2880   43.2740 O   0  0  0  0  0  0  0  0  0  0  0  0
   37.4080   24.8860   41.7560 C   0  0  0  0  0  0  0  0  0  0  0  0
   37.0840   26.2550   41.7320 C   0  0  0  0  0  0  0  0  0  0  0  0
   37.9760   27.1400   42.3390 C   0  0  0  0  0  0  0  0  0  0  0  0
   39.0940   26.6630   42.9170 N   0  0  0  0  0  0  0  0  0  0  0  0
   39.3550   25.3280   42.9120 C   0  0  0  0  0  0  0  0  0  0  0  0
   38.5200   24.4700   42.3380 N   0  0  0  0  0  0  0  0  0  0  0  0
   36.5150   23.9630   41.1440 N   0  0  0  0  0  0  0  0  0  0  0  0
   36.1700   26.5280   41.2460 H   0  0  0  0  0  0  0  0  0  0  0  0
   40.2750   25.0130   43.3950 H   0  0  0  0  0  0  0  0  0  0  0  0
   35.5100   24.0570   40.9640 H   0  0  0  0  0  0  0  0  0  0  0  0
   36.8330   23.0340   40.7950 H   0  0  0  0  0  0  0  0  0  0  0  0
   37.4560   28.9810   40.9640 O   0  0  0  0  0  0  0  0  0  0  0  0
   34.8360   28.8450   40.4270 O   0  0  0  0  0  0  0  0  0  0  0  0
   36.0420   29.7150   40.3500 P   0  0  1  0  0  0  0  0  0  0  0  0
   35.7690   31.0800   41.3270 O   0  0  0  0  0  0  0  0  0  0  0  0
   35.6720   31.9000   40.7800 H   0  0  0  0  0  0  0  0  0  0  0  0
   36.3480   30.2290   38.7710 O   0  0  0  0  0  0  0  0  0  0  0  0
   38.2720   29.2900   34.6660 H   0  0  0  0  0  0  0  0  0  0  0  0
   37.5430   28.6860   35.1450 N   0  0  0  0  0  0  0  0  0  0  0  0
   38.1990   28.1860   36.3330 C   0  0  0  0  0  2  0  0  0  0  0  0
   38.0710   29.2640   37.3950 C   0  0  0  0  0  2  0  0  0  0  0  0
   36.6570   29.1830   37.9230 C   0  0  0  0  0  3  0  0  0  0  0  0
   35.7280   29.2490   36.7290 C   0  0  0  0  0  2  0  0  0  0  0  0
   36.4470   29.5690   35.4370 C   0  0  0  0  0  2  0  0  0  0  0  0
  1  5  1  0  0  0  0
  1  2  2  0  0  0  0
  3  8  1  0  0  0  0
  4  3  2  0  0  0  0
  4  5  1  0  0  0  0
  5  6  2  0  0  0  0
  7  6  1  0  0  0  0
  7 11  1  0  0  0  0
  8  7  2  0  0  0  0
  9  3  1  0  0  0  0
 10  4  1  0  0  0  0
 12  9  1  0  0  0  0
 13  9  1  0  0  0  0
 14  1  1  0  0  0  0
 16 15  2  1  0  0  0
 16 14  1  0  0  0  0
 16 17  1  0  0  0  0
 18 17  1  0  0  0  0
 19 16  1  0  0  0  0
 20 21  1  0  0  0  0
 21 26  1  0  0  0  0
 21 22  1  0  0  0  0
 22 23  1  0  0  0  0
 23 24  1  0  0  0  0
 24 19  1  0  0  0  0
 25 24  1  0  0  0  0
 26 25  1  0  0  0  0
M  END
>  <minimizedAffinity>
-5.16991901

$$$$

 OpenBabel03242520473D

 26 27  0  0  0  0  0  0  0  0999 V2000
   37.7690   30.3730   39.4500 C   0  0  0  0  0  0  0  0  0  0  0  0
   36.8030   30.2690   38.6620 O   0  0  0  0  0  0  0  0  0  0  0  0
   40.3600   32.7690   38.3490 C   0  0  0  0  0  0  0  0  0  0  0  0
   39.4380   31.7060   38.3410 C   0  0  0  0  0  0  0  0  0  0  0  0
   38.7070   31.4770   39.5070 C   0  0  0  0  0  0  0  0  0  0  0  0
   38.9070   32.2630   40.5810 N   0  0  0  0  0  0  0  0  0  0  0  0
   39.8140   33.2750   40.5320 C   0  0  0  0  0  0  0  0  0  0  0  0
   40.5190   33.5110   39.4310 N   0  0  0  0  0  0  0  0  0  0  0  0
   41.1170   33.0240   37.1720 N   0  0  0  0  0  0  0  0  0  0  0  0
   39.3560   31.1430   37.4340 H   0  0  0  0  0  0  0  0  0  0  0  0
   39.9240   33.8710   41.4340 H   0  0  0  0  0  0  0  0  0  0  0  0
   41.3640   32.3840   36.4100 H   0  0  0  0  0  0  0  0  0  0  0  0
   41.5190   33.9620   36.9650 H   0  0  0  0  0  0  0  0  0  0  0  0
   38.0720   29.3970   40.4120 O   0  0  0  0  0  0  0  0  0  0  0  0
   37.3120   29.0840   42.9600 O   0  0  0  0  0  0  0  0  0  0  0  0
   36.9480   28.7920   41.5470 P   0  0  1  0  0  0  0  0  0  0  0  0
   35.4800   29.5800   41.2070 O   0  0  0  0  0  0  0  0  0  0  0  0
   34.7440   28.9300   41.0800 H   0  0  0  0  0  0  0  0  0  0  0  0
   36.7520   27.1370   41.2760 O   0  0  0  0  0  0  0  0  0  0  0  0
   39.7250   23.6110   41.6820 H   0  0  0  0  0  0  0  0  0  0  0  0
   39.0010   23.8790   42.4100 N   0  0  0  0  0  0  0  0  0  0  0  0
   39.4190   25.1790   42.8870 C   0  0  0  0  0  2  0  0  0  0  0  0
   38.8790   26.2040   41.9070 C   0  0  0  0  0  2  0  0  0  0  0  0
   37.4080   26.3640   42.2140 C   0  0  0  0  0  3  0  0  0  0  0  0
   36.7950   24.9800   42.2030 C   0  0  0  0  0  2  0  0  0  0  0  0
   37.7480   23.9150   41.7070 C   0  0  0  0  0  2  0  0  0  0  0  0
  1  5  1  0  0  0  0
  1 14  1  0  0  0  0
  2  1  2  0  0  0  0
  3  8  1  0  0  0  0
  4  3  2  0  0  0  0
  4  5  1  0  0  0  0
  5  6  2  0  0  0  0
  7  6  1  0  0  0  0
  7 11  1  0  0  0  0
  8  7  2  0  0  0  0
  9  3  1  0  0  0  0
 10  4  1  0  0  0  0
 12  9  1  0  0  0  0
 13  9  1  0  0  0  0
 14 16  1  0  0  0  0
 16 15  2  1  0  0  0
 17 16  1  0  0  0  0
 18 17  1  0  0  0  0
 19 16  1  0  0  0  0
 19 24  1  0  0  0  0
 20 21  1  0  0  0  0
 21 22  1  0  0  0  0
 23 24  1  0  0  0  0
 23 22  1  0  0  0  0
 25 24  1  0  0  0  0
 26 25  1  0  0  0  0
 26 21  1  0  0  0  0
M  END
>  <minimizedAffinity>
-5.0534873

$$$$

 OpenBabel03242520473D

 26 27  0  0  0  0  0  0  0  0999 V2000
   39.1910   28.2290   41.5230 C   0  0  0  0  0  0  0  0  0  0  0  0
   40.0180   28.7860   42.2790 O   0  0  0  0  0  0  0  0  0  0  0  0
   39.2840   24.5910   42.1740 C   0  0  0  0  0  0  0  0  0  0  0  0
   39.3730   25.9820   42.3670 C   0  0  0  0  0  0  0  0  0  0  0  0
   39.0870   26.8040   41.2760 C   0  0  0  0  0  0  0  0  0  0  0  0
   38.7440   26.2500   40.0990 N   0  0  0  0  0  0  0  0  0  0  0  0
   38.6760   24.8980   39.9700 C   0  0  0  0  0  0  0  0  0  0  0  0
   38.9430   24.0980   40.9960 N   0  0  0  0  0  0  0  0  0  0  0  0
   39.5710   23.7320   43.2700 N   0  0  0  0  0  0  0  0  0  0  0  0
   39.6550   26.3190   43.3430 H   0  0  0  0  0  0  0  0  0  0  0  0
   38.3920   24.5180   38.9920 H   0  0  0  0  0  0  0  0  0  0  0  0
   40.1480   23.9100   44.0990 H   0  0  0  0  0  0  0  0  0  0  0  0
   39.1860   22.7650   43.3310 H   0  0  0  0  0  0  0  0  0  0  0  0
   38.2270   28.9440   40.7960 O   0  0  0  0  0  0  0  0  0  0  0  0
   35.5690   28.7430   41.0590 O   0  0  0  0  0  0  0  0  0  0  0  0
   36.7670   29.5290   41.4630 P   0  0  1  0  0  0  0  0  0  0  0  0
   36.9420   29.3930   43.1490 O   0  0  0  0  0  0  0  0  0  0  0  0
   36.7570   30.2550   43.6000 H   0  0  0  0  0  0  0  0  0  0  0  0
   36.6130   31.1630   41.0620 O   0  0  0  0  0  0  0  0  0  0  0  0
   39.3150   34.8610   40.3880 H   0  0  0  0  0  0  0  0  0  0  0  0
   39.0950   34.1300   39.6510 N   0  0  0  0  0  0  0  0  0  0  0  0
   39.7130   32.9170   40.1370 C   0  0  0  0  0  2  0  0  0  0  0  0
   38.7400   32.2880   41.1180 C   0  0  0  0  0  2  0  0  0  0  0  0
   37.6640   31.6220   40.2920 C   0  0  0  0  0  3  0  0  0  0  0  0
   37.1290   32.6630   39.3310 C   0  0  0  0  0  2  0  0  0  0  0  0
   37.6600   34.0520   39.6070 C   0  0  0  0  0  2  0  0  0  0  0  0
  1  2  2  0  0  0  0
  3  4  1  0  0  0  0
  3  9  1  0  0  0  0
  4 10  1  0  0  0  0
  5  1  1  0  0  0  0
  5  4  2  0  0  0  0
  6  5  1  0  0  0  0
  7  6  2  0  0  0  0
  7  8  1  0  0  0  0
  8  3  2  0  0  0  0
  9 13  1  0  0  0  0
  9 12  1  0  0  0  0
 11  7  1  0  0  0  0
 14 16  1  0  0  0  0
 14  1  1  0  0  0  0
 16 15  2  6  0  0  0
 16 17  1  0  0  0  0
 17 18  1  0  0  0  0
 19 16  1  0  0  0  0
 21 22  1  0  0  0  0
 21 20  1  0  0  0  0
 22 23  1  0  0  0  0
 24 19  1  0  0  0  0
 24 23  1  0  0  0  0
 25 26  1  0  0  0  0
 25 24  1  0  0  0  0
 26 21  1  0  0  0  0
M  END
>  <minimizedAffinity>
-5.00993967

$$$$

 OpenBabel03242520473D

 26 27  0  0  0  0  0  0  0  0999 V2000
   35.7990   29.2440   39.8770 C   0  0  0  0  0  0  0  0  0  0  0  0
   35.2790   28.4640   39.0470 O   0  0  0  0  0  0  0  0  0  0  0  0
   37.5920   31.8110   37.9130 C   0  0  0  0  0  0  0  0  0  0  0  0
   36.9330   30.6170   38.2580 C   0  0  0  0  0  0  0  0  0  0  0  0
   36.4720   30.4900   39.5680 C   0  0  0  0  0  0  0  0  0  0  0  0
   36.6720   31.4940   40.4420 N   0  0  0  0  0  0  0  0  0  0  0  0
   37.3170   32.6260   40.0530 C   0  0  0  0  0  0  0  0  0  0  0  0
   37.7620   32.7670   38.8100 N   0  0  0  0  0  0  0  0  0  0  0  0
   38.0700   31.9660   36.5820 N   0  0  0  0  0  0  0  0  0  0  0  0
   36.8270   29.8820   37.4860 H   0  0  0  0  0  0  0  0  0  0  0  0
   37.4420   33.3960   40.8090 H   0  0  0  0  0  0  0  0  0  0  0  0
   38.3200   31.2450   35.8960 H   0  0  0  0  0  0  0  0  0  0  0  0
   38.2200   32.9030   36.1520 H   0  0  0  0  0  0  0  0  0  0  0  0
   35.7920   28.9960   41.2580 O   0  0  0  0  0  0  0  0  0  0  0  0
   38.4420   28.7270   41.5370 O   0  0  0  0  0  0  0  0  0  0  0  0
   37.1220   28.3610   42.1210 P   0  0  1  0  0  0  0  0  0  0  0  0
   37.0290   29.0400   43.6780 O   0  0  0  0  0  0  0  0  0  0  0  0
   37.0490   28.3390   44.3770 H   0  0  0  0  0  0  0  0  0  0  0  0
   36.9300   26.6880   42.2450 O   0  0  0  0  0  0  0  0  0  0  0  0
   37.2210   23.1690   39.2510 H   0  0  0  0  0  0  0  0  0  0  0  0
   38.0170   23.5100   39.8630 N   0  0  0  0  0  0  0  0  0  0  0  0
   38.3130   24.8400   39.3780 C   0  0  0  0  0  2  0  0  0  0  0  0
   37.3320   25.7830   40.0510 C   0  0  0  0  0  2  0  0  0  0  0  0
   37.8300   25.9910   41.4620 C   0  0  0  0  0  3  0  0  0  0  0  0
   38.0290   24.6200   42.0740 C   0  0  0  0  0  2  0  0  0  0  0  0
   37.4990   23.5020   41.2040 C   0  0  0  0  0  2  0  0  0  0  0  0
  1 14  1  0  0  0  0
  2  1  2  0  0  0  0
  3  4  2  0  0  0  0
  3  8  1  0  0  0  0
  4  5  1  0  0  0  0
  5  1  1  0  0  0  0
  5  6  2  0  0  0  0
  7  6  1  0  0  0  0
  7 11  1  0  0  0  0
  8  7  2  0  0  0  0
  9  3  1  0  0  0  0
 10  4  1  0  0  0  0
 12  9  1  0  0  0  0
 13  9  1  0  0  0  0
 14 16  1  0  0  0  0
 16 15  2  6  0  0  0
 16 19  1  0  0  0  0
 16 17  1  0  0  0  0
 17 18  1  0  0  0  0
 20 21  1  0  0  0  0
 21 26  1  0  0  0  0
 22 21  1  0  0  0  0
 22 23  1  0  0  0  0
 23 24  1  0  0  0  0
 24 25  1  0  0  0  0
 24 19  1  0  0  0  0
 26 25  1  0  0  0  0
M  END
>  <minimizedAffinity>
-4.9897728

$$$$
