
 OpenBabel03242523263D

 43 46  0  0  1  0  0  0  0  0999 V2000
   46.4720   33.8130   43.3340 C   0  0  0  0  0  0  0  0  0  0  0  0
   47.7490   33.4810   43.3180 C   0  0  0  0  0  0  0  0  0  0  0  0
   48.0640   32.3340   44.0280 C   0  0  0  0  0  0  0  0  0  0  0  0
   47.0030   31.6610   44.6840 N   0  0  0  0  0  0  0  0  0  0  0  0
   45.7580   32.0560   44.6550 C   0  0  0  0  0  0  0  0  0  0  0  0
   45.4260   33.1980   43.9480 N   0  0  0  0  0  0  0  0  0  0  0  0
   49.0250   31.8800   44.1490 H   0  0  0  0  0  0  0  0  0  0  0  0
   45.0630   31.4370   45.2060 H   0  0  0  0  0  0  0  0  0  0  0  0
   48.8500   34.2250   42.7560 C   0  0  1  0  0  0  0  0  0  0  0  0
   50.1450   33.8380   42.6820 C   0  0  0  0  0  0  0  0  0  0  0  0
   49.4190   33.6300   41.3840 C   0  0  1  0  0  0  0  0  0  0  0  0
   48.5090   35.2860   42.5270 H   0  0  0  0  0  0  0  0  0  0  0  0
   50.5060   32.8910   43.1840 H   0  0  0  0  0  0  0  0  0  0  0  0
   50.9970   34.5470   42.6180 H   0  0  0  0  0  0  0  0  0  0  0  0
   49.5960   34.3690   40.5840 H   0  0  0  0  0  0  0  0  0  0  0  0
   48.9980   32.3090   41.0800 N   0  0  0  0  0  0  0  0  0  0  0  0
   47.9430   32.2480   40.9700 H   0  0  0  0  0  0  0  0  0  0  0  0
   51.1480   30.8220   37.5230 H   0  0  0  0  0  0  0  0  0  0  0  0
   50.6870   30.0900   38.0750 N   0  0  0  0  0  0  0  0  0  0  0  0
   51.1840   30.1100   39.4400 C   0  0  0  0  0  2  0  0  0  0  0  0
   50.9310   31.5030   39.9530 C   0  0  0  0  0  2  0  0  0  0  0  0
   49.5450   32.0030   39.7520 C   0  0  1  0  0  3  0  0  0  0  0  0
   48.6360   31.0800   39.0160 C   0  0  0  0  0  3  0  0  0  0  0  0
   49.2520   30.1760   38.0180 C   0  0  0  0  0  3  0  0  0  0  0  0
   45.8640   34.9520   42.5890 C   0  0  0  0  0  0  0  0  0  0  0  0
   45.5600   36.0950   42.4240 O   0  0  0  0  0  0  0  0  0  0  0  0
   42.8290   35.2560   42.0460 Cl  0  0  0  0  0  0  0  0  0  0  0  0
   43.9210   34.4630   40.9260 C   0  0  0  0  0  0  0  0  0  0  0  0
   45.2850   34.4090   41.3020 C   0  0  0  0  0  0  0  0  0  0  0  0
   46.0240   33.7720   40.3420 C   0  0  0  0  0  0  0  0  0  0  0  0
   45.6710   33.2360   39.1930 C   0  0  0  0  0  0  0  0  0  0  0  0
   44.3250   33.3170   38.8750 C   0  0  0  0  0  0  0  0  0  0  0  0
   43.4620   33.9190   39.7220 C   0  0  0  0  0  0  0  0  0  0  0  0
   47.1250   33.6900   40.5400 H   0  0  0  0  0  0  0  0  0  0  0  0
   46.3520   32.7440   38.4900 H   0  0  0  0  0  0  0  0  0  0  0  0
   44.0000   32.8750   37.9170 H   0  0  0  0  0  0  0  0  0  0  0  0
   42.1530   33.9420   39.3060 O   0  0  0  0  0  0  0  0  0  0  0  0
   40.2420   34.4920   37.5980 O   0  0  0  0  0  0  0  0  0  0  0  0
   41.3160   35.1290   38.4380 P   0  0  0  0  0  0  0  0  0  0  0  0
   40.6500   36.2390   39.5330 O   0  0  0  0  0  0  0  0  0  0  0  0
   41.2860   36.9600   39.7610 H   0  0  0  0  0  0  0  0  0  0  0  0
   42.3540   36.0280   37.4470 O   0  0  0  0  0  0  0  0  0  0  0  0
   42.7250   35.4820   36.7210 H   0  0  0  0  0  0  0  0  0  0  0  0
  1  6  1  0  0  0  0
  2  1  2  0  0  0  0
  2  3  1  0  0  0  0
  3  7  1  0  0  0  0
  3  4  2  0  0  0  0
  5  4  1  0  0  0  0
  5  8  1  0  0  0  0
  6  5  2  0  0  0  0
  9 12  1  6  0  0  0
  9  2  1  0  0  0  0
 10  9  1  0  0  0  0
 10 13  1  0  0  0  0
 11 15  1  6  0  0  0
 11 10  1  0  0  0  0
 11  9  1  0  0  0  0
 14 10  1  0  0  0  0
 16 11  1  0  0  0  0
 17 16  1  0  0  0  0
 18 19  1  0  0  0  0
 19 20  1  0  0  0  0
 20 21  1  0  0  0  0
 22 21  1  0  0  0  0
 22 16  1  1  0  0  0
 23 22  1  0  0  0  0
 24 19  1  0  0  0  0
 24 23  2  0  0  0  0
 25  1  1  0  0  0  0
 26 25  2  0  0  0  0
 28 29  1  0  0  0  0
 28 27  1  0  0  0  0
 29 25  1  0  0  0  0
 30 34  1  0  0  0  0
 30 29  2  0  0  0  0
 31 30  1  0  0  0  0
 32 31  2  0  0  0  0
 32 33  1  0  0  0  0
 33 28  2  0  0  0  0
 35 31  1  0  0  0  0
 36 32  1  0  0  0  0
 37 33  1  0  0  0  0
 38 39  2  0  0  0  0
 39 37  1  0  0  0  0
 39 40  1  0  0  0  0
 40 41  1  0  0  0  0
 42 39  1  0  0  0  0
 43 42  1  0  0  0  0
M  END
>  <minimizedAffinity>
-5.21004009

>  <minimizedRMSD>
3.62246847

$$$$
