
 OpenBabel03242515103D

 34 36  0  0  0  0  0  0  0  0999 V2000
   46.3440   33.7280   44.8100 C   0  0  0  0  0  0  0  0  0  0  0  0
   45.1870   34.4180   45.0420 C   0  0  0  0  0  0  0  0  0  0  0  0
   44.7080   35.4120   44.2100 C   0  0  0  0  0  0  0  0  0  0  0  0
   45.4290   35.7320   43.0820 C   0  0  0  0  0  0  0  0  0  0  0  0
   46.5830   35.0590   42.8310 C   0  0  0  0  0  0  0  0  0  0  0  0
   47.0420   34.0660   43.6800 C   0  0  0  0  0  0  0  0  0  0  0  0
   44.6080   34.1760   45.9260 H   0  0  0  0  0  0  0  0  0  0  0  0
   43.7890   35.9020   44.4710 H   0  0  0  0  0  0  0  0  0  0  0  0
   45.0380   36.5190   42.4370 H   0  0  0  0  0  0  0  0  0  0  0  0
   47.1100   35.3490   41.9330 H   0  0  0  0  0  0  0  0  0  0  0  0
   47.5790   30.4780   45.9700 C   0  0  0  0  0  0  0  0  0  0  0  0
   47.6710   30.6480   47.3500 C   0  0  0  0  0  0  0  0  0  0  0  0
   47.3080   31.8830   47.8930 C   0  0  0  0  0  0  0  0  0  0  0  0
   46.8790   32.8800   47.0740 N   0  0  0  0  0  0  0  0  0  0  0  0
   46.7980   32.6880   45.7240 C   0  0  0  0  0  0  0  0  0  0  0  0
   47.1520   31.4900   45.2160 N   0  0  0  0  0  0  0  0  0  0  0  0
   47.8560   29.5320   45.5420 H   0  0  0  0  0  0  0  0  0  0  0  0
   48.0120   29.8610   48.0210 H   0  0  0  0  0  0  0  0  0  0  0  0
   47.3480   32.1000   48.9430 H   0  0  0  0  0  0  0  0  0  0  0  0
   48.2600   33.4600   43.2780 N   0  0  0  0  0  0  0  0  0  0  0  0
   48.2590   32.4250   43.5310 H   0  0  0  0  0  0  0  0  0  0  0  0
   49.6400   34.0810   42.5030 S   0  0  0  0  0  0  0  0  0  0  0  0
   49.2850   34.4170   41.0660 O   0  0  0  0  0  0  0  0  0  0  0  0
   49.9330   34.5200   40.3420 H   0  0  0  0  0  0  0  0  0  0  0  0
   50.2510   35.2620   43.1610 O   0  0  0  0  0  0  0  0  0  0  0  0
   50.3210   36.2040   42.8610 H   0  0  0  0  0  0  0  0  0  0  0  0
   50.7210   32.7690   42.3920 O   0  0  0  0  0  0  0  0  0  0  0  0
   51.8920   28.6910   40.2160 H   0  0  0  0  0  0  0  0  0  0  0  0
   51.4610   29.3140   40.9240 N   0  0  0  0  0  0  0  0  0  0  0  0
   50.1140   29.7030   40.6110 C   0  0  0  0  0  0  0  0  0  0  0  0
   49.7050   30.8870   41.4460 C   0  0  0  0  0  0  0  0  0  0  0  0
   50.5400   32.1130   41.2060 C   0  0  0  0  0  0  0  0  0  0  0  0
   51.9310   31.7160   40.7020 C   0  0  0  0  0  0  0  0  0  0  0  0
   52.3210   30.3990   41.3250 C   0  0  0  0  0  0  0  0  0  0  0  0
  1  2  1  0  0  0  0
  1 15  1  0  0  0  0
  2  7  1  0  0  0  0
  3  8  1  0  0  0  0
  3  2  2  0  0  0  0
  4  3  1  0  0  0  0
  5  4  2  0  0  0  0
  5  6  1  0  0  0  0
  6  1  2  0  0  0  0
  9  4  1  0  0  0  0
 10  5  1  0  0  0  0
 11 12  1  0  0  0  0
 12 13  2  0  0  0  0
 12 18  1  0  0  0  0
 13 19  1  0  0  0  0
 14 13  1  0  0  0  0
 15 14  2  0  0  0  0
 16 15  1  0  0  0  0
 16 11  2  0  0  0  0
 17 11  1  0  0  0  0
 20 21  1  0  0  0  0
 20  6  1  0  0  0  0
 22 25  1  0  0  0  0
 22 20  1  0  0  0  0
 23 22  1  0  0  0  0
 24 23  1  0  0  0  0
 26 25  1  0  0  0  0
 27 22  1  0  0  0  0
 28 29  1  0  0  0  0
 29 34  1  0  0  0  0
 30 29  1  0  0  0  0
 30 31  1  0  0  0  0
 32 31  1  0  0  0  0
 32 27  1  0  0  0  0
 33 32  1  0  0  0  0
 33 34  1  0  0  0  0
M  END
>  <minimizedAffinity>
-6.03739643

>  <minimizedRMSD>
1.94314098

$$$$
