
 OpenBabel03242515103D

 34 36  0  0  0  0  0  0  0  0999 V2000
   45.5730   34.0230   45.5630 C   0  0  0  0  0  0  0  0  0  0  0  0
   44.7260   35.0820   45.7400 C   0  0  0  0  0  0  0  0  0  0  0  0
   44.3990   35.9760   44.7400 C   0  0  0  0  0  0  0  0  0  0  0  0
   44.9510   35.8010   43.4910 C   0  0  0  0  0  0  0  0  0  0  0  0
   45.7960   34.7540   43.2920 C   0  0  0  0  0  0  0  0  0  0  0  0
   46.1080   33.8710   44.3110 C   0  0  0  0  0  0  0  0  0  0  0  0
   44.2840   35.2330   46.7180 H   0  0  0  0  0  0  0  0  0  0  0  0
   43.7240   36.7800   44.9680 H   0  0  0  0  0  0  0  0  0  0  0  0
   44.6830   36.5150   42.7120 H   0  0  0  0  0  0  0  0  0  0  0  0
   46.2010   34.6620   42.2940 H   0  0  0  0  0  0  0  0  0  0  0  0
   47.5290   31.8540   47.7770 C   0  0  0  0  0  0  0  0  0  0  0  0
   46.5820   31.3920   48.6880 C   0  0  0  0  0  0  0  0  0  0  0  0
   45.2600   31.8240   48.5470 C   0  0  0  0  0  0  0  0  0  0  0  0
   44.9310   32.6740   47.5390 N   0  0  0  0  0  0  0  0  0  0  0  0
   45.8790   33.1120   46.6580 C   0  0  0  0  0  0  0  0  0  0  0  0
   47.1500   32.6870   46.8080 N   0  0  0  0  0  0  0  0  0  0  0  0
   48.5490   31.5290   47.8760 H   0  0  0  0  0  0  0  0  0  0  0  0
   46.8260   30.7110   49.5010 H   0  0  0  0  0  0  0  0  0  0  0  0
   44.4670   31.5180   49.2030 H   0  0  0  0  0  0  0  0  0  0  0  0
   47.0030   32.8330   43.9420 N   0  0  0  0  0  0  0  0  0  0  0  0
   46.7090   31.9130   44.3920 H   0  0  0  0  0  0  0  0  0  0  0  0
   48.3890   32.8210   42.9560 S   0  0  0  0  0  0  0  0  0  0  0  0
   47.9550   32.7350   41.5040 O   0  0  0  0  0  0  0  0  0  0  0  0
   48.5270   32.4380   40.7700 H   0  0  0  0  0  0  0  0  0  0  0  0
   49.3010   33.9770   43.1420 O   0  0  0  0  0  0  0  0  0  0  0  0
   49.5320   34.7220   42.5320 H   0  0  0  0  0  0  0  0  0  0  0  0
   49.1530   31.3330   43.2750 O   0  0  0  0  0  0  0  0  0  0  0  0
   52.7740   28.5250   41.9510 H   0  0  0  0  0  0  0  0  0  0  0  0
   51.8640   28.7870   42.3760 N   0  0  0  0  0  0  0  0  0  0  0  0
   50.7460   28.6500   41.4850 C   0  0  0  0  0  2  0  0  0  0  0  0
   49.5560   29.4010   42.0200 C   0  0  0  0  0  2  0  0  0  0  0  0
   49.7840   30.8810   42.1500 C   0  0  0  0  0  3  0  0  0  0  0  0
   51.2770   31.1720   42.3310 C   0  0  0  0  0  2  0  0  0  0  0  0
   51.9110   30.0370   43.0930 C   0  0  0  0  0  2  0  0  0  0  0  0
  1  2  1  0  0  0  0
  1 15  1  0  0  0  0
  2  7  1  0  0  0  0
  3  8  1  0  0  0  0
  3  2  2  0  0  0  0
  4  3  1  0  0  0  0
  5  4  2  0  0  0  0
  5  6  1  0  0  0  0
  6  1  2  0  0  0  0
  9  4  1  0  0  0  0
 10  5  1  0  0  0  0
 11 17  1  0  0  0  0
 11 12  1  0  0  0  0
 12 18  1  0  0  0  0
 13 12  2  0  0  0  0
 13 19  1  0  0  0  0
 14 13  1  0  0  0  0
 15 16  1  0  0  0  0
 15 14  2  0  0  0  0
 16 11  2  0  0  0  0
 20  6  1  0  0  0  0
 20 21  1  0  0  0  0
 22 25  1  0  0  0  0
 22 27  1  0  0  0  0
 22 20  1  0  0  0  0
 23 22  1  0  0  0  0
 24 23  1  0  0  0  0
 26 25  1  0  0  0  0
 28 29  1  0  0  0  0
 29 34  1  0  0  0  0
 30 31  1  0  0  0  0
 30 29  1  0  0  0  0
 31 32  1  0  0  0  0
 32 33  1  0  0  0  0
 32 27  1  0  0  0  0
 33 34  1  0  0  0  0
M  END
>  <minimizedAffinity>
-4.91669035

>  <minimizedRMSD>
0.998961926

$$$$
