
 OpenBabel03242515103D

 34 36  0  0  0  0  0  0  0  0999 V2000
   45.5560   33.9980   45.5720 C   0  0  0  0  0  0  0  0  0  0  0  0
   44.7290   35.0720   45.7480 C   0  0  0  0  0  0  0  0  0  0  0  0
   44.3930   35.9530   44.7390 C   0  0  0  0  0  0  0  0  0  0  0  0
   44.9150   35.7480   43.4830 C   0  0  0  0  0  0  0  0  0  0  0  0
   45.7410   34.6850   43.2840 C   0  0  0  0  0  0  0  0  0  0  0  0
   46.0610   33.8160   44.3110 C   0  0  0  0  0  0  0  0  0  0  0  0
   44.3100   35.2460   46.7330 H   0  0  0  0  0  0  0  0  0  0  0  0
   43.7350   36.7700   44.9680 H   0  0  0  0  0  0  0  0  0  0  0  0
   44.6400   36.4520   42.6970 H   0  0  0  0  0  0  0  0  0  0  0  0
   46.1220   34.5700   42.2790 H   0  0  0  0  0  0  0  0  0  0  0  0
   47.5340   31.8550   47.7930 C   0  0  0  0  0  0  0  0  0  0  0  0
   46.5960   31.4090   48.7220 C   0  0  0  0  0  0  0  0  0  0  0  0
   45.2730   31.8420   48.5900 C   0  0  0  0  0  0  0  0  0  0  0  0
   44.9350   32.6790   47.5740 N   0  0  0  0  0  0  0  0  0  0  0  0
   45.8740   33.1020   46.6760 C   0  0  0  0  0  0  0  0  0  0  0  0
   47.1450   32.6750   46.8170 N   0  0  0  0  0  0  0  0  0  0  0  0
   48.5530   31.5290   47.8850 H   0  0  0  0  0  0  0  0  0  0  0  0
   46.8480   30.7390   49.5410 H   0  0  0  0  0  0  0  0  0  0  0  0
   44.4880   31.5470   49.2600 H   0  0  0  0  0  0  0  0  0  0  0  0
   46.9340   32.7590   43.9420 N   0  0  0  0  0  0  0  0  0  0  0  0
   46.6020   31.8400   44.3670 H   0  0  0  0  0  0  0  0  0  0  0  0
   48.3400   32.7240   42.9860 S   0  0  0  0  0  0  0  0  0  0  0  0
   47.9380   32.5950   41.5280 O   0  0  0  0  0  0  0  0  0  0  0  0
   48.5270   32.2790   40.8150 H   0  0  0  0  0  0  0  0  0  0  0  0
   49.2450   33.8880   43.1590 O   0  0  0  0  0  0  0  0  0  0  0  0
   49.4860   34.6160   42.5330 H   0  0  0  0  0  0  0  0  0  0  0  0
   49.1020   31.2480   43.3640 O   0  0  0  0  0  0  0  0  0  0  0  0
   52.8280   28.5050   42.2070 H   0  0  0  0  0  0  0  0  0  0  0  0
   51.9040   28.7540   42.6090 N   0  0  0  0  0  0  0  0  0  0  0  0
   50.8040   28.5440   41.7120 C   0  0  0  0  0  2  0  0  0  0  0  0
   49.5830   29.2800   42.1980 C   0  0  0  0  0  2  0  0  0  0  0  0
   49.7630   30.7700   42.2670 C   0  0  0  0  0  3  0  0  0  0  0  0
   51.2420   31.1160   42.4540 C   0  0  0  0  0  2  0  0  0  0  0  0
   51.9020   30.0340   43.2730 C   0  0  0  0  0  2  0  0  0  0  0  0
  1  2  1  0  0  0  0
  1 15  1  0  0  0  0
  2  7  1  0  0  0  0
  3  8  1  0  0  0  0
  3  2  2  0  0  0  0
  4  3  1  0  0  0  0
  5  4  2  0  0  0  0
  5  6  1  0  0  0  0
  6  1  2  0  0  0  0
  9  4  1  0  0  0  0
 10  5  1  0  0  0  0
 11 17  1  0  0  0  0
 11 12  1  0  0  0  0
 12 18  1  0  0  0  0
 13 12  2  0  0  0  0
 13 19  1  0  0  0  0
 14 13  1  0  0  0  0
 15 16  1  0  0  0  0
 15 14  2  0  0  0  0
 16 11  2  0  0  0  0
 20  6  1  0  0  0  0
 20 21  1  0  0  0  0
 22 25  1  0  0  0  0
 22 27  1  0  0  0  0
 22 20  1  0  0  0  0
 23 22  1  0  0  0  0
 24 23  1  0  0  0  0
 26 25  1  0  0  0  0
 28 29  1  0  0  0  0
 29 34  1  0  0  0  0
 30 31  1  0  0  0  0
 30 29  1  0  0  0  0
 31 32  1  0  0  0  0
 32 33  1  0  0  0  0
 32 27  1  0  0  0  0
 33 34  1  0  0  0  0
M  END
>  <minimizedAffinity>
-4.89219475

>  <minimizedRMSD>
0.774046242

$$$$
