
 OpenBabel03242523263D

 43 46  0  0  1  0  0  0  0  0999 V2000
   46.4720   33.8130   43.3350 C   0  0  0  0  0  0  0  0  0  0  0  0
   47.7490   33.4810   43.3180 C   0  0  0  0  0  0  0  0  0  0  0  0
   48.0640   32.3340   44.0290 C   0  0  0  0  0  0  0  0  0  0  0  0
   47.0030   31.6610   44.6840 N   0  0  0  0  0  0  0  0  0  0  0  0
   45.7580   32.0570   44.6560 C   0  0  0  0  0  0  0  0  0  0  0  0
   45.4260   33.1990   43.9480 N   0  0  0  0  0  0  0  0  0  0  0  0
   49.0250   31.8800   44.1500 H   0  0  0  0  0  0  0  0  0  0  0  0
   45.0630   31.4380   45.2070 H   0  0  0  0  0  0  0  0  0  0  0  0
   48.8500   34.2250   42.7560 C   0  0  1  0  0  0  0  0  0  0  0  0
   50.1450   33.8380   42.6830 C   0  0  0  0  0  0  0  0  0  0  0  0
   49.4200   33.6300   41.3850 C   0  0  1  0  0  0  0  0  0  0  0  0
   48.5090   35.2860   42.5270 H   0  0  0  0  0  0  0  0  0  0  0  0
   50.5060   32.8910   43.1850 H   0  0  0  0  0  0  0  0  0  0  0  0
   50.9970   34.5470   42.6190 H   0  0  0  0  0  0  0  0  0  0  0  0
   49.5960   34.3690   40.5840 H   0  0  0  0  0  0  0  0  0  0  0  0
   48.9980   32.3090   41.0810 N   0  0  0  0  0  0  0  0  0  0  0  0
   47.9440   32.2470   40.9720 H   0  0  0  0  0  0  0  0  0  0  0  0
   51.1470   30.8230   37.5220 H   0  0  0  0  0  0  0  0  0  0  0  0
   50.6860   30.0900   38.0750 N   0  0  0  0  0  0  0  0  0  0  0  0
   51.1850   30.1110   39.4390 C   0  0  0  0  0  2  0  0  0  0  0  0
   50.9310   31.5040   39.9530 C   0  0  0  0  0  2  0  0  0  0  0  0
   49.5440   32.0030   39.7520 C   0  0  1  0  0  3  0  0  0  0  0  0
   48.6350   31.0800   39.0170 C   0  0  0  0  0  3  0  0  0  0  0  0
   49.2520   30.1740   38.0190 C   0  0  0  0  0  3  0  0  0  0  0  0
   45.8640   34.9530   42.5900 C   0  0  0  0  0  0  0  0  0  0  0  0
   45.5610   36.0950   42.4240 O   0  0  0  0  0  0  0  0  0  0  0  0
   42.8290   35.2560   42.0460 Cl  0  0  0  0  0  0  0  0  0  0  0  0
   43.9210   34.4630   40.9260 C   0  0  0  0  0  0  0  0  0  0  0  0
   45.2860   34.4090   41.3020 C   0  0  0  0  0  0  0  0  0  0  0  0
   46.0240   33.7720   40.3420 C   0  0  0  0  0  0  0  0  0  0  0  0
   45.6710   33.2370   39.1930 C   0  0  0  0  0  0  0  0  0  0  0  0
   44.3260   33.3170   38.8750 C   0  0  0  0  0  0  0  0  0  0  0  0
   43.4620   33.9190   39.7220 C   0  0  0  0  0  0  0  0  0  0  0  0
   47.1260   33.6910   40.5410 H   0  0  0  0  0  0  0  0  0  0  0  0
   46.3520   32.7450   38.4910 H   0  0  0  0  0  0  0  0  0  0  0  0
   44.0010   32.8750   37.9170 H   0  0  0  0  0  0  0  0  0  0  0  0
   42.1540   33.9430   39.3060 O   0  0  0  0  0  0  0  0  0  0  0  0
   40.2420   34.4930   37.5990 O   0  0  0  0  0  0  0  0  0  0  0  0
   41.3160   35.1290   38.4380 P   0  0  0  0  0  0  0  0  0  0  0  0
   40.6510   36.2390   39.5340 O   0  0  0  0  0  0  0  0  0  0  0  0
   41.2870   36.9600   39.7620 H   0  0  0  0  0  0  0  0  0  0  0  0
   42.3540   36.0290   37.4470 O   0  0  0  0  0  0  0  0  0  0  0  0
   42.7250   35.4820   36.7210 H   0  0  0  0  0  0  0  0  0  0  0  0
  1  6  1  0  0  0  0
  2  1  2  0  0  0  0
  2  3  1  0  0  0  0
  3  7  1  0  0  0  0
  3  4  2  0  0  0  0
  5  4  1  0  0  0  0
  5  8  1  0  0  0  0
  6  5  2  0  0  0  0
  9 12  1  6  0  0  0
  9  2  1  0  0  0  0
 10  9  1  0  0  0  0
 10 13  1  0  0  0  0
 11 15  1  6  0  0  0
 11 10  1  0  0  0  0
 11  9  1  0  0  0  0
 14 10  1  0  0  0  0
 16 11  1  0  0  0  0
 17 16  1  0  0  0  0
 18 19  1  0  0  0  0
 19 20  1  0  0  0  0
 20 21  1  0  0  0  0
 22 21  1  0  0  0  0
 22 16  1  1  0  0  0
 23 22  1  0  0  0  0
 24 19  1  0  0  0  0
 24 23  2  0  0  0  0
 25  1  1  0  0  0  0
 26 25  2  0  0  0  0
 28 29  1  0  0  0  0
 28 27  1  0  0  0  0
 29 25  1  0  0  0  0
 30 34  1  0  0  0  0
 30 29  2  0  0  0  0
 31 30  1  0  0  0  0
 32 31  2  0  0  0  0
 32 33  1  0  0  0  0
 33 28  2  0  0  0  0
 35 31  1  0  0  0  0
 36 32  1  0  0  0  0
 37 33  1  0  0  0  0
 38 39  2  0  0  0  0
 39 37  1  0  0  0  0
 39 40  1  0  0  0  0
 40 41  1  0  0  0  0
 42 39  1  0  0  0  0
 43 42  1  0  0  0  0
M  END
>  <minimizedAffinity>
-5.20772505

>  <minimizedRMSD>
3.66642761

$$$$
