
 OpenBabel03252506223D

 33 35  0  0  0  0  0  0  0  0999 V2000
   45.1360   36.0230   43.0790 C   0  0  0  0  0  0  0  0  0  0  0  0
   44.1410   35.8500   42.1130 C   0  0  0  0  0  0  0  0  0  0  0  0
   44.3560   34.8660   41.1260 C   0  0  0  0  0  0  0  0  0  0  0  0
   45.5040   34.1460   41.1630 N   0  0  0  0  0  0  0  0  0  0  0  0
   46.4420   34.3540   42.1280 C   0  0  0  0  0  0  0  0  0  0  0  0
   46.2480   35.2850   43.0700 N   0  0  0  0  0  0  0  0  0  0  0  0
   43.2530   36.4510   42.1340 H   0  0  0  0  0  0  0  0  0  0  0  0
   43.6060   34.7010   40.3550 H   0  0  0  0  0  0  0  0  0  0  0  0
   48.9440   35.7830   41.2050 Cl  0  0  0  0  0  0  0  0  0  0  0  0
   48.8380   34.1270   41.6660 C   0  0  0  0  0  0  0  0  0  0  0  0
   47.6630   33.5150   42.0840 C   0  0  0  0  0  0  0  0  0  0  0  0
   47.5590   32.2070   42.4520 C   0  0  0  0  0  0  0  0  0  0  0  0
   48.6940   31.4530   42.4040 C   0  0  0  0  0  0  0  0  0  0  0  0
   49.9260   31.9370   42.0090 C   0  0  0  0  0  0  0  0  0  0  0  0
   49.9410   33.2880   41.6480 C   0  0  0  0  0  0  0  0  0  0  0  0
   46.6410   31.7400   42.7760 H   0  0  0  0  0  0  0  0  0  0  0  0
   48.6720   30.4110   42.6860 H   0  0  0  0  0  0  0  0  0  0  0  0
   50.8380   31.3570   41.9630 H   0  0  0  0  0  0  0  0  0  0  0  0
   50.8740   33.7530   41.3210 H   0  0  0  0  0  0  0  0  0  0  0  0
   44.9150   37.0430   44.1040 C   0  0  0  0  0  3  0  0  0  0  0  0
   45.4340   38.2460   43.9300 C   0  0  0  0  0  3  0  0  0  0  0  0
   45.1990   39.2760   44.9890 C   0  0  0  0  0  0  0  0  0  0  0  0
   44.2160   39.1080   45.4760 H   0  0  0  0  0  0  0  0  0  0  0  0
   45.9900   39.2570   45.7580 H   0  0  0  0  0  0  0  0  0  0  0  0
   45.1240   40.5530   44.3070 N   0  0  0  0  0  0  0  0  0  0  0  0
   46.0980   40.7000   43.9050 H   0  0  0  0  0  0  0  0  0  0  0  0
   42.5020   43.3720   44.1380 H   0  0  0  0  0  0  0  0  0  0  0  0
   42.8100   43.6900   45.0850 N   0  0  0  0  0  0  0  0  0  0  0  0
   42.6920   42.6610   46.0820 C   0  0  0  0  0  2  0  0  0  0  0  0
   43.5050   41.4380   45.8330 C   0  0  0  0  0  2  0  0  0  0  0  0
   44.8300   41.6590   45.1750 C   0  0  0  0  0  3  0  0  0  0  0  0
   44.9290   42.9230   44.3670 C   0  0  0  0  0  2  0  0  0  0  0  0
   44.2060   44.0750   45.0250 C   0  0  0  0  0  2  0  0  0  0  0  0
  1 20  1  0  0  0  0
  2  7  1  0  0  0  0
  2  1  2  0  0  0  0
  3  4  2  0  0  0  0
  3  2  1  0  0  0  0
  4  5  1  0  0  0  0
  5  6  2  0  0  0  0
  6  1  1  0  0  0  0
  8  3  1  0  0  0  0
  9 10  1  0  0  0  0
 10 11  1  0  0  0  0
 11  5  1  0  0  0  0
 11 12  2  0  0  0  0
 12 16  1  0  0  0  0
 13 12  1  0  0  0  0
 13 17  1  0  0  0  0
 14 13  2  0  0  0  0
 15 10  2  0  0  0  0
 15 14  1  0  0  0  0
 18 14  1  0  0  0  0
 19 15  1  0  0  0  0
 21 20  2  0  0  0  0
 21 22  1  0  0  0  0
 22 23  1  0  0  0  0
 22 24  1  0  0  0  0
 25 22  1  0  0  0  0
 25 31  1  0  0  0  0
 26 25  1  0  0  0  0
 27 28  1  0  0  0  0
 28 29  1  0  0  0  0
 30 29  1  0  0  0  0
 31 30  1  0  0  0  0
 32 33  1  0  0  0  0
 32 31  1  0  0  0  0
 33 28  1  0  0  0  0
M  END
>  <minimizedAffinity>
-2.51380825

>  <minimizedRMSD>
0.306153208

$$$$
