
 OpenBabel03252506213D

 33 35  0  0  0  0  0  0  0  0999 V2000
   44.9380   34.9800   42.1550 C   0  0  0  0  0  0  0  0  0  0  0  0
   43.8660   34.9090   41.2600 C   0  0  0  0  0  0  0  0  0  0  0  0
   43.9770   34.0050   40.1830 C   0  0  0  0  0  0  0  0  0  0  0  0
   45.1030   33.2600   40.0710 N   0  0  0  0  0  0  0  0  0  0  0  0
   46.1190   33.3680   40.9710 C   0  0  0  0  0  0  0  0  0  0  0  0
   46.0250   34.2220   41.9980 N   0  0  0  0  0  0  0  0  0  0  0  0
   42.9990   35.5250   41.4000 H   0  0  0  0  0  0  0  0  0  0  0  0
   43.1640   33.9200   39.4640 H   0  0  0  0  0  0  0  0  0  0  0  0
   48.2490   34.5480   39.1750 Cl  0  0  0  0  0  0  0  0  0  0  0  0
   48.3150   33.0080   39.9450 C   0  0  0  0  0  0  0  0  0  0  0  0
   47.3090   32.5100   40.7630 C   0  0  0  0  0  0  0  0  0  0  0  0
   47.3430   31.2950   41.3800 C   0  0  0  0  0  0  0  0  0  0  0  0
   48.4470   30.5210   41.1750 C   0  0  0  0  0  0  0  0  0  0  0  0
   49.5170   30.8970   40.3860 C   0  0  0  0  0  0  0  0  0  0  0  0
   49.3980   32.1570   39.7920 C   0  0  0  0  0  0  0  0  0  0  0  0
   46.5550   30.9150   42.0140 H   0  0  0  0  0  0  0  0  0  0  0  0
   48.5290   29.5500   41.6390 H   0  0  0  0  0  0  0  0  0  0  0  0
   50.4010   30.2990   40.2100 H   0  0  0  0  0  0  0  0  0  0  0  0
   50.1990   32.5340   39.1510 H   0  0  0  0  0  0  0  0  0  0  0  0
   44.8260   35.9170   43.2720 C   0  0  0  0  0  3  0  0  0  0  0  0
   45.2470   37.1590   43.1090 C   0  0  0  0  0  3  0  0  0  0  0  0
   45.1260   38.1030   44.2630 C   0  0  0  0  0  0  0  0  0  0  0  0
   44.1270   38.0040   44.7370 H   0  0  0  0  0  0  0  0  0  0  0  0
   45.9040   37.9190   45.0230 H   0  0  0  0  0  0  0  0  0  0  0  0
   45.2030   39.4400   43.7080 N   0  0  0  0  0  0  0  0  0  0  0  0
   46.0490   39.4150   43.0640 H   0  0  0  0  0  0  0  0  0  0  0  0
   42.8300   41.3040   46.1050 H   0  0  0  0  0  0  0  0  0  0  0  0
   43.6610   41.7700   46.5360 N   0  0  0  0  0  0  0  0  0  0  0  0
   44.6150   40.8330   47.0590 C   0  0  0  0  0  2  0  0  0  0  0  0
   45.2060   39.9000   46.0570 C   0  0  0  0  0  2  0  0  0  0  0  0
   45.4220   40.4660   44.6900 C   0  0  0  0  0  3  0  0  0  0  0  0
   44.5430   41.6340   44.3460 C   0  0  0  0  0  2  0  0  0  0  0  0
   44.3380   42.5580   45.5230 C   0  0  0  0  0  2  0  0  0  0  0  0
  1 20  1  0  0  0  0
  2  7  1  0  0  0  0
  2  1  2  0  0  0  0
  3  2  1  0  0  0  0
  4  3  2  0  0  0  0
  4  5  1  0  0  0  0
  5  6  2  0  0  0  0
  6  1  1  0  0  0  0
  8  3  1  0  0  0  0
  9 10  1  0  0  0  0
 10 11  1  0  0  0  0
 11  5  1  0  0  0  0
 11 12  2  0  0  0  0
 12 16  1  0  0  0  0
 13 12  1  0  0  0  0
 13 17  1  0  0  0  0
 14 13  2  0  0  0  0
 15 10  2  0  0  0  0
 15 14  1  0  0  0  0
 18 14  1  0  0  0  0
 19 15  1  0  0  0  0
 21 20  2  0  0  0  0
 21 22  1  0  0  0  0
 22 23  1  0  0  0  0
 22 24  1  0  0  0  0
 25 22  1  0  0  0  0
 25 31  1  0  0  0  0
 26 25  1  0  0  0  0
 27 28  1  0  0  0  0
 28 29  1  0  0  0  0
 30 29  1  0  0  0  0
 31 30  1  0  0  0  0
 32 31  1  0  0  0  0
 32 33  1  0  0  0  0
 33 28  1  0  0  0  0
M  END
>  <minimizedAffinity>
-4.12148428

>  <minimizedRMSD>
1.72125483

$$$$
