
 OpenBabel03252506223D

 33 35  0  0  0  0  0  0  0  0999 V2000
   45.0990   36.0450   43.0590 C   0  0  0  0  0  0  0  0  0  0  0  0
   44.0790   35.9060   42.1140 C   0  0  0  0  0  0  0  0  0  0  0  0
   44.2400   34.9140   41.1250 C   0  0  0  0  0  0  0  0  0  0  0  0
   45.3630   34.1540   41.1400 N   0  0  0  0  0  0  0  0  0  0  0  0
   46.3280   34.3310   42.0850 C   0  0  0  0  0  0  0  0  0  0  0  0
   46.1850   35.2700   43.0290 N   0  0  0  0  0  0  0  0  0  0  0  0
   43.2130   36.5370   42.1520 H   0  0  0  0  0  0  0  0  0  0  0  0
   43.4690   34.7730   40.3700 H   0  0  0  0  0  0  0  0  0  0  0  0
   48.8550   35.6700   41.0980 Cl  0  0  0  0  0  0  0  0  0  0  0  0
   48.7030   34.0200   41.5700 C   0  0  0  0  0  0  0  0  0  0  0  0
   47.5180   33.4510   42.0170 C   0  0  0  0  0  0  0  0  0  0  0  0
   47.3780   32.1490   42.3940 C   0  0  0  0  0  0  0  0  0  0  0  0
   48.4850   31.3560   42.3250 C   0  0  0  0  0  0  0  0  0  0  0  0
   49.7230   31.7960   41.8990 C   0  0  0  0  0  0  0  0  0  0  0  0
   49.7760   33.1440   41.5310 C   0  0  0  0  0  0  0  0  0  0  0  0
   46.4510   31.7150   42.7410 H   0  0  0  0  0  0  0  0  0  0  0  0
   48.4330   30.3170   42.6120 H   0  0  0  0  0  0  0  0  0  0  0  0
   50.6130   31.1840   41.8350 H   0  0  0  0  0  0  0  0  0  0  0  0
   50.7170   33.5760   41.1810 H   0  0  0  0  0  0  0  0  0  0  0  0
   44.9350   37.0740   44.0860 C   0  0  0  0  0  3  0  0  0  0  0  0
   45.4610   38.2690   43.8830 C   0  0  0  0  0  3  0  0  0  0  0  0
   45.2840   39.3080   44.9440 C   0  0  0  0  0  0  0  0  0  0  0  0
   44.4950   38.9970   45.6580 H   0  0  0  0  0  0  0  0  0  0  0  0
   46.2210   39.4870   45.4990 H   0  0  0  0  0  0  0  0  0  0  0  0
   44.8060   40.5010   44.2730 N   0  0  0  0  0  0  0  0  0  0  0  0
   45.6820   40.9590   43.8810 H   0  0  0  0  0  0  0  0  0  0  0  0
   46.1820   43.1160   46.7470 H   0  0  0  0  0  0  0  0  0  0  0  0
   45.2060   43.4500   46.9080 N   0  0  0  0  0  0  0  0  0  0  0  0
   44.5580   43.8800   45.6980 C   0  0  0  0  0  2  0  0  0  0  0  0
   44.4090   42.8310   44.6500 C   0  0  0  0  0  2  0  0  0  0  0  0
   44.1650   41.4430   45.1480 C   0  0  0  0  0  3  0  0  0  0  0  0
   44.6460   41.1810   46.5470 C   0  0  0  0  0  2  0  0  0  0  0  0
   44.4170   42.3640   47.4580 C   0  0  0  0  0  2  0  0  0  0  0  0
  1 20  1  0  0  0  0
  2  7  1  0  0  0  0
  2  1  2  0  0  0  0
  3  4  2  0  0  0  0
  3  2  1  0  0  0  0
  4  5  1  0  0  0  0
  5  6  2  0  0  0  0
  6  1  1  0  0  0  0
  8  3  1  0  0  0  0
  9 10  1  0  0  0  0
 10 11  1  0  0  0  0
 11  5  1  0  0  0  0
 11 12  2  0  0  0  0
 12 16  1  0  0  0  0
 13 12  1  0  0  0  0
 13 17  1  0  0  0  0
 14 13  2  0  0  0  0
 15 10  2  0  0  0  0
 15 14  1  0  0  0  0
 18 14  1  0  0  0  0
 19 15  1  0  0  0  0
 21 20  2  0  0  0  0
 21 22  1  0  0  0  0
 22 24  1  0  0  0  0
 22 23  1  0  0  0  0
 25 22  1  0  0  0  0
 25 31  1  0  0  0  0
 26 25  1  0  0  0  0
 27 28  1  0  0  0  0
 28 33  1  0  0  0  0
 29 28  1  0  0  0  0
 30 31  1  0  0  0  0
 30 29  1  0  0  0  0
 31 32  1  0  0  0  0
 32 33  1  0  0  0  0
M  END
>  <minimizedAffinity>
-3.51840377

>  <minimizedRMSD>
0.665062368

$$$$
