
 OpenBabel03252506223D

 33 35  0  0  0  0  0  0  0  0999 V2000
   37.1090   30.6990   40.7310 C   0  0  0  0  0  0  0  0  0  0  0  0
   35.8350   30.2700   40.3510 C   0  0  0  0  0  0  0  0  0  0  0  0
   35.5000   28.9230   40.6020 C   0  0  0  0  0  0  0  0  0  0  0  0
   36.4200   28.1220   41.1920 N   0  0  0  0  0  0  0  0  0  0  0  0
   37.6500   28.5910   41.5430 C   0  0  0  0  0  0  0  0  0  0  0  0
   37.9780   29.8670   41.3090 N   0  0  0  0  0  0  0  0  0  0  0  0
   35.1480   30.9510   39.8860 H   0  0  0  0  0  0  0  0  0  0  0  0
   34.5170   28.5500   40.3210 H   0  0  0  0  0  0  0  0  0  0  0  0
   37.1540   28.0890   44.4850 Cl  0  0  0  0  0  0  0  0  0  0  0  0
   38.3990   27.3740   43.5330 C   0  0  0  0  0  0  0  0  0  0  0  0
   38.5860   27.6370   42.1830 C   0  0  0  0  0  0  0  0  0  0  0  0
   39.5650   27.0820   41.4140 C   0  0  0  0  0  0  0  0  0  0  0  0
   40.4160   26.2070   42.0220 C   0  0  0  0  0  0  0  0  0  0  0  0
   40.3400   25.8580   43.3570 C   0  0  0  0  0  0  0  0  0  0  0  0
   39.3070   26.4750   44.0700 C   0  0  0  0  0  0  0  0  0  0  0  0
   39.7030   27.2920   40.3630 H   0  0  0  0  0  0  0  0  0  0  0  0
   41.2090   25.7360   41.4620 H   0  0  0  0  0  0  0  0  0  0  0  0
   41.0040   25.1680   43.8580 H   0  0  0  0  0  0  0  0  0  0  0  0
   39.1750   26.2570   45.1330 H   0  0  0  0  0  0  0  0  0  0  0  0
   37.4600   32.0950   40.4710 C   0  0  0  0  0  3  0  0  0  0  0  0
   38.6110   32.5600   40.9230 C   0  0  0  0  0  3  0  0  0  0  0  0
   38.9520   33.9900   40.6480 C   0  0  0  0  0  0  0  0  0  0  0  0
   38.0500   34.6270   40.7550 H   0  0  0  0  0  0  0  0  0  0  0  0
   39.7360   34.3590   41.3310 H   0  0  0  0  0  0  0  0  0  0  0  0
   39.3580   34.0550   39.2580 N   0  0  0  0  0  0  0  0  0  0  0  0
   38.6980   33.3900   38.7540 H   0  0  0  0  0  0  0  0  0  0  0  0
   41.7020   34.3340   36.2110 H   0  0  0  0  0  0  0  0  0  0  0  0
   42.4670   33.9130   36.7850 N   0  0  0  0  0  0  0  0  0  0  0  0
   42.7480   34.6680   37.9770 C   0  0  0  0  0  2  0  0  0  0  0  0
   41.6120   34.7940   38.9320 C   0  0  0  0  0  2  0  0  0  0  0  0
   40.7030   33.6100   39.0230 C   0  0  0  0  0  3  0  0  0  0  0  0
   40.6960   32.7270   37.8070 C   0  0  0  0  0  2  0  0  0  0  0  0
   42.0710   32.5820   37.2010 C   0  0  0  0  0  2  0  0  0  0  0  0
  1  6  1  0  0  0  0
  2  3  1  0  0  0  0
  2  1  2  0  0  0  0
  3  4  2  0  0  0  0
  4  5  1  0  0  0  0
  5 11  1  0  0  0  0
  6  5  2  0  0  0  0
  7  2  1  0  0  0  0
  8  3  1  0  0  0  0
 10 15  1  0  0  0  0
 10  9  1  0  0  0  0
 11 10  2  0  0  0  0
 12 13  2  0  0  0  0
 12 11  1  0  0  0  0
 13 14  1  0  0  0  0
 14 18  1  0  0  0  0
 14 15  2  0  0  0  0
 15 19  1  0  0  0  0
 16 12  1  0  0  0  0
 17 13  1  0  0  0  0
 20  1  1  0  0  0  0
 20 21  2  0  0  0  0
 22 23  1  0  0  0  0
 22 21  1  0  0  0  0
 22 24  1  0  0  0  0
 25 22  1  0  0  0  0
 26 25  1  0  0  0  0
 27 28  1  0  0  0  0
 28 33  1  0  0  0  0
 28 29  1  0  0  0  0
 29 30  1  0  0  0  0
 30 31  1  0  0  0  0
 31 25  1  0  0  0  0
 32 31  1  0  0  0  0
 33 32  1  0  0  0  0
M  END
>  <minimizedAffinity>
-6.49620628

$$$$

 OpenBabel03252506223D

 33 35  0  0  0  0  0  0  0  0999 V2000
   37.0150   29.9190   40.0390 C   0  0  0  0  0  0  0  0  0  0  0  0
   36.5310   29.6880   38.7490 C   0  0  0  0  0  0  0  0  0  0  0  0
   36.8750   30.6210   37.7490 C   0  0  0  0  0  0  0  0  0  0  0  0
   37.6480   31.6830   38.0850 N   0  0  0  0  0  0  0  0  0  0  0  0
   38.0930   31.8620   39.3600 C   0  0  0  0  0  0  0  0  0  0  0  0
   37.7730   30.9820   40.3170 N   0  0  0  0  0  0  0  0  0  0  0  0
   35.9230   28.8290   38.5420 H   0  0  0  0  0  0  0  0  0  0  0  0
   36.5190   30.4770   36.7300 H   0  0  0  0  0  0  0  0  0  0  0  0
   41.0510   31.4880   38.8440 Cl  0  0  0  0  0  0  0  0  0  0  0  0
   40.2970   32.9310   39.4070 C   0  0  0  0  0  0  0  0  0  0  0  0
   38.9320   33.0530   39.6290 C   0  0  0  0  0  0  0  0  0  0  0  0
   38.3180   34.1850   40.0740 C   0  0  0  0  0  0  0  0  0  0  0  0
   39.1080   35.2700   40.3150 C   0  0  0  0  0  0  0  0  0  0  0  0
   40.4770   35.2830   40.1350 C   0  0  0  0  0  0  0  0  0  0  0  0
   41.0230   34.0800   39.6770 C   0  0  0  0  0  0  0  0  0  0  0  0
   37.2540   34.2720   40.2440 H   0  0  0  0  0  0  0  0  0  0  0  0
   38.6760   36.1950   40.6680 H   0  0  0  0  0  0  0  0  0  0  0  0
   41.1220   36.1320   40.3210 H   0  0  0  0  0  0  0  0  0  0  0  0
   42.1000   34.0010   39.5080 H   0  0  0  0  0  0  0  0  0  0  0  0
   36.6590   28.9540   41.0790 C   0  0  0  0  0  3  0  0  0  0  0  0
   37.2930   29.0000   42.2380 C   0  0  0  0  0  3  0  0  0  0  0  0
   36.9170   28.0040   43.2880 C   0  0  0  0  0  0  0  0  0  0  0  0
   36.3670   28.5040   44.1120 H   0  0  0  0  0  0  0  0  0  0  0  0
   36.2900   27.1950   42.8760 H   0  0  0  0  0  0  0  0  0  0  0  0
   38.1600   27.5070   43.8450 N   0  0  0  0  0  0  0  0  0  0  0  0
   38.7490   28.3780   44.0060 H   0  0  0  0  0  0  0  0  0  0  0  0
   39.3110   23.8430   44.1690 H   0  0  0  0  0  0  0  0  0  0  0  0
   39.6460   23.8810   43.1800 N   0  0  0  0  0  0  0  0  0  0  0  0
   38.6030   24.2250   42.2520 C   0  0  0  0  0  2  0  0  0  0  0  0
   37.9740   25.5580   42.4680 C   0  0  0  0  0  2  0  0  0  0  0  0
   38.8850   26.6350   42.9640 C   0  0  0  0  0  3  0  0  0  0  0  0
   40.1030   26.1430   43.6940 C   0  0  0  0  0  2  0  0  0  0  0  0
   40.6770   24.8950   43.0670 C   0  0  0  0  0  2  0  0  0  0  0  0
  1  6  1  0  0  0  0
  1 20  1  0  0  0  0
  2  1  2  0  0  0  0
  3  4  2  0  0  0  0
  3  2  1  0  0  0  0
  4  5  1  0  0  0  0
  5 11  1  0  0  0  0
  5  6  2  0  0  0  0
  7  2  1  0  0  0  0
  8  3  1  0  0  0  0
  9 10  1  0  0  0  0
 10 11  2  0  0  0  0
 10 15  1  0  0  0  0
 11 12  1  0  0  0  0
 12 16  1  0  0  0  0
 12 13  2  0  0  0  0
 13 17  1  0  0  0  0
 14 13  1  0  0  0  0
 14 18  1  0  0  0  0
 15 14  2  0  0  0  0
 19 15  1  0  0  0  0
 20 21  2  0  0  0  0
 21 22  1  0  0  0  0
 22 25  1  0  0  0  0
 22 23  1  0  0  0  0
 24 22  1  0  0  0  0
 25 26  1  0  0  0  0
 28 27  1  0  0  0  0
 29 30  1  0  0  0  0
 29 28  1  0  0  0  0
 30 31  1  0  0  0  0
 31 32  1  0  0  0  0
 31 25  1  0  0  0  0
 33 28  1  0  0  0  0
 33 32  1  0  0  0  0
M  END
>  <minimizedAffinity>
-5.91135263

$$$$

 OpenBabel03252506223D

 33 35  0  0  0  0  0  0  0  0999 V2000
   38.3190   30.9680   40.9890 C   0  0  0  0  0  0  0  0  0  0  0  0
   37.0450   31.1690   40.4510 C   0  0  0  0  0  0  0  0  0  0  0  0
   36.9390   32.0210   39.3330 C   0  0  0  0  0  0  0  0  0  0  0  0
   38.0640   32.5960   38.8410 N   0  0  0  0  0  0  0  0  0  0  0  0
   39.2830   32.3660   39.4040 C   0  0  0  0  0  0  0  0  0  0  0  0
   39.3960   31.5590   40.4660 N   0  0  0  0  0  0  0  0  0  0  0  0
   36.1900   30.6860   40.8830 H   0  0  0  0  0  0  0  0  0  0  0  0
   35.9640   32.2040   38.8840 H   0  0  0  0  0  0  0  0  0  0  0  0
   39.9760   35.0570   40.6010 Cl  0  0  0  0  0  0  0  0  0  0  0  0
   40.8110   34.2790   39.3100 C   0  0  0  0  0  0  0  0  0  0  0  0
   40.4530   33.0410   38.7950 C   0  0  0  0  0  0  0  0  0  0  0  0
   41.1000   32.4100   37.7740 C   0  0  0  0  0  0  0  0  0  0  0  0
   42.1740   33.0480   37.2280 C   0  0  0  0  0  0  0  0  0  0  0  0
   42.6350   34.2810   37.6470 C   0  0  0  0  0  0  0  0  0  0  0  0
   41.9120   34.8550   38.6970 C   0  0  0  0  0  0  0  0  0  0  0  0
   40.8140   31.4460   37.3790 H   0  0  0  0  0  0  0  0  0  0  0  0
   42.7260   32.5950   36.4170 H   0  0  0  0  0  0  0  0  0  0  0  0
   43.4840   34.8040   37.2270 H   0  0  0  0  0  0  0  0  0  0  0  0
   42.2070   35.8310   39.0910 H   0  0  0  0  0  0  0  0  0  0  0  0
   38.4330   30.0840   42.1490 C   0  0  0  0  0  3  0  0  0  0  0  0
   37.3840   29.3660   42.5110 C   0  0  0  0  0  3  0  0  0  0  0  0
   37.5180   28.4690   43.7000 C   0  0  0  0  0  0  0  0  0  0  0  0
   38.5890   28.3050   43.9380 H   0  0  0  0  0  0  0  0  0  0  0  0
   37.0130   28.8910   44.5860 H   0  0  0  0  0  0  0  0  0  0  0  0
   36.9660   27.1870   43.3100 N   0  0  0  0  0  0  0  0  0  0  0  0
   36.8400   26.6590   44.2250 H   0  0  0  0  0  0  0  0  0  0  0  0
   38.7130   23.7850   43.7860 H   0  0  0  0  0  0  0  0  0  0  0  0
   39.0440   23.8370   42.7960 N   0  0  0  0  0  0  0  0  0  0  0  0
   37.9630   23.9630   41.8550 C   0  0  0  0  0  2  0  0  0  0  0  0
   37.1180   25.1790   42.0160 C   0  0  0  0  0  2  0  0  0  0  0  0
   37.8320   26.4130   42.4650 C   0  0  0  0  0  3  0  0  0  0  0  0
   39.1100   26.1630   43.2150 C   0  0  0  0  0  2  0  0  0  0  0  0
   39.8900   25.0040   42.6400 C   0  0  0  0  0  2  0  0  0  0  0  0
  1 20  1  0  0  0  0
  2  7  1  0  0  0  0
  2  1  2  0  0  0  0
  3  2  1  0  0  0  0
  4  3  2  0  0  0  0
  4  5  1  0  0  0  0
  5  6  2  0  0  0  0
  6  1  1  0  0  0  0
  8  3  1  0  0  0  0
 10  9  1  0  0  0  0
 11 10  1  0  0  0  0
 11  5  1  0  0  0  0
 12 11  2  0  0  0  0
 13 14  2  0  0  0  0
 13 12  1  0  0  0  0
 14 15  1  0  0  0  0
 15 19  1  0  0  0  0
 15 10  2  0  0  0  0
 16 12  1  0  0  0  0
 17 13  1  0  0  0  0
 18 14  1  0  0  0  0
 20 21  2  0  0  0  0
 21 22  1  0  0  0  0
 22 23  1  0  0  0  0
 22 24  1  0  0  0  0
 25 22  1  0  0  0  0
 25 26  1  0  0  0  0
 28 27  1  0  0  0  0
 29 30  1  0  0  0  0
 29 28  1  0  0  0  0
 30 31  1  0  0  0  0
 31 32  1  0  0  0  0
 31 25  1  0  0  0  0
 33 28  1  0  0  0  0
 33 32  1  0  0  0  0
M  END
>  <minimizedAffinity>
-5.89641762

$$$$

 OpenBabel03252506223D

 33 35  0  0  0  0  0  0  0  0999 V2000
   37.6720   31.8820   39.8350 C   0  0  0  0  0  0  0  0  0  0  0  0
   36.9120   31.4160   38.7580 C   0  0  0  0  0  0  0  0  0  0  0  0
   36.5840   30.0440   38.7390 C   0  0  0  0  0  0  0  0  0  0  0  0
   37.0170   29.2560   39.7540 N   0  0  0  0  0  0  0  0  0  0  0  0
   37.7560   29.7620   40.7800 C   0  0  0  0  0  0  0  0  0  0  0  0
   38.0730   31.0620   40.8090 N   0  0  0  0  0  0  0  0  0  0  0  0
   36.5980   32.0870   37.9830 H   0  0  0  0  0  0  0  0  0  0  0  0
   35.9940   29.6420   37.9180 H   0  0  0  0  0  0  0  0  0  0  0  0
   40.4380   28.4410   40.3200 Cl  0  0  0  0  0  0  0  0  0  0  0  0
   39.4060   28.1890   41.6760 C   0  0  0  0  0  0  0  0  0  0  0  0
   38.1810   28.8210   41.8420 C   0  0  0  0  0  0  0  0  0  0  0  0
   37.3520   28.6330   42.9070 C   0  0  0  0  0  0  0  0  0  0  0  0
   37.7620   27.7630   43.8730 C   0  0  0  0  0  0  0  0  0  0  0  0
   38.9570   27.0700   43.8300 C   0  0  0  0  0  0  0  0  0  0  0  0
   39.7440   27.3220   42.7030 C   0  0  0  0  0  0  0  0  0  0  0  0
   36.3990   29.1290   43.0280 H   0  0  0  0  0  0  0  0  0  0  0  0
   37.1460   27.5760   44.7400 H   0  0  0  0  0  0  0  0  0  0  0  0
   39.3010   26.3750   44.5850 H   0  0  0  0  0  0  0  0  0  0  0  0
   40.7060   26.8160   42.5880 H   0  0  0  0  0  0  0  0  0  0  0  0
   38.0140   33.3040   39.8560 C   0  0  0  0  0  3  0  0  0  0  0  0
   38.8820   33.7390   40.7530 C   0  0  0  0  0  3  0  0  0  0  0  0
   39.2190   35.1960   40.7610 C   0  0  0  0  0  0  0  0  0  0  0  0
   39.0360   35.6380   39.7600 H   0  0  0  0  0  0  0  0  0  0  0  0
   38.6260   35.7460   41.5120 H   0  0  0  0  0  0  0  0  0  0  0  0
   40.6440   35.2850   41.0130 N   0  0  0  0  0  0  0  0  0  0  0  0
   40.9160   36.2560   40.6730 H   0  0  0  0  0  0  0  0  0  0  0  0
   44.0440   35.5130   39.2120 H   0  0  0  0  0  0  0  0  0  0  0  0
   43.9990   34.4840   39.0370 N   0  0  0  0  0  0  0  0  0  0  0  0
   43.8790   33.7180   40.2480 C   0  0  0  0  0  2  0  0  0  0  0  0
   42.6610   33.9970   41.0590 C   0  0  0  0  0  2  0  0  0  0  0  0
   41.4240   34.3240   40.2850 C   0  0  0  0  0  3  0  0  0  0  0  0
   41.6700   34.8710   38.9070 C   0  0  0  0  0  2  0  0  0  0  0  0
   42.8340   34.1920   38.2240 C   0  0  0  0  0  2  0  0  0  0  0  0
  1 20  1  0  0  0  0
  1  6  1  0  0  0  0
  2  1  2  0  0  0  0
  3  2  1  0  0  0  0
  3  4  2  0  0  0  0
  4  5  1  0  0  0  0
  5  6  2  0  0  0  0
  5 11  1  0  0  0  0
  7  2  1  0  0  0  0
  8  3  1  0  0  0  0
  9 10  1  0  0  0  0
 10 11  2  0  0  0  0
 10 15  1  0  0  0  0
 11 12  1  0  0  0  0
 12 16  1  0  0  0  0
 12 13  2  0  0  0  0
 13 17  1  0  0  0  0
 14 13  1  0  0  0  0
 14 18  1  0  0  0  0
 15 14  2  0  0  0  0
 19 15  1  0  0  0  0
 20 21  2  0  0  0  0
 21 22  1  0  0  0  0
 22 25  1  0  0  0  0
 22 24  1  0  0  0  0
 23 22  1  0  0  0  0
 26 25  1  0  0  0  0
 28 27  1  0  0  0  0
 28 29  1  0  0  0  0
 29 30  1  0  0  0  0
 31 25  1  0  0  0  0
 31 30  1  0  0  0  0
 32 31  1  0  0  0  0
 33 32  1  0  0  0  0
 33 28  1  0  0  0  0
M  END
>  <minimizedAffinity>
-5.85923862

$$$$

 OpenBabel03252506223D

 33 35  0  0  0  0  0  0  0  0999 V2000
   34.0320   28.0180   37.4730 C   0  0  0  0  0  0  0  0  0  0  0  0
   33.6780   26.8040   36.8760 C   0  0  0  0  0  0  0  0  0  0  0  0
   32.5500   26.8000   36.0300 C   0  0  0  0  0  0  0  0  0  0  0  0
   31.8720   27.9590   35.8420 N   0  0  0  0  0  0  0  0  0  0  0  0
   32.2590   29.1150   36.4480 C   0  0  0  0  0  0  0  0  0  0  0  0
   33.3290   29.1310   37.2530 N   0  0  0  0  0  0  0  0  0  0  0  0
   34.2530   25.9190   37.0630 H   0  0  0  0  0  0  0  0  0  0  0  0
   32.2410   25.8760   35.5460 H   0  0  0  0  0  0  0  0  0  0  0  0
   30.4870   30.0090   38.7320 Cl  0  0  0  0  0  0  0  0  0  0  0  0
   30.6240   30.7790   37.1970 C   0  0  0  0  0  0  0  0  0  0  0  0
   31.4540   30.3290   36.1790 C   0  0  0  0  0  0  0  0  0  0  0  0
   31.5750   30.9250   34.9590 C   0  0  0  0  0  0  0  0  0  0  0  0
   30.8250   32.0410   34.7320 C   0  0  0  0  0  0  0  0  0  0  0  0
   29.9620   32.5920   35.6580 C   0  0  0  0  0  0  0  0  0  0  0  0
   29.9000   31.9170   36.8810 C   0  0  0  0  0  0  0  0  0  0  0  0
   32.2240   30.5680   34.1720 H   0  0  0  0  0  0  0  0  0  0  0  0
   30.8820   32.5550   33.7840 H   0  0  0  0  0  0  0  0  0  0  0  0
   29.3580   33.4750   35.4980 H   0  0  0  0  0  0  0  0  0  0  0  0
   29.2410   32.2850   37.6720 H   0  0  0  0  0  0  0  0  0  0  0  0
   35.2020   28.0250   38.3510 C   0  0  0  0  0  3  0  0  0  0  0  0
   36.0140   26.9820   38.3420 C   0  0  0  0  0  3  0  0  0  0  0  0
   37.2050   27.0060   39.2460 C   0  0  0  0  0  0  0  0  0  0  0  0
   37.9140   26.2000   38.9680 H   0  0  0  0  0  0  0  0  0  0  0  0
   37.7280   27.9770   39.2040 H   0  0  0  0  0  0  0  0  0  0  0  0
   36.7150   26.7030   40.5760 N   0  0  0  0  0  0  0  0  0  0  0  0
   35.7780   27.2020   40.6380 H   0  0  0  0  0  0  0  0  0  0  0  0
   36.2880   29.5660   43.1210 H   0  0  0  0  0  0  0  0  0  0  0  0
   37.1770   29.2650   43.5800 N   0  0  0  0  0  0  0  0  0  0  0  0
   37.1370   27.8990   44.0260 C   0  0  0  0  0  2  0  0  0  0  0  0
   36.9270   26.8860   42.9540 C   0  0  0  0  0  2  0  0  0  0  0  0
   37.5540   27.1970   41.6320 C   0  0  0  0  0  3  0  0  0  0  0  0
   37.8030   28.6580   41.3830 C   0  0  0  0  0  2  0  0  0  0  0  0
   38.2650   29.3770   42.6280 C   0  0  0  0  0  2  0  0  0  0  0  0
  1 20  1  0  0  0  0
  2  7  1  0  0  0  0
  2  1  2  0  0  0  0
  3  2  1  0  0  0  0
  4  3  2  0  0  0  0
  4  5  1  0  0  0  0
  5  6  2  0  0  0  0
  6  1  1  0  0  0  0
  8  3  1  0  0  0  0
 10  9  1  0  0  0  0
 11  5  1  0  0  0  0
 11 10  2  0  0  0  0
 12 11  1  0  0  0  0
 13 12  2  0  0  0  0
 13 14  1  0  0  0  0
 14 15  2  0  0  0  0
 15 10  1  0  0  0  0
 15 19  1  0  0  0  0
 16 12  1  0  0  0  0
 17 13  1  0  0  0  0
 18 14  1  0  0  0  0
 21 20  2  0  0  0  0
 21 22  1  0  0  0  0
 22 25  1  0  0  0  0
 23 22  1  0  0  0  0
 24 22  1  0  0  0  0
 25 26  1  0  0  0  0
 25 31  1  0  0  0  0
 27 28  1  0  0  0  0
 28 29  1  0  0  0  0
 30 29  1  0  0  0  0
 31 30  1  0  0  0  0
 32 31  1  0  0  0  0
 32 33  1  0  0  0  0
 33 28  1  0  0  0  0
M  END
>  <minimizedAffinity>
-5.81174755

$$$$

 OpenBabel03252506223D

 33 35  0  0  0  0  0  0  0  0999 V2000
   38.4130   30.6710   40.5800 C   0  0  0  0  0  0  0  0  0  0  0  0
   37.2610   31.4560   40.6760 C   0  0  0  0  0  0  0  0  0  0  0  0
   36.0370   30.7910   40.8980 C   0  0  0  0  0  0  0  0  0  0  0  0
   36.0400   29.4390   41.0060 N   0  0  0  0  0  0  0  0  0  0  0  0
   37.1930   28.7210   40.9050 C   0  0  0  0  0  0  0  0  0  0  0  0
   38.3600   29.3420   40.6940 N   0  0  0  0  0  0  0  0  0  0  0  0
   37.3200   32.5230   40.5820 H   0  0  0  0  0  0  0  0  0  0  0  0
   35.1170   31.3650   40.9790 H   0  0  0  0  0  0  0  0  0  0  0  0
   37.3720   27.6740   43.7380 Cl  0  0  0  0  0  0  0  0  0  0  0  0
   37.1700   26.7200   42.3180 C   0  0  0  0  0  0  0  0  0  0  0  0
   37.0930   27.2490   41.0360 C   0  0  0  0  0  0  0  0  0  0  0  0
   36.9340   26.5100   39.9020 C   0  0  0  0  0  0  0  0  0  0  0  0
   36.8440   25.1570   40.0450 C   0  0  0  0  0  0  0  0  0  0  0  0
   36.9050   24.5040   41.2610 C   0  0  0  0  0  0  0  0  0  0  0  0
   37.0700   25.3380   42.3710 C   0  0  0  0  0  0  0  0  0  0  0  0
   36.8750   26.9300   38.9080 H   0  0  0  0  0  0  0  0  0  0  0  0
   36.7160   24.5220   39.1810 H   0  0  0  0  0  0  0  0  0  0  0  0
   36.8360   23.4330   41.3960 H   0  0  0  0  0  0  0  0  0  0  0  0
   37.1280   24.9050   43.3730 H   0  0  0  0  0  0  0  0  0  0  0  0
   39.6830   31.3580   40.3490 C   0  0  0  0  0  3  0  0  0  0  0  0
   39.6840   32.6730   40.2190 C   0  0  0  0  0  3  0  0  0  0  0  0
   40.9920   33.3590   39.9820 C   0  0  0  0  0  0  0  0  0  0  0  0
   41.7600   32.6230   39.6690 H   0  0  0  0  0  0  0  0  0  0  0  0
   40.9060   34.1420   39.2090 H   0  0  0  0  0  0  0  0  0  0  0  0
   41.4110   33.8940   41.2630 N   0  0  0  0  0  0  0  0  0  0  0  0
   41.0430   34.8920   41.2710 H   0  0  0  0  0  0  0  0  0  0  0  0
   43.6470   34.5400   44.3350 H   0  0  0  0  0  0  0  0  0  0  0  0
   44.4840   34.3280   43.7470 N   0  0  0  0  0  0  0  0  0  0  0  0
   44.4330   33.0160   43.1610 C   0  0  0  0  0  2  0  0  0  0  0  0
   43.2820   32.7710   42.2470 C   0  0  0  0  0  2  0  0  0  0  0  0
   42.8360   33.9440   41.4340 C   0  0  0  0  0  3  0  0  0  0  0  0
   43.1880   35.2840   42.0160 C   0  0  0  0  0  2  0  0  0  0  0  0
   44.5550   35.2840   42.6590 C   0  0  0  0  0  2  0  0  0  0  0  0
  1  2  2  0  0  0  0
  1  6  1  0  0  0  0
  2  3  1  0  0  0  0
  3  8  1  0  0  0  0
  3  4  2  0  0  0  0
  5  4  1  0  0  0  0
  5 11  1  0  0  0  0
  6  5  2  0  0  0  0
  7  2  1  0  0  0  0
 10 15  1  0  0  0  0
 10  9  1  0  0  0  0
 11 10  2  0  0  0  0
 12 13  2  0  0  0  0
 12 11  1  0  0  0  0
 13 14  1  0  0  0  0
 14 18  1  0  0  0  0
 14 15  2  0  0  0  0
 15 19  1  0  0  0  0
 16 12  1  0  0  0  0
 17 13  1  0  0  0  0
 20  1  1  0  0  0  0
 21 20  2  0  0  0  0
 22 21  1  0  0  0  0
 22 25  1  0  0  0  0
 23 22  1  0  0  0  0
 24 22  1  0  0  0  0
 25 26  1  0  0  0  0
 25 31  1  0  0  0  0
 28 27  1  0  0  0  0
 29 28  1  0  0  0  0
 30 29  1  0  0  0  0
 31 32  1  0  0  0  0
 31 30  1  0  0  0  0
 32 33  1  0  0  0  0
 33 28  1  0  0  0  0
M  END
>  <minimizedAffinity>
-5.80613613

$$$$

 OpenBabel03252506223D

 33 35  0  0  0  0  0  0  0  0999 V2000
   35.1770   28.9880   38.1790 C   0  0  0  0  0  0  0  0  0  0  0  0
   36.1750   29.4000   37.2920 C   0  0  0  0  0  0  0  0  0  0  0  0
   37.5000   29.4340   37.7730 C   0  0  0  0  0  0  0  0  0  0  0  0
   37.7370   29.0700   39.0570 N   0  0  0  0  0  0  0  0  0  0  0  0
   36.7270   28.6750   39.8810 C   0  0  0  0  0  0  0  0  0  0  0  0
   35.4650   28.6390   39.4350 N   0  0  0  0  0  0  0  0  0  0  0  0
   35.9270   29.6780   36.2860 H   0  0  0  0  0  0  0  0  0  0  0  0
   38.3060   29.7500   37.1140 H   0  0  0  0  0  0  0  0  0  0  0  0
   36.8510   25.6970   40.4020 Cl  0  0  0  0  0  0  0  0  0  0  0  0
   37.1560   26.9390   41.5560 C   0  0  0  0  0  0  0  0  0  0  0  0
   37.0860   28.2960   41.2680 C   0  0  0  0  0  0  0  0  0  0  0  0
   37.3240   29.2920   42.1670 C   0  0  0  0  0  0  0  0  0  0  0  0
   37.6530   28.9220   43.4370 C   0  0  0  0  0  0  0  0  0  0  0  0
   37.7580   27.6090   43.8550 C   0  0  0  0  0  0  0  0  0  0  0  0
   37.4970   26.6530   42.8690 C   0  0  0  0  0  0  0  0  0  0  0  0
   37.2670   30.3450   41.9330 H   0  0  0  0  0  0  0  0  0  0  0  0
   37.8530   29.6680   44.1910 H   0  0  0  0  0  0  0  0  0  0  0  0
   38.0170   27.2940   44.8570 H   0  0  0  0  0  0  0  0  0  0  0  0
   37.5570   25.5890   43.1130 H   0  0  0  0  0  0  0  0  0  0  0  0
   33.8020   28.9520   37.6830 C   0  0  0  0  0  3  0  0  0  0  0  0
   33.5940   28.8410   36.3820 C   0  0  0  0  0  3  0  0  0  0  0  0
   32.1810   28.8070   35.8930 C   0  0  0  0  0  0  0  0  0  0  0  0
   31.9400   29.7450   35.3530 H   0  0  0  0  0  0  0  0  0  0  0  0
   32.0050   27.9490   35.2210 H   0  0  0  0  0  0  0  0  0  0  0  0
   31.3400   28.7650   37.0720 N   0  0  0  0  0  0  0  0  0  0  0  0
   30.9370   27.7810   37.0800 H   0  0  0  0  0  0  0  0  0  0  0  0
   30.6790   32.0800   38.9230 H   0  0  0  0  0  0  0  0  0  0  0  0
   29.8150   32.2060   38.3500 N   0  0  0  0  0  0  0  0  0  0  0  0
   30.0830   32.2150   36.9370 C   0  0  0  0  0  2  0  0  0  0  0  0
   30.6920   30.9680   36.3970 C   0  0  0  0  0  2  0  0  0  0  0  0
   30.2450   29.6940   37.0400 C   0  0  0  0  0  3  0  0  0  0  0  0
   29.7220   29.8460   38.4400 C   0  0  0  0  0  2  0  0  0  0  0  0
   28.9070   31.1060   38.6100 C   0  0  0  0  0  2  0  0  0  0  0  0
  1  6  1  0  0  0  0
  2  3  1  0  0  0  0
  2  1  2  0  0  0  0
  3  4  2  0  0  0  0
  4  5  1  0  0  0  0
  5 11  1  0  0  0  0
  6  5  2  0  0  0  0
  7  2  1  0  0  0  0
  8  3  1  0  0  0  0
  9 10  1  0  0  0  0
 10 15  1  0  0  0  0
 11 10  2  0  0  0  0
 11 12  1  0  0  0  0
 12 13  2  0  0  0  0
 13 14  1  0  0  0  0
 13 17  1  0  0  0  0
 14 18  1  0  0  0  0
 15 19  1  0  0  0  0
 15 14  2  0  0  0  0
 16 12  1  0  0  0  0
 20  1  1  0  0  0  0
 21 20  2  0  0  0  0
 22 21  1  0  0  0  0
 22 25  1  0  0  0  0
 23 22  1  0  0  0  0
 24 22  1  0  0  0  0
 25 26  1  0  0  0  0
 28 33  1  0  0  0  0
 28 27  1  0  0  0  0
 29 28  1  0  0  0  0
 30 29  1  0  0  0  0
 30 31  1  0  0  0  0
 31 25  1  0  0  0  0
 31 32  1  0  0  0  0
 32 33  1  0  0  0  0
M  END
>  <minimizedAffinity>
-5.79823351

$$$$

 OpenBabel03252506223D

 33 35  0  0  0  0  0  0  0  0999 V2000
   34.0370   28.3030   37.7010 C   0  0  0  0  0  0  0  0  0  0  0  0
   33.8860   27.0300   37.1440 C   0  0  0  0  0  0  0  0  0  0  0  0
   32.9330   26.8790   36.1160 C   0  0  0  0  0  0  0  0  0  0  0  0
   32.2190   27.9620   35.7240 N   0  0  0  0  0  0  0  0  0  0  0  0
   32.4050   29.1820   36.3010 C   0  0  0  0  0  0  0  0  0  0  0  0
   33.3070   29.3370   37.2780 N   0  0  0  0  0  0  0  0  0  0  0  0
   34.4810   26.2090   37.4950 H   0  0  0  0  0  0  0  0  0  0  0  0
   32.7850   25.9040   35.6550 H   0  0  0  0  0  0  0  0  0  0  0  0
   30.4550   30.3220   38.3140 Cl  0  0  0  0  0  0  0  0  0  0  0  0
   30.6650   30.8620   36.6920 C   0  0  0  0  0  0  0  0  0  0  0  0
   31.5750   30.3050   35.8040 C   0  0  0  0  0  0  0  0  0  0  0  0
   31.7550   30.7180   34.5180 C   0  0  0  0  0  0  0  0  0  0  0  0
   30.9820   31.7520   34.0800 C   0  0  0  0  0  0  0  0  0  0  0  0
   30.0400   32.3950   34.8600 C   0  0  0  0  0  0  0  0  0  0  0  0
   29.9220   31.9070   36.1650 C   0  0  0  0  0  0  0  0  0  0  0  0
   32.4660   30.2780   33.8340 H   0  0  0  0  0  0  0  0  0  0  0  0
   31.0820   32.1220   33.0710 H   0  0  0  0  0  0  0  0  0  0  0  0
   29.4170   33.2160   34.5330 H   0  0  0  0  0  0  0  0  0  0  0  0
   29.1990   32.3570   36.8500 H   0  0  0  0  0  0  0  0  0  0  0  0
   35.0250   28.4630   38.7680 C   0  0  0  0  0  3  0  0  0  0  0  0
   34.7310   29.2330   39.8010 C   0  0  0  0  0  3  0  0  0  0  0  0
   35.7530   29.3850   40.8820 C   0  0  0  0  0  0  0  0  0  0  0  0
   35.4230   28.8570   41.8000 H   0  0  0  0  0  0  0  0  0  0  0  0
   36.7350   28.9880   40.5720 H   0  0  0  0  0  0  0  0  0  0  0  0
   35.8070   30.7990   41.1990 N   0  0  0  0  0  0  0  0  0  0  0  0
   35.0540   31.2390   40.5910 H   0  0  0  0  0  0  0  0  0  0  0  0
   38.5760   29.9200   38.6670 H   0  0  0  0  0  0  0  0  0  0  0  0
   39.0630   30.8090   38.9190 N   0  0  0  0  0  0  0  0  0  0  0  0
   38.2430   31.9710   38.7090 C   0  0  0  0  0  2  0  0  0  0  0  0
   36.9840   32.0130   39.5050 C   0  0  0  0  0  2  0  0  0  0  0  0
   37.0610   31.4210   40.8760 C   0  0  0  0  0  3  0  0  0  0  0  0
   38.1470   30.3990   41.0600 C   0  0  0  0  0  2  0  0  0  0  0  0
   39.4130   30.7760   40.3270 C   0  0  0  0  0  2  0  0  0  0  0  0
  1 20  1  0  0  0  0
  2  7  1  0  0  0  0
  2  1  2  0  0  0  0
  3  2  1  0  0  0  0
  4  3  2  0  0  0  0
  4  5  1  0  0  0  0
  5  6  2  0  0  0  0
  6  1  1  0  0  0  0
  8  3  1  0  0  0  0
 10  9  1  0  0  0  0
 11  5  1  0  0  0  0
 11 10  2  0  0  0  0
 12 11  1  0  0  0  0
 13 12  2  0  0  0  0
 13 14  1  0  0  0  0
 14 15  2  0  0  0  0
 15 10  1  0  0  0  0
 15 19  1  0  0  0  0
 16 12  1  0  0  0  0
 17 13  1  0  0  0  0
 18 14  1  0  0  0  0
 20 21  2  0  0  0  0
 21 22  1  0  0  0  0
 22 25  1  0  0  0  0
 22 23  1  0  0  0  0
 24 22  1  0  0  0  0
 26 25  1  0  0  0  0
 27 28  1  0  0  0  0
 28 33  1  0  0  0  0
 29 28  1  0  0  0  0
 29 30  1  0  0  0  0
 30 31  1  0  0  0  0
 31 32  1  0  0  0  0
 31 25  1  0  0  0  0
 33 32  1  0  0  0  0
M  END
>  <minimizedAffinity>
-5.78374863

$$$$

 OpenBabel03252506223D

 33 35  0  0  0  0  0  0  0  0999 V2000
   38.4230   30.4030   40.0960 C   0  0  0  0  0  0  0  0  0  0  0  0
   37.3770   31.2660   40.4330 C   0  0  0  0  0  0  0  0  0  0  0  0
   36.1920   30.6890   40.9340 C   0  0  0  0  0  0  0  0  0  0  0  0
   36.1280   29.3410   41.0640 N   0  0  0  0  0  0  0  0  0  0  0  0
   37.1780   28.5440   40.7210 C   0  0  0  0  0  0  0  0  0  0  0  0
   38.3070   29.0810   40.2440 N   0  0  0  0  0  0  0  0  0  0  0  0
   37.4850   32.3260   40.3080 H   0  0  0  0  0  0  0  0  0  0  0  0
   35.3540   31.3270   41.2080 H   0  0  0  0  0  0  0  0  0  0  0  0
   37.6770   27.5300   43.5280 Cl  0  0  0  0  0  0  0  0  0  0  0  0
   37.2290   26.5690   42.1700 C   0  0  0  0  0  0  0  0  0  0  0  0
   37.0110   27.0820   40.8990 C   0  0  0  0  0  0  0  0  0  0  0  0
   36.6570   26.3380   39.8130 C   0  0  0  0  0  0  0  0  0  0  0  0
   36.5080   24.9950   39.9980 C   0  0  0  0  0  0  0  0  0  0  0  0
   36.6950   24.3580   41.2100 C   0  0  0  0  0  0  0  0  0  0  0  0
   37.0570   25.1970   42.2680 C   0  0  0  0  0  0  0  0  0  0  0  0
   36.4890   26.7460   38.8270 H   0  0  0  0  0  0  0  0  0  0  0  0
   36.2280   24.3560   39.1740 H   0  0  0  0  0  0  0  0  0  0  0  0
   36.5830   23.2950   41.3770 H   0  0  0  0  0  0  0  0  0  0  0  0
   37.2250   24.7760   43.2620 H   0  0  0  0  0  0  0  0  0  0  0  0
   39.6520   30.9990   39.5750 C   0  0  0  0  0  3  0  0  0  0  0  0
   39.7920   31.1370   38.2680 C   0  0  0  0  0  3  0  0  0  0  0  0
   41.0560   31.7490   37.7540 C   0  0  0  0  0  0  0  0  0  0  0  0
   41.8670   31.6410   38.5030 H   0  0  0  0  0  0  0  0  0  0  0  0
   41.3760   31.2830   36.8060 H   0  0  0  0  0  0  0  0  0  0  0  0
   40.7960   33.1670   37.6090 N   0  0  0  0  0  0  0  0  0  0  0  0
   41.0630   33.3880   36.6040 H   0  0  0  0  0  0  0  0  0  0  0  0
   41.3000   33.2190   41.4300 H   0  0  0  0  0  0  0  0  0  0  0  0
   42.0300   33.9560   41.3050 N   0  0  0  0  0  0  0  0  0  0  0  0
   43.1030   33.5350   40.4460 C   0  0  0  0  0  2  0  0  0  0  0  0
   42.7050   33.1860   39.0530 C   0  0  0  0  0  2  0  0  0  0  0  0
   41.5900   33.9960   38.4730 C   0  0  0  0  0  3  0  0  0  0  0  0
   40.6740   34.6230   39.4860 C   0  0  0  0  0  2  0  0  0  0  0  0
   41.4240   35.1250   40.6970 C   0  0  0  0  0  2  0  0  0  0  0  0
  1  6  2  0  0  0  0
  1  2  1  0  0  0  0
  2  3  2  0  0  0  0
  3  4  1  0  0  0  0
  3  8  1  0  0  0  0
  5 11  1  0  0  0  0
  5  4  2  0  0  0  0
  6  5  1  0  0  0  0
  7  2  1  0  0  0  0
 10 15  1  0  0  0  0
 10  9  1  0  0  0  0
 11 10  2  0  0  0  0
 12 13  2  0  0  0  0
 12 11  1  0  0  0  0
 13 14  1  0  0  0  0
 14 18  1  0  0  0  0
 14 15  2  0  0  0  0
 15 19  1  0  0  0  0
 16 12  1  0  0  0  0
 17 13  1  0  0  0  0
 20  1  1  0  0  0  0
 21 20  2  0  0  0  0
 22 21  1  0  0  0  0
 22 23  1  0  0  0  0
 24 22  1  0  0  0  0
 25 22  1  0  0  0  0
 25 31  1  0  0  0  0
 26 25  1  0  0  0  0
 28 27  1  0  0  0  0
 29 28  1  0  0  0  0
 30 29  1  0  0  0  0
 31 30  1  0  0  0  0
 31 32  1  0  0  0  0
 32 33  1  0  0  0  0
 33 28  1  0  0  0  0
M  END
>  <minimizedAffinity>
-5.72724104

$$$$
