
 OpenBabel03252506223D

 33 35  0  0  0  0  0  0  0  0999 V2000
   45.1090   36.1040   43.1430 C   0  0  0  0  0  0  0  0  0  0  0  0
   44.1070   35.9760   42.1780 C   0  0  0  0  0  0  0  0  0  0  0  0
   44.2840   34.9920   41.1830 C   0  0  0  0  0  0  0  0  0  0  0  0
   45.4050   34.2290   41.2130 N   0  0  0  0  0  0  0  0  0  0  0  0
   46.3520   34.3960   42.1770 C   0  0  0  0  0  0  0  0  0  0  0  0
   46.1940   35.3260   43.1270 N   0  0  0  0  0  0  0  0  0  0  0  0
   43.2410   36.6080   42.2050 H   0  0  0  0  0  0  0  0  0  0  0  0
   43.5270   34.8600   40.4130 H   0  0  0  0  0  0  0  0  0  0  0  0
   48.8610   35.6930   41.0930 Cl  0  0  0  0  0  0  0  0  0  0  0  0
   48.7180   34.0630   41.6340 C   0  0  0  0  0  0  0  0  0  0  0  0
   47.5410   33.5130   42.1250 C   0  0  0  0  0  0  0  0  0  0  0  0
   47.4080   32.2270   42.5560 C   0  0  0  0  0  0  0  0  0  0  0  0
   48.5140   31.4320   42.4990 C   0  0  0  0  0  0  0  0  0  0  0  0
   49.7450   31.8540   42.0340 C   0  0  0  0  0  0  0  0  0  0  0  0
   49.7900   33.1860   41.6110 C   0  0  0  0  0  0  0  0  0  0  0  0
   46.4880   31.8080   42.9370 H   0  0  0  0  0  0  0  0  0  0  0  0
   48.4690   30.4050   42.8290 H   0  0  0  0  0  0  0  0  0  0  0  0
   50.6340   31.2400   41.9800 H   0  0  0  0  0  0  0  0  0  0  0  0
   50.7250   33.6030   41.2270 H   0  0  0  0  0  0  0  0  0  0  0  0
   44.9280   37.1240   44.1760 C   0  0  0  0  0  3  0  0  0  0  0  0
   45.4310   38.3300   43.9790 C   0  0  0  0  0  3  0  0  0  0  0  0
   45.2360   39.3600   45.0460 C   0  0  0  0  0  0  0  0  0  0  0  0
   44.4520   39.0310   45.7580 H   0  0  0  0  0  0  0  0  0  0  0  0
   46.1700   39.5510   45.6020 H   0  0  0  0  0  0  0  0  0  0  0  0
   44.7380   40.5480   44.3820 N   0  0  0  0  0  0  0  0  0  0  0  0
   45.5230   40.8390   43.7260 H   0  0  0  0  0  0  0  0  0  0  0  0
   42.6650   43.7750   43.9980 H   0  0  0  0  0  0  0  0  0  0  0  0
   42.8460   43.9890   45.0050 N   0  0  0  0  0  0  0  0  0  0  0  0
   42.3930   42.9470   45.8860 C   0  0  0  0  0  2  0  0  0  0  0  0
   43.0340   41.6170   45.6800 C   0  0  0  0  0  2  0  0  0  0  0  0
   44.4730   41.6440   45.2720 C   0  0  0  0  0  3  0  0  0  0  0  0
   44.9110   42.9110   44.5930 C   0  0  0  0  0  2  0  0  0  0  0  0
   44.2750   44.1350   45.2090 C   0  0  0  0  0  2  0  0  0  0  0  0
  1 20  1  0  0  0  0
  2  7  1  0  0  0  0
  2  1  2  0  0  0  0
  3  4  2  0  0  0  0
  3  2  1  0  0  0  0
  4  5  1  0  0  0  0
  5  6  2  0  0  0  0
  6  1  1  0  0  0  0
  8  3  1  0  0  0  0
  9 10  1  0  0  0  0
 10 11  1  0  0  0  0
 11  5  1  0  0  0  0
 11 12  2  0  0  0  0
 12 16  1  0  0  0  0
 13 12  1  0  0  0  0
 13 17  1  0  0  0  0
 14 13  2  0  0  0  0
 15 10  2  0  0  0  0
 15 14  1  0  0  0  0
 18 14  1  0  0  0  0
 19 15  1  0  0  0  0
 21 20  2  0  0  0  0
 21 22  1  0  0  0  0
 22 24  1  0  0  0  0
 22 23  1  0  0  0  0
 25 22  1  0  0  0  0
 25 31  1  0  0  0  0
 26 25  1  0  0  0  0
 27 28  1  0  0  0  0
 28 33  1  0  0  0  0
 28 29  1  0  0  0  0
 30 29  1  0  0  0  0
 31 30  1  0  0  0  0
 32 33  1  0  0  0  0
 32 31  1  0  0  0  0
M  END
>  <minimizedAffinity>
-2.57399774

>  <minimizedRMSD>
0.206591144

$$$$
