
 OpenBabel03252506223D

 33 35  0  0  0  0  0  0  0  0999 V2000
   44.8160   34.9970   42.0860 C   0  0  0  0  0  0  0  0  0  0  0  0
   43.7630   34.9240   41.1700 C   0  0  0  0  0  0  0  0  0  0  0  0
   43.8950   34.0170   40.0980 C   0  0  0  0  0  0  0  0  0  0  0  0
   45.0230   33.2700   40.0110 N   0  0  0  0  0  0  0  0  0  0  0  0
   46.0210   33.3800   40.9310 C   0  0  0  0  0  0  0  0  0  0  0  0
   45.9060   34.2380   41.9530 N   0  0  0  0  0  0  0  0  0  0  0  0
   42.8940   35.5410   41.2910 H   0  0  0  0  0  0  0  0  0  0  0  0
   43.0970   33.9300   39.3640 H   0  0  0  0  0  0  0  0  0  0  0  0
   48.2480   34.6130   39.2960 Cl  0  0  0  0  0  0  0  0  0  0  0  0
   48.2640   33.0430   40.0050 C   0  0  0  0  0  0  0  0  0  0  0  0
   47.2140   32.5210   40.7490 C   0  0  0  0  0  0  0  0  0  0  0  0
   47.2080   31.2820   41.3170 C   0  0  0  0  0  0  0  0  0  0  0  0
   48.3160   30.5080   41.1380 C   0  0  0  0  0  0  0  0  0  0  0  0
   49.4280   30.9060   40.4210 C   0  0  0  0  0  0  0  0  0  0  0  0
   49.3480   32.1900   39.8730 C   0  0  0  0  0  0  0  0  0  0  0  0
   46.3860   30.8840   41.8950 H   0  0  0  0  0  0  0  0  0  0  0  0
   48.3680   29.5180   41.5660 H   0  0  0  0  0  0  0  0  0  0  0  0
   50.3150   30.3070   40.2660 H   0  0  0  0  0  0  0  0  0  0  0  0
   50.1830   32.5850   39.2890 H   0  0  0  0  0  0  0  0  0  0  0  0
   44.6830   35.9370   43.1980 C   0  0  0  0  0  3  0  0  0  0  0  0
   45.2670   37.1190   43.1090 C   0  0  0  0  0  3  0  0  0  0  0  0
   45.1200   38.0670   44.2570 C   0  0  0  0  0  0  0  0  0  0  0  0
   44.1120   37.9690   44.7100 H   0  0  0  0  0  0  0  0  0  0  0  0
   45.8830   37.8870   45.0330 H   0  0  0  0  0  0  0  0  0  0  0  0
   45.2070   39.4030   43.6990 N   0  0  0  0  0  0  0  0  0  0  0  0
   46.0540   39.3700   43.0560 H   0  0  0  0  0  0  0  0  0  0  0  0
   42.8440   41.2710   46.1020 H   0  0  0  0  0  0  0  0  0  0  0  0
   43.6760   41.7380   46.5280 N   0  0  0  0  0  0  0  0  0  0  0  0
   44.6340   40.8010   47.0500 C   0  0  0  0  0  2  0  0  0  0  0  0
   45.2200   39.8670   46.0470 C   0  0  0  0  0  2  0  0  0  0  0  0
   45.4310   40.4290   44.6780 C   0  0  0  0  0  3  0  0  0  0  0  0
   44.5500   41.5990   44.3340 C   0  0  0  0  0  2  0  0  0  0  0  0
   44.3500   42.5230   45.5120 C   0  0  0  0  0  2  0  0  0  0  0  0
  1 20  1  0  0  0  0
  2  7  1  0  0  0  0
  2  1  2  0  0  0  0
  3  2  1  0  0  0  0
  4  3  2  0  0  0  0
  4  5  1  0  0  0  0
  5  6  2  0  0  0  0
  6  1  1  0  0  0  0
  8  3  1  0  0  0  0
  9 10  1  0  0  0  0
 10 11  1  0  0  0  0
 11  5  1  0  0  0  0
 11 12  2  0  0  0  0
 12 16  1  0  0  0  0
 13 12  1  0  0  0  0
 13 17  1  0  0  0  0
 14 13  2  0  0  0  0
 15 10  2  0  0  0  0
 15 14  1  0  0  0  0
 18 14  1  0  0  0  0
 19 15  1  0  0  0  0
 21 20  2  0  0  0  0
 21 22  1  0  0  0  0
 22 23  1  0  0  0  0
 22 24  1  0  0  0  0
 25 22  1  0  0  0  0
 25 31  1  0  0  0  0
 26 25  1  0  0  0  0
 27 28  1  0  0  0  0
 28 29  1  0  0  0  0
 30 29  1  0  0  0  0
 31 30  1  0  0  0  0
 32 31  1  0  0  0  0
 32 33  1  0  0  0  0
 33 28  1  0  0  0  0
M  END
>  <minimizedAffinity>
-4.12557268

>  <minimizedRMSD>
1.64481544

$$$$
