
 OpenBabel03242519033D

 30 32  0  0  1  0  0  0  0  0999 V2000
   48.8450   31.2000   43.2210 N   0  0  0  0  0  0  0  0  0  0  0  0
   50.1760   31.3430   42.6980 C   0  0  0  0  0  0  0  0  0  0  0  0
   50.3790   29.9140   42.2210 C   0  0  2  0  0  0  0  0  0  0  0  0
   49.9940   29.1420   43.4440 C   0  0  0  0  0  0  0  0  0  0  0  0
   48.8360   29.9600   43.9930 C   0  0  0  0  0  0  0  0  0  0  0  0
   50.2290   32.0420   41.8390 H   0  0  0  0  0  0  0  0  0  0  0  0
   50.9280   31.5400   43.4590 H   0  0  0  0  0  0  0  0  0  0  0  0
   49.7270   29.6390   41.4020 H   0  0  0  0  0  0  0  0  0  0  0  0
   49.5750   28.1550   43.1380 H   0  0  0  0  0  0  0  0  0  0  0  0
   50.8180   29.0390   44.1760 H   0  0  0  0  0  0  0  0  0  0  0  0
   49.0820   30.2010   45.0560 H   0  0  0  0  0  0  0  0  0  0  0  0
   47.8730   29.4500   43.8740 H   0  0  0  0  0  0  0  0  0  0  0  0
   46.2620   33.5680   41.9530 C   0  0  0  0  0  0  0  0  0  0  0  0
   47.4160   32.7950   41.9780 C   0  0  0  0  0  0  0  0  0  0  0  0
   47.7190   32.0140   43.0830 C   0  0  0  0  0  0  0  0  0  0  0  0
   46.8180   32.0530   44.1340 N   0  0  0  0  0  0  0  0  0  0  0  0
   45.6970   32.8070   44.1040 C   0  0  0  0  0  0  0  0  0  0  0  0
   45.4220   33.5640   43.0110 N   0  0  0  0  0  0  0  0  0  0  0  0
   46.0250   34.1780   41.0920 H   0  0  0  0  0  0  0  0  0  0  0  0
   48.1120   32.7670   41.1620 H   0  0  0  0  0  0  0  0  0  0  0  0
   45.0420   32.7810   44.9720 H   0  0  0  0  0  0  0  0  0  0  0  0
   51.7830   29.6900   41.9690 N   0  0  0  0  0  0  0  0  0  0  0  0
   52.2590   29.1390   42.6760 H   0  0  0  0  0  0  0  0  0  0  0  0
   53.2500   32.3490   38.7610 H   0  0  0  0  0  0  0  0  0  0  0  0
   52.8230   31.4070   38.5560 N   0  0  0  0  0  0  0  0  0  0  0  0
   51.5740   31.3720   39.2510 C   0  0  0  0  0  2  0  0  0  0  0  0
   51.2290   29.9350   39.5940 C   0  0  0  0  0  2  0  0  0  0  0  0
   52.1260   29.3610   40.6350 C   0  0  0  0  0  3  0  0  0  0  0  0
   53.5170   29.9410   40.3910 C   0  0  0  0  0  2  0  0  0  0  0  0
   53.6970   30.3250   38.9390 C   0  0  0  0  0  2  0  0  0  0  0  0
  1  5  1  0  0  0  0
  2  1  1  0  0  0  0
  2  7  1  0  0  0  0
  3  8  1  6  0  0  0
  3  2  1  0  0  0  0
  3  4  1  0  0  0  0
  4  5  1  0  0  0  0
  4 10  1  0  0  0  0
  5 11  1  0  0  0  0
  6  2  1  0  0  0  0
  9  4  1  0  0  0  0
 12  5  1  0  0  0  0
 13 14  2  0  0  0  0
 13 18  1  0  0  0  0
 14 15  1  0  0  0  0
 15  1  1  0  0  0  0
 15 16  2  0  0  0  0
 17 16  1  0  0  0  0
 17 21  1  0  0  0  0
 18 17  2  0  0  0  0
 19 13  1  0  0  0  0
 20 14  1  0  0  0  0
 22  3  1  0  0  0  0
 22 23  1  0  0  0  0
 25 24  1  0  0  0  0
 25 30  1  0  0  0  0
 25 26  1  0  0  0  0
 26 27  1  0  0  0  0
 27 28  1  0  0  0  0
 28 22  1  0  0  0  0
 29 28  1  0  0  0  0
 30 29  1  0  0  0  0
M  END
>  <minimizedAffinity>
-2.2694459

>  <minimizedRMSD>
5.29057503

$$$$
