
 OpenBabel03242519043D

 30 32  0  0  1  0  0  0  0  0999 V2000
   47.4150   34.3520   42.2790 N   0  0  0  0  0  0  0  0  0  0  0  0
   47.9730   35.1260   41.2040 C   0  0  0  0  0  0  0  0  0  0  0  0
   47.8830   34.0760   40.1080 C   0  0  2  0  0  0  0  0  0  0  0  0
   48.5300   32.9020   40.7760 C   0  0  0  0  0  0  0  0  0  0  0  0
   48.0430   33.0360   42.2090 C   0  0  0  0  0  0  0  0  0  0  0  0
   47.3540   36.0060   40.9390 H   0  0  0  0  0  0  0  0  0  0  0  0
   49.0260   35.3650   41.3360 H   0  0  0  0  0  0  0  0  0  0  0  0
   46.8640   33.8210   39.8420 H   0  0  0  0  0  0  0  0  0  0  0  0
   48.0900   31.9620   40.3710 H   0  0  0  0  0  0  0  0  0  0  0  0
   49.6350   32.9120   40.7060 H   0  0  0  0  0  0  0  0  0  0  0  0
   48.9490   33.0390   42.8630 H   0  0  0  0  0  0  0  0  0  0  0  0
   47.3160   32.2580   42.4750 H   0  0  0  0  0  0  0  0  0  0  0  0
   44.6800   35.9950   44.2040 C   0  0  0  0  0  0  0  0  0  0  0  0
   45.5850   35.7580   43.1770 C   0  0  0  0  0  0  0  0  0  0  0  0
   46.4650   34.6880   43.2460 C   0  0  0  0  0  0  0  0  0  0  0  0
   46.3860   33.8920   44.3760 N   0  0  0  0  0  0  0  0  0  0  0  0
   45.5030   34.1290   45.3710 C   0  0  0  0  0  0  0  0  0  0  0  0
   44.6520   35.1820   45.2820 N   0  0  0  0  0  0  0  0  0  0  0  0
   43.9930   36.8280   44.1530 H   0  0  0  0  0  0  0  0  0  0  0  0
   45.6440   36.3760   42.3030 H   0  0  0  0  0  0  0  0  0  0  0  0
   45.5060   33.4550   46.2260 H   0  0  0  0  0  0  0  0  0  0  0  0
   48.7100   34.4750   38.9940 N   0  0  0  0  0  0  0  0  0  0  0  0
   49.6830   34.2000   39.0680 H   0  0  0  0  0  0  0  0  0  0  0  0
   47.0910   30.7890   37.1770 H   0  0  0  0  0  0  0  0  0  0  0  0
   47.3790   31.6200   36.5960 N   0  0  0  0  0  0  0  0  0  0  0  0
   48.7030   31.9610   37.0100 C   0  0  0  0  0  2  0  0  0  0  0  0
   48.9360   33.4430   36.7840 C   0  0  0  0  0  2  0  0  0  0  0  0
   48.1430   34.2980   37.7090 C   0  0  0  0  0  3  0  0  0  0  0  0
   46.8030   33.5980   37.9200 C   0  0  0  0  0  2  0  0  0  0  0  0
   46.4570   32.7210   36.7370 C   0  0  0  0  0  2  0  0  0  0  0  0
  1 15  1  0  0  0  0
  2  7  1  0  0  0  0
  2  1  1  0  0  0  0
  3  8  1  6  0  0  0
  3  4  1  0  0  0  0
  3  2  1  0  0  0  0
  4  5  1  0  0  0  0
  5  1  1  0  0  0  0
  5 12  1  0  0  0  0
  5 11  1  0  0  0  0
  6  2  1  0  0  0  0
  9  4  1  0  0  0  0
 10  4  1  0  0  0  0
 13 18  1  0  0  0  0
 14 15  1  0  0  0  0
 14 13  2  0  0  0  0
 15 16  2  0  0  0  0
 16 17  1  0  0  0  0
 17 21  1  0  0  0  0
 18 17  2  0  0  0  0
 19 13  1  0  0  0  0
 20 14  1  0  0  0  0
 22 23  1  0  0  0  0
 22  3  1  0  0  0  0
 25 30  1  0  0  0  0
 25 26  1  0  0  0  0
 25 24  1  0  0  0  0
 27 26  1  0  0  0  0
 27 28  1  0  0  0  0
 28 29  1  0  0  0  0
 28 22  1  0  0  0  0
 30 29  1  0  0  0  0
M  END
>  <minimizedAffinity>
-4.79784727

>  <minimizedRMSD>
0.669490218

$$$$
