
 OpenBabel03242519033D

 30 32  0  0  1  0  0  0  0  0999 V2000
   47.3750   34.2990   42.3110 N   0  0  0  0  0  0  0  0  0  0  0  0
   47.9730   35.0540   41.2440 C   0  0  0  0  0  0  0  0  0  0  0  0
   47.8530   34.0110   40.1440 C   0  0  2  0  0  0  0  0  0  0  0  0
   48.4480   32.8120   40.8140 C   0  0  0  0  0  0  0  0  0  0  0  0
   47.9520   32.9600   42.2430 C   0  0  0  0  0  0  0  0  0  0  0  0
   47.3910   35.9580   40.9760 H   0  0  0  0  0  0  0  0  0  0  0  0
   49.0330   35.2520   41.3870 H   0  0  0  0  0  0  0  0  0  0  0  0
   46.8280   33.7960   39.8670 H   0  0  0  0  0  0  0  0  0  0  0  0
   47.9760   31.8900   40.4020 H   0  0  0  0  0  0  0  0  0  0  0  0
   49.5530   32.7800   40.7560 H   0  0  0  0  0  0  0  0  0  0  0  0
   48.8520   32.9270   42.9060 H   0  0  0  0  0  0  0  0  0  0  0  0
   47.1940   32.2100   42.5000 H   0  0  0  0  0  0  0  0  0  0  0  0
   44.6650   36.0230   44.2010 C   0  0  0  0  0  0  0  0  0  0  0  0
   45.5670   35.7520   43.1810 C   0  0  0  0  0  0  0  0  0  0  0  0
   46.4290   34.6690   43.2710 C   0  0  0  0  0  0  0  0  0  0  0  0
   46.3350   33.8950   44.4150 N   0  0  0  0  0  0  0  0  0  0  0  0
   45.4550   34.1650   45.4040 C   0  0  0  0  0  0  0  0  0  0  0  0
   44.6210   35.2300   45.2940 N   0  0  0  0  0  0  0  0  0  0  0  0
   43.9920   36.8670   44.1330 H   0  0  0  0  0  0  0  0  0  0  0  0
   45.6380   36.3530   42.2950 H   0  0  0  0  0  0  0  0  0  0  0  0
   45.4450   33.5070   46.2710 H   0  0  0  0  0  0  0  0  0  0  0  0
   48.7050   34.3810   39.0400 N   0  0  0  0  0  0  0  0  0  0  0  0
   49.6590   34.0410   39.1070 H   0  0  0  0  0  0  0  0  0  0  0  0
   47.0750   30.7950   37.0420 H   0  0  0  0  0  0  0  0  0  0  0  0
   47.3580   31.6560   36.5040 N   0  0  0  0  0  0  0  0  0  0  0  0
   48.6860   31.9750   36.9260 C   0  0  0  0  0  2  0  0  0  0  0  0
   48.9160   33.4670   36.7770 C   0  0  0  0  0  2  0  0  0  0  0  0
   48.1290   34.2720   37.7510 C   0  0  0  0  0  3  0  0  0  0  0  0
   46.7910   33.5610   37.9340 C   0  0  0  0  0  2  0  0  0  0  0  0
   46.4380   32.7480   36.7090 C   0  0  0  0  0  2  0  0  0  0  0  0
  1 15  1  0  0  0  0
  2  7  1  0  0  0  0
  2  1  1  0  0  0  0
  3  8  1  6  0  0  0
  3  4  1  0  0  0  0
  3  2  1  0  0  0  0
  4  5  1  0  0  0  0
  5  1  1  0  0  0  0
  5 12  1  0  0  0  0
  5 11  1  0  0  0  0
  6  2  1  0  0  0  0
  9  4  1  0  0  0  0
 10  4  1  0  0  0  0
 13 18  1  0  0  0  0
 14 15  1  0  0  0  0
 14 13  2  0  0  0  0
 15 16  2  0  0  0  0
 16 17  1  0  0  0  0
 17 21  1  0  0  0  0
 18 17  2  0  0  0  0
 19 13  1  0  0  0  0
 20 14  1  0  0  0  0
 22 23  1  0  0  0  0
 22  3  1  0  0  0  0
 25 30  1  0  0  0  0
 25 26  1  0  0  0  0
 25 24  1  0  0  0  0
 27 26  1  0  0  0  0
 27 28  1  0  0  0  0
 28 29  1  0  0  0  0
 28 22  1  0  0  0  0
 30 29  1  0  0  0  0
M  END
>  <minimizedAffinity>
-4.80420017

>  <minimizedRMSD>
0.82358855

$$$$
