
 OpenBabel03242519043D

 30 32  0  0  1  0  0  0  0  0999 V2000
   47.3150   33.2490   43.4060 N   0  0  0  0  0  0  0  0  0  0  0  0
   48.6320   33.3500   42.8400 C   0  0  0  0  0  0  0  0  0  0  0  0
   48.5320   32.2070   41.8440 C   0  0  2  0  0  0  0  0  0  0  0  0
   48.0340   31.1000   42.7200 C   0  0  0  0  0  0  0  0  0  0  0  0
   47.0800   31.8290   43.6520 C   0  0  0  0  0  0  0  0  0  0  0  0
   48.8000   34.3070   42.3060 H   0  0  0  0  0  0  0  0  0  0  0  0
   49.4300   33.1020   43.5370 H   0  0  0  0  0  0  0  0  0  0  0  0
   47.8140   32.3890   41.0530 H   0  0  0  0  0  0  0  0  0  0  0  0
   47.4170   30.3990   42.1110 H   0  0  0  0  0  0  0  0  0  0  0  0
   48.8410   30.5790   43.2710 H   0  0  0  0  0  0  0  0  0  0  0  0
   47.3990   31.5920   44.6970 H   0  0  0  0  0  0  0  0  0  0  0  0
   46.0310   31.5810   43.4510 H   0  0  0  0  0  0  0  0  0  0  0  0
   45.0620   36.2140   43.2730 C   0  0  0  0  0  0  0  0  0  0  0  0
   46.0180   35.2900   42.8720 C   0  0  0  0  0  0  0  0  0  0  0  0
   46.3710   34.2350   43.7010 C   0  0  0  0  0  0  0  0  0  0  0  0
   45.7250   34.1650   44.9230 N   0  0  0  0  0  0  0  0  0  0  0  0
   44.7960   35.0670   45.3070 C   0  0  0  0  0  0  0  0  0  0  0  0
   44.4670   36.0920   44.4800 N   0  0  0  0  0  0  0  0  0  0  0  0
   44.7850   37.0370   42.6290 H   0  0  0  0  0  0  0  0  0  0  0  0
   46.5170   35.3470   41.9240 H   0  0  0  0  0  0  0  0  0  0  0  0
   44.3350   34.9400   46.2850 H   0  0  0  0  0  0  0  0  0  0  0  0
   49.8540   31.8570   41.3820 N   0  0  0  0  0  0  0  0  0  0  0  0
   50.2490   31.0290   41.8140 H   0  0  0  0  0  0  0  0  0  0  0  0
   47.2850   30.4090   38.0940 H   0  0  0  0  0  0  0  0  0  0  0  0
   48.3060   30.6260   37.9520 N   0  0  0  0  0  0  0  0  0  0  0  0
   49.0120   29.9200   38.9730 C   0  0  0  0  0  2  0  0  0  0  0  0
   50.3000   30.6540   39.2940 C   0  0  0  0  0  2  0  0  0  0  0  0
   50.0660   31.9520   39.9850 C   0  0  0  0  0  3  0  0  0  0  0  0
   48.7910   32.5460   39.3920 C   0  0  0  0  0  2  0  0  0  0  0  0
   48.5640   32.0460   37.9830 C   0  0  0  0  0  2  0  0  0  0  0  0
  1  5  1  0  0  0  0
  1 15  1  0  0  0  0
  2  1  1  0  0  0  0
  2  7  1  0  0  0  0
  3  8  1  6  0  0  0
  3  4  1  0  0  0  0
  3  2  1  0  0  0  0
  4 10  1  0  0  0  0
  4  5  1  0  0  0  0
  5 11  1  0  0  0  0
  6  2  1  0  0  0  0
  9  4  1  0  0  0  0
 12  5  1  0  0  0  0
 13 18  1  0  0  0  0
 14 13  2  0  0  0  0
 14 15  1  0  0  0  0
 15 16  2  0  0  0  0
 16 17  1  0  0  0  0
 17 21  1  0  0  0  0
 18 17  2  0  0  0  0
 19 13  1  0  0  0  0
 20 14  1  0  0  0  0
 22 23  1  0  0  0  0
 22  3  1  0  0  0  0
 25 30  1  0  0  0  0
 25 24  1  0  0  0  0
 25 26  1  0  0  0  0
 26 27  1  0  0  0  0
 27 28  1  0  0  0  0
 28 22  1  0  0  0  0
 29 28  1  0  0  0  0
 30 29  1  0  0  0  0
M  END
>  <minimizedAffinity>
-3.7980516

>  <minimizedRMSD>
3.09007025

$$$$
