
 OpenBabel03242519033D

 30 32  0  0  1  0  0  0  0  0999 V2000
   47.5250   34.2030   42.5920 N   0  0  0  0  0  0  0  0  0  0  0  0
   47.8380   34.7310   41.2920 C   0  0  0  0  0  0  0  0  0  0  0  0
   48.0490   33.4140   40.5640 C   0  0  2  0  0  0  0  0  0  0  0  0
   49.0050   32.7220   41.4860 C   0  0  0  0  0  0  0  0  0  0  0  0
   48.5010   33.1500   42.8550 C   0  0  0  0  0  0  0  0  0  0  0  0
   46.9940   35.2870   40.8370 H   0  0  0  0  0  0  0  0  0  0  0  0
   48.7800   35.2750   41.2550 H   0  0  0  0  0  0  0  0  0  0  0  0
   47.1450   32.8240   40.4750 H   0  0  0  0  0  0  0  0  0  0  0  0
   48.8490   31.6200   41.4140 H   0  0  0  0  0  0  0  0  0  0  0  0
   50.0600   33.0090   41.3190 H   0  0  0  0  0  0  0  0  0  0  0  0
   49.3700   33.5980   43.3960 H   0  0  0  0  0  0  0  0  0  0  0  0
   48.0270   32.3250   43.4000 H   0  0  0  0  0  0  0  0  0  0  0  0
   44.6380   35.8210   44.3040 C   0  0  0  0  0  0  0  0  0  0  0  0
   45.5960   35.5690   43.3300 C   0  0  0  0  0  0  0  0  0  0  0  0
   46.5200   34.5480   43.4980 C   0  0  0  0  0  0  0  0  0  0  0  0
   46.4280   33.8160   44.6690 N   0  0  0  0  0  0  0  0  0  0  0  0
   45.4940   34.0670   45.6120 C   0  0  0  0  0  0  0  0  0  0  0  0
   44.6000   35.0710   45.4260 N   0  0  0  0  0  0  0  0  0  0  0  0
   43.9160   36.6170   44.1750 H   0  0  0  0  0  0  0  0  0  0  0  0
   45.6640   36.1380   42.4240 H   0  0  0  0  0  0  0  0  0  0  0  0
   45.4900   33.4440   46.5050 H   0  0  0  0  0  0  0  0  0  0  0  0
   48.7260   33.6620   39.3140 N   0  0  0  0  0  0  0  0  0  0  0  0
   49.4230   32.9680   39.0640 H   0  0  0  0  0  0  0  0  0  0  0  0
   47.1400   31.2910   35.9410 H   0  0  0  0  0  0  0  0  0  0  0  0
   47.1990   32.3420   35.9080 N   0  0  0  0  0  0  0  0  0  0  0  0
   48.5400   32.6810   36.2700 C   0  0  0  0  0  2  0  0  0  0  0  0
   48.5570   34.0600   36.9020 C   0  0  0  0  0  2  0  0  0  0  0  0
   47.9080   34.0880   38.2410 C   0  0  0  0  0  3  0  0  0  0  0  0
   46.7310   33.1160   38.1820 C   0  0  0  0  0  2  0  0  0  0  0  0
   46.2220   32.9660   36.7670 C   0  0  0  0  0  2  0  0  0  0  0  0
  1  5  1  0  0  0  0
  1 15  1  0  0  0  0
  2  1  1  0  0  0  0
  3  8  1  6  0  0  0
  3  2  1  0  0  0  0
  3  4  1  0  0  0  0
  4  5  1  0  0  0  0
  5 11  1  0  0  0  0
  5 12  1  0  0  0  0
  6  2  1  0  0  0  0
  7  2  1  0  0  0  0
  9  4  1  0  0  0  0
 10  4  1  0  0  0  0
 13 18  1  0  0  0  0
 14 15  1  0  0  0  0
 14 13  2  0  0  0  0
 15 16  2  0  0  0  0
 16 17  1  0  0  0  0
 17 21  1  0  0  0  0
 18 17  2  0  0  0  0
 19 13  1  0  0  0  0
 20 14  1  0  0  0  0
 22  3  1  0  0  0  0
 23 22  1  0  0  0  0
 25 24  1  0  0  0  0
 25 26  1  0  0  0  0
 25 30  1  0  0  0  0
 26 27  1  0  0  0  0
 27 28  1  0  0  0  0
 28 22  1  0  0  0  0
 29 28  1  0  0  0  0
 30 29  1  0  0  0  0
M  END
>  <minimizedAffinity>
-4.82102203

>  <minimizedRMSD>
1.61577773

$$$$
