
 OpenBabel03242519033D

 30 32  0  0  1  0  0  0  0  0999 V2000
   47.4510   34.2370   42.4660 N   0  0  0  0  0  0  0  0  0  0  0  0
   47.9470   34.9750   41.3370 C   0  0  0  0  0  0  0  0  0  0  0  0
   47.9290   33.8520   40.3140 C   0  0  2  0  0  0  0  0  0  0  0  0
   48.6630   32.7750   41.0520 C   0  0  0  0  0  0  0  0  0  0  0  0
   48.1730   32.9680   42.4780 C   0  0  0  0  0  0  0  0  0  0  0  0
   47.2640   35.7890   41.0210 H   0  0  0  0  0  0  0  0  0  0  0  0
   48.9800   35.2990   41.4440 H   0  0  0  0  0  0  0  0  0  0  0  0
   46.9310   33.5060   40.0740 H   0  0  0  0  0  0  0  0  0  0  0  0
   48.2910   31.7800   40.7140 H   0  0  0  0  0  0  0  0  0  0  0  0
   49.7640   32.8610   40.9730 H   0  0  0  0  0  0  0  0  0  0  0  0
   49.0790   33.0800   43.1220 H   0  0  0  0  0  0  0  0  0  0  0  0
   47.5060   32.1590   42.8010 H   0  0  0  0  0  0  0  0  0  0  0  0
   44.6380   35.8290   44.3210 C   0  0  0  0  0  0  0  0  0  0  0  0
   45.5570   35.5930   43.3060 C   0  0  0  0  0  0  0  0  0  0  0  0
   46.4830   34.5660   43.4170 C   0  0  0  0  0  0  0  0  0  0  0  0
   46.4320   33.8100   44.5750 N   0  0  0  0  0  0  0  0  0  0  0  0
   45.5360   34.0440   45.5590 C   0  0  0  0  0  0  0  0  0  0  0  0
   44.6400   35.0550   45.4280 N   0  0  0  0  0  0  0  0  0  0  0  0
   43.9160   36.6290   44.2360 H   0  0  0  0  0  0  0  0  0  0  0  0
   45.5940   36.1820   42.4100 H   0  0  0  0  0  0  0  0  0  0  0  0
   45.5630   33.4020   46.4370 H   0  0  0  0  0  0  0  0  0  0  0  0
   48.7200   34.2340   39.1690 N   0  0  0  0  0  0  0  0  0  0  0  0
   49.6630   33.8580   39.1590 H   0  0  0  0  0  0  0  0  0  0  0  0
   47.2030   30.7270   36.9550 H   0  0  0  0  0  0  0  0  0  0  0  0
   47.3810   31.6530   36.4840 N   0  0  0  0  0  0  0  0  0  0  0  0
   48.7110   32.0360   36.8410 C   0  0  0  0  0  2  0  0  0  0  0  0
   48.8210   33.5480   36.8190 C   0  0  0  0  0  2  0  0  0  0  0  0
   48.0570   34.1970   37.9190 C   0  0  0  0  0  3  0  0  0  0  0  0
   46.7910   33.3690   38.1270 C   0  0  0  0  0  2  0  0  0  0  0  0
   46.4030   32.6460   36.8570 C   0  0  0  0  0  2  0  0  0  0  0  0
  1  5  1  0  0  0  0
  1 15  1  0  0  0  0
  2  7  1  0  0  0  0
  2  1  1  0  0  0  0
  3  8  1  6  0  0  0
  3  4  1  0  0  0  0
  3  2  1  0  0  0  0
  4  5  1  0  0  0  0
  5 12  1  0  0  0  0
  5 11  1  0  0  0  0
  6  2  1  0  0  0  0
  9  4  1  0  0  0  0
 10  4  1  0  0  0  0
 13 18  1  0  0  0  0
 14 15  1  0  0  0  0
 14 13  2  0  0  0  0
 15 16  2  0  0  0  0
 16 17  1  0  0  0  0
 17 21  1  0  0  0  0
 18 17  2  0  0  0  0
 19 13  1  0  0  0  0
 20 14  1  0  0  0  0
 22  3  1  0  0  0  0
 23 22  1  0  0  0  0
 25 26  1  0  0  0  0
 25 30  1  0  0  0  0
 25 24  1  0  0  0  0
 27 26  1  0  0  0  0
 27 28  1  0  0  0  0
 28 29  1  0  0  0  0
 28 22  1  0  0  0  0
 30 29  1  0  0  0  0
M  END
>  <minimizedAffinity>
-4.75793123

>  <minimizedRMSD>
1.38867199

$$$$
