
 OpenBabel03252507303D

 47 50  0  0  1  0  0  0  0  0999 V2000
   46.9780   32.7470   45.5080 C   0  0  0  0  0  0  0  0  0  0  0  0
   45.8580   33.3930   46.0110 C   0  0  0  0  0  0  0  0  0  0  0  0
   45.2010   34.3680   45.2230 C   0  0  0  0  0  0  0  0  0  0  0  0
   45.7460   34.6160   43.9650 N   0  0  0  0  0  0  0  0  0  0  0  0
   46.8300   33.9580   43.5430 C   0  0  0  0  0  0  0  0  0  0  0  0
   47.4340   33.0410   44.2980 N   0  0  0  0  0  0  0  0  0  0  0  0
   45.3050   33.3910   46.9300 H   0  0  0  0  0  0  0  0  0  0  0  0
   44.3470   34.9520   45.4350 H   0  0  0  0  0  0  0  0  0  0  0  0
   47.6010   31.7430   46.3460 C   0  0  2  0  0  0  0  0  0  0  0  0
   47.3050   30.3020   45.8270 C   0  0  0  0  0  0  0  0  0  0  0  0
   48.1100   29.3260   46.6180 C   0  0  0  0  0  0  0  0  0  0  0  0
   48.1070   29.5280   48.0970 C   0  0  0  0  0  0  0  0  0  0  0  0
   48.1470   30.9090   48.5080 C   0  0  0  0  0  0  0  0  0  0  0  0
   47.1760   31.8210   47.7290 C   0  0  2  0  0  0  0  0  0  0  0  0
   48.7100   31.8010   46.2340 H   0  0  0  0  0  0  0  0  0  0  0  0
   47.6510   30.3260   44.7750 H   0  0  0  0  0  0  0  0  0  0  0  0
   46.2400   30.1040   45.7870 H   0  0  0  0  0  0  0  0  0  0  0  0
   47.6930   28.2990   46.4390 H   0  0  0  0  0  0  0  0  0  0  0  0
   49.1060   29.2970   46.1300 H   0  0  0  0  0  0  0  0  0  0  0  0
   47.7130   28.7280   48.7240 H   0  0  0  0  0  0  0  0  0  0  0  0
   49.2120   29.2370   48.3170 H   0  0  0  0  0  0  0  0  0  0  0  0
   49.1220   31.4560   48.4800 H   0  0  0  0  0  0  0  0  0  0  0  0
   47.7940   31.0030   49.5740 H   0  0  0  0  0  0  0  0  0  0  0  0
   47.3260   32.7700   48.2470 H   0  0  0  0  0  0  0  0  0  0  0  0
   45.8210   31.2800   47.8670 N   0  0  0  0  0  0  0  0  0  0  0  0
   45.1480   30.7210   48.9670 C   0  0  0  0  0  0  0  0  0  0  0  0
   44.6560   31.4290   49.9190 O   0  0  0  0  0  0  0  0  0  0  0  0
   45.0430   29.2980   48.9430 N   0  0  0  0  0  0  0  0  0  0  0  0
   45.1490   31.1900   47.0140 H   0  0  0  0  0  0  0  0  0  0  0  0
   45.3180   28.4010   49.3920 H   0  0  0  0  0  0  0  0  0  0  0  0
   44.5570   28.5950   48.3370 H   0  0  0  0  0  0  0  0  0  0  0  0
   47.3620   34.2810   42.2150 C   0  0  0  0  0  0  0  0  0  0  0  0
   48.2760   35.2960   42.0410 C   0  0  0  0  0  0  0  0  0  0  0  0
   48.8250   35.6670   40.8400 C   0  0  0  0  0  0  0  0  0  0  0  0
   48.3800   34.9190   39.7600 C   0  0  0  0  0  0  0  0  0  0  0  0
   47.4690   33.9020   39.9090 C   0  0  0  0  0  0  0  0  0  0  0  0
   46.9570   33.5810   41.1430 N   0  0  0  0  0  0  0  0  0  0  0  0
   48.5780   35.8380   42.9340 H   0  0  0  0  0  0  0  0  0  0  0  0
   49.5420   36.4700   40.7460 H   0  0  0  0  0  0  0  0  0  0  0  0
   48.7650   35.1450   38.7730 H   0  0  0  0  0  0  0  0  0  0  0  0
   47.0140   33.1380   38.8000 N   0  0  0  0  0  0  0  0  0  0  0  0
   47.4650   33.3710   37.4490 C   0  0  0  0  0  0  0  0  0  0  0  0
   46.5010   32.8260   36.4230 C   0  0  0  0  0  0  0  0  0  0  0  0
   45.0620   32.9770   36.8630 C   0  0  0  0  0  0  0  0  0  0  0  0
   44.7550   34.0510   36.8260 H   0  0  0  0  0  0  0  0  0  0  0  0
   44.7860   32.4350   38.2250 C   0  0  0  0  0  0  0  0  0  0  0  0
   46.0570   32.0610   38.9510 C   0  0  0  0  0  0  0  0  0  0  0  0
  1  2  1  0  0  0  0
  1  9  1  0  0  0  0
  2  7  1  0  0  0  0
  3  8  1  0  0  0  0
  3  2  2  0  0  0  0
  4  3  1  0  0  0  0
  5  4  2  0  0  0  0
  5  6  1  0  0  0  0
  6  1  2  0  0  0  0
  9 15  1  6  0  0  0
  9 14  1  0  0  0  0
 10  9  1  0  0  0  0
 10 11  1  0  0  0  0
 11 12  1  0  0  0  0
 12 21  1  0  0  0  0
 12 13  1  0  0  0  0
 12 20  1  0  0  0  0
 13 23  1  0  0  0  0
 14 25  1  0  0  0  0
 14 24  1  1  0  0  0
 14 13  1  0  0  0  0
 16 10  1  0  0  0  0
 17 10  1  0  0  0  0
 18 11  1  0  0  0  0
 19 11  1  0  0  0  0
 22 13  1  0  0  0  0
 25 26  1  0  0  0  0
 26 27  2  0  0  0  0
 28 26  1  0  0  0  0
 28 30  1  0  0  0  0
 29 25  1  0  0  0  0
 31 28  1  0  0  0  0
 32  5  1  0  0  0  0
 33 32  1  0  0  0  0
 33 38  1  0  0  0  0
 34 33  2  0  0  0  0
 35 36  2  0  0  0  0
 35 34  1  0  0  0  0
 36 37  1  0  0  0  0
 37 32  2  0  0  0  0
 39 34  1  0  0  0  0
 40 35  1  0  0  0  0
 41 47  1  0  0  0  0
 41 36  1  0  0  0  0
 42 41  1  0  0  0  0
 43 44  1  0  0  0  0
 43 42  1  0  0  0  0
 44 46  1  0  0  0  0
 45 44  1  0  0  0  0
 46 47  1  0  0  0  0
M  END
>  <minimizedAffinity>
-6.73503256

>  <minimizedRMSD>
0.320838958

$$$$
