
 OpenBabel03252507313D

 47 50  0  0  1  0  0  0  0  0999 V2000
   46.9500   32.8030   45.4640 C   0  0  0  0  0  0  0  0  0  0  0  0
   45.8450   33.4750   45.9690 C   0  0  0  0  0  0  0  0  0  0  0  0
   45.1670   34.4140   45.1550 C   0  0  0  0  0  0  0  0  0  0  0  0
   45.6760   34.6020   43.8710 N   0  0  0  0  0  0  0  0  0  0  0  0
   46.7470   33.9210   43.4500 C   0  0  0  0  0  0  0  0  0  0  0  0
   47.3710   33.0390   44.2290 N   0  0  0  0  0  0  0  0  0  0  0  0
   45.3190   33.5170   46.9020 H   0  0  0  0  0  0  0  0  0  0  0  0
   44.3210   35.0100   45.3640 H   0  0  0  0  0  0  0  0  0  0  0  0
   47.5950   31.8370   46.3300 C   0  0  2  0  0  0  0  0  0  0  0  0
   47.3640   30.3780   45.8300 C   0  0  0  0  0  0  0  0  0  0  0  0
   48.1900   29.4460   46.6510 C   0  0  0  0  0  0  0  0  0  0  0  0
   48.1510   29.6720   48.1270 C   0  0  0  0  0  0  0  0  0  0  0  0
   48.1310   31.0590   48.5150 C   0  0  0  0  0  0  0  0  0  0  0  0
   47.1410   31.9210   47.7040 C   0  0  2  0  0  0  0  0  0  0  0  0
   48.7020   31.9360   46.2370 H   0  0  0  0  0  0  0  0  0  0  0  0
   47.7280   30.3980   44.7830 H   0  0  0  0  0  0  0  0  0  0  0  0
   46.3080   30.1380   45.7740 H   0  0  0  0  0  0  0  0  0  0  0  0
   47.8160   28.4010   46.4820 H   0  0  0  0  0  0  0  0  0  0  0  0
   49.1960   29.4470   46.1830 H   0  0  0  0  0  0  0  0  0  0  0  0
   47.7770   28.8670   48.7600 H   0  0  0  0  0  0  0  0  0  0  0  0
   49.2630   29.4270   48.3710 H   0  0  0  0  0  0  0  0  0  0  0  0
   49.0850   31.6420   48.4960 H   0  0  0  0  0  0  0  0  0  0  0  0
   47.7550   31.1570   49.5720 H   0  0  0  0  0  0  0  0  0  0  0  0
   47.2440   32.8830   48.2080 H   0  0  0  0  0  0  0  0  0  0  0  0
   45.8050   31.3300   47.8260 N   0  0  0  0  0  0  0  0  0  0  0  0
   45.1430   30.7390   48.9160 C   0  0  0  0  0  0  0  0  0  0  0  0
   44.6180   31.4230   49.8680 O   0  0  0  0  0  0  0  0  0  0  0  0
   45.0900   29.3140   48.8820 N   0  0  0  0  0  0  0  0  0  0  0  0
   45.1450   31.2220   46.9660 H   0  0  0  0  0  0  0  0  0  0  0  0
   45.3940   28.4250   49.3280 H   0  0  0  0  0  0  0  0  0  0  0  0
   44.6350   28.5980   48.2670 H   0  0  0  0  0  0  0  0  0  0  0  0
   47.2420   34.1810   42.0940 C   0  0  0  0  0  0  0  0  0  0  0  0
   48.1850   35.1550   41.8530 C   0  0  0  0  0  0  0  0  0  0  0  0
   48.7030   35.4650   40.6210 C   0  0  0  0  0  0  0  0  0  0  0  0
   48.1910   34.7000   39.5840 C   0  0  0  0  0  0  0  0  0  0  0  0
   47.2490   33.7230   39.7990 C   0  0  0  0  0  0  0  0  0  0  0  0
   46.7720   33.4620   41.0620 N   0  0  0  0  0  0  0  0  0  0  0  0
   48.5390   35.7130   42.7160 H   0  0  0  0  0  0  0  0  0  0  0  0
   49.4440   36.2370   40.4740 H   0  0  0  0  0  0  0  0  0  0  0  0
   48.5470   34.8790   38.5760 H   0  0  0  0  0  0  0  0  0  0  0  0
   46.7260   32.9410   38.7340 N   0  0  0  0  0  0  0  0  0  0  0  0
   46.5990   33.4380   37.3850 C   0  0  0  0  0  2  0  0  0  0  0  0
   45.5830   32.6620   36.5840 C   0  0  0  0  0  2  0  0  0  0  0  0
   44.4060   32.2300   37.4300 C   0  0  0  0  0  3  0  0  0  0  0  0
   43.7720   33.1120   37.6950 H   0  0  0  0  0  0  0  0  0  0  0  0
   44.7930   31.5110   38.6790 C   0  0  0  0  0  2  0  0  0  0  0  0
   46.2800   31.5770   38.9300 C   0  0  0  0  0  2  0  0  0  0  0  0
  1  2  1  0  0  0  0
  1  9  1  0  0  0  0
  2  7  1  0  0  0  0
  3  8  1  0  0  0  0
  3  2  2  0  0  0  0
  4  3  1  0  0  0  0
  5  4  2  0  0  0  0
  5  6  1  0  0  0  0
  6  1  2  0  0  0  0
  9 15  1  6  0  0  0
  9 14  1  0  0  0  0
 10  9  1  0  0  0  0
 10 11  1  0  0  0  0
 11 12  1  0  0  0  0
 12 21  1  0  0  0  0
 12 13  1  0  0  0  0
 12 20  1  0  0  0  0
 13 23  1  0  0  0  0
 14 25  1  0  0  0  0
 14 24  1  1  0  0  0
 14 13  1  0  0  0  0
 16 10  1  0  0  0  0
 17 10  1  0  0  0  0
 18 11  1  0  0  0  0
 19 11  1  0  0  0  0
 22 13  1  0  0  0  0
 25 26  1  0  0  0  0
 26 27  2  0  0  0  0
 28 26  1  0  0  0  0
 28 30  1  0  0  0  0
 29 25  1  0  0  0  0
 31 28  1  0  0  0  0
 32  5  1  0  0  0  0
 33 32  1  0  0  0  0
 33 38  1  0  0  0  0
 34 33  2  0  0  0  0
 35 36  2  0  0  0  0
 35 34  1  0  0  0  0
 36 37  1  0  0  0  0
 37 32  2  0  0  0  0
 39 34  1  0  0  0  0
 40 35  1  0  0  0  0
 41 47  1  0  0  0  0
 41 36  1  0  0  0  0
 42 41  1  0  0  0  0
 43 42  1  0  0  0  0
 43 44  1  0  0  0  0
 44 45  1  0  0  0  0
 44 46  1  0  0  0  0
 46 47  1  0  0  0  0
M  END
>  <minimizedAffinity>
-6.71809292

>  <minimizedRMSD>
0.173896626

$$$$
