
 OpenBabel03252507313D

 47 50  0  0  1  0  0  0  0  0999 V2000
   47.0220   32.5800   45.4330 C   0  0  0  0  0  0  0  0  0  0  0  0
   45.9710   33.2760   46.0150 C   0  0  0  0  0  0  0  0  0  0  0  0
   45.3140   34.2920   45.2800 C   0  0  0  0  0  0  0  0  0  0  0  0
   45.7870   34.5270   43.9900 N   0  0  0  0  0  0  0  0  0  0  0  0
   46.8060   33.8200   43.4920 C   0  0  0  0  0  0  0  0  0  0  0  0
   47.4110   32.8650   44.1980 N   0  0  0  0  0  0  0  0  0  0  0  0
   45.4810   33.2910   46.9690 H   0  0  0  0  0  0  0  0  0  0  0  0
   44.5070   34.9150   45.5530 H   0  0  0  0  0  0  0  0  0  0  0  0
   47.6460   31.5360   46.2200 C   0  0  2  0  0  0  0  0  0  0  0  0
   47.3210   30.1210   45.6510 C   0  0  0  0  0  0  0  0  0  0  0  0
   48.1270   29.1040   46.3880 C   0  0  0  0  0  0  0  0  0  0  0  0
   48.1540   29.2490   47.8740 C   0  0  0  0  0  0  0  0  0  0  0  0
   48.2210   30.6120   48.3370 C   0  0  0  0  0  0  0  0  0  0  0  0
   47.2480   31.5660   47.6130 C   0  0  2  0  0  0  0  0  0  0  0  0
   48.7540   31.5850   46.0880 H   0  0  0  0  0  0  0  0  0  0  0  0
   47.6480   30.1810   44.5940 H   0  0  0  0  0  0  0  0  0  0  0  0
   46.2530   29.9380   45.6240 H   0  0  0  0  0  0  0  0  0  0  0  0
   47.6930   28.0910   46.1780 H   0  0  0  0  0  0  0  0  0  0  0  0
   49.1140   29.0810   45.8810 H   0  0  0  0  0  0  0  0  0  0  0  0
   47.7620   28.4300   48.4770 H   0  0  0  0  0  0  0  0  0  0  0  0
   49.2600   28.9350   48.0610 H   0  0  0  0  0  0  0  0  0  0  0  0
   49.2030   31.1470   48.3110 H   0  0  0  0  0  0  0  0  0  0  0  0
   47.8890   30.6690   49.4120 H   0  0  0  0  0  0  0  0  0  0  0  0
   47.4210   32.4920   48.1630 H   0  0  0  0  0  0  0  0  0  0  0  0
   45.8890   31.0380   47.7550 N   0  0  0  0  0  0  0  0  0  0  0  0
   45.1720   30.6010   48.8830 C   0  0  0  0  0  0  0  0  0  0  0  0
   44.6420   31.4080   49.7300 O   0  0  0  0  0  0  0  0  0  0  0  0
   45.0680   29.1840   49.0120 N   0  0  0  0  0  0  0  0  0  0  0  0
   45.2520   30.8510   46.8920 H   0  0  0  0  0  0  0  0  0  0  0  0
   45.3250   28.3430   49.5690 H   0  0  0  0  0  0  0  0  0  0  0  0
   44.6070   28.4150   48.4700 H   0  0  0  0  0  0  0  0  0  0  0  0
   47.2660   34.1320   42.1350 C   0  0  0  0  0  0  0  0  0  0  0  0
   48.2240   35.0950   41.9100 C   0  0  0  0  0  0  0  0  0  0  0  0
   48.7110   35.4510   40.6790 C   0  0  0  0  0  0  0  0  0  0  0  0
   48.1520   34.7460   39.6240 C   0  0  0  0  0  0  0  0  0  0  0  0
   47.1950   33.7800   39.8230 C   0  0  0  0  0  0  0  0  0  0  0  0
   46.7500   33.4720   41.0860 N   0  0  0  0  0  0  0  0  0  0  0  0
   48.6160   35.6050   42.7870 H   0  0  0  0  0  0  0  0  0  0  0  0
   49.4650   36.2130   40.5440 H   0  0  0  0  0  0  0  0  0  0  0  0
   48.4810   34.9640   38.6150 H   0  0  0  0  0  0  0  0  0  0  0  0
   46.6230   33.0600   38.7400 N   0  0  0  0  0  0  0  0  0  0  0  0
   45.2100   33.0750   38.4460 C   0  0  0  0  0  2  0  0  0  0  0  0
   44.7840   31.8810   37.6260 C   0  0  0  0  0  2  0  0  0  0  0  0
   45.5470   30.6320   38.0070 C   0  0  0  0  0  3  0  0  0  0  0  0
   45.2190   30.2690   39.0130 H   0  0  0  0  0  0  0  0  0  0  0  0
   47.0280   30.8050   38.0060 C   0  0  0  0  0  2  0  0  0  0  0  0
   47.4270   32.2530   37.8450 C   0  0  0  0  0  2  0  0  0  0  0  0
  1  2  1  0  0  0  0
  1  9  1  0  0  0  0
  2  7  1  0  0  0  0
  3  8  1  0  0  0  0
  3  2  2  0  0  0  0
  4  3  1  0  0  0  0
  5  4  2  0  0  0  0
  5  6  1  0  0  0  0
  6  1  2  0  0  0  0
  9 15  1  6  0  0  0
  9 14  1  0  0  0  0
 10  9  1  0  0  0  0
 10 11  1  0  0  0  0
 11 12  1  0  0  0  0
 12 21  1  0  0  0  0
 12 13  1  0  0  0  0
 12 20  1  0  0  0  0
 13 23  1  0  0  0  0
 14 25  1  0  0  0  0
 14 24  1  1  0  0  0
 14 13  1  0  0  0  0
 16 10  1  0  0  0  0
 17 10  1  0  0  0  0
 18 11  1  0  0  0  0
 19 11  1  0  0  0  0
 22 13  1  0  0  0  0
 25 26  1  0  0  0  0
 26 28  1  0  0  0  0
 26 27  2  0  0  0  0
 28 30  1  0  0  0  0
 29 25  1  0  0  0  0
 31 28  1  0  0  0  0
 32  5  1  0  0  0  0
 33 32  1  0  0  0  0
 33 38  1  0  0  0  0
 34 33  2  0  0  0  0
 35 36  2  0  0  0  0
 35 34  1  0  0  0  0
 36 37  1  0  0  0  0
 37 32  2  0  0  0  0
 39 34  1  0  0  0  0
 40 35  1  0  0  0  0
 41 36  1  0  0  0  0
 42 41  1  0  0  0  0
 43 44  1  0  0  0  0
 43 42  1  0  0  0  0
 44 45  1  0  0  0  0
 46 44  1  0  0  0  0
 47 46  1  0  0  0  0
 47 41  1  0  0  0  0
M  END
>  <minimizedAffinity>
-6.43848944

>  <minimizedRMSD>
0.349130571

$$$$
