
 OpenBabel03252507313D

 47 50  0  0  1  0  0  0  0  0999 V2000
   46.9700   32.7630   45.4970 C   0  0  0  0  0  0  0  0  0  0  0  0
   45.8810   33.4430   46.0240 C   0  0  0  0  0  0  0  0  0  0  0  0
   45.1920   34.3860   45.2240 C   0  0  0  0  0  0  0  0  0  0  0  0
   45.6750   34.5700   43.9300 N   0  0  0  0  0  0  0  0  0  0  0  0
   46.7320   33.8820   43.4860 C   0  0  0  0  0  0  0  0  0  0  0  0
   47.3670   32.9960   44.2530 N   0  0  0  0  0  0  0  0  0  0  0  0
   45.3750   33.4890   46.9680 H   0  0  0  0  0  0  0  0  0  0  0  0
   44.3540   34.9870   45.4500 H   0  0  0  0  0  0  0  0  0  0  0  0
   47.6270   31.7940   46.3490 C   0  0  2  0  0  0  0  0  0  0  0  0
   47.4160   30.3390   45.8280 C   0  0  0  0  0  0  0  0  0  0  0  0
   48.2540   29.4060   46.6360 C   0  0  0  0  0  0  0  0  0  0  0  0
   48.2100   29.6100   48.1150 C   0  0  0  0  0  0  0  0  0  0  0  0
   48.1710   30.9910   48.5230 C   0  0  0  0  0  0  0  0  0  0  0  0
   47.1700   31.8510   47.7230 C   0  0  2  0  0  0  0  0  0  0  0  0
   48.7330   31.9090   46.2590 H   0  0  0  0  0  0  0  0  0  0  0  0
   47.7810   30.3790   44.7820 H   0  0  0  0  0  0  0  0  0  0  0  0
   46.3630   30.0860   45.7670 H   0  0  0  0  0  0  0  0  0  0  0  0
   47.8940   28.3590   46.4520 H   0  0  0  0  0  0  0  0  0  0  0  0
   49.2600   29.4280   46.1690 H   0  0  0  0  0  0  0  0  0  0  0  0
   47.8460   28.7910   48.7360 H   0  0  0  0  0  0  0  0  0  0  0  0
   49.3250   29.3760   48.3580 H   0  0  0  0  0  0  0  0  0  0  0  0
   49.1170   31.5870   48.5140 H   0  0  0  0  0  0  0  0  0  0  0  0
   47.7920   31.0680   49.5820 H   0  0  0  0  0  0  0  0  0  0  0  0
   47.2600   32.8070   48.2420 H   0  0  0  0  0  0  0  0  0  0  0  0
   45.8430   31.2410   47.8350 N   0  0  0  0  0  0  0  0  0  0  0  0
   45.1590   30.6890   48.9330 C   0  0  0  0  0  0  0  0  0  0  0  0
   44.5940   31.4060   49.8360 O   0  0  0  0  0  0  0  0  0  0  0  0
   45.1330   29.2630   48.9640 N   0  0  0  0  0  0  0  0  0  0  0  0
   45.2100   31.0800   46.9630 H   0  0  0  0  0  0  0  0  0  0  0  0
   45.4390   28.4020   49.4600 H   0  0  0  0  0  0  0  0  0  0  0  0
   44.7100   28.5100   48.3710 H   0  0  0  0  0  0  0  0  0  0  0  0
   47.2000   34.1380   42.1200 C   0  0  0  0  0  0  0  0  0  0  0  0
   48.1550   35.0950   41.8600 C   0  0  0  0  0  0  0  0  0  0  0  0
   48.6490   35.4000   40.6180 C   0  0  0  0  0  0  0  0  0  0  0  0
   48.1000   34.6490   39.5910 C   0  0  0  0  0  0  0  0  0  0  0  0
   47.1460   33.6890   39.8240 C   0  0  0  0  0  0  0  0  0  0  0  0
   46.6930   33.4320   41.0970 N   0  0  0  0  0  0  0  0  0  0  0  0
   48.5390   35.6430   42.7170 H   0  0  0  0  0  0  0  0  0  0  0  0
   49.4010   36.1600   40.4570 H   0  0  0  0  0  0  0  0  0  0  0  0
   48.4350   34.8260   38.5750 H   0  0  0  0  0  0  0  0  0  0  0  0
   46.5830   32.9210   38.7690 N   0  0  0  0  0  0  0  0  0  0  0  0
   45.2510   33.1430   38.2590 C   0  0  0  0  0  2  0  0  0  0  0  0
   44.7040   31.9310   37.5460 C   0  0  0  0  0  2  0  0  0  0  0  0
   45.1440   30.6410   38.2020 C   0  0  0  0  0  3  0  0  0  0  0  0
   44.6250   30.5070   39.1830 H   0  0  0  0  0  0  0  0  0  0  0  0
   46.6180   30.5420   38.4100 C   0  0  0  0  0  2  0  0  0  0  0  0
   47.3170   31.8500   38.1250 C   0  0  0  0  0  2  0  0  0  0  0  0
  1  2  1  0  0  0  0
  1  9  1  0  0  0  0
  2  7  1  0  0  0  0
  3  8  1  0  0  0  0
  3  2  2  0  0  0  0
  4  3  1  0  0  0  0
  5  4  2  0  0  0  0
  5  6  1  0  0  0  0
  6  1  2  0  0  0  0
  9 15  1  6  0  0  0
  9 14  1  0  0  0  0
 10  9  1  0  0  0  0
 10 11  1  0  0  0  0
 11 12  1  0  0  0  0
 12 21  1  0  0  0  0
 12 13  1  0  0  0  0
 12 20  1  0  0  0  0
 13 23  1  0  0  0  0
 14 25  1  0  0  0  0
 14 24  1  1  0  0  0
 14 13  1  0  0  0  0
 16 10  1  0  0  0  0
 17 10  1  0  0  0  0
 18 11  1  0  0  0  0
 19 11  1  0  0  0  0
 22 13  1  0  0  0  0
 25 26  1  0  0  0  0
 26 28  1  0  0  0  0
 26 27  2  0  0  0  0
 28 30  1  0  0  0  0
 29 25  1  0  0  0  0
 31 28  1  0  0  0  0
 32  5  1  0  0  0  0
 33 32  1  0  0  0  0
 33 38  1  0  0  0  0
 34 33  2  0  0  0  0
 35 36  2  0  0  0  0
 35 34  1  0  0  0  0
 36 37  1  0  0  0  0
 37 32  2  0  0  0  0
 39 34  1  0  0  0  0
 40 35  1  0  0  0  0
 41 36  1  0  0  0  0
 42 41  1  0  0  0  0
 43 44  1  0  0  0  0
 43 42  1  0  0  0  0
 44 46  1  0  0  0  0
 44 45  1  0  0  0  0
 47 46  1  0  0  0  0
 47 41  1  0  0  0  0
M  END
>  <minimizedAffinity>
-6.43563652

>  <minimizedRMSD>
0.186180413

$$$$
