
 OpenBabel03252507313D

 47 50  0  0  1  0  0  0  0  0999 V2000
   47.0450   32.5690   45.4180 C   0  0  0  0  0  0  0  0  0  0  0  0
   45.9840   33.2570   45.9900 C   0  0  0  0  0  0  0  0  0  0  0  0
   45.3320   34.2750   45.2530 C   0  0  0  0  0  0  0  0  0  0  0  0
   45.8220   34.5210   43.9720 N   0  0  0  0  0  0  0  0  0  0  0  0
   46.8510   33.8210   43.4820 C   0  0  0  0  0  0  0  0  0  0  0  0
   47.4500   32.8650   44.1900 N   0  0  0  0  0  0  0  0  0  0  0  0
   45.4810   33.2620   46.9370 H   0  0  0  0  0  0  0  0  0  0  0  0
   44.5190   34.8920   45.5190 H   0  0  0  0  0  0  0  0  0  0  0  0
   47.6640   31.5230   46.2060 C   0  0  2  0  0  0  0  0  0  0  0  0
   47.3320   30.1090   45.6380 C   0  0  0  0  0  0  0  0  0  0  0  0
   48.1320   29.0880   46.3760 C   0  0  0  0  0  0  0  0  0  0  0  0
   48.1590   29.2340   47.8620 C   0  0  0  0  0  0  0  0  0  0  0  0
   48.2320   30.5970   48.3240 C   0  0  0  0  0  0  0  0  0  0  0  0
   47.2640   31.5560   47.5980 C   0  0  2  0  0  0  0  0  0  0  0  0
   48.7710   31.5660   46.0750 H   0  0  0  0  0  0  0  0  0  0  0  0
   47.6600   30.1670   44.5800 H   0  0  0  0  0  0  0  0  0  0  0  0
   46.2630   29.9310   45.6090 H   0  0  0  0  0  0  0  0  0  0  0  0
   47.6940   28.0770   46.1660 H   0  0  0  0  0  0  0  0  0  0  0  0
   49.1190   29.0600   45.8700 H   0  0  0  0  0  0  0  0  0  0  0  0
   47.7620   28.4170   48.4650 H   0  0  0  0  0  0  0  0  0  0  0  0
   49.2620   28.9150   48.0500 H   0  0  0  0  0  0  0  0  0  0  0  0
   49.2160   31.1270   48.2990 H   0  0  0  0  0  0  0  0  0  0  0  0
   47.8990   30.6570   49.3980 H   0  0  0  0  0  0  0  0  0  0  0  0
   47.4410   32.4810   48.1480 H   0  0  0  0  0  0  0  0  0  0  0  0
   45.9030   31.0340   47.7390 N   0  0  0  0  0  0  0  0  0  0  0  0
   45.1770   30.6140   48.8690 C   0  0  0  0  0  0  0  0  0  0  0  0
   44.6460   31.4340   49.7020 O   0  0  0  0  0  0  0  0  0  0  0  0
   45.0680   29.1990   49.0150 N   0  0  0  0  0  0  0  0  0  0  0  0
   45.2700   30.8380   46.8750 H   0  0  0  0  0  0  0  0  0  0  0  0
   45.3180   28.3650   49.5840 H   0  0  0  0  0  0  0  0  0  0  0  0
   44.6070   28.4260   48.4800 H   0  0  0  0  0  0  0  0  0  0  0  0
   47.3280   34.1450   42.1340 C   0  0  0  0  0  0  0  0  0  0  0  0
   48.2390   35.1560   41.9220 C   0  0  0  0  0  0  0  0  0  0  0  0
   48.7370   35.5250   40.7000 C   0  0  0  0  0  0  0  0  0  0  0  0
   48.2430   34.7820   39.6390 C   0  0  0  0  0  0  0  0  0  0  0  0
   47.3330   33.7690   39.8240 C   0  0  0  0  0  0  0  0  0  0  0  0
   46.8730   33.4490   41.0790 N   0  0  0  0  0  0  0  0  0  0  0  0
   48.5810   35.6940   42.8030 H   0  0  0  0  0  0  0  0  0  0  0  0
   49.4530   36.3250   40.5760 H   0  0  0  0  0  0  0  0  0  0  0  0
   48.5860   35.0080   38.6360 H   0  0  0  0  0  0  0  0  0  0  0  0
   46.8280   33.0090   38.7350 N   0  0  0  0  0  0  0  0  0  0  0  0
   46.9630   33.4240   37.3600 C   0  0  0  0  0  2  0  0  0  0  0  0
   45.9410   32.7680   36.4620 C   0  0  0  0  0  2  0  0  0  0  0  0
   44.6090   32.5930   37.1550 C   0  0  0  0  0  3  0  0  0  0  0  0
   44.1050   33.5830   37.2870 H   0  0  0  0  0  0  0  0  0  0  0  0
   44.7030   31.9110   38.4790 C   0  0  0  0  0  2  0  0  0  0  0  0
   46.1350   31.7530   38.9310 C   0  0  0  0  0  2  0  0  0  0  0  0
  1  2  1  0  0  0  0
  1  9  1  0  0  0  0
  2  7  1  0  0  0  0
  3  8  1  0  0  0  0
  3  2  2  0  0  0  0
  4  3  1  0  0  0  0
  5  4  2  0  0  0  0
  5  6  1  0  0  0  0
  6  1  2  0  0  0  0
  9 15  1  6  0  0  0
  9 14  1  0  0  0  0
 10  9  1  0  0  0  0
 10 11  1  0  0  0  0
 11 12  1  0  0  0  0
 12 21  1  0  0  0  0
 12 13  1  0  0  0  0
 12 20  1  0  0  0  0
 13 23  1  0  0  0  0
 14 25  1  0  0  0  0
 14 24  1  1  0  0  0
 14 13  1  0  0  0  0
 16 10  1  0  0  0  0
 17 10  1  0  0  0  0
 18 11  1  0  0  0  0
 19 11  1  0  0  0  0
 22 13  1  0  0  0  0
 25 26  1  0  0  0  0
 26 28  1  0  0  0  0
 26 27  2  0  0  0  0
 28 30  1  0  0  0  0
 29 25  1  0  0  0  0
 31 28  1  0  0  0  0
 32  5  1  0  0  0  0
 33 32  1  0  0  0  0
 33 38  1  0  0  0  0
 34 33  2  0  0  0  0
 35 36  2  0  0  0  0
 35 34  1  0  0  0  0
 36 37  1  0  0  0  0
 37 32  2  0  0  0  0
 39 34  1  0  0  0  0
 40 35  1  0  0  0  0
 41 47  1  0  0  0  0
 41 36  1  0  0  0  0
 42 41  1  0  0  0  0
 43 44  1  0  0  0  0
 43 42  1  0  0  0  0
 44 45  1  0  0  0  0
 44 46  1  0  0  0  0
 46 47  1  0  0  0  0
M  END
>  <minimizedAffinity>
-6.59934044

>  <minimizedRMSD>
0.387941152

$$$$
