
 OpenBabel03252507303D

 47 50  0  0  1  0  0  0  0  0999 V2000
   46.9580   32.7680   45.5200 C   0  0  0  0  0  0  0  0  0  0  0  0
   45.8940   33.4850   46.0500 C   0  0  0  0  0  0  0  0  0  0  0  0
   45.2010   34.4120   45.2340 C   0  0  0  0  0  0  0  0  0  0  0  0
   45.6540   34.5420   43.9230 N   0  0  0  0  0  0  0  0  0  0  0  0
   46.6880   33.8210   43.4780 C   0  0  0  0  0  0  0  0  0  0  0  0
   47.3270   32.9510   44.2590 N   0  0  0  0  0  0  0  0  0  0  0  0
   45.4130   33.5720   47.0040 H   0  0  0  0  0  0  0  0  0  0  0  0
   44.3790   35.0350   45.4600 H   0  0  0  0  0  0  0  0  0  0  0  0
   47.6200   31.8180   46.3900 C   0  0  2  0  0  0  0  0  0  0  0  0
   47.4380   30.3540   45.8810 C   0  0  0  0  0  0  0  0  0  0  0  0
   48.2800   29.4430   46.7080 C   0  0  0  0  0  0  0  0  0  0  0  0
   48.2180   29.6610   48.1840 C   0  0  0  0  0  0  0  0  0  0  0  0
   48.1530   31.0450   48.5780 C   0  0  0  0  0  0  0  0  0  0  0  0
   47.1480   31.8820   47.7580 C   0  0  2  0  0  0  0  0  0  0  0  0
   48.7260   31.9490   46.3100 H   0  0  0  0  0  0  0  0  0  0  0  0
   47.8140   30.3900   44.8390 H   0  0  0  0  0  0  0  0  0  0  0  0
   46.3900   30.0850   45.8110 H   0  0  0  0  0  0  0  0  0  0  0  0
   47.9390   28.3890   46.5300 H   0  0  0  0  0  0  0  0  0  0  0  0
   49.2910   29.4760   46.2520 H   0  0  0  0  0  0  0  0  0  0  0  0
   47.8590   28.8420   48.8090 H   0  0  0  0  0  0  0  0  0  0  0  0
   49.3320   29.4470   48.4410 H   0  0  0  0  0  0  0  0  0  0  0  0
   49.0890   31.6560   48.5720 H   0  0  0  0  0  0  0  0  0  0  0  0
   47.7610   31.1270   49.6310 H   0  0  0  0  0  0  0  0  0  0  0  0
   47.2170   32.8440   48.2670 H   0  0  0  0  0  0  0  0  0  0  0  0
   45.8280   31.2530   47.8610 N   0  0  0  0  0  0  0  0  0  0  0  0
   45.1500   30.6820   48.9530 C   0  0  0  0  0  0  0  0  0  0  0  0
   44.5730   31.3840   49.8600 O   0  0  0  0  0  0  0  0  0  0  0  0
   45.1440   29.2560   48.9720 N   0  0  0  0  0  0  0  0  0  0  0  0
   45.2000   31.0900   46.9870 H   0  0  0  0  0  0  0  0  0  0  0  0
   45.4610   28.3950   49.4620 H   0  0  0  0  0  0  0  0  0  0  0  0
   44.7320   28.5020   48.3730 H   0  0  0  0  0  0  0  0  0  0  0  0
   47.1260   34.0210   42.0930 C   0  0  0  0  0  0  0  0  0  0  0  0
   48.0520   34.9880   41.7690 C   0  0  0  0  0  0  0  0  0  0  0  0
   48.5170   35.2440   40.5050 C   0  0  0  0  0  0  0  0  0  0  0  0
   47.9690   34.4300   39.5260 C   0  0  0  0  0  0  0  0  0  0  0  0
   47.0430   33.4600   39.8230 C   0  0  0  0  0  0  0  0  0  0  0  0
   46.6190   33.2540   41.1140 N   0  0  0  0  0  0  0  0  0  0  0  0
   48.4370   35.5870   42.5920 H   0  0  0  0  0  0  0  0  0  0  0  0
   49.2460   36.0130   40.2930 H   0  0  0  0  0  0  0  0  0  0  0  0
   48.2820   34.5660   38.4970 H   0  0  0  0  0  0  0  0  0  0  0  0
   46.4830   32.6270   38.8170 N   0  0  0  0  0  0  0  0  0  0  0  0
   47.0690   31.3700   38.4230 C   0  0  0  0  0  2  0  0  0  0  0  0
   46.6290   30.9400   37.0450 C   0  0  0  0  0  2  0  0  0  0  0  0
   46.4690   32.1170   36.1090 C   0  0  0  0  0  3  0  0  0  0  0  0
   47.4690   32.5390   35.8410 H   0  0  0  0  0  0  0  0  0  0  0  0
   45.6060   33.2070   36.6530 C   0  0  0  0  0  2  0  0  0  0  0  0
   45.2720   32.9880   38.1090 C   0  0  0  0  0  2  0  0  0  0  0  0
  1  2  1  0  0  0  0
  1  9  1  0  0  0  0
  2  7  1  0  0  0  0
  3  8  1  0  0  0  0
  3  2  2  0  0  0  0
  4  3  1  0  0  0  0
  5  4  2  0  0  0  0
  5  6  1  0  0  0  0
  6  1  2  0  0  0  0
  9 15  1  6  0  0  0
  9 14  1  0  0  0  0
 10  9  1  0  0  0  0
 10 11  1  0  0  0  0
 11 12  1  0  0  0  0
 12 21  1  0  0  0  0
 12 13  1  0  0  0  0
 12 20  1  0  0  0  0
 13 23  1  0  0  0  0
 14 25  1  0  0  0  0
 14 24  1  1  0  0  0
 14 13  1  0  0  0  0
 16 10  1  0  0  0  0
 17 10  1  0  0  0  0
 18 11  1  0  0  0  0
 19 11  1  0  0  0  0
 22 13  1  0  0  0  0
 25 26  1  0  0  0  0
 26 28  1  0  0  0  0
 26 27  2  0  0  0  0
 28 30  1  0  0  0  0
 29 25  1  0  0  0  0
 31 28  1  0  0  0  0
 32  5  1  0  0  0  0
 33 32  1  0  0  0  0
 33 38  1  0  0  0  0
 34 33  2  0  0  0  0
 35 36  2  0  0  0  0
 35 34  1  0  0  0  0
 36 37  1  0  0  0  0
 37 32  2  0  0  0  0
 39 34  1  0  0  0  0
 40 35  1  0  0  0  0
 41 36  1  0  0  0  0
 42 41  1  0  0  0  0
 43 42  1  0  0  0  0
 44 46  1  0  0  0  0
 44 43  1  0  0  0  0
 45 44  1  0  0  0  0
 46 47  1  0  0  0  0
 47 41  1  0  0  0  0
M  END
>  <minimizedAffinity>
-6.59148741

>  <minimizedRMSD>
0.316459984

$$$$
