
 OpenBabel03252507313D

 47 50  0  0  1  0  0  0  0  0999 V2000
   46.9540   32.7940   45.4900 C   0  0  0  0  0  0  0  0  0  0  0  0
   45.8520   33.4630   46.0030 C   0  0  0  0  0  0  0  0  0  0  0  0
   45.1700   34.4070   45.1970 C   0  0  0  0  0  0  0  0  0  0  0  0
   45.6740   34.6020   43.9130 N   0  0  0  0  0  0  0  0  0  0  0  0
   46.7420   33.9230   43.4830 C   0  0  0  0  0  0  0  0  0  0  0  0
   47.3700   33.0370   44.2540 N   0  0  0  0  0  0  0  0  0  0  0  0
   45.3300   33.5000   46.9390 H   0  0  0  0  0  0  0  0  0  0  0  0
   44.3250   35.0010   45.4140 H   0  0  0  0  0  0  0  0  0  0  0  0
   47.6030   31.8230   46.3480 C   0  0  2  0  0  0  0  0  0  0  0  0
   47.3750   30.3670   45.8370 C   0  0  0  0  0  0  0  0  0  0  0  0
   48.2050   29.4310   46.6500 C   0  0  0  0  0  0  0  0  0  0  0  0
   48.1690   29.6460   48.1270 C   0  0  0  0  0  0  0  0  0  0  0  0
   48.1450   31.0300   48.5260 C   0  0  0  0  0  0  0  0  0  0  0  0
   47.1510   31.8960   47.7230 C   0  0  2  0  0  0  0  0  0  0  0  0
   48.7100   31.9260   46.2530 H   0  0  0  0  0  0  0  0  0  0  0  0
   47.7380   30.3960   44.7900 H   0  0  0  0  0  0  0  0  0  0  0  0
   46.3200   30.1250   45.7810 H   0  0  0  0  0  0  0  0  0  0  0  0
   47.8340   28.3870   46.4740 H   0  0  0  0  0  0  0  0  0  0  0  0
   49.2100   29.4390   46.1800 H   0  0  0  0  0  0  0  0  0  0  0  0
   47.7970   28.8350   48.7550 H   0  0  0  0  0  0  0  0  0  0  0  0
   49.2810   29.4020   48.3680 H   0  0  0  0  0  0  0  0  0  0  0  0
   49.0970   31.6160   48.5090 H   0  0  0  0  0  0  0  0  0  0  0  0
   47.7700   31.1190   49.5850 H   0  0  0  0  0  0  0  0  0  0  0  0
   47.2530   32.8540   48.2340 H   0  0  0  0  0  0  0  0  0  0  0  0
   45.8180   31.3010   47.8420 N   0  0  0  0  0  0  0  0  0  0  0  0
   45.1470   30.7260   48.9370 C   0  0  0  0  0  0  0  0  0  0  0  0
   44.6100   31.4240   49.8710 O   0  0  0  0  0  0  0  0  0  0  0  0
   45.1020   29.3000   48.9280 N   0  0  0  0  0  0  0  0  0  0  0  0
   45.1660   31.1730   46.9790 H   0  0  0  0  0  0  0  0  0  0  0  0
   45.4050   28.4210   49.3930 H   0  0  0  0  0  0  0  0  0  0  0  0
   44.6570   28.5710   48.3220 H   0  0  0  0  0  0  0  0  0  0  0  0
   47.2310   34.1910   42.1260 C   0  0  0  0  0  0  0  0  0  0  0  0
   48.1980   35.1430   41.8900 C   0  0  0  0  0  0  0  0  0  0  0  0
   48.7110   35.4580   40.6590 C   0  0  0  0  0  0  0  0  0  0  0  0
   48.1710   34.7230   39.6160 C   0  0  0  0  0  0  0  0  0  0  0  0
   47.2060   33.7670   39.8250 C   0  0  0  0  0  0  0  0  0  0  0  0
   46.7340   33.5000   41.0880 N   0  0  0  0  0  0  0  0  0  0  0  0
   48.5740   35.6790   42.7590 H   0  0  0  0  0  0  0  0  0  0  0  0
   49.4710   36.2140   40.5160 H   0  0  0  0  0  0  0  0  0  0  0  0
   48.5220   34.9080   38.6070 H   0  0  0  0  0  0  0  0  0  0  0  0
   46.6530   33.0160   38.7540 N   0  0  0  0  0  0  0  0  0  0  0  0
   45.8900   31.8070   38.9540 C   0  0  0  0  0  2  0  0  0  0  0  0
   45.8610   30.9380   37.7200 C   0  0  0  0  0  2  0  0  0  0  0  0
   47.1710   30.9850   36.9650 C   0  0  0  0  0  3  0  0  0  0  0  0
   47.9670   30.4440   37.5330 H   0  0  0  0  0  0  0  0  0  0  0  0
   47.6410   32.3670   36.6590 C   0  0  0  0  0  2  0  0  0  0  0  0
   46.8190   33.4140   37.3710 C   0  0  0  0  0  2  0  0  0  0  0  0
  1  2  1  0  0  0  0
  1  9  1  0  0  0  0
  2  7  1  0  0  0  0
  3  8  1  0  0  0  0
  3  2  2  0  0  0  0
  4  3  1  0  0  0  0
  5  4  2  0  0  0  0
  5  6  1  0  0  0  0
  6  1  2  0  0  0  0
  9 15  1  6  0  0  0
  9 14  1  0  0  0  0
 10  9  1  0  0  0  0
 10 11  1  0  0  0  0
 11 12  1  0  0  0  0
 12 21  1  0  0  0  0
 12 13  1  0  0  0  0
 12 20  1  0  0  0  0
 13 23  1  0  0  0  0
 14 25  1  0  0  0  0
 14 24  1  1  0  0  0
 14 13  1  0  0  0  0
 16 10  1  0  0  0  0
 17 10  1  0  0  0  0
 18 11  1  0  0  0  0
 19 11  1  0  0  0  0
 22 13  1  0  0  0  0
 25 26  1  0  0  0  0
 26 27  2  0  0  0  0
 28 26  1  0  0  0  0
 28 30  1  0  0  0  0
 29 25  1  0  0  0  0
 31 28  1  0  0  0  0
 32  5  1  0  0  0  0
 33 32  1  0  0  0  0
 33 38  1  0  0  0  0
 34 33  2  0  0  0  0
 35 36  2  0  0  0  0
 35 34  1  0  0  0  0
 36 37  1  0  0  0  0
 37 32  2  0  0  0  0
 39 34  1  0  0  0  0
 40 35  1  0  0  0  0
 41 42  1  0  0  0  0
 41 36  1  0  0  0  0
 43 42  1  0  0  0  0
 44 45  1  0  0  0  0
 44 43  1  0  0  0  0
 46 44  1  0  0  0  0
 46 47  1  0  0  0  0
 47 41  1  0  0  0  0
M  END
>  <minimizedAffinity>
-6.68712759

>  <minimizedRMSD>
0.145385548

$$$$
