
 OpenBabel03252507313D

 47 50  0  0  1  0  0  0  0  0999 V2000
   46.9810   32.7560   45.5100 C   0  0  0  0  0  0  0  0  0  0  0  0
   45.8900   33.4400   46.0270 C   0  0  0  0  0  0  0  0  0  0  0  0
   45.2050   34.3770   45.2170 C   0  0  0  0  0  0  0  0  0  0  0  0
   45.6930   34.5510   43.9230 N   0  0  0  0  0  0  0  0  0  0  0  0
   46.7520   33.8590   43.4900 C   0  0  0  0  0  0  0  0  0  0  0  0
   47.3830   32.9800   44.2660 N   0  0  0  0  0  0  0  0  0  0  0  0
   45.3800   33.4930   46.9690 H   0  0  0  0  0  0  0  0  0  0  0  0
   44.3650   34.9800   45.4350 H   0  0  0  0  0  0  0  0  0  0  0  0
   47.6340   31.7930   46.3730 C   0  0  2  0  0  0  0  0  0  0  0  0
   47.4320   30.3350   45.8580 C   0  0  0  0  0  0  0  0  0  0  0  0
   48.2670   29.4100   46.6780 C   0  0  0  0  0  0  0  0  0  0  0  0
   48.2110   29.6210   48.1550 C   0  0  0  0  0  0  0  0  0  0  0  0
   48.1650   31.0040   48.5550 C   0  0  0  0  0  0  0  0  0  0  0  0
   47.1670   31.8570   47.7430 C   0  0  2  0  0  0  0  0  0  0  0  0
   48.7410   31.9120   46.2900 H   0  0  0  0  0  0  0  0  0  0  0  0
   47.8060   30.3710   44.8140 H   0  0  0  0  0  0  0  0  0  0  0  0
   46.3810   30.0790   45.7900 H   0  0  0  0  0  0  0  0  0  0  0  0
   47.9120   28.3610   46.4960 H   0  0  0  0  0  0  0  0  0  0  0  0
   49.2760   29.4320   46.2180 H   0  0  0  0  0  0  0  0  0  0  0  0
   47.8450   28.8040   48.7770 H   0  0  0  0  0  0  0  0  0  0  0  0
   49.3240   29.3930   48.4070 H   0  0  0  0  0  0  0  0  0  0  0  0
   49.1080   31.6040   48.5500 H   0  0  0  0  0  0  0  0  0  0  0  0
   47.7770   31.0870   49.6100 H   0  0  0  0  0  0  0  0  0  0  0  0
   47.2500   32.8160   48.2570 H   0  0  0  0  0  0  0  0  0  0  0  0
   45.8410   31.2440   47.8480 N   0  0  0  0  0  0  0  0  0  0  0  0
   45.1550   30.6870   48.9410 C   0  0  0  0  0  0  0  0  0  0  0  0
   44.5840   31.3990   49.8440 O   0  0  0  0  0  0  0  0  0  0  0  0
   45.1320   29.2600   48.9680 N   0  0  0  0  0  0  0  0  0  0  0  0
   45.2110   31.0830   46.9730 H   0  0  0  0  0  0  0  0  0  0  0  0
   45.4380   28.3980   49.4620 H   0  0  0  0  0  0  0  0  0  0  0  0
   44.7120   28.5080   48.3710 H   0  0  0  0  0  0  0  0  0  0  0  0
   47.2260   34.1050   42.1230 C   0  0  0  0  0  0  0  0  0  0  0  0
   48.1140   35.1210   41.8470 C   0  0  0  0  0  0  0  0  0  0  0  0
   48.6080   35.4210   40.6050 C   0  0  0  0  0  0  0  0  0  0  0  0
   48.1340   34.5980   39.5940 C   0  0  0  0  0  0  0  0  0  0  0  0
   47.2480   33.5790   39.8440 C   0  0  0  0  0  0  0  0  0  0  0  0
   46.7910   33.3310   41.1160 N   0  0  0  0  0  0  0  0  0  0  0  0
   48.4410   35.7230   42.6920 H   0  0  0  0  0  0  0  0  0  0  0  0
   49.3050   36.2280   40.4300 H   0  0  0  0  0  0  0  0  0  0  0  0
   48.4750   34.7670   38.5790 H   0  0  0  0  0  0  0  0  0  0  0  0
   46.7630   32.7380   38.8060 N   0  0  0  0  0  0  0  0  0  0  0  0
   47.5630   31.7030   38.1970 C   0  0  0  0  0  2  0  0  0  0  0  0
   47.0530   31.3150   36.8300 C   0  0  0  0  0  2  0  0  0  0  0  0
   46.5090   32.5050   36.0720 C   0  0  0  0  0  3  0  0  0  0  0  0
   47.3420   33.1790   35.7550 H   0  0  0  0  0  0  0  0  0  0  0  0
   45.5010   33.2970   36.8350 C   0  0  0  0  0  2  0  0  0  0  0  0
   45.4190   32.8640   38.2800 C   0  0  0  0  0  2  0  0  0  0  0  0
  1  2  1  0  0  0  0
  1  9  1  0  0  0  0
  2  7  1  0  0  0  0
  3  8  1  0  0  0  0
  3  2  2  0  0  0  0
  4  3  1  0  0  0  0
  5  4  2  0  0  0  0
  5  6  1  0  0  0  0
  6  1  2  0  0  0  0
  9 15  1  6  0  0  0
  9 14  1  0  0  0  0
 10  9  1  0  0  0  0
 10 11  1  0  0  0  0
 11 12  1  0  0  0  0
 12 21  1  0  0  0  0
 12 13  1  0  0  0  0
 12 20  1  0  0  0  0
 13 23  1  0  0  0  0
 14 25  1  0  0  0  0
 14 24  1  1  0  0  0
 14 13  1  0  0  0  0
 16 10  1  0  0  0  0
 17 10  1  0  0  0  0
 18 11  1  0  0  0  0
 19 11  1  0  0  0  0
 22 13  1  0  0  0  0
 25 26  1  0  0  0  0
 26 28  1  0  0  0  0
 26 27  2  0  0  0  0
 28 30  1  0  0  0  0
 29 25  1  0  0  0  0
 31 28  1  0  0  0  0
 32  5  1  0  0  0  0
 33 32  1  0  0  0  0
 33 38  1  0  0  0  0
 34 33  2  0  0  0  0
 35 36  2  0  0  0  0
 35 34  1  0  0  0  0
 36 37  1  0  0  0  0
 37 32  2  0  0  0  0
 39 34  1  0  0  0  0
 40 35  1  0  0  0  0
 41 36  1  0  0  0  0
 42 41  1  0  0  0  0
 43 42  1  0  0  0  0
 44 43  1  0  0  0  0
 44 46  1  0  0  0  0
 45 44  1  0  0  0  0
 46 47  1  0  0  0  0
 47 41  1  0  0  0  0
M  END
>  <minimizedAffinity>
-6.68941784

>  <minimizedRMSD>
0.274647236

$$$$
