
 OpenBabel03252507303D

 47 50  0  0  1  0  0  0  0  0999 V2000
   46.9860   32.7360   45.4960 C   0  0  0  0  0  0  0  0  0  0  0  0
   45.8990   33.4200   46.0220 C   0  0  0  0  0  0  0  0  0  0  0  0
   45.2160   34.3670   45.2220 C   0  0  0  0  0  0  0  0  0  0  0  0
   45.7030   34.5510   43.9290 N   0  0  0  0  0  0  0  0  0  0  0  0
   46.7580   33.8600   43.4870 C   0  0  0  0  0  0  0  0  0  0  0  0
   47.3870   32.9700   44.2540 N   0  0  0  0  0  0  0  0  0  0  0  0
   45.3910   33.4660   46.9650 H   0  0  0  0  0  0  0  0  0  0  0  0
   44.3800   34.9720   45.4470 H   0  0  0  0  0  0  0  0  0  0  0  0
   47.6370   31.7630   46.3490 C   0  0  2  0  0  0  0  0  0  0  0  0
   47.4170   30.3090   45.8270 C   0  0  0  0  0  0  0  0  0  0  0  0
   48.2490   29.3710   46.6360 C   0  0  0  0  0  0  0  0  0  0  0  0
   48.2070   29.5750   48.1140 C   0  0  0  0  0  0  0  0  0  0  0  0
   48.1770   30.9560   48.5230 C   0  0  0  0  0  0  0  0  0  0  0  0
   47.1810   31.8230   47.7230 C   0  0  2  0  0  0  0  0  0  0  0  0
   48.7440   31.8710   46.2580 H   0  0  0  0  0  0  0  0  0  0  0  0
   47.7820   30.3470   44.7810 H   0  0  0  0  0  0  0  0  0  0  0  0
   46.3630   30.0630   45.7660 H   0  0  0  0  0  0  0  0  0  0  0  0
   47.8830   28.3270   46.4510 H   0  0  0  0  0  0  0  0  0  0  0  0
   49.2550   29.3860   46.1680 H   0  0  0  0  0  0  0  0  0  0  0  0
   47.8370   28.7580   48.7350 H   0  0  0  0  0  0  0  0  0  0  0  0
   49.3190   29.3340   48.3570 H   0  0  0  0  0  0  0  0  0  0  0  0
   49.1260   31.5470   48.5130 H   0  0  0  0  0  0  0  0  0  0  0  0
   47.7980   31.0360   49.5810 H   0  0  0  0  0  0  0  0  0  0  0  0
   47.2770   32.7790   48.2410 H   0  0  0  0  0  0  0  0  0  0  0  0
   45.8500   31.2220   47.8350 N   0  0  0  0  0  0  0  0  0  0  0  0
   45.1610   30.6800   48.9340 C   0  0  0  0  0  0  0  0  0  0  0  0
   44.5980   31.4040   49.8320 O   0  0  0  0  0  0  0  0  0  0  0  0
   45.1260   29.2530   48.9720 N   0  0  0  0  0  0  0  0  0  0  0  0
   45.2180   31.0600   46.9620 H   0  0  0  0  0  0  0  0  0  0  0  0
   45.4260   28.3930   49.4730 H   0  0  0  0  0  0  0  0  0  0  0  0
   44.6990   28.5000   48.3820 H   0  0  0  0  0  0  0  0  0  0  0  0
   47.2300   34.1160   42.1220 C   0  0  0  0  0  0  0  0  0  0  0  0
   48.1310   35.1230   41.8560 C   0  0  0  0  0  0  0  0  0  0  0  0
   48.6250   35.4320   40.6150 C   0  0  0  0  0  0  0  0  0  0  0  0
   48.1370   34.6290   39.5960 C   0  0  0  0  0  0  0  0  0  0  0  0
   47.2370   33.6190   39.8360 C   0  0  0  0  0  0  0  0  0  0  0  0
   46.7820   33.3610   41.1070 N   0  0  0  0  0  0  0  0  0  0  0  0
   48.4690   35.7100   42.7070 H   0  0  0  0  0  0  0  0  0  0  0  0
   49.3330   36.2320   40.4480 H   0  0  0  0  0  0  0  0  0  0  0  0
   48.4760   34.8060   38.5820 H   0  0  0  0  0  0  0  0  0  0  0  0
   46.7370   32.7980   38.7890 N   0  0  0  0  0  0  0  0  0  0  0  0
   45.5430   33.1170   38.0440 C   0  0  0  0  0  2  0  0  0  0  0  0
   44.9420   31.9010   37.3810 C   0  0  0  0  0  2  0  0  0  0  0  0
   45.0900   30.6610   38.2350 C   0  0  0  0  0  3  0  0  0  0  0  0
   44.4140   30.7190   39.1230 H   0  0  0  0  0  0  0  0  0  0  0  0
   46.4860   30.4080   38.6950 C   0  0  0  0  0  2  0  0  0  0  0  0
   47.3990   31.5720   38.3930 C   0  0  0  0  0  2  0  0  0  0  0  0
  1  2  1  0  0  0  0
  1  9  1  0  0  0  0
  2  7  1  0  0  0  0
  3  8  1  0  0  0  0
  3  2  2  0  0  0  0
  4  3  1  0  0  0  0
  5  4  2  0  0  0  0
  5  6  1  0  0  0  0
  6  1  2  0  0  0  0
  9 15  1  6  0  0  0
  9 14  1  0  0  0  0
 10  9  1  0  0  0  0
 10 11  1  0  0  0  0
 11 12  1  0  0  0  0
 12 21  1  0  0  0  0
 12 13  1  0  0  0  0
 12 20  1  0  0  0  0
 13 23  1  0  0  0  0
 14 25  1  0  0  0  0
 14 24  1  1  0  0  0
 14 13  1  0  0  0  0
 16 10  1  0  0  0  0
 17 10  1  0  0  0  0
 18 11  1  0  0  0  0
 19 11  1  0  0  0  0
 22 13  1  0  0  0  0
 25 26  1  0  0  0  0
 26 28  1  0  0  0  0
 26 27  2  0  0  0  0
 28 30  1  0  0  0  0
 29 25  1  0  0  0  0
 31 28  1  0  0  0  0
 32  5  1  0  0  0  0
 33 32  1  0  0  0  0
 33 38  1  0  0  0  0
 34 33  2  0  0  0  0
 35 36  2  0  0  0  0
 35 34  1  0  0  0  0
 36 37  1  0  0  0  0
 37 32  2  0  0  0  0
 39 34  1  0  0  0  0
 40 35  1  0  0  0  0
 41 36  1  0  0  0  0
 42 41  1  0  0  0  0
 43 42  1  0  0  0  0
 43 44  1  0  0  0  0
 44 46  1  0  0  0  0
 44 45  1  0  0  0  0
 47 46  1  0  0  0  0
 47 41  1  0  0  0  0
M  END
>  <minimizedAffinity>
-6.35985184

>  <minimizedRMSD>
0.276178598

$$$$
