
 OpenBabel03252507303D

 47 50  0  0  1  0  0  0  0  0999 V2000
   46.9750   32.7440   45.5030 C   0  0  0  0  0  0  0  0  0  0  0  0
   45.8800   33.4080   46.0380 C   0  0  0  0  0  0  0  0  0  0  0  0
   45.1960   34.3700   45.2570 C   0  0  0  0  0  0  0  0  0  0  0  0
   45.6900   34.5890   43.9720 N   0  0  0  0  0  0  0  0  0  0  0  0
   46.7520   33.9150   43.5200 C   0  0  0  0  0  0  0  0  0  0  0  0
   47.3820   33.0110   44.2690 N   0  0  0  0  0  0  0  0  0  0  0  0
   45.3660   33.4280   46.9790 H   0  0  0  0  0  0  0  0  0  0  0  0
   44.3550   34.9630   45.4920 H   0  0  0  0  0  0  0  0  0  0  0  0
   47.6270   31.7540   46.3350 C   0  0  2  0  0  0  0  0  0  0  0  0
   47.3890   30.3090   45.7970 C   0  0  0  0  0  0  0  0  0  0  0  0
   48.2220   29.3540   46.5840 C   0  0  0  0  0  0  0  0  0  0  0  0
   48.1970   29.5390   48.0660 C   0  0  0  0  0  0  0  0  0  0  0  0
   48.1830   30.9150   48.4930 C   0  0  0  0  0  0  0  0  0  0  0  0
   47.1860   31.8000   47.7150 C   0  0  2  0  0  0  0  0  0  0  0  0
   48.7340   31.8540   46.2340 H   0  0  0  0  0  0  0  0  0  0  0  0
   47.7440   30.3590   44.7480 H   0  0  0  0  0  0  0  0  0  0  0  0
   46.3320   30.0730   45.7440 H   0  0  0  0  0  0  0  0  0  0  0  0
   47.8450   28.3150   46.3900 H   0  0  0  0  0  0  0  0  0  0  0  0
   49.2230   29.3670   46.1060 H   0  0  0  0  0  0  0  0  0  0  0  0
   47.8280   28.7170   48.6800 H   0  0  0  0  0  0  0  0  0  0  0  0
   49.3100   29.2860   48.2930 H   0  0  0  0  0  0  0  0  0  0  0  0
   49.1370   31.4980   48.4800 H   0  0  0  0  0  0  0  0  0  0  0  0
   47.8170   30.9840   49.5560 H   0  0  0  0  0  0  0  0  0  0  0  0
   47.2960   32.7480   48.2450 H   0  0  0  0  0  0  0  0  0  0  0  0
   45.8510   31.2080   47.8330 N   0  0  0  0  0  0  0  0  0  0  0  0
   45.1620   30.6740   48.9360 C   0  0  0  0  0  0  0  0  0  0  0  0
   44.6070   31.4050   49.8340 O   0  0  0  0  0  0  0  0  0  0  0  0
   45.1180   29.2480   48.9790 N   0  0  0  0  0  0  0  0  0  0  0  0
   45.2150   31.0480   46.9630 H   0  0  0  0  0  0  0  0  0  0  0  0
   45.4140   28.3870   49.4820 H   0  0  0  0  0  0  0  0  0  0  0  0
   44.6840   28.4960   48.3930 H   0  0  0  0  0  0  0  0  0  0  0  0
   47.2310   34.2080   42.1650 C   0  0  0  0  0  0  0  0  0  0  0  0
   48.2490   35.1100   41.9470 C   0  0  0  0  0  0  0  0  0  0  0  0
   48.7580   35.4440   40.7190 C   0  0  0  0  0  0  0  0  0  0  0  0
   48.1550   34.7840   39.6590 C   0  0  0  0  0  0  0  0  0  0  0  0
   47.1380   33.8800   39.8510 C   0  0  0  0  0  0  0  0  0  0  0  0
   46.6740   33.5910   41.1110 N   0  0  0  0  0  0  0  0  0  0  0  0
   48.6720   35.5870   42.8280 H   0  0  0  0  0  0  0  0  0  0  0  0
   49.5590   36.1580   40.5900 H   0  0  0  0  0  0  0  0  0  0  0  0
   48.4980   34.9890   38.6510 H   0  0  0  0  0  0  0  0  0  0  0  0
   46.5210   33.2070   38.7620 N   0  0  0  0  0  0  0  0  0  0  0  0
   45.0920   33.0510   38.6440 C   0  0  0  0  0  2  0  0  0  0  0  0
   44.7150   31.9050   37.7370 C   0  0  0  0  0  2  0  0  0  0  0  0
   45.6750   30.7430   37.8650 C   0  0  0  0  0  3  0  0  0  0  0  0
   45.5360   30.2300   38.8500 H   0  0  0  0  0  0  0  0  0  0  0  0
   47.1090   31.1250   37.7100 C   0  0  0  0  0  2  0  0  0  0  0  0
   47.2930   32.6240   37.6830 C   0  0  0  0  0  2  0  0  0  0  0  0
  1  2  1  0  0  0  0
  1  9  1  0  0  0  0
  2  7  1  0  0  0  0
  3  8  1  0  0  0  0
  3  2  2  0  0  0  0
  4  3  1  0  0  0  0
  5  4  2  0  0  0  0
  5  6  1  0  0  0  0
  6  1  2  0  0  0  0
  9 15  1  6  0  0  0
  9 14  1  0  0  0  0
 10  9  1  0  0  0  0
 10 11  1  0  0  0  0
 11 12  1  0  0  0  0
 12 21  1  0  0  0  0
 12 13  1  0  0  0  0
 12 20  1  0  0  0  0
 13 23  1  0  0  0  0
 14 25  1  0  0  0  0
 14 24  1  1  0  0  0
 14 13  1  0  0  0  0
 16 10  1  0  0  0  0
 17 10  1  0  0  0  0
 18 11  1  0  0  0  0
 19 11  1  0  0  0  0
 22 13  1  0  0  0  0
 25 26  1  0  0  0  0
 26 28  1  0  0  0  0
 26 27  2  0  0  0  0
 28 30  1  0  0  0  0
 29 25  1  0  0  0  0
 31 28  1  0  0  0  0
 32  5  1  0  0  0  0
 33 32  1  0  0  0  0
 33 38  1  0  0  0  0
 34 33  2  0  0  0  0
 35 36  2  0  0  0  0
 35 34  1  0  0  0  0
 36 37  1  0  0  0  0
 37 32  2  0  0  0  0
 39 34  1  0  0  0  0
 40 35  1  0  0  0  0
 41 36  1  0  0  0  0
 42 41  1  0  0  0  0
 43 44  1  0  0  0  0
 43 42  1  0  0  0  0
 44 45  1  0  0  0  0
 46 44  1  0  0  0  0
 47 46  1  0  0  0  0
 47 41  1  0  0  0  0
M  END
>  <minimizedAffinity>
-6.54882431

>  <minimizedRMSD>
0.231628865

$$$$
