
 OpenBabel03252503203D

 37 40  0  0  0  0  0  0  0  0999 V2000
   37.7930   31.7710   40.5740 C   0  0  0  0  0  0  0  0  0  0  0  0
   38.4970   30.9460   41.4220 C   0  0  0  0  0  0  0  0  0  0  0  0
   37.6320   29.9400   41.7300 N   0  0  0  0  0  0  0  0  0  0  0  0
   36.4800   30.1500   41.1030 C   0  0  0  0  0  0  0  0  0  0  0  0
   36.5600   31.2770   40.3840 N   0  0  0  0  0  0  0  0  0  0  0  0
   35.2830   29.4040   41.1120 N   0  0  0  0  0  0  0  0  0  0  0  0
   39.4950   31.0620   41.7640 H   0  0  0  0  0  0  0  0  0  0  0  0
   34.7400   29.0670   40.2940 H   0  0  0  0  0  0  0  0  0  0  0  0
   34.7800   29.0900   41.9720 H   0  0  0  0  0  0  0  0  0  0  0  0
   37.8730   28.7970   42.5920 C   0  0  0  0  0  0  0  0  0  0  0  0
   38.8510   28.9780   43.0990 H   0  0  0  0  0  0  0  0  0  0  0  0
   37.1310   28.8210   43.4430 H   0  0  0  0  0  0  0  0  0  0  0  0
   37.8180   27.5220   41.9320 N   0  0  0  0  0  0  0  0  0  0  0  0
   39.1680   27.0800   41.7010 C   0  0  0  0  0  2  0  0  0  0  0  0
   39.2860   25.6240   41.3760 C   0  0  0  0  0  2  0  0  0  0  0  0
   38.5130   24.7640   42.3500 C   0  0  0  0  0  3  0  0  0  0  0  0
   38.7610   25.0590   43.4110 H   0  0  0  0  0  0  0  0  0  0  0  0
   37.0510   25.2030   42.1730 C   0  0  0  0  0  2  0  0  0  0  0  0
   37.0410   26.6140   42.7160 C   0  0  0  0  0  2  0  0  0  0  0  0
   38.2930   33.0380   39.9390 C   0  0  0  0  0  0  0  0  0  0  0  0
   37.6610   34.1360   39.9300 O   0  0  0  0  0  0  0  0  0  0  0  0
   40.5760   33.9140   39.7520 C   0  0  0  0  0  0  0  0  0  0  0  0
   39.5560   33.0530   39.2900 C   0  0  0  0  0  0  0  0  0  0  0  0
   39.9060   32.2730   38.2020 C   0  0  0  0  0  0  0  0  0  0  0  0
   41.1020   32.3220   37.6270 N   0  0  0  0  0  0  0  0  0  0  0  0
   42.0600   33.1670   38.1020 C   0  0  0  0  0  0  0  0  0  0  0  0
   41.7800   33.9550   39.1650 N   0  0  0  0  0  0  0  0  0  0  0  0
   40.3490   34.5340   40.5910 H   0  0  0  0  0  0  0  0  0  0  0  0
   43.0370   33.2020   37.6280 H   0  0  0  0  0  0  0  0  0  0  0  0
   38.9270   31.3750   37.6790 C   0  0  0  0  0  0  0  0  0  0  0  0
   37.7690   31.5240   36.9730 C   0  0  0  0  0  0  0  0  0  0  0  0
   37.0460   30.4940   36.6080 C   0  0  0  0  0  0  0  0  0  0  0  0
   37.4950   29.2660   36.9590 C   0  0  0  0  0  0  0  0  0  0  0  0
   39.0360   29.6200   37.8610 S   0  0  0  0  0  0  0  0  0  0  0  0
   37.5110   32.5810   36.7490 H   0  0  0  0  0  0  0  0  0  0  0  0
   36.1190   30.5260   36.0500 H   0  0  0  0  0  0  0  0  0  0  0  0
   37.1020   28.2510   36.7910 H   0  0  0  0  0  0  0  0  0  0  0  0
  1  2  2  0  0  0  0
  2  3  1  0  0  0  0
  2  7  1  0  0  0  0
  3 10  1  0  0  0  0
  4  6  1  0  0  0  0
  4  3  1  0  0  0  0
  5  1  1  0  0  0  0
  5  4  2  0  0  0  0
  6  9  1  0  0  0  0
  8  6  1  0  0  0  0
 10 11  1  0  0  0  0
 10 12  1  0  0  0  0
 13 10  1  0  0  0  0
 13 19  1  0  0  0  0
 14 13  1  0  0  0  0
 15 14  1  0  0  0  0
 15 16  1  0  0  0  0
 16 17  1  0  0  0  0
 18 16  1  0  0  0  0
 18 19  1  0  0  0  0
 20  1  1  0  0  0  0
 21 20  2  0  0  0  0
 22 28  1  0  0  0  0
 23 22  1  0  0  0  0
 23 20  1  0  0  0  0
 24 23  2  0  0  0  0
 25 26  2  0  0  0  0
 25 24  1  0  0  0  0
 26 27  1  0  0  0  0
 27 22  2  0  0  0  0
 29 26  1  0  0  0  0
 30 34  1  0  0  0  0
 30 24  1  0  0  0  0
 31 30  2  0  0  0  0
 32 33  2  0  0  0  0
 32 31  1  0  0  0  0
 33 34  1  0  0  0  0
 35 31  1  0  0  0  0
 36 32  1  0  0  0  0
 37 33  1  0  0  0  0
M  END
>  <minimizedAffinity>
-5.95801306

$$$$

 OpenBabel03252503203D

 37 40  0  0  0  0  0  0  0  0999 V2000
   38.5760   30.7920   39.4590 C   0  0  0  0  0  0  0  0  0  0  0  0
   39.3740   29.7310   39.0960 C   0  0  0  0  0  0  0  0  0  0  0  0
   40.1100   30.1890   38.0450 N   0  0  0  0  0  0  0  0  0  0  0  0
   39.7710   31.4500   37.7950 C   0  0  0  0  0  0  0  0  0  0  0  0
   38.8250   31.8400   38.6580 N   0  0  0  0  0  0  0  0  0  0  0  0
   40.2370   32.3440   36.8090 N   0  0  0  0  0  0  0  0  0  0  0  0
   39.4140   28.7660   39.5350 H   0  0  0  0  0  0  0  0  0  0  0  0
   40.5870   33.3120   36.9460 H   0  0  0  0  0  0  0  0  0  0  0  0
   40.2890   32.1350   35.7870 H   0  0  0  0  0  0  0  0  0  0  0  0
   41.1150   29.4680   37.2860 C   0  0  0  0  0  0  0  0  0  0  0  0
   41.3120   28.5170   37.8360 H   0  0  0  0  0  0  0  0  0  0  0  0
   40.6550   29.1180   36.3160 H   0  0  0  0  0  0  0  0  0  0  0  0
   42.3150   30.2110   37.0160 N   0  0  0  0  0  0  0  0  0  0  0  0
   43.1850   30.0820   38.1550 C   0  0  0  0  0  2  0  0  0  0  0  0
   44.6060   30.4690   37.8840 C   0  0  0  0  0  2  0  0  0  0  0  0
   45.1360   29.8230   36.6250 C   0  0  0  0  0  3  0  0  0  0  0  0
   44.9150   28.7160   36.6310 H   0  0  0  0  0  0  0  0  0  0  0  0
   44.2400   30.3760   35.5040 C   0  0  0  0  0  2  0  0  0  0  0  0
   42.8940   29.7530   35.7930 C   0  0  0  0  0  2  0  0  0  0  0  0
   37.5680   30.8140   40.5740 C   0  0  0  0  0  0  0  0  0  0  0  0
   36.7550   31.7620   40.7910 O   0  0  0  0  0  0  0  0  0  0  0  0
   38.2960   29.6850   42.6260 C   0  0  0  0  0  0  0  0  0  0  0  0
   37.4830   29.7170   41.4710 C   0  0  0  0  0  0  0  0  0  0  0  0
   36.6460   28.6250   41.3230 C   0  0  0  0  0  0  0  0  0  0  0  0
   36.6020   27.6200   42.1900 N   0  0  0  0  0  0  0  0  0  0  0  0
   37.4040   27.6260   43.2930 C   0  0  0  0  0  0  0  0  0  0  0  0
   38.2430   28.6670   43.4940 N   0  0  0  0  0  0  0  0  0  0  0  0
   38.9570   30.5090   42.7800 H   0  0  0  0  0  0  0  0  0  0  0  0
   37.3620   26.8010   43.9990 H   0  0  0  0  0  0  0  0  0  0  0  0
   35.7930   28.5850   40.1790 C   0  0  0  0  0  0  0  0  0  0  0  0
   34.5910   29.1470   39.8590 C   0  0  0  0  0  0  0  0  0  0  0  0
   34.0180   28.9370   38.6990 C   0  0  0  0  0  0  0  0  0  0  0  0
   34.6690   28.1360   37.8220 C   0  0  0  0  0  0  0  0  0  0  0  0
   36.1800   27.6650   38.7200 S   0  0  0  0  0  0  0  0  0  0  0  0
   34.1620   29.7810   40.6630 H   0  0  0  0  0  0  0  0  0  0  0  0
   33.0710   29.3420   38.3690 H   0  0  0  0  0  0  0  0  0  0  0  0
   34.4300   27.7960   36.8030 H   0  0  0  0  0  0  0  0  0  0  0  0
  1 20  1  0  0  0  0
  2  1  2  0  0  0  0
  2  7  1  0  0  0  0
  3  2  1  0  0  0  0
  4  3  1  0  0  0  0
  4  5  2  0  0  0  0
  5  1  1  0  0  0  0
  6  8  1  0  0  0  0
  6  4  1  0  0  0  0
  9  6  1  0  0  0  0
 10 11  1  0  0  0  0
 10  3  1  0  0  0  0
 12 10  1  0  0  0  0
 13 10  1  0  0  0  0
 13 14  1  0  0  0  0
 15 14  1  0  0  0  0
 16 17  1  0  0  0  0
 16 15  1  0  0  0  0
 18 19  1  0  0  0  0
 18 16  1  0  0  0  0
 19 13  1  0  0  0  0
 20 21  2  0  0  0  0
 20 23  1  0  0  0  0
 22 28  1  0  0  0  0
 22 27  1  0  0  0  0
 23 22  2  0  0  0  0
 24 23  1  0  0  0  0
 24 25  2  0  0  0  0
 25 26  1  0  0  0  0
 26 27  2  0  0  0  0
 26 29  1  0  0  0  0
 30 24  1  0  0  0  0
 31 30  2  0  0  0  0
 31 35  1  0  0  0  0
 32 31  1  0  0  0  0
 33 32  2  0  0  0  0
 33 34  1  0  0  0  0
 34 30  1  0  0  0  0
 36 32  1  0  0  0  0
 37 33  1  0  0  0  0
M  END
>  <minimizedAffinity>
-5.74022818

$$$$

 OpenBabel03252503203D

 37 40  0  0  0  0  0  0  0  0999 V2000
   36.5280   30.2010   39.1600 C   0  0  0  0  0  0  0  0  0  0  0  0
   37.0320   31.1190   40.0540 C   0  0  0  0  0  0  0  0  0  0  0  0
   37.8760   31.8960   39.3210 N   0  0  0  0  0  0  0  0  0  0  0  0
   37.8770   31.4700   38.0630 C   0  0  0  0  0  0  0  0  0  0  0  0
   37.0500   30.4230   37.9430 N   0  0  0  0  0  0  0  0  0  0  0  0
   38.5890   31.9370   36.9390 N   0  0  0  0  0  0  0  0  0  0  0  0
   36.8130   31.2060   41.0900 H   0  0  0  0  0  0  0  0  0  0  0  0
   38.2080   32.1860   36.0060 H   0  0  0  0  0  0  0  0  0  0  0  0
   39.6220   32.0930   36.9070 H   0  0  0  0  0  0  0  0  0  0  0  0
   38.6680   33.0230   39.7820 C   0  0  0  0  0  0  0  0  0  0  0  0
   38.3100   33.9180   39.2200 H   0  0  0  0  0  0  0  0  0  0  0  0
   38.3830   33.2540   40.8490 H   0  0  0  0  0  0  0  0  0  0  0  0
   40.0890   32.8390   39.6850 N   0  0  0  0  0  0  0  0  0  0  0  0
   40.6930   34.1300   39.4840 C   0  0  0  0  0  2  0  0  0  0  0  0
   42.1670   34.1610   39.7430 C   0  0  0  0  0  2  0  0  0  0  0  0
   42.5220   33.5130   41.0610 C   0  0  0  0  0  3  0  0  0  0  0  0
   41.8630   33.9170   41.8850 H   0  0  0  0  0  0  0  0  0  0  0  0
   42.0680   32.0530   40.9050 C   0  0  0  0  0  2  0  0  0  0  0  0
   40.5620   32.1580   40.8490 C   0  0  0  0  0  2  0  0  0  0  0  0
   35.5450   29.1050   39.4600 C   0  0  0  0  0  0  0  0  0  0  0  0
   34.3880   29.2880   39.9430 O   0  0  0  0  0  0  0  0  0  0  0  0
   35.4680   27.1320   38.0050 C   0  0  0  0  0  0  0  0  0  0  0  0
   35.8930   27.7530   39.2000 C   0  0  0  0  0  0  0  0  0  0  0  0
   36.6420   26.9450   40.0370 C   0  0  0  0  0  0  0  0  0  0  0  0
   36.9420   25.6830   39.7520 N   0  0  0  0  0  0  0  0  0  0  0  0
   36.5120   25.1190   38.5870 C   0  0  0  0  0  0  0  0  0  0  0  0
   35.7770   25.8590   37.7270 N   0  0  0  0  0  0  0  0  0  0  0  0
   34.8870   27.7200   37.3290 H   0  0  0  0  0  0  0  0  0  0  0  0
   36.7620   24.0870   38.3590 H   0  0  0  0  0  0  0  0  0  0  0  0
   37.1090   27.5030   41.2650 C   0  0  0  0  0  0  0  0  0  0  0  0
   36.5530   27.7270   42.4900 C   0  0  0  0  0  0  0  0  0  0  0  0
   37.2350   28.2680   43.4700 C   0  0  0  0  0  0  0  0  0  0  0  0
   38.5240   28.5990   43.2190 C   0  0  0  0  0  0  0  0  0  0  0  0
   38.7580   28.1030   41.4830 S   0  0  0  0  0  0  0  0  0  0  0  0
   35.4910   27.4120   42.5670 H   0  0  0  0  0  0  0  0  0  0  0  0
   36.8700   28.4790   44.4670 H   0  0  0  0  0  0  0  0  0  0  0  0
   39.3120   29.0550   43.8380 H   0  0  0  0  0  0  0  0  0  0  0  0
  1 20  1  0  0  0  0
  1  2  2  0  0  0  0
  2  7  1  0  0  0  0
  3 10  1  0  0  0  0
  3  2  1  0  0  0  0
  4  3  1  0  0  0  0
  5  4  2  0  0  0  0
  5  1  1  0  0  0  0
  6  4  1  0  0  0  0
  8  6  1  0  0  0  0
  9  6  1  0  0  0  0
 10 12  1  0  0  0  0
 11 10  1  0  0  0  0
 13 10  1  0  0  0  0
 13 19  1  0  0  0  0
 14 13  1  0  0  0  0
 14 15  1  0  0  0  0
 15 16  1  0  0  0  0
 16 17  1  0  0  0  0
 18 16  1  0  0  0  0
 19 18  1  0  0  0  0
 20 21  2  0  0  0  0
 22 23  1  0  0  0  0
 23 20  1  0  0  0  0
 23 24  2  0  0  0  0
 24 30  1  0  0  0  0
 25 24  1  0  0  0  0
 26 25  2  0  0  0  0
 27 22  2  0  0  0  0
 27 26  1  0  0  0  0
 28 22  1  0  0  0  0
 29 26  1  0  0  0  0
 30 34  1  0  0  0  0
 30 31  2  0  0  0  0
 31 35  1  0  0  0  0
 31 32  1  0  0  0  0
 32 36  1  0  0  0  0
 33 32  2  0  0  0  0
 33 37  1  0  0  0  0
 34 33  1  0  0  0  0
M  END
>  <minimizedAffinity>
-5.6146946

$$$$

 OpenBabel03252503203D

 37 40  0  0  0  0  0  0  0  0999 V2000
   38.8920   31.8260   40.1600 C   0  0  0  0  0  0  0  0  0  0  0  0
   38.8760   30.5140   39.7440 C   0  0  0  0  0  0  0  0  0  0  0  0
   37.6490   30.0460   40.1060 N   0  0  0  0  0  0  0  0  0  0  0  0
   36.9710   31.0200   40.7030 C   0  0  0  0  0  0  0  0  0  0  0  0
   37.7220   32.1280   40.7450 N   0  0  0  0  0  0  0  0  0  0  0  0
   35.6750   31.0260   41.2590 N   0  0  0  0  0  0  0  0  0  0  0  0
   39.6480   29.9790   39.2480 H   0  0  0  0  0  0  0  0  0  0  0  0
   34.9090   31.7020   41.0740 H   0  0  0  0  0  0  0  0  0  0  0  0
   35.3170   30.3280   41.9480 H   0  0  0  0  0  0  0  0  0  0  0  0
   37.1120   28.7130   39.8980 C   0  0  0  0  0  0  0  0  0  0  0  0
   36.0040   28.7930   40.0050 H   0  0  0  0  0  0  0  0  0  0  0  0
   37.2480   28.4330   38.8120 H   0  0  0  0  0  0  0  0  0  0  0  0
   37.6800   27.6960   40.7390 N   0  0  0  0  0  0  0  0  0  0  0  0
   36.8240   27.5370   41.8850 C   0  0  0  0  0  2  0  0  0  0  0  0
   37.0610   26.2730   42.6520 C   0  0  0  0  0  2  0  0  0  0  0  0
   37.1120   25.0650   41.7460 C   0  0  0  0  0  3  0  0  0  0  0  0
   36.2250   25.0630   41.0470 H   0  0  0  0  0  0  0  0  0  0  0  0
   38.3130   25.3270   40.8230 C   0  0  0  0  0  2  0  0  0  0  0  0
   37.8590   26.4980   39.9820 C   0  0  0  0  0  2  0  0  0  0  0  0
   40.0240   32.8020   40.0020 C   0  0  0  0  0  0  0  0  0  0  0  0
   40.0830   33.9330   40.5700 O   0  0  0  0  0  0  0  0  0  0  0  0
   41.1060   32.8350   37.8010 C   0  0  0  0  0  0  0  0  0  0  0  0
   41.1250   32.4770   39.1670 C   0  0  0  0  0  0  0  0  0  0  0  0
   42.2700   31.8140   39.5750 C   0  0  0  0  0  0  0  0  0  0  0  0
   43.2760   31.5310   38.7560 N   0  0  0  0  0  0  0  0  0  0  0  0
   43.2190   31.8940   37.4440 C   0  0  0  0  0  0  0  0  0  0  0  0
   42.1270   32.5450   36.9850 N   0  0  0  0  0  0  0  0  0  0  0  0
   40.2410   33.3500   37.4440 H   0  0  0  0  0  0  0  0  0  0  0  0
   44.0460   31.6600   36.7790 H   0  0  0  0  0  0  0  0  0  0  0  0
   42.3640   31.4200   40.9440 C   0  0  0  0  0  0  0  0  0  0  0  0
   42.0200   30.3020   41.6460 C   0  0  0  0  0  0  0  0  0  0  0  0
   42.2310   30.2050   42.9360 C   0  0  0  0  0  0  0  0  0  0  0  0
   42.8080   31.2640   43.5510 C   0  0  0  0  0  0  0  0  0  0  0  0
   43.0560   32.4560   42.1980 S   0  0  0  0  0  0  0  0  0  0  0  0
   41.5550   29.5060   41.0260 H   0  0  0  0  0  0  0  0  0  0  0  0
   41.9880   29.3570   43.5630 H   0  0  0  0  0  0  0  0  0  0  0  0
   43.0940   31.4540   44.5970 H   0  0  0  0  0  0  0  0  0  0  0  0
  1  5  1  0  0  0  0
  2  3  1  0  0  0  0
  2  1  2  0  0  0  0
  3  4  1  0  0  0  0
  4  5  2  0  0  0  0
  4  6  1  0  0  0  0
  6  9  1  0  0  0  0
  7  2  1  0  0  0  0
  8  6  1  0  0  0  0
 10 11  1  0  0  0  0
 10  3  1  0  0  0  0
 10 13  1  0  0  0  0
 12 10  1  0  0  0  0
 13 14  1  0  0  0  0
 14 15  1  0  0  0  0
 16 15  1  0  0  0  0
 17 16  1  0  0  0  0
 18 16  1  0  0  0  0
 19 13  1  0  0  0  0
 19 18  1  0  0  0  0
 20  1  1  0  0  0  0
 20 21  2  0  0  0  0
 22 23  1  0  0  0  0
 23 24  2  0  0  0  0
 23 20  1  0  0  0  0
 24 30  1  0  0  0  0
 25 24  1  0  0  0  0
 26 25  2  0  0  0  0
 27 26  1  0  0  0  0
 27 22  2  0  0  0  0
 28 22  1  0  0  0  0
 29 26  1  0  0  0  0
 30 31  2  0  0  0  0
 30 34  1  0  0  0  0
 31 32  1  0  0  0  0
 32 33  2  0  0  0  0
 32 36  1  0  0  0  0
 33 37  1  0  0  0  0
 34 33  1  0  0  0  0
 35 31  1  0  0  0  0
M  END
>  <minimizedAffinity>
-5.511621

$$$$

 OpenBabel03252503203D

 37 40  0  0  0  0  0  0  0  0999 V2000
   37.8940   29.5290   42.1070 C   0  0  0  0  0  0  0  0  0  0  0  0
   39.1210   30.1520   42.0990 C   0  0  0  0  0  0  0  0  0  0  0  0
   38.9190   31.3160   41.4210 N   0  0  0  0  0  0  0  0  0  0  0  0
   37.6460   31.3850   41.0470 C   0  0  0  0  0  0  0  0  0  0  0  0
   36.9960   30.2900   41.4610 N   0  0  0  0  0  0  0  0  0  0  0  0
   36.9580   32.3790   40.3200 N   0  0  0  0  0  0  0  0  0  0  0  0
   40.0300   29.8060   42.5260 H   0  0  0  0  0  0  0  0  0  0  0  0
   36.0700   32.8520   40.5750 H   0  0  0  0  0  0  0  0  0  0  0  0
   37.2690   32.7730   39.4030 H   0  0  0  0  0  0  0  0  0  0  0  0
   39.8930   32.3520   41.1280 C   0  0  0  0  0  0  0  0  0  0  0  0
   39.5980   33.2480   41.7250 H   0  0  0  0  0  0  0  0  0  0  0  0
   40.8840   32.0550   41.5790 H   0  0  0  0  0  0  0  0  0  0  0  0
   40.0610   32.6450   39.7320 N   0  0  0  0  0  0  0  0  0  0  0  0
   40.9060   33.8040   39.6170 C   0  0  0  0  0  2  0  0  0  0  0  0
   41.4810   34.0060   38.2500 C   0  0  0  0  0  2  0  0  0  0  0  0
   42.0940   32.7380   37.7030 C   0  0  0  0  0  3  0  0  0  0  0  0
   42.7830   32.2760   38.4690 H   0  0  0  0  0  0  0  0  0  0  0  0
   40.9200   31.7520   37.6140 C   0  0  0  0  0  2  0  0  0  0  0  0
   40.5710   31.4910   39.0610 C   0  0  0  0  0  2  0  0  0  0  0  0
   37.5680   28.2010   42.7310 C   0  0  0  0  0  0  0  0  0  0  0  0
   36.5200   27.9580   43.4000 O   0  0  0  0  0  0  0  0  0  0  0  0
   39.2650   26.7060   43.6800 C   0  0  0  0  0  0  0  0  0  0  0  0
   38.4680   27.1130   42.5870 C   0  0  0  0  0  0  0  0  0  0  0  0
   38.6530   26.3750   41.4310 C   0  0  0  0  0  0  0  0  0  0  0  0
   39.5090   25.3640   41.3420 N   0  0  0  0  0  0  0  0  0  0  0  0
   40.2610   25.0020   42.4210 C   0  0  0  0  0  0  0  0  0  0  0  0
   40.1250   25.6830   43.5800 N   0  0  0  0  0  0  0  0  0  0  0  0
   39.1530   27.2470   44.5930 H   0  0  0  0  0  0  0  0  0  0  0  0
   40.9590   24.1730   42.3420 H   0  0  0  0  0  0  0  0  0  0  0  0
   37.8820   26.7260   40.2820 C   0  0  0  0  0  0  0  0  0  0  0  0
   36.6020   26.4860   39.8760 C   0  0  0  0  0  0  0  0  0  0  0  0
   36.1400   26.9470   38.7380 C   0  0  0  0  0  0  0  0  0  0  0  0
   36.9880   27.6780   37.9760 C   0  0  0  0  0  0  0  0  0  0  0  0
   38.5250   27.6960   38.9510 S   0  0  0  0  0  0  0  0  0  0  0  0
   36.0100   25.8750   40.5890 H   0  0  0  0  0  0  0  0  0  0  0  0
   35.1420   26.8020   38.3450 H   0  0  0  0  0  0  0  0  0  0  0  0
   36.8730   28.1760   37.0010 H   0  0  0  0  0  0  0  0  0  0  0  0
  1 20  1  0  0  0  0
  2  1  2  0  0  0  0
  2  7  1  0  0  0  0
  3  2  1  0  0  0  0
  4  3  1  0  0  0  0
  4  5  2  0  0  0  0
  5  1  1  0  0  0  0
  6  8  1  0  0  0  0
  6  4  1  0  0  0  0
  9  6  1  0  0  0  0
 10  3  1  0  0  0  0
 10 12  1  0  0  0  0
 10 11  1  0  0  0  0
 13 10  1  0  0  0  0
 14 13  1  0  0  0  0
 15 14  1  0  0  0  0
 16 15  1  0  0  0  0
 16 17  1  0  0  0  0
 18 16  1  0  0  0  0
 18 19  1  0  0  0  0
 19 13  1  0  0  0  0
 20 21  2  0  0  0  0
 22 28  1  0  0  0  0
 23 20  1  0  0  0  0
 23 22  2  0  0  0  0
 24 23  1  0  0  0  0
 25 24  2  0  0  0  0
 25 26  1  0  0  0  0
 26 27  2  0  0  0  0
 27 22  1  0  0  0  0
 29 26  1  0  0  0  0
 30 24  1  0  0  0  0
 31 30  2  0  0  0  0
 31 35  1  0  0  0  0
 32 31  1  0  0  0  0
 33 32  2  0  0  0  0
 33 34  1  0  0  0  0
 34 30  1  0  0  0  0
 36 32  1  0  0  0  0
 37 33  1  0  0  0  0
M  END
>  <minimizedAffinity>
-5.47827816

$$$$

 OpenBabel03252503203D

 37 40  0  0  0  0  0  0  0  0999 V2000
   38.5370   28.5360   40.8810 C   0  0  0  0  0  0  0  0  0  0  0  0
   39.0740   27.2990   41.1600 C   0  0  0  0  0  0  0  0  0  0  0  0
   38.3380   26.8240   42.2030 N   0  0  0  0  0  0  0  0  0  0  0  0
   37.4150   27.7230   42.5280 C   0  0  0  0  0  0  0  0  0  0  0  0
   37.5220   28.7880   41.7230 N   0  0  0  0  0  0  0  0  0  0  0  0
   36.4310   27.7000   43.5380 N   0  0  0  0  0  0  0  0  0  0  0  0
   39.8830   26.8160   40.6720 H   0  0  0  0  0  0  0  0  0  0  0  0
   35.4140   27.8800   43.4360 H   0  0  0  0  0  0  0  0  0  0  0  0
   36.6120   27.4920   44.5460 H   0  0  0  0  0  0  0  0  0  0  0  0
   38.4860   25.5510   42.8850 C   0  0  0  0  0  0  0  0  0  0  0  0
   39.5630   25.4620   43.1650 H   0  0  0  0  0  0  0  0  0  0  0  0
   37.9630   25.6120   43.8830 H   0  0  0  0  0  0  0  0  0  0  0  0
   38.0070   24.4140   42.1510 N   0  0  0  0  0  0  0  0  0  0  0  0
   36.7290   24.7560   41.5830 C   0  0  0  0  0  2  0  0  0  0  0  0
   36.2820   23.8340   40.4910 C   0  0  0  0  0  2  0  0  0  0  0  0
   37.3690   23.6010   39.4680 C   0  0  0  0  0  3  0  0  0  0  0  0
   37.8120   24.5850   39.1380 H   0  0  0  0  0  0  0  0  0  0  0  0
   38.5030   22.9300   40.2610 C   0  0  0  0  0  2  0  0  0  0  0  0
   38.9840   24.0270   41.1820 C   0  0  0  0  0  2  0  0  0  0  0  0
   38.9890   29.4870   39.8090 C   0  0  0  0  0  0  0  0  0  0  0  0
   39.7740   29.1840   38.8620 O   0  0  0  0  0  0  0  0  0  0  0  0
   39.2270   31.8100   40.5590 C   0  0  0  0  0  0  0  0  0  0  0  0
   38.5300   30.8310   39.8180 C   0  0  0  0  0  0  0  0  0  0  0  0
   37.4180   31.3010   39.1420 C   0  0  0  0  0  0  0  0  0  0  0  0
   37.0260   32.5690   39.1800 N   0  0  0  0  0  0  0  0  0  0  0  0
   37.7260   33.4850   39.9080 C   0  0  0  0  0  0  0  0  0  0  0  0
   38.8240   33.0870   40.5900 N   0  0  0  0  0  0  0  0  0  0  0  0
   40.0940   31.4910   41.0960 H   0  0  0  0  0  0  0  0  0  0  0  0
   37.4010   34.5210   39.9350 H   0  0  0  0  0  0  0  0  0  0  0  0
   36.6610   30.3690   38.3680 C   0  0  0  0  0  0  0  0  0  0  0  0
   35.6050   29.5450   38.6240 C   0  0  0  0  0  0  0  0  0  0  0  0
   35.0910   28.7740   37.6970 C   0  0  0  0  0  0  0  0  0  0  0  0
   35.6510   28.8280   36.4650 C   0  0  0  0  0  0  0  0  0  0  0  0
   36.9850   30.0510   36.6600 S   0  0  0  0  0  0  0  0  0  0  0  0
   35.2390   29.5940   39.6710 H   0  0  0  0  0  0  0  0  0  0  0  0
   34.2570   28.0950   37.8170 H   0  0  0  0  0  0  0  0  0  0  0  0
   35.4290   28.3060   35.5220 H   0  0  0  0  0  0  0  0  0  0  0  0
  1  2  2  0  0  0  0
  1  5  1  0  0  0  0
  2  3  1  0  0  0  0
  3  4  1  0  0  0  0
  3 10  1  0  0  0  0
  4  6  1  0  0  0  0
  5  4  2  0  0  0  0
  6  9  1  0  0  0  0
  7  2  1  0  0  0  0
  8  6  1  0  0  0  0
 10 11  1  0  0  0  0
 10 12  1  0  0  0  0
 13 10  1  0  0  0  0
 14 13  1  0  0  0  0
 15 14  1  0  0  0  0
 16 18  1  0  0  0  0
 16 15  1  0  0  0  0
 17 16  1  0  0  0  0
 18 19  1  0  0  0  0
 19 13  1  0  0  0  0
 20 23  1  0  0  0  0
 20  1  1  0  0  0  0
 21 20  2  0  0  0  0
 22 27  1  0  0  0  0
 22 28  1  0  0  0  0
 23 22  2  0  0  0  0
 24 25  2  0  0  0  0
 24 23  1  0  0  0  0
 25 26  1  0  0  0  0
 26 29  1  0  0  0  0
 26 27  2  0  0  0  0
 30 31  2  0  0  0  0
 30 24  1  0  0  0  0
 31 35  1  0  0  0  0
 32 36  1  0  0  0  0
 32 31  1  0  0  0  0
 33 34  1  0  0  0  0
 33 32  2  0  0  0  0
 34 30  1  0  0  0  0
 37 33  1  0  0  0  0
M  END
>  <minimizedAffinity>
-5.43040562

$$$$

 OpenBabel03252503203D

 37 40  0  0  0  0  0  0  0  0999 V2000
   38.1190   30.0140   38.9180 C   0  0  0  0  0  0  0  0  0  0  0  0
   39.3920   29.6460   39.2920 C   0  0  0  0  0  0  0  0  0  0  0  0
   40.2150   30.4830   38.6010 N   0  0  0  0  0  0  0  0  0  0  0  0
   39.4790   31.3030   37.8600 C   0  0  0  0  0  0  0  0  0  0  0  0
   38.1810   31.0290   38.0420 N   0  0  0  0  0  0  0  0  0  0  0  0
   39.8630   32.3290   36.9720 N   0  0  0  0  0  0  0  0  0  0  0  0
   39.6760   28.8790   39.9690 H   0  0  0  0  0  0  0  0  0  0  0  0
   39.5260   33.3110   36.9530 H   0  0  0  0  0  0  0  0  0  0  0  0
   40.5580   32.2230   36.1990 H   0  0  0  0  0  0  0  0  0  0  0  0
   41.6660   30.5230   38.6330 C   0  0  0  0  0  0  0  0  0  0  0  0
   41.9490   31.2790   39.4040 H   0  0  0  0  0  0  0  0  0  0  0  0
   42.0460   29.5530   39.0670 H   0  0  0  0  0  0  0  0  0  0  0  0
   42.2900   30.7670   37.3620 N   0  0  0  0  0  0  0  0  0  0  0  0
   43.5450   31.4300   37.6010 C   0  0  0  0  0  2  0  0  0  0  0  0
   44.4780   31.4100   36.4300 C   0  0  0  0  0  2  0  0  0  0  0  0
   44.6140   30.0250   35.8420 C   0  0  0  0  0  3  0  0  0  0  0  0
   44.8240   29.2730   36.6580 H   0  0  0  0  0  0  0  0  0  0  0  0
   43.1980   29.6700   35.3630 C   0  0  0  0  0  2  0  0  0  0  0  0
   42.4170   29.5340   36.6500 C   0  0  0  0  0  2  0  0  0  0  0  0
   36.8330   29.3980   39.3950 C   0  0  0  0  0  0  0  0  0  0  0  0
   35.9440   30.0120   40.0570 O   0  0  0  0  0  0  0  0  0  0  0  0
   36.0950   27.6660   37.8230 C   0  0  0  0  0  0  0  0  0  0  0  0
   36.5520   28.0370   39.1070 C   0  0  0  0  0  0  0  0  0  0  0  0
   36.6870   26.9870   39.9980 C   0  0  0  0  0  0  0  0  0  0  0  0
   36.4110   25.7260   39.6830 N   0  0  0  0  0  0  0  0  0  0  0  0
   35.9710   25.4090   38.4330 C   0  0  0  0  0  0  0  0  0  0  0  0
   35.8200   26.3920   37.5160 N   0  0  0  0  0  0  0  0  0  0  0  0
   35.9770   28.4460   37.1030 H   0  0  0  0  0  0  0  0  0  0  0  0
   35.7480   24.3760   38.1810 H   0  0  0  0  0  0  0  0  0  0  0  0
   37.1470   27.2820   41.3170 C   0  0  0  0  0  0  0  0  0  0  0  0
   36.5510   27.7140   42.4660 C   0  0  0  0  0  0  0  0  0  0  0  0
   37.2340   27.9040   43.5680 C   0  0  0  0  0  0  0  0  0  0  0  0
   38.5640   27.6530   43.5250 C   0  0  0  0  0  0  0  0  0  0  0  0
   38.8370   27.1180   41.8070 S   0  0  0  0  0  0  0  0  0  0  0  0
   35.4580   27.8830   42.3700 H   0  0  0  0  0  0  0  0  0  0  0  0
   36.8390   28.2440   44.5170 H   0  0  0  0  0  0  0  0  0  0  0  0
   39.3620   27.7240   44.2800 H   0  0  0  0  0  0  0  0  0  0  0  0
  1  2  2  0  0  0  0
  1 20  1  0  0  0  0
  2  7  1  0  0  0  0
  3 10  1  0  0  0  0
  3  2  1  0  0  0  0
  4  5  2  0  0  0  0
  4  3  1  0  0  0  0
  5  1  1  0  0  0  0
  6  4  1  0  0  0  0
  8  6  1  0  0  0  0
  9  6  1  0  0  0  0
 10 12  1  0  0  0  0
 10 11  1  0  0  0  0
 13 14  1  0  0  0  0
 13 10  1  0  0  0  0
 15 14  1  0  0  0  0
 16 15  1  0  0  0  0
 16 17  1  0  0  0  0
 18 16  1  0  0  0  0
 18 19  1  0  0  0  0
 19 13  1  0  0  0  0
 20 21  2  0  0  0  0
 22 23  1  0  0  0  0
 23 20  1  0  0  0  0
 23 24  2  0  0  0  0
 24 30  1  0  0  0  0
 25 24  1  0  0  0  0
 26 25  2  0  0  0  0
 27 22  2  0  0  0  0
 27 26  1  0  0  0  0
 28 22  1  0  0  0  0
 29 26  1  0  0  0  0
 30 34  1  0  0  0  0
 30 31  2  0  0  0  0
 31 32  1  0  0  0  0
 32 36  1  0  0  0  0
 33 32  2  0  0  0  0
 33 37  1  0  0  0  0
 34 33  1  0  0  0  0
 35 31  1  0  0  0  0
M  END
>  <minimizedAffinity>
-5.4009676

$$$$

 OpenBabel03252503203D

 37 40  0  0  0  0  0  0  0  0999 V2000
   37.0390   30.3150   40.6390 C   0  0  0  0  0  0  0  0  0  0  0  0
   38.4090   30.4320   40.6820 C   0  0  0  0  0  0  0  0  0  0  0  0
   38.6550   31.7570   40.4780 N   0  0  0  0  0  0  0  0  0  0  0  0
   37.4990   32.3930   40.3230 C   0  0  0  0  0  0  0  0  0  0  0  0
   36.4890   31.5190   40.4190 N   0  0  0  0  0  0  0  0  0  0  0  0
   37.2300   33.7560   40.0790 N   0  0  0  0  0  0  0  0  0  0  0  0
   39.1240   29.6630   40.8400 H   0  0  0  0  0  0  0  0  0  0  0  0
   36.5790   34.3770   40.5970 H   0  0  0  0  0  0  0  0  0  0  0  0
   37.6680   34.3260   39.3210 H   0  0  0  0  0  0  0  0  0  0  0  0
   39.9440   32.4220   40.4320 C   0  0  0  0  0  0  0  0  0  0  0  0
   39.8840   33.2860   41.1370 H   0  0  0  0  0  0  0  0  0  0  0  0
   40.7160   31.7510   40.9090 H   0  0  0  0  0  0  0  0  0  0  0  0
   40.3770   32.8080   39.1180 N   0  0  0  0  0  0  0  0  0  0  0  0
   41.3110   33.8940   39.2560 C   0  0  0  0  0  2  0  0  0  0  0  0
   42.1320   34.1510   38.0310 C   0  0  0  0  0  2  0  0  0  0  0  0
   42.7390   32.8810   37.4820 C   0  0  0  0  0  3  0  0  0  0  0  0
   43.2460   32.3020   38.3080 H   0  0  0  0  0  0  0  0  0  0  0  0
   41.5300   32.0110   37.1040 C   0  0  0  0  0  2  0  0  0  0  0  0
   40.9130   31.6690   38.4400 C   0  0  0  0  0  2  0  0  0  0  0  0
   36.2430   29.0510   40.8060 C   0  0  0  0  0  0  0  0  0  0  0  0
   34.9810   28.9780   40.7160 O   0  0  0  0  0  0  0  0  0  0  0  0
   37.1390   27.4410   42.4250 C   0  0  0  0  0  0  0  0  0  0  0  0
   36.9080   27.8290   41.0870 C   0  0  0  0  0  0  0  0  0  0  0  0
   37.3750   26.9360   40.1390 C   0  0  0  0  0  0  0  0  0  0  0  0
   37.9940   25.8030   40.4490 N   0  0  0  0  0  0  0  0  0  0  0  0
   38.1980   25.4650   41.7540 C   0  0  0  0  0  0  0  0  0  0  0  0
   37.7640   26.2960   42.7280 N   0  0  0  0  0  0  0  0  0  0  0  0
   36.7940   28.1010   43.1910 H   0  0  0  0  0  0  0  0  0  0  0  0
   38.7050   24.5360   42.0010 H   0  0  0  0  0  0  0  0  0  0  0  0
   37.1780   27.2580   38.7620 C   0  0  0  0  0  0  0  0  0  0  0  0
   37.9110   27.9120   37.8150 C   0  0  0  0  0  0  0  0  0  0  0  0
   37.4750   28.0640   36.5880 C   0  0  0  0  0  0  0  0  0  0  0  0
   36.2610   27.5430   36.2920 C   0  0  0  0  0  0  0  0  0  0  0  0
   35.7260   26.7990   37.8650 S   0  0  0  0  0  0  0  0  0  0  0  0
   38.8870   28.2920   38.1840 H   0  0  0  0  0  0  0  0  0  0  0  0
   37.9920   28.5680   35.7810 H   0  0  0  0  0  0  0  0  0  0  0  0
   35.6630   27.5220   35.3680 H   0  0  0  0  0  0  0  0  0  0  0  0
  1  2  2  0  0  0  0
  1 20  1  0  0  0  0
  2  7  1  0  0  0  0
  3  2  1  0  0  0  0
  4  5  2  0  0  0  0
  4  3  1  0  0  0  0
  5  1  1  0  0  0  0
  6  4  1  0  0  0  0
  6  8  1  0  0  0  0
  9  6  1  0  0  0  0
 10  3  1  0  0  0  0
 10 12  1  0  0  0  0
 10 11  1  0  0  0  0
 13 14  1  0  0  0  0
 13 10  1  0  0  0  0
 15 14  1  0  0  0  0
 16 15  1  0  0  0  0
 16 17  1  0  0  0  0
 18 16  1  0  0  0  0
 18 19  1  0  0  0  0
 19 13  1  0  0  0  0
 20 23  1  0  0  0  0
 21 20  2  0  0  0  0
 22 27  1  0  0  0  0
 22 28  1  0  0  0  0
 23 22  2  0  0  0  0
 24 25  2  0  0  0  0
 24 23  1  0  0  0  0
 25 26  1  0  0  0  0
 26 29  1  0  0  0  0
 26 27  2  0  0  0  0
 30 24  1  0  0  0  0
 31 35  1  0  0  0  0
 31 30  2  0  0  0  0
 32 31  1  0  0  0  0
 33 32  2  0  0  0  0
 33 34  1  0  0  0  0
 34 30  1  0  0  0  0
 36 32  1  0  0  0  0
 37 33  1  0  0  0  0
M  END
>  <minimizedAffinity>
-5.3540678

$$$$

 OpenBabel03252503203D

 37 40  0  0  0  0  0  0  0  0999 V2000
   36.7940   28.1170   41.4530 C   0  0  0  0  0  0  0  0  0  0  0  0
   36.8730   28.1300   40.0790 C   0  0  0  0  0  0  0  0  0  0  0  0
   36.6250   29.4220   39.7250 N   0  0  0  0  0  0  0  0  0  0  0  0
   36.4100   30.1390   40.8230 C   0  0  0  0  0  0  0  0  0  0  0  0
   36.5110   29.3500   41.9010 N   0  0  0  0  0  0  0  0  0  0  0  0
   36.1040   31.5070   40.9780 N   0  0  0  0  0  0  0  0  0  0  0  0
   37.0830   27.3160   39.4300 H   0  0  0  0  0  0  0  0  0  0  0  0
   36.5780   32.1970   41.5920 H   0  0  0  0  0  0  0  0  0  0  0  0
   35.3370   32.0090   40.4770 H   0  0  0  0  0  0  0  0  0  0  0  0
   36.5900   29.9840   38.3870 C   0  0  0  0  0  0  0  0  0  0  0  0
   35.9330   30.8850   38.4350 H   0  0  0  0  0  0  0  0  0  0  0  0
   37.6060   30.4150   38.1490 H   0  0  0  0  0  0  0  0  0  0  0  0
   36.1970   29.0640   37.3570 N   0  0  0  0  0  0  0  0  0  0  0  0
   34.7660   29.1310   37.2210 C   0  0  0  0  0  2  0  0  0  0  0  0
   34.2450   28.5310   35.9520 C   0  0  0  0  0  2  0  0  0  0  0  0
   35.0040   29.0230   34.7420 C   0  0  0  0  0  3  0  0  0  0  0  0
   35.0840   30.1490   34.7630 H   0  0  0  0  0  0  0  0  0  0  0  0
   36.4450   28.5420   34.9720 C   0  0  0  0  0  2  0  0  0  0  0  0
   36.9050   29.3660   36.1530 C   0  0  0  0  0  2  0  0  0  0  0  0
   36.9890   26.9260   42.3490 C   0  0  0  0  0  0  0  0  0  0  0  0
   36.6960   26.8990   43.5820 O   0  0  0  0  0  0  0  0  0  0  0  0
   36.6800   24.7300   41.3030 C   0  0  0  0  0  0  0  0  0  0  0  0
   37.5350   25.7270   41.8220 C   0  0  0  0  0  0  0  0  0  0  0  0
   38.8830   25.4200   41.7620 C   0  0  0  0  0  0  0  0  0  0  0  0
   39.3480   24.2820   41.2600 N   0  0  0  0  0  0  0  0  0  0  0  0
   38.4890   23.3440   40.7680 C   0  0  0  0  0  0  0  0  0  0  0  0
   37.1590   23.5860   40.7970 N   0  0  0  0  0  0  0  0  0  0  0  0
   35.6300   24.9260   41.3280 H   0  0  0  0  0  0  0  0  0  0  0  0
   38.8760   22.4160   40.3580 H   0  0  0  0  0  0  0  0  0  0  0  0
   39.8110   26.3790   42.2680 C   0  0  0  0  0  0  0  0  0  0  0  0
   40.3660   26.6260   43.4900 C   0  0  0  0  0  0  0  0  0  0  0  0
   41.2210   27.6020   43.6750 C   0  0  0  0  0  0  0  0  0  0  0  0
   41.5350   28.3630   42.6000 C   0  0  0  0  0  0  0  0  0  0  0  0
   40.5470   27.6310   41.2590 S   0  0  0  0  0  0  0  0  0  0  0  0
   40.0260   25.9320   44.2870 H   0  0  0  0  0  0  0  0  0  0  0  0
   41.7040   27.8630   44.6080 H   0  0  0  0  0  0  0  0  0  0  0  0
   42.2060   29.2260   42.4680 H   0  0  0  0  0  0  0  0  0  0  0  0
  1  5  1  0  0  0  0
  1 20  1  0  0  0  0
  2  1  2  0  0  0  0
  3  2  1  0  0  0  0
  3  4  1  0  0  0  0
  4  6  1  0  0  0  0
  4  5  2  0  0  0  0
  6  8  1  0  0  0  0
  7  2  1  0  0  0  0
  9  6  1  0  0  0  0
 10 11  1  0  0  0  0
 10  3  1  0  0  0  0
 12 10  1  0  0  0  0
 13 10  1  0  0  0  0
 14 13  1  0  0  0  0
 15 14  1  0  0  0  0
 16 17  1  0  0  0  0
 16 18  1  0  0  0  0
 16 15  1  0  0  0  0
 18 19  1  0  0  0  0
 19 13  1  0  0  0  0
 20 21  2  0  0  0  0
 22 28  1  0  0  0  0
 22 23  1  0  0  0  0
 23 20  1  0  0  0  0
 24 23  2  0  0  0  0
 24 30  1  0  0  0  0
 25 24  1  0  0  0  0
 26 27  1  0  0  0  0
 26 25  2  0  0  0  0
 27 22  2  0  0  0  0
 29 26  1  0  0  0  0
 30 31  2  0  0  0  0
 31 32  1  0  0  0  0
 31 35  1  0  0  0  0
 32 36  1  0  0  0  0
 33 32  2  0  0  0  0
 34 30  1  0  0  0  0
 34 33  1  0  0  0  0
 37 33  1  0  0  0  0
M  END
>  <minimizedAffinity>
-5.30160904

$$$$
