
 OpenBabel03252503523D

 19 20  0  0  0  0  0  0  0  0999 V2000
   37.5580   31.8600   39.6900 C   0  0  0  0  0  0  0  0  0  0  0  0
   37.8080   31.0230   40.7950 C   0  0  0  0  0  0  0  0  0  0  0  0
   37.4090   29.6880   40.7060 C   0  0  0  0  0  0  0  0  0  0  0  0
   36.8080   29.2690   39.5760 N   0  0  0  0  0  0  0  0  0  0  0  0
   36.5730   30.0880   38.5190 C   0  0  0  0  0  0  0  0  0  0  0  0
   36.9500   31.3820   38.5840 N   0  0  0  0  0  0  0  0  0  0  0  0
   38.2900   31.4130   41.6670 H   0  0  0  0  0  0  0  0  0  0  0  0
   36.0820   29.6780   37.6390 H   0  0  0  0  0  0  0  0  0  0  0  0
   37.6220   28.7890   41.7610 N   0  0  0  0  0  0  0  0  0  0  0  0
   36.9510   27.5090   41.8310 C   0  0  0  0  0  2  0  0  0  0  0  0
   36.9570   27.1030   43.3110 C   0  0  0  0  0  2  0  0  0  0  0  0
   38.3900   26.7240   43.6420 C   0  0  0  0  0  3  0  0  0  0  0  0
   38.6620   25.8250   43.0430 H   0  0  0  0  0  0  0  0  0  0  0  0
   39.2940   27.8800   43.2850 C   0  0  0  0  0  2  0  0  0  0  0  0
   38.5200   29.0940   42.8290 C   0  0  0  0  0  2  0  0  0  0  0  0
   37.9940   33.2840   39.8080 C   0  0  0  0  0  0  0  0  0  0  0  0
   37.0010   34.1610   39.4240 F   0  0  0  0  0  0  0  0  0  0  0  0
   38.3900   33.4980   41.1280 F   0  0  0  0  0  0  0  0  0  0  0  0
   39.1390   33.4810   39.0300 F   0  0  0  0  0  0  0  0  0  0  0  0
  1 16  1  0  0  0  0
  1  2  1  0  0  0  0
  2  7  1  0  0  0  0
  3  2  2  0  0  0  0
  3  9  1  0  0  0  0
  4  3  1  0  0  0  0
  5  6  1  0  0  0  0
  5  4  2  0  0  0  0
  6  1  2  0  0  0  0
  8  5  1  0  0  0  0
  9 10  1  0  0  0  0
  9 15  1  0  0  0  0
 10 11  1  0  0  0  0
 11 12  1  0  0  0  0
 13 12  1  0  0  0  0
 14 12  1  0  0  0  0
 15 14  1  0  0  0  0
 16 18  1  0  0  0  0
 17 16  1  0  0  0  0
 19 16  1  0  0  0  0
M  END
>  <minimizedAffinity>
-4.71913719

$$$$

 OpenBabel03252503523D

 19 20  0  0  0  0  0  0  0  0999 V2000
   38.3580   26.2080   42.4810 C   0  0  0  0  0  0  0  0  0  0  0  0
   37.5400   26.5140   41.3740 C   0  0  0  0  0  0  0  0  0  0  0  0
   36.9390   27.7730   41.3360 C   0  0  0  0  0  0  0  0  0  0  0  0
   37.1680   28.6290   42.3510 N   0  0  0  0  0  0  0  0  0  0  0  0
   37.9590   28.3200   43.4110 C   0  0  0  0  0  0  0  0  0  0  0  0
   38.5500   27.1080   43.4680 N   0  0  0  0  0  0  0  0  0  0  0  0
   37.3950   25.7930   40.5980 H   0  0  0  0  0  0  0  0  0  0  0  0
   38.0970   29.0620   44.1930 H   0  0  0  0  0  0  0  0  0  0  0  0
   36.1110   28.1560   40.2700 N   0  0  0  0  0  0  0  0  0  0  0  0
   35.2340   29.3040   40.3490 C   0  0  0  0  0  2  0  0  0  0  0  0
   34.1240   29.0650   39.3170 C   0  0  0  0  0  2  0  0  0  0  0  0
   34.7650   29.2530   37.9530 C   0  0  0  0  0  3  0  0  0  0  0  0
   35.0900   30.3150   37.8610 H   0  0  0  0  0  0  0  0  0  0  0  0
   35.9570   28.3330   37.8440 C   0  0  0  0  0  2  0  0  0  0  0  0
   36.0920   27.4260   39.0430 C   0  0  0  0  0  2  0  0  0  0  0  0
   38.9910   24.8560   42.5000 C   0  0  0  0  0  0  0  0  0  0  0  0
   39.7670   24.6330   41.3810 F   0  0  0  0  0  0  0  0  0  0  0  0
   39.7380   24.7540   43.6740 F   0  0  0  0  0  0  0  0  0  0  0  0
   37.9940   23.8810   42.5990 F   0  0  0  0  0  0  0  0  0  0  0  0
  1 16  1  0  0  0  0
  1  6  1  0  0  0  0
  2  1  2  0  0  0  0
  3  2  1  0  0  0  0
  3  4  2  0  0  0  0
  4  5  1  0  0  0  0
  5  6  2  0  0  0  0
  5  8  1  0  0  0  0
  7  2  1  0  0  0  0
  9 10  1  0  0  0  0
  9  3  1  0  0  0  0
 11 10  1  0  0  0  0
 12 11  1  0  0  0  0
 13 12  1  0  0  0  0
 14 12  1  0  0  0  0
 14 15  1  0  0  0  0
 15  9  1  0  0  0  0
 16 19  1  0  0  0  0
 16 18  1  0  0  0  0
 17 16  1  0  0  0  0
M  END
>  <minimizedAffinity>
-4.70166779

$$$$

 OpenBabel03252503523D

 19 20  0  0  0  0  0  0  0  0999 V2000
   37.8680   26.2810   42.0870 C   0  0  0  0  0  0  0  0  0  0  0  0
   37.4260   27.3200   41.2440 C   0  0  0  0  0  0  0  0  0  0  0  0
   37.9940   28.5840   41.4130 C   0  0  0  0  0  0  0  0  0  0  0  0
   38.9300   28.7480   42.3690 N   0  0  0  0  0  0  0  0  0  0  0  0
   39.3460   27.7370   43.1740 C   0  0  0  0  0  0  0  0  0  0  0  0
   38.8100   26.5070   43.0270 N   0  0  0  0  0  0  0  0  0  0  0  0
   36.6790   27.1300   40.5030 H   0  0  0  0  0  0  0  0  0  0  0  0
   40.1060   27.9450   43.9230 H   0  0  0  0  0  0  0  0  0  0  0  0
   37.6110   29.6720   40.6150 N   0  0  0  0  0  0  0  0  0  0  0  0
   37.9350   31.0380   40.9650 C   0  0  0  0  0  2  0  0  0  0  0  0
   36.9050   31.9190   40.2470 C   0  0  0  0  0  2  0  0  0  0  0  0
   37.2660   31.8790   38.7720 C   0  0  0  0  0  3  0  0  0  0  0  0
   38.2660   32.3530   38.6430 H   0  0  0  0  0  0  0  0  0  0  0  0
   37.3100   30.4380   38.3200 C   0  0  0  0  0  2  0  0  0  0  0  0
   36.8740   29.4840   39.4070 C   0  0  0  0  0  2  0  0  0  0  0  0
   37.2470   24.9380   41.8870 C   0  0  0  0  0  0  0  0  0  0  0  0
   38.1690   23.9200   42.0140 F   0  0  0  0  0  0  0  0  0  0  0  0
   36.2080   24.8100   42.8080 F   0  0  0  0  0  0  0  0  0  0  0  0
   36.6460   24.8910   40.6260 F   0  0  0  0  0  0  0  0  0  0  0  0
  1  6  1  0  0  0  0
  2  3  1  0  0  0  0
  2  1  2  0  0  0  0
  3  4  2  0  0  0  0
  4  5  1  0  0  0  0
  5  8  1  0  0  0  0
  6  5  2  0  0  0  0
  7  2  1  0  0  0  0
  9 10  1  0  0  0  0
  9  3  1  0  0  0  0
 11 10  1  0  0  0  0
 12 11  1  0  0  0  0
 13 12  1  0  0  0  0
 14 12  1  0  0  0  0
 14 15  1  0  0  0  0
 15  9  1  0  0  0  0
 16 17  1  0  0  0  0
 16  1  1  0  0  0  0
 16 18  1  0  0  0  0
 19 16  1  0  0  0  0
M  END
>  <minimizedAffinity>
-4.69942951

$$$$

 OpenBabel03252503523D

 19 20  0  0  0  0  0  0  0  0999 V2000
   36.7310   28.9870   41.3950 C   0  0  0  0  0  0  0  0  0  0  0  0
   36.7830   27.7070   40.8100 C   0  0  0  0  0  0  0  0  0  0  0  0
   37.4320   26.6930   41.5160 C   0  0  0  0  0  0  0  0  0  0  0  0
   37.9750   26.9870   42.7140 N   0  0  0  0  0  0  0  0  0  0  0  0
   37.9170   28.2260   43.2650 C   0  0  0  0  0  0  0  0  0  0  0  0
   37.2930   29.2210   42.5990 N   0  0  0  0  0  0  0  0  0  0  0  0
   36.3330   27.5330   39.8550 H   0  0  0  0  0  0  0  0  0  0  0  0
   38.3780   28.3880   44.2370 H   0  0  0  0  0  0  0  0  0  0  0  0
   37.5280   25.3900   41.0050 N   0  0  0  0  0  0  0  0  0  0  0  0
   38.4500   24.4150   41.5460 C   0  0  0  0  0  2  0  0  0  0  0  0
   38.6940   23.3920   40.4290 C   0  0  0  0  0  2  0  0  0  0  0  0
   37.4150   22.5820   40.3070 C   0  0  0  0  0  3  0  0  0  0  0  0
   37.2660   22.0170   41.2560 H   0  0  0  0  0  0  0  0  0  0  0  0
   36.2600   23.5270   40.0760 C   0  0  0  0  0  2  0  0  0  0  0  0
   36.7150   24.9580   39.9140 C   0  0  0  0  0  2  0  0  0  0  0  0
   36.0300   30.0560   40.6210 C   0  0  0  0  0  0  0  0  0  0  0  0
   36.7080   30.3850   39.4660 F   0  0  0  0  0  0  0  0  0  0  0  0
   34.7380   29.6050   40.3510 F   0  0  0  0  0  0  0  0  0  0  0  0
   35.8770   31.1860   41.4310 F   0  0  0  0  0  0  0  0  0  0  0  0
  1  6  1  0  0  0  0
  2  1  2  0  0  0  0
  2  3  1  0  0  0  0
  3  4  2  0  0  0  0
  4  5  1  0  0  0  0
  5  8  1  0  0  0  0
  6  5  2  0  0  0  0
  7  2  1  0  0  0  0
  9  3  1  0  0  0  0
  9 10  1  0  0  0  0
 11 10  1  0  0  0  0
 12 11  1  0  0  0  0
 12 13  1  0  0  0  0
 14 12  1  0  0  0  0
 15 14  1  0  0  0  0
 15  9  1  0  0  0  0
 16  1  1  0  0  0  0
 16 19  1  0  0  0  0
 17 16  1  0  0  0  0
 18 16  1  0  0  0  0
M  END
>  <minimizedAffinity>
-4.66047859

$$$$

 OpenBabel03252503523D

 19 20  0  0  0  0  0  0  0  0999 V2000
   35.5390   28.9460   39.8130 C   0  0  0  0  0  0  0  0  0  0  0  0
   36.2480   27.7700   40.1290 C   0  0  0  0  0  0  0  0  0  0  0  0
   37.1920   27.8330   41.1540 C   0  0  0  0  0  0  0  0  0  0  0  0
   37.3790   29.0070   41.7890 N   0  0  0  0  0  0  0  0  0  0  0  0
   36.6870   30.1320   41.4730 C   0  0  0  0  0  0  0  0  0  0  0  0
   35.7700   30.0930   40.4850 N   0  0  0  0  0  0  0  0  0  0  0  0
   36.0570   26.8660   39.5900 H   0  0  0  0  0  0  0  0  0  0  0  0
   36.8920   31.0440   42.0300 H   0  0  0  0  0  0  0  0  0  0  0  0
   37.9400   26.7080   41.5310 N   0  0  0  0  0  0  0  0  0  0  0  0
   39.1270   26.8100   42.3520 C   0  0  0  0  0  2  0  0  0  0  0  0
   39.9570   25.5520   42.0620 C   0  0  0  0  0  2  0  0  0  0  0  0
   39.2200   24.3960   42.7180 C   0  0  0  0  0  3  0  0  0  0  0  0
   39.2240   24.5590   43.8210 H   0  0  0  0  0  0  0  0  0  0  0  0
   37.8010   24.3680   42.2020 C   0  0  0  0  0  2  0  0  0  0  0  0
   37.5650   25.3930   41.1180 C   0  0  0  0  0  2  0  0  0  0  0  0
   34.5330   28.8540   38.7130 C   0  0  0  0  0  0  0  0  0  0  0  0
   33.2620   29.1690   39.1480 F   0  0  0  0  0  0  0  0  0  0  0  0
   34.9510   29.7000   37.6850 F   0  0  0  0  0  0  0  0  0  0  0  0
   34.5530   27.5640   38.1750 F   0  0  0  0  0  0  0  0  0  0  0  0
  1  2  2  0  0  0  0
  1  6  1  0  0  0  0
  2  3  1  0  0  0  0
  3  9  1  0  0  0  0
  3  4  2  0  0  0  0
  5  4  1  0  0  0  0
  5  8  1  0  0  0  0
  6  5  2  0  0  0  0
  7  2  1  0  0  0  0
  9 10  1  0  0  0  0
 11 10  1  0  0  0  0
 11 12  1  0  0  0  0
 12 13  1  0  0  0  0
 14 12  1  0  0  0  0
 15  9  1  0  0  0  0
 15 14  1  0  0  0  0
 16 17  1  0  0  0  0
 16  1  1  0  0  0  0
 18 16  1  0  0  0  0
 19 16  1  0  0  0  0
M  END
>  <minimizedAffinity>
-4.56776762

$$$$

 OpenBabel03252503523D

 19 20  0  0  0  0  0  0  0  0999 V2000
   36.9680   26.4500   41.0030 C   0  0  0  0  0  0  0  0  0  0  0  0
   37.2540   27.8230   40.8670 C   0  0  0  0  0  0  0  0  0  0  0  0
   37.0800   28.4040   39.6100 C   0  0  0  0  0  0  0  0  0  0  0  0
   36.6510   27.6290   38.5950 N   0  0  0  0  0  0  0  0  0  0  0  0
   36.3800   26.3060   38.7420 C   0  0  0  0  0  0  0  0  0  0  0  0
   36.5410   25.7250   39.9480 N   0  0  0  0  0  0  0  0  0  0  0  0
   37.5920   28.3880   41.7100 H   0  0  0  0  0  0  0  0  0  0  0  0
   36.0370   25.7440   37.8760 H   0  0  0  0  0  0  0  0  0  0  0  0
   37.3420   29.7640   39.3900 N   0  0  0  0  0  0  0  0  0  0  0  0
   37.4780   30.3180   38.0600 C   0  0  0  0  0  2  0  0  0  0  0  0
   38.3060   31.6010   38.2140 C   0  0  0  0  0  2  0  0  0  0  0  0
   37.3970   32.6160   38.8850 C   0  0  0  0  0  3  0  0  0  0  0  0
   36.5520   32.8390   38.1940 H   0  0  0  0  0  0  0  0  0  0  0  0
   36.8750   32.0250   40.1730 C   0  0  0  0  0  2  0  0  0  0  0  0
   37.4880   30.6790   40.4760 C   0  0  0  0  0  2  0  0  0  0  0  0
   37.1610   25.8510   42.3580 C   0  0  0  0  0  0  0  0  0  0  0  0
   38.4950   25.7500   42.6920 F   0  0  0  0  0  0  0  0  0  0  0  0
   36.4570   26.6340   43.2720 F   0  0  0  0  0  0  0  0  0  0  0  0
   36.5580   24.5900   42.3940 F   0  0  0  0  0  0  0  0  0  0  0  0
  1 16  1  0  0  0  0
  2  1  1  0  0  0  0
  2  7  1  0  0  0  0
  3  2  2  0  0  0  0
  4  5  2  0  0  0  0
  4  3  1  0  0  0  0
  5  6  1  0  0  0  0
  6  1  2  0  0  0  0
  8  5  1  0  0  0  0
  9  3  1  0  0  0  0
  9 15  1  0  0  0  0
 10 11  1  0  0  0  0
 10  9  1  0  0  0  0
 11 12  1  0  0  0  0
 12 14  1  0  0  0  0
 13 12  1  0  0  0  0
 14 15  1  0  0  0  0
 16 19  1  0  0  0  0
 16 17  1  0  0  0  0
 16 18  1  0  0  0  0
M  END
>  <minimizedAffinity>
-4.53713751

$$$$

 OpenBabel03252503523D

 19 20  0  0  0  0  0  0  0  0999 V2000
   40.1800   32.9800   39.0030 C   0  0  0  0  0  0  0  0  0  0  0  0
   39.2690   31.9050   38.9770 C   0  0  0  0  0  0  0  0  0  0  0  0
   38.1780   31.9530   39.8460 C   0  0  0  0  0  0  0  0  0  0  0  0
   38.0510   33.0170   40.6640 N   0  0  0  0  0  0  0  0  0  0  0  0
   38.9370   34.0450   40.6780 C   0  0  0  0  0  0  0  0  0  0  0  0
   39.9980   34.0190   39.8450 N   0  0  0  0  0  0  0  0  0  0  0  0
   39.4220   31.0870   38.3050 H   0  0  0  0  0  0  0  0  0  0  0  0
   38.7680   34.8700   41.3660 H   0  0  0  0  0  0  0  0  0  0  0  0
   37.2260   30.9240   39.8820 N   0  0  0  0  0  0  0  0  0  0  0  0
   36.2800   30.7860   40.9690 C   0  0  0  0  0  2  0  0  0  0  0  0
   35.8470   29.3140   40.9740 C   0  0  0  0  0  2  0  0  0  0  0  0
   34.9560   29.1290   39.7570 C   0  0  0  0  0  3  0  0  0  0  0  0
   34.0420   29.7520   39.8940 H   0  0  0  0  0  0  0  0  0  0  0  0
   35.7110   29.5760   38.5280 C   0  0  0  0  0  2  0  0  0  0  0  0
   37.1400   29.9520   38.8400 C   0  0  0  0  0  2  0  0  0  0  0  0
   41.3380   32.9080   38.0630 C   0  0  0  0  0  0  0  0  0  0  0  0
   41.7880   34.1610   37.7020 F   0  0  0  0  0  0  0  0  0  0  0  0
   42.3390   32.1590   38.6810 F   0  0  0  0  0  0  0  0  0  0  0  0
   40.9660   32.1830   36.9270 F   0  0  0  0  0  0  0  0  0  0  0  0
  1  6  1  0  0  0  0
  2  1  2  0  0  0  0
  2  3  1  0  0  0  0
  3  9  1  0  0  0  0
  3  4  2  0  0  0  0
  4  5  1  0  0  0  0
  5  8  1  0  0  0  0
  6  5  2  0  0  0  0
  7  2  1  0  0  0  0
  9 10  1  0  0  0  0
 10 11  1  0  0  0  0
 12 13  1  0  0  0  0
 12 11  1  0  0  0  0
 14 15  1  0  0  0  0
 14 12  1  0  0  0  0
 15  9  1  0  0  0  0
 16 18  1  0  0  0  0
 16  1  1  0  0  0  0
 17 16  1  0  0  0  0
 19 16  1  0  0  0  0
M  END
>  <minimizedAffinity>
-4.53275013

$$$$

 OpenBabel03252503523D

 19 20  0  0  0  0  0  0  0  0999 V2000
   37.1130   30.3740   38.9540 C   0  0  0  0  0  0  0  0  0  0  0  0
   37.3060   29.0090   39.2470 C   0  0  0  0  0  0  0  0  0  0  0  0
   36.9350   28.5560   40.5140 C   0  0  0  0  0  0  0  0  0  0  0  0
   36.4150   29.4390   41.3890 N   0  0  0  0  0  0  0  0  0  0  0  0
   36.2350   30.7510   41.0920 C   0  0  0  0  0  0  0  0  0  0  0  0
   36.5870   31.2110   39.8730 N   0  0  0  0  0  0  0  0  0  0  0  0
   37.7240   28.3550   38.5120 H   0  0  0  0  0  0  0  0  0  0  0  0
   35.8090   31.4050   41.8500 H   0  0  0  0  0  0  0  0  0  0  0  0
   37.0930   27.2120   40.8850 N   0  0  0  0  0  0  0  0  0  0  0  0
   37.0210   26.7800   42.2640 C   0  0  0  0  0  2  0  0  0  0  0  0
   37.7940   25.4560   42.3380 C   0  0  0  0  0  2  0  0  0  0  0  0
   36.9300   24.4200   41.6380 C   0  0  0  0  0  3  0  0  0  0  0  0
   35.9900   24.2960   42.2230 H   0  0  0  0  0  0  0  0  0  0  0  0
   36.6170   24.9090   40.2440 C   0  0  0  0  0  2  0  0  0  0  0  0
   37.3360   26.1950   39.9130 C   0  0  0  0  0  2  0  0  0  0  0  0
   37.5170   30.8370   37.5930 C   0  0  0  0  0  0  0  0  0  0  0  0
   38.8170   30.4850   37.2930 F   0  0  0  0  0  0  0  0  0  0  0  0
   36.6130   30.2990   36.6770 F   0  0  0  0  0  0  0  0  0  0  0  0
   37.3610   32.2240   37.5120 F   0  0  0  0  0  0  0  0  0  0  0  0
  1  2  2  0  0  0  0
  1  6  1  0  0  0  0
  2  3  1  0  0  0  0
  3  9  1  0  0  0  0
  3  4  2  0  0  0  0
  5  4  1  0  0  0  0
  5  8  1  0  0  0  0
  6  5  2  0  0  0  0
  7  2  1  0  0  0  0
  9 10  1  0  0  0  0
 10 11  1  0  0  0  0
 12 13  1  0  0  0  0
 12 11  1  0  0  0  0
 14 12  1  0  0  0  0
 15 14  1  0  0  0  0
 15  9  1  0  0  0  0
 16  1  1  0  0  0  0
 17 16  1  0  0  0  0
 18 16  1  0  0  0  0
 19 16  1  0  0  0  0
M  END
>  <minimizedAffinity>
-4.52803993

$$$$

 OpenBabel03252503523D

 19 20  0  0  0  0  0  0  0  0999 V2000
   37.1520   30.3980   37.7310 C   0  0  0  0  0  0  0  0  0  0  0  0
   37.2540   29.5010   38.8130 C   0  0  0  0  0  0  0  0  0  0  0  0
   37.5430   30.0280   40.0730 C   0  0  0  0  0  0  0  0  0  0  0  0
   37.7100   31.3600   40.1920 N   0  0  0  0  0  0  0  0  0  0  0  0
   37.6080   32.2120   39.1400 C   0  0  0  0  0  0  0  0  0  0  0  0
   37.3290   31.7240   37.9140 N   0  0  0  0  0  0  0  0  0  0  0  0
   37.1120   28.4520   38.6570 H   0  0  0  0  0  0  0  0  0  0  0  0
   37.7550   33.2760   39.3140 H   0  0  0  0  0  0  0  0  0  0  0  0
   37.6620   29.2030   41.2010 N   0  0  0  0  0  0  0  0  0  0  0  0
   38.2630   29.6650   42.4340 C   0  0  0  0  0  2  0  0  0  0  0  0
   38.7400   28.4080   43.1740 C   0  0  0  0  0  2  0  0  0  0  0  0
   37.4880   27.7100   43.6770 C   0  0  0  0  0  3  0  0  0  0  0  0
   36.9930   28.3740   44.4220 H   0  0  0  0  0  0  0  0  0  0  0  0
   36.5670   27.4600   42.5070 C   0  0  0  0  0  2  0  0  0  0  0  0
   37.1920   27.8550   41.1910 C   0  0  0  0  0  2  0  0  0  0  0  0
   36.8410   29.8110   36.3930 C   0  0  0  0  0  0  0  0  0  0  0  0
   37.7190   28.8030   36.0560 F   0  0  0  0  0  0  0  0  0  0  0  0
   35.5230   29.3590   36.4250 F   0  0  0  0  0  0  0  0  0  0  0  0
   36.8740   30.8230   35.4280 F   0  0  0  0  0  0  0  0  0  0  0  0
  1  6  2  0  0  0  0
  1  2  1  0  0  0  0
  2  3  2  0  0  0  0
  3  4  1  0  0  0  0
  3  9  1  0  0  0  0
  5  8  1  0  0  0  0
  5  4  2  0  0  0  0
  6  5  1  0  0  0  0
  7  2  1  0  0  0  0
  9 10  1  0  0  0  0
 10 11  1  0  0  0  0
 11 12  1  0  0  0  0
 12 13  1  0  0  0  0
 14 12  1  0  0  0  0
 15  9  1  0  0  0  0
 15 14  1  0  0  0  0
 16 18  1  0  0  0  0
 16  1  1  0  0  0  0
 17 16  1  0  0  0  0
 19 16  1  0  0  0  0
M  END
>  <minimizedAffinity>
-4.48166275

$$$$
