
 OpenBabel03252508243D

 39 43  0  0  1  0  0  0  0  0999 V2000
   46.6520   32.1380   46.0460 C   0  0  1  0  0  0  0  0  0  0  0  0
   46.8020   32.5040   47.4620 C   0  0  0  0  0  0  0  0  0  0  0  0
   45.5330   31.7590   46.8860 C   0  0  2  0  0  0  0  0  0  0  0  0
   47.5650   31.4800   45.8140 H   0  0  0  0  0  0  0  0  0  0  0  0
   46.6570   33.5360   47.8210 H   0  0  0  0  0  0  0  0  0  0  0  0
   47.2820   31.8660   48.2210 H   0  0  0  0  0  0  0  0  0  0  0  0
   44.7060   32.4670   47.1920 H   0  0  0  0  0  0  0  0  0  0  0  0
   45.2310   30.3950   47.3260 C   0  0  0  0  0  0  0  0  0  0  0  0
   45.1370   29.9420   48.6070 C   0  0  0  0  0  0  0  0  0  0  0  0
   44.9780   28.6180   48.9950 C   0  0  0  0  0  0  0  0  0  0  0  0
   44.9120   27.6720   47.9540 C   0  0  0  0  0  0  0  0  0  0  0  0
   45.0030   28.1050   46.6310 C   0  0  0  0  0  0  0  0  0  0  0  0
   44.8700   27.1490   45.6420 C   0  0  0  0  0  0  0  0  0  0  0  0
   44.8840   27.5470   44.3150 C   0  0  0  0  0  0  0  0  0  0  0  0
   45.0240   28.8780   43.9800 C   0  0  0  0  0  0  0  0  0  0  0  0
   45.1550   29.7900   45.0020 C   0  0  0  0  0  0  0  0  0  0  0  0
   45.1560   29.4420   46.3400 C   0  0  0  0  0  0  0  0  0  0  0  0
   45.1930   30.7050   49.3760 H   0  0  0  0  0  0  0  0  0  0  0  0
   44.9100   28.3270   50.0320 H   0  0  0  0  0  0  0  0  0  0  0  0
   44.7940   26.6370   48.1990 H   0  0  0  0  0  0  0  0  0  0  0  0
   44.7590   26.1070   45.9380 H   0  0  0  0  0  0  0  0  0  0  0  0
   44.7740   26.7020   43.6170 H   0  0  0  0  0  0  0  0  0  0  0  0
   45.0080   28.9860   42.9110 H   0  0  0  0  0  0  0  0  0  0  0  0
   45.1600   30.7190   44.5070 H   0  0  0  0  0  0  0  0  0  0  0  0
   45.3500   35.0840   44.2480 C   0  0  0  0  0  0  0  0  0  0  0  0
   46.0840   35.0470   43.0130 C   0  0  0  0  0  0  0  0  0  0  0  0
   47.0290   33.9810   42.8550 C   0  0  0  0  0  0  0  0  0  0  0  0
   47.1910   33.0890   43.8310 N   0  0  0  0  0  0  0  0  0  0  0  0
   46.4560   33.1780   44.9970 C   0  0  0  0  0  0  0  0  0  0  0  0
   45.5670   34.1460   45.1920 N   0  0  0  0  0  0  0  0  0  0  0  0
   44.6450   35.8890   44.3490 H   0  0  0  0  0  0  0  0  0  0  0  0
   45.9270   35.7810   42.2560 H   0  0  0  0  0  0  0  0  0  0  0  0
   47.7380   33.9690   41.6250 N   0  0  0  0  0  0  0  0  0  0  0  0
   47.0480   34.2670   40.3870 C   0  0  0  0  0  0  0  0  0  0  0  0
   48.0720   34.1430   39.2650 C   0  0  0  0  0  0  0  0  0  0  0  0
   48.8070   32.8430   39.2730 C   0  0  0  0  0  0  0  0  0  0  0  0
   49.7440   33.0000   38.6690 H   0  0  0  0  0  0  0  0  0  0  0  0
   49.2590   32.4400   40.6590 C   0  0  0  0  0  0  0  0  0  0  0  0
   49.1520   33.6670   41.5410 C   0  0  0  0  0  0  0  0  0  0  0  0
  1  4  1  6  0  0  0
  1  3  1  0  0  0  0
  1  2  1  0  0  0  0
  2  5  1  0  0  0  0
  2  6  1  0  0  0  0
  3  7  1  6  0  0  0
  3  8  1  0  0  0  0
  3  2  1  0  0  0  0
  8  9  1  0  0  0  0
  9 10  2  0  0  0  0
  9 18  1  0  0  0  0
 10 19  1  0  0  0  0
 11 20  1  0  0  0  0
 11 10  1  0  0  0  0
 12 11  2  0  0  0  0
 13 21  1  0  0  0  0
 13 12  1  0  0  0  0
 14 13  2  0  0  0  0
 15 14  1  0  0  0  0
 15 16  2  0  0  0  0
 16 17  1  0  0  0  0
 17 12  1  0  0  0  0
 17  8  2  0  0  0  0
 22 14  1  0  0  0  0
 23 15  1  0  0  0  0
 24 16  1  0  0  0  0
 25 31  1  0  0  0  0
 25 30  1  0  0  0  0
 26 25  2  0  0  0  0
 27 26  1  0  0  0  0
 27 28  2  0  0  0  0
 28 29  1  0  0  0  0
 29 30  2  0  0  0  0
 29  1  1  0  0  0  0
 32 26  1  0  0  0  0
 33 27  1  0  0  0  0
 34 33  1  0  0  0  0
 35 36  1  0  0  0  0
 35 34  1  0  0  0  0
 36 38  1  0  0  0  0
 37 36  1  0  0  0  0
 38 39  1  0  0  0  0
 39 33  1  0  0  0  0
M  END
>  <minimizedAffinity>
-5.10091305

>  <minimizedRMSD>
1.56108701

$$$$
