
 OpenBabel03252509273D

 28 30  0  0  1  0  0  0  0  0999 V2000
   37.8750   30.8610   38.7660 C   0  0  1  0  0  0  0  0  0  0  0  0
   38.7720   29.6120   38.5200 C   0  0  0  0  0  0  0  0  0  0  0  0
   37.8200   29.8230   39.7120 C   0  0  2  0  0  0  0  0  0  0  0  0
   37.1260   31.0050   37.9710 H   0  0  0  0  0  0  0  0  0  0  0  0
   38.4060   28.9060   37.7320 H   0  0  0  0  0  0  0  0  0  0  0  0
   39.8440   29.6890   38.6500 H   0  0  0  0  0  0  0  0  0  0  0  0
   38.4130   29.8010   40.6750 H   0  0  0  0  0  0  0  0  0  0  0  0
   39.1750   34.1370   40.0580 C   0  0  0  0  0  0  0  0  0  0  0  0
   38.2730   33.0670   39.8180 C   0  0  0  0  0  0  0  0  0  0  0  0
   38.7370   32.0740   39.0250 C   0  0  0  0  0  0  0  0  0  0  0  0
   40.0080   32.1020   38.4820 N   0  0  0  0  0  0  0  0  0  0  0  0
   40.8420   33.1330   38.7310 C   0  0  0  0  0  0  0  0  0  0  0  0
   40.4200   34.1610   39.5270 N   0  0  0  0  0  0  0  0  0  0  0  0
   38.8190   34.9350   40.6900 H   0  0  0  0  0  0  0  0  0  0  0  0
   41.8210   33.1130   38.2870 H   0  0  0  0  0  0  0  0  0  0  0  0
   36.9590   33.0490   40.3460 N   0  0  0  0  0  0  0  0  0  0  0  0
   36.6350   33.2830   41.3170 H   0  0  0  0  0  0  0  0  0  0  0  0
   36.1730   32.7710   39.7180 H   0  0  0  0  0  0  0  0  0  0  0  0
   36.6080   28.9290   39.8340 C   0  0  0  0  0  0  0  0  0  0  0  0
   35.7050   29.5430   39.6200 H   0  0  0  0  0  0  0  0  0  0  0  0
   36.6160   28.0940   39.1140 H   0  0  0  0  0  0  0  0  0  0  0  0
   36.4830   28.4710   41.2050 N   0  0  0  0  0  0  0  0  0  0  0  0
   37.2420   29.3050   42.0910 C   0  0  0  0  0  2  0  0  0  0  0  0
   37.4910   28.6640   43.4170 C   0  0  0  0  0  2  0  0  0  0  0  0
   36.5890   27.4400   43.5770 C   0  0  0  0  0  3  0  0  0  0  0  0
   36.6880   27.0310   44.6020 H   0  0  0  0  0  0  0  0  0  0  0  0
   37.0700   26.4640   42.5320 C   0  0  0  0  0  2  0  0  0  0  0  0
   37.0310   27.1280   41.1970 C   0  0  0  0  0  2  0  0  0  0  0  0
  1  4  1  6  0  0  0
  1 10  1  0  0  0  0
  1  3  1  0  0  0  0
  2  6  1  0  0  0  0
  2  1  1  0  0  0  0
  2  3  1  0  0  0  0
  3 19  1  0  0  0  0
  3  7  1  1  0  0  0
  5  2  1  0  0  0  0
  8 14  1  0  0  0  0
  9  8  1  0  0  0  0
  9 16  1  0  0  0  0
 10  9  2  0  0  0  0
 11 12  2  0  0  0  0
 11 10  1  0  0  0  0
 12 13  1  0  0  0  0
 13  8  2  0  0  0  0
 15 12  1  0  0  0  0
 16 17  1  0  0  0  0
 18 16  1  0  0  0  0
 19 22  1  0  0  0  0
 20 19  1  0  0  0  0
 21 19  1  0  0  0  0
 22 23  1  0  0  0  0
 23 24  1  0  0  0  0
 24 25  1  0  0  0  0
 25 26  1  0  0  0  0
 27 25  1  0  0  0  0
 28 22  1  0  0  0  0
 28 27  1  0  0  0  0
M  END
>  <minimizedAffinity>
-5.08078194

$$$$

 OpenBabel03252509273D

 28 30  0  0  1  0  0  0  0  0999 V2000
   36.7950   31.4020   40.1650 C   0  0  1  0  0  0  0  0  0  0  0  0
   36.6880   30.6930   38.7820 C   0  0  0  0  0  0  0  0  0  0  0  0
   36.7870   29.9960   40.1520 C   0  0  2  0  0  0  0  0  0  0  0  0
   35.9110   32.0170   40.3940 H   0  0  0  0  0  0  0  0  0  0  0  0
   35.6690   30.6990   38.3190 H   0  0  0  0  0  0  0  0  0  0  0  0
   37.5340   30.7050   38.1080 H   0  0  0  0  0  0  0  0  0  0  0  0
   37.7140   29.3490   40.1790 H   0  0  0  0  0  0  0  0  0  0  0  0
   39.4040   34.1020   40.1520 C   0  0  0  0  0  0  0  0  0  0  0  0
   38.1460   33.4680   39.9690 C   0  0  0  0  0  0  0  0  0  0  0  0
   38.1050   32.1480   40.2630 C   0  0  0  0  0  0  0  0  0  0  0  0
   39.2180   31.4620   40.7110 N   0  0  0  0  0  0  0  0  0  0  0  0
   40.3990   32.0930   40.8750 C   0  0  0  0  0  0  0  0  0  0  0  0
   40.4920   33.4270   40.5920 N   0  0  0  0  0  0  0  0  0  0  0  0
   39.4510   35.1540   39.9230 H   0  0  0  0  0  0  0  0  0  0  0  0
   41.2380   31.5190   41.2250 H   0  0  0  0  0  0  0  0  0  0  0  0
   37.0110   34.1610   39.4810 N   0  0  0  0  0  0  0  0  0  0  0  0
   36.6470   35.1070   39.7550 H   0  0  0  0  0  0  0  0  0  0  0  0
   36.4270   33.7050   38.7460 H   0  0  0  0  0  0  0  0  0  0  0  0
   35.5960   29.2090   40.6490 C   0  0  0  0  0  0  0  0  0  0  0  0
   35.0520   29.8380   41.3870 H   0  0  0  0  0  0  0  0  0  0  0  0
   34.8840   28.9560   39.8460 H   0  0  0  0  0  0  0  0  0  0  0  0
   36.0590   28.0350   41.3640 N   0  0  0  0  0  0  0  0  0  0  0  0
   36.9580   28.4030   42.4190 C   0  0  0  0  0  2  0  0  0  0  0  0
   37.7750   27.2540   42.9110 C   0  0  0  0  0  2  0  0  0  0  0  0
   37.1920   25.9430   42.3840 C   0  0  0  0  0  3  0  0  0  0  0  0
   37.7240   25.0840   42.8380 H   0  0  0  0  0  0  0  0  0  0  0  0
   37.3910   26.0020   40.8890 C   0  0  0  0  0  2  0  0  0  0  0  0
   36.7600   27.2480   40.3670 C   0  0  0  0  0  2  0  0  0  0  0  0
  1 10  1  0  0  0  0
  1  4  1  1  0  0  0
  2  3  1  0  0  0  0
  2  1  1  0  0  0  0
  3  1  1  0  0  0  0
  3  7  1  1  0  0  0
  3 19  1  0  0  0  0
  5  2  1  0  0  0  0
  6  2  1  0  0  0  0
  8 13  1  0  0  0  0
  9  8  2  0  0  0  0
  9 10  1  0  0  0  0
 10 11  2  0  0  0  0
 11 12  1  0  0  0  0
 12 15  1  0  0  0  0
 13 12  2  0  0  0  0
 14  8  1  0  0  0  0
 16 17  1  0  0  0  0
 16  9  1  0  0  0  0
 18 16  1  0  0  0  0
 19 22  1  0  0  0  0
 19 20  1  0  0  0  0
 21 19  1  0  0  0  0
 22 23  1  0  0  0  0
 23 24  1  0  0  0  0
 25 26  1  0  0  0  0
 25 24  1  0  0  0  0
 27 25  1  0  0  0  0
 28 27  1  0  0  0  0
 28 22  1  0  0  0  0
M  END
>  <minimizedAffinity>
-5.07826328

$$$$

 OpenBabel03252509273D

 28 30  0  0  1  0  0  0  0  0999 V2000
   37.2390   26.7360   42.2320 C   0  0  1  0  0  0  0  0  0  0  0  0
   36.4230   27.3340   43.4170 C   0  0  0  0  0  0  0  0  0  0  0  0
   36.9290   28.1060   42.1840 C   0  0  2  0  0  0  0  0  0  0  0  0
   36.6810   25.9630   41.6820 H   0  0  0  0  0  0  0  0  0  0  0  0
   35.3300   27.0910   43.4160 H   0  0  0  0  0  0  0  0  0  0  0  0
   36.8970   27.4630   44.3810 H   0  0  0  0  0  0  0  0  0  0  0  0
   37.6250   28.9330   42.5180 H   0  0  0  0  0  0  0  0  0  0  0  0
   40.2440   24.6500   43.0790 C   0  0  0  0  0  0  0  0  0  0  0  0
   38.9240   24.9740   42.6670 C   0  0  0  0  0  0  0  0  0  0  0  0
   38.5980   26.2860   42.7150 C   0  0  0  0  0  0  0  0  0  0  0  0
   39.4940   27.2490   43.1420 N   0  0  0  0  0  0  0  0  0  0  0  0
   40.7410   26.9090   43.5270 C   0  0  0  0  0  0  0  0  0  0  0  0
   41.1190   25.5950   43.4950 N   0  0  0  0  0  0  0  0  0  0  0  0
   40.5180   23.6080   43.0440 H   0  0  0  0  0  0  0  0  0  0  0  0
   41.4030   27.6910   43.8520 H   0  0  0  0  0  0  0  0  0  0  0  0
   37.9940   23.9870   42.2580 N   0  0  0  0  0  0  0  0  0  0  0  0
   38.1380   23.1690   41.6170 H   0  0  0  0  0  0  0  0  0  0  0  0
   37.0160   24.0430   42.6200 H   0  0  0  0  0  0  0  0  0  0  0  0
   35.9120   28.6520   41.2080 C   0  0  0  0  0  0  0  0  0  0  0  0
   35.9670   28.0430   40.2790 H   0  0  0  0  0  0  0  0  0  0  0  0
   34.8790   28.5870   41.5840 H   0  0  0  0  0  0  0  0  0  0  0  0
   36.2790   30.0060   40.8380 N   0  0  0  0  0  0  0  0  0  0  0  0
   36.2160   30.1810   39.4160 C   0  0  0  0  0  2  0  0  0  0  0  0
   36.9620   31.3860   38.9470 C   0  0  0  0  0  2  0  0  0  0  0  0
   37.3050   32.2780   40.1400 C   0  0  0  0  0  3  0  0  0  0  0  0
   37.7550   33.2260   39.7850 H   0  0  0  0  0  0  0  0  0  0  0  0
   38.2740   31.4680   40.9660 C   0  0  0  0  0  2  0  0  0  0  0  0
   37.6480   30.1560   41.2960 C   0  0  0  0  0  2  0  0  0  0  0  0
  1  4  1  6  0  0  0
  1 10  1  0  0  0  0
  1  2  1  0  0  0  0
  2  6  1  0  0  0  0
  3  1  1  0  0  0  0
  3  7  1  1  0  0  0
  3  2  1  0  0  0  0
  5  2  1  0  0  0  0
  8 13  1  0  0  0  0
  9 10  1  0  0  0  0
  9  8  2  0  0  0  0
 10 11  2  0  0  0  0
 11 12  1  0  0  0  0
 12 15  1  0  0  0  0
 13 12  2  0  0  0  0
 14  8  1  0  0  0  0
 16 18  1  0  0  0  0
 16  9  1  0  0  0  0
 17 16  1  0  0  0  0
 19 21  1  0  0  0  0
 19  3  1  0  0  0  0
 20 19  1  0  0  0  0
 22 19  1  0  0  0  0
 22 28  1  0  0  0  0
 23 22  1  0  0  0  0
 24 23  1  0  0  0  0
 24 25  1  0  0  0  0
 25 27  1  0  0  0  0
 26 25  1  0  0  0  0
 27 28  1  0  0  0  0
M  END
>  <minimizedAffinity>
-5.06330347

$$$$

 OpenBabel03252509273D

 28 30  0  0  1  0  0  0  0  0999 V2000
   38.7730   30.7880   39.0010 C   0  0  1  0  0  0  0  0  0  0  0  0
   39.3450   29.3390   39.0150 C   0  0  0  0  0  0  0  0  0  0  0  0
   38.3690   29.9380   40.0450 C   0  0  2  0  0  0  0  0  0  0  0  0
   38.1630   30.9920   38.1070 H   0  0  0  0  0  0  0  0  0  0  0  0
   38.8890   28.6370   38.2730 H   0  0  0  0  0  0  0  0  0  0  0  0
   40.3840   29.1770   39.2700 H   0  0  0  0  0  0  0  0  0  0  0  0
   38.8430   29.9130   41.0720 H   0  0  0  0  0  0  0  0  0  0  0  0
   41.3540   33.4680   38.5020 C   0  0  0  0  0  0  0  0  0  0  0  0
   40.3560   32.5090   38.1860 C   0  0  0  0  0  0  0  0  0  0  0  0
   39.8850   31.7850   39.2270 C   0  0  0  0  0  0  0  0  0  0  0  0
   40.3490   31.9680   40.5160 N   0  0  0  0  0  0  0  0  0  0  0  0
   41.2990   32.8880   40.7840 C   0  0  0  0  0  0  0  0  0  0  0  0
   41.8060   33.6460   39.7660 N   0  0  0  0  0  0  0  0  0  0  0  0
   41.7380   34.0530   37.6820 H   0  0  0  0  0  0  0  0  0  0  0  0
   41.6300   32.9940   41.8010 H   0  0  0  0  0  0  0  0  0  0  0  0
   39.8990   32.2980   36.8620 N   0  0  0  0  0  0  0  0  0  0  0  0
   39.6420   33.0070   36.1310 H   0  0  0  0  0  0  0  0  0  0  0  0
   39.7890   31.3170   36.5230 H   0  0  0  0  0  0  0  0  0  0  0  0
   36.9640   29.3840   40.1140 C   0  0  0  0  0  0  0  0  0  0  0  0
   36.2550   30.2340   40.0100 H   0  0  0  0  0  0  0  0  0  0  0  0
   36.7440   28.6720   39.3030 H   0  0  0  0  0  0  0  0  0  0  0  0
   36.7360   28.8110   41.4270 N   0  0  0  0  0  0  0  0  0  0  0  0
   37.5710   29.4400   42.4090 C   0  0  0  0  0  2  0  0  0  0  0  0
   37.6910   28.6400   43.6640 C   0  0  0  0  0  2  0  0  0  0  0  0
   36.6300   27.5390   43.6790 C   0  0  0  0  0  3  0  0  0  0  0  0
   36.6410   27.0180   44.6560 H   0  0  0  0  0  0  0  0  0  0  0  0
   37.0100   26.6180   42.5450 C   0  0  0  0  0  2  0  0  0  0  0  0
   37.1010   27.4130   41.2870 C   0  0  0  0  0  2  0  0  0  0  0  0
  1  4  1  6  0  0  0
  1  2  1  0  0  0  0
  1 10  1  0  0  0  0
  1  3  1  0  0  0  0
  2  6  1  0  0  0  0
  2  3  1  0  0  0  0
  3 19  1  0  0  0  0
  3  7  1  1  0  0  0
  5  2  1  0  0  0  0
  8 13  1  0  0  0  0
  9  8  2  0  0  0  0
  9 10  1  0  0  0  0
 10 11  2  0  0  0  0
 11 12  1  0  0  0  0
 12 15  1  0  0  0  0
 13 12  2  0  0  0  0
 14  8  1  0  0  0  0
 16  9  1  0  0  0  0
 17 16  1  0  0  0  0
 18 16  1  0  0  0  0
 19 22  1  0  0  0  0
 20 19  1  0  0  0  0
 21 19  1  0  0  0  0
 22 23  1  0  0  0  0
 23 24  1  0  0  0  0
 24 25  1  0  0  0  0
 25 26  1  0  0  0  0
 27 25  1  0  0  0  0
 28 22  1  0  0  0  0
 28 27  1  0  0  0  0
M  END
>  <minimizedAffinity>
-4.88425541

$$$$

 OpenBabel03252509273D

 28 30  0  0  1  0  0  0  0  0999 V2000
   36.8720   29.6130   41.2670 C   0  0  1  0  0  0  0  0  0  0  0  0
   35.5690   28.9130   40.7790 C   0  0  0  0  0  0  0  0  0  0  0  0
   36.7730   28.2230   41.4480 C   0  0  2  0  0  0  0  0  0  0  0  0
   36.6820   30.3500   42.0640 H   0  0  0  0  0  0  0  0  0  0  0  0
   34.6730   29.0580   41.4340 H   0  0  0  0  0  0  0  0  0  0  0  0
   35.3880   28.7990   39.7180 H   0  0  0  0  0  0  0  0  0  0  0  0
   37.2040   27.4520   40.7420 H   0  0  0  0  0  0  0  0  0  0  0  0
   38.3390   31.9300   38.7020 C   0  0  0  0  0  0  0  0  0  0  0  0
   37.5380   31.4840   39.7870 C   0  0  0  0  0  0  0  0  0  0  0  0
   37.6340   30.1680   40.0860 C   0  0  0  0  0  0  0  0  0  0  0  0
   38.4580   29.3140   39.3790 N   0  0  0  0  0  0  0  0  0  0  0  0
   39.2070   29.7690   38.3530 C   0  0  0  0  0  0  0  0  0  0  0  0
   39.1460   31.0920   38.0120 N   0  0  0  0  0  0  0  0  0  0  0  0
   38.2730   32.9770   38.4530 H   0  0  0  0  0  0  0  0  0  0  0  0
   39.8330   29.0680   37.8310 H   0  0  0  0  0  0  0  0  0  0  0  0
   36.6690   32.3500   40.4950 N   0  0  0  0  0  0  0  0  0  0  0  0
   36.8500   33.3210   40.8520 H   0  0  0  0  0  0  0  0  0  0  0  0
   35.7030   32.0180   40.7130 H   0  0  0  0  0  0  0  0  0  0  0  0
   36.5850   27.6170   42.8200 C   0  0  0  0  0  0  0  0  0  0  0  0
   36.6330   28.4390   43.5680 H   0  0  0  0  0  0  0  0  0  0  0  0
   35.6090   27.1200   42.9400 H   0  0  0  0  0  0  0  0  0  0  0  0
   37.6950   26.7280   43.1100 N   0  0  0  0  0  0  0  0  0  0  0  0
   38.7960   27.4550   43.6710 C   0  0  0  0  0  2  0  0  0  0  0  0
   40.0820   26.6990   43.6040 C   0  0  0  0  0  2  0  0  0  0  0  0
   39.8050   25.2360   43.2590 C   0  0  0  0  0  3  0  0  0  0  0  0
   40.7420   24.6500   43.3210 H   0  0  0  0  0  0  0  0  0  0  0  0
   39.2510   25.2660   41.8550 C   0  0  0  0  0  2  0  0  0  0  0  0
   38.0700   26.1760   41.8220 C   0  0  0  0  0  2  0  0  0  0  0  0
  1  3  1  0  0  0  0
  1  4  1  1  0  0  0
  2  1  1  0  0  0  0
  2  5  1  0  0  0  0
  2  3  1  0  0  0  0
  3  7  1  6  0  0  0
  3 19  1  0  0  0  0
  6  2  1  0  0  0  0
  8  9  1  0  0  0  0
  9 10  2  0  0  0  0
  9 16  1  0  0  0  0
 10  1  1  0  0  0  0
 11 10  1  0  0  0  0
 12 11  2  0  0  0  0
 13 12  1  0  0  0  0
 13  8  2  0  0  0  0
 14  8  1  0  0  0  0
 15 12  1  0  0  0  0
 16 18  1  0  0  0  0
 16 17  1  0  0  0  0
 19 21  1  0  0  0  0
 19 22  1  0  0  0  0
 19 20  1  0  0  0  0
 22 23  1  0  0  0  0
 24 23  1  0  0  0  0
 25 26  1  0  0  0  0
 25 24  1  0  0  0  0
 27 25  1  0  0  0  0
 28 27  1  0  0  0  0
 28 22  1  0  0  0  0
M  END
>  <minimizedAffinity>
-4.74216652

$$$$

 OpenBabel03252509273D

 28 30  0  0  1  0  0  0  0  0999 V2000
   38.4340   32.1350   40.4090 C   0  0  1  0  0  0  0  0  0  0  0  0
   37.0930   32.7890   39.9630 C   0  0  0  0  0  0  0  0  0  0  0  0
   37.3850   31.2780   40.0340 C   0  0  2  0  0  0  0  0  0  0  0  0
   38.6900   32.3680   41.4550 H   0  0  0  0  0  0  0  0  0  0  0  0
   36.4590   33.1950   40.7910 H   0  0  0  0  0  0  0  0  0  0  0  0
   37.0360   33.2950   39.0080 H   0  0  0  0  0  0  0  0  0  0  0  0
   37.2660   30.8230   39.0050 H   0  0  0  0  0  0  0  0  0  0  0  0
   41.4750   33.6110   38.7740 C   0  0  0  0  0  0  0  0  0  0  0  0
   40.4480   33.4090   39.7340 C   0  0  0  0  0  0  0  0  0  0  0  0
   39.5260   32.4690   39.4200 C   0  0  0  0  0  0  0  0  0  0  0  0
   39.5810   31.7550   38.2380 N   0  0  0  0  0  0  0  0  0  0  0  0
   40.5700   31.9700   37.3460 C   0  0  0  0  0  0  0  0  0  0  0  0
   41.5270   32.9090   37.6180 N   0  0  0  0  0  0  0  0  0  0  0  0
   42.2170   34.3560   39.0110 H   0  0  0  0  0  0  0  0  0  0  0  0
   40.5720   31.3920   36.4400 H   0  0  0  0  0  0  0  0  0  0  0  0
   40.3710   34.1600   40.9320 N   0  0  0  0  0  0  0  0  0  0  0  0
   41.1370   34.4110   41.6050 H   0  0  0  0  0  0  0  0  0  0  0  0
   39.4430   34.5370   41.2250 H   0  0  0  0  0  0  0  0  0  0  0  0
   36.6410   30.4470   41.0540 C   0  0  0  0  0  0  0  0  0  0  0  0
   36.6060   31.0220   42.0050 H   0  0  0  0  0  0  0  0  0  0  0  0
   35.6010   30.2350   40.7580 H   0  0  0  0  0  0  0  0  0  0  0  0
   37.3930   29.2360   41.3280 N   0  0  0  0  0  0  0  0  0  0  0  0
   36.6610   28.0770   40.9080 C   0  0  0  0  0  2  0  0  0  0  0  0
   37.1730   26.8160   41.5230 C   0  0  0  0  0  2  0  0  0  0  0  0
   38.5360   27.0710   42.1670 C   0  0  0  0  0  3  0  0  0  0  0  0
   38.9690   26.1150   42.5220 H   0  0  0  0  0  0  0  0  0  0  0  0
   38.2570   28.0210   43.3060 C   0  0  0  0  0  2  0  0  0  0  0  0
   37.5570   29.2240   42.7700 C   0  0  0  0  0  2  0  0  0  0  0  0
  1  4  1  1  0  0  0
  2  3  1  0  0  0  0
  2  1  1  0  0  0  0
  2  5  1  0  0  0  0
  3  7  1  6  0  0  0
  3  1  1  0  0  0  0
  3 19  1  0  0  0  0
  6  2  1  0  0  0  0
  8 14  1  0  0  0  0
  8  9  1  0  0  0  0
  9 16  1  0  0  0  0
 10  9  2  0  0  0  0
 10  1  1  0  0  0  0
 11 10  1  0  0  0  0
 12 13  1  0  0  0  0
 12 11  2  0  0  0  0
 13  8  2  0  0  0  0
 15 12  1  0  0  0  0
 16 18  1  0  0  0  0
 16 17  1  0  0  0  0
 19 22  1  0  0  0  0
 19 20  1  0  0  0  0
 21 19  1  0  0  0  0
 22 28  1  0  0  0  0
 23 22  1  0  0  0  0
 23 24  1  0  0  0  0
 24 25  1  0  0  0  0
 25 26  1  0  0  0  0
 25 27  1  0  0  0  0
 28 27  1  0  0  0  0
M  END
>  <minimizedAffinity>
-4.59216595

$$$$

 OpenBabel03252509273D

 28 30  0  0  1  0  0  0  0  0999 V2000
   38.7710   31.4390   38.8560 C   0  0  1  0  0  0  0  0  0  0  0  0
   37.4540   31.1640   38.0710 C   0  0  0  0  0  0  0  0  0  0  0  0
   37.7920   30.6490   39.4820 C   0  0  2  0  0  0  0  0  0  0  0  0
   38.9210   32.5090   39.0670 H   0  0  0  0  0  0  0  0  0  0  0  0
   36.7320   32.0190   38.0320 H   0  0  0  0  0  0  0  0  0  0  0  0
   37.4670   30.4940   37.2210 H   0  0  0  0  0  0  0  0  0  0  0  0
   37.7840   29.5170   39.4810 H   0  0  0  0  0  0  0  0  0  0  0  0
   41.9300   30.8500   36.9140 C   0  0  0  0  0  0  0  0  0  0  0  0
   40.8310   31.5450   37.4850 C   0  0  0  0  0  0  0  0  0  0  0  0
   39.9370   30.7820   38.1550 C   0  0  0  0  0  0  0  0  0  0  0  0
   40.0840   29.4120   38.2720 N   0  0  0  0  0  0  0  0  0  0  0  0
   41.1400   28.7820   37.7180 C   0  0  0  0  0  0  0  0  0  0  0  0
   42.0720   29.5090   37.0310 N   0  0  0  0  0  0  0  0  0  0  0  0
   42.6510   31.4460   36.3780 H   0  0  0  0  0  0  0  0  0  0  0  0
   41.2130   27.7150   37.8330 H   0  0  0  0  0  0  0  0  0  0  0  0
   40.6600   32.9440   37.3420 N   0  0  0  0  0  0  0  0  0  0  0  0
   41.3720   33.7090   37.4430 H   0  0  0  0  0  0  0  0  0  0  0  0
   39.7120   33.3080   37.1020 H   0  0  0  0  0  0  0  0  0  0  0  0
   36.9870   31.1680   40.6520 C   0  0  0  0  0  0  0  0  0  0  0  0
   37.4660   32.1060   41.0080 H   0  0  0  0  0  0  0  0  0  0  0  0
   35.9470   31.4120   40.3820 H   0  0  0  0  0  0  0  0  0  0  0  0
   37.0640   30.2210   41.7480 N   0  0  0  0  0  0  0  0  0  0  0  0
   38.4230   30.0310   42.1630 C   0  0  0  0  0  2  0  0  0  0  0  0
   38.6120   28.7940   42.9770 C   0  0  0  0  0  2  0  0  0  0  0  0
   37.2520   28.2530   43.4190 C   0  0  0  0  0  3  0  0  0  0  0  0
   37.3920   27.4040   44.1170 H   0  0  0  0  0  0  0  0  0  0  0  0
   36.5700   27.8260   42.1420 C   0  0  0  0  0  2  0  0  0  0  0  0
   36.5340   28.9840   41.2040 C   0  0  0  0  0  2  0  0  0  0  0  0
  1  4  1  1  0  0  0
  1  3  1  0  0  0  0
  2  1  1  0  0  0  0
  2  3  1  0  0  0  0
  3  7  1  1  0  0  0
  3 19  1  0  0  0  0
  5  2  1  0  0  0  0
  6  2  1  0  0  0  0
  8 13  2  0  0  0  0
  8  9  1  0  0  0  0
  9 10  2  0  0  0  0
 10 11  1  0  0  0  0
 10  1  1  0  0  0  0
 12 15  1  0  0  0  0
 12 11  2  0  0  0  0
 13 12  1  0  0  0  0
 14  8  1  0  0  0  0
 16 17  1  0  0  0  0
 16  9  1  0  0  0  0
 18 16  1  0  0  0  0
 19 20  1  0  0  0  0
 19 22  1  0  0  0  0
 21 19  1  0  0  0  0
 22 23  1  0  0  0  0
 23 24  1  0  0  0  0
 24 25  1  0  0  0  0
 25 26  1  0  0  0  0
 27 25  1  0  0  0  0
 28 22  1  0  0  0  0
 28 27  1  0  0  0  0
M  END
>  <minimizedAffinity>
-4.55892324

$$$$

 OpenBabel03252509273D

 28 30  0  0  1  0  0  0  0  0999 V2000
   37.1270   29.4270   37.7770 C   0  0  1  0  0  0  0  0  0  0  0  0
   37.2890   30.9500   38.0580 C   0  0  0  0  0  0  0  0  0  0  0  0
   36.9620   29.8650   39.1020 C   0  0  2  0  0  0  0  0  0  0  0  0
   38.0520   28.9670   37.3940 H   0  0  0  0  0  0  0  0  0  0  0  0
   38.3440   31.3250   38.0690 H   0  0  0  0  0  0  0  0  0  0  0  0
   36.5260   31.6400   37.7230 H   0  0  0  0  0  0  0  0  0  0  0  0
   35.9640   30.0950   39.5820 H   0  0  0  0  0  0  0  0  0  0  0  0
   34.8950   28.6230   34.8660 C   0  0  0  0  0  0  0  0  0  0  0  0
   36.0840   28.8970   35.5940 C   0  0  0  0  0  0  0  0  0  0  0  0
   35.9170   29.1880   36.9050 C   0  0  0  0  0  0  0  0  0  0  0  0
   34.6670   29.2190   37.4950 N   0  0  0  0  0  0  0  0  0  0  0  0
   33.5570   28.9540   36.7760 C   0  0  0  0  0  0  0  0  0  0  0  0
   33.6730   28.6530   35.4480 N   0  0  0  0  0  0  0  0  0  0  0  0
   35.0130   28.3890   33.8210 H   0  0  0  0  0  0  0  0  0  0  0  0
   32.6060   28.9910   37.2770 H   0  0  0  0  0  0  0  0  0  0  0  0
   37.3630   28.8960   34.9860 N   0  0  0  0  0  0  0  0  0  0  0  0
   37.7730   28.2030   34.3130 H   0  0  0  0  0  0  0  0  0  0  0  0
   38.0220   29.6740   35.2090 H   0  0  0  0  0  0  0  0  0  0  0  0
   37.9880   29.5590   40.1680 C   0  0  0  0  0  0  0  0  0  0  0  0
   38.7230   28.8410   39.7420 H   0  0  0  0  0  0  0  0  0  0  0  0
   38.5500   30.4490   40.4930 H   0  0  0  0  0  0  0  0  0  0  0  0
   37.3420   28.8810   41.2770 N   0  0  0  0  0  0  0  0  0  0  0  0
   37.8020   29.4040   42.5310 C   0  0  0  0  0  2  0  0  0  0  0  0
   37.5050   28.4980   43.6800 C   0  0  0  0  0  2  0  0  0  0  0  0
   36.5040   27.4260   43.2470 C   0  0  0  0  0  3  0  0  0  0  0  0
   36.1940   26.8240   44.1230 H   0  0  0  0  0  0  0  0  0  0  0  0
   37.2410   26.5950   42.2250 C   0  0  0  0  0  2  0  0  0  0  0  0
   37.7390   27.4930   41.1430 C   0  0  0  0  0  2  0  0  0  0  0  0
  1  4  1  6  0  0  0
  1  2  1  0  0  0  0
  1  3  1  0  0  0  0
  2  5  1  0  0  0  0
  2  3  1  0  0  0  0
  3  7  1  1  0  0  0
  3 19  1  0  0  0  0
  6  2  1  0  0  0  0
  8 13  2  0  0  0  0
  8  9  1  0  0  0  0
  9 10  2  0  0  0  0
 10 11  1  0  0  0  0
 10  1  1  0  0  0  0
 12 15  1  0  0  0  0
 12 11  2  0  0  0  0
 13 12  1  0  0  0  0
 14  8  1  0  0  0  0
 16 18  1  0  0  0  0
 16  9  1  0  0  0  0
 17 16  1  0  0  0  0
 19 21  1  0  0  0  0
 19 22  1  0  0  0  0
 20 19  1  0  0  0  0
 22 23  1  0  0  0  0
 23 24  1  0  0  0  0
 25 24  1  0  0  0  0
 25 26  1  0  0  0  0
 27 25  1  0  0  0  0
 28 22  1  0  0  0  0
 28 27  1  0  0  0  0
M  END
>  <minimizedAffinity>
-4.55434704

$$$$

 OpenBabel03252509273D

 28 30  0  0  1  0  0  0  0  0999 V2000
   39.9480   30.5790   41.3020 C   0  0  1  0  0  0  0  0  0  0  0  0
   40.4480   31.1200   42.6740 C   0  0  0  0  0  0  0  0  0  0  0  0
   39.5440   29.8920   42.4600 C   0  0  2  0  0  0  0  0  0  0  0  0
   40.7730   30.2490   40.6520 H   0  0  0  0  0  0  0  0  0  0  0  0
   41.5170   30.8930   42.9180 H   0  0  0  0  0  0  0  0  0  0  0  0
   40.0410   32.0430   43.0660 H   0  0  0  0  0  0  0  0  0  0  0  0
   38.5580   30.0540   42.9910 H   0  0  0  0  0  0  0  0  0  0  0  0
   37.1140   32.1580   39.4120 C   0  0  0  0  0  0  0  0  0  0  0  0
   37.9690   31.1470   39.9250 C   0  0  0  0  0  0  0  0  0  0  0  0
   39.0210   31.5820   40.6570 C   0  0  0  0  0  0  0  0  0  0  0  0
   39.2480   32.9260   40.8870 N   0  0  0  0  0  0  0  0  0  0  0  0
   38.4170   33.8620   40.3850 C   0  0  0  0  0  0  0  0  0  0  0  0
   37.3390   33.4730   39.6390 N   0  0  0  0  0  0  0  0  0  0  0  0
   36.2710   31.8250   38.8280 H   0  0  0  0  0  0  0  0  0  0  0  0
   38.6330   34.8950   40.5880 H   0  0  0  0  0  0  0  0  0  0  0  0
   37.7570   29.7700   39.6670 N   0  0  0  0  0  0  0  0  0  0  0  0
   36.8620   29.2220   39.7040 H   0  0  0  0  0  0  0  0  0  0  0  0
   38.5760   29.1810   39.3990 H   0  0  0  0  0  0  0  0  0  0  0  0
   40.0920   28.5250   42.7990 C   0  0  0  0  0  0  0  0  0  0  0  0
   40.7860   28.2210   41.9840 H   0  0  0  0  0  0  0  0  0  0  0  0
   40.6650   28.5130   43.7400 H   0  0  0  0  0  0  0  0  0  0  0  0
   39.0090   27.5590   42.8030 N   0  0  0  0  0  0  0  0  0  0  0  0
   38.8270   26.9930   41.4980 C   0  0  0  0  0  2  0  0  0  0  0  0
   37.5010   26.3260   41.3370 C   0  0  0  0  0  2  0  0  0  0  0  0
   36.8440   26.1440   42.7050 C   0  0  0  0  0  3  0  0  0  0  0  0
   35.9160   25.5490   42.6020 H   0  0  0  0  0  0  0  0  0  0  0  0
   36.5630   27.5450   43.1910 C   0  0  0  0  0  2  0  0  0  0  0  0
   37.8350   28.3230   43.1810 C   0  0  0  0  0  2  0  0  0  0  0  0
  1  4  1  6  0  0  0
  1  3  1  0  0  0  0
  1  2  1  0  0  0  0
  2  5  1  0  0  0  0
  2  6  1  0  0  0  0
  3  2  1  0  0  0  0
  3 19  1  0  0  0  0
  3  7  1  1  0  0  0
  8 13  2  0  0  0  0
  8  9  1  0  0  0  0
  9 10  2  0  0  0  0
 10 11  1  0  0  0  0
 10  1  1  0  0  0  0
 12 15  1  0  0  0  0
 12 11  2  0  0  0  0
 13 12  1  0  0  0  0
 14  8  1  0  0  0  0
 16 17  1  0  0  0  0
 16  9  1  0  0  0  0
 18 16  1  0  0  0  0
 19 22  1  0  0  0  0
 19 21  1  0  0  0  0
 20 19  1  0  0  0  0
 22 28  1  0  0  0  0
 23 22  1  0  0  0  0
 24 23  1  0  0  0  0
 24 25  1  0  0  0  0
 25 27  1  0  0  0  0
 26 25  1  0  0  0  0
 28 27  1  0  0  0  0
M  END
>  <minimizedAffinity>
-4.52901649

$$$$
