
 OpenBabel03252509253D

 28 30  0  0  1  0  0  0  0  0999 V2000
   45.7200   32.2560   43.9020 C   0  0  1  0  0  0  0  0  0  0  0  0
   46.9150   31.6860   43.0820 C   0  0  0  0  0  0  0  0  0  0  0  0
   46.9760   32.2110   44.5280 C   0  0  2  0  0  0  0  0  0  0  0  0
   44.9260   31.5100   44.0660 H   0  0  0  0  0  0  0  0  0  0  0  0
   46.9340   30.5720   42.9750 H   0  0  0  0  0  0  0  0  0  0  0  0
   47.3290   32.2650   42.2670 H   0  0  0  0  0  0  0  0  0  0  0  0
   47.6980   33.0810   44.5820 H   0  0  0  0  0  0  0  0  0  0  0  0
   43.6850   34.8030   42.0390 C   0  0  0  0  0  0  0  0  0  0  0  0
   44.1040   33.5380   42.5300 C   0  0  0  0  0  0  0  0  0  0  0  0
   45.2320   33.5430   43.2780 C   0  0  0  0  0  0  0  0  0  0  0  0
   45.9310   34.7050   43.5430 N   0  0  0  0  0  0  0  0  0  0  0  0
   45.5070   35.8920   43.0610 C   0  0  0  0  0  0  0  0  0  0  0  0
   44.3720   35.9400   42.3010 N   0  0  0  0  0  0  0  0  0  0  0  0
   42.7880   34.8150   41.4420 H   0  0  0  0  0  0  0  0  0  0  0  0
   46.0830   36.7690   43.2920 H   0  0  0  0  0  0  0  0  0  0  0  0
   43.4080   32.3410   42.2360 N   0  0  0  0  0  0  0  0  0  0  0  0
   42.3740   32.1570   42.2540 H   0  0  0  0  0  0  0  0  0  0  0  0
   43.9590   31.4990   41.9570 H   0  0  0  0  0  0  0  0  0  0  0  0
   47.2700   31.2300   45.6400 C   0  0  0  0  0  0  0  0  0  0  0  0
   47.1400   30.2030   45.2350 H   0  0  0  0  0  0  0  0  0  0  0  0
   48.3020   31.3070   46.0180 H   0  0  0  0  0  0  0  0  0  0  0  0
   46.2850   31.3880   46.6940 N   0  0  0  0  0  0  0  0  0  0  0  0
   46.7490   32.3090   47.6910 C   0  0  0  0  0  2  0  0  0  0  0  0
   45.9940   32.2010   48.9740 C   0  0  0  0  0  2  0  0  0  0  0  0
   44.7250   31.3750   48.7590 C   0  0  0  0  0  3  0  0  0  0  0  0
   44.1060   31.3890   49.6790 H   0  0  0  0  0  0  0  0  0  0  0  0
   45.2180   29.9850   48.4340 C   0  0  0  0  0  2  0  0  0  0  0  0
   46.1450   30.0640   47.2700 C   0  0  0  0  0  2  0  0  0  0  0  0
  1  4  1  1  0  0  0
  1  3  1  0  0  0  0
  2  1  1  0  0  0  0
  2  3  1  0  0  0  0
  3  7  1  1  0  0  0
  3 19  1  0  0  0  0
  5  2  1  0  0  0  0
  6  2  1  0  0  0  0
  8 13  2  0  0  0  0
  8  9  1  0  0  0  0
  9 10  2  0  0  0  0
 10 11  1  0  0  0  0
 10  1  1  0  0  0  0
 12 15  1  0  0  0  0
 12 11  2  0  0  0  0
 13 12  1  0  0  0  0
 14  8  1  0  0  0  0
 16 17  1  0  0  0  0
 16  9  1  0  0  0  0
 18 16  1  0  0  0  0
 19 21  1  0  0  0  0
 19 22  1  0  0  0  0
 20 19  1  0  0  0  0
 22 28  1  0  0  0  0
 22 23  1  0  0  0  0
 23 24  1  0  0  0  0
 25 24  1  0  0  0  0
 25 26  1  0  0  0  0
 27 25  1  0  0  0  0
 28 27  1  0  0  0  0
M  END
>  <minimizedAffinity>
-4.28285456

>  <minimizedRMSD>
6.16725016

$$$$
