
 OpenBabel03252509253D

 28 30  0  0  1  0  0  0  0  0999 V2000
   46.6120   34.9470   41.9390 C   0  0  1  0  0  0  0  0  0  0  0  0
   48.1000   35.4040   41.9960 C   0  0  0  0  0  0  0  0  0  0  0  0
   47.5900   34.0340   41.5090 C   0  0  2  0  0  0  0  0  0  0  0  0
   46.0070   35.5630   41.2550 H   0  0  0  0  0  0  0  0  0  0  0  0
   48.4140   36.1140   41.1900 H   0  0  0  0  0  0  0  0  0  0  0  0
   48.5930   35.5000   42.9540 H   0  0  0  0  0  0  0  0  0  0  0  0
   48.0330   33.2180   42.1540 H   0  0  0  0  0  0  0  0  0  0  0  0
   44.5890   35.5220   45.0490 C   0  0  0  0  0  0  0  0  0  0  0  0
   45.1100   35.7320   43.7450 C   0  0  0  0  0  0  0  0  0  0  0  0
   46.0480   34.8460   43.3370 C   0  0  0  0  0  0  0  0  0  0  0  0
   46.4720   33.8050   44.1410 N   0  0  0  0  0  0  0  0  0  0  0  0
   45.9570   33.6320   45.3760 C   0  0  0  0  0  0  0  0  0  0  0  0
   45.0060   34.5010   45.8340 N   0  0  0  0  0  0  0  0  0  0  0  0
   43.8410   36.2200   45.3880 H   0  0  0  0  0  0  0  0  0  0  0  0
   46.3180   32.8090   45.9660 H   0  0  0  0  0  0  0  0  0  0  0  0
   44.7000   36.8150   42.9300 N   0  0  0  0  0  0  0  0  0  0  0  0
   43.7310   37.1740   42.7480 H   0  0  0  0  0  0  0  0  0  0  0  0
   45.4310   37.3610   42.4210 H   0  0  0  0  0  0  0  0  0  0  0  0
   47.7540   33.6820   40.0480 C   0  0  0  0  0  0  0  0  0  0  0  0
   48.1650   34.5730   39.5240 H   0  0  0  0  0  0  0  0  0  0  0  0
   48.4580   32.8500   39.8840 H   0  0  0  0  0  0  0  0  0  0  0  0
   46.4500   33.4230   39.4660 N   0  0  0  0  0  0  0  0  0  0  0  0
   45.9250   32.1720   39.9310 C   0  0  0  0  0  2  0  0  0  0  0  0
   44.8140   31.6580   39.0760 C   0  0  0  0  0  2  0  0  0  0  0  0
   44.3250   32.7660   38.1420 C   0  0  0  0  0  3  0  0  0  0  0  0
   43.4280   32.4240   37.5900 H   0  0  0  0  0  0  0  0  0  0  0  0
   45.4880   33.0360   37.2180 C   0  0  0  0  0  2  0  0  0  0  0  0
   46.6900   33.3610   38.0370 C   0  0  0  0  0  2  0  0  0  0  0  0
  1  4  1  6  0  0  0
  1  2  1  0  0  0  0
  1 10  1  0  0  0  0
  2  6  1  0  0  0  0
  3  1  1  0  0  0  0
  3  2  1  0  0  0  0
  3  7  1  1  0  0  0
  5  2  1  0  0  0  0
  8 14  1  0  0  0  0
  8 13  1  0  0  0  0
  9  8  2  0  0  0  0
 10  9  1  0  0  0  0
 10 11  2  0  0  0  0
 11 12  1  0  0  0  0
 12 13  2  0  0  0  0
 12 15  1  0  0  0  0
 16  9  1  0  0  0  0
 17 16  1  0  0  0  0
 18 16  1  0  0  0  0
 19  3  1  0  0  0  0
 20 19  1  0  0  0  0
 21 19  1  0  0  0  0
 22 23  1  0  0  0  0
 22 19  1  0  0  0  0
 24 23  1  0  0  0  0
 25 24  1  0  0  0  0
 26 25  1  0  0  0  0
 27 28  1  0  0  0  0
 27 25  1  0  0  0  0
 28 22  1  0  0  0  0
M  END
>  <minimizedAffinity>
-4.59439898

>  <minimizedRMSD>
0.600965261

$$$$
