
 OpenBabel03252507243D

 25 27  0  0  0  0  0  0  0  0999 V2000
   45.5960   33.9630   45.5100 C   0  0  0  0  0  0  0  0  0  0  0  0
   44.6890   34.9940   45.7570 C   0  0  0  0  0  0  0  0  0  0  0  0
   44.4900   35.9500   44.7330 C   0  0  0  0  0  0  0  0  0  0  0  0
   45.1930   35.8180   43.5600 N   0  0  0  0  0  0  0  0  0  0  0  0
   46.0510   34.7960   43.3950 C   0  0  0  0  0  0  0  0  0  0  0  0
   46.2520   33.8890   44.3420 N   0  0  0  0  0  0  0  0  0  0  0  0
   44.1500   35.0720   46.6900 H   0  0  0  0  0  0  0  0  0  0  0  0
   43.8020   36.7500   44.8950 H   0  0  0  0  0  0  0  0  0  0  0  0
   46.7770   34.6930   42.1300 C   0  0  0  0  0  0  0  0  0  0  0  0
   47.9690   35.3350   41.9300 C   0  0  0  0  0  0  0  0  0  0  0  0
   48.7250   35.3030   40.7840 C   0  0  0  0  0  0  0  0  0  0  0  0
   48.1720   34.5290   39.7680 C   0  0  0  0  0  0  0  0  0  0  0  0
   46.9680   33.8630   39.9310 C   0  0  0  0  0  0  0  0  0  0  0  0
   46.2780   33.9490   41.1100 N   0  0  0  0  0  0  0  0  0  0  0  0
   48.3600   35.9340   42.7660 H   0  0  0  0  0  0  0  0  0  0  0  0
   49.6600   35.8390   40.7020 H   0  0  0  0  0  0  0  0  0  0  0  0
   48.7050   34.4490   38.8280 H   0  0  0  0  0  0  0  0  0  0  0  0
   46.5630   33.2630   39.1140 H   0  0  0  0  0  0  0  0  0  0  0  0
   45.8570   32.9610   46.4790 N   0  0  0  0  0  0  0  0  0  0  0  0
   46.7860   31.8600   46.3740 C   0  0  0  0  0  0  0  0  0  0  0  0
   45.9300   30.5950   46.4440 C   0  0  0  0  0  0  0  0  0  0  0  0
   45.4700   30.4530   47.8650 C   0  0  0  0  0  0  0  0  0  0  0  0
   44.4360   30.0530   47.8510 H   0  0  0  0  0  0  0  0  0  0  0  0
   45.5310   31.7730   48.6000 C   0  0  0  0  0  0  0  0  0  0  0  0
   45.1800   32.9360   47.7420 C   0  0  0  0  0  0  0  0  0  0  0  0
  1  2  1  0  0  0  0
  1 19  1  0  0  0  0
  2  7  1  0  0  0  0
  3  8  1  0  0  0  0
  3  2  2  0  0  0  0
  4  3  1  0  0  0  0
  5  4  2  0  0  0  0
  5  6  1  0  0  0  0
  6  1  2  0  0  0  0
  9  5  1  0  0  0  0
 10  9  1  0  0  0  0
 10 15  1  0  0  0  0
 11 10  2  0  0  0  0
 12 13  2  0  0  0  0
 12 11  1  0  0  0  0
 13 14  1  0  0  0  0
 14  9  2  0  0  0  0
 16 11  1  0  0  0  0
 17 12  1  0  0  0  0
 18 13  1  0  0  0  0
 19 25  1  0  0  0  0
 20 21  1  0  0  0  0
 20 19  1  0  0  0  0
 21 22  1  0  0  0  0
 22 24  1  0  0  0  0
 23 22  1  0  0  0  0
 25 24  1  0  0  0  0
M  END
>  <minimizedAffinity>
-6.1483674

>  <minimizedRMSD>
0.504172981

$$$$
