
 OpenBabel03252505063D

 41 44  0  0  1  0  0  0  0  0999 V2000
   44.5820   35.5680   44.6010 C   0  0  0  0  0  0  0  0  0  0  0  0
   45.2500   35.5860   43.3520 C   0  0  0  0  0  0  0  0  0  0  0  0
   46.3340   34.6920   43.1780 C   0  0  0  0  0  0  0  0  0  0  0  0
   46.6790   33.8700   44.2040 N   0  0  0  0  0  0  0  0  0  0  0  0
   46.0170   33.8850   45.3740 C   0  0  0  0  0  0  0  0  0  0  0  0
   44.9650   34.7330   45.5810 N   0  0  0  0  0  0  0  0  0  0  0  0
   43.7640   36.2460   44.7230 H   0  0  0  0  0  0  0  0  0  0  0  0
   44.9480   36.2540   42.5570 H   0  0  0  0  0  0  0  0  0  0  0  0
   47.0440   34.6800   41.9070 C   0  0  0  0  0  0  0  0  0  0  0  0
   48.1530   35.4500   41.7740 C   0  0  0  0  0  0  0  0  0  0  0  0
   48.7960   35.3990   40.5290 C   0  0  0  0  0  0  0  0  0  0  0  0
   48.2490   34.5810   39.5650 C   0  0  0  0  0  0  0  0  0  0  0  0
   47.1350   33.8120   39.7120 C   0  0  0  0  0  0  0  0  0  0  0  0
   46.5420   33.8920   40.9360 N   0  0  0  0  0  0  0  0  0  0  0  0
   48.5420   36.0760   42.5600 H   0  0  0  0  0  0  0  0  0  0  0  0
   49.6840   35.9720   40.3160 H   0  0  0  0  0  0  0  0  0  0  0  0
   48.7420   34.5350   38.5990 H   0  0  0  0  0  0  0  0  0  0  0  0
   46.5400   32.9620   38.7570 N   0  0  0  0  0  0  0  0  0  0  0  0
   45.5430   31.9480   39.1230 C   0  0  0  0  0  0  0  0  0  0  0  0
   44.2400   32.2610   38.4270 C   0  0  0  0  0  0  0  0  0  0  0  0
   44.5050   31.9840   36.9420 C   0  0  0  0  0  0  0  0  0  0  0  0
   44.8590   30.9430   36.8640 H   0  0  0  0  0  0  0  0  0  0  0  0
   45.5700   32.9340   36.4830 C   0  0  0  0  0  0  0  0  0  0  0  0
   46.8010   32.9530   37.3550 C   0  0  0  0  0  0  0  0  0  0  0  0
   46.4430   32.9640   46.4640 C   0  0  2  0  0  0  0  0  0  0  0  0
   46.9750   31.7380   45.7780 C   0  0  0  0  0  0  0  0  0  0  0  0
   46.1090   30.5470   45.7920 C   0  0  0  0  0  0  0  0  0  0  0  0
   45.7940   30.2870   47.2590 C   0  0  0  0  0  0  0  0  0  0  0  0
   45.0050   31.3630   47.8640 C   0  0  0  0  0  0  0  0  0  0  0  0
   45.3810   32.7320   47.4170 C   0  0  0  0  0  0  0  0  0  0  0  0
   47.2820   33.4950   46.9710 H   0  0  0  0  0  0  0  0  0  0  0  0
   47.9340   31.4620   46.2740 H   0  0  0  0  0  0  0  0  0  0  0  0
   47.2700   31.9400   44.7180 H   0  0  0  0  0  0  0  0  0  0  0  0
   46.7210   29.6830   45.4610 H   0  0  0  0  0  0  0  0  0  0  0  0
   45.2060   30.6540   45.1810 H   0  0  0  0  0  0  0  0  0  0  0  0
   46.7020   29.9950   47.7840 H   0  0  0  0  0  0  0  0  0  0  0  0
   45.1050   29.4060   47.2380 H   0  0  0  0  0  0  0  0  0  0  0  0
   44.2110   31.3760   48.5620 H   0  0  0  0  0  0  0  0  0  0  0  0
   44.6880   33.8710   47.9290 N   0  0  0  0  0  0  0  0  0  0  0  0
   45.1000   34.3770   48.7370 H   0  0  0  0  0  0  0  0  0  0  0  0
   43.8150   34.3800   47.7010 H   0  0  0  0  0  0  0  0  0  0  0  0
  1  7  1  0  0  0  0
  1  6  1  0  0  0  0
  2  1  2  0  0  0  0
  3  2  1  0  0  0  0
  3  4  2  0  0  0  0
  4  5  1  0  0  0  0
  5  6  2  0  0  0  0
  5 25  1  0  0  0  0
  8  2  1  0  0  0  0
  9  3  1  0  0  0  0
 10  9  1  0  0  0  0
 10 15  1  0  0  0  0
 11 10  2  0  0  0  0
 12 13  2  0  0  0  0
 12 11  1  0  0  0  0
 13 14  1  0  0  0  0
 14  9  2  0  0  0  0
 16 11  1  0  0  0  0
 17 12  1  0  0  0  0
 18 19  1  0  0  0  0
 18 13  1  0  0  0  0
 20 19  1  0  0  0  0
 21 20  1  0  0  0  0
 22 21  1  0  0  0  0
 23 21  1  0  0  0  0
 23 24  1  0  0  0  0
 24 18  1  0  0  0  0
 25 31  1  1  0  0  0
 25 30  1  0  0  0  0
 26 27  1  0  0  0  0
 26 32  1  0  0  0  0
 26 25  1  0  0  0  0
 27 28  1  0  0  0  0
 28 36  1  0  0  0  0
 28 29  1  0  0  0  0
 29 38  1  0  0  0  0
 30 29  2  0  0  0  0
 30 39  1  0  0  0  0
 33 26  1  0  0  0  0
 34 27  1  0  0  0  0
 35 27  1  0  0  0  0
 37 28  1  0  0  0  0
 39 40  1  0  0  0  0
 41 39  1  0  0  0  0
M  END
>  <minimizedAffinity>
-7.72852993

>  <minimizedRMSD>
0.105455622

$$$$
