
 OpenBabel03252508333D

 30 32  0  0  1  0  0  0  0  0999 V2000
   36.4910   28.4140   41.0080 N   0  0  0  0  0  0  0  0  0  0  0  0
   36.9600   29.6810   41.4310 C   0  0  1  0  0  0  0  0  0  0  0  0
   37.8040   29.6600   42.6520 C   0  0  0  0  0  0  0  0  0  0  0  0
   37.3200   28.8340   43.6780 N   0  0  0  0  0  0  0  0  0  0  0  0
   36.7330   27.6140   43.2980 C   0  0  0  0  0  0  0  0  0  0  0  0
   36.9280   27.3210   41.8250 C   0  0  0  0  0  0  0  0  0  0  0  0
   36.0550   30.2900   41.6900 H   0  0  0  0  0  0  0  0  0  0  0  0
   37.9100   30.7120   42.9990 H   0  0  0  0  0  0  0  0  0  0  0  0
   38.8720   29.3510   42.4490 H   0  0  0  0  0  0  0  0  0  0  0  0
   37.7470   28.9250   44.5970 H   0  0  0  0  0  0  0  0  0  0  0  0
   37.1890   26.7630   43.8590 H   0  0  0  0  0  0  0  0  0  0  0  0
   35.6240   27.5470   43.4920 H   0  0  0  0  0  0  0  0  0  0  0  0
   38.0170   27.0750   41.6490 H   0  0  0  0  0  0  0  0  0  0  0  0
   36.3810   26.3750   41.6530 H   0  0  0  0  0  0  0  0  0  0  0  0
   36.0440   27.4280   38.8750 C   0  0  0  0  0  0  0  0  0  0  0  0
   35.6660   28.3330   39.8610 C   0  0  0  0  0  0  0  0  0  0  0  0
   34.5220   29.0800   39.6410 C   0  0  0  0  0  0  0  0  0  0  0  0
   33.7960   28.9330   38.5010 N   0  0  0  0  0  0  0  0  0  0  0  0
   34.2060   28.0310   37.5590 C   0  0  0  0  0  0  0  0  0  0  0  0
   35.3170   27.2900   37.7500 N   0  0  0  0  0  0  0  0  0  0  0  0
   36.8930   26.7630   38.8550 H   0  0  0  0  0  0  0  0  0  0  0  0
   34.2070   29.7860   40.3950 H   0  0  0  0  0  0  0  0  0  0  0  0
   33.5260   28.0350   36.7200 H   0  0  0  0  0  0  0  0  0  0  0  0
   37.6220   30.4400   40.3910 N   0  0  0  0  0  0  0  0  0  0  0  0
   39.0440   30.4040   40.4040 C   0  0  0  0  0  2  0  0  0  0  0  0
   39.6480   31.7800   40.3590 C   0  0  0  0  0  2  0  0  0  0  0  0
   39.1000   32.6150   39.2270 C   0  0  0  0  0  3  0  0  0  0  0  0
   39.2290   33.6850   39.4920 H   0  0  0  0  0  0  0  0  0  0  0  0
   37.6140   32.3910   39.0290 C   0  0  0  0  0  2  0  0  0  0  0  0
   37.0950   31.7890   40.3360 C   0  0  0  0  0  2  0  0  0  0  0  0
  1  2  1  0  0  0  0
  1  6  1  0  0  0  0
  2  7  1  1  0  0  0
  2  3  1  0  0  0  0
  3  8  1  0  0  0  0
  3  4  1  0  0  0  0
  4 10  1  0  0  0  0
  5 12  1  0  0  0  0
  5  4  1  0  0  0  0
  5 11  1  0  0  0  0
  6  5  1  0  0  0  0
  9  3  1  0  0  0  0
 13  6  1  0  0  0  0
 14  6  1  0  0  0  0
 15 16  1  0  0  0  0
 16  1  1  0  0  0  0
 17 16  2  0  0  0  0
 17 22  1  0  0  0  0
 18 17  1  0  0  0  0
 19 20  1  0  0  0  0
 19 18  2  0  0  0  0
 20 15  2  0  0  0  0
 21 15  1  0  0  0  0
 23 19  1  0  0  0  0
 24 25  1  0  0  0  0
 24  2  1  0  0  0  0
 26 25  1  0  0  0  0
 27 28  1  0  0  0  0
 27 26  1  0  0  0  0
 29 27  1  0  0  0  0
 29 30  1  0  0  0  0
 30 24  1  0  0  0  0
M  END
>  <minimizedAffinity>
-4.72205734

$$$$

 OpenBabel03252508333D

 30 32  0  0  1  0  0  0  0  0999 V2000
   38.9600   30.9380   39.7500 N   0  0  0  0  0  0  0  0  0  0  0  0
   38.2390   30.7690   40.9570 C   0  0  1  0  0  0  0  0  0  0  0  0
   36.8440   31.2760   40.9280 C   0  0  0  0  0  0  0  0  0  0  0  0
   36.6950   32.5320   40.3200 N   0  0  0  0  0  0  0  0  0  0  0  0
   37.4830   32.7930   39.1850 C   0  0  0  0  0  0  0  0  0  0  0  0
   38.2100   31.5570   38.6970 C   0  0  0  0  0  0  0  0  0  0  0  0
   38.7730   31.3700   41.7380 H   0  0  0  0  0  0  0  0  0  0  0  0
   36.4770   31.2920   41.9790 H   0  0  0  0  0  0  0  0  0  0  0  0
   36.1240   30.5690   40.4190 H   0  0  0  0  0  0  0  0  0  0  0  0
   35.8060   33.0110   40.4400 H   0  0  0  0  0  0  0  0  0  0  0  0
   36.8500   33.1500   38.3370 H   0  0  0  0  0  0  0  0  0  0  0  0
   38.2690   33.5880   39.3330 H   0  0  0  0  0  0  0  0  0  0  0  0
   37.4530   30.8480   38.2490 H   0  0  0  0  0  0  0  0  0  0  0  0
   38.8240   31.9100   37.8470 H   0  0  0  0  0  0  0  0  0  0  0  0
   41.2290   31.1790   40.4680 C   0  0  0  0  0  0  0  0  0  0  0  0
   40.3040   30.4980   39.6830 C   0  0  0  0  0  0  0  0  0  0  0  0
   40.7680   29.4550   38.9030 C   0  0  0  0  0  0  0  0  0  0  0  0
   42.0840   29.1090   38.9050 N   0  0  0  0  0  0  0  0  0  0  0  0
   42.9570   29.8070   39.6920 C   0  0  0  0  0  0  0  0  0  0  0  0
   42.5290   30.8280   40.4620 N   0  0  0  0  0  0  0  0  0  0  0  0
   41.0700   32.0120   41.1340 H   0  0  0  0  0  0  0  0  0  0  0  0
   40.0680   28.9090   38.2910 H   0  0  0  0  0  0  0  0  0  0  0  0
   43.9560   29.4110   39.5800 H   0  0  0  0  0  0  0  0  0  0  0  0
   38.2570   29.4130   41.4670 N   0  0  0  0  0  0  0  0  0  0  0  0
   37.1980   28.5710   41.0310 C   0  0  0  0  0  2  0  0  0  0  0  0
   36.5020   27.8930   42.1780 C   0  0  0  0  0  2  0  0  0  0  0  0
   37.4640   27.1840   43.1010 C   0  0  0  0  0  3  0  0  0  0  0  0
   36.9850   27.0940   44.0980 H   0  0  0  0  0  0  0  0  0  0  0  0
   38.7410   27.9760   43.3000 C   0  0  0  0  0  2  0  0  0  0  0  0
   38.4150   29.4180   42.9080 C   0  0  0  0  0  2  0  0  0  0  0  0
  1  2  1  0  0  0  0
  2 24  1  0  0  0  0
  2  7  1  1  0  0  0
  3  2  1  0  0  0  0
  3  8  1  0  0  0  0
  4 10  1  0  0  0  0
  4  3  1  0  0  0  0
  5 12  1  0  0  0  0
  5  4  1  0  0  0  0
  6  5  1  0  0  0  0
  6  1  1  0  0  0  0
  9  3  1  0  0  0  0
 11  5  1  0  0  0  0
 13  6  1  0  0  0  0
 14  6  1  0  0  0  0
 15 21  1  0  0  0  0
 16  1  1  0  0  0  0
 16 15  2  0  0  0  0
 17 18  2  0  0  0  0
 17 16  1  0  0  0  0
 18 19  1  0  0  0  0
 19 20  2  0  0  0  0
 20 15  1  0  0  0  0
 22 17  1  0  0  0  0
 23 19  1  0  0  0  0
 24 30  1  0  0  0  0
 25 24  1  0  0  0  0
 25 26  1  0  0  0  0
 26 27  1  0  0  0  0
 27 29  1  0  0  0  0
 27 28  1  0  0  0  0
 30 29  1  0  0  0  0
M  END
>  <minimizedAffinity>
-4.64120626

$$$$

 OpenBabel03252508333D

 30 32  0  0  1  0  0  0  0  0999 V2000
   38.3930   30.8760   41.0130 N   0  0  0  0  0  0  0  0  0  0  0  0
   37.1770   31.0000   40.2980 C   0  0  1  0  0  0  0  0  0  0  0  0
   37.0440   32.2460   39.5020 C   0  0  0  0  0  0  0  0  0  0  0  0
   37.4620   33.4080   40.1680 N   0  0  0  0  0  0  0  0  0  0  0  0
   38.5990   33.3040   40.9890 C   0  0  0  0  0  0  0  0  0  0  0  0
   39.2990   31.9710   40.8300 C   0  0  0  0  0  0  0  0  0  0  0  0
   36.3560   31.0300   41.0620 H   0  0  0  0  0  0  0  0  0  0  0  0
   35.9800   32.3240   39.1860 H   0  0  0  0  0  0  0  0  0  0  0  0
   37.5990   32.2050   38.5180 H   0  0  0  0  0  0  0  0  0  0  0  0
   37.2200   34.3030   39.7500 H   0  0  0  0  0  0  0  0  0  0  0  0
   39.3470   34.0930   40.7310 H   0  0  0  0  0  0  0  0  0  0  0  0
   38.3940   33.4270   42.0910 H   0  0  0  0  0  0  0  0  0  0  0  0
   39.7910   31.9420   39.8120 H   0  0  0  0  0  0  0  0  0  0  0  0
   40.1300   32.0020   41.5590 H   0  0  0  0  0  0  0  0  0  0  0  0
   39.7560   28.9860   41.5590 C   0  0  0  0  0  0  0  0  0  0  0  0
   38.6070   29.7280   41.8140 C   0  0  0  0  0  0  0  0  0  0  0  0
   37.7680   29.2860   42.8210 C   0  0  0  0  0  0  0  0  0  0  0  0
   38.0590   28.1650   43.5350 N   0  0  0  0  0  0  0  0  0  0  0  0
   39.2000   27.4680   43.2490 C   0  0  0  0  0  0  0  0  0  0  0  0
   40.0340   27.8790   42.2720 N   0  0  0  0  0  0  0  0  0  0  0  0
   40.5260   29.1610   40.8240 H   0  0  0  0  0  0  0  0  0  0  0  0
   36.8730   29.8480   43.0390 H   0  0  0  0  0  0  0  0  0  0  0  0
   39.2840   26.6100   43.9000 H   0  0  0  0  0  0  0  0  0  0  0  0
   36.8620   29.8530   39.4720 N   0  0  0  0  0  0  0  0  0  0  0  0
   37.3670   29.8870   38.1430 C   0  0  0  0  0  2  0  0  0  0  0  0
   36.2980   29.6180   37.1210 C   0  0  0  0  0  2  0  0  0  0  0  0
   35.5230   28.3560   37.4140 C   0  0  0  0  0  3  0  0  0  0  0  0
   34.5300   28.4390   36.9260 H   0  0  0  0  0  0  0  0  0  0  0  0
   35.2670   28.1830   38.8980 C   0  0  0  0  0  2  0  0  0  0  0  0
   35.4410   29.5680   39.5250 C   0  0  0  0  0  2  0  0  0  0  0  0
  1 16  1  0  0  0  0
  2  1  1  0  0  0  0
  2  7  1  1  0  0  0
  3  4  1  0  0  0  0
  3  2  1  0  0  0  0
  4  5  1  0  0  0  0
  5 12  1  0  0  0  0
  6  5  1  0  0  0  0
  6  1  1  0  0  0  0
  6 14  1  0  0  0  0
  8  3  1  0  0  0  0
  9  3  1  0  0  0  0
 10  4  1  0  0  0  0
 11  5  1  0  0  0  0
 13  6  1  0  0  0  0
 15 16  2  0  0  0  0
 15 20  1  0  0  0  0
 16 17  1  0  0  0  0
 17 22  1  0  0  0  0
 17 18  2  0  0  0  0
 19 18  1  0  0  0  0
 19 23  1  0  0  0  0
 20 19  2  0  0  0  0
 21 15  1  0  0  0  0
 24 30  1  0  0  0  0
 24  2  1  0  0  0  0
 25 24  1  0  0  0  0
 26 27  1  0  0  0  0
 26 25  1  0  0  0  0
 27 29  1  0  0  0  0
 28 27  1  0  0  0  0
 29 30  1  0  0  0  0
M  END
>  <minimizedAffinity>
-4.61992359

$$$$

 OpenBabel03252508333D

 30 32  0  0  1  0  0  0  0  0999 V2000
   38.4490   30.8710   40.0620 N   0  0  0  0  0  0  0  0  0  0  0  0
   38.9210   30.0220   41.0930 C   0  0  1  0  0  0  0  0  0  0  0  0
   39.4840   30.7240   42.2730 C   0  0  0  0  0  0  0  0  0  0  0  0
   40.3260   31.8020   41.9600 N   0  0  0  0  0  0  0  0  0  0  0  0
   39.9620   32.6050   40.8650 C   0  0  0  0  0  0  0  0  0  0  0  0
   38.5790   32.2700   40.3450 C   0  0  0  0  0  0  0  0  0  0  0  0
   39.7630   29.4230   40.6560 H   0  0  0  0  0  0  0  0  0  0  0  0
   40.0150   29.9630   42.8880 H   0  0  0  0  0  0  0  0  0  0  0  0
   38.6910   31.1110   42.9790 H   0  0  0  0  0  0  0  0  0  0  0  0
   40.8850   32.1960   42.7130 H   0  0  0  0  0  0  0  0  0  0  0  0
   39.9440   33.6840   41.1540 H   0  0  0  0  0  0  0  0  0  0  0  0
   40.6600   32.5380   39.9820 H   0  0  0  0  0  0  0  0  0  0  0  0
   37.8160   32.6170   41.1030 H   0  0  0  0  0  0  0  0  0  0  0  0
   38.4440   32.9270   39.4660 H   0  0  0  0  0  0  0  0  0  0  0  0
   38.7790   29.5700   38.0810 C   0  0  0  0  0  0  0  0  0  0  0  0
   37.9070   30.2930   38.8880 C   0  0  0  0  0  0  0  0  0  0  0  0
   36.5890   30.3930   38.4810 C   0  0  0  0  0  0  0  0  0  0  0  0
   36.1640   29.8050   37.3310 N   0  0  0  0  0  0  0  0  0  0  0  0
   37.0570   29.1030   36.5690 C   0  0  0  0  0  0  0  0  0  0  0  0
   38.3480   28.9910   36.9460 N   0  0  0  0  0  0  0  0  0  0  0  0
   39.8320   29.3800   38.2210 H   0  0  0  0  0  0  0  0  0  0  0  0
   35.8940   30.9460   39.0930 H   0  0  0  0  0  0  0  0  0  0  0  0
   36.5650   28.7010   35.6960 H   0  0  0  0  0  0  0  0  0  0  0  0
   37.9570   29.0310   41.5240 N   0  0  0  0  0  0  0  0  0  0  0  0
   37.3880   29.2370   42.8110 C   0  0  0  0  0  2  0  0  0  0  0  0
   37.4880   28.0140   43.6800 C   0  0  0  0  0  2  0  0  0  0  0  0
   36.9520   26.7760   43.0000 C   0  0  0  0  0  3  0  0  0  0  0  0
   37.4280   25.8910   43.4690 H   0  0  0  0  0  0  0  0  0  0  0  0
   37.3140   26.7400   41.5290 C   0  0  0  0  0  2  0  0  0  0  0  0
   38.4960   27.6950   41.3560 C   0  0  0  0  0  2  0  0  0  0  0  0
  1  6  1  0  0  0  0
  1  2  1  0  0  0  0
  2  7  1  6  0  0  0
  2 24  1  0  0  0  0
  2  3  1  0  0  0  0
  3  8  1  0  0  0  0
  3  9  1  0  0  0  0
  4  3  1  0  0  0  0
  4 10  1  0  0  0  0
  5 11  1  0  0  0  0
  5  4  1  0  0  0  0
  6  5  1  0  0  0  0
  6 13  1  0  0  0  0
 12  5  1  0  0  0  0
 14  6  1  0  0  0  0
 15 21  1  0  0  0  0
 15 16  1  0  0  0  0
 16  1  1  0  0  0  0
 17 16  2  0  0  0  0
 17 22  1  0  0  0  0
 18 17  1  0  0  0  0
 19 20  1  0  0  0  0
 19 18  2  0  0  0  0
 20 15  2  0  0  0  0
 23 19  1  0  0  0  0
 24 25  1  0  0  0  0
 25 26  1  0  0  0  0
 27 28  1  0  0  0  0
 27 26  1  0  0  0  0
 29 27  1  0  0  0  0
 30 24  1  0  0  0  0
 30 29  1  0  0  0  0
M  END
>  <minimizedAffinity>
-4.60768461

$$$$

 OpenBabel03252508333D

 30 32  0  0  1  0  0  0  0  0999 V2000
   36.8890   29.5430   38.7530 N   0  0  0  0  0  0  0  0  0  0  0  0
   37.8800   30.5060   38.4440 C   0  0  1  0  0  0  0  0  0  0  0  0
   37.6570   31.2510   37.1800 C   0  0  0  0  0  0  0  0  0  0  0  0
   37.2480   30.4530   36.1000 N   0  0  0  0  0  0  0  0  0  0  0  0
   36.3550   29.4040   36.3790 C   0  0  0  0  0  0  0  0  0  0  0  0
   35.8250   29.4650   37.7960 C   0  0  0  0  0  0  0  0  0  0  0  0
   38.8430   29.9450   38.3090 H   0  0  0  0  0  0  0  0  0  0  0  0
   38.6000   31.7940   36.9460 H   0  0  0  0  0  0  0  0  0  0  0  0
   36.9020   32.0860   37.2850 H   0  0  0  0  0  0  0  0  0  0  0  0
   37.2650   30.8720   35.1740 H   0  0  0  0  0  0  0  0  0  0  0  0
   35.4680   29.4490   35.7010 H   0  0  0  0  0  0  0  0  0  0  0  0
   36.7880   28.3710   36.2450 H   0  0  0  0  0  0  0  0  0  0  0  0
   35.1220   30.3460   37.8790 H   0  0  0  0  0  0  0  0  0  0  0  0
   35.1870   28.5680   37.8960 H   0  0  0  0  0  0  0  0  0  0  0  0
   38.1180   27.9160   40.0050 C   0  0  0  0  0  0  0  0  0  0  0  0
   37.0220   28.7700   39.9320 C   0  0  0  0  0  0  0  0  0  0  0  0
   36.1540   28.7940   41.0080 C   0  0  0  0  0  0  0  0  0  0  0  0
   36.3670   28.0090   42.0990 N   0  0  0  0  0  0  0  0  0  0  0  0
   37.4580   27.1850   42.1260 C   0  0  0  0  0  0  0  0  0  0  0  0
   38.3190   27.1440   41.0890 N   0  0  0  0  0  0  0  0  0  0  0  0
   38.8990   27.7510   39.2790 H   0  0  0  0  0  0  0  0  0  0  0  0
   35.3000   29.4530   40.9760 H   0  0  0  0  0  0  0  0  0  0  0  0
   37.4820   26.6320   43.0540 H   0  0  0  0  0  0  0  0  0  0  0  0
   38.1510   31.4350   39.5210 N   0  0  0  0  0  0  0  0  0  0  0  0
   37.1570   32.4250   39.7520 C   0  0  0  0  0  2  0  0  0  0  0  0
   37.7340   33.8130   39.7930 C   0  0  0  0  0  2  0  0  0  0  0  0
   38.8980   33.9270   40.7480 C   0  0  0  0  0  3  0  0  0  0  0  0
   39.5270   34.7830   40.4280 H   0  0  0  0  0  0  0  0  0  0  0  0
   39.7830   32.6960   40.7080 C   0  0  0  0  0  2  0  0  0  0  0  0
   39.4810   31.9970   39.3820 C   0  0  0  0  0  2  0  0  0  0  0  0
  1 16  1  0  0  0  0
  2  7  1  6  0  0  0
  2  1  1  0  0  0  0
  2 24  1  0  0  0  0
  3  9  1  0  0  0  0
  3  2  1  0  0  0  0
  4  5  1  0  0  0  0
  4  3  1  0  0  0  0
  5  6  1  0  0  0  0
  6 13  1  0  0  0  0
  6 14  1  0  0  0  0
  6  1  1  0  0  0  0
  8  3  1  0  0  0  0
 10  4  1  0  0  0  0
 11  5  1  0  0  0  0
 12  5  1  0  0  0  0
 15 20  1  0  0  0  0
 16 15  2  0  0  0  0
 16 17  1  0  0  0  0
 17 18  2  0  0  0  0
 18 19  1  0  0  0  0
 19 23  1  0  0  0  0
 20 19  2  0  0  0  0
 21 15  1  0  0  0  0
 22 17  1  0  0  0  0
 24 25  1  0  0  0  0
 25 26  1  0  0  0  0
 26 27  1  0  0  0  0
 28 27  1  0  0  0  0
 29 27  1  0  0  0  0
 30 24  1  0  0  0  0
 30 29  1  0  0  0  0
M  END
>  <minimizedAffinity>
-4.59119034

$$$$

 OpenBabel03252508333D

 30 32  0  0  1  0  0  0  0  0999 V2000
   38.3620   30.6810   40.8720 N   0  0  0  0  0  0  0  0  0  0  0  0
   37.1240   30.8450   40.2050 C   0  0  1  0  0  0  0  0  0  0  0  0
   36.9830   32.1150   39.4500 C   0  0  0  0  0  0  0  0  0  0  0  0
   37.4440   33.2510   40.1330 N   0  0  0  0  0  0  0  0  0  0  0  0
   38.6080   33.1050   40.9090 C   0  0  0  0  0  0  0  0  0  0  0  0
   39.2790   31.7660   40.6870 C   0  0  0  0  0  0  0  0  0  0  0  0
   36.3310   30.8650   40.9980 H   0  0  0  0  0  0  0  0  0  0  0  0
   35.9100   32.2190   39.1740 H   0  0  0  0  0  0  0  0  0  0  0  0
   37.5020   32.0940   38.4460 H   0  0  0  0  0  0  0  0  0  0  0  0
   37.2020   34.1610   39.7500 H   0  0  0  0  0  0  0  0  0  0  0  0
   39.3590   33.8900   40.6470 H   0  0  0  0  0  0  0  0  0  0  0  0
   38.4440   33.2000   42.0210 H   0  0  0  0  0  0  0  0  0  0  0  0
   39.7340   31.7590   39.6520 H   0  0  0  0  0  0  0  0  0  0  0  0
   40.1360   31.7630   41.3860 H   0  0  0  0  0  0  0  0  0  0  0  0
   37.8230   29.3480   42.7840 C   0  0  0  0  0  0  0  0  0  0  0  0
   38.5850   29.5070   41.6310 C   0  0  0  0  0  0  0  0  0  0  0  0
   39.4960   28.5130   41.3220 C   0  0  0  0  0  0  0  0  0  0  0  0
   39.6400   27.4210   42.1190 N   0  0  0  0  0  0  0  0  0  0  0  0
   38.8690   27.3070   43.2430 C   0  0  0  0  0  0  0  0  0  0  0  0
   37.9730   28.2630   43.5650 N   0  0  0  0  0  0  0  0  0  0  0  0
   37.0700   30.0020   43.1940 H   0  0  0  0  0  0  0  0  0  0  0  0
   40.0950   28.6130   40.4300 H   0  0  0  0  0  0  0  0  0  0  0  0
   39.1030   26.3900   43.7630 H   0  0  0  0  0  0  0  0  0  0  0  0
   36.7600   29.7280   39.3580 N   0  0  0  0  0  0  0  0  0  0  0  0
   37.2590   29.7690   38.0270 C   0  0  0  0  0  2  0  0  0  0  0  0
   36.1740   29.5610   37.0070 C   0  0  0  0  0  2  0  0  0  0  0  0
   35.3520   28.3240   37.2800 C   0  0  0  0  0  3  0  0  0  0  0  0
   34.3610   28.4540   36.8000 H   0  0  0  0  0  0  0  0  0  0  0  0
   35.1000   28.1310   38.7620 C   0  0  0  0  0  2  0  0  0  0  0  0
   35.3300   29.4950   39.4150 C   0  0  0  0  0  2  0  0  0  0  0  0
  1 16  1  0  0  0  0
  2  1  1  0  0  0  0
  2  7  1  1  0  0  0
  3  4  1  0  0  0  0
  3  2  1  0  0  0  0
  4  5  1  0  0  0  0
  5 12  1  0  0  0  0
  6  1  1  0  0  0  0
  6  5  1  0  0  0  0
  6 14  1  0  0  0  0
  8  3  1  0  0  0  0
  9  3  1  0  0  0  0
 10  4  1  0  0  0  0
 11  5  1  0  0  0  0
 13  6  1  0  0  0  0
 15 21  1  0  0  0  0
 15 20  1  0  0  0  0
 16 15  2  0  0  0  0
 17 16  1  0  0  0  0
 17 18  2  0  0  0  0
 18 19  1  0  0  0  0
 19 20  2  0  0  0  0
 19 23  1  0  0  0  0
 22 17  1  0  0  0  0
 24 30  1  0  0  0  0
 24  2  1  0  0  0  0
 25 24  1  0  0  0  0
 26 27  1  0  0  0  0
 26 25  1  0  0  0  0
 27 29  1  0  0  0  0
 28 27  1  0  0  0  0
 29 30  1  0  0  0  0
M  END
>  <minimizedAffinity>
-4.54527712

$$$$

 OpenBabel03252508333D

 30 32  0  0  1  0  0  0  0  0999 V2000
   37.1590   30.1050   38.8590 N   0  0  0  0  0  0  0  0  0  0  0  0
   36.5810   29.3350   39.8980 C   0  0  1  0  0  0  0  0  0  0  0  0
   35.7900   28.1640   39.4420 C   0  0  0  0  0  0  0  0  0  0  0  0
   34.9420   28.4240   38.3550 N   0  0  0  0  0  0  0  0  0  0  0  0
   35.4270   29.2840   37.3530 C   0  0  0  0  0  0  0  0  0  0  0  0
   36.8940   29.6100   37.5410 C   0  0  0  0  0  0  0  0  0  0  0  0
   35.8620   30.0060   40.4350 H   0  0  0  0  0  0  0  0  0  0  0  0
   35.2160   27.7920   40.3200 H   0  0  0  0  0  0  0  0  0  0  0  0
   36.4310   27.2770   39.1630 H   0  0  0  0  0  0  0  0  0  0  0  0
   34.2440   27.7220   38.1240 H   0  0  0  0  0  0  0  0  0  0  0  0
   35.3280   28.8130   36.3450 H   0  0  0  0  0  0  0  0  0  0  0  0
   34.8870   30.2720   37.2820 H   0  0  0  0  0  0  0  0  0  0  0  0
   37.5000   28.6840   37.3120 H   0  0  0  0  0  0  0  0  0  0  0  0
   37.1280   30.3240   36.7300 H   0  0  0  0  0  0  0  0  0  0  0  0
   37.2230   32.3500   39.6840 C   0  0  0  0  0  0  0  0  0  0  0  0
   37.9200   31.2510   39.1940 C   0  0  0  0  0  0  0  0  0  0  0  0
   39.2930   31.3660   39.0690 C   0  0  0  0  0  0  0  0  0  0  0  0
   39.9360   32.5140   39.4150 N   0  0  0  0  0  0  0  0  0  0  0  0
   39.2080   33.5690   39.8930 C   0  0  0  0  0  0  0  0  0  0  0  0
   37.8680   33.4810   40.0240 N   0  0  0  0  0  0  0  0  0  0  0  0
   36.1630   32.4610   39.8510 H   0  0  0  0  0  0  0  0  0  0  0  0
   39.8550   30.5240   38.6950 H   0  0  0  0  0  0  0  0  0  0  0  0
   39.8620   34.3980   40.1190 H   0  0  0  0  0  0  0  0  0  0  0  0
   37.5240   28.9240   40.9170 N   0  0  0  0  0  0  0  0  0  0  0  0
   37.7750   27.5270   41.0040 C   0  0  0  0  0  2  0  0  0  0  0  0
   37.6140   27.0060   42.4050 C   0  0  0  0  0  2  0  0  0  0  0  0
   38.4080   27.8010   43.4130 C   0  0  0  0  0  3  0  0  0  0  0  0
   37.9340   27.6710   44.4080 H   0  0  0  0  0  0  0  0  0  0  0  0
   38.3810   29.2860   43.1070 C   0  0  0  0  0  2  0  0  0  0  0  0
   37.1740   29.5120   42.1950 C   0  0  0  0  0  2  0  0  0  0  0  0
  1 16  1  0  0  0  0
  1  2  1  0  0  0  0
  2  7  1  1  0  0  0
  2 24  1  0  0  0  0
  3  2  1  0  0  0  0
  3  8  1  0  0  0  0
  4  3  1  0  0  0  0
  5  6  1  0  0  0  0
  5  4  1  0  0  0  0
  6  1  1  0  0  0  0
  9  3  1  0  0  0  0
 10  4  1  0  0  0  0
 11  5  1  0  0  0  0
 12  5  1  0  0  0  0
 13  6  1  0  0  0  0
 14  6  1  0  0  0  0
 15 21  1  0  0  0  0
 15 20  1  0  0  0  0
 16 15  2  0  0  0  0
 17 16  1  0  0  0  0
 17 18  2  0  0  0  0
 18 19  1  0  0  0  0
 19 20  2  0  0  0  0
 19 23  1  0  0  0  0
 22 17  1  0  0  0  0
 24 25  1  0  0  0  0
 24 30  1  0  0  0  0
 25 26  1  0  0  0  0
 26 27  1  0  0  0  0
 27 28  1  0  0  0  0
 29 27  1  0  0  0  0
 30 29  1  0  0  0  0
M  END
>  <minimizedAffinity>
-4.54228449

$$$$

 OpenBabel03252508333D

 30 32  0  0  1  0  0  0  0  0999 V2000
   38.6670   30.2240   41.1410 N   0  0  0  0  0  0  0  0  0  0  0  0
   37.9430   29.2980   41.9310 C   0  0  1  0  0  0  0  0  0  0  0  0
   36.5070   29.1640   41.5800 C   0  0  0  0  0  0  0  0  0  0  0  0
   35.8510   30.3810   41.3430 N   0  0  0  0  0  0  0  0  0  0  0  0
   36.5740   31.3790   40.6660 C   0  0  0  0  0  0  0  0  0  0  0  0
   37.8880   30.8620   40.1210 C   0  0  0  0  0  0  0  0  0  0  0  0
   37.9710   29.6810   42.9840 H   0  0  0  0  0  0  0  0  0  0  0  0
   36.0170   28.5960   42.4020 H   0  0  0  0  0  0  0  0  0  0  0  0
   36.3300   28.5070   40.6770 H   0  0  0  0  0  0  0  0  0  0  0  0
   34.8360   30.3660   41.2870 H   0  0  0  0  0  0  0  0  0  0  0  0
   35.9930   31.7660   39.7940 H   0  0  0  0  0  0  0  0  0  0  0  0
   36.8220   32.2850   41.2920 H   0  0  0  0  0  0  0  0  0  0  0  0
   37.6710   30.1630   39.2600 H   0  0  0  0  0  0  0  0  0  0  0  0
   38.3710   31.7480   39.6670 H   0  0  0  0  0  0  0  0  0  0  0  0
   40.3650   30.9870   42.6430 C   0  0  0  0  0  0  0  0  0  0  0  0
   40.0410   30.4320   41.4100 C   0  0  0  0  0  0  0  0  0  0  0  0
   41.0800   30.1320   40.5480 C   0  0  0  0  0  0  0  0  0  0  0  0
   42.3730   30.3730   40.8960 N   0  0  0  0  0  0  0  0  0  0  0  0
   42.6440   30.9210   42.1200 C   0  0  0  0  0  0  0  0  0  0  0  0
   41.6470   31.2210   42.9780 N   0  0  0  0  0  0  0  0  0  0  0  0
   39.7080   31.2900   43.4440 H   0  0  0  0  0  0  0  0  0  0  0  0
   40.8530   29.6960   39.5870 H   0  0  0  0  0  0  0  0  0  0  0  0
   43.7090   31.0480   42.2420 H   0  0  0  0  0  0  0  0  0  0  0  0
   38.5540   27.9870   42.0070 N   0  0  0  0  0  0  0  0  0  0  0  0
   38.0530   27.0140   41.0980 C   0  0  0  0  0  2  0  0  0  0  0  0
   37.6660   25.7360   41.7890 C   0  0  0  0  0  2  0  0  0  0  0  0
   38.7700   25.1960   42.6660 C   0  0  0  0  0  3  0  0  0  0  0  0
   38.3100   24.5530   43.4440 H   0  0  0  0  0  0  0  0  0  0  0  0
   39.5050   26.3040   43.3940 C   0  0  0  0  0  2  0  0  0  0  0  0
   38.5730   27.5170   43.3780 C   0  0  0  0  0  2  0  0  0  0  0  0
  1 16  1  0  0  0  0
  1  2  1  0  0  0  0
  2 24  1  0  0  0  0
  2  7  1  1  0  0  0
  3  2  1  0  0  0  0
  3  8  1  0  0  0  0
  4  3  1  0  0  0  0
  5 12  1  0  0  0  0
  5  4  1  0  0  0  0
  6  5  1  0  0  0  0
  6  1  1  0  0  0  0
  9  3  1  0  0  0  0
 10  4  1  0  0  0  0
 11  5  1  0  0  0  0
 13  6  1  0  0  0  0
 14  6  1  0  0  0  0
 15 20  1  0  0  0  0
 15 21  1  0  0  0  0
 16 15  2  0  0  0  0
 17 18  2  0  0  0  0
 17 16  1  0  0  0  0
 18 19  1  0  0  0  0
 19 23  1  0  0  0  0
 19 20  2  0  0  0  0
 22 17  1  0  0  0  0
 24 30  1  0  0  0  0
 25 26  1  0  0  0  0
 25 24  1  0  0  0  0
 26 27  1  0  0  0  0
 27 29  1  0  0  0  0
 27 28  1  0  0  0  0
 30 29  1  0  0  0  0
M  END
>  <minimizedAffinity>
-4.54202032

$$$$

 OpenBabel03252508333D

 30 32  0  0  1  0  0  0  0  0999 V2000
   39.3970   30.4460   39.0240 N   0  0  0  0  0  0  0  0  0  0  0  0
   38.1160   30.8780   38.6010 C   0  0  1  0  0  0  0  0  0  0  0  0
   38.0630   31.4220   37.2210 C   0  0  0  0  0  0  0  0  0  0  0  0
   39.1180   32.2890   36.8980 N   0  0  0  0  0  0  0  0  0  0  0  0
   40.3910   31.9660   37.3980 C   0  0  0  0  0  0  0  0  0  0  0  0
   40.4230   30.5920   38.0340 C   0  0  0  0  0  0  0  0  0  0  0  0
   37.8200   31.7210   39.2800 H   0  0  0  0  0  0  0  0  0  0  0  0
   37.0770   31.9250   37.1020 H   0  0  0  0  0  0  0  0  0  0  0  0
   38.0340   30.6180   36.4280 H   0  0  0  0  0  0  0  0  0  0  0  0
   39.0330   32.8350   36.0450 H   0  0  0  0  0  0  0  0  0  0  0  0
   41.1490   31.9580   36.5770 H   0  0  0  0  0  0  0  0  0  0  0  0
   40.7870   32.6850   38.1720 H   0  0  0  0  0  0  0  0  0  0  0  0
   40.3320   29.8150   37.2180 H   0  0  0  0  0  0  0  0  0  0  0  0
   41.4520   30.4890   38.4270 H   0  0  0  0  0  0  0  0  0  0  0  0
   40.0240   28.6210   40.4380 C   0  0  0  0  0  0  0  0  0  0  0  0
   39.5510   29.9240   40.3310 C   0  0  0  0  0  0  0  0  0  0  0  0
   39.2680   30.6030   41.5020 C   0  0  0  0  0  0  0  0  0  0  0  0
   39.4470   30.0130   42.7150 N   0  0  0  0  0  0  0  0  0  0  0  0
   39.9140   28.7290   42.7710 C   0  0  0  0  0  0  0  0  0  0  0  0
   40.1970   28.0470   41.6420 N   0  0  0  0  0  0  0  0  0  0  0  0
   40.2960   27.9320   39.6530 H   0  0  0  0  0  0  0  0  0  0  0  0
   38.9050   31.6170   41.4440 H   0  0  0  0  0  0  0  0  0  0  0  0
   39.9990   28.4090   43.8000 H   0  0  0  0  0  0  0  0  0  0  0  0
   37.0740   29.8880   38.7790 N   0  0  0  0  0  0  0  0  0  0  0  0
   36.6030   29.2620   37.5920 C   0  0  0  0  0  2  0  0  0  0  0  0
   35.1040   29.3130   37.4790 C   0  0  0  0  0  2  0  0  0  0  0  0
   34.4130   28.7990   38.7190 C   0  0  0  0  0  3  0  0  0  0  0  0
   33.3990   29.2460   38.7610 H   0  0  0  0  0  0  0  0  0  0  0  0
   35.1310   29.2270   39.9830 C   0  0  0  0  0  2  0  0  0  0  0  0
   36.0020   30.4230   39.5950 C   0  0  0  0  0  2  0  0  0  0  0  0
  1 16  1  0  0  0  0
  2 24  1  0  0  0  0
  2  1  1  0  0  0  0
  2  7  1  1  0  0  0
  3  2  1  0  0  0  0
  4  3  1  0  0  0  0
  4  5  1  0  0  0  0
  5  6  1  0  0  0  0
  5 12  1  0  0  0  0
  6 14  1  0  0  0  0
  6  1  1  0  0  0  0
  8  3  1  0  0  0  0
  9  3  1  0  0  0  0
 10  4  1  0  0  0  0
 11  5  1  0  0  0  0
 13  6  1  0  0  0  0
 15 20  1  0  0  0  0
 16 15  2  0  0  0  0
 16 17  1  0  0  0  0
 17 18  2  0  0  0  0
 18 19  1  0  0  0  0
 19 23  1  0  0  0  0
 20 19  2  0  0  0  0
 21 15  1  0  0  0  0
 22 17  1  0  0  0  0
 24 30  1  0  0  0  0
 25 24  1  0  0  0  0
 26 25  1  0  0  0  0
 26 27  1  0  0  0  0
 27 28  1  0  0  0  0
 27 29  1  0  0  0  0
 30 29  1  0  0  0  0
M  END
>  <minimizedAffinity>
-4.45364761

$$$$
