
 OpenBabel03252509253D

 28 30  0  0  1  0  0  0  0  0999 V2000
   46.6950   34.7990   41.9310 C   0  0  1  0  0  0  0  0  0  0  0  0
   48.0780   35.5150   41.9380 C   0  0  0  0  0  0  0  0  0  0  0  0
   47.8160   34.0520   41.5320 C   0  0  2  0  0  0  0  0  0  0  0  0
   45.9840   35.2600   41.2270 H   0  0  0  0  0  0  0  0  0  0  0  0
   48.2540   36.2240   41.0900 H   0  0  0  0  0  0  0  0  0  0  0  0
   48.5540   35.7490   42.8810 H   0  0  0  0  0  0  0  0  0  0  0  0
   48.4030   33.3640   42.2120 H   0  0  0  0  0  0  0  0  0  0  0  0
   44.7230   35.2910   45.0880 C   0  0  0  0  0  0  0  0  0  0  0  0
   45.2030   35.5210   43.7720 C   0  0  0  0  0  0  0  0  0  0  0  0
   46.1690   34.6760   43.3420 C   0  0  0  0  0  0  0  0  0  0  0  0
   46.6580   33.6570   44.1370 N   0  0  0  0  0  0  0  0  0  0  0  0
   46.1810   33.4650   45.3840 C   0  0  0  0  0  0  0  0  0  0  0  0
   45.2030   34.2910   45.8640 N   0  0  0  0  0  0  0  0  0  0  0  0
   43.9520   35.9560   45.4430 H   0  0  0  0  0  0  0  0  0  0  0  0
   46.5910   32.6600   45.9670 H   0  0  0  0  0  0  0  0  0  0  0  0
   44.7260   36.5830   42.9650 N   0  0  0  0  0  0  0  0  0  0  0  0
   43.7370   36.8980   42.8050 H   0  0  0  0  0  0  0  0  0  0  0  0
   45.4190   37.1590   42.4380 H   0  0  0  0  0  0  0  0  0  0  0  0
   48.0290   33.6550   40.0900 C   0  0  0  0  0  0  0  0  0  0  0  0
   47.1350   33.0830   39.7560 H   0  0  0  0  0  0  0  0  0  0  0  0
   48.1340   34.5220   39.4170 H   0  0  0  0  0  0  0  0  0  0  0  0
   49.1590   32.7490   40.0010 N   0  0  0  0  0  0  0  0  0  0  0  0
   48.7450   31.4650   39.5170 C   0  0  0  0  0  2  0  0  0  0  0  0
   49.7480   30.3920   39.7920 C   0  0  0  0  0  2  0  0  0  0  0  0
   51.0750   31.0220   40.2140 C   0  0  0  0  0  3  0  0  0  0  0  0
   51.8520   30.2370   40.3060 H   0  0  0  0  0  0  0  0  0  0  0  0
   50.7860   31.6880   41.5370 C   0  0  0  0  0  2  0  0  0  0  0  0
   49.6470   32.6340   41.3620 C   0  0  0  0  0  2  0  0  0  0  0  0
  1  4  1  6  0  0  0
  1  2  1  0  0  0  0
  1 10  1  0  0  0  0
  2  6  1  0  0  0  0
  3  1  1  0  0  0  0
  3  2  1  0  0  0  0
  3  7  1  1  0  0  0
  5  2  1  0  0  0  0
  8 14  1  0  0  0  0
  8 13  1  0  0  0  0
  9  8  2  0  0  0  0
 10  9  1  0  0  0  0
 10 11  2  0  0  0  0
 11 12  1  0  0  0  0
 12 13  2  0  0  0  0
 12 15  1  0  0  0  0
 16  9  1  0  0  0  0
 17 16  1  0  0  0  0
 18 16  1  0  0  0  0
 19  3  1  0  0  0  0
 20 19  1  0  0  0  0
 21 19  1  0  0  0  0
 22 19  1  0  0  0  0
 22 28  1  0  0  0  0
 23 24  1  0  0  0  0
 23 22  1  0  0  0  0
 24 25  1  0  0  0  0
 25 26  1  0  0  0  0
 25 27  1  0  0  0  0
 28 27  1  0  0  0  0
M  END
>  <minimizedAffinity>
-4.52475071

>  <minimizedRMSD>
3.61391234

$$$$
