
 OpenBabel03252509253D

 28 30  0  0  1  0  0  0  0  0999 V2000
   46.6120   35.0980   41.9260 C   0  0  1  0  0  0  0  0  0  0  0  0
   48.1430   35.3820   41.9580 C   0  0  0  0  0  0  0  0  0  0  0  0
   47.4610   34.1570   41.3210 C   0  0  2  0  0  0  0  0  0  0  0  0
   46.0520   35.8660   41.3680 H   0  0  0  0  0  0  0  0  0  0  0  0
   48.5010   36.1610   41.2380 H   0  0  0  0  0  0  0  0  0  0  0  0
   48.6850   35.2890   42.8900 H   0  0  0  0  0  0  0  0  0  0  0  0
   47.8350   33.2150   41.8230 H   0  0  0  0  0  0  0  0  0  0  0  0
   44.6830   35.3460   45.1380 C   0  0  0  0  0  0  0  0  0  0  0  0
   45.1520   35.6810   43.8400 C   0  0  0  0  0  0  0  0  0  0  0  0
   46.1000   34.8630   43.3280 C   0  0  0  0  0  0  0  0  0  0  0  0
   46.5820   33.7720   44.0260 N   0  0  0  0  0  0  0  0  0  0  0  0
   46.1160   33.4800   45.2580 C   0  0  0  0  0  0  0  0  0  0  0  0
   45.1570   34.2770   45.8190 N   0  0  0  0  0  0  0  0  0  0  0  0
   43.9270   35.9890   45.5580 H   0  0  0  0  0  0  0  0  0  0  0  0
   46.5210   32.6230   45.7650 H   0  0  0  0  0  0  0  0  0  0  0  0
   44.6820   36.8150   43.1330 N   0  0  0  0  0  0  0  0  0  0  0  0
   43.6970   37.1570   43.0140 H   0  0  0  0  0  0  0  0  0  0  0  0
   45.3780   37.4240   42.6490 H   0  0  0  0  0  0  0  0  0  0  0  0
   47.5210   33.9980   39.8190 C   0  0  0  0  0  0  0  0  0  0  0  0
   46.8820   34.7860   39.3640 H   0  0  0  0  0  0  0  0  0  0  0  0
   48.5380   34.1250   39.4140 H   0  0  0  0  0  0  0  0  0  0  0  0
   46.9360   32.7230   39.4460 N   0  0  0  0  0  0  0  0  0  0  0  0
   47.6090   32.1670   38.3080 C   0  0  0  0  0  2  0  0  0  0  0  0
   46.8170   31.0960   37.6320 C   0  0  0  0  0  2  0  0  0  0  0  0
   45.6600   30.6640   38.5340 C   0  0  0  0  0  3  0  0  0  0  0  0
   45.1410   29.7930   38.0880 H   0  0  0  0  0  0  0  0  0  0  0  0
   44.7610   31.8730   38.6210 C   0  0  0  0  0  2  0  0  0  0  0  0
   45.5600   33.0340   39.1040 C   0  0  0  0  0  2  0  0  0  0  0  0
  1  4  1  6  0  0  0
  1  2  1  0  0  0  0
  1 10  1  0  0  0  0
  2  6  1  0  0  0  0
  3  7  1  1  0  0  0
  3  1  1  0  0  0  0
  3  2  1  0  0  0  0
  5  2  1  0  0  0  0
  8 14  1  0  0  0  0
  8 13  1  0  0  0  0
  9  8  2  0  0  0  0
 10  9  1  0  0  0  0
 10 11  2  0  0  0  0
 11 12  1  0  0  0  0
 12 15  1  0  0  0  0
 12 13  2  0  0  0  0
 16  9  1  0  0  0  0
 17 16  1  0  0  0  0
 18 16  1  0  0  0  0
 19  3  1  0  0  0  0
 20 19  1  0  0  0  0
 21 19  1  0  0  0  0
 22 19  1  0  0  0  0
 23 22  1  0  0  0  0
 24 23  1  0  0  0  0
 24 25  1  0  0  0  0
 25 27  1  0  0  0  0
 26 25  1  0  0  0  0
 27 28  1  0  0  0  0
 28 22  1  0  0  0  0
M  END
>  <minimizedAffinity>
-4.40252876

>  <minimizedRMSD>
1.50192142

$$$$
