
 OpenBabel03252508353D

 33 35  0  0  1  0  0  0  0  0999 V2000
   39.4040   31.9120   40.5400 N   0  0  0  0  0  0  0  0  0  0  0  0
   38.1690   31.2730   40.9040 C   0  0  1  0  0  0  0  0  0  0  0  0
   36.9740   31.8490   40.2160 C   0  0  0  0  0  0  0  0  0  0  0  0
   36.9510   33.2460   40.0990 N   0  0  0  0  0  0  0  0  0  0  0  0
   38.1730   33.9250   39.9610 C   0  0  0  0  0  0  0  0  0  0  0  0
   39.2910   32.9550   39.5760 C   0  0  0  0  0  0  0  0  0  0  0  0
   38.0040   31.3540   41.9970 H   0  0  0  0  0  0  0  0  0  0  0  0
   36.9610   31.4210   39.1720 H   0  0  0  0  0  0  0  0  0  0  0  0
   36.0550   31.4990   40.7340 H   0  0  0  0  0  0  0  0  0  0  0  0
   36.4180   33.6590   40.9210 H   0  0  0  0  0  0  0  0  0  0  0  0
   38.1060   34.6520   39.1270 H   0  0  0  0  0  0  0  0  0  0  0  0
   38.5390   34.4890   40.8370 H   0  0  0  0  0  0  0  0  0  0  0  0
   39.0930   32.5520   38.5470 H   0  0  0  0  0  0  0  0  0  0  0  0
   40.2090   33.5700   39.5330 H   0  0  0  0  0  0  0  0  0  0  0  0
   41.6910   31.2740   40.3590 C   0  0  0  0  0  0  0  0  0  0  0  0
   40.5800   31.4500   41.1600 C   0  0  0  0  0  0  0  0  0  0  0  0
   40.7100   31.1560   42.5380 C   0  0  0  0  0  0  0  0  0  0  0  0
   41.8930   30.7180   43.0340 N   0  0  0  0  0  0  0  0  0  0  0  0
   42.9580   30.5600   42.2120 C   0  0  0  0  0  0  0  0  0  0  0  0
   42.8680   30.8300   40.8940 N   0  0  0  0  0  0  0  0  0  0  0  0
   41.6910   31.4710   39.2920 H   0  0  0  0  0  0  0  0  0  0  0  0
   39.8020   31.3140   43.1160 H   0  0  0  0  0  0  0  0  0  0  0  0
   43.8100   30.2110   42.7490 H   0  0  0  0  0  0  0  0  0  0  0  0
   38.2490   29.8130   40.4710 C   0  0  0  0  0  0  0  0  0  0  0  0
   37.7510   29.7630   39.4680 H   0  0  0  0  0  0  0  0  0  0  0  0
   39.3070   29.5190   40.2870 H   0  0  0  0  0  0  0  0  0  0  0  0
   37.5790   28.9280   41.3340 N   0  0  0  0  0  0  0  0  0  0  0  0
   37.5020   29.2210   42.7050 C   0  0  0  0  0  2  0  0  0  0  0  0
   37.9200   27.9890   43.5030 C   0  0  0  0  0  2  0  0  0  0  0  0
   36.8220   26.9600   43.2020 C   0  0  0  0  0  3  0  0  0  0  0  0
   35.8650   27.5090   43.2480 H   0  0  0  0  0  0  0  0  0  0  0  0
   37.0460   26.5820   41.7410 C   0  0  0  0  0  2  0  0  0  0  0  0
   37.0130   27.7520   40.8240 C   0  0  0  0  0  2  0  0  0  0  0  0
  1  2  1  0  0  0  0
  1 16  1  0  0  0  0
  2  7  1  1  0  0  0
  3  9  1  0  0  0  0
  3  2  1  0  0  0  0
  4  3  1  0  0  0  0
  4 10  1  0  0  0  0
  5  4  1  0  0  0  0
  5 12  1  0  0  0  0
  6  5  1  0  0  0  0
  6  1  1  0  0  0  0
  8  3  1  0  0  0  0
 11  5  1  0  0  0  0
 13  6  1  0  0  0  0
 14  6  1  0  0  0  0
 15 20  2  0  0  0  0
 15 16  1  0  0  0  0
 16 17  2  0  0  0  0
 17 18  1  0  0  0  0
 17 22  1  0  0  0  0
 19 23  1  0  0  0  0
 19 18  2  0  0  0  0
 20 19  1  0  0  0  0
 21 15  1  0  0  0  0
 24  2  1  0  0  0  0
 24 27  1  0  0  0  0
 25 24  1  0  0  0  0
 26 24  1  0  0  0  0
 27 28  1  0  0  0  0
 28 29  1  0  0  0  0
 30 31  1  0  0  0  0
 30 29  1  0  0  0  0
 32 30  1  0  0  0  0
 33 27  1  0  0  0  0
 33 32  1  0  0  0  0
M  END
>  <minimizedAffinity>
-4.93175745

$$$$

 OpenBabel03252508353D

 33 35  0  0  1  0  0  0  0  0999 V2000
   38.0710   30.7290   38.7650 N   0  0  0  0  0  0  0  0  0  0  0  0
   37.7720   30.4550   40.1430 C   0  0  1  0  0  0  0  0  0  0  0  0
   36.7790   31.4020   40.7380 C   0  0  0  0  0  0  0  0  0  0  0  0
   36.9310   32.7490   40.3810 N   0  0  0  0  0  0  0  0  0  0  0  0
   37.4350   33.0500   39.1050 C   0  0  0  0  0  0  0  0  0  0  0  0
   37.3630   31.8250   38.1920 C   0  0  0  0  0  0  0  0  0  0  0  0
   38.6950   30.5040   40.7540 H   0  0  0  0  0  0  0  0  0  0  0  0
   35.7600   31.0700   40.3830 H   0  0  0  0  0  0  0  0  0  0  0  0
   36.7990   31.3000   41.8440 H   0  0  0  0  0  0  0  0  0  0  0  0
   37.5260   33.2410   41.1120 H   0  0  0  0  0  0  0  0  0  0  0  0
   36.8020   33.8200   38.6240 H   0  0  0  0  0  0  0  0  0  0  0  0
   38.4740   33.4200   39.0460 H   0  0  0  0  0  0  0  0  0  0  0  0
   36.2870   31.5700   37.9990 H   0  0  0  0  0  0  0  0  0  0  0  0
   37.8170   32.1470   37.2360 H   0  0  0  0  0  0  0  0  0  0  0  0
   40.3430   30.0790   38.4730 C   0  0  0  0  0  0  0  0  0  0  0  0
   39.0170   29.9020   38.1300 C   0  0  0  0  0  0  0  0  0  0  0  0
   38.7120   28.9050   37.1740 C   0  0  0  0  0  0  0  0  0  0  0  0
   39.7030   28.1610   36.6250 N   0  0  0  0  0  0  0  0  0  0  0  0
   40.9910   28.3670   36.9900 C   0  0  0  0  0  0  0  0  0  0  0  0
   41.3150   29.3080   37.8980 N   0  0  0  0  0  0  0  0  0  0  0  0
   40.6770   30.8170   39.1950 H   0  0  0  0  0  0  0  0  0  0  0  0
   37.6520   28.8150   36.9450 H   0  0  0  0  0  0  0  0  0  0  0  0
   41.6480   27.7060   36.4730 H   0  0  0  0  0  0  0  0  0  0  0  0
   37.1390   29.0690   40.2210 C   0  0  0  0  0  0  0  0  0  0  0  0
   36.0480   29.2400   40.4140 H   0  0  0  0  0  0  0  0  0  0  0  0
   37.1840   28.5660   39.2290 H   0  0  0  0  0  0  0  0  0  0  0  0
   37.6460   28.2720   41.2610 N   0  0  0  0  0  0  0  0  0  0  0  0
   36.7740   27.7760   42.2440 C   0  0  0  0  0  2  0  0  0  0  0  0
   37.3580   28.0700   43.6240 C   0  0  0  0  0  2  0  0  0  0  0  0
   38.6300   27.2130   43.6800 C   0  0  0  0  0  3  0  0  0  0  0  0
   38.3600   26.2330   43.2480 H   0  0  0  0  0  0  0  0  0  0  0  0
   39.5820   27.8830   42.6940 C   0  0  0  0  0  2  0  0  0  0  0  0
   39.0190   27.9970   41.3230 C   0  0  0  0  0  2  0  0  0  0  0  0
  1  2  1  0  0  0  0
  2 24  1  0  0  0  0
  2  3  1  0  0  0  0
  2  7  1  1  0  0  0
  3  9  1  0  0  0  0
  4  3  1  0  0  0  0
  4 10  1  0  0  0  0
  5  4  1  0  0  0  0
  6  1  1  0  0  0  0
  6  5  1  0  0  0  0
  8  3  1  0  0  0  0
 11  5  1  0  0  0  0
 12  5  1  0  0  0  0
 13  6  1  0  0  0  0
 14  6  1  0  0  0  0
 15 21  1  0  0  0  0
 16 15  1  0  0  0  0
 16  1  1  0  0  0  0
 17 16  2  0  0  0  0
 18 19  2  0  0  0  0
 18 17  1  0  0  0  0
 19 20  1  0  0  0  0
 20 15  2  0  0  0  0
 22 17  1  0  0  0  0
 23 19  1  0  0  0  0
 24 25  1  0  0  0  0
 24 27  1  0  0  0  0
 26 24  1  0  0  0  0
 27 33  1  0  0  0  0
 27 28  1  0  0  0  0
 28 29  1  0  0  0  0
 29 30  1  0  0  0  0
 31 30  1  0  0  0  0
 32 30  1  0  0  0  0
 33 32  1  0  0  0  0
M  END
>  <minimizedAffinity>
-4.87981176

$$$$

 OpenBabel03252508353D

 33 35  0  0  1  0  0  0  0  0999 V2000
   36.6570   28.2490   41.0330 N   0  0  0  0  0  0  0  0  0  0  0  0
   37.2390   29.5340   41.3070 C   0  0  1  0  0  0  0  0  0  0  0  0
   37.9880   29.5870   42.6000 C   0  0  0  0  0  0  0  0  0  0  0  0
   37.3890   28.9240   43.6800 N   0  0  0  0  0  0  0  0  0  0  0  0
   36.6230   27.7770   43.4170 C   0  0  0  0  0  0  0  0  0  0  0  0
   36.9080   27.2450   42.0110 C   0  0  0  0  0  0  0  0  0  0  0  0
   36.4510   30.3130   41.3390 H   0  0  0  0  0  0  0  0  0  0  0  0
   38.9900   29.1010   42.4160 H   0  0  0  0  0  0  0  0  0  0  0  0
   38.1750   30.6500   42.8670 H   0  0  0  0  0  0  0  0  0  0  0  0
   36.7990   29.6130   44.2330 H   0  0  0  0  0  0  0  0  0  0  0  0
   36.9140   26.9630   44.1100 H   0  0  0  0  0  0  0  0  0  0  0  0
   35.5250   27.8730   43.4950 H   0  0  0  0  0  0  0  0  0  0  0  0
   37.9670   26.8730   41.9650 H   0  0  0  0  0  0  0  0  0  0  0  0
   36.2340   26.3770   41.8850 H   0  0  0  0  0  0  0  0  0  0  0  0
   34.8660   28.9970   39.6550 C   0  0  0  0  0  0  0  0  0  0  0  0
   35.9110   28.1150   39.8480 C   0  0  0  0  0  0  0  0  0  0  0  0
   36.1510   27.1510   38.8410 C   0  0  0  0  0  0  0  0  0  0  0  0
   35.3710   27.1100   37.7340 N   0  0  0  0  0  0  0  0  0  0  0  0
   34.3560   27.9950   37.5850 C   0  0  0  0  0  0  0  0  0  0  0  0
   34.1000   28.9270   38.5240 N   0  0  0  0  0  0  0  0  0  0  0  0
   34.6020   29.7710   40.3680 H   0  0  0  0  0  0  0  0  0  0  0  0
   36.9860   26.4850   39.0510 H   0  0  0  0  0  0  0  0  0  0  0  0
   33.8390   27.8360   36.6660 H   0  0  0  0  0  0  0  0  0  0  0  0
   38.2580   29.8320   40.2110 C   0  0  0  0  0  0  0  0  0  0  0  0
   39.2470   29.4860   40.6090 H   0  0  0  0  0  0  0  0  0  0  0  0
   38.0640   29.1970   39.3180 H   0  0  0  0  0  0  0  0  0  0  0  0
   38.3690   31.1980   39.8970 N   0  0  0  0  0  0  0  0  0  0  0  0
   39.5000   31.9170   40.3170 C   0  0  0  0  0  2  0  0  0  0  0  0
   39.0480   33.2070   40.9970 C   0  0  0  0  0  2  0  0  0  0  0  0
   38.3980   34.0150   39.8660 C   0  0  0  0  0  3  0  0  0  0  0  0
   39.0590   33.9020   38.9880 H   0  0  0  0  0  0  0  0  0  0  0  0
   37.1110   33.2590   39.5510 C   0  0  0  0  0  2  0  0  0  0  0  0
   37.3430   31.8360   39.1880 C   0  0  0  0  0  2  0  0  0  0  0  0
  1  2  1  0  0  0  0
  1  6  1  0  0  0  0
  2  7  1  6  0  0  0
  2  3  1  0  0  0  0
  3  9  1  0  0  0  0
  3  4  1  0  0  0  0
  4 10  1  0  0  0  0
  5 12  1  0  0  0  0
  5  4  1  0  0  0  0
  5 11  1  0  0  0  0
  6  5  1  0  0  0  0
  8  3  1  0  0  0  0
 13  6  1  0  0  0  0
 14  6  1  0  0  0  0
 15 16  1  0  0  0  0
 15 21  1  0  0  0  0
 16  1  1  0  0  0  0
 17 22  1  0  0  0  0
 17 16  2  0  0  0  0
 18 17  1  0  0  0  0
 19 18  2  0  0  0  0
 19 20  1  0  0  0  0
 20 15  2  0  0  0  0
 23 19  1  0  0  0  0
 24 25  1  0  0  0  0
 24  2  1  0  0  0  0
 26 24  1  0  0  0  0
 27 24  1  0  0  0  0
 27 28  1  0  0  0  0
 28 29  1  0  0  0  0
 30 29  1  0  0  0  0
 31 30  1  0  0  0  0
 32 30  1  0  0  0  0
 33 32  1  0  0  0  0
 33 27  1  0  0  0  0
M  END
>  <minimizedAffinity>
-4.86196518

$$$$

 OpenBabel03252508353D

 33 35  0  0  1  0  0  0  0  0999 V2000
   36.5890   28.1660   40.9450 N   0  0  0  0  0  0  0  0  0  0  0  0
   37.0490   29.4350   41.4390 C   0  0  1  0  0  0  0  0  0  0  0  0
   37.7860   29.3400   42.7360 C   0  0  0  0  0  0  0  0  0  0  0  0
   37.2480   28.4540   43.6800 N   0  0  0  0  0  0  0  0  0  0  0  0
   36.5920   27.3020   43.2160 C   0  0  0  0  0  0  0  0  0  0  0  0
   36.9300   27.0400   41.7480 C   0  0  0  0  0  0  0  0  0  0  0  0
   36.1920   30.1230   41.5850 H   0  0  0  0  0  0  0  0  0  0  0  0
   38.8290   28.9840   42.4920 H   0  0  0  0  0  0  0  0  0  0  0  0
   37.8730   30.3560   43.1780 H   0  0  0  0  0  0  0  0  0  0  0  0
   36.5950   28.9850   44.3290 H   0  0  0  0  0  0  0  0  0  0  0  0
   36.9560   26.4140   43.7710 H   0  0  0  0  0  0  0  0  0  0  0  0
   35.4900   27.2830   43.2890 H   0  0  0  0  0  0  0  0  0  0  0  0
   38.0180   26.7790   41.6590 H   0  0  0  0  0  0  0  0  0  0  0  0
   36.3390   26.1470   41.4670 H   0  0  0  0  0  0  0  0  0  0  0  0
   36.2470   27.2610   38.7700 C   0  0  0  0  0  0  0  0  0  0  0  0
   35.8610   28.1640   39.7410 C   0  0  0  0  0  0  0  0  0  0  0  0
   34.7670   29.0130   39.4510 C   0  0  0  0  0  0  0  0  0  0  0  0
   34.1330   28.9270   38.2560 N   0  0  0  0  0  0  0  0  0  0  0  0
   34.5440   28.0250   37.3330 C   0  0  0  0  0  0  0  0  0  0  0  0
   35.5830   27.2020   37.5760 N   0  0  0  0  0  0  0  0  0  0  0  0
   37.0730   26.5690   38.8970 H   0  0  0  0  0  0  0  0  0  0  0  0
   34.5120   29.7030   40.2540 H   0  0  0  0  0  0  0  0  0  0  0  0
   33.9480   28.0790   36.4500 H   0  0  0  0  0  0  0  0  0  0  0  0
   38.0380   30.0030   40.4260 C   0  0  0  0  0  0  0  0  0  0  0  0
   39.0310   29.5490   40.6800 H   0  0  0  0  0  0  0  0  0  0  0  0
   37.8020   29.6340   39.4030 H   0  0  0  0  0  0  0  0  0  0  0  0
   38.1700   31.4010   40.4850 N   0  0  0  0  0  0  0  0  0  0  0  0
   37.0340   32.2130   40.3290 C   0  0  0  0  0  2  0  0  0  0  0  0
   37.3340   33.2990   39.3000 C   0  0  0  0  0  2  0  0  0  0  0  0
   38.4120   34.1610   39.9720 C   0  0  0  0  0  3  0  0  0  0  0  0
   38.0960   34.2860   41.0220 H   0  0  0  0  0  0  0  0  0  0  0  0
   39.6530   33.2730   39.9860 C   0  0  0  0  0  2  0  0  0  0  0  0
   39.4350   31.9750   40.6760 C   0  0  0  0  0  2  0  0  0  0  0  0
  1  2  1  0  0  0  0
  1  6  1  0  0  0  0
  2  7  1  1  0  0  0
  2  3  1  0  0  0  0
  3  9  1  0  0  0  0
  3  4  1  0  0  0  0
  4 10  1  0  0  0  0
  5 12  1  0  0  0  0
  5  4  1  0  0  0  0
  5 11  1  0  0  0  0
  6  5  1  0  0  0  0
  8  3  1  0  0  0  0
 13  6  1  0  0  0  0
 14  6  1  0  0  0  0
 15 21  1  0  0  0  0
 15 16  1  0  0  0  0
 16  1  1  0  0  0  0
 17 16  2  0  0  0  0
 17 22  1  0  0  0  0
 18 17  1  0  0  0  0
 19 20  1  0  0  0  0
 19 18  2  0  0  0  0
 20 15  2  0  0  0  0
 23 19  1  0  0  0  0
 24 27  1  0  0  0  0
 24 25  1  0  0  0  0
 24  2  1  0  0  0  0
 26 24  1  0  0  0  0
 27 33  1  0  0  0  0
 28 27  1  0  0  0  0
 29 30  1  0  0  0  0
 29 28  1  0  0  0  0
 30 32  1  0  0  0  0
 30 31  1  0  0  0  0
 32 33  1  0  0  0  0
M  END
>  <minimizedAffinity>
-4.74442768

$$$$

 OpenBabel03252508353D

 33 35  0  0  1  0  0  0  0  0999 V2000
   37.2030   30.5640   39.7450 N   0  0  0  0  0  0  0  0  0  0  0  0
   36.3990   30.2620   40.8960 C   0  0  1  0  0  0  0  0  0  0  0  0
   35.5220   29.0650   40.7150 C   0  0  0  0  0  0  0  0  0  0  0  0
   34.9010   28.9470   39.4640 N   0  0  0  0  0  0  0  0  0  0  0  0
   35.5750   29.4390   38.3350 C   0  0  0  0  0  0  0  0  0  0  0  0
   37.0550   29.6710   38.6450 C   0  0  0  0  0  0  0  0  0  0  0  0
   35.7490   31.1240   41.1480 H   0  0  0  0  0  0  0  0  0  0  0  0
   36.1780   28.1560   40.8540 H   0  0  0  0  0  0  0  0  0  0  0  0
   34.7560   29.0520   41.5200 H   0  0  0  0  0  0  0  0  0  0  0  0
   33.9350   29.3890   39.5090 H   0  0  0  0  0  0  0  0  0  0  0  0
   35.5530   28.6820   37.5260 H   0  0  0  0  0  0  0  0  0  0  0  0
   35.2010   30.3780   37.8910 H   0  0  0  0  0  0  0  0  0  0  0  0
   37.5510   28.6830   38.8410 H   0  0  0  0  0  0  0  0  0  0  0  0
   37.4850   30.0920   37.7180 H   0  0  0  0  0  0  0  0  0  0  0  0
   37.4330   32.9260   39.9380 C   0  0  0  0  0  0  0  0  0  0  0  0
   38.0410   31.6920   39.8170 C   0  0  0  0  0  0  0  0  0  0  0  0
   39.4550   31.6570   39.7800 C   0  0  0  0  0  0  0  0  0  0  0  0
   40.1690   32.8070   39.8600 N   0  0  0  0  0  0  0  0  0  0  0  0
   39.5310   33.9960   39.9780 C   0  0  0  0  0  0  0  0  0  0  0  0
   38.1860   34.0650   40.0160 N   0  0  0  0  0  0  0  0  0  0  0  0
   36.3560   33.0560   39.9750 H   0  0  0  0  0  0  0  0  0  0  0  0
   39.8750   30.6580   39.6830 H   0  0  0  0  0  0  0  0  0  0  0  0
   40.2260   34.8030   40.0290 H   0  0  0  0  0  0  0  0  0  0  0  0
   37.3390   29.9310   42.0520 C   0  0  0  0  0  0  0  0  0  0  0  0
   38.2570   30.5540   41.8890 H   0  0  0  0  0  0  0  0  0  0  0  0
   36.9100   30.2900   43.0150 H   0  0  0  0  0  0  0  0  0  0  0  0
   37.7300   28.5820   42.0980 N   0  0  0  0  0  0  0  0  0  0  0  0
   38.7950   28.1410   41.2950 C   0  0  0  0  0  2  0  0  0  0  0  0
   38.3680   26.8820   40.5460 C   0  0  0  0  0  2  0  0  0  0  0  0
   38.1770   25.8360   41.6530 C   0  0  0  0  0  3  0  0  0  0  0  0
   39.0290   25.9620   42.3440 H   0  0  0  0  0  0  0  0  0  0  0  0
   36.9300   26.2970   42.4000 C   0  0  0  0  0  2  0  0  0  0  0  0
   37.0420   27.6840   42.9240 C   0  0  0  0  0  2  0  0  0  0  0  0
  1 16  1  0  0  0  0
  1  2  1  0  0  0  0
  2  7  1  1  0  0  0
  2 24  1  0  0  0  0
  3  8  1  0  0  0  0
  3  2  1  0  0  0  0
  3  9  1  0  0  0  0
  4 10  1  0  0  0  0
  4  3  1  0  0  0  0
  5  6  1  0  0  0  0
  5  4  1  0  0  0  0
  6 13  1  0  0  0  0
  6  1  1  0  0  0  0
 11  5  1  0  0  0  0
 12  5  1  0  0  0  0
 14  6  1  0  0  0  0
 15 21  1  0  0  0  0
 15 20  1  0  0  0  0
 16 15  2  0  0  0  0
 17 16  1  0  0  0  0
 17 18  2  0  0  0  0
 18 19  1  0  0  0  0
 19 20  2  0  0  0  0
 19 23  1  0  0  0  0
 22 17  1  0  0  0  0
 24 27  1  0  0  0  0
 24 26  1  0  0  0  0
 25 24  1  0  0  0  0
 27 33  1  0  0  0  0
 28 27  1  0  0  0  0
 29 28  1  0  0  0  0
 29 30  1  0  0  0  0
 30 31  1  0  0  0  0
 30 32  1  0  0  0  0
 32 33  1  0  0  0  0
M  END
>  <minimizedAffinity>
-4.64312363

$$$$

 OpenBabel03252508353D

 33 35  0  0  1  0  0  0  0  0999 V2000
   38.2800   30.8530   41.0900 N   0  0  0  0  0  0  0  0  0  0  0  0
   39.2240   30.2180   41.9670 C   0  0  1  0  0  0  0  0  0  0  0  0
   40.2240   31.1610   42.5540 C   0  0  0  0  0  0  0  0  0  0  0  0
   40.7310   32.1340   41.6810 N   0  0  0  0  0  0  0  0  0  0  0  0
   39.8930   32.6200   40.6640 C   0  0  0  0  0  0  0  0  0  0  0  0
   38.4330   32.2620   40.9470 C   0  0  0  0  0  0  0  0  0  0  0  0
   39.7810   29.4280   41.4240 H   0  0  0  0  0  0  0  0  0  0  0  0
   39.7050   31.7020   43.3990 H   0  0  0  0  0  0  0  0  0  0  0  0
   41.0600   30.5760   42.9940 H   0  0  0  0  0  0  0  0  0  0  0  0
   41.6320   31.7780   41.2450 H   0  0  0  0  0  0  0  0  0  0  0  0
   39.9320   33.7270   40.6430 H   0  0  0  0  0  0  0  0  0  0  0  0
   40.1010   32.2830   39.6330 H   0  0  0  0  0  0  0  0  0  0  0  0
   38.0880   32.8140   41.8620 H   0  0  0  0  0  0  0  0  0  0  0  0
   37.8650   32.6470   40.0800 H   0  0  0  0  0  0  0  0  0  0  0  0
   37.7750   29.0630   39.6040 C   0  0  0  0  0  0  0  0  0  0  0  0
   37.3170   30.0350   40.4720 C   0  0  0  0  0  0  0  0  0  0  0  0
   35.9200   30.1300   40.6740 C   0  0  0  0  0  0  0  0  0  0  0  0
   35.0780   29.2870   40.0280 N   0  0  0  0  0  0  0  0  0  0  0  0
   35.5700   28.3480   39.1850 C   0  0  0  0  0  0  0  0  0  0  0  0
   36.8950   28.2310   38.9700 N   0  0  0  0  0  0  0  0  0  0  0  0
   38.8270   28.9120   39.3830 H   0  0  0  0  0  0  0  0  0  0  0  0
   35.6210   30.9140   41.3670 H   0  0  0  0  0  0  0  0  0  0  0  0
   34.7860   27.7660   38.7570 H   0  0  0  0  0  0  0  0  0  0  0  0
   38.4500   29.6290   43.1440 C   0  0  0  0  0  0  0  0  0  0  0  0
   39.0220   29.9200   44.0630 H   0  0  0  0  0  0  0  0  0  0  0  0
   37.4600   30.1280   43.2460 H   0  0  0  0  0  0  0  0  0  0  0  0
   38.3560   28.2270   43.1160 N   0  0  0  0  0  0  0  0  0  0  0  0
   39.5200   27.4560   42.9640 C   0  0  0  0  0  2  0  0  0  0  0  0
   39.2950   26.4250   41.8610 C   0  0  0  0  0  2  0  0  0  0  0  0
   38.2140   25.4970   42.4330 C   0  0  0  0  0  3  0  0  0  0  0  0
   38.4890   25.3190   43.4870 H   0  0  0  0  0  0  0  0  0  0  0  0
   36.9490   26.3500   42.4430 C   0  0  0  0  0  2  0  0  0  0  0  0
   37.1010   27.6110   43.2170 C   0  0  0  0  0  2  0  0  0  0  0  0
  1  2  1  0  0  0  0
  2  7  1  6  0  0  0
  2  3  1  0  0  0  0
  2 24  1  0  0  0  0
  3  9  1  0  0  0  0
  3  8  1  0  0  0  0
  4  3  1  0  0  0  0
  5  6  1  0  0  0  0
  5  4  1  0  0  0  0
  6  1  1  0  0  0  0
  6 13  1  0  0  0  0
 10  4  1  0  0  0  0
 11  5  1  0  0  0  0
 12  5  1  0  0  0  0
 14  6  1  0  0  0  0
 15 16  1  0  0  0  0
 16 17  2  0  0  0  0
 16  1  1  0  0  0  0
 17 22  1  0  0  0  0
 18 17  1  0  0  0  0
 19 18  2  0  0  0  0
 20 19  1  0  0  0  0
 20 15  2  0  0  0  0
 21 15  1  0  0  0  0
 23 19  1  0  0  0  0
 24 26  1  0  0  0  0
 24 25  1  0  0  0  0
 27 24  1  0  0  0  0
 27 33  1  0  0  0  0
 28 27  1  0  0  0  0
 29 30  1  0  0  0  0
 29 28  1  0  0  0  0
 30 32  1  0  0  0  0
 30 31  1  0  0  0  0
 32 33  1  0  0  0  0
M  END
>  <minimizedAffinity>
-4.59790182

$$$$

 OpenBabel03252508353D

 33 35  0  0  1  0  0  0  0  0999 V2000
   38.4970   30.4790   39.9200 N   0  0  0  0  0  0  0  0  0  0  0  0
   37.9670   30.7750   41.2220 C   0  0  1  0  0  0  0  0  0  0  0  0
   36.5680   30.2870   41.4230 C   0  0  0  0  0  0  0  0  0  0  0  0
   35.7010   30.4570   40.3350 N   0  0  0  0  0  0  0  0  0  0  0  0
   36.2350   30.3910   39.0370 C   0  0  0  0  0  0  0  0  0  0  0  0
   37.6260   29.7550   39.0570 C   0  0  0  0  0  0  0  0  0  0  0  0
   37.9730   31.8700   41.3990 H   0  0  0  0  0  0  0  0  0  0  0  0
   36.6370   29.1800   41.6320 H   0  0  0  0  0  0  0  0  0  0  0  0
   36.1410   30.7740   42.3260 H   0  0  0  0  0  0  0  0  0  0  0  0
   35.1750   31.3740   40.4440 H   0  0  0  0  0  0  0  0  0  0  0  0
   35.6100   29.7270   38.4080 H   0  0  0  0  0  0  0  0  0  0  0  0
   36.3360   31.3400   38.4830 H   0  0  0  0  0  0  0  0  0  0  0  0
   37.5360   28.6780   39.3620 H   0  0  0  0  0  0  0  0  0  0  0  0
   37.9750   29.7860   38.0070 H   0  0  0  0  0  0  0  0  0  0  0  0
   40.7110   29.9820   39.1990 C   0  0  0  0  0  0  0  0  0  0  0  0
   39.8010   30.9250   39.6340 C   0  0  0  0  0  0  0  0  0  0  0  0
   40.2470   32.2620   39.7560 C   0  0  0  0  0  0  0  0  0  0  0  0
   41.5270   32.5850   39.4520 N   0  0  0  0  0  0  0  0  0  0  0  0
   42.3870   31.6290   39.0270 C   0  0  0  0  0  0  0  0  0  0  0  0
   41.9950   30.3460   38.9000 N   0  0  0  0  0  0  0  0  0  0  0  0
   40.4660   28.9330   39.0740 H   0  0  0  0  0  0  0  0  0  0  0  0
   39.4850   32.9570   40.1040 H   0  0  0  0  0  0  0  0  0  0  0  0
   43.3510   32.0380   38.8290 H   0  0  0  0  0  0  0  0  0  0  0  0
   38.8240   30.0510   42.2560 C   0  0  0  0  0  0  0  0  0  0  0  0
   39.8550   30.0000   41.8180 H   0  0  0  0  0  0  0  0  0  0  0  0
   38.9280   30.6700   43.1750 H   0  0  0  0  0  0  0  0  0  0  0  0
   38.3990   28.7380   42.5250 N   0  0  0  0  0  0  0  0  0  0  0  0
   38.8310   27.6870   41.7010 C   0  0  0  0  0  2  0  0  0  0  0  0
   37.6230   26.8510   41.2850 C   0  0  0  0  0  2  0  0  0  0  0  0
   37.1370   26.2210   42.5980 C   0  0  0  0  0  3  0  0  0  0  0  0
   38.0430   25.8900   43.1340 H   0  0  0  0  0  0  0  0  0  0  0  0
   36.5580   27.3910   43.3870 C   0  0  0  0  0  2  0  0  0  0  0  0
   37.5330   28.4930   43.5990 C   0  0  0  0  0  2  0  0  0  0  0  0
  1  2  1  0  0  0  0
  2  7  1  1  0  0  0
  2  3  1  0  0  0  0
  2 24  1  0  0  0  0
  3  8  1  0  0  0  0
  3  9  1  0  0  0  0
  4 10  1  0  0  0  0
  4  3  1  0  0  0  0
  5  6  1  0  0  0  0
  5  4  1  0  0  0  0
  6 13  1  0  0  0  0
  6  1  1  0  0  0  0
 11  5  1  0  0  0  0
 12  5  1  0  0  0  0
 14  6  1  0  0  0  0
 15 16  1  0  0  0  0
 16 17  2  0  0  0  0
 16  1  1  0  0  0  0
 17 22  1  0  0  0  0
 18 17  1  0  0  0  0
 19 18  2  0  0  0  0
 20 19  1  0  0  0  0
 20 15  2  0  0  0  0
 21 15  1  0  0  0  0
 23 19  1  0  0  0  0
 24 27  1  0  0  0  0
 24 26  1  0  0  0  0
 25 24  1  0  0  0  0
 27 33  1  0  0  0  0
 28 27  1  0  0  0  0
 29 28  1  0  0  0  0
 29 30  1  0  0  0  0
 30 31  1  0  0  0  0
 30 32  1  0  0  0  0
 32 33  1  0  0  0  0
M  END
>  <minimizedAffinity>
-4.57258368

$$$$

 OpenBabel03252508353D

 33 35  0  0  1  0  0  0  0  0999 V2000
   37.5420   28.0800   40.9750 N   0  0  0  0  0  0  0  0  0  0  0  0
   38.1740   29.2360   41.5480 C   0  0  1  0  0  0  0  0  0  0  0  0
   39.2600   28.9020   42.5200 C   0  0  0  0  0  0  0  0  0  0  0  0
   38.9960   27.8330   43.3870 N   0  0  0  0  0  0  0  0  0  0  0  0
   38.1900   26.7800   42.9230 C   0  0  0  0  0  0  0  0  0  0  0  0
   38.0650   26.8250   41.3990 C   0  0  0  0  0  0  0  0  0  0  0  0
   37.4260   29.8600   42.0770 H   0  0  0  0  0  0  0  0  0  0  0  0
   40.1700   28.6280   41.9100 H   0  0  0  0  0  0  0  0  0  0  0  0
   39.5120   29.8120   43.1080 H   0  0  0  0  0  0  0  0  0  0  0  0
   38.5860   28.2080   44.2930 H   0  0  0  0  0  0  0  0  0  0  0  0
   38.6700   25.8100   43.1570 H   0  0  0  0  0  0  0  0  0  0  0  0
   37.1600   26.7200   43.3170 H   0  0  0  0  0  0  0  0  0  0  0  0
   39.0680   26.6140   40.9400 H   0  0  0  0  0  0  0  0  0  0  0  0
   37.3860   25.9920   41.1380 H   0  0  0  0  0  0  0  0  0  0  0  0
   35.3530   28.9150   40.5540 C   0  0  0  0  0  0  0  0  0  0  0  0
   36.4900   28.3000   40.0670 C   0  0  0  0  0  0  0  0  0  0  0  0
   36.5090   27.9420   38.6990 C   0  0  0  0  0  0  0  0  0  0  0  0
   35.4380   28.2030   37.9100 N   0  0  0  0  0  0  0  0  0  0  0  0
   34.3430   28.8090   38.4280 C   0  0  0  0  0  0  0  0  0  0  0  0
   34.2920   29.1630   39.7270 N   0  0  0  0  0  0  0  0  0  0  0  0
   35.2420   29.2270   41.5870 H   0  0  0  0  0  0  0  0  0  0  0  0
   37.4300   27.4610   38.3750 H   0  0  0  0  0  0  0  0  0  0  0  0
   33.5910   28.9450   37.6850 H   0  0  0  0  0  0  0  0  0  0  0  0
   38.8370   30.0190   40.4190 C   0  0  0  0  0  0  0  0  0  0  0  0
   39.9350   29.8040   40.5000 H   0  0  0  0  0  0  0  0  0  0  0  0
   38.5320   29.6080   39.4300 H   0  0  0  0  0  0  0  0  0  0  0  0
   38.6580   31.4100   40.5120 N   0  0  0  0  0  0  0  0  0  0  0  0
   37.3610   31.9460   40.4680 C   0  0  0  0  0  2  0  0  0  0  0  0
   37.3260   33.0870   39.4540 C   0  0  0  0  0  2  0  0  0  0  0  0
   38.2350   34.1600   40.0690 C   0  0  0  0  0  3  0  0  0  0  0  0
   37.9840   34.1960   41.1430 H   0  0  0  0  0  0  0  0  0  0  0  0
   39.6390   33.5740   39.9610 C   0  0  0  0  0  2  0  0  0  0  0  0
   39.7730   32.2500   40.6250 C   0  0  0  0  0  2  0  0  0  0  0  0
  1  6  1  0  0  0  0
  1  2  1  0  0  0  0
  2  7  1  1  0  0  0
  2  3  1  0  0  0  0
  3  9  1  0  0  0  0
  3  4  1  0  0  0  0
  4 10  1  0  0  0  0
  5 11  1  0  0  0  0
  5 12  1  0  0  0  0
  5  4  1  0  0  0  0
  6  5  1  0  0  0  0
  8  3  1  0  0  0  0
 13  6  1  0  0  0  0
 14  6  1  0  0  0  0
 15 21  1  0  0  0  0
 16 15  1  0  0  0  0
 16  1  1  0  0  0  0
 17 16  2  0  0  0  0
 18 19  2  0  0  0  0
 18 17  1  0  0  0  0
 19 20  1  0  0  0  0
 20 15  2  0  0  0  0
 22 17  1  0  0  0  0
 23 19  1  0  0  0  0
 24 25  1  0  0  0  0
 24 27  1  0  0  0  0
 24  2  1  0  0  0  0
 26 24  1  0  0  0  0
 27 33  1  0  0  0  0
 28 27  1  0  0  0  0
 29 30  1  0  0  0  0
 29 28  1  0  0  0  0
 30 31  1  0  0  0  0
 32 30  1  0  0  0  0
 32 33  1  0  0  0  0
M  END
>  <minimizedAffinity>
-4.54795504

$$$$

 OpenBabel03252508353D

 33 35  0  0  1  0  0  0  0  0999 V2000
   37.2890   29.8390   39.0850 N   0  0  0  0  0  0  0  0  0  0  0  0
   37.7020   30.5460   40.2660 C   0  0  1  0  0  0  0  0  0  0  0  0
   37.6180   32.0330   40.1320 C   0  0  0  0  0  0  0  0  0  0  0  0
   38.0360   32.5600   38.9030 N   0  0  0  0  0  0  0  0  0  0  0  0
   37.8430   31.7890   37.7450 C   0  0  0  0  0  0  0  0  0  0  0  0
   36.8460   30.6580   38.0070 C   0  0  0  0  0  0  0  0  0  0  0  0
   38.7500   30.2880   40.5210 H   0  0  0  0  0  0  0  0  0  0  0  0
   36.5320   32.3110   40.2680 H   0  0  0  0  0  0  0  0  0  0  0  0
   38.1910   32.5040   40.9600 H   0  0  0  0  0  0  0  0  0  0  0  0
   39.0610   32.8330   38.9680 H   0  0  0  0  0  0  0  0  0  0  0  0
   37.3870   32.4130   36.9510 H   0  0  0  0  0  0  0  0  0  0  0  0
   38.7350   31.3180   37.2960 H   0  0  0  0  0  0  0  0  0  0  0  0
   35.8330   31.0980   38.2060 H   0  0  0  0  0  0  0  0  0  0  0  0
   36.7940   30.0900   37.0600 H   0  0  0  0  0  0  0  0  0  0  0  0
   38.6110   27.8670   39.2630 C   0  0  0  0  0  0  0  0  0  0  0  0
   37.3610   28.4340   39.1130 C   0  0  0  0  0  0  0  0  0  0  0  0
   36.2530   27.5620   39.0020 C   0  0  0  0  0  0  0  0  0  0  0  0
   36.4340   26.2190   39.0430 N   0  0  0  0  0  0  0  0  0  0  0  0
   37.6780   25.7050   39.1920 C   0  0  0  0  0  0  0  0  0  0  0  0
   38.7550   26.5080   39.3010 N   0  0  0  0  0  0  0  0  0  0  0  0
   39.5210   28.4520   39.3560 H   0  0  0  0  0  0  0  0  0  0  0  0
   35.2960   28.0670   38.8840 H   0  0  0  0  0  0  0  0  0  0  0  0
   37.6560   24.6400   39.2060 H   0  0  0  0  0  0  0  0  0  0  0  0
   36.7550   30.1650   41.3990 C   0  0  0  0  0  0  0  0  0  0  0  0
   36.5320   31.1170   41.9460 H   0  0  0  0  0  0  0  0  0  0  0  0
   35.7760   29.8270   40.9900 H   0  0  0  0  0  0  0  0  0  0  0  0
   37.3070   29.2540   42.3170 N   0  0  0  0  0  0  0  0  0  0  0  0
   38.5330   29.5490   42.9350 C   0  0  0  0  0  2  0  0  0  0  0  0
   39.4570   28.3400   42.8130 C   0  0  0  0  0  2  0  0  0  0  0  0
   38.7730   27.2610   43.6640 C   0  0  0  0  0  3  0  0  0  0  0  0
   38.4310   27.7670   44.5840 H   0  0  0  0  0  0  0  0  0  0  0  0
   37.5240   26.8890   42.8730 C   0  0  0  0  0  2  0  0  0  0  0  0
   36.6410   28.0520   42.5920 C   0  0  0  0  0  2  0  0  0  0  0  0
  1 16  1  0  0  0  0
  1  2  1  0  0  0  0
  2  7  1  1  0  0  0
  2 24  1  0  0  0  0
  3  2  1  0  0  0  0
  3  8  1  0  0  0  0
  3  9  1  0  0  0  0
  4 10  1  0  0  0  0
  4  3  1  0  0  0  0
  5  6  1  0  0  0  0
  5  4  1  0  0  0  0
  6 13  1  0  0  0  0
  6  1  1  0  0  0  0
 11  5  1  0  0  0  0
 12  5  1  0  0  0  0
 14  6  1  0  0  0  0
 15 20  1  0  0  0  0
 15 21  1  0  0  0  0
 16 15  2  0  0  0  0
 17 18  2  0  0  0  0
 17 16  1  0  0  0  0
 18 19  1  0  0  0  0
 19 23  1  0  0  0  0
 19 20  2  0  0  0  0
 22 17  1  0  0  0  0
 24 25  1  0  0  0  0
 24 27  1  0  0  0  0
 26 24  1  0  0  0  0
 27 33  1  0  0  0  0
 27 28  1  0  0  0  0
 29 28  1  0  0  0  0
 29 30  1  0  0  0  0
 30 31  1  0  0  0  0
 32 30  1  0  0  0  0
 33 32  1  0  0  0  0
M  END
>  <minimizedAffinity>
-4.54588175

$$$$
