
 OpenBabel03252509253D

 28 30  0  0  1  0  0  0  0  0999 V2000
   46.6000   35.1270   41.8990 C   0  0  1  0  0  0  0  0  0  0  0  0
   48.1440   35.3240   41.9270 C   0  0  0  0  0  0  0  0  0  0  0  0
   47.3920   34.1520   41.2690 C   0  0  2  0  0  0  0  0  0  0  0  0
   46.0800   35.9350   41.3600 H   0  0  0  0  0  0  0  0  0  0  0  0
   48.5410   36.0960   41.2210 H   0  0  0  0  0  0  0  0  0  0  0  0
   48.6850   35.1810   42.8530 H   0  0  0  0  0  0  0  0  0  0  0  0
   47.7160   33.1800   41.7490 H   0  0  0  0  0  0  0  0  0  0  0  0
   44.6740   35.3880   45.1120 C   0  0  0  0  0  0  0  0  0  0  0  0
   45.1500   35.7230   43.8160 C   0  0  0  0  0  0  0  0  0  0  0  0
   46.0830   34.8910   43.2980 C   0  0  0  0  0  0  0  0  0  0  0  0
   46.5440   33.7870   43.9900 N   0  0  0  0  0  0  0  0  0  0  0  0
   46.0720   33.4950   45.2200 C   0  0  0  0  0  0  0  0  0  0  0  0
   45.1270   34.3050   45.7860 N   0  0  0  0  0  0  0  0  0  0  0  0
   43.9300   36.0410   45.5360 H   0  0  0  0  0  0  0  0  0  0  0  0
   46.4610   32.6260   45.7200 H   0  0  0  0  0  0  0  0  0  0  0  0
   44.7020   36.8710   43.1170 N   0  0  0  0  0  0  0  0  0  0  0  0
   43.7230   37.2320   42.9990 H   0  0  0  0  0  0  0  0  0  0  0  0
   45.4090   37.4700   42.6380 H   0  0  0  0  0  0  0  0  0  0  0  0
   47.4350   34.0210   39.7640 C   0  0  0  0  0  0  0  0  0  0  0  0
   46.8500   34.8610   39.3290 H   0  0  0  0  0  0  0  0  0  0  0  0
   48.4570   34.0860   39.3570 H   0  0  0  0  0  0  0  0  0  0  0  0
   46.7620   32.7980   39.3670 N   0  0  0  0  0  0  0  0  0  0  0  0
   45.3630   33.0310   39.1590 C   0  0  0  0  0  2  0  0  0  0  0  0
   44.5600   31.7720   39.1600 C   0  0  0  0  0  2  0  0  0  0  0  0
   45.4920   30.5660   39.0490 C   0  0  0  0  0  3  0  0  0  0  0  0
   44.8960   29.6380   38.9350 H   0  0  0  0  0  0  0  0  0  0  0  0
   46.2840   30.5690   40.3340 C   0  0  0  0  0  2  0  0  0  0  0  0
   46.9530   31.8930   40.4850 C   0  0  0  0  0  2  0  0  0  0  0  0
  1  4  1  6  0  0  0
  1  2  1  0  0  0  0
  1 10  1  0  0  0  0
  2  6  1  0  0  0  0
  3  7  1  1  0  0  0
  3  1  1  0  0  0  0
  3  2  1  0  0  0  0
  5  2  1  0  0  0  0
  8 14  1  0  0  0  0
  8 13  1  0  0  0  0
  9  8  2  0  0  0  0
 10  9  1  0  0  0  0
 10 11  2  0  0  0  0
 11 12  1  0  0  0  0
 12 15  1  0  0  0  0
 12 13  2  0  0  0  0
 16  9  1  0  0  0  0
 17 16  1  0  0  0  0
 18 16  1  0  0  0  0
 19  3  1  0  0  0  0
 20 19  1  0  0  0  0
 21 19  1  0  0  0  0
 22 19  1  0  0  0  0
 22 28  1  0  0  0  0
 23 24  1  0  0  0  0
 23 22  1  0  0  0  0
 25 24  1  0  0  0  0
 25 27  1  0  0  0  0
 26 25  1  0  0  0  0
 27 28  1  0  0  0  0
M  END
>  <minimizedAffinity>
-4.3226428

>  <minimizedRMSD>
1.29396033

$$$$
