
 OpenBabel03252508103D

 45 48  0  0  0  0  0  0  0  0999 V2000
   45.0320   35.4980   43.3940 C   0  0  0  0  0  0  0  0  0  0  0  0
   45.4780   34.1910   43.4290 C   0  0  0  0  0  0  0  0  0  0  0  0
   45.4830   33.4800   44.5940 C   0  0  0  0  0  0  0  0  0  0  0  0
   45.0140   34.1490   45.7190 N   0  0  0  0  0  0  0  0  0  0  0  0
   44.5860   35.3990   45.6890 C   0  0  0  0  0  0  0  0  0  0  0  0
   44.6000   36.0680   44.5140 N   0  0  0  0  0  0  0  0  0  0  0  0
   45.0170   36.0850   42.4890 H   0  0  0  0  0  0  0  0  0  0  0  0
   44.2280   35.8830   46.5940 H   0  0  0  0  0  0  0  0  0  0  0  0
   45.9040   32.1560   44.8120 C   0  0  0  0  0  0  0  0  0  0  0  0
   45.6220   31.1120   43.9090 C   0  0  0  0  0  0  0  0  0  0  0  0
   45.9690   29.8030   44.1150 C   0  0  0  0  0  0  0  0  0  0  0  0
   46.6390   29.4500   45.2720 C   0  0  0  0  0  0  0  0  0  0  0  0
   46.9380   30.4980   46.2040 C   0  0  0  0  0  0  0  0  0  0  0  0
   47.5940   30.1590   47.3480 C   0  0  0  0  0  0  0  0  0  0  0  0
   47.9090   31.1230   48.2780 C   0  0  0  0  0  0  0  0  0  0  0  0
   47.5460   32.4600   48.0370 C   0  0  0  0  0  0  0  0  0  0  0  0
   46.8660   32.7470   46.8330 C   0  0  0  0  0  0  0  0  0  0  0  0
   46.5670   31.7730   45.9360 C   0  0  0  0  0  0  0  0  0  0  0  0
   45.0990   31.3440   42.9930 H   0  0  0  0  0  0  0  0  0  0  0  0
   45.7360   29.0470   43.4060 H   0  0  0  0  0  0  0  0  0  0  0  0
   46.9410   28.4470   45.5020 H   0  0  0  0  0  0  0  0  0  0  0  0
   47.8720   29.1180   47.5210 H   0  0  0  0  0  0  0  0  0  0  0  0
   48.4290   30.7820   49.1620 H   0  0  0  0  0  0  0  0  0  0  0  0
   47.8420   33.1110   48.8230 H   0  0  0  0  0  0  0  0  0  0  0  0
   46.7130   33.8070   46.8460 H   0  0  0  0  0  0  0  0  0  0  0  0
   45.9070   33.6490   42.2520 O   0  0  0  0  0  0  0  0  0  0  0  0
   48.2280   32.5560   41.7070 O   0  0  0  0  0  0  0  0  0  0  0  0
   47.4360   33.8220   41.5950 P   0  0  1  0  0  0  0  0  0  0  0  0
   47.3890   34.2340   39.9610 O   0  0  0  0  0  0  0  0  0  0  0  0
   46.4820   33.3420   39.3710 C   0  0  0  0  0  0  0  0  0  0  0  0
   46.1490   32.5960   40.1290 H   0  0  0  0  0  0  0  0  0  0  0  0
   45.5890   33.9430   39.1120 H   0  0  0  0  0  0  0  0  0  0  0  0
   47.0160   32.6960   38.1840 N   0  0  0  0  0  0  0  0  0  0  0  0
   46.0460   33.0370   37.1290 C   0  0  0  0  0  0  0  0  0  0  0  0
   46.3960   32.3430   35.8350 C   0  0  0  0  0  0  0  0  0  0  0  0
   47.8950   32.2850   35.6870 C   0  0  0  0  0  0  0  0  0  0  0  0
   48.1720   32.4310   34.6080 H   0  0  0  0  0  0  0  0  0  0  0  0
   48.5530   33.4320   36.4200 C   0  0  0  0  0  0  0  0  0  0  0  0
   48.2520   33.4360   37.8820 C   0  0  0  0  0  0  0  0  0  0  0  0
   48.2360   35.0450   42.4420 O   0  0  0  0  0  0  0  0  0  0  0  0
   49.5130   35.5180   42.2340 C   0  0  0  0  0  0  0  0  0  0  0  0
   49.4010   36.5160   41.5340 O   0  0  0  0  0  0  0  0  0  0  0  0
   50.4840   34.7030   42.8900 N   0  0  0  0  0  0  0  0  0  0  0  0
   50.6660   34.6100   43.9370 H   0  0  0  0  0  0  0  0  0  0  0  0
   51.2700   34.0200   42.8060 H   0  0  0  0  0  0  0  0  0  0  0  0
  1  2  2  0  0  0  0
  1  6  1  0  0  0  0
  2  3  1  0  0  0  0
  3  9  1  0  0  0  0
  3  4  2  0  0  0  0
  5  4  1  0  0  0  0
  5  8  1  0  0  0  0
  6  5  2  0  0  0  0
  7  1  1  0  0  0  0
  9 18  1  0  0  0  0
 10 11  1  0  0  0  0
 10  9  2  0  0  0  0
 11 12  2  0  0  0  0
 12 21  1  0  0  0  0
 12 13  1  0  0  0  0
 13 14  1  0  0  0  0
 14 22  1  0  0  0  0
 14 15  2  0  0  0  0
 15 23  1  0  0  0  0
 16 15  1  0  0  0  0
 16 24  1  0  0  0  0
 17 25  1  0  0  0  0
 17 16  2  0  0  0  0
 18 13  2  0  0  0  0
 18 17  1  0  0  0  0
 19 10  1  0  0  0  0
 20 11  1  0  0  0  0
 26  2  1  0  0  0  0
 28 27  2  1  0  0  0
 28 26  1  0  0  0  0
 28 40  1  0  0  0  0
 29 28  1  0  0  0  0
 30 29  1  0  0  0  0
 30 31  1  0  0  0  0
 32 30  1  0  0  0  0
 33 30  1  0  0  0  0
 34 33  1  0  0  0  0
 35 34  1  0  0  0  0
 36 35  1  0  0  0  0
 36 38  1  0  0  0  0
 37 36  1  0  0  0  0
 38 39  1  0  0  0  0
 39 33  1  0  0  0  0
 41 40  1  0  0  0  0
 41 43  1  0  0  0  0
 42 41  2  0  0  0  0
 43 44  1  0  0  0  0
 45 43  1  0  0  0  0
M  END
>  <minimizedAffinity>
-6.27730227

>  <minimizedRMSD>
1.28004336

$$$$
