
 OpenBabel03252506403D

 38 41  0  0  1  0  0  0  0  0999 V2000
   49.3790   33.3150   41.3990 N   0  0  1  0  0  0  0  0  0  0  0  0
   50.6780   33.0910   42.0340 C   0  0  0  0  0  0  0  0  0  0  0  0
   51.2830   31.7660   41.6710 C   0  0  0  0  0  0  0  0  0  0  0  0
   50.4380   30.7000   42.3510 C   0  0  0  0  0  0  0  0  0  0  0  0
   48.9860   31.0160   42.2210 C   0  0  0  0  0  0  0  0  0  0  0  0
   48.7450   32.0420   41.1450 C   0  0  2  0  0  0  0  0  0  0  0  0
   51.3580   33.9290   41.8400 H   0  0  0  0  0  0  0  0  0  0  0  0
   50.5020   33.0570   43.1390 H   0  0  0  0  0  0  0  0  0  0  0  0
   51.3690   31.6400   40.5880 H   0  0  0  0  0  0  0  0  0  0  0  0
   52.3080   31.7620   42.0810 H   0  0  0  0  0  0  0  0  0  0  0  0
   50.7390   29.6790   42.0690 H   0  0  0  0  0  0  0  0  0  0  0  0
   50.7070   30.8010   43.4410 H   0  0  0  0  0  0  0  0  0  0  0  0
   48.3220   30.1660   42.0380 H   0  0  0  0  0  0  0  0  0  0  0  0
   48.5720   31.4900   43.1580 H   0  0  0  0  0  0  0  0  0  0  0  0
   47.6490   32.2370   41.1430 H   0  0  0  0  0  0  0  0  0  0  0  0
   47.2500   34.6510   41.9590 C   0  0  1  0  0  0  0  0  0  0  0  0
   48.3920   35.5540   41.7520 C   0  0  0  0  0  0  0  0  0  0  0  0
   48.6390   34.1780   42.2540 C   0  0  2  0  0  0  0  0  0  0  0  0
   46.7980   34.2520   41.0320 H   0  0  0  0  0  0  0  0  0  0  0  0
   48.5190   36.3850   42.4800 H   0  0  0  0  0  0  0  0  0  0  0  0
   48.7160   35.8370   40.7200 H   0  0  0  0  0  0  0  0  0  0  0  0
   48.8970   34.0510   43.3460 H   0  0  0  0  0  0  0  0  0  0  0  0
   45.5280   36.0480   43.1470 C   0  0  0  0  0  0  0  0  0  0  0  0
   46.3260   34.8860   43.1100 C   0  0  0  0  0  0  0  0  0  0  0  0
   46.2230   33.9670   44.1670 C   0  0  0  0  0  0  0  0  0  0  0  0
   45.3520   34.2530   45.1710 N   0  0  0  0  0  0  0  0  0  0  0  0
   44.5930   35.3830   45.1820 C   0  0  0  0  0  0  0  0  0  0  0  0
   44.6780   36.2900   44.1640 N   0  0  0  0  0  0  0  0  0  0  0  0
   45.5920   36.7660   42.3450 H   0  0  0  0  0  0  0  0  0  0  0  0
   46.8090   33.0820   44.1690 H   0  0  0  0  0  0  0  0  0  0  0  0
   43.9110   35.5770   46.0000 H   0  0  0  0  0  0  0  0  0  0  0  0
   49.1120   31.6290   39.8330 N   0  0  0  0  0  0  0  0  0  0  0  0
   48.8730   32.6920   38.9140 C   0  0  0  0  0  0  0  0  0  0  0  0
   48.7850   32.2470   37.4770 C   0  0  0  0  0  0  0  0  0  0  0  0
   47.6110   31.3210   37.2450 C   0  0  0  0  0  0  0  0  0  0  0  0
   47.8510   30.6950   36.3560 H   0  0  0  0  0  0  0  0  0  0  0  0
   47.3700   30.5080   38.4890 C   0  0  0  0  0  0  0  0  0  0  0  0
   48.6160   30.3980   39.3540 C   0  0  0  0  0  0  0  0  0  0  0  0
  1  2  1  1  0  0  0
  1 18  1  0  0  0  0
  2  8  1  0  0  0  0
  3  2  1  0  0  0  0
  3 10  1  0  0  0  0
  3  4  1  0  0  0  0
  4 12  1  0  0  0  0
  5  4  1  0  0  0  0
  5 14  1  0  0  0  0
  6 15  1  6  0  0  0
  6  1  1  0  0  0  0
  6  5  1  0  0  0  0
  7  2  1  0  0  0  0
  9  3  1  0  0  0  0
 11  4  1  0  0  0  0
 13  5  1  0  0  0  0
 16 19  1  6  0  0  0
 16 18  1  0  0  0  0
 16 24  1  0  0  0  0
 17 16  1  0  0  0  0
 17 18  1  0  0  0  0
 17 20  1  0  0  0  0
 18 22  1  1  0  0  0
 21 17  1  0  0  0  0
 23 28  1  0  0  0  0
 24 23  2  0  0  0  0
 24 25  1  0  0  0  0
 25 30  1  0  0  0  0
 25 26  2  0  0  0  0
 26 27  1  0  0  0  0
 27 31  1  0  0  0  0
 28 27  2  0  0  0  0
 29 23  1  0  0  0  0
 32  6  1  0  0  0  0
 33 32  1  0  0  0  0
 34 33  1  0  0  0  0
 35 34  1  0  0  0  0
 35 37  1  0  0  0  0
 36 35  1  0  0  0  0
 37 38  1  0  0  0  0
 38 32  1  0  0  0  0
M  END
>  <minimizedAffinity>
-4.94291735

>  <minimizedRMSD>
0.38228476

$$$$
