
 OpenBabel03252502223D

 31 33  0  0  1  0  0  0  0  0999 V2000
   38.2790   29.5800   41.8120 N   0  0  0  0  0  0  0  0  0  0  0  0
   39.5440   29.3510   42.5090 C   0  0  0  0  0  0  0  0  0  0  0  0
   39.5740   27.8560   42.7790 C   0  0  0  0  0  0  0  0  0  0  0  0
   38.4700   27.4300   43.6800 C   0  0  0  0  0  0  0  0  0  0  0  0
   37.1750   28.1550   43.4810 C   0  0  0  0  0  0  0  0  0  0  0  0
   37.0740   28.9350   42.2100 C   0  0  2  0  0  0  0  0  0  0  0  0
   40.3430   29.6570   41.8380 H   0  0  0  0  0  0  0  0  0  0  0  0
   39.5780   29.8750   43.4900 H   0  0  0  0  0  0  0  0  0  0  0  0
   40.5530   27.6580   43.3120 H   0  0  0  0  0  0  0  0  0  0  0  0
   39.6250   27.3130   41.8100 H   0  0  0  0  0  0  0  0  0  0  0  0
   38.8280   27.5030   44.7290 H   0  0  0  0  0  0  0  0  0  0  0  0
   38.3660   26.3140   43.5270 H   0  0  0  0  0  0  0  0  0  0  0  0
   36.9900   28.7560   44.3950 H   0  0  0  0  0  0  0  0  0  0  0  0
   36.3700   27.3890   43.4680 H   0  0  0  0  0  0  0  0  0  0  0  0
   36.4210   29.8300   42.5170 H   0  0  0  0  0  0  0  0  0  0  0  0
   38.7720   31.2140   38.4890 C   0  0  0  0  0  0  0  0  0  0  0  0
   38.8920   30.2850   39.5190 C   0  0  0  0  0  0  0  0  0  0  0  0
   38.2170   30.4800   40.7230 C   0  0  0  0  0  0  0  0  0  0  0  0
   37.4680   31.6090   40.7930 N   0  0  0  0  0  0  0  0  0  0  0  0
   37.3500   32.5150   39.7910 C   0  0  0  0  0  0  0  0  0  0  0  0
   38.0120   32.3010   38.6380 N   0  0  0  0  0  0  0  0  0  0  0  0
   39.3150   31.0340   37.5520 H   0  0  0  0  0  0  0  0  0  0  0  0
   39.5070   29.4400   39.3590 H   0  0  0  0  0  0  0  0  0  0  0  0
   36.7080   33.3540   40.0300 H   0  0  0  0  0  0  0  0  0  0  0  0
   36.3180   28.3240   41.1870 N   0  0  0  0  0  0  0  0  0  0  0  0
   35.2050   28.9540   40.6390 C   0  0  0  0  0  2  0  0  0  0  0  0
   35.2770   29.2650   39.1640 C   0  0  0  0  0  2  0  0  0  0  0  0
   36.0450   28.2730   38.3670 C   0  0  0  0  0  3  0  0  0  0  0  0
   37.0300   28.7020   38.0220 H   0  0  0  0  0  0  0  0  0  0  0  0
   36.3110   27.0090   39.1240 C   0  0  0  0  0  2  0  0  0  0  0  0
   36.9680   27.3220   40.4160 C   0  0  0  0  0  2  0  0  0  0  0  0
  1  6  1  0  0  0  0
  1  2  1  0  0  0  0
  2  3  1  0  0  0  0
  2  8  1  0  0  0  0
  3  9  1  0  0  0  0
  3  4  1  0  0  0  0
  4 11  1  0  0  0  0
  5  4  1  0  0  0  0
  5 13  1  0  0  0  0
  6 15  1  1  0  0  0
  6  5  1  0  0  0  0
  7  2  1  0  0  0  0
 10  3  1  0  0  0  0
 12  4  1  0  0  0  0
 14  5  1  0  0  0  0
 16 21  2  0  0  0  0
 16 17  1  0  0  0  0
 17 18  2  0  0  0  0
 18 19  1  0  0  0  0
 18  1  1  0  0  0  0
 20 24  1  0  0  0  0
 20 19  2  0  0  0  0
 21 20  1  0  0  0  0
 22 16  1  0  0  0  0
 23 17  1  0  0  0  0
 25  6  1  0  0  0  0
 26 25  1  0  0  0  0
 27 26  1  0  0  0  0
 28 30  1  0  0  0  0
 28 27  1  0  0  0  0
 29 28  1  0  0  0  0
 30 31  1  0  0  0  0
 31 25  1  0  0  0  0
M  END
>  <minimizedAffinity>
-4.95424843

$$$$

 OpenBabel03252502223D

 31 33  0  0  1  0  0  0  0  0999 V2000
   37.3640   30.0330   39.0670 N   0  0  0  0  0  0  0  0  0  0  0  0
   36.2350   29.9550   38.1410 C   0  0  0  0  0  0  0  0  0  0  0  0
   35.2590   28.9930   38.7980 C   0  0  0  0  0  0  0  0  0  0  0  0
   35.8320   27.6280   38.9380 C   0  0  0  0  0  0  0  0  0  0  0  0
   37.2940   27.5840   39.2570 C   0  0  0  0  0  0  0  0  0  0  0  0
   37.8810   28.8780   39.7210 C   0  0  2  0  0  0  0  0  0  0  0  0
   35.8190   30.9560   38.0530 H   0  0  0  0  0  0  0  0  0  0  0  0
   36.5320   29.5220   37.1600 H   0  0  0  0  0  0  0  0  0  0  0  0
   34.3720   28.9270   38.0970 H   0  0  0  0  0  0  0  0  0  0  0  0
   34.8850   29.4440   39.7420 H   0  0  0  0  0  0  0  0  0  0  0  0
   35.5920   27.0530   38.0190 H   0  0  0  0  0  0  0  0  0  0  0  0
   35.2040   27.1150   39.7270 H   0  0  0  0  0  0  0  0  0  0  0  0
   37.8100   27.1450   38.3780 H   0  0  0  0  0  0  0  0  0  0  0  0
   37.4290   26.8440   40.0740 H   0  0  0  0  0  0  0  0  0  0  0  0
   38.9500   28.8330   39.3030 H   0  0  0  0  0  0  0  0  0  0  0  0
   38.0410   33.5520   40.1210 C   0  0  0  0  0  0  0  0  0  0  0  0
   37.3470   32.3670   39.8940 C   0  0  0  0  0  0  0  0  0  0  0  0
   37.9950   31.2720   39.3220 C   0  0  0  0  0  0  0  0  0  0  0  0
   39.3040   31.4640   39.0210 N   0  0  0  0  0  0  0  0  0  0  0  0
   39.9810   32.6170   39.2410 C   0  0  0  0  0  0  0  0  0  0  0  0
   39.3320   33.6580   39.7960 N   0  0  0  0  0  0  0  0  0  0  0  0
   37.5050   34.3960   40.5740 H   0  0  0  0  0  0  0  0  0  0  0  0
   36.3260   32.3270   40.1620 H   0  0  0  0  0  0  0  0  0  0  0  0
   41.0200   32.5830   38.9370 H   0  0  0  0  0  0  0  0  0  0  0  0
   38.0860   28.9810   41.1130 N   0  0  0  0  0  0  0  0  0  0  0  0
   37.0120   29.0230   41.9980 C   0  0  0  0  0  2  0  0  0  0  0  0
   36.9350   27.8970   43.0010 C   0  0  0  0  0  2  0  0  0  0  0  0
   38.2560   27.3840   43.4480 C   0  0  0  0  0  3  0  0  0  0  0  0
   38.4610   26.3590   43.0250 H   0  0  0  0  0  0  0  0  0  0  0  0
   39.3830   28.2950   43.0700 C   0  0  0  0  0  2  0  0  0  0  0  0
   39.3490   28.5630   41.6120 C   0  0  0  0  0  2  0  0  0  0  0  0
  1 18  1  0  0  0  0
  1  6  1  0  0  0  0
  2  3  1  0  0  0  0
  2  1  1  0  0  0  0
  3  4  1  0  0  0  0
  3 10  1  0  0  0  0
  4  5  1  0  0  0  0
  4 12  1  0  0  0  0
  5  6  1  0  0  0  0
  5 14  1  0  0  0  0
  6 15  1  6  0  0  0
  6 25  1  0  0  0  0
  7  2  1  0  0  0  0
  8  2  1  0  0  0  0
  9  3  1  0  0  0  0
 11  4  1  0  0  0  0
 13  5  1  0  0  0  0
 16 22  1  0  0  0  0
 17 16  1  0  0  0  0
 17 23  1  0  0  0  0
 18 17  2  0  0  0  0
 19 20  2  0  0  0  0
 19 18  1  0  0  0  0
 20 21  1  0  0  0  0
 21 16  2  0  0  0  0
 24 20  1  0  0  0  0
 25 31  1  0  0  0  0
 25 26  1  0  0  0  0
 26 27  1  0  0  0  0
 27 28  1  0  0  0  0
 29 28  1  0  0  0  0
 30 28  1  0  0  0  0
 31 30  1  0  0  0  0
M  END
>  <minimizedAffinity>
-4.85564423

$$$$

 OpenBabel03252502223D

 31 33  0  0  1  0  0  0  0  0999 V2000
   36.4840   27.6370   40.1040 N   0  0  0  0  0  0  0  0  0  0  0  0
   36.2170   26.4610   39.2770 C   0  0  0  0  0  0  0  0  0  0  0  0
   36.3530   26.9540   37.8450 C   0  0  0  0  0  0  0  0  0  0  0  0
   35.3370   27.9880   37.5130 C   0  0  0  0  0  0  0  0  0  0  0  0
   35.0050   28.9310   38.6280 C   0  0  0  0  0  0  0  0  0  0  0  0
   35.9670   28.9220   39.7730 C   0  0  2  0  0  0  0  0  0  0  0  0
   36.9710   25.7170   39.5210 H   0  0  0  0  0  0  0  0  0  0  0  0
   35.1790   26.0860   39.4100 H   0  0  0  0  0  0  0  0  0  0  0  0
   36.1580   26.0520   37.1890 H   0  0  0  0  0  0  0  0  0  0  0  0
   37.4080   27.2570   37.6640 H   0  0  0  0  0  0  0  0  0  0  0  0
   34.4330   27.4750   37.1230 H   0  0  0  0  0  0  0  0  0  0  0  0
   35.7360   28.5240   36.6010 H   0  0  0  0  0  0  0  0  0  0  0  0
   33.9530   28.7370   38.9220 H   0  0  0  0  0  0  0  0  0  0  0  0
   35.0050   29.9560   38.2000 H   0  0  0  0  0  0  0  0  0  0  0  0
   35.2850   29.1380   40.6730 H   0  0  0  0  0  0  0  0  0  0  0  0
   37.5750   27.6230   43.6760 C   0  0  0  0  0  0  0  0  0  0  0  0
   36.7550   27.7680   42.5610 C   0  0  0  0  0  0  0  0  0  0  0  0
   37.2550   27.5220   41.2830 C   0  0  0  0  0  0  0  0  0  0  0  0
   38.5580   27.1460   41.2320 N   0  0  0  0  0  0  0  0  0  0  0  0
   39.3590   27.0050   42.3160 C   0  0  0  0  0  0  0  0  0  0  0  0
   38.8490   27.2480   43.5390 N   0  0  0  0  0  0  0  0  0  0  0  0
   37.1540   27.8240   44.6690 H   0  0  0  0  0  0  0  0  0  0  0  0
   35.7530   28.0710   42.7150 H   0  0  0  0  0  0  0  0  0  0  0  0
   40.3700   26.6970   42.0800 H   0  0  0  0  0  0  0  0  0  0  0  0
   36.8810   29.9960   39.7990 N   0  0  0  0  0  0  0  0  0  0  0  0
   37.7850   30.1980   38.7600 C   0  0  0  0  0  2  0  0  0  0  0  0
   37.6560   31.5030   38.0130 C   0  0  0  0  0  2  0  0  0  0  0  0
   37.2090   32.6460   38.8510 C   0  0  0  0  0  3  0  0  0  0  0  0
   36.1500   32.9460   38.6010 H   0  0  0  0  0  0  0  0  0  0  0  0
   37.2920   32.3510   40.3160 C   0  0  0  0  0  2  0  0  0  0  0  0
   36.5500   31.1050   40.6240 C   0  0  0  0  0  2  0  0  0  0  0  0
  1 18  1  0  0  0  0
  2  8  1  0  0  0  0
  2  7  1  0  0  0  0
  2  1  1  0  0  0  0
  3  2  1  0  0  0  0
  4  3  1  0  0  0  0
  4  5  1  0  0  0  0
  5 13  1  0  0  0  0
  5  6  1  0  0  0  0
  6 25  1  0  0  0  0
  6  1  1  0  0  0  0
  6 15  1  1  0  0  0
  9  3  1  0  0  0  0
 10  3  1  0  0  0  0
 11  4  1  0  0  0  0
 12  4  1  0  0  0  0
 14  5  1  0  0  0  0
 16 22  1  0  0  0  0
 17 23  1  0  0  0  0
 17 16  2  0  0  0  0
 18 17  1  0  0  0  0
 19 18  2  0  0  0  0
 19 20  1  0  0  0  0
 20 21  2  0  0  0  0
 21 16  1  0  0  0  0
 24 20  1  0  0  0  0
 25 31  1  0  0  0  0
 26 25  1  0  0  0  0
 27 26  1  0  0  0  0
 27 28  1  0  0  0  0
 28 30  1  0  0  0  0
 29 28  1  0  0  0  0
 30 31  1  0  0  0  0
M  END
>  <minimizedAffinity>
-4.79922438

$$$$

 OpenBabel03252502223D

 31 33  0  0  1  0  0  0  0  0999 V2000
   36.7050   27.1740   40.0760 N   0  0  0  0  0  0  0  0  0  0  0  0
   36.4240   27.3250   38.6490 C   0  0  0  0  0  0  0  0  0  0  0  0
   36.5850   28.8120   38.3760 C   0  0  0  0  0  0  0  0  0  0  0  0
   35.5920   29.6260   39.1270 C   0  0  0  0  0  0  0  0  0  0  0  0
   35.2680   29.1220   40.4990 C   0  0  0  0  0  0  0  0  0  0  0  0
   36.2160   28.1010   41.0400 C   0  0  2  0  0  0  0  0  0  0  0  0
   37.1600   26.7340   38.1100 H   0  0  0  0  0  0  0  0  0  0  0  0
   35.3770   27.0450   38.4000 H   0  0  0  0  0  0  0  0  0  0  0  0
   36.3780   28.9470   37.2710 H   0  0  0  0  0  0  0  0  0  0  0  0
   37.6460   29.0980   38.5380 H   0  0  0  0  0  0  0  0  0  0  0  0
   34.6820   29.7330   38.5000 H   0  0  0  0  0  0  0  0  0  0  0  0
   36.0110   30.6770   39.1430 H   0  0  0  0  0  0  0  0  0  0  0  0
   34.2090   28.7910   40.4870 H   0  0  0  0  0  0  0  0  0  0  0  0
   35.2920   29.9960   41.1830 H   0  0  0  0  0  0  0  0  0  0  0  0
   35.5300   27.4340   41.6770 H   0  0  0  0  0  0  0  0  0  0  0  0
   37.7360   23.9860   41.7250 C   0  0  0  0  0  0  0  0  0  0  0  0
   36.9270   25.0400   41.3110 C   0  0  0  0  0  0  0  0  0  0  0  0
   37.4610   26.0740   40.5430 C   0  0  0  0  0  0  0  0  0  0  0  0
   38.7810   25.9610   40.2530 N   0  0  0  0  0  0  0  0  0  0  0  0
   39.5700   24.9350   40.6560 C   0  0  0  0  0  0  0  0  0  0  0  0
   39.0290   23.9490   41.3960 N   0  0  0  0  0  0  0  0  0  0  0  0
   37.2880   23.1850   42.3280 H   0  0  0  0  0  0  0  0  0  0  0  0
   35.9100   25.0310   41.5980 H   0  0  0  0  0  0  0  0  0  0  0  0
   40.5990   25.0160   40.3280 H   0  0  0  0  0  0  0  0  0  0  0  0
   37.1510   28.5860   41.9780 N   0  0  0  0  0  0  0  0  0  0  0  0
   37.2040   28.0770   43.2730 C   0  0  0  0  0  2  0  0  0  0  0  0
   38.5000   27.4140   43.6730 C   0  0  0  0  0  2  0  0  0  0  0  0
   39.7100   28.0130   43.0520 C   0  0  0  0  0  3  0  0  0  0  0  0
   40.1510   27.3270   42.2720 H   0  0  0  0  0  0  0  0  0  0  0  0
   39.4340   29.3430   42.4230 C   0  0  0  0  0  2  0  0  0  0  0  0
   38.3110   29.2250   41.4620 C   0  0  0  0  0  2  0  0  0  0  0  0
  1 18  1  0  0  0  0
  1  6  1  0  0  0  0
  2  1  1  0  0  0  0
  3 10  1  0  0  0  0
  3  2  1  0  0  0  0
  3  4  1  0  0  0  0
  4 12  1  0  0  0  0
  4  5  1  0  0  0  0
  5  6  1  0  0  0  0
  5 14  1  0  0  0  0
  6 15  1  1  0  0  0
  6 25  1  0  0  0  0
  7  2  1  0  0  0  0
  8  2  1  0  0  0  0
  9  3  1  0  0  0  0
 11  4  1  0  0  0  0
 13  5  1  0  0  0  0
 16 22  1  0  0  0  0
 17 23  1  0  0  0  0
 17 16  2  0  0  0  0
 18 17  1  0  0  0  0
 19 18  2  0  0  0  0
 19 20  1  0  0  0  0
 20 21  2  0  0  0  0
 21 16  1  0  0  0  0
 24 20  1  0  0  0  0
 25 26  1  0  0  0  0
 26 27  1  0  0  0  0
 28 27  1  0  0  0  0
 29 28  1  0  0  0  0
 30 28  1  0  0  0  0
 31 25  1  0  0  0  0
 31 30  1  0  0  0  0
M  END
>  <minimizedAffinity>
-4.79594755

$$$$

 OpenBabel03252502223D

 31 33  0  0  1  0  0  0  0  0999 V2000
   37.8130   29.6150   41.7890 N   0  0  0  0  0  0  0  0  0  0  0  0
   38.5780   29.5870   43.0350 C   0  0  0  0  0  0  0  0  0  0  0  0
   38.9600   28.1280   43.2240 C   0  0  0  0  0  0  0  0  0  0  0  0
   37.7660   27.2590   43.4000 C   0  0  0  0  0  0  0  0  0  0  0  0
   36.5740   27.6470   42.5820 C   0  0  0  0  0  0  0  0  0  0  0  0
   36.8510   28.6130   41.4750 C   0  0  2  0  0  0  0  0  0  0  0  0
   39.4520   30.2180   42.8910 H   0  0  0  0  0  0  0  0  0  0  0  0
   37.9620   29.8940   43.9080 H   0  0  0  0  0  0  0  0  0  0  0  0
   39.5620   28.0890   44.1820 H   0  0  0  0  0  0  0  0  0  0  0  0
   39.6460   27.8230   42.4040 H   0  0  0  0  0  0  0  0  0  0  0  0
   37.5260   27.2110   44.4830 H   0  0  0  0  0  0  0  0  0  0  0  0
   38.1190   26.2080   43.1730 H   0  0  0  0  0  0  0  0  0  0  0  0
   35.7850   27.9840   43.2870 H   0  0  0  0  0  0  0  0  0  0  0  0
   36.1760   26.7170   42.1220 H   0  0  0  0  0  0  0  0  0  0  0  0
   35.8810   29.2270   41.4300 H   0  0  0  0  0  0  0  0  0  0  0  0
   37.2630   32.6070   39.6220 C   0  0  0  0  0  0  0  0  0  0  0  0
   37.0030   31.5930   40.5390 C   0  0  0  0  0  0  0  0  0  0  0  0
   37.9950   30.6670   40.8620 C   0  0  0  0  0  0  0  0  0  0  0  0
   39.1800   30.8400   40.2260 N   0  0  0  0  0  0  0  0  0  0  0  0
   39.4350   31.8270   39.3320 C   0  0  0  0  0  0  0  0  0  0  0  0
   38.4600   32.7080   39.0390 N   0  0  0  0  0  0  0  0  0  0  0  0
   36.4630   33.3220   39.3880 H   0  0  0  0  0  0  0  0  0  0  0  0
   36.0400   31.5470   40.9730 H   0  0  0  0  0  0  0  0  0  0  0  0
   40.4390   31.8060   38.9270 H   0  0  0  0  0  0  0  0  0  0  0  0
   36.9310   28.0440   40.1860 N   0  0  0  0  0  0  0  0  0  0  0  0
   37.9130   27.1100   39.8700 C   0  0  0  0  0  2  0  0  0  0  0  0
   37.4210   25.7430   39.4620 C   0  0  0  0  0  2  0  0  0  0  0  0
   36.1300   25.7520   38.7260 C   0  0  0  0  0  3  0  0  0  0  0  0
   35.2940   25.3400   39.3630 H   0  0  0  0  0  0  0  0  0  0  0  0
   35.7460   27.1200   38.2560 C   0  0  0  0  0  2  0  0  0  0  0  0
   35.7490   28.0660   39.3980 C   0  0  0  0  0  2  0  0  0  0  0  0
  1  2  1  0  0  0  0
  2  3  1  0  0  0  0
  2  8  1  0  0  0  0
  3  4  1  0  0  0  0
  3  9  1  0  0  0  0
  4 11  1  0  0  0  0
  5 13  1  0  0  0  0
  5  4  1  0  0  0  0
  6 15  1  6  0  0  0
  6  1  1  0  0  0  0
  6  5  1  0  0  0  0
  7  2  1  0  0  0  0
 10  3  1  0  0  0  0
 12  4  1  0  0  0  0
 14  5  1  0  0  0  0
 16 17  1  0  0  0  0
 17 18  2  0  0  0  0
 17 23  1  0  0  0  0
 18  1  1  0  0  0  0
 19 18  1  0  0  0  0
 20 19  2  0  0  0  0
 21 20  1  0  0  0  0
 21 16  2  0  0  0  0
 22 16  1  0  0  0  0
 24 20  1  0  0  0  0
 25  6  1  0  0  0  0
 26 25  1  0  0  0  0
 27 26  1  0  0  0  0
 28 29  1  0  0  0  0
 28 27  1  0  0  0  0
 30 28  1  0  0  0  0
 30 31  1  0  0  0  0
 31 25  1  0  0  0  0
M  END
>  <minimizedAffinity>
-4.73330832

$$$$

 OpenBabel03252502223D

 31 33  0  0  1  0  0  0  0  0999 V2000
   38.6700   28.5660   41.8220 N   0  0  0  0  0  0  0  0  0  0  0  0
   39.2970   27.2800   42.1250 C   0  0  0  0  0  0  0  0  0  0  0  0
   38.2560   26.2400   41.7430 C   0  0  0  0  0  0  0  0  0  0  0  0
   37.0240   26.3550   42.5680 C   0  0  0  0  0  0  0  0  0  0  0  0
   36.6270   27.7560   42.9210 C   0  0  0  0  0  0  0  0  0  0  0  0
   37.3030   28.8260   42.1260 C   0  0  2  0  0  0  0  0  0  0  0  0
   40.1900   27.2030   41.5090 H   0  0  0  0  0  0  0  0  0  0  0  0
   39.5080   27.1660   43.2100 H   0  0  0  0  0  0  0  0  0  0  0  0
   38.7280   25.2350   41.9630 H   0  0  0  0  0  0  0  0  0  0  0  0
   38.0900   26.2790   40.6440 H   0  0  0  0  0  0  0  0  0  0  0  0
   37.1490   25.7220   43.4720 H   0  0  0  0  0  0  0  0  0  0  0  0
   36.2180   25.8130   41.9900 H   0  0  0  0  0  0  0  0  0  0  0  0
   36.7470   27.8660   44.0190 H   0  0  0  0  0  0  0  0  0  0  0  0
   35.5350   27.8420   42.7370 H   0  0  0  0  0  0  0  0  0  0  0  0
   37.3930   29.6830   42.8860 H   0  0  0  0  0  0  0  0  0  0  0  0
   40.6960   30.6060   39.4380 C   0  0  0  0  0  0  0  0  0  0  0  0
   39.9740   29.5340   39.9530 C   0  0  0  0  0  0  0  0  0  0  0  0
   39.4230   29.6070   41.2320 C   0  0  0  0  0  0  0  0  0  0  0  0
   39.6500   30.7680   41.8960 N   0  0  0  0  0  0  0  0  0  0  0  0
   40.3530   31.8130   41.3970 C   0  0  0  0  0  0  0  0  0  0  0  0
   40.8730   31.7160   40.1590 N   0  0  0  0  0  0  0  0  0  0  0  0
   41.1170   30.5210   38.4280 H   0  0  0  0  0  0  0  0  0  0  0  0
   39.8610   28.6730   39.3500 H   0  0  0  0  0  0  0  0  0  0  0  0
   40.4290   32.6550   42.0730 H   0  0  0  0  0  0  0  0  0  0  0  0
   36.5240   29.3920   41.0950 N   0  0  0  0  0  0  0  0  0  0  0  0
   36.2420   30.7550   41.0700 C   0  0  0  0  0  2  0  0  0  0  0  0
   36.7570   31.5180   39.8740 C   0  0  0  0  0  2  0  0  0  0  0  0
   36.7790   30.7340   38.6120 C   0  0  0  0  0  3  0  0  0  0  0  0
   37.8350   30.4790   38.3070 H   0  0  0  0  0  0  0  0  0  0  0  0
   35.9880   29.4660   38.7090 C   0  0  0  0  0  2  0  0  0  0  0  0
   36.4500   28.6700   39.8730 C   0  0  0  0  0  2  0  0  0  0  0  0
  1  2  1  0  0  0  0
  1  6  1  0  0  0  0
  2  8  1  0  0  0  0
  3  9  1  0  0  0  0
  3  2  1  0  0  0  0
  3  4  1  0  0  0  0
  4  5  1  0  0  0  0
  4 11  1  0  0  0  0
  5 13  1  0  0  0  0
  6 15  1  1  0  0  0
  6  5  1  0  0  0  0
  7  2  1  0  0  0  0
 10  3  1  0  0  0  0
 12  4  1  0  0  0  0
 14  5  1  0  0  0  0
 16 17  2  0  0  0  0
 16 21  1  0  0  0  0
 17 18  1  0  0  0  0
 18  1  1  0  0  0  0
 18 19  2  0  0  0  0
 20 19  1  0  0  0  0
 20 24  1  0  0  0  0
 21 20  2  0  0  0  0
 22 16  1  0  0  0  0
 23 17  1  0  0  0  0
 25  6  1  0  0  0  0
 26 25  1  0  0  0  0
 27 26  1  0  0  0  0
 28 30  1  0  0  0  0
 28 27  1  0  0  0  0
 29 28  1  0  0  0  0
 30 31  1  0  0  0  0
 31 25  1  0  0  0  0
M  END
>  <minimizedAffinity>
-4.71042633

$$$$

 OpenBabel03252502223D

 31 33  0  0  1  0  0  0  0  0999 V2000
   38.6140   30.1090   40.9060 N   0  0  0  0  0  0  0  0  0  0  0  0
   39.5950   30.7560   40.0350 C   0  0  0  0  0  0  0  0  0  0  0  0
   40.9450   30.3550   40.6060 C   0  0  0  0  0  0  0  0  0  0  0  0
   41.1440   30.8750   41.9860 C   0  0  0  0  0  0  0  0  0  0  0  0
   39.9140   30.8860   42.8410 C   0  0  0  0  0  0  0  0  0  0  0  0
   38.7730   30.0730   42.3210 C   0  0  2  0  0  0  0  0  0  0  0  0
   39.4470   30.3620   39.0330 H   0  0  0  0  0  0  0  0  0  0  0  0
   39.5220   31.8650   40.0800 H   0  0  0  0  0  0  0  0  0  0  0  0
   41.7190   30.8410   39.9380 H   0  0  0  0  0  0  0  0  0  0  0  0
   41.0750   29.2570   40.4950 H   0  0  0  0  0  0  0  0  0  0  0  0
   41.6080   31.8810   41.9160 H   0  0  0  0  0  0  0  0  0  0  0  0
   41.9720   30.2460   42.4310 H   0  0  0  0  0  0  0  0  0  0  0  0
   39.6590   31.9480   43.0370 H   0  0  0  0  0  0  0  0  0  0  0  0
   40.2000   30.4670   43.8290 H   0  0  0  0  0  0  0  0  0  0  0  0
   37.8580   30.6730   42.6730 H   0  0  0  0  0  0  0  0  0  0  0  0
   35.0710   29.3530   40.0000 C   0  0  0  0  0  0  0  0  0  0  0  0
   36.1620   29.9890   40.5840 C   0  0  0  0  0  0  0  0  0  0  0  0
   37.4540   29.5150   40.3580 C   0  0  0  0  0  0  0  0  0  0  0  0
   37.5410   28.4260   39.5540 N   0  0  0  0  0  0  0  0  0  0  0  0
   36.4790   27.8050   38.9850 C   0  0  0  0  0  0  0  0  0  0  0  0
   35.2420   28.2850   39.2190 N   0  0  0  0  0  0  0  0  0  0  0  0
   34.0650   29.7490   40.1950 H   0  0  0  0  0  0  0  0  0  0  0  0
   35.9800   30.8290   41.1990 H   0  0  0  0  0  0  0  0  0  0  0  0
   36.7430   26.9510   38.3730 H   0  0  0  0  0  0  0  0  0  0  0  0
   38.5940   28.8200   42.9440 N   0  0  0  0  0  0  0  0  0  0  0  0
   37.4460   28.5380   43.6790 C   0  0  0  0  0  2  0  0  0  0  0  0
   36.5960   27.3990   43.1720 C   0  0  0  0  0  2  0  0  0  0  0  0
   37.3650   26.3000   42.5320 C   0  0  0  0  0  3  0  0  0  0  0  0
   37.2070   26.2880   41.4150 H   0  0  0  0  0  0  0  0  0  0  0  0
   38.8330   26.3900   42.8090 C   0  0  0  0  0  2  0  0  0  0  0  0
   39.3400   27.7290   42.4230 C   0  0  0  0  0  2  0  0  0  0  0  0
  1  6  1  0  0  0  0
  2  8  1  0  0  0  0
  2  3  1  0  0  0  0
  2  1  1  0  0  0  0
  3  4  1  0  0  0  0
  4 12  1  0  0  0  0
  4  5  1  0  0  0  0
  5 13  1  0  0  0  0
  5 14  1  0  0  0  0
  6 15  1  1  0  0  0
  6  5  1  0  0  0  0
  6 25  1  0  0  0  0
  7  2  1  0  0  0  0
  9  3  1  0  0  0  0
 10  3  1  0  0  0  0
 11  4  1  0  0  0  0
 16 22  1  0  0  0  0
 16 17  1  0  0  0  0
 17 23  1  0  0  0  0
 18 17  2  0  0  0  0
 18  1  1  0  0  0  0
 19 18  1  0  0  0  0
 20 21  1  0  0  0  0
 20 19  2  0  0  0  0
 21 16  2  0  0  0  0
 24 20  1  0  0  0  0
 25 26  1  0  0  0  0
 27 26  1  0  0  0  0
 28 30  1  0  0  0  0
 28 27  1  0  0  0  0
 29 28  1  0  0  0  0
 31 30  1  0  0  0  0
 31 25  1  0  0  0  0
M  END
>  <minimizedAffinity>
-4.70542622

$$$$

 OpenBabel03252502223D

 31 33  0  0  1  0  0  0  0  0999 V2000
   37.0420   28.7440   40.9770 N   0  0  0  0  0  0  0  0  0  0  0  0
   37.3510   29.8160   41.9220 C   0  0  0  0  0  0  0  0  0  0  0  0
   38.3100   29.1910   42.9200 C   0  0  0  0  0  0  0  0  0  0  0  0
   37.6770   28.0790   43.6800 C   0  0  0  0  0  0  0  0  0  0  0  0
   36.7220   27.2370   42.8910 C   0  0  0  0  0  0  0  0  0  0  0  0
   36.8020   27.4080   41.4080 C   0  0  2  0  0  0  0  0  0  0  0  0
   37.8210   30.6180   41.3580 H   0  0  0  0  0  0  0  0  0  0  0  0
   36.4490   30.1510   42.4790 H   0  0  0  0  0  0  0  0  0  0  0  0
   38.5670   30.0110   43.6570 H   0  0  0  0  0  0  0  0  0  0  0  0
   39.2550   28.9240   42.3990 H   0  0  0  0  0  0  0  0  0  0  0  0
   37.2000   28.5050   44.5880 H   0  0  0  0  0  0  0  0  0  0  0  0
   38.5340   27.4750   44.1050 H   0  0  0  0  0  0  0  0  0  0  0  0
   35.7090   27.4060   43.3110 H   0  0  0  0  0  0  0  0  0  0  0  0
   36.9580   26.1760   43.1180 H   0  0  0  0  0  0  0  0  0  0  0  0
   35.7110   27.2500   41.0800 H   0  0  0  0  0  0  0  0  0  0  0  0
   35.7500   29.2410   37.5080 C   0  0  0  0  0  0  0  0  0  0  0  0
   35.7600   28.9500   38.8690 C   0  0  0  0  0  0  0  0  0  0  0  0
   36.9510   29.0150   39.5920 C   0  0  0  0  0  0  0  0  0  0  0  0
   38.0470   29.3710   38.8760 N   0  0  0  0  0  0  0  0  0  0  0  0
   38.0390   29.6540   37.5510 C   0  0  0  0  0  0  0  0  0  0  0  0
   36.8760   29.5850   36.8770 N   0  0  0  0  0  0  0  0  0  0  0  0
   34.7980   29.1830   36.9640 H   0  0  0  0  0  0  0  0  0  0  0  0
   34.8480   28.6780   39.3280 H   0  0  0  0  0  0  0  0  0  0  0  0
   39.0100   29.9200   37.1520 H   0  0  0  0  0  0  0  0  0  0  0  0
   37.4940   26.3890   40.7210 N   0  0  0  0  0  0  0  0  0  0  0  0
   38.8620   26.2010   40.8990 C   0  0  0  0  0  2  0  0  0  0  0  0
   39.2800   24.8640   41.4630 C   0  0  0  0  0  2  0  0  0  0  0  0
   38.4140   23.7290   41.0510 C   0  0  0  0  0  3  0  0  0  0  0  0
   37.7850   23.3610   41.9120 H   0  0  0  0  0  0  0  0  0  0  0  0
   37.5090   24.0810   39.9110 C   0  0  0  0  0  2  0  0  0  0  0  0
   36.7240   25.2940   40.2450 C   0  0  0  0  0  2  0  0  0  0  0  0
  1  6  1  0  0  0  0
  1  2  1  0  0  0  0
  2  8  1  0  0  0  0
  2  3  1  0  0  0  0
  3  9  1  0  0  0  0
  3  4  1  0  0  0  0
  4 12  1  0  0  0  0
  4 11  1  0  0  0  0
  5 14  1  0  0  0  0
  5 13  1  0  0  0  0
  5  4  1  0  0  0  0
  6 15  1  6  0  0  0
  6  5  1  0  0  0  0
  7  2  1  0  0  0  0
 10  3  1  0  0  0  0
 16 17  1  0  0  0  0
 17 23  1  0  0  0  0
 17 18  2  0  0  0  0
 18  1  1  0  0  0  0
 19 18  1  0  0  0  0
 20 19  2  0  0  0  0
 21 16  2  0  0  0  0
 21 20  1  0  0  0  0
 22 16  1  0  0  0  0
 24 20  1  0  0  0  0
 25 26  1  0  0  0  0
 25  6  1  0  0  0  0
 26 27  1  0  0  0  0
 28 27  1  0  0  0  0
 28 29  1  0  0  0  0
 30 31  1  0  0  0  0
 30 28  1  0  0  0  0
 31 25  1  0  0  0  0
M  END
>  <minimizedAffinity>
-4.67475986

$$$$

 OpenBabel03252502223D

 31 33  0  0  1  0  0  0  0  0999 V2000
   39.2680   28.8210   42.1000 N   0  0  0  0  0  0  0  0  0  0  0  0
   40.5760   29.4170   42.3710 C   0  0  0  0  0  0  0  0  0  0  0  0
   41.5520   28.2540   42.3130 C   0  0  0  0  0  0  0  0  0  0  0  0
   41.2800   27.2450   43.3710 C   0  0  0  0  0  0  0  0  0  0  0  0
   39.8310   27.0250   43.6790 C   0  0  0  0  0  0  0  0  0  0  0  0
   38.8780   27.5750   42.6670 C   0  0  2  0  0  0  0  0  0  0  0  0
   40.7680   30.1450   41.5870 H   0  0  0  0  0  0  0  0  0  0  0  0
   40.6290   29.8560   43.3910 H   0  0  0  0  0  0  0  0  0  0  0  0
   42.5740   28.6990   42.5130 H   0  0  0  0  0  0  0  0  0  0  0  0
   41.5780   27.8520   41.2770 H   0  0  0  0  0  0  0  0  0  0  0  0
   41.8570   27.5260   44.2780 H   0  0  0  0  0  0  0  0  0  0  0  0
   41.7960   26.2980   43.0290 H   0  0  0  0  0  0  0  0  0  0  0  0
   39.6540   27.3900   44.7110 H   0  0  0  0  0  0  0  0  0  0  0  0
   39.6710   25.9270   43.7270 H   0  0  0  0  0  0  0  0  0  0  0  0
   37.9790   27.8840   43.3140 H   0  0  0  0  0  0  0  0  0  0  0  0
   37.5550   30.3650   39.1620 C   0  0  0  0  0  0  0  0  0  0  0  0
   38.5260   29.7050   39.9090 C   0  0  0  0  0  0  0  0  0  0  0  0
   38.3360   29.4900   41.2740 C   0  0  0  0  0  0  0  0  0  0  0  0
   37.1700   29.9660   41.7800 N   0  0  0  0  0  0  0  0  0  0  0  0
   36.2240   30.6090   41.0540 C   0  0  0  0  0  0  0  0  0  0  0  0
   36.4320   30.8010   39.7370 N   0  0  0  0  0  0  0  0  0  0  0  0
   37.7320   30.5180   38.0890 H   0  0  0  0  0  0  0  0  0  0  0  0
   39.4010   29.3790   39.4140 H   0  0  0  0  0  0  0  0  0  0  0  0
   35.3590   30.9150   41.6300 H   0  0  0  0  0  0  0  0  0  0  0  0
   38.3250   26.6250   41.7830 N   0  0  0  0  0  0  0  0  0  0  0  0
   39.0860   26.0630   40.7620 C   0  0  0  0  0  2  0  0  0  0  0  0
   39.2740   24.5660   40.8220 C   0  0  0  0  0  2  0  0  0  0  0  0
   38.1160   23.8270   41.3890 C   0  0  0  0  0  3  0  0  0  0  0  0
   38.3540   23.4200   42.4140 H   0  0  0  0  0  0  0  0  0  0  0  0
   36.8840   24.6720   41.4810 C   0  0  0  0  0  2  0  0  0  0  0  0
   37.1790   25.9160   42.2320 C   0  0  0  0  0  2  0  0  0  0  0  0
  1  2  1  0  0  0  0
  1  6  1  0  0  0  0
  2  8  1  0  0  0  0
  3  2  1  0  0  0  0
  3  9  1  0  0  0  0
  3  4  1  0  0  0  0
  4  5  1  0  0  0  0
  4 11  1  0  0  0  0
  5 14  1  0  0  0  0
  5 13  1  0  0  0  0
  6 15  1  1  0  0  0
  6  5  1  0  0  0  0
  7  2  1  0  0  0  0
 10  3  1  0  0  0  0
 12  4  1  0  0  0  0
 16 21  2  0  0  0  0
 16 17  1  0  0  0  0
 17 18  2  0  0  0  0
 18 19  1  0  0  0  0
 18  1  1  0  0  0  0
 20 24  1  0  0  0  0
 20 19  2  0  0  0  0
 21 20  1  0  0  0  0
 22 16  1  0  0  0  0
 23 17  1  0  0  0  0
 25 31  1  0  0  0  0
 25  6  1  0  0  0  0
 26 27  1  0  0  0  0
 26 25  1  0  0  0  0
 27 28  1  0  0  0  0
 28 30  1  0  0  0  0
 28 29  1  0  0  0  0
 30 31  1  0  0  0  0
M  END
>  <minimizedAffinity>
-4.60419846

$$$$
