
 OpenBabel03242518083D

 33 35  0  0  1  0  0  0  0  0999 V2000
   37.8560   28.6100   41.0810 N   0  0  0  0  0  0  0  0  0  0  0  0
   38.9860   28.6900   41.9560 C   0  0  0  0  0  0  0  0  0  0  0  0
   38.5580   28.7300   43.3680 C   0  0  0  0  0  0  0  0  0  0  0  0
   37.1930   28.2390   43.6800 C   0  0  0  0  0  0  0  0  0  0  0  0
   36.5250   27.3530   42.6950 C   0  0  0  0  0  0  0  0  0  0  0  0
   36.8950   27.5720   41.2640 C   0  0  2  0  0  0  0  0  0  0  0  0
   39.7290   27.8860   41.7420 H   0  0  0  0  0  0  0  0  0  0  0  0
   39.5770   29.6320   41.7410 H   0  0  0  0  0  0  0  0  0  0  0  0
   38.6750   29.7480   43.7950 H   0  0  0  0  0  0  0  0  0  0  0  0
   39.2780   28.1010   43.9620 H   0  0  0  0  0  0  0  0  0  0  0  0
   36.5100   29.1270   43.8240 H   0  0  0  0  0  0  0  0  0  0  0  0
   37.1670   27.7460   44.6800 H   0  0  0  0  0  0  0  0  0  0  0  0
   35.4350   27.3620   42.9040 H   0  0  0  0  0  0  0  0  0  0  0  0
   36.8260   26.2990   42.9720 H   0  0  0  0  0  0  0  0  0  0  0  0
   35.9300   27.9390   40.7910 H   0  0  0  0  0  0  0  0  0  0  0  0
   36.7860   30.6180   40.2050 C   0  0  0  0  0  0  0  0  0  0  0  0
   37.7050   29.5700   40.0410 C   0  0  0  0  0  0  0  0  0  0  0  0
   38.4520   29.5140   38.8370 C   0  0  0  0  0  0  0  0  0  0  0  0
   38.2230   30.4880   37.9190 N   0  0  0  0  0  0  0  0  0  0  0  0
   37.3400   31.4700   38.1100 C   0  0  0  0  0  0  0  0  0  0  0  0
   36.6240   31.5410   39.2420 N   0  0  0  0  0  0  0  0  0  0  0  0
   36.0400   30.6790   41.3960 N   0  0  0  0  0  0  0  0  0  0  0  0
   39.1580   28.7030   38.7190 H   0  0  0  0  0  0  0  0  0  0  0  0
   37.1760   32.2260   37.3740 H   0  0  0  0  0  0  0  0  0  0  0  0
   36.1140   31.4400   42.1060 H   0  0  0  0  0  0  0  0  0  0  0  0
   35.4090   29.8440   41.4430 H   0  0  0  0  0  0  0  0  0  0  0  0
   37.1500   26.3590   40.5220 N   0  0  0  0  0  0  0  0  0  0  0  0
   36.3020   26.2940   39.3440 C   0  0  0  0  0  2  0  0  0  0  0  0
   36.8990   25.2670   38.4140 C   0  0  0  0  0  2  0  0  0  0  0  0
   36.8560   23.9380   39.1060 C   0  0  0  0  0  3  0  0  0  0  0  0
   36.1070   23.3080   38.5400 H   0  0  0  0  0  0  0  0  0  0  0  0
   36.5610   23.9760   40.5620 C   0  0  0  0  0  2  0  0  0  0  0  0
   37.0860   25.1620   41.3070 C   0  0  0  0  0  2  0  0  0  0  0  0
  1  6  1  0  0  0  0
  1  2  1  0  0  0  0
  2  3  1  0  0  0  0
  3  4  1  0  0  0  0
  3  9  1  0  0  0  0
  3 10  1  0  0  0  0
  4 11  1  0  0  0  0
  4 12  1  0  0  0  0
  5 13  1  0  0  0  0
  5 14  1  0  0  0  0
  5  4  1  0  0  0  0
  6 15  1  6  0  0  0
  6  5  1  0  0  0  0
  7  2  1  0  0  0  0
  8  2  1  0  0  0  0
 16 22  1  0  0  0  0
 17 16  1  0  0  0  0
 17  1  1  0  0  0  0
 18 17  2  0  0  0  0
 19 20  2  0  0  0  0
 19 18  1  0  0  0  0
 20 21  1  0  0  0  0
 21 16  2  0  0  0  0
 22 26  1  0  0  0  0
 22 25  1  0  0  0  0
 23 18  1  0  0  0  0
 24 20  1  0  0  0  0
 27  6  1  0  0  0  0
 27 33  1  0  0  0  0
 28 27  1  0  0  0  0
 29 30  1  0  0  0  0
 29 28  1  0  0  0  0
 30 32  1  0  0  0  0
 31 30  1  0  0  0  0
 32 33  1  0  0  0  0
M  END
>  <minimizedAffinity>
-5.26755142

$$$$

 OpenBabel03242518083D

 33 35  0  0  1  0  0  0  0  0999 V2000
   38.0170   30.4880   38.8850 N   0  0  0  0  0  0  0  0  0  0  0  0
   37.0070   30.4480   37.8710 C   0  0  0  0  0  0  0  0  0  0  0  0
   37.3740   29.5040   36.7970 C   0  0  0  0  0  0  0  0  0  0  0  0
   38.3900   28.4710   37.1180 C   0  0  0  0  0  0  0  0  0  0  0  0
   38.6400   28.1530   38.5450 C   0  0  0  0  0  0  0  0  0  0  0  0
   38.4380   29.2770   39.5100 C   0  0  2  0  0  0  0  0  0  0  0  0
   35.9970   30.2540   38.3040 H   0  0  0  0  0  0  0  0  0  0  0  0
   36.8810   31.4750   37.4090 H   0  0  0  0  0  0  0  0  0  0  0  0
   37.6910   30.0410   35.8800 H   0  0  0  0  0  0  0  0  0  0  0  0
   36.4390   28.9610   36.4860 H   0  0  0  0  0  0  0  0  0  0  0  0
   39.3830   28.7890   36.6830 H   0  0  0  0  0  0  0  0  0  0  0  0
   38.1760   27.5210   36.5720 H   0  0  0  0  0  0  0  0  0  0  0  0
   39.6240   27.6440   38.6200 H   0  0  0  0  0  0  0  0  0  0  0  0
   37.9110   27.3320   38.8130 H   0  0  0  0  0  0  0  0  0  0  0  0
   39.4790   29.4700   39.9190 H   0  0  0  0  0  0  0  0  0  0  0  0
   37.9210   32.5510   40.1810 C   0  0  0  0  0  0  0  0  0  0  0  0
   38.5910   31.7370   39.2540 C   0  0  0  0  0  0  0  0  0  0  0  0
   39.8220   32.1970   38.7220 C   0  0  0  0  0  0  0  0  0  0  0  0
   40.2710   33.4050   39.1520 N   0  0  0  0  0  0  0  0  0  0  0  0
   39.6060   34.1520   40.0350 C   0  0  0  0  0  0  0  0  0  0  0  0
   38.4410   33.7340   40.5500 N   0  0  0  0  0  0  0  0  0  0  0  0
   36.6980   32.1030   40.7120 N   0  0  0  0  0  0  0  0  0  0  0  0
   40.3310   31.5630   38.0080 H   0  0  0  0  0  0  0  0  0  0  0  0
   39.9780   35.0990   40.3600 H   0  0  0  0  0  0  0  0  0  0  0  0
   36.5360   31.8660   41.7140 H   0  0  0  0  0  0  0  0  0  0  0  0
   35.9940   32.0500   39.9380 H   0  0  0  0  0  0  0  0  0  0  0  0
   37.7080   28.9130   40.7020 N   0  0  0  0  0  0  0  0  0  0  0  0
   38.5720   28.9790   41.8680 C   0  0  0  0  0  2  0  0  0  0  0  0
   37.6840   29.0170   43.0880 C   0  0  0  0  0  2  0  0  0  0  0  0
   36.9140   27.7320   43.1370 C   0  0  0  0  0  3  0  0  0  0  0  0
   37.3020   27.1620   44.0330 H   0  0  0  0  0  0  0  0  0  0  0  0
   36.9480   26.9100   41.9000 C   0  0  0  0  0  2  0  0  0  0  0  0
   37.0100   27.6650   40.6110 C   0  0  0  0  0  2  0  0  0  0  0  0
  1 17  1  0  0  0  0
  1  6  1  0  0  0  0
  2  7  1  0  0  0  0
  2  1  1  0  0  0  0
  3  4  1  0  0  0  0
  3  2  1  0  0  0  0
  4  5  1  0  0  0  0
  5 13  1  0  0  0  0
  5 14  1  0  0  0  0
  5  6  1  0  0  0  0
  6 15  1  1  0  0  0
  6 27  1  0  0  0  0
  8  2  1  0  0  0  0
  9  3  1  0  0  0  0
 10  3  1  0  0  0  0
 11  4  1  0  0  0  0
 12  4  1  0  0  0  0
 16 21  1  0  0  0  0
 16 22  1  0  0  0  0
 17 16  2  0  0  0  0
 18 19  2  0  0  0  0
 18 17  1  0  0  0  0
 19 20  1  0  0  0  0
 20 24  1  0  0  0  0
 20 21  2  0  0  0  0
 22 25  1  0  0  0  0
 23 18  1  0  0  0  0
 26 22  1  0  0  0  0
 27 28  1  0  0  0  0
 28 29  1  0  0  0  0
 29 30  1  0  0  0  0
 30 31  1  0  0  0  0
 32 30  1  0  0  0  0
 33 27  1  0  0  0  0
 33 32  1  0  0  0  0
M  END
>  <minimizedAffinity>
-5.20066118

$$$$

 OpenBabel03242518083D

 33 35  0  0  1  0  0  0  0  0999 V2000
   39.6840   32.1870   39.6890 N   0  0  0  0  0  0  0  0  0  0  0  0
   38.9430   33.3080   40.1820 C   0  0  0  0  0  0  0  0  0  0  0  0
   37.5740   33.3220   39.6280 C   0  0  0  0  0  0  0  0  0  0  0  0
   37.0480   32.0460   39.0850 C   0  0  0  0  0  0  0  0  0  0  0  0
   37.6960   30.7810   39.5110 C   0  0  0  0  0  0  0  0  0  0  0  0
   39.1520   30.8710   39.8350 C   0  0  2  0  0  0  0  0  0  0  0  0
   38.9700   33.3600   41.2960 H   0  0  0  0  0  0  0  0  0  0  0  0
   39.4540   34.2730   39.8810 H   0  0  0  0  0  0  0  0  0  0  0  0
   37.4610   34.1100   38.8570 H   0  0  0  0  0  0  0  0  0  0  0  0
   36.8760   33.6420   40.4510 H   0  0  0  0  0  0  0  0  0  0  0  0
   37.1160   32.0740   37.9570 H   0  0  0  0  0  0  0  0  0  0  0  0
   35.9500   31.9620   39.2620 H   0  0  0  0  0  0  0  0  0  0  0  0
   37.4270   29.9900   38.7800 H   0  0  0  0  0  0  0  0  0  0  0  0
   37.1530   30.4540   40.4480 H   0  0  0  0  0  0  0  0  0  0  0  0
   39.6450   30.2340   39.0350 H   0  0  0  0  0  0  0  0  0  0  0  0
   40.9920   32.5000   37.6560 C   0  0  0  0  0  0  0  0  0  0  0  0
   40.9400   32.4000   39.0540 C   0  0  0  0  0  0  0  0  0  0  0  0
   42.1510   32.5210   39.7820 C   0  0  0  0  0  0  0  0  0  0  0  0
   43.2870   32.7260   39.0660 N   0  0  0  0  0  0  0  0  0  0  0  0
   43.2980   32.8150   37.7360 C   0  0  0  0  0  0  0  0  0  0  0  0
   42.1640   32.7040   37.0300 N   0  0  0  0  0  0  0  0  0  0  0  0
   39.7950   32.3790   36.9260 N   0  0  0  0  0  0  0  0  0  0  0  0
   42.1010   32.4430   40.8600 H   0  0  0  0  0  0  0  0  0  0  0  0
   44.2040   32.9770   37.1930 H   0  0  0  0  0  0  0  0  0  0  0  0
   39.3650   33.1420   36.3600 H   0  0  0  0  0  0  0  0  0  0  0  0
   39.4210   31.4080   37.0490 H   0  0  0  0  0  0  0  0  0  0  0  0
   39.5360   30.1830   41.0460 N   0  0  0  0  0  0  0  0  0  0  0  0
   40.1490   28.9040   40.7330 C   0  0  0  0  0  2  0  0  0  0  0  0
   40.8980   28.4480   41.9620 C   0  0  0  0  0  2  0  0  0  0  0  0
   39.8990   28.2420   43.0600 C   0  0  0  0  0  3  0  0  0  0  0  0
   39.8670   27.1300   43.2570 H   0  0  0  0  0  0  0  0  0  0  0  0
   38.5430   28.8000   42.8140 C   0  0  0  0  0  2  0  0  0  0  0  0
   38.4880   30.0630   42.0160 C   0  0  0  0  0  2  0  0  0  0  0  0
  1  6  1  0  0  0  0
  1  2  1  0  0  0  0
  2  7  1  0  0  0  0
  3  2  1  0  0  0  0
  3 10  1  0  0  0  0
  4 12  1  0  0  0  0
  4  5  1  0  0  0  0
  4  3  1  0  0  0  0
  5  6  1  0  0  0  0
  5 14  1  0  0  0  0
  6 15  1  6  0  0  0
  6 27  1  0  0  0  0
  8  2  1  0  0  0  0
  9  3  1  0  0  0  0
 11  4  1  0  0  0  0
 13  5  1  0  0  0  0
 16 17  1  0  0  0  0
 17  1  1  0  0  0  0
 17 18  2  0  0  0  0
 18 23  1  0  0  0  0
 19 18  1  0  0  0  0
 20 19  2  0  0  0  0
 21 16  2  0  0  0  0
 21 20  1  0  0  0  0
 22 26  1  0  0  0  0
 22 16  1  0  0  0  0
 24 20  1  0  0  0  0
 25 22  1  0  0  0  0
 27 33  1  0  0  0  0
 28 27  1  0  0  0  0
 28 29  1  0  0  0  0
 29 30  1  0  0  0  0
 30 31  1  0  0  0  0
 32 30  1  0  0  0  0
 33 32  1  0  0  0  0
M  END
>  <minimizedAffinity>
-5.19927979

$$$$

 OpenBabel03242518083D

 33 35  0  0  1  0  0  0  0  0999 V2000
   38.1650   29.2180   41.4850 N   0  0  0  0  0  0  0  0  0  0  0  0
   38.5240   29.1900   42.8710 C   0  0  0  0  0  0  0  0  0  0  0  0
   37.4670   28.5460   43.6770 C   0  0  0  0  0  0  0  0  0  0  0  0
   36.5060   27.6710   42.9630 C   0  0  0  0  0  0  0  0  0  0  0  0
   36.8950   27.1390   41.6330 C   0  0  0  0  0  0  0  0  0  0  0  0
   37.8050   28.0060   40.8250 C   0  0  2  0  0  0  0  0  0  0  0  0
   39.5330   28.7400   43.0250 H   0  0  0  0  0  0  0  0  0  0  0  0
   38.6660   30.2450   43.2570 H   0  0  0  0  0  0  0  0  0  0  0  0
   36.8970   29.2950   44.2640 H   0  0  0  0  0  0  0  0  0  0  0  0
   37.9720   27.9130   44.4580 H   0  0  0  0  0  0  0  0  0  0  0  0
   35.5410   28.2370   42.8090 H   0  0  0  0  0  0  0  0  0  0  0  0
   36.1900   26.8180   43.6090 H   0  0  0  0  0  0  0  0  0  0  0  0
   35.9740   26.8110   41.1080 H   0  0  0  0  0  0  0  0  0  0  0  0
   37.4330   26.1650   41.8330 H   0  0  0  0  0  0  0  0  0  0  0  0
   37.1710   28.3020   39.9310 H   0  0  0  0  0  0  0  0  0  0  0  0
   36.9930   31.2230   40.7430 C   0  0  0  0  0  0  0  0  0  0  0  0
   38.1690   30.4580   40.7860 C   0  0  0  0  0  0  0  0  0  0  0  0
   39.3200   30.9580   40.1250 C   0  0  0  0  0  0  0  0  0  0  0  0
   39.2020   32.1540   39.4930 N   0  0  0  0  0  0  0  0  0  0  0  0
   38.0670   32.8540   39.4740 C   0  0  0  0  0  0  0  0  0  0  0  0
   36.9680   32.3990   40.0930 N   0  0  0  0  0  0  0  0  0  0  0  0
   35.8460   30.7330   41.3940 N   0  0  0  0  0  0  0  0  0  0  0  0
   40.2210   30.3610   40.1630 H   0  0  0  0  0  0  0  0  0  0  0  0
   37.9970   33.7930   38.9710 H   0  0  0  0  0  0  0  0  0  0  0  0
   35.3920   31.1840   42.2170 H   0  0  0  0  0  0  0  0  0  0  0  0
   35.5360   29.8540   40.9150 H   0  0  0  0  0  0  0  0  0  0  0  0
   38.8980   27.3000   40.1970 N   0  0  0  0  0  0  0  0  0  0  0  0
   38.5380   26.9010   38.8470 C   0  0  0  0  0  2  0  0  0  0  0  0
   39.8170   26.5720   38.1170 C   0  0  0  0  0  2  0  0  0  0  0  0
   40.4530   25.4020   38.8060 C   0  0  0  0  0  3  0  0  0  0  0  0
   40.3850   24.5330   38.0860 H   0  0  0  0  0  0  0  0  0  0  0  0
   39.8990   25.0590   40.1420 C   0  0  0  0  0  2  0  0  0  0  0  0
   39.4170   26.2090   40.9670 C   0  0  0  0  0  2  0  0  0  0  0  0
  1  2  1  0  0  0  0
  2  7  1  0  0  0  0
  2  8  1  0  0  0  0
  2  3  1  0  0  0  0
  3  9  1  0  0  0  0
  3 10  1  0  0  0  0
  4 12  1  0  0  0  0
  4  3  1  0  0  0  0
  5 14  1  0  0  0  0
  5  4  1  0  0  0  0
  6 15  1  6  0  0  0
  6  1  1  0  0  0  0
  6  5  1  0  0  0  0
 11  4  1  0  0  0  0
 13  5  1  0  0  0  0
 16 17  1  0  0  0  0
 16 22  1  0  0  0  0
 17  1  1  0  0  0  0
 18 23  1  0  0  0  0
 18 17  2  0  0  0  0
 19 18  1  0  0  0  0
 20 19  2  0  0  0  0
 20 21  1  0  0  0  0
 21 16  2  0  0  0  0
 22 25  1  0  0  0  0
 24 20  1  0  0  0  0
 26 22  1  0  0  0  0
 27  6  1  0  0  0  0
 27 33  1  0  0  0  0
 28 27  1  0  0  0  0
 29 30  1  0  0  0  0
 29 28  1  0  0  0  0
 30 32  1  0  0  0  0
 31 30  1  0  0  0  0
 32 33  1  0  0  0  0
M  END
>  <minimizedAffinity>
-5.13542557

$$$$

 OpenBabel03242518083D

 33 35  0  0  1  0  0  0  0  0999 V2000
   37.9180   29.2950   41.3390 N   0  0  0  0  0  0  0  0  0  0  0  0
   37.8490   28.9700   42.7320 C   0  0  0  0  0  0  0  0  0  0  0  0
   39.0480   28.2220   43.1600 C   0  0  0  0  0  0  0  0  0  0  0  0
   40.2550   28.3240   42.3040 C   0  0  0  0  0  0  0  0  0  0  0  0
   40.3530   29.4670   41.3630 C   0  0  0  0  0  0  0  0  0  0  0  0
   39.0570   29.9890   40.8320 C   0  0  2  0  0  0  0  0  0  0  0  0
   37.6460   29.8740   43.3540 H   0  0  0  0  0  0  0  0  0  0  0  0
   36.9400   28.3250   42.9350 H   0  0  0  0  0  0  0  0  0  0  0  0
   38.8150   27.1500   43.3210 H   0  0  0  0  0  0  0  0  0  0  0  0
   39.3360   28.5960   44.1820 H   0  0  0  0  0  0  0  0  0  0  0  0
   40.3380   27.3870   41.6780 H   0  0  0  0  0  0  0  0  0  0  0  0
   41.1840   28.2890   42.9220 H   0  0  0  0  0  0  0  0  0  0  0  0
   41.1080   29.2150   40.5890 H   0  0  0  0  0  0  0  0  0  0  0  0
   40.8520   30.3020   41.9390 H   0  0  0  0  0  0  0  0  0  0  0  0
   39.1090   29.7560   39.7220 H   0  0  0  0  0  0  0  0  0  0  0  0
   35.6900   29.7020   40.4400 C   0  0  0  0  0  0  0  0  0  0  0  0
   36.8510   28.9160   40.4770 C   0  0  0  0  0  0  0  0  0  0  0  0
   36.9130   27.7690   39.6450 C   0  0  0  0  0  0  0  0  0  0  0  0
   35.8330   27.5100   38.8640 N   0  0  0  0  0  0  0  0  0  0  0  0
   34.7450   28.2810   38.8550 C   0  0  0  0  0  0  0  0  0  0  0  0
   34.6670   29.3700   39.6330 N   0  0  0  0  0  0  0  0  0  0  0  0
   35.6190   30.8400   41.2630 N   0  0  0  0  0  0  0  0  0  0  0  0
   37.8130   27.1680   39.6810 H   0  0  0  0  0  0  0  0  0  0  0  0
   33.9070   28.0590   38.2310 H   0  0  0  0  0  0  0  0  0  0  0  0
   35.5680   31.8230   40.9160 H   0  0  0  0  0  0  0  0  0  0  0  0
   35.6270   30.5330   42.2650 H   0  0  0  0  0  0  0  0  0  0  0  0
   38.9510   31.4290   40.8330 N   0  0  0  0  0  0  0  0  0  0  0  0
   38.4900   31.9060   39.5410 C   0  0  0  0  0  2  0  0  0  0  0  0
   37.9950   33.3200   39.7310 C   0  0  0  0  0  2  0  0  0  0  0  0
   39.1590   34.1610   40.1630 C   0  0  0  0  0  3  0  0  0  0  0  0
   39.3770   34.8660   39.3070 H   0  0  0  0  0  0  0  0  0  0  0  0
   40.3720   33.4160   40.5910 C   0  0  0  0  0  2  0  0  0  0  0  0
   40.1320   32.1090   41.2770 C   0  0  0  0  0  2  0  0  0  0  0  0
  1  2  1  0  0  0  0
  2  8  1  0  0  0  0
  2  3  1  0  0  0  0
  2  7  1  0  0  0  0
  3  9  1  0  0  0  0
  3 10  1  0  0  0  0
  4 12  1  0  0  0  0
  4  3  1  0  0  0  0
  5 14  1  0  0  0  0
  5  4  1  0  0  0  0
  6 15  1  6  0  0  0
  6 27  1  0  0  0  0
  6  1  1  0  0  0  0
  6  5  1  0  0  0  0
 11  4  1  0  0  0  0
 13  5  1  0  0  0  0
 16 17  1  0  0  0  0
 16 22  1  0  0  0  0
 17  1  1  0  0  0  0
 18 23  1  0  0  0  0
 18 17  2  0  0  0  0
 19 18  1  0  0  0  0
 20 19  2  0  0  0  0
 20 21  1  0  0  0  0
 21 16  2  0  0  0  0
 22 26  1  0  0  0  0
 24 20  1  0  0  0  0
 25 22  1  0  0  0  0
 27 33  1  0  0  0  0
 28 29  1  0  0  0  0
 28 27  1  0  0  0  0
 29 30  1  0  0  0  0
 30 32  1  0  0  0  0
 31 30  1  0  0  0  0
 32 33  1  0  0  0  0
M  END
>  <minimizedAffinity>
-5.11937475

$$$$

 OpenBabel03242518083D

 33 35  0  0  1  0  0  0  0  0999 V2000
   38.3450   30.8480   40.1700 N   0  0  0  0  0  0  0  0  0  0  0  0
   38.1630   31.1220   38.7760 C   0  0  0  0  0  0  0  0  0  0  0  0
   37.4800   32.4160   38.5780 C   0  0  0  0  0  0  0  0  0  0  0  0
   37.5120   33.3820   39.7040 C   0  0  0  0  0  0  0  0  0  0  0  0
   38.5550   33.2110   40.7450 C   0  0  0  0  0  0  0  0  0  0  0  0
   39.0010   31.8070   40.9980 C   0  0  2  0  0  0  0  0  0  0  0  0
   39.1220   31.0370   38.2120 H   0  0  0  0  0  0  0  0  0  0  0  0
   37.5280   30.3130   38.3020 H   0  0  0  0  0  0  0  0  0  0  0  0
   36.4260   32.2700   38.2650 H   0  0  0  0  0  0  0  0  0  0  0  0
   37.9590   32.9230   37.6950 H   0  0  0  0  0  0  0  0  0  0  0  0
   36.5190   33.3510   40.2400 H   0  0  0  0  0  0  0  0  0  0  0  0
   37.5540   34.4310   39.3260 H   0  0  0  0  0  0  0  0  0  0  0  0
   38.2380   33.7710   41.6490 H   0  0  0  0  0  0  0  0  0  0  0  0
   39.4520   33.7990   40.3870 H   0  0  0  0  0  0  0  0  0  0  0  0
   38.6580   31.6040   42.0600 H   0  0  0  0  0  0  0  0  0  0  0  0
   36.5840   29.5820   41.2830 C   0  0  0  0  0  0  0  0  0  0  0  0
   37.8650   29.6230   40.7120 C   0  0  0  0  0  0  0  0  0  0  0  0
   38.6320   28.4300   40.6970 C   0  0  0  0  0  0  0  0  0  0  0  0
   38.0660   27.3220   41.2420 N   0  0  0  0  0  0  0  0  0  0  0  0
   36.8440   27.3220   41.7760 C   0  0  0  0  0  0  0  0  0  0  0  0
   36.1030   28.4390   41.8000 N   0  0  0  0  0  0  0  0  0  0  0  0
   35.8170   30.7620   41.3030 N   0  0  0  0  0  0  0  0  0  0  0  0
   39.6180   28.4710   40.2550 H   0  0  0  0  0  0  0  0  0  0  0  0
   36.4180   26.4380   42.1990 H   0  0  0  0  0  0  0  0  0  0  0  0
   34.9220   30.8980   40.7850 H   0  0  0  0  0  0  0  0  0  0  0  0
   36.2940   31.4630   41.9180 H   0  0  0  0  0  0  0  0  0  0  0  0
   40.4320   31.6480   41.1080 N   0  0  0  0  0  0  0  0  0  0  0  0
   40.7970   31.2330   42.4510 C   0  0  0  0  0  2  0  0  0  0  0  0
   42.1990   30.6790   42.3890 C   0  0  0  0  0  2  0  0  0  0  0  0
   43.1150   31.7880   41.9670 C   0  0  0  0  0  3  0  0  0  0  0  0
   43.7650   32.0220   42.8620 H   0  0  0  0  0  0  0  0  0  0  0  0
   42.4530   33.0050   41.4300 C   0  0  0  0  0  2  0  0  0  0  0  0
   41.1900   32.7800   40.6620 C   0  0  0  0  0  2  0  0  0  0  0  0
  1 17  1  0  0  0  0
  1  6  1  0  0  0  0
  2  1  1  0  0  0  0
  3  2  1  0  0  0  0
  3  4  1  0  0  0  0
  4 11  1  0  0  0  0
  4  5  1  0  0  0  0
  5  6  1  0  0  0  0
  5 13  1  0  0  0  0
  6 27  1  0  0  0  0
  6 15  1  1  0  0  0
  7  2  1  0  0  0  0
  8  2  1  0  0  0  0
  9  3  1  0  0  0  0
 10  3  1  0  0  0  0
 12  4  1  0  0  0  0
 14  5  1  0  0  0  0
 16 22  1  0  0  0  0
 16 21  1  0  0  0  0
 17 16  2  0  0  0  0
 18 17  1  0  0  0  0
 18 19  2  0  0  0  0
 19 20  1  0  0  0  0
 20 21  2  0  0  0  0
 20 24  1  0  0  0  0
 22 26  1  0  0  0  0
 23 18  1  0  0  0  0
 25 22  1  0  0  0  0
 27 28  1  0  0  0  0
 29 28  1  0  0  0  0
 30 29  1  0  0  0  0
 30 31  1  0  0  0  0
 32 30  1  0  0  0  0
 33 27  1  0  0  0  0
 33 32  1  0  0  0  0
M  END
>  <minimizedAffinity>
-5.09819031

$$$$

 OpenBabel03242518083D

 33 35  0  0  1  0  0  0  0  0999 V2000
   38.0320   28.8690   40.7410 N   0  0  0  0  0  0  0  0  0  0  0  0
   39.1120   29.6290   40.1870 C   0  0  0  0  0  0  0  0  0  0  0  0
   39.5260   30.7060   41.1070 C   0  0  0  0  0  0  0  0  0  0  0  0
   39.1430   30.5670   42.5340 C   0  0  0  0  0  0  0  0  0  0  0  0
   38.7860   29.2170   43.0360 C   0  0  0  0  0  0  0  0  0  0  0  0
   38.1680   28.2920   42.0390 C   0  0  2  0  0  0  0  0  0  0  0  0
   39.9550   28.9710   39.8680 H   0  0  0  0  0  0  0  0  0  0  0  0
   38.7910   30.1040   39.2100 H   0  0  0  0  0  0  0  0  0  0  0  0
   39.1870   31.6980   40.7440 H   0  0  0  0  0  0  0  0  0  0  0  0
   40.6490   30.7720   41.0730 H   0  0  0  0  0  0  0  0  0  0  0  0
   38.2510   31.2290   42.7380 H   0  0  0  0  0  0  0  0  0  0  0  0
   39.9270   31.0000   43.1990 H   0  0  0  0  0  0  0  0  0  0  0  0
   38.2150   29.3380   43.9800 H   0  0  0  0  0  0  0  0  0  0  0  0
   39.7550   28.7500   43.3860 H   0  0  0  0  0  0  0  0  0  0  0  0
   37.1150   28.1370   42.4340 H   0  0  0  0  0  0  0  0  0  0  0  0
   35.7220   29.5060   40.2900 C   0  0  0  0  0  0  0  0  0  0  0  0
   36.8340   28.7040   39.9900 C   0  0  0  0  0  0  0  0  0  0  0  0
   36.7150   27.7570   38.9420 C   0  0  0  0  0  0  0  0  0  0  0  0
   35.5220   27.6930   38.2960 N   0  0  0  0  0  0  0  0  0  0  0  0
   34.4870   28.4720   38.6090 C   0  0  0  0  0  0  0  0  0  0  0  0
   34.5790   29.3750   39.5960 N   0  0  0  0  0  0  0  0  0  0  0  0
   35.8300   30.4470   41.3300 N   0  0  0  0  0  0  0  0  0  0  0  0
   37.5780   27.1430   38.7180 H   0  0  0  0  0  0  0  0  0  0  0  0
   33.5580   28.4050   38.0860 H   0  0  0  0  0  0  0  0  0  0  0  0
   35.7820   31.4810   41.2040 H   0  0  0  0  0  0  0  0  0  0  0  0
   35.9650   29.9360   42.2350 H   0  0  0  0  0  0  0  0  0  0  0  0
   38.6990   26.9500   42.0620 N   0  0  0  0  0  0  0  0  0  0  0  0
   37.6640   25.9980   42.4260 C   0  0  0  0  0  2  0  0  0  0  0  0
   38.1470   24.6270   42.0210 C   0  0  0  0  0  2  0  0  0  0  0  0
   39.3790   24.3180   42.8170 C   0  0  0  0  0  3  0  0  0  0  0  0
   39.1000   23.4820   43.5240 H   0  0  0  0  0  0  0  0  0  0  0  0
   39.9910   25.4680   43.5320 C   0  0  0  0  0  2  0  0  0  0  0  0
   39.8840   26.7960   42.8540 C   0  0  0  0  0  2  0  0  0  0  0  0
  1  6  1  0  0  0  0
  2  1  1  0  0  0  0
  2  3  1  0  0  0  0
  3  4  1  0  0  0  0
  4 11  1  0  0  0  0
  4  5  1  0  0  0  0
  4 12  1  0  0  0  0
  5 14  1  0  0  0  0
  5 13  1  0  0  0  0
  6 27  1  0  0  0  0
  6 15  1  1  0  0  0
  6  5  1  0  0  0  0
  7  2  1  0  0  0  0
  8  2  1  0  0  0  0
  9  3  1  0  0  0  0
 10  3  1  0  0  0  0
 16 22  1  0  0  0  0
 17 16  1  0  0  0  0
 17  1  1  0  0  0  0
 18 17  2  0  0  0  0
 19 20  2  0  0  0  0
 19 18  1  0  0  0  0
 20 21  1  0  0  0  0
 21 16  2  0  0  0  0
 22 26  1  0  0  0  0
 23 18  1  0  0  0  0
 24 20  1  0  0  0  0
 25 22  1  0  0  0  0
 27 28  1  0  0  0  0
 27 33  1  0  0  0  0
 29 28  1  0  0  0  0
 29 30  1  0  0  0  0
 30 31  1  0  0  0  0
 30 32  1  0  0  0  0
 33 32  1  0  0  0  0
M  END
>  <minimizedAffinity>
-5.08372688

$$$$

 OpenBabel03242518083D

 33 35  0  0  1  0  0  0  0  0999 V2000
   37.7910   30.5060   39.2070 N   0  0  0  0  0  0  0  0  0  0  0  0
   36.6120   30.6210   38.4020 C   0  0  0  0  0  0  0  0  0  0  0  0
   36.6520   29.6740   37.2700 C   0  0  0  0  0  0  0  0  0  0  0  0
   37.5730   28.5170   37.3830 C   0  0  0  0  0  0  0  0  0  0  0  0
   38.0450   28.1250   38.7340 C   0  0  0  0  0  0  0  0  0  0  0  0
   38.1680   29.2330   39.7290 C   0  0  2  0  0  0  0  0  0  0  0  0
   35.6850   30.5350   39.0170 H   0  0  0  0  0  0  0  0  0  0  0  0
   36.5300   31.6690   37.9810 H   0  0  0  0  0  0  0  0  0  0  0  0
   36.8560   30.1990   36.3140 H   0  0  0  0  0  0  0  0  0  0  0  0
   35.6150   29.2580   37.1360 H   0  0  0  0  0  0  0  0  0  0  0  0
   38.4990   28.7260   36.7700 H   0  0  0  0  0  0  0  0  0  0  0  0
   37.1450   27.6180   36.8790 H   0  0  0  0  0  0  0  0  0  0  0  0
   38.9540   27.4990   38.6150 H   0  0  0  0  0  0  0  0  0  0  0  0
   37.2830   27.3890   39.1280 H   0  0  0  0  0  0  0  0  0  0  0  0
   39.2820   29.2860   39.9350 H   0  0  0  0  0  0  0  0  0  0  0  0
   39.6280   31.9910   38.6040 C   0  0  0  0  0  0  0  0  0  0  0  0
   38.5740   31.6640   39.4710 C   0  0  0  0  0  0  0  0  0  0  0  0
   38.3320   32.5110   40.5820 C   0  0  0  0  0  0  0  0  0  0  0  0
   39.1450   33.5890   40.7290 N   0  0  0  0  0  0  0  0  0  0  0  0
   40.1380   33.8680   39.8840 C   0  0  0  0  0  0  0  0  0  0  0  0
   40.3830   33.0800   38.8270 N   0  0  0  0  0  0  0  0  0  0  0  0
   39.8770   31.1540   37.5000 N   0  0  0  0  0  0  0  0  0  0  0  0
   37.5170   32.2520   41.2450 H   0  0  0  0  0  0  0  0  0  0  0  0
   40.7650   34.7220   40.0190 H   0  0  0  0  0  0  0  0  0  0  0  0
   39.7700   31.4390   36.5030 H   0  0  0  0  0  0  0  0  0  0  0  0
   40.1820   30.2150   37.8510 H   0  0  0  0  0  0  0  0  0  0  0  0
   37.6350   28.9210   41.0350 N   0  0  0  0  0  0  0  0  0  0  0  0
   38.6940   28.9130   42.0280 C   0  0  0  0  0  2  0  0  0  0  0  0
   38.0420   29.0150   43.3860 C   0  0  0  0  0  2  0  0  0  0  0  0
   37.1950   27.7930   43.5820 C   0  0  0  0  0  3  0  0  0  0  0  0
   37.6900   27.1900   44.4000 H   0  0  0  0  0  0  0  0  0  0  0  0
   36.9450   26.9770   42.3660 C   0  0  0  0  0  2  0  0  0  0  0  0
   36.8360   27.7320   41.0800 C   0  0  0  0  0  2  0  0  0  0  0  0
  1 17  1  0  0  0  0
  1  6  1  0  0  0  0
  2  7  1  0  0  0  0
  2  1  1  0  0  0  0
  3  4  1  0  0  0  0
  3  2  1  0  0  0  0
  4  5  1  0  0  0  0
  5 14  1  0  0  0  0
  5  6  1  0  0  0  0
  6 15  1  1  0  0  0
  6 27  1  0  0  0  0
  8  2  1  0  0  0  0
  9  3  1  0  0  0  0
 10  3  1  0  0  0  0
 11  4  1  0  0  0  0
 12  4  1  0  0  0  0
 13  5  1  0  0  0  0
 16 21  2  0  0  0  0
 16 17  1  0  0  0  0
 17 18  2  0  0  0  0
 18 19  1  0  0  0  0
 18 23  1  0  0  0  0
 20 24  1  0  0  0  0
 20 19  2  0  0  0  0
 21 20  1  0  0  0  0
 22 26  1  0  0  0  0
 22 16  1  0  0  0  0
 25 22  1  0  0  0  0
 27 33  1  0  0  0  0
 27 28  1  0  0  0  0
 28 29  1  0  0  0  0
 29 30  1  0  0  0  0
 30 31  1  0  0  0  0
 32 30  1  0  0  0  0
 33 32  1  0  0  0  0
M  END
>  <minimizedAffinity>
-5.07092333

$$$$

 OpenBabel03242518083D

 33 35  0  0  1  0  0  0  0  0999 V2000
   36.3850   29.0620   39.2820 N   0  0  0  0  0  0  0  0  0  0  0  0
   35.0310   28.6840   39.0130 C   0  0  0  0  0  0  0  0  0  0  0  0
   34.9750   27.5980   38.0140 C   0  0  0  0  0  0  0  0  0  0  0  0
   36.2060   26.7960   37.8100 C   0  0  0  0  0  0  0  0  0  0  0  0
   37.2360   26.8100   38.8780 C   0  0  0  0  0  0  0  0  0  0  0  0
   37.3300   28.0690   39.6780 C   0  0  2  0  0  0  0  0  0  0  0  0
   34.4760   28.4490   39.9520 H   0  0  0  0  0  0  0  0  0  0  0  0
   34.4550   29.5690   38.6040 H   0  0  0  0  0  0  0  0  0  0  0  0
   34.6300   27.9760   37.0290 H   0  0  0  0  0  0  0  0  0  0  0  0
   34.1650   26.8840   38.3300 H   0  0  0  0  0  0  0  0  0  0  0  0
   36.7190   27.1480   36.8670 H   0  0  0  0  0  0  0  0  0  0  0  0
   35.9540   25.7360   37.5710 H   0  0  0  0  0  0  0  0  0  0  0  0
   38.1950   26.4630   38.4390 H   0  0  0  0  0  0  0  0  0  0  0  0
   36.9630   25.9710   39.5840 H   0  0  0  0  0  0  0  0  0  0  0  0
   38.3560   28.4770   39.4160 H   0  0  0  0  0  0  0  0  0  0  0  0
   36.5310   31.3140   40.2040 C   0  0  0  0  0  0  0  0  0  0  0  0
   36.7720   30.4250   39.1460 C   0  0  0  0  0  0  0  0  0  0  0  0
   37.3990   30.9270   37.9770 C   0  0  0  0  0  0  0  0  0  0  0  0
   37.7250   32.2450   37.9650 N   0  0  0  0  0  0  0  0  0  0  0  0
   37.4800   33.0600   38.9910 C   0  0  0  0  0  0  0  0  0  0  0  0
   36.8880   32.6060   40.1050 N   0  0  0  0  0  0  0  0  0  0  0  0
   35.9080   30.8240   41.3670 N   0  0  0  0  0  0  0  0  0  0  0  0
   37.5820   30.2340   37.1660 H   0  0  0  0  0  0  0  0  0  0  0  0
   37.7450   34.0950   38.9610 H   0  0  0  0  0  0  0  0  0  0  0  0
   36.3560   30.7770   42.3070 H   0  0  0  0  0  0  0  0  0  0  0  0
   34.9340   30.5230   41.1250 H   0  0  0  0  0  0  0  0  0  0  0  0
   37.4440   27.8610   41.1020 N   0  0  0  0  0  0  0  0  0  0  0  0
   38.6540   28.4810   41.6130 C   0  0  0  0  0  2  0  0  0  0  0  0
   38.5020   28.6070   43.1090 C   0  0  0  0  0  2  0  0  0  0  0  0
   38.3970   27.2250   43.6800 C   0  0  0  0  0  3  0  0  0  0  0  0
   39.3420   27.0540   44.2750 H   0  0  0  0  0  0  0  0  0  0  0  0
   38.1570   26.1360   42.6970 C   0  0  0  0  0  2  0  0  0  0  0  0
   37.3160   26.4940   41.5130 C   0  0  0  0  0  2  0  0  0  0  0  0
  1  6  1  0  0  0  0
  2  1  1  0  0  0  0
  2  7  1  0  0  0  0
  3 10  1  0  0  0  0
  3  2  1  0  0  0  0
  4  3  1  0  0  0  0
  4  5  1  0  0  0  0
  5 14  1  0  0  0  0
  5  6  1  0  0  0  0
  6 15  1  6  0  0  0
  6 27  1  0  0  0  0
  8  2  1  0  0  0  0
  9  3  1  0  0  0  0
 11  4  1  0  0  0  0
 12  4  1  0  0  0  0
 13  5  1  0  0  0  0
 16 22  1  0  0  0  0
 17  1  1  0  0  0  0
 17 16  2  0  0  0  0
 18 17  1  0  0  0  0
 19 18  2  0  0  0  0
 19 20  1  0  0  0  0
 20 21  2  0  0  0  0
 21 16  1  0  0  0  0
 22 25  1  0  0  0  0
 23 18  1  0  0  0  0
 24 20  1  0  0  0  0
 26 22  1  0  0  0  0
 27 33  1  0  0  0  0
 27 28  1  0  0  0  0
 28 29  1  0  0  0  0
 29 30  1  0  0  0  0
 30 31  1  0  0  0  0
 32 30  1  0  0  0  0
 33 32  1  0  0  0  0
M  END
>  <minimizedAffinity>
-5.05140114

$$$$
