
 OpenBabel03252508573D

 22 23  0  0  0  0  0  0  0  0999 V2000
   36.7180   31.0610   39.6970 C   0  0  0  0  0  0  0  0  0  0  0  0
   35.8830   31.6390   39.2430 H   0  0  0  0  0  0  0  0  0  0  0  0
   36.9800   30.1660   39.1110 H   0  0  0  0  0  0  0  0  0  0  0  0
   38.8190   34.1490   40.0880 C   0  0  0  0  0  0  0  0  0  0  0  0
   37.6830   33.2960   40.0770 C   0  0  0  0  0  0  0  0  0  0  0  0
   37.8780   31.9720   39.7160 C   0  0  0  0  0  0  0  0  0  0  0  0
   39.1280   31.5640   39.3950 N   0  0  0  0  0  0  0  0  0  0  0  0
   40.1920   32.3980   39.4140 C   0  0  0  0  0  0  0  0  0  0  0  0
   40.0500   33.6930   39.7590 N   0  0  0  0  0  0  0  0  0  0  0  0
   38.6290   35.1760   40.3760 H   0  0  0  0  0  0  0  0  0  0  0  0
   36.7150   33.7010   40.3480 H   0  0  0  0  0  0  0  0  0  0  0  0
   41.1870   32.0580   39.1540 H   0  0  0  0  0  0  0  0  0  0  0  0
   36.3180   30.7190   41.1050 C   0  0  0  0  0  0  0  0  0  0  0  0
   36.7910   31.4650   41.7960 H   0  0  0  0  0  0  0  0  0  0  0  0
   35.2370   30.8270   41.2430 H   0  0  0  0  0  0  0  0  0  0  0  0
   36.8280   29.4410   41.4900 N   0  0  0  0  0  0  0  0  0  0  0  0
   37.5740   29.4160   42.6880 C   0  0  0  0  0  2  0  0  0  0  0  0
   37.3770   28.2570   43.6070 C   0  0  0  0  0  2  0  0  0  0  0  0
   36.9690   26.9750   42.9450 C   0  0  0  0  0  3  0  0  0  0  0  0
   35.9200   26.7360   43.2580 H   0  0  0  0  0  0  0  0  0  0  0  0
   36.9150   27.0820   41.4400 C   0  0  0  0  0  2  0  0  0  0  0  0
   36.0260   28.3110   41.1840 C   0  0  0  0  0  2  0  0  0  0  0  0
  1  6  1  0  0  0  0
  1 13  1  0  0  0  0
  2  1  1  0  0  0  0
  3  1  1  0  0  0  0
  4 10  1  0  0  0  0
  5  4  1  0  0  0  0
  5 11  1  0  0  0  0
  6  5  2  0  0  0  0
  7  8  2  0  0  0  0
  7  6  1  0  0  0  0
  8  9  1  0  0  0  0
  9  4  2  0  0  0  0
 12  8  1  0  0  0  0
 13 15  1  0  0  0  0
 13 16  1  0  0  0  0
 13 14  1  0  0  0  0
 16 17  1  0  0  0  0
 17 18  1  0  0  0  0
 19 20  1  0  0  0  0
 19 18  1  0  0  0  0
 21 19  1  0  0  0  0
 22 21  1  0  0  0  0
 22 16  1  0  0  0  0
M  END
>  <minimizedAffinity>
-4.34835196

$$$$

 OpenBabel03252508573D

 22 23  0  0  0  0  0  0  0  0999 V2000
   36.6770   27.8130   42.5110 C   0  0  0  0  0  0  0  0  0  0  0  0
   36.1330   27.5170   41.5870 H   0  0  0  0  0  0  0  0  0  0  0  0
   36.0230   27.8370   43.3970 H   0  0  0  0  0  0  0  0  0  0  0  0
   39.8020   26.0890   43.6790 C   0  0  0  0  0  0  0  0  0  0  0  0
   38.8190   27.0980   43.4960 C   0  0  0  0  0  0  0  0  0  0  0  0
   37.7160   26.7860   42.7170 C   0  0  0  0  0  0  0  0  0  0  0  0
   37.6330   25.5480   42.1760 N   0  0  0  0  0  0  0  0  0  0  0  0
   38.5840   24.6060   42.3670 C   0  0  0  0  0  0  0  0  0  0  0  0
   39.6730   24.8650   43.1170 N   0  0  0  0  0  0  0  0  0  0  0  0
   40.6490   26.3680   44.2940 H   0  0  0  0  0  0  0  0  0  0  0  0
   38.9600   28.0650   43.9640 H   0  0  0  0  0  0  0  0  0  0  0  0
   38.5040   23.6200   41.9270 H   0  0  0  0  0  0  0  0  0  0  0  0
   37.3230   29.1440   42.2470 C   0  0  0  0  0  0  0  0  0  0  0  0
   37.0110   29.8530   43.0600 H   0  0  0  0  0  0  0  0  0  0  0  0
   38.4130   29.0720   42.3160 H   0  0  0  0  0  0  0  0  0  0  0  0
   36.8540   29.7130   41.0240 N   0  0  0  0  0  0  0  0  0  0  0  0
   36.5720   31.0950   41.0590 C   0  0  0  0  0  2  0  0  0  0  0  0
   36.9590   31.9150   39.8740 C   0  0  0  0  0  2  0  0  0  0  0  0
   36.9810   31.1830   38.5660 C   0  0  0  0  0  3  0  0  0  0  0  0
   38.0440   31.1170   38.2170 H   0  0  0  0  0  0  0  0  0  0  0  0
   36.5190   29.7500   38.6870 C   0  0  0  0  0  2  0  0  0  0  0  0
   37.3810   29.1730   39.8220 C   0  0  0  0  0  2  0  0  0  0  0  0
  1  6  1  0  0  0  0
  1  3  1  0  0  0  0
  2  1  1  0  0  0  0
  4 10  1  0  0  0  0
  5  4  1  0  0  0  0
  5 11  1  0  0  0  0
  6  5  2  0  0  0  0
  7  8  2  0  0  0  0
  7  6  1  0  0  0  0
  8  9  1  0  0  0  0
  9  4  2  0  0  0  0
 12  8  1  0  0  0  0
 13 15  1  0  0  0  0
 13  1  1  0  0  0  0
 13 14  1  0  0  0  0
 16 17  1  0  0  0  0
 16 13  1  0  0  0  0
 18 17  1  0  0  0  0
 19 21  1  0  0  0  0
 19 18  1  0  0  0  0
 20 19  1  0  0  0  0
 21 22  1  0  0  0  0
 22 16  1  0  0  0  0
M  END
>  <minimizedAffinity>
-4.19256687

$$$$

 OpenBabel03252508573D

 22 23  0  0  0  0  0  0  0  0999 V2000
   37.6190   29.9870   39.7390 C   0  0  0  0  0  0  0  0  0  0  0  0
   36.7180   29.7860   40.3610 H   0  0  0  0  0  0  0  0  0  0  0  0
   37.4430   29.8010   38.6680 H   0  0  0  0  0  0  0  0  0  0  0  0
   37.3980   33.7330   39.5730 C   0  0  0  0  0  0  0  0  0  0  0  0
   37.0770   32.3640   39.3750 C   0  0  0  0  0  0  0  0  0  0  0  0
   37.9280   31.4180   39.9260 C   0  0  0  0  0  0  0  0  0  0  0  0
   39.0110   31.8440   40.6180 N   0  0  0  0  0  0  0  0  0  0  0  0
   39.2930   33.1550   40.7910 C   0  0  0  0  0  0  0  0  0  0  0  0
   38.4940   34.1080   40.2740 N   0  0  0  0  0  0  0  0  0  0  0  0
   36.7110   34.4430   39.1300 H   0  0  0  0  0  0  0  0  0  0  0  0
   36.1900   32.1050   38.8090 H   0  0  0  0  0  0  0  0  0  0  0  0
   40.1630   33.4820   41.3470 H   0  0  0  0  0  0  0  0  0  0  0  0
   38.7410   29.1490   40.2830 C   0  0  0  0  0  0  0  0  0  0  0  0
   39.1000   28.4690   39.4660 H   0  0  0  0  0  0  0  0  0  0  0  0
   39.6000   29.7710   40.5540 H   0  0  0  0  0  0  0  0  0  0  0  0
   38.2860   28.2980   41.3360 N   0  0  0  0  0  0  0  0  0  0  0  0
   38.5510   28.7500   42.6470 C   0  0  0  0  0  2  0  0  0  0  0  0
   37.4900   28.5560   43.6780 C   0  0  0  0  0  2  0  0  0  0  0  0
   36.5840   27.3830   43.4530 C   0  0  0  0  0  3  0  0  0  0  0  0
   35.5590   27.7700   43.2200 H   0  0  0  0  0  0  0  0  0  0  0  0
   36.9760   26.5590   42.2500 C   0  0  0  0  0  2  0  0  0  0  0  0
   37.0790   27.5870   41.1110 C   0  0  0  0  0  2  0  0  0  0  0  0
  1  6  1  0  0  0  0
  1 13  1  0  0  0  0
  1  2  1  0  0  0  0
  3  1  1  0  0  0  0
  4  9  1  0  0  0  0
  5  4  2  0  0  0  0
  5  6  1  0  0  0  0
  6  7  2  0  0  0  0
  7  8  1  0  0  0  0
  8 12  1  0  0  0  0
  9  8  2  0  0  0  0
 10  4  1  0  0  0  0
 11  5  1  0  0  0  0
 13 15  1  0  0  0  0
 13 16  1  0  0  0  0
 14 13  1  0  0  0  0
 16 17  1  0  0  0  0
 17 18  1  0  0  0  0
 19 18  1  0  0  0  0
 20 19  1  0  0  0  0
 21 19  1  0  0  0  0
 22 16  1  0  0  0  0
 22 21  1  0  0  0  0
M  END
>  <minimizedAffinity>
-4.13985252

$$$$

 OpenBabel03252508573D

 22 23  0  0  0  0  0  0  0  0999 V2000
   36.9470   27.8910   42.7050 C   0  0  0  0  0  0  0  0  0  0  0  0
   36.5880   27.9610   41.6540 H   0  0  0  0  0  0  0  0  0  0  0  0
   36.1220   27.7910   43.4280 H   0  0  0  0  0  0  0  0  0  0  0  0
   38.1400   24.3590   42.2470 C   0  0  0  0  0  0  0  0  0  0  0  0
   37.3150   25.5130   42.1730 C   0  0  0  0  0  0  0  0  0  0  0  0
   37.7810   26.6760   42.7680 C   0  0  0  0  0  0  0  0  0  0  0  0
   38.9870   26.6510   43.3820 N   0  0  0  0  0  0  0  0  0  0  0  0
   39.7520   25.5380   43.4380 C   0  0  0  0  0  0  0  0  0  0  0  0
   39.3390   24.3860   42.8740 N   0  0  0  0  0  0  0  0  0  0  0  0
   37.7440   23.4710   41.7710 H   0  0  0  0  0  0  0  0  0  0  0  0
   36.3610   25.4500   41.6620 H   0  0  0  0  0  0  0  0  0  0  0  0
   40.7150   25.5330   43.9330 H   0  0  0  0  0  0  0  0  0  0  0  0
   37.7940   29.1030   42.9750 C   0  0  0  0  0  0  0  0  0  0  0  0
   37.3540   29.6520   43.8490 H   0  0  0  0  0  0  0  0  0  0  0  0
   38.8050   28.8150   43.2800 H   0  0  0  0  0  0  0  0  0  0  0  0
   37.7570   30.0140   41.8750 N   0  0  0  0  0  0  0  0  0  0  0  0
   38.8830   29.9930   41.0240 C   0  0  0  0  0  2  0  0  0  0  0  0
   38.6480   30.1150   39.5550 C   0  0  0  0  0  2  0  0  0  0  0  0
   37.4200   30.8790   39.1630 C   0  0  0  0  0  3  0  0  0  0  0  0
   36.6950   30.1640   38.6940 H   0  0  0  0  0  0  0  0  0  0  0  0
   36.6860   31.4610   40.3470 C   0  0  0  0  0  2  0  0  0  0  0  0
   36.4880   30.2630   41.2900 C   0  0  0  0  0  2  0  0  0  0  0  0
  1  6  1  0  0  0  0
  1 13  1  0  0  0  0
  1  3  1  0  0  0  0
  2  1  1  0  0  0  0
  4  9  1  0  0  0  0
  5  4  2  0  0  0  0
  5  6  1  0  0  0  0
  6  7  2  0  0  0  0
  7  8  1  0  0  0  0
  8 12  1  0  0  0  0
  9  8  2  0  0  0  0
 10  4  1  0  0  0  0
 11  5  1  0  0  0  0
 13 15  1  0  0  0  0
 13 14  1  0  0  0  0
 16 13  1  0  0  0  0
 17 16  1  0  0  0  0
 18 17  1  0  0  0  0
 19 18  1  0  0  0  0
 19 21  1  0  0  0  0
 20 19  1  0  0  0  0
 21 22  1  0  0  0  0
 22 16  1  0  0  0  0
M  END
>  <minimizedAffinity>
-4.07555437

$$$$

 OpenBabel03252508573D

 22 23  0  0  0  0  0  0  0  0999 V2000
   39.4460   30.5720   42.5210 C   0  0  0  0  0  0  0  0  0  0  0  0
   38.6820   31.3750   42.6170 H   0  0  0  0  0  0  0  0  0  0  0  0
   40.2220   30.6310   43.3000 H   0  0  0  0  0  0  0  0  0  0  0  0
   36.7090   28.0000   42.4470 C   0  0  0  0  0  0  0  0  0  0  0  0
   37.3860   29.2390   42.2890 C   0  0  0  0  0  0  0  0  0  0  0  0
   38.7160   29.2990   42.6760 C   0  0  0  0  0  0  0  0  0  0  0  0
   39.2950   28.1840   43.1800 N   0  0  0  0  0  0  0  0  0  0  0  0
   38.6270   27.0180   43.3200 C   0  0  0  0  0  0  0  0  0  0  0  0
   37.3340   26.9130   42.9570 N   0  0  0  0  0  0  0  0  0  0  0  0
   35.6720   27.9910   42.1330 H   0  0  0  0  0  0  0  0  0  0  0  0
   36.8490   30.0860   41.8760 H   0  0  0  0  0  0  0  0  0  0  0  0
   39.1030   26.1330   43.7260 H   0  0  0  0  0  0  0  0  0  0  0  0
   40.0240   30.6610   41.1360 C   0  0  0  0  0  0  0  0  0  0  0  0
   41.0970   30.9760   41.2240 H   0  0  0  0  0  0  0  0  0  0  0  0
   40.0390   29.6780   40.6530 H   0  0  0  0  0  0  0  0  0  0  0  0
   39.3730   31.6750   40.3700 N   0  0  0  0  0  0  0  0  0  0  0  0
   38.5730   31.2160   39.3000 C   0  0  0  0  0  2  0  0  0  0  0  0
   37.2740   31.9080   39.0560 C   0  0  0  0  0  2  0  0  0  0  0  0
   37.2250   33.3470   39.4710 C   0  0  0  0  0  3  0  0  0  0  0  0
   36.5190   33.4410   40.3360 H   0  0  0  0  0  0  0  0  0  0  0  0
   38.5490   33.8550   39.9900 C   0  0  0  0  0  2  0  0  0  0  0  0
   38.9450   32.8330   41.0690 C   0  0  0  0  0  2  0  0  0  0  0  0
  1  2  1  0  0  0  0
  1  6  1  0  0  0  0
  1  3  1  0  0  0  0
  4  9  1  0  0  0  0
  5  4  2  0  0  0  0
  5  6  1  0  0  0  0
  6  7  2  0  0  0  0
  7  8  1  0  0  0  0
  8 12  1  0  0  0  0
  9  8  2  0  0  0  0
 10  4  1  0  0  0  0
 11  5  1  0  0  0  0
 13 14  1  0  0  0  0
 13  1  1  0  0  0  0
 15 13  1  0  0  0  0
 16 22  1  0  0  0  0
 16 13  1  0  0  0  0
 17 16  1  0  0  0  0
 18 17  1  0  0  0  0
 18 19  1  0  0  0  0
 19 21  1  0  0  0  0
 19 20  1  0  0  0  0
 21 22  1  0  0  0  0
M  END
>  <minimizedAffinity>
-4.01490307

$$$$

 OpenBabel03252508573D

 22 23  0  0  0  0  0  0  0  0999 V2000
   35.8430   28.5470   41.0620 C   0  0  0  0  0  0  0  0  0  0  0  0
   36.0100   28.7590   42.1420 H   0  0  0  0  0  0  0  0  0  0  0  0
   34.7830   28.3630   40.8270 H   0  0  0  0  0  0  0  0  0  0  0  0
   36.9370   32.0660   40.3360 C   0  0  0  0  0  0  0  0  0  0  0  0
   36.5100   30.9200   41.0580 C   0  0  0  0  0  0  0  0  0  0  0  0
   36.2850   29.7550   40.3400 C   0  0  0  0  0  0  0  0  0  0  0  0
   36.4830   29.7710   39.0010 N   0  0  0  0  0  0  0  0  0  0  0  0
   36.8900   30.8770   38.3390 C   0  0  0  0  0  0  0  0  0  0  0  0
   37.1210   32.0300   38.9960 N   0  0  0  0  0  0  0  0  0  0  0  0
   37.1030   32.9570   40.9300 H   0  0  0  0  0  0  0  0  0  0  0  0
   36.3740   30.9900   42.1310 H   0  0  0  0  0  0  0  0  0  0  0  0
   37.0440   30.8750   37.2670 H   0  0  0  0  0  0  0  0  0  0  0  0
   36.7170   27.3830   40.6900 C   0  0  0  0  0  0  0  0  0  0  0  0
   36.0570   26.5460   40.3410 H   0  0  0  0  0  0  0  0  0  0  0  0
   37.3600   27.6320   39.8390 H   0  0  0  0  0  0  0  0  0  0  0  0
   37.4250   26.8850   41.8260 N   0  0  0  0  0  0  0  0  0  0  0  0
   37.3730   25.4870   42.0150 C   0  0  0  0  0  2  0  0  0  0  0  0
   38.6180   24.7980   42.4640 C   0  0  0  0  0  2  0  0  0  0  0  0
   39.5560   25.6350   43.2810 C   0  0  0  0  0  3  0  0  0  0  0  0
   40.4860   25.8070   42.6810 H   0  0  0  0  0  0  0  0  0  0  0  0
   39.0130   27.0150   43.5680 C   0  0  0  0  0  2  0  0  0  0  0  0
   38.6210   27.5590   42.1840 C   0  0  0  0  0  2  0  0  0  0  0  0
  1  2  1  0  0  0  0
  3  1  1  0  0  0  0
  4 10  1  0  0  0  0
  4  5  1  0  0  0  0
  5 11  1  0  0  0  0
  6  5  2  0  0  0  0
  6  1  1  0  0  0  0
  7  6  1  0  0  0  0
  8  9  1  0  0  0  0
  8  7  2  0  0  0  0
  9  4  2  0  0  0  0
 12  8  1  0  0  0  0
 13  1  1  0  0  0  0
 13 16  1  0  0  0  0
 14 13  1  0  0  0  0
 15 13  1  0  0  0  0
 16 17  1  0  0  0  0
 16 22  1  0  0  0  0
 17 18  1  0  0  0  0
 18 19  1  0  0  0  0
 19 21  1  0  0  0  0
 20 19  1  0  0  0  0
 22 21  1  0  0  0  0
M  END
>  <minimizedAffinity>
-3.86325741

$$$$

 OpenBabel03252508573D

 22 23  0  0  0  0  0  0  0  0999 V2000
   37.6700   28.0400   43.3910 C   0  0  0  0  0  0  0  0  0  0  0  0
   36.6530   27.7390   43.0560 H   0  0  0  0  0  0  0  0  0  0  0  0
   37.6970   28.3250   44.4550 H   0  0  0  0  0  0  0  0  0  0  0  0
   40.6300   25.7290   43.4800 C   0  0  0  0  0  0  0  0  0  0  0  0
   39.8280   26.8840   43.6790 C   0  0  0  0  0  0  0  0  0  0  0  0
   38.5280   26.8550   43.1970 C   0  0  0  0  0  0  0  0  0  0  0  0
   38.0940   25.7380   42.5690 N   0  0  0  0  0  0  0  0  0  0  0  0
   38.8790   24.6510   42.3930 C   0  0  0  0  0  0  0  0  0  0  0  0
   40.1490   24.6350   42.8440 N   0  0  0  0  0  0  0  0  0  0  0  0
   41.6390   25.7880   43.8700 H   0  0  0  0  0  0  0  0  0  0  0  0
   40.2510   27.7400   44.1930 H   0  0  0  0  0  0  0  0  0  0  0  0
   38.5190   23.7640   41.8880 H   0  0  0  0  0  0  0  0  0  0  0  0
   38.1320   29.1540   42.4940 C   0  0  0  0  0  0  0  0  0  0  0  0
   37.9970   30.1240   43.0420 H   0  0  0  0  0  0  0  0  0  0  0  0
   39.2040   29.0730   42.2880 H   0  0  0  0  0  0  0  0  0  0  0  0
   37.3200   29.2430   41.3230 N   0  0  0  0  0  0  0  0  0  0  0  0
   38.0040   29.1320   40.0930 C   0  0  0  0  0  2  0  0  0  0  0  0
   37.3540   28.3470   39.0030 C   0  0  0  0  0  2  0  0  0  0  0  0
   35.8560   28.3190   39.0380 C   0  0  0  0  0  3  0  0  0  0  0  0
   35.5290   27.2740   39.2780 H   0  0  0  0  0  0  0  0  0  0  0  0
   35.2770   29.1730   40.1400 C   0  0  0  0  0  2  0  0  0  0  0  0
   36.0110   28.7000   41.4050 C   0  0  0  0  0  2  0  0  0  0  0  0
  1  3  1  0  0  0  0
  2  1  1  0  0  0  0
  4  5  1  0  0  0  0
  4 10  1  0  0  0  0
  5 11  1  0  0  0  0
  6  1  1  0  0  0  0
  6  5  2  0  0  0  0
  7  6  1  0  0  0  0
  8  7  2  0  0  0  0
  8  9  1  0  0  0  0
  9  4  2  0  0  0  0
 12  8  1  0  0  0  0
 13 14  1  0  0  0  0
 13  1  1  0  0  0  0
 15 13  1  0  0  0  0
 16 22  1  0  0  0  0
 16 13  1  0  0  0  0
 17 16  1  0  0  0  0
 18 19  1  0  0  0  0
 18 17  1  0  0  0  0
 19 20  1  0  0  0  0
 19 21  1  0  0  0  0
 21 22  1  0  0  0  0
M  END
>  <minimizedAffinity>
-3.77678537

$$$$

 OpenBabel03252508573D

 22 23  0  0  0  0  0  0  0  0999 V2000
   39.2340   28.6490   41.8330 C   0  0  0  0  0  0  0  0  0  0  0  0
   39.3800   27.8050   41.1230 H   0  0  0  0  0  0  0  0  0  0  0  0
   40.1770   29.1640   42.0770 H   0  0  0  0  0  0  0  0  0  0  0  0
   36.2680   30.8130   41.0430 C   0  0  0  0  0  0  0  0  0  0  0  0
   37.1080   29.8900   41.7200 C   0  0  0  0  0  0  0  0  0  0  0  0
   38.3390   29.6020   41.1500 C   0  0  0  0  0  0  0  0  0  0  0  0
   38.6720   30.2090   39.9870 N   0  0  0  0  0  0  0  0  0  0  0  0
   37.8520   31.0840   39.3630 C   0  0  0  0  0  0  0  0  0  0  0  0
   36.6480   31.3940   39.8810 N   0  0  0  0  0  0  0  0  0  0  0  0
   35.3160   31.0140   41.5180 H   0  0  0  0  0  0  0  0  0  0  0  0
   36.7670   29.4470   42.6490 H   0  0  0  0  0  0  0  0  0  0  0  0
   38.1320   31.5630   38.4320 H   0  0  0  0  0  0  0  0  0  0  0  0
   38.5550   28.1000   43.0550 C   0  0  0  0  0  0  0  0  0  0  0  0
   39.2120   28.3020   43.9430 H   0  0  0  0  0  0  0  0  0  0  0  0
   37.6150   28.6260   43.2520 H   0  0  0  0  0  0  0  0  0  0  0  0
   38.4200   26.6800   42.9760 N   0  0  0  0  0  0  0  0  0  0  0  0
   37.1650   26.2080   42.5330 C   0  0  0  0  0  2  0  0  0  0  0  0
   37.1490   25.0390   41.6050 C   0  0  0  0  0  2  0  0  0  0  0  0
   38.3050   24.0950   41.7430 C   0  0  0  0  0  3  0  0  0  0  0  0
   38.9280   24.1640   40.8140 H   0  0  0  0  0  0  0  0  0  0  0  0
   39.2390   24.4680   42.8700 C   0  0  0  0  0  2  0  0  0  0  0  0
   39.5750   25.9440   42.6040 C   0  0  0  0  0  2  0  0  0  0  0  0
  1  3  1  0  0  0  0
  1 13  1  0  0  0  0
  2  1  1  0  0  0  0
  4 10  1  0  0  0  0
  4  5  1  0  0  0  0
  5 11  1  0  0  0  0
  6  5  2  0  0  0  0
  6  1  1  0  0  0  0
  7  6  1  0  0  0  0
  8  9  1  0  0  0  0
  8  7  2  0  0  0  0
  9  4  2  0  0  0  0
 12  8  1  0  0  0  0
 13 15  1  0  0  0  0
 13 14  1  0  0  0  0
 16 13  1  0  0  0  0
 17 16  1  0  0  0  0
 18 19  1  0  0  0  0
 18 17  1  0  0  0  0
 19 21  1  0  0  0  0
 20 19  1  0  0  0  0
 22 21  1  0  0  0  0
 22 16  1  0  0  0  0
M  END
>  <minimizedAffinity>
-3.75206876

$$$$

 OpenBabel03252508573D

 22 23  0  0  0  0  0  0  0  0999 V2000
   36.7880   25.3730   42.3830 C   0  0  0  0  0  0  0  0  0  0  0  0
   36.2520   25.1350   43.3290 H   0  0  0  0  0  0  0  0  0  0  0  0
   36.1040   25.4900   41.5280 H   0  0  0  0  0  0  0  0  0  0  0  0
   37.4230   29.0520   42.7890 C   0  0  0  0  0  0  0  0  0  0  0  0
   36.7370   27.8310   42.5550 C   0  0  0  0  0  0  0  0  0  0  0  0
   37.4740   26.6580   42.6190 C   0  0  0  0  0  0  0  0  0  0  0  0
   38.7960   26.7370   42.8970 N   0  0  0  0  0  0  0  0  0  0  0  0
   39.4240   27.9140   43.1150 C   0  0  0  0  0  0  0  0  0  0  0  0
   38.7480   29.0780   43.0640 N   0  0  0  0  0  0  0  0  0  0  0  0
   36.8160   29.9470   42.7320 H   0  0  0  0  0  0  0  0  0  0  0  0
   35.6750   27.8530   42.3390 H   0  0  0  0  0  0  0  0  0  0  0  0
   40.4830   27.9620   43.3360 H   0  0  0  0  0  0  0  0  0  0  0  0
   37.8030   24.2890   42.1540 C   0  0  0  0  0  0  0  0  0  0  0  0
   38.7670   24.7710   41.8410 H   0  0  0  0  0  0  0  0  0  0  0  0
   38.0240   23.7550   43.0840 H   0  0  0  0  0  0  0  0  0  0  0  0
   37.4150   23.4390   41.0740 N   0  0  0  0  0  0  0  0  0  0  0  0
   36.2090   23.7820   40.4260 C   0  0  0  0  0  2  0  0  0  0  0  0
   36.1550   23.6540   38.9410 C   0  0  0  0  0  2  0  0  0  0  0  0
   37.0550   22.6100   38.3530 C   0  0  0  0  0  3  0  0  0  0  0  0
   37.8530   23.1260   37.7610 H   0  0  0  0  0  0  0  0  0  0  0  0
   37.7960   21.8160   39.4020 C   0  0  0  0  0  2  0  0  0  0  0  0
   38.4580   22.8870   40.2840 C   0  0  0  0  0  2  0  0  0  0  0  0
  1  6  1  0  0  0  0
  1  2  1  0  0  0  0
  3  1  1  0  0  0  0
  4  9  1  0  0  0  0
  5  6  1  0  0  0  0
  5  4  2  0  0  0  0
  6  7  2  0  0  0  0
  7  8  1  0  0  0  0
  8 12  1  0  0  0  0
  9  8  2  0  0  0  0
 10  4  1  0  0  0  0
 11  5  1  0  0  0  0
 13  1  1  0  0  0  0
 13 15  1  0  0  0  0
 14 13  1  0  0  0  0
 16 13  1  0  0  0  0
 17 16  1  0  0  0  0
 18 17  1  0  0  0  0
 19 18  1  0  0  0  0
 19 21  1  0  0  0  0
 20 19  1  0  0  0  0
 21 22  1  0  0  0  0
 22 16  1  0  0  0  0
M  END
>  <minimizedAffinity>
-3.66057491

$$$$
