
 OpenBabel03252509283D

 19 20  0  0  0  0  0  0  0  0999 V2000
   46.9890   34.9820   41.8860 C   0  0  0  0  0  0  0  0  0  0  0  0
   48.0640   34.7020   42.0820 H   0  0  0  0  0  0  0  0  0  0  0  0
   47.0250   35.9850   41.4430 H   0  0  0  0  0  0  0  0  0  0  0  0
   44.5760   36.0160   44.5170 C   0  0  0  0  0  0  0  0  0  0  0  0
   45.3230   36.0220   43.3180 C   0  0  0  0  0  0  0  0  0  0  0  0
   46.2200   34.9700   43.1290 C   0  0  0  0  0  0  0  0  0  0  0  0
   46.3300   34.0160   44.0880 N   0  0  0  0  0  0  0  0  0  0  0  0
   45.5920   34.0530   45.2220 C   0  0  0  0  0  0  0  0  0  0  0  0
   44.7260   35.0510   45.4230 N   0  0  0  0  0  0  0  0  0  0  0  0
   43.8740   36.8400   44.6640 H   0  0  0  0  0  0  0  0  0  0  0  0
   45.2150   36.7900   42.5780 H   0  0  0  0  0  0  0  0  0  0  0  0
   45.6450   33.3250   46.0020 H   0  0  0  0  0  0  0  0  0  0  0  0
   46.4160   34.0980   40.9040 N   0  0  0  0  0  0  0  0  0  0  0  0
   45.0320   33.8080   41.0700 C   0  0  0  0  0  2  0  0  0  0  0  0
   44.4850   33.5180   39.6750 C   0  0  0  0  0  2  0  0  0  0  0  0
   45.2760   32.3680   39.1310 C   0  0  0  0  0  3  0  0  0  0  0  0
   45.8120   32.6140   38.1690 H   0  0  0  0  0  0  0  0  0  0  0  0
   46.3080   31.8210   40.0820 C   0  0  0  0  0  2  0  0  0  0  0  0
   47.1480   32.8790   40.7350 C   0  0  0  0  0  2  0  0  0  0  0  0
  1  2  1  0  0  0  0
  1  6  1  0  0  0  0
  3  1  1  0  0  0  0
  4 10  1  0  0  0  0
  4  9  1  0  0  0  0
  5  4  2  0  0  0  0
  6  5  1  0  0  0  0
  6  7  2  0  0  0  0
  7  8  1  0  0  0  0
  8  9  2  0  0  0  0
  8 12  1  0  0  0  0
 11  5  1  0  0  0  0
 13 14  1  0  0  0  0
 13  1  1  0  0  0  0
 15 14  1  0  0  0  0
 16 15  1  0  0  0  0
 16 18  1  0  0  0  0
 17 16  1  0  0  0  0
 18 19  1  0  0  0  0
 19 13  1  0  0  0  0
M  END
>  <minimizedAffinity>
-3.56187987

>  <minimizedRMSD>
1.04807079

$$$$
