
 OpenBabel03252504553D

 29 31  0  0  1  0  0  0  0  0999 V2000
   47.2940   34.2590   41.6310 N   0  0  0  0  0  0  0  0  0  0  0  0
   47.6620   34.3290   40.2530 C   0  0  0  0  0  0  0  0  0  0  0  0
   48.8080   35.3000   40.2880 C   0  0  0  0  0  0  0  0  0  0  0  0
   49.0820   35.6860   41.7180 C   0  0  0  0  0  0  0  0  0  0  0  0
   48.3360   34.5750   42.4910 C   0  0  2  0  0  0  0  0  0  0  0  0
   47.3620   33.9140   39.3260 H   0  0  0  0  0  0  0  0  0  0  0  0
   49.3860   35.6420   39.4180 H   0  0  0  0  0  0  0  0  0  0  0  0
   50.1690   35.6310   41.8650 H   0  0  0  0  0  0  0  0  0  0  0  0
   48.7270   36.6850   41.9640 H   0  0  0  0  0  0  0  0  0  0  0  0
   48.0820   35.0570   43.4570 H   0  0  0  0  0  0  0  0  0  0  0  0
   49.1410   33.4450   42.7810 N   0  0  0  0  0  0  0  0  0  0  0  0
   48.5350   32.1810   42.8860 C   0  0  0  0  0  0  0  0  0  0  0  0
   49.5960   31.0740   42.8220 C   0  0  0  0  0  0  0  0  0  0  0  0
   50.4030   31.1990   41.5450 C   0  0  0  0  0  0  0  0  0  0  0  0
   51.1380   30.3760   41.5470 H   0  0  0  0  0  0  0  0  0  0  0  0
   50.9970   32.5640   41.4040 C   0  0  0  0  0  0  0  0  0  0  0  0
   50.5150   33.5150   42.4460 C   0  0  0  0  0  0  0  0  0  0  0  0
   46.0030   34.0050   41.9750 C   0  0  0  0  0  0  0  0  0  0  0  0
   45.2010   34.2060   41.2150 H   0  0  0  0  0  0  0  0  0  0  0  0
   45.8820   32.8780   42.1060 H   0  0  0  0  0  0  0  0  0  0  0  0
   44.4970   36.1750   44.6670 C   0  0  0  0  0  0  0  0  0  0  0  0
   44.9540   35.7940   43.3730 C   0  0  0  0  0  0  0  0  0  0  0  0
   45.5380   34.5510   43.2410 C   0  0  0  0  0  0  0  0  0  0  0  0
   45.6510   33.7650   44.3340 N   0  0  0  0  0  0  0  0  0  0  0  0
   45.2060   34.1440   45.5810 C   0  0  0  0  0  0  0  0  0  0  0  0
   44.6340   35.3440   45.7310 N   0  0  0  0  0  0  0  0  0  0  0  0
   44.0450   37.1520   44.7300 H   0  0  0  0  0  0  0  0  0  0  0  0
   44.8570   36.4340   42.5250 H   0  0  0  0  0  0  0  0  0  0  0  0
   45.3590   33.4160   46.3670 H   0  0  0  0  0  0  0  0  0  0  0  0
  1 18  1  0  0  0  0
  1  5  1  0  0  0  0
  2  3  2  0  0  0  0
  2  1  1  0  0  0  0
  3  4  1  0  0  0  0
  4  8  1  0  0  0  0
  4  9  1  0  0  0  0
  4  5  1  0  0  0  0
  5 11  1  0  0  0  0
  5 10  1  1  0  0  0
  6  2  1  0  0  0  0
  7  3  1  0  0  0  0
 11 12  1  0  0  0  0
 13 12  1  0  0  0  0
 14 15  1  0  0  0  0
 14 13  1  0  0  0  0
 16 14  1  0  0  0  0
 16 17  1  0  0  0  0
 17 11  1  0  0  0  0
 18 20  1  0  0  0  0
 18 23  1  0  0  0  0
 19 18  1  0  0  0  0
 21 27  1  0  0  0  0
 21 26  1  0  0  0  0
 22 21  2  0  0  0  0
 23 22  1  0  0  0  0
 23 24  2  0  0  0  0
 24 25  1  0  0  0  0
 25 26  2  0  0  0  0
 25 29  1  0  0  0  0
 28 22  1  0  0  0  0
M  END
>  <minimizedAffinity>
-5.14866257

>  <minimizedRMSD>
1.50513279

$$$$
