
 OpenBabel03252504203D

 17 18  0  0  0  0  0  0  0  0999 V2000
   47.1880   33.3780   43.5400 C   0  0  0  0  0  0  0  0  0  0  0  0
   47.4140   32.1540   42.9130 C   0  0  0  0  0  0  0  0  0  0  0  0
   47.3470   30.9900   43.7180 C   0  0  0  0  0  0  0  0  0  0  0  0
   47.0690   31.1340   45.0330 N   0  0  0  0  0  0  0  0  0  0  0  0
   46.8570   32.3450   45.5940 C   0  0  0  0  0  0  0  0  0  0  0  0
   46.9130   33.4710   44.8650 N   0  0  0  0  0  0  0  0  0  0  0  0
   47.6340   32.0630   41.8590 H   0  0  0  0  0  0  0  0  0  0  0  0
   47.5070   30.0110   43.3120 H   0  0  0  0  0  0  0  0  0  0  0  0
   46.5680   32.4450   46.9860 N   0  0  0  0  0  0  0  0  0  0  0  0
   47.5680   32.2820   48.0250 C   0  0  0  0  0  0  0  0  0  0  0  0
   47.1520   31.2190   49.0190 C   0  0  0  0  0  0  0  0  0  0  0  0
   45.7430   31.4420   49.4910 C   0  0  0  0  0  0  0  0  0  0  0  0
   45.6660   32.4330   49.9750 H   0  0  0  0  0  0  0  0  0  0  0  0
   44.8410   31.4830   48.2730 C   0  0  0  0  0  0  0  0  0  0  0  0
   45.2210   32.7220   47.4520 C   0  0  0  0  0  0  0  0  0  0  0  0
   47.2950   34.8010   42.4400 S   0  0  0  0  0  0  0  0  0  0  0  0
   46.5940   35.8320   43.1120 H   0  0  0  0  0  0  0  0  0  0  0  0
  1  6  1  0  0  0  0
  2  1  2  0  0  0  0
  2  3  1  0  0  0  0
  3  4  2  0  0  0  0
  4  5  1  0  0  0  0
  5  9  1  0  0  0  0
  6  5  2  0  0  0  0
  7  2  1  0  0  0  0
  8  3  1  0  0  0  0
  9 15  1  0  0  0  0
  9 10  1  0  0  0  0
 10 11  1  0  0  0  0
 11 12  1  0  0  0  0
 12 13  1  0  0  0  0
 14 12  1  0  0  0  0
 15 14  1  0  0  0  0
 16 17  1  0  0  0  0
 16  1  1  0  0  0  0
M  END
>  <minimizedAffinity>
-4.02242708

>  <minimizedRMSD>
2.01622653

$$$$
