
 OpenBabel03252509303D

 19 20  0  0  0  0  0  0  0  0999 V2000
   37.6470   29.6940   40.0080 C   0  0  0  0  0  0  0  0  0  0  0  0
   38.3720   29.1990   39.2990 H   0  0  0  0  0  0  0  0  0  0  0  0
   36.6530   29.5100   39.5830 H   0  0  0  0  0  0  0  0  0  0  0  0
   37.3180   33.3690   39.5550 C   0  0  0  0  0  0  0  0  0  0  0  0
   37.0520   31.9850   39.4540 C   0  0  0  0  0  0  0  0  0  0  0  0
   37.9290   31.1240   40.1150 C   0  0  0  0  0  0  0  0  0  0  0  0
   38.9740   31.6490   40.8050 N   0  0  0  0  0  0  0  0  0  0  0  0
   39.1880   32.9830   40.8730 C   0  0  0  0  0  0  0  0  0  0  0  0
   38.3600   33.8260   40.2480 N   0  0  0  0  0  0  0  0  0  0  0  0
   36.6310   34.0420   39.0370 H   0  0  0  0  0  0  0  0  0  0  0  0
   36.2180   31.6000   38.9020 H   0  0  0  0  0  0  0  0  0  0  0  0
   39.9960   33.4390   41.4030 H   0  0  0  0  0  0  0  0  0  0  0  0
   37.6910   29.0500   41.2950 N   0  0  0  0  0  0  0  0  0  0  0  0
   38.7040   28.0620   41.4560 C   0  0  0  0  0  2  0  0  0  0  0  0
   39.0540   28.0450   42.9400 C   0  0  0  0  0  2  0  0  0  0  0  0
   37.7900   27.7300   43.6800 C   0  0  0  0  0  3  0  0  0  0  0  0
   37.4950   28.5320   44.4170 H   0  0  0  0  0  0  0  0  0  0  0  0
   36.5970   27.4910   42.7910 C   0  0  0  0  0  2  0  0  0  0  0  0
   36.4300   28.5210   41.7140 C   0  0  0  0  0  2  0  0  0  0  0  0
  1  6  1  0  0  0  0
  1 13  1  0  0  0  0
  2  1  1  0  0  0  0
  3  1  1  0  0  0  0
  4  9  1  0  0  0  0
  5  4  2  0  0  0  0
  5  6  1  0  0  0  0
  6  7  2  0  0  0  0
  7  8  1  0  0  0  0
  8 12  1  0  0  0  0
  9  8  2  0  0  0  0
 10  4  1  0  0  0  0
 11  5  1  0  0  0  0
 13 14  1  0  0  0  0
 13 19  1  0  0  0  0
 14 15  1  0  0  0  0
 15 16  1  0  0  0  0
 16 17  1  0  0  0  0
 18 16  1  0  0  0  0
 19 18  1  0  0  0  0
M  END
>  <minimizedAffinity>
-4.0046339

$$$$

 OpenBabel03252509303D

 19 20  0  0  0  0  0  0  0  0999 V2000
   39.1350   29.5210   40.6710 C   0  0  0  0  0  0  0  0  0  0  0  0
   40.1660   29.5290   41.1290 H   0  0  0  0  0  0  0  0  0  0  0  0
   39.2370   28.9630   39.7320 H   0  0  0  0  0  0  0  0  0  0  0  0
   37.0630   32.3430   39.4210 C   0  0  0  0  0  0  0  0  0  0  0  0
   37.5210   31.0270   39.6510 C   0  0  0  0  0  0  0  0  0  0  0  0
   38.6660   30.8850   40.4360 C   0  0  0  0  0  0  0  0  0  0  0  0
   39.2710   31.9970   40.9270 N   0  0  0  0  0  0  0  0  0  0  0  0
   38.7940   33.2390   40.6790 C   0  0  0  0  0  0  0  0  0  0  0  0
   37.6980   33.3970   39.9300 N   0  0  0  0  0  0  0  0  0  0  0  0
   36.1660   32.4530   38.8060 H   0  0  0  0  0  0  0  0  0  0  0  0
   37.0230   30.1670   39.2500 H   0  0  0  0  0  0  0  0  0  0  0  0
   39.2370   34.1410   41.0440 H   0  0  0  0  0  0  0  0  0  0  0  0
   38.2220   28.7880   41.5110 N   0  0  0  0  0  0  0  0  0  0  0  0
   38.6130   28.6530   42.8740 C   0  0  0  0  0  2  0  0  0  0  0  0
   37.3230   28.5370   43.6790 C   0  0  0  0  0  2  0  0  0  0  0  0
   36.5860   27.3460   43.1480 C   0  0  0  0  0  3  0  0  0  0  0  0
   35.5590   27.5990   42.7530 H   0  0  0  0  0  0  0  0  0  0  0  0
   37.3090   26.6110   42.0500 C   0  0  0  0  0  2  0  0  0  0  0  0
   37.8610   27.5080   40.9830 C   0  0  0  0  0  2  0  0  0  0  0  0
  1  2  1  0  0  0  0
  1 13  1  0  0  0  0
  3  1  1  0  0  0  0
  4  5  2  0  0  0  0
  4  9  1  0  0  0  0
  5  6  1  0  0  0  0
  6  1  1  0  0  0  0
  6  7  2  0  0  0  0
  8  7  1  0  0  0  0
  8 12  1  0  0  0  0
  9  8  2  0  0  0  0
 10  4  1  0  0  0  0
 11  5  1  0  0  0  0
 13 14  1  0  0  0  0
 14 15  1  0  0  0  0
 16 15  1  0  0  0  0
 17 16  1  0  0  0  0
 18 16  1  0  0  0  0
 19 13  1  0  0  0  0
 19 18  1  0  0  0  0
M  END
>  <minimizedAffinity>
-3.95576572

$$$$

 OpenBabel03252509303D

 19 20  0  0  0  0  0  0  0  0999 V2000
   39.2490   29.6060   40.8100 C   0  0  0  0  0  0  0  0  0  0  0  0
   40.2170   29.7260   41.3770 H   0  0  0  0  0  0  0  0  0  0  0  0
   39.5070   29.0380   39.9080 H   0  0  0  0  0  0  0  0  0  0  0  0
   38.8130   33.2950   40.6600 C   0  0  0  0  0  0  0  0  0  0  0  0
   39.3550   32.0290   40.9770 C   0  0  0  0  0  0  0  0  0  0  0  0
   38.6820   30.9120   40.4800 C   0  0  0  0  0  0  0  0  0  0  0  0
   37.5620   31.0950   39.7350 N   0  0  0  0  0  0  0  0  0  0  0  0
   37.0800   32.3290   39.4570 C   0  0  0  0  0  0  0  0  0  0  0  0
   37.7100   33.4120   39.9230 N   0  0  0  0  0  0  0  0  0  0  0  0
   39.3410   34.1690   41.0490 H   0  0  0  0  0  0  0  0  0  0  0  0
   40.2420   31.9160   41.5680 H   0  0  0  0  0  0  0  0  0  0  0  0
   36.2040   32.5190   38.8760 H   0  0  0  0  0  0  0  0  0  0  0  0
   38.3220   28.8080   41.5710 N   0  0  0  0  0  0  0  0  0  0  0  0
   38.6520   28.6200   42.9430 C   0  0  0  0  0  2  0  0  0  0  0  0
   37.3310   28.4280   43.6790 C   0  0  0  0  0  2  0  0  0  0  0  0
   36.6570   27.2420   43.0590 C   0  0  0  0  0  3  0  0  0  0  0  0
   35.6430   27.4830   42.6280 H   0  0  0  0  0  0  0  0  0  0  0  0
   37.4540   26.5810   41.9650 C   0  0  0  0  0  2  0  0  0  0  0  0
   38.0260   27.5440   40.9680 C   0  0  0  0  0  2  0  0  0  0  0  0
  1  2  1  0  0  0  0
  1 13  1  0  0  0  0
  3  1  1  0  0  0  0
  4  5  1  0  0  0  0
  4 10  1  0  0  0  0
  5 11  1  0  0  0  0
  6  1  1  0  0  0  0
  6  5  2  0  0  0  0
  7  6  1  0  0  0  0
  8  7  2  0  0  0  0
  8  9  1  0  0  0  0
  9  4  2  0  0  0  0
 12  8  1  0  0  0  0
 13 14  1  0  0  0  0
 14 15  1  0  0  0  0
 16 15  1  0  0  0  0
 17 16  1  0  0  0  0
 18 16  1  0  0  0  0
 19 13  1  0  0  0  0
 19 18  1  0  0  0  0
M  END
>  <minimizedAffinity>
-3.90071821

$$$$

 OpenBabel03252509303D

 19 20  0  0  0  0  0  0  0  0999 V2000
   37.3580   28.2450   43.6800 C   0  0  0  0  0  0  0  0  0  0  0  0
   37.8640   28.7220   44.5680 H   0  0  0  0  0  0  0  0  0  0  0  0
   36.3460   27.9930   44.0200 H   0  0  0  0  0  0  0  0  0  0  0  0
   40.1360   25.8130   43.2460 C   0  0  0  0  0  0  0  0  0  0  0  0
   39.4220   26.9600   43.6590 C   0  0  0  0  0  0  0  0  0  0  0  0
   38.0910   27.0560   43.2490 C   0  0  0  0  0  0  0  0  0  0  0  0
   37.5630   26.0650   42.4880 N   0  0  0  0  0  0  0  0  0  0  0  0
   38.2870   24.9840   42.1170 C   0  0  0  0  0  0  0  0  0  0  0  0
   39.5630   24.8710   42.5000 N   0  0  0  0  0  0  0  0  0  0  0  0
   41.1770   25.7390   43.5690 H   0  0  0  0  0  0  0  0  0  0  0  0
   39.8660   27.7280   44.2610 H   0  0  0  0  0  0  0  0  0  0  0  0
   37.9130   24.1810   41.5190 H   0  0  0  0  0  0  0  0  0  0  0  0
   37.2270   29.1990   42.6090 N   0  0  0  0  0  0  0  0  0  0  0  0
   36.5910   28.7180   41.4290 C   0  0  0  0  0  2  0  0  0  0  0  0
   35.9270   29.9270   40.7770 C   0  0  0  0  0  2  0  0  0  0  0  0
   37.0120   30.9240   40.5070 C   0  0  0  0  0  3  0  0  0  0  0  0
   36.8420   31.9150   41.0190 H   0  0  0  0  0  0  0  0  0  0  0  0
   38.3900   30.4590   40.8980 C   0  0  0  0  0  2  0  0  0  0  0  0
   38.4570   29.8460   42.2650 C   0  0  0  0  0  2  0  0  0  0  0  0
  1  3  1  0  0  0  0
  1  2  1  0  0  0  0
  4 10  1  0  0  0  0
  4  5  1  0  0  0  0
  5 11  1  0  0  0  0
  6  5  2  0  0  0  0
  6  1  1  0  0  0  0
  7  6  1  0  0  0  0
  8  7  2  0  0  0  0
  8  9  1  0  0  0  0
  9  4  2  0  0  0  0
 12  8  1  0  0  0  0
 13  1  1  0  0  0  0
 14 13  1  0  0  0  0
 15 14  1  0  0  0  0
 16 15  1  0  0  0  0
 16 18  1  0  0  0  0
 16 17  1  0  0  0  0
 18 19  1  0  0  0  0
 19 13  1  0  0  0  0
M  END
>  <minimizedAffinity>
-3.84092188

$$$$

 OpenBabel03252509303D

 19 20  0  0  0  0  0  0  0  0999 V2000
   39.3160   30.0580   40.9380 C   0  0  0  0  0  0  0  0  0  0  0  0
   39.7770   29.5190   40.0610 H   0  0  0  0  0  0  0  0  0  0  0  0
   40.1630   30.4060   41.5440 H   0  0  0  0  0  0  0  0  0  0  0  0
   36.9960   27.2560   41.7040 C   0  0  0  0  0  0  0  0  0  0  0  0
   37.8370   28.1290   40.9780 C   0  0  0  0  0  0  0  0  0  0  0  0
   38.4480   29.1590   41.6950 C   0  0  0  0  0  0  0  0  0  0  0  0
   38.2060   29.2690   43.0270 N   0  0  0  0  0  0  0  0  0  0  0  0
   37.3920   28.4070   43.6800 C   0  0  0  0  0  0  0  0  0  0  0  0
   36.7980   27.4130   43.0120 N   0  0  0  0  0  0  0  0  0  0  0  0
   36.5190   26.4500   41.1420 H   0  0  0  0  0  0  0  0  0  0  0  0
   38.0090   28.0180   39.9260 H   0  0  0  0  0  0  0  0  0  0  0  0
   37.1740   28.4560   44.7240 H   0  0  0  0  0  0  0  0  0  0  0  0
   38.6020   31.2240   40.4880 N   0  0  0  0  0  0  0  0  0  0  0  0
   38.5020   31.3780   39.0750 C   0  0  0  0  0  2  0  0  0  0  0  0
   37.2110   32.1500   38.8190 C   0  0  0  0  0  2  0  0  0  0  0  0
   37.3310   33.4500   39.5540 C   0  0  0  0  0  3  0  0  0  0  0  0
   36.5150   33.6050   40.3180 H   0  0  0  0  0  0  0  0  0  0  0  0
   38.6430   33.6370   40.2700 C   0  0  0  0  0  2  0  0  0  0  0  0
   39.0680   32.4440   41.0740 C   0  0  0  0  0  2  0  0  0  0  0  0
  1  3  1  0  0  0  0
  1  6  1  0  0  0  0
  2  1  1  0  0  0  0
  4  9  1  0  0  0  0
  5  6  1  0  0  0  0
  5  4  2  0  0  0  0
  6  7  2  0  0  0  0
  7  8  1  0  0  0  0
  8 12  1  0  0  0  0
  9  8  2  0  0  0  0
 10  4  1  0  0  0  0
 11  5  1  0  0  0  0
 13  1  1  0  0  0  0
 13 19  1  0  0  0  0
 14 13  1  0  0  0  0
 15 14  1  0  0  0  0
 15 16  1  0  0  0  0
 16 18  1  0  0  0  0
 16 17  1  0  0  0  0
 18 19  1  0  0  0  0
M  END
>  <minimizedAffinity>
-3.83297539

$$$$

 OpenBabel03252509303D

 19 20  0  0  0  0  0  0  0  0999 V2000
   36.3180   30.5190   41.0130 C   0  0  0  0  0  0  0  0  0  0  0  0
   36.0990   31.4200   41.6550 H   0  0  0  0  0  0  0  0  0  0  0  0
   35.3460   30.1970   40.6200 H   0  0  0  0  0  0  0  0  0  0  0  0
   36.9390   27.1960   42.5590 C   0  0  0  0  0  0  0  0  0  0  0  0
   36.3310   28.2170   41.7960 C   0  0  0  0  0  0  0  0  0  0  0  0
   36.9530   29.4670   41.8050 C   0  0  0  0  0  0  0  0  0  0  0  0
   38.0850   29.6340   42.5340 N   0  0  0  0  0  0  0  0  0  0  0  0
   38.6320   28.6240   43.2500 C   0  0  0  0  0  0  0  0  0  0  0  0
   38.0530   27.4190   43.2550 N   0  0  0  0  0  0  0  0  0  0  0  0
   36.4520   26.2180   42.5510 H   0  0  0  0  0  0  0  0  0  0  0  0
   35.4350   28.0550   41.2290 H   0  0  0  0  0  0  0  0  0  0  0  0
   39.5200   28.7110   43.8370 H   0  0  0  0  0  0  0  0  0  0  0  0
   37.1350   30.8950   39.8880 N   0  0  0  0  0  0  0  0  0  0  0  0
   37.2890   32.2950   39.6790 C   0  0  0  0  0  2  0  0  0  0  0  0
   38.6420   32.4800   39.0000 C   0  0  0  0  0  2  0  0  0  0  0  0
   38.6010   31.6870   37.7290 C   0  0  0  0  0  3  0  0  0  0  0  0
   39.4040   30.8960   37.6740 H   0  0  0  0  0  0  0  0  0  0  0  0
   37.2870   30.9990   37.4720 C   0  0  0  0  0  2  0  0  0  0  0  0
   36.7460   30.2640   38.6630 C   0  0  0  0  0  2  0  0  0  0  0  0
  1  2  1  0  0  0  0
  1  6  1  0  0  0  0
  3  1  1  0  0  0  0
  4  9  1  0  0  0  0
  5  6  1  0  0  0  0
  5  4  2  0  0  0  0
  6  7  2  0  0  0  0
  7  8  1  0  0  0  0
  8  9  2  0  0  0  0
  8 12  1  0  0  0  0
 10  4  1  0  0  0  0
 11  5  1  0  0  0  0
 13  1  1  0  0  0  0
 14 13  1  0  0  0  0
 15 14  1  0  0  0  0
 16 15  1  0  0  0  0
 17 16  1  0  0  0  0
 18 16  1  0  0  0  0
 18 19  1  0  0  0  0
 19 13  1  0  0  0  0
M  END
>  <minimizedAffinity>
-3.82689404

$$$$

 OpenBabel03252509303D

 19 20  0  0  0  0  0  0  0  0999 V2000
   37.2500   29.7310   42.0780 C   0  0  0  0  0  0  0  0  0  0  0  0
   36.2200   29.8210   42.5280 H   0  0  0  0  0  0  0  0  0  0  0  0
   37.8860   30.4020   42.6700 H   0  0  0  0  0  0  0  0  0  0  0  0
   36.9760   31.8410   39.0300 C   0  0  0  0  0  0  0  0  0  0  0  0
   36.9960   31.4630   40.3910 C   0  0  0  0  0  0  0  0  0  0  0  0
   37.2300   30.1160   40.6680 C   0  0  0  0  0  0  0  0  0  0  0  0
   37.4200   29.2540   39.6370 N   0  0  0  0  0  0  0  0  0  0  0  0
   37.3920   29.6630   38.3470 C   0  0  0  0  0  0  0  0  0  0  0  0
   37.1710   30.9500   38.0600 N   0  0  0  0  0  0  0  0  0  0  0  0
   36.7940   32.8970   38.8140 H   0  0  0  0  0  0  0  0  0  0  0  0
   36.8430   32.1670   41.1850 H   0  0  0  0  0  0  0  0  0  0  0  0
   37.5360   29.0210   37.5060 H   0  0  0  0  0  0  0  0  0  0  0  0
   37.7550   28.3940   42.2520 N   0  0  0  0  0  0  0  0  0  0  0  0
   36.8120   27.4350   42.7210 C   0  0  0  0  0  2  0  0  0  0  0  0
   37.2650   26.0860   42.1730 C   0  0  0  0  0  2  0  0  0  0  0  0
   38.6540   25.8550   42.6820 C   0  0  0  0  0  3  0  0  0  0  0  0
   39.4130   25.7210   41.8580 H   0  0  0  0  0  0  0  0  0  0  0  0
   39.1720   26.9470   43.5810 C   0  0  0  0  0  2  0  0  0  0  0  0
   38.9440   28.3300   43.0460 C   0  0  0  0  0  2  0  0  0  0  0  0
  1 13  1  0  0  0  0
  1  2  1  0  0  0  0
  1  3  1  0  0  0  0
  4  5  1  0  0  0  0
  5  6  2  0  0  0  0
  5 11  1  0  0  0  0
  6  1  1  0  0  0  0
  7  6  1  0  0  0  0
  8  7  2  0  0  0  0
  9  8  1  0  0  0  0
  9  4  2  0  0  0  0
 10  4  1  0  0  0  0
 12  8  1  0  0  0  0
 13 14  1  0  0  0  0
 13 19  1  0  0  0  0
 15 16  1  0  0  0  0
 15 14  1  0  0  0  0
 16 18  1  0  0  0  0
 17 16  1  0  0  0  0
 19 18  1  0  0  0  0
M  END
>  <minimizedAffinity>
-3.74878788

$$$$

 OpenBabel03252509303D

 19 20  0  0  0  0  0  0  0  0999 V2000
   39.2340   30.8920   41.9050 C   0  0  0  0  0  0  0  0  0  0  0  0
   40.3490   30.9680   41.7500 H   0  0  0  0  0  0  0  0  0  0  0  0
   38.9710   31.7390   42.5500 H   0  0  0  0  0  0  0  0  0  0  0  0
   39.5950   27.4530   43.2710 C   0  0  0  0  0  0  0  0  0  0  0  0
   39.9220   28.6890   42.6700 C   0  0  0  0  0  0  0  0  0  0  0  0
   38.8880   29.6160   42.5270 C   0  0  0  0  0  0  0  0  0  0  0  0
   37.6450   29.2880   42.9620 N   0  0  0  0  0  0  0  0  0  0  0  0
   37.3790   28.0900   43.5320 C   0  0  0  0  0  0  0  0  0  0  0  0
   38.3550   27.1880   43.6800 N   0  0  0  0  0  0  0  0  0  0  0  0
   40.4050   26.7290   43.3830 H   0  0  0  0  0  0  0  0  0  0  0  0
   40.9150   28.9200   42.3360 H   0  0  0  0  0  0  0  0  0  0  0  0
   36.4170   27.7900   43.8880 H   0  0  0  0  0  0  0  0  0  0  0  0
   38.5440   31.0720   40.6530 N   0  0  0  0  0  0  0  0  0  0  0  0
   39.3550   30.9880   39.4850 C   0  0  0  0  0  2  0  0  0  0  0  0
   38.4440   30.4910   38.3670 C   0  0  0  0  0  2  0  0  0  0  0  0
   37.3250   31.4800   38.2480 C   0  0  0  0  0  3  0  0  0  0  0  0
   36.3070   31.0190   38.4080 H   0  0  0  0  0  0  0  0  0  0  0  0
   37.4300   32.6490   39.1910 C   0  0  0  0  0  2  0  0  0  0  0  0
   37.7480   32.2600   40.6050 C   0  0  0  0  0  2  0  0  0  0  0  0
  1  6  1  0  0  0  0
  1  3  1  0  0  0  0
  2  1  1  0  0  0  0
  4 10  1  0  0  0  0
  4  9  1  0  0  0  0
  5  4  2  0  0  0  0
  6  5  1  0  0  0  0
  6  7  2  0  0  0  0
  7  8  1  0  0  0  0
  8  9  2  0  0  0  0
  8 12  1  0  0  0  0
 11  5  1  0  0  0  0
 13  1  1  0  0  0  0
 14 13  1  0  0  0  0
 15 14  1  0  0  0  0
 16 15  1  0  0  0  0
 16 17  1  0  0  0  0
 16 18  1  0  0  0  0
 18 19  1  0  0  0  0
 19 13  1  0  0  0  0
M  END
>  <minimizedAffinity>
-3.73883724

$$$$

 OpenBabel03252509303D

 19 20  0  0  0  0  0  0  0  0999 V2000
   36.5240   31.0270   40.9010 C   0  0  0  0  0  0  0  0  0  0  0  0
   35.5780   31.2210   40.3170 H   0  0  0  0  0  0  0  0  0  0  0  0
   36.3300   31.4170   41.9080 H   0  0  0  0  0  0  0  0  0  0  0  0
   39.3600   31.6860   38.5890 C   0  0  0  0  0  0  0  0  0  0  0  0
   38.2600   31.0420   39.2000 C   0  0  0  0  0  0  0  0  0  0  0  0
   37.6610   31.6990   40.2750 C   0  0  0  0  0  0  0  0  0  0  0  0
   38.1560   32.8990   40.6730 N   0  0  0  0  0  0  0  0  0  0  0  0
   39.2120   33.4780   40.0570 C   0  0  0  0  0  0  0  0  0  0  0  0
   39.8010   32.8650   39.0240 N   0  0  0  0  0  0  0  0  0  0  0  0
   39.8280   31.1710   37.7470 H   0  0  0  0  0  0  0  0  0  0  0  0
   37.8910   30.0940   38.8620 H   0  0  0  0  0  0  0  0  0  0  0  0
   39.6340   34.4180   40.3360 H   0  0  0  0  0  0  0  0  0  0  0  0
   36.7520   29.6110   41.0240 N   0  0  0  0  0  0  0  0  0  0  0  0
   35.6890   28.7740   40.5800 C   0  0  0  0  0  2  0  0  0  0  0  0
   36.3330   27.4700   40.1210 C   0  0  0  0  0  2  0  0  0  0  0  0
   37.0770   26.9170   41.2980 C   0  0  0  0  0  3  0  0  0  0  0  0
   38.1800   26.7810   41.1020 H   0  0  0  0  0  0  0  0  0  0  0  0
   36.9510   27.7410   42.5510 C   0  0  0  0  0  2  0  0  0  0  0  0
   37.1670   29.2100   42.3340 C   0  0  0  0  0  2  0  0  0  0  0  0
  1 13  1  0  0  0  0
  1  3  1  0  0  0  0
  2  1  1  0  0  0  0
  4  9  2  0  0  0  0
  4  5  1  0  0  0  0
  5  6  2  0  0  0  0
  6  7  1  0  0  0  0
  6  1  1  0  0  0  0
  8 12  1  0  0  0  0
  8  7  2  0  0  0  0
  9  8  1  0  0  0  0
 10  4  1  0  0  0  0
 11  5  1  0  0  0  0
 13 19  1  0  0  0  0
 14 13  1  0  0  0  0
 15 14  1  0  0  0  0
 15 16  1  0  0  0  0
 16 18  1  0  0  0  0
 17 16  1  0  0  0  0
 19 18  1  0  0  0  0
M  END
>  <minimizedAffinity>
-3.70225644

$$$$
