
 OpenBabel03252505013D

 32 34  0  0  1  0  0  0  0  0999 V2000
   46.4620   32.8130   46.6310 C   0  0  2  0  0  0  0  0  0  0  0  0
   46.9660   31.5270   46.0650 C   0  0  0  0  0  0  0  0  0  0  0  0
   46.0500   30.3750   46.1330 C   0  0  0  0  0  0  0  0  0  0  0  0
   45.6650   30.2390   47.6000 C   0  0  0  0  0  0  0  0  0  0  0  0
   44.8810   31.3890   48.0820 C   0  0  0  0  0  0  0  0  0  0  0  0
   45.3340   32.7190   47.5460 C   0  0  0  0  0  0  0  0  0  0  0  0
   47.3020   33.3290   47.1450 H   0  0  0  0  0  0  0  0  0  0  0  0
   47.9010   31.2380   46.6180 H   0  0  0  0  0  0  0  0  0  0  0  0
   47.3080   31.6290   45.0090 H   0  0  0  0  0  0  0  0  0  0  0  0
   45.1320   30.6130   45.5740 H   0  0  0  0  0  0  0  0  0  0  0  0
   46.5720   29.4650   45.8450 H   0  0  0  0  0  0  0  0  0  0  0  0
   46.5690   30.0620   48.1820 H   0  0  0  0  0  0  0  0  0  0  0  0
   44.9340   29.3920   47.6030 H   0  0  0  0  0  0  0  0  0  0  0  0
   44.0340   31.4560   48.7500 H   0  0  0  0  0  0  0  0  0  0  0  0
   44.7990   35.3220   44.4710 C   0  0  0  0  0  0  0  0  0  0  0  0
   45.5670   35.2540   43.2930 C   0  0  0  0  0  0  0  0  0  0  0  0
   46.6490   34.3410   43.2600 C   0  0  0  0  0  0  0  0  0  0  0  0
   46.8820   33.5850   44.3620 N   0  0  0  0  0  0  0  0  0  0  0  0
   46.1320   33.6750   45.4650 C   0  0  0  0  0  0  0  0  0  0  0  0
   45.0760   34.5460   45.5390 N   0  0  0  0  0  0  0  0  0  0  0  0
   43.9880   36.0250   44.4570 H   0  0  0  0  0  0  0  0  0  0  0  0
   45.4080   35.8320   42.4170 H   0  0  0  0  0  0  0  0  0  0  0  0
   47.5210   34.1460   42.1560 N   0  0  0  0  0  0  0  0  0  0  0  0
   48.6850   34.9780   41.9230 C   0  0  0  0  0  0  0  0  0  0  0  0
   48.7870   35.5260   40.5400 C   0  0  0  0  0  0  0  0  0  0  0  0
   48.3660   34.5630   39.4720 C   0  0  0  0  0  0  0  0  0  0  0  0
   48.1620   35.1550   38.5450 H   0  0  0  0  0  0  0  0  0  0  0  0
   47.0760   33.8660   39.8430 C   0  0  0  0  0  0  0  0  0  0  0  0
   47.3600   33.1220   41.1540 C   0  0  0  0  0  0  0  0  0  0  0  0
   44.6580   33.9020   47.9310 N   0  0  0  0  0  0  0  0  0  0  0  0
   45.3420   34.2940   48.6120 H   0  0  0  0  0  0  0  0  0  0  0  0
   43.7450   34.0000   47.4390 H   0  0  0  0  0  0  0  0  0  0  0  0
  1  7  1  1  0  0  0
  1  6  1  0  0  0  0
  2  3  1  0  0  0  0
  2  8  1  0  0  0  0
  2  1  1  0  0  0  0
  3  4  1  0  0  0  0
  4 13  1  0  0  0  0
  4  5  1  0  0  0  0
  4 12  1  0  0  0  0
  5 14  1  0  0  0  0
  6 30  1  0  0  0  0
  6  5  2  0  0  0  0
  9  2  1  0  0  0  0
 10  3  1  0  0  0  0
 11  3  1  0  0  0  0
 15 20  1  0  0  0  0
 16 15  2  0  0  0  0
 17 16  1  0  0  0  0
 17 18  2  0  0  0  0
 18 19  1  0  0  0  0
 19 20  2  0  0  0  0
 19  1  1  0  0  0  0
 21 15  1  0  0  0  0
 22 16  1  0  0  0  0
 23 17  1  0  0  0  0
 24 23  1  0  0  0  0
 25 24  1  0  0  0  0
 26 28  1  0  0  0  0
 26 25  1  0  0  0  0
 27 26  1  0  0  0  0
 28 29  1  0  0  0  0
 29 23  1  0  0  0  0
 30 31  1  0  0  0  0
 32 30  1  0  0  0  0
M  END
>  <minimizedAffinity>
-6.4584136

>  <minimizedRMSD>
0.547658563

$$$$
