
 OpenBabel03252509283D

 19 20  0  0  0  0  0  0  0  0999 V2000
   46.6290   35.0170   41.9510 C   0  0  0  0  0  0  0  0  0  0  0  0
   47.6880   34.6350   42.0180 H   0  0  0  0  0  0  0  0  0  0  0  0
   46.7130   36.0460   41.5780 H   0  0  0  0  0  0  0  0  0  0  0  0
   44.4950   35.9890   44.8350 C   0  0  0  0  0  0  0  0  0  0  0  0
   45.1240   36.0280   43.5710 C   0  0  0  0  0  0  0  0  0  0  0  0
   45.9820   34.9720   43.2600 C   0  0  0  0  0  0  0  0  0  0  0  0
   46.1670   33.9830   44.1720 N   0  0  0  0  0  0  0  0  0  0  0  0
   45.5420   33.9890   45.3720 C   0  0  0  0  0  0  0  0  0  0  0  0
   44.7150   34.9910   45.6890 N   0  0  0  0  0  0  0  0  0  0  0  0
   43.8230   36.8160   45.0770 H   0  0  0  0  0  0  0  0  0  0  0  0
   44.9580   36.8220   42.8710 H   0  0  0  0  0  0  0  0  0  0  0  0
   45.6580   33.2340   46.1180 H   0  0  0  0  0  0  0  0  0  0  0  0
   45.8880   34.2640   40.9720 N   0  0  0  0  0  0  0  0  0  0  0  0
   44.4970   34.1100   41.2360 C   0  0  0  0  0  2  0  0  0  0  0  0
   43.8170   33.9700   39.8770 C   0  0  0  0  0  2  0  0  0  0  0  0
   44.4320   32.7820   39.2040 C   0  0  0  0  0  3  0  0  0  0  0  0
   44.9170   33.0320   38.2160 H   0  0  0  0  0  0  0  0  0  0  0  0
   45.4680   32.0700   40.0340 C   0  0  0  0  0  2  0  0  0  0  0  0
   46.4670   32.9890   40.6740 C   0  0  0  0  0  2  0  0  0  0  0  0
  1  2  1  0  0  0  0
  1  6  1  0  0  0  0
  3  1  1  0  0  0  0
  4 10  1  0  0  0  0
  4  9  1  0  0  0  0
  5  4  2  0  0  0  0
  6  5  1  0  0  0  0
  6  7  2  0  0  0  0
  7  8  1  0  0  0  0
  8  9  2  0  0  0  0
  8 12  1  0  0  0  0
 11  5  1  0  0  0  0
 13 14  1  0  0  0  0
 13  1  1  0  0  0  0
 15 14  1  0  0  0  0
 16 15  1  0  0  0  0
 16 18  1  0  0  0  0
 17 16  1  0  0  0  0
 18 19  1  0  0  0  0
 19 13  1  0  0  0  0
M  END
>  <minimizedAffinity>
-3.63105822

>  <minimizedRMSD>
0.388272882

$$$$
