
 OpenBabel03252505423D

 40 43  0  0  1  0  0  0  0  0999 V2000
   42.6030   34.6920   40.4960 C   0  0  0  0  0  0  0  0  0  0  0  0
   42.3140   35.2340   39.2600 C   0  0  0  0  0  0  0  0  0  0  0  0
   41.0800   35.1160   38.6620 C   0  0  0  0  0  0  0  0  0  0  0  0
   40.1330   34.4390   39.3330 N   0  0  0  0  0  0  0  0  0  0  0  0
   40.4040   33.8990   40.5520 C   0  0  0  0  0  0  0  0  0  0  0  0
   41.6120   34.0240   41.1200 N   0  0  0  0  0  0  0  0  0  0  0  0
   43.0960   35.7650   38.7570 H   0  0  0  0  0  0  0  0  0  0  0  0
   40.9220   35.5570   37.7060 H   0  0  0  0  0  0  0  0  0  0  0  0
   44.0130   34.6840   42.5340 C   0  0  1  0  0  0  0  0  0  0  0  0
   44.2510   36.0960   41.9010 C   0  0  0  0  0  0  0  0  0  0  0  0
   43.9850   34.8220   41.1060 C   0  0  2  0  0  0  0  0  0  0  0  0
   43.0540   34.6800   43.1270 H   0  0  0  0  0  0  0  0  0  0  0  0
   43.4480   36.8300   41.9740 H   0  0  0  0  0  0  0  0  0  0  0  0
   45.3040   36.4440   41.8690 H   0  0  0  0  0  0  0  0  0  0  0  0
   44.7520   34.5260   40.3880 H   0  0  0  0  0  0  0  0  0  0  0  0
   45.1720   34.1690   43.2890 C   0  0  0  0  0  0  0  0  0  0  0  0
   46.4250   34.1760   42.6530 C   0  0  0  0  0  0  0  0  0  0  0  0
   47.5250   33.6910   43.3570 C   0  0  0  0  0  0  0  0  0  0  0  0
   47.3260   33.2350   44.6280 N   0  0  0  0  0  0  0  0  0  0  0  0
   46.1190   33.2470   45.1940 C   0  0  0  0  0  0  0  0  0  0  0  0
   45.0600   33.7120   44.5190 N   0  0  0  0  0  0  0  0  0  0  0  0
   46.5800   34.5280   41.6670 H   0  0  0  0  0  0  0  0  0  0  0  0
   48.5190   33.6850   42.8830 H   0  0  0  0  0  0  0  0  0  0  0  0
   46.1080   32.7090   46.6030 C   0  0  0  0  0  0  0  0  0  0  0  0
   45.1320   33.3210   47.3730 F   0  0  0  0  0  0  0  0  0  0  0  0
   47.3380   33.0270   47.2200 F   0  0  0  0  0  0  0  0  0  0  0  0
   46.0240   31.3460   46.5760 F   0  0  0  0  0  0  0  0  0  0  0  0
   39.3820   33.1340   41.3180 C   0  0  0  0  0  0  0  0  0  0  0  0
   39.8810   32.3850   41.9790 H   0  0  0  0  0  0  0  0  0  0  0  0
   38.8410   33.8260   41.9910 H   0  0  0  0  0  0  0  0  0  0  0  0
   38.4800   32.3750   40.3760 C   0  0  0  0  0  0  0  0  0  0  0  0
   37.6180   33.0270   40.1450 H   0  0  0  0  0  0  0  0  0  0  0  0
   39.0340   32.2290   39.4330 H   0  0  0  0  0  0  0  0  0  0  0  0
   38.0530   31.0910   40.8310 N   0  0  0  0  0  0  0  0  0  0  0  0
   39.1420   30.5240   41.6200 C   0  0  0  0  0  0  0  0  0  0  0  0
   38.6260   29.2930   42.3700 C   0  0  0  0  0  0  0  0  0  0  0  0
   38.3070   28.2890   41.2810 C   0  0  0  0  0  0  0  0  0  0  0  0
   39.2450   28.1160   40.7150 H   0  0  0  0  0  0  0  0  0  0  0  0
   37.2760   28.8830   40.3760 C   0  0  0  0  0  0  0  0  0  0  0  0
   37.6800   30.1940   39.7550 C   0  0  0  0  0  0  0  0  0  0  0  0
  1 11  1  0  0  0  0
  1  6  1  0  0  0  0
  2  1  2  0  0  0  0
  3  2  1  0  0  0  0
  3  4  2  0  0  0  0
  4  5  1  0  0  0  0
  5  6  2  0  0  0  0
  5 28  1  0  0  0  0
  7  2  1  0  0  0  0
  8  3  1  0  0  0  0
  9 12  1  1  0  0  0
  9 16  1  0  0  0  0
 10 13  1  0  0  0  0
 10  9  1  0  0  0  0
 11 15  1  6  0  0  0
 11 10  1  0  0  0  0
 11  9  1  0  0  0  0
 14 10  1  0  0  0  0
 16 21  1  0  0  0  0
 17 16  2  0  0  0  0
 17 18  1  0  0  0  0
 18 19  2  0  0  0  0
 19 20  1  0  0  0  0
 20 24  1  0  0  0  0
 21 20  2  0  0  0  0
 22 17  1  0  0  0  0
 23 18  1  0  0  0  0
 24 26  1  0  0  0  0
 24 25  1  0  0  0  0
 27 24  1  0  0  0  0
 28 29  1  0  0  0  0
 28 30  1  0  0  0  0
 31 34  1  0  0  0  0
 31 28  1  0  0  0  0
 32 31  1  0  0  0  0
 33 31  1  0  0  0  0
 34 35  1  0  0  0  0
 35 36  1  0  0  0  0
 37 36  1  0  0  0  0
 38 37  1  0  0  0  0
 39 37  1  0  0  0  0
 40 39  1  0  0  0  0
 40 34  1  0  0  0  0
M  END
>  <minimizedAffinity>
-5.78610039

>  <minimizedRMSD>
1.1146723

$$$$
