
 OpenBabel03252506303D

 45 49  0  0  0  0  0  0  0  0999 V2000
   35.8200   29.2010   37.4450 C   0  0  0  0  0  0  0  0  0  0  0  0
   35.1860   29.8240   36.7950 H   0  0  0  0  0  0  0  0  0  0  0  0
   36.0190   28.2560   36.9040 H   0  0  0  0  0  0  0  0  0  0  0  0
   38.3980   31.4490   38.5030 C   0  0  0  0  0  0  0  0  0  0  0  0
   39.1350   30.3990   37.9400 C   0  0  0  0  0  0  0  0  0  0  0  0
   38.2930   29.4550   37.4880 C   0  0  0  0  0  0  0  0  0  0  0  0
   37.0550   29.9020   37.7600 N   0  0  0  0  0  0  0  0  0  0  0  0
   37.1030   31.0890   38.3650 N   0  0  0  0  0  0  0  0  0  0  0  0
   40.2200   30.3840   37.8940 H   0  0  0  0  0  0  0  0  0  0  0  0
   38.5640   28.5310   37.0040 H   0  0  0  0  0  0  0  0  0  0  0  0
   38.6800   34.5870   40.3480 C   0  0  0  0  0  0  0  0  0  0  0  0
   40.0180   34.9110   40.2180 C   0  0  0  0  0  0  0  0  0  0  0  0
   40.8350   34.0490   39.4920 C   0  0  0  0  0  0  0  0  0  0  0  0
   40.2370   32.9460   38.9660 N   0  0  0  0  0  0  0  0  0  0  0  0
   38.9580   32.6470   39.0980 C   0  0  0  0  0  0  0  0  0  0  0  0
   38.1660   33.4790   39.7980 N   0  0  0  0  0  0  0  0  0  0  0  0
   38.0980   35.2980   40.9250 H   0  0  0  0  0  0  0  0  0  0  0  0
   40.5450   35.7650   40.6100 H   0  0  0  0  0  0  0  0  0  0  0  0
   42.2290   34.1630   39.2210 N   0  0  0  0  0  0  0  0  0  0  0  0
   42.7960   34.3390   37.8920 C   0  0  0  0  0  2  0  0  0  0  0  0
   43.5960   33.1020   37.5840 C   0  0  0  0  0  2  0  0  0  0  0  0
   43.6520   32.1410   38.7470 C   0  0  0  0  0  3  0  0  0  0  0  0
   42.7270   31.5200   38.7970 H   0  0  0  0  0  0  0  0  0  0  0  0
   43.9630   32.8000   40.0630 C   0  0  0  0  0  2  0  0  0  0  0  0
   43.2500   34.1170   40.2540 C   0  0  0  0  0  2  0  0  0  0  0  0
   35.0620   28.9060   38.6860 C   0  0  0  0  0  0  0  0  0  0  0  0
   34.1380   28.3330   38.4230 H   0  0  0  0  0  0  0  0  0  0  0  0
   34.6700   29.8800   39.0650 H   0  0  0  0  0  0  0  0  0  0  0  0
   36.3760   27.0050   39.8120 C   0  0  0  0  0  0  0  0  0  0  0  0
   35.7960   28.2610   39.7620 C   0  0  0  0  0  0  0  0  0  0  0  0
   35.9320   29.0330   40.9190 C   0  0  0  0  0  0  0  0  0  0  0  0
   36.5990   28.5720   42.0290 C   0  0  0  0  0  0  0  0  0  0  0  0
   36.8750   29.0770   43.2380 N   0  0  0  0  0  0  0  0  0  0  0  0
   37.5690   28.2150   43.9840 C   0  0  0  0  0  0  0  0  0  0  0  0
   37.7780   27.0550   43.2410 C   0  0  0  0  0  0  0  0  0  0  0  0
   37.1630   27.3240   42.0490 C   0  0  0  0  0  0  0  0  0  0  0  0
   37.0370   26.5500   40.9170 C   0  0  0  0  0  0  0  0  0  0  0  0
   36.2420   26.4400   38.8830 H   0  0  0  0  0  0  0  0  0  0  0  0
   35.5270   30.0310   41.0150 H   0  0  0  0  0  0  0  0  0  0  0  0
   36.5990   30.0210   43.5860 H   0  0  0  0  0  0  0  0  0  0  0  0
   37.9250   28.3650   45.0040 H   0  0  0  0  0  0  0  0  0  0  0  0
   38.3090   26.1540   43.5550 H   0  0  0  0  0  0  0  0  0  0  0  0
   37.6170   25.2130   40.8780 C   0  0  0  0  0  0  0  0  0  0  0  0
   36.9530   24.1860   41.1540 O   0  0  0  0  0  0  0  0  0  0  0  0
   38.6660   25.0870   40.6010 H   0  0  0  0  0  0  0  0  0  0  0  0
  1  7  1  0  0  0  0
  1 26  1  0  0  0  0
  2  1  1  0  0  0  0
  3  1  1  0  0  0  0
  4 15  1  0  0  0  0
  5  4  1  0  0  0  0
  6  7  1  0  0  0  0
  6  5  2  0  0  0  0
  7  8  1  0  0  0  0
  8  4  2  0  0  0  0
  9  5  1  0  0  0  0
 10  6  1  0  0  0  0
 11 17  1  0  0  0  0
 12 11  1  0  0  0  0
 12 18  1  0  0  0  0
 13 12  2  0  0  0  0
 14 15  2  0  0  0  0
 14 13  1  0  0  0  0
 15 16  1  0  0  0  0
 16 11  2  0  0  0  0
 19 13  1  0  0  0  0
 19 25  1  0  0  0  0
 20 19  1  0  0  0  0
 21 20  1  0  0  0  0
 21 22  1  0  0  0  0
 22 23  1  0  0  0  0
 22 24  1  0  0  0  0
 24 25  1  0  0  0  0
 26 28  1  0  0  0  0
 26 30  1  0  0  0  0
 27 26  1  0  0  0  0
 29 37  1  0  0  0  0
 30 29  2  0  0  0  0
 30 31  1  0  0  0  0
 31 39  1  0  0  0  0
 31 32  2  0  0  0  0
 32 36  1  0  0  0  0
 32 33  1  0  0  0  0
 33 40  1  0  0  0  0
 33 34  1  0  0  0  0
 34 41  1  0  0  0  0
 35 42  1  0  0  0  0
 35 34  2  0  0  0  0
 36 35  1  0  0  0  0
 37 36  2  0  0  0  0
 38 29  1  0  0  0  0
 43 37  1  0  0  0  0
 43 44  2  0  0  0  0
 45 43  1  0  0  0  0
M  END
>  <minimizedAffinity>
-6.79503345

$$$$

 OpenBabel03252506303D

 45 49  0  0  0  0  0  0  0  0999 V2000
   33.9900   28.3100   35.3630 C   0  0  0  0  0  0  0  0  0  0  0  0
   33.7240   28.8710   34.4540 H   0  0  0  0  0  0  0  0  0  0  0  0
   34.2370   27.2760   35.0530 H   0  0  0  0  0  0  0  0  0  0  0  0
   36.3410   29.7730   37.6320 C   0  0  0  0  0  0  0  0  0  0  0  0
   37.0010   29.8980   36.4030 C   0  0  0  0  0  0  0  0  0  0  0  0
   36.2330   29.3830   35.4290 C   0  0  0  0  0  0  0  0  0  0  0  0
   35.1140   28.9460   36.0330 N   0  0  0  0  0  0  0  0  0  0  0  0
   35.1660   29.1720   37.3460 N   0  0  0  0  0  0  0  0  0  0  0  0
   37.9840   30.3470   36.2920 H   0  0  0  0  0  0  0  0  0  0  0  0
   36.4710   29.3360   34.3800 H   0  0  0  0  0  0  0  0  0  0  0  0
   37.3990   31.9400   40.3740 C   0  0  0  0  0  0  0  0  0  0  0  0
   37.8340   31.0450   41.3340 C   0  0  0  0  0  0  0  0  0  0  0  0
   37.7660   29.6860   41.0430 C   0  0  0  0  0  0  0  0  0  0  0  0
   37.2710   29.3500   39.8220 N   0  0  0  0  0  0  0  0  0  0  0  0
   36.8580   30.2140   38.9140 C   0  0  0  0  0  0  0  0  0  0  0  0
   36.9220   31.5290   39.1910 N   0  0  0  0  0  0  0  0  0  0  0  0
   37.4770   32.9830   40.6620 H   0  0  0  0  0  0  0  0  0  0  0  0
   38.2340   31.2500   42.3140 H   0  0  0  0  0  0  0  0  0  0  0  0
   38.1500   28.5830   41.8590 N   0  0  0  0  0  0  0  0  0  0  0  0
   38.1980   27.2010   41.4050 C   0  0  0  0  0  2  0  0  0  0  0  0
   37.1470   26.4440   42.1720 C   0  0  0  0  0  2  0  0  0  0  0  0
   36.4630   27.2940   43.2150 C   0  0  0  0  0  3  0  0  0  0  0  0
   35.6650   27.9240   42.7570 H   0  0  0  0  0  0  0  0  0  0  0  0
   37.4130   28.1070   44.0530 C   0  0  0  0  0  2  0  0  0  0  0  0
   38.5400   28.7180   43.2530 C   0  0  0  0  0  2  0  0  0  0  0  0
   32.8040   28.2840   36.2550 C   0  0  0  0  0  0  0  0  0  0  0  0
   33.1450   28.1420   37.3110 H   0  0  0  0  0  0  0  0  0  0  0  0
   32.2490   27.3420   36.0270 H   0  0  0  0  0  0  0  0  0  0  0  0
   31.1470   30.0450   37.1240 C   0  0  0  0  0  0  0  0  0  0  0  0
   31.8780   29.3980   36.1430 C   0  0  0  0  0  0  0  0  0  0  0  0
   31.7040   29.8830   34.8450 C   0  0  0  0  0  0  0  0  0  0  0  0
   30.8630   30.9340   34.5640 C   0  0  0  0  0  0  0  0  0  0  0  0
   30.5120   31.5870   33.4500 N   0  0  0  0  0  0  0  0  0  0  0  0
   29.6370   32.5620   33.7070 C   0  0  0  0  0  0  0  0  0  0  0  0
   29.3750   32.5730   35.0750 C   0  0  0  0  0  0  0  0  0  0  0  0
   30.1520   31.5550   35.5570 C   0  0  0  0  0  0  0  0  0  0  0  0
   30.3110   31.0890   36.8420 C   0  0  0  0  0  0  0  0  0  0  0  0
   31.3170   29.6280   38.1230 H   0  0  0  0  0  0  0  0  0  0  0  0
   32.2140   29.4700   33.9850 H   0  0  0  0  0  0  0  0  0  0  0  0
   30.8590   31.3880   32.4870 H   0  0  0  0  0  0  0  0  0  0  0  0
   29.1860   33.2470   32.9880 H   0  0  0  0  0  0  0  0  0  0  0  0
   28.7040   33.2450   35.6150 H   0  0  0  0  0  0  0  0  0  0  0  0
   29.5810   31.7090   37.9410 C   0  0  0  0  0  0  0  0  0  0  0  0
   29.0090   31.0360   38.8310 O   0  0  0  0  0  0  0  0  0  0  0  0
   29.5210   32.7980   38.0030 H   0  0  0  0  0  0  0  0  0  0  0  0
  1  7  1  0  0  0  0
  1 26  1  0  0  0  0
  2  1  1  0  0  0  0
  3  1  1  0  0  0  0
  4 15  1  0  0  0  0
  5  4  1  0  0  0  0
  6  7  1  0  0  0  0
  6  5  2  0  0  0  0
  7  8  1  0  0  0  0
  8  4  2  0  0  0  0
  9  5  1  0  0  0  0
 10  6  1  0  0  0  0
 11 17  1  0  0  0  0
 11 12  1  0  0  0  0
 12 18  1  0  0  0  0
 13 12  2  0  0  0  0
 13 19  1  0  0  0  0
 14 13  1  0  0  0  0
 15 16  1  0  0  0  0
 15 14  2  0  0  0  0
 16 11  2  0  0  0  0
 19 25  1  0  0  0  0
 20 19  1  0  0  0  0
 20 21  1  0  0  0  0
 21 22  1  0  0  0  0
 22 24  1  0  0  0  0
 23 22  1  0  0  0  0
 25 24  1  0  0  0  0
 26 27  1  0  0  0  0
 28 26  1  0  0  0  0
 29 38  1  0  0  0  0
 30 26  1  0  0  0  0
 30 29  2  0  0  0  0
 31 30  1  0  0  0  0
 32 31  2  0  0  0  0
 32 36  1  0  0  0  0
 33 34  1  0  0  0  0
 33 32  1  0  0  0  0
 34 35  2  0  0  0  0
 35 36  1  0  0  0  0
 35 42  1  0  0  0  0
 36 37  2  0  0  0  0
 37 29  1  0  0  0  0
 37 43  1  0  0  0  0
 39 31  1  0  0  0  0
 40 33  1  0  0  0  0
 41 34  1  0  0  0  0
 43 45  1  0  0  0  0
 43 44  2  0  0  0  0
M  END
>  <minimizedAffinity>
-6.53806877

$$$$

 OpenBabel03252506303D

 45 49  0  0  0  0  0  0  0  0999 V2000
   37.3720   28.5730   35.8200 C   0  0  0  0  0  0  0  0  0  0  0  0
   38.4710   28.6150   35.8790 H   0  0  0  0  0  0  0  0  0  0  0  0
   37.1090   28.2280   34.8010 H   0  0  0  0  0  0  0  0  0  0  0  0
   36.7650   26.4410   38.6310 C   0  0  0  0  0  0  0  0  0  0  0  0
   35.5450   26.3790   37.9460 C   0  0  0  0  0  0  0  0  0  0  0  0
   35.6130   27.1440   36.8430 C   0  0  0  0  0  0  0  0  0  0  0  0
   36.8490   27.6730   36.8360 N   0  0  0  0  0  0  0  0  0  0  0  0
   37.5460   27.2620   37.8960 N   0  0  0  0  0  0  0  0  0  0  0  0
   34.6960   25.7940   38.2840 H   0  0  0  0  0  0  0  0  0  0  0  0
   34.8320   27.2960   36.1170 H   0  0  0  0  0  0  0  0  0  0  0  0
   37.1790   23.7730   41.0890 C   0  0  0  0  0  0  0  0  0  0  0  0
   37.6530   24.4400   42.2030 C   0  0  0  0  0  0  0  0  0  0  0  0
   37.8340   25.8170   42.1150 C   0  0  0  0  0  0  0  0  0  0  0  0
   37.5250   26.3960   40.9240 N   0  0  0  0  0  0  0  0  0  0  0  0
   37.0730   25.7470   39.8670 C   0  0  0  0  0  0  0  0  0  0  0  0
   36.8960   24.4160   39.9480 N   0  0  0  0  0  0  0  0  0  0  0  0
   37.0600   22.7020   41.2210 H   0  0  0  0  0  0  0  0  0  0  0  0
   37.9140   24.0380   43.1680 H   0  0  0  0  0  0  0  0  0  0  0  0
   38.3060   26.7160   43.1150 N   0  0  0  0  0  0  0  0  0  0  0  0
   37.5860   27.8990   43.5630 C   0  0  0  0  0  2  0  0  0  0  0  0
   38.4030   29.0960   43.1580 C   0  0  0  0  0  2  0  0  0  0  0  0
   39.7220   28.7150   42.5300 C   0  0  0  0  0  3  0  0  0  0  0  0
   39.5910   28.4510   41.4560 H   0  0  0  0  0  0  0  0  0  0  0  0
   40.4680   27.6500   43.2880 C   0  0  0  0  0  2  0  0  0  0  0  0
   39.5740   26.5490   43.8060 C   0  0  0  0  0  2  0  0  0  0  0  0
   36.8440   29.9450   36.0230 C   0  0  0  0  0  0  0  0  0  0  0  0
   35.7530   29.9570   35.7770 H   0  0  0  0  0  0  0  0  0  0  0  0
   37.3010   30.5870   35.2310 H   0  0  0  0  0  0  0  0  0  0  0  0
   36.4700   30.3700   38.5300 C   0  0  0  0  0  0  0  0  0  0  0  0
   37.1020   30.5610   37.3130 C   0  0  0  0  0  0  0  0  0  0  0  0
   38.1510   31.4850   37.3190 C   0  0  0  0  0  0  0  0  0  0  0  0
   38.5260   32.1560   38.4580 C   0  0  0  0  0  0  0  0  0  0  0  0
   39.4620   33.0680   38.7490 N   0  0  0  0  0  0  0  0  0  0  0  0
   39.4230   33.4200   40.0350 C   0  0  0  0  0  0  0  0  0  0  0  0
   38.4000   32.7080   40.6590 C   0  0  0  0  0  0  0  0  0  0  0  0
   37.8800   31.9460   39.6480 C   0  0  0  0  0  0  0  0  0  0  0  0
   36.8450   31.0400   39.6600 C   0  0  0  0  0  0  0  0  0  0  0  0
   35.6570   29.6380   38.4730 H   0  0  0  0  0  0  0  0  0  0  0  0
   38.7290   31.7290   36.4380 H   0  0  0  0  0  0  0  0  0  0  0  0
   40.1510   33.4730   38.0790 H   0  0  0  0  0  0  0  0  0  0  0  0
   40.0680   34.1400   40.5400 H   0  0  0  0  0  0  0  0  0  0  0  0
   38.1020   32.7600   41.7080 H   0  0  0  0  0  0  0  0  0  0  0  0
   36.1200   30.7730   40.8960 C   0  0  0  0  0  0  0  0  0  0  0  0
   35.6030   29.6570   41.1440 O   0  0  0  0  0  0  0  0  0  0  0  0
   36.0140   31.5640   41.6420 H   0  0  0  0  0  0  0  0  0  0  0  0
  1  2  1  0  0  0  0
  1 26  1  0  0  0  0
  1  7  1  0  0  0  0
  3  1  1  0  0  0  0
  4 15  1  0  0  0  0
  5  9  1  0  0  0  0
  5  4  1  0  0  0  0
  6  5  2  0  0  0  0
  7  6  1  0  0  0  0
  7  8  1  0  0  0  0
  8  4  2  0  0  0  0
 10  6  1  0  0  0  0
 11 17  1  0  0  0  0
 11 12  1  0  0  0  0
 12 18  1  0  0  0  0
 13 12  2  0  0  0  0
 13 19  1  0  0  0  0
 14 13  1  0  0  0  0
 15 16  1  0  0  0  0
 15 14  2  0  0  0  0
 16 11  2  0  0  0  0
 19 20  1  0  0  0  0
 19 25  1  0  0  0  0
 21 20  1  0  0  0  0
 22 21  1  0  0  0  0
 22 24  1  0  0  0  0
 23 22  1  0  0  0  0
 24 25  1  0  0  0  0
 26 30  1  0  0  0  0
 27 26  1  0  0  0  0
 28 26  1  0  0  0  0
 29 37  1  0  0  0  0
 30 31  1  0  0  0  0
 30 29  2  0  0  0  0
 31 32  2  0  0  0  0
 32 33  1  0  0  0  0
 32 36  1  0  0  0  0
 33 34  1  0  0  0  0
 34 41  1  0  0  0  0
 34 35  2  0  0  0  0
 35 42  1  0  0  0  0
 36 37  2  0  0  0  0
 36 35  1  0  0  0  0
 37 43  1  0  0  0  0
 38 29  1  0  0  0  0
 39 31  1  0  0  0  0
 40 33  1  0  0  0  0
 43 44  2  0  0  0  0
 43 45  1  0  0  0  0
M  END
>  <minimizedAffinity>
-6.52239084

$$$$

 OpenBabel03252506303D

 45 49  0  0  0  0  0  0  0  0999 V2000
   35.8190   28.8590   40.8790 C   0  0  0  0  0  0  0  0  0  0  0  0
   34.7630   29.1420   41.0050 H   0  0  0  0  0  0  0  0  0  0  0  0
   35.8390   27.8680   40.3850 H   0  0  0  0  0  0  0  0  0  0  0  0
   37.7980   31.5500   39.5900 C   0  0  0  0  0  0  0  0  0  0  0  0
   37.2240   31.0230   38.4260 C   0  0  0  0  0  0  0  0  0  0  0  0
   36.4370   29.9840   38.7480 C   0  0  0  0  0  0  0  0  0  0  0  0
   36.5140   29.8610   40.0840 N   0  0  0  0  0  0  0  0  0  0  0  0
   37.3220   30.7880   40.5990 N   0  0  0  0  0  0  0  0  0  0  0  0
   37.4100   31.4200   37.4330 H   0  0  0  0  0  0  0  0  0  0  0  0
   35.8620   29.3780   38.0670 H   0  0  0  0  0  0  0  0  0  0  0  0
   39.2800   34.7560   40.5160 C   0  0  0  0  0  0  0  0  0  0  0  0
   40.4250   34.8100   39.7430 C   0  0  0  0  0  0  0  0  0  0  0  0
   40.6960   33.7400   38.8960 C   0  0  0  0  0  0  0  0  0  0  0  0
   39.7980   32.7190   38.9010 N   0  0  0  0  0  0  0  0  0  0  0  0
   38.7080   32.6790   39.6440 C   0  0  0  0  0  0  0  0  0  0  0  0
   38.4420   33.7120   40.4640 N   0  0  0  0  0  0  0  0  0  0  0  0
   39.1260   35.6190   41.1550 H   0  0  0  0  0  0  0  0  0  0  0  0
   41.1700   35.5870   39.6970 H   0  0  0  0  0  0  0  0  0  0  0  0
   41.7990   33.5640   38.0110 N   0  0  0  0  0  0  0  0  0  0  0  0
   41.9880   32.4050   37.1520 C   0  0  0  0  0  2  0  0  0  0  0  0
   43.2200   31.6890   37.6360 C   0  0  0  0  0  2  0  0  0  0  0  0
   43.9180   32.4230   38.7550 C   0  0  0  0  0  3  0  0  0  0  0  0
   43.4250   32.2210   39.7340 H   0  0  0  0  0  0  0  0  0  0  0  0
   44.0860   33.8970   38.5000 C   0  0  0  0  0  2  0  0  0  0  0  0
   42.8710   34.5360   37.8690 C   0  0  0  0  0  2  0  0  0  0  0  0
   36.4340   28.7490   42.2250 C   0  0  0  0  0  0  0  0  0  0  0  0
   35.6240   28.7270   42.9960 H   0  0  0  0  0  0  0  0  0  0  0  0
   36.9580   29.7160   42.4200 H   0  0  0  0  0  0  0  0  0  0  0  0
   37.2770   26.3250   42.1040 C   0  0  0  0  0  0  0  0  0  0  0  0
   37.3830   27.6670   42.4230 C   0  0  0  0  0  0  0  0  0  0  0  0
   38.5830   28.0490   43.0300 C   0  0  0  0  0  0  0  0  0  0  0  0
   39.5880   27.1480   43.2890 C   0  0  0  0  0  0  0  0  0  0  0  0
   40.8050   27.2280   43.8420 N   0  0  0  0  0  0  0  0  0  0  0  0
   41.4130   26.0410   43.8690 C   0  0  0  0  0  0  0  0  0  0  0  0
   40.5610   25.0950   43.3010 C   0  0  0  0  0  0  0  0  0  0  0  0
   39.4540   25.8250   42.9620 C   0  0  0  0  0  0  0  0  0  0  0  0
   38.2780   25.4320   42.3640 C   0  0  0  0  0  0  0  0  0  0  0  0
   36.3210   26.0760   41.6320 H   0  0  0  0  0  0  0  0  0  0  0  0
   38.7970   29.0650   43.3300 H   0  0  0  0  0  0  0  0  0  0  0  0
   41.2530   28.0940   44.2150 H   0  0  0  0  0  0  0  0  0  0  0  0
   42.4050   25.8180   44.2610 H   0  0  0  0  0  0  0  0  0  0  0  0
   40.7520   24.0280   43.1680 H   0  0  0  0  0  0  0  0  0  0  0  0
   38.0770   24.0370   41.9920 C   0  0  0  0  0  0  0  0  0  0  0  0
   37.3640   23.6990   41.0170 O   0  0  0  0  0  0  0  0  0  0  0  0
   38.5570   23.2480   42.5740 H   0  0  0  0  0  0  0  0  0  0  0  0
  1  2  1  0  0  0  0
  1 26  1  0  0  0  0
  3  1  1  0  0  0  0
  4 15  1  0  0  0  0
  4  8  2  0  0  0  0
  5  6  2  0  0  0  0
  5  4  1  0  0  0  0
  6  7  1  0  0  0  0
  7  8  1  0  0  0  0
  7  1  1  0  0  0  0
  9  5  1  0  0  0  0
 10  6  1  0  0  0  0
 11 17  1  0  0  0  0
 12 11  2  0  0  0  0
 13 14  2  0  0  0  0
 13 12  1  0  0  0  0
 14 15  1  0  0  0  0
 15 16  2  0  0  0  0
 16 11  1  0  0  0  0
 18 12  1  0  0  0  0
 19 13  1  0  0  0  0
 20 21  1  0  0  0  0
 20 19  1  0  0  0  0
 21 22  1  0  0  0  0
 22 23  1  0  0  0  0
 24 22  1  0  0  0  0
 25 19  1  0  0  0  0
 25 24  1  0  0  0  0
 26 28  1  0  0  0  0
 26 30  1  0  0  0  0
 26 27  1  0  0  0  0
 29 37  2  0  0  0  0
 29 30  1  0  0  0  0
 30 31  2  0  0  0  0
 31 32  1  0  0  0  0
 31 39  1  0  0  0  0
 32 33  1  0  0  0  0
 33 34  1  0  0  0  0
 33 40  1  0  0  0  0
 34 41  1  0  0  0  0
 35 34  2  0  0  0  0
 36 32  2  0  0  0  0
 36 35  1  0  0  0  0
 37 36  1  0  0  0  0
 38 29  1  0  0  0  0
 42 35  1  0  0  0  0
 43 37  1  0  0  0  0
 43 45  1  0  0  0  0
 44 43  2  0  0  0  0
M  END
>  <minimizedAffinity>
-6.50726366

$$$$

 OpenBabel03252506303D

 45 49  0  0  0  0  0  0  0  0999 V2000
   35.1720   29.1870   35.1800 C   0  0  0  0  0  0  0  0  0  0  0  0
   35.1180   30.2750   35.0180 H   0  0  0  0  0  0  0  0  0  0  0  0
   35.8330   28.7690   34.3950 H   0  0  0  0  0  0  0  0  0  0  0  0
   36.2360   27.7820   38.2960 C   0  0  0  0  0  0  0  0  0  0  0  0
   36.5550   29.1360   38.4590 C   0  0  0  0  0  0  0  0  0  0  0  0
   36.2100   29.8130   37.3510 C   0  0  0  0  0  0  0  0  0  0  0  0
   35.6860   28.9040   36.5110 N   0  0  0  0  0  0  0  0  0  0  0  0
   35.6950   27.6900   37.0620 N   0  0  0  0  0  0  0  0  0  0  0  0
   37.0110   29.5420   39.3570 H   0  0  0  0  0  0  0  0  0  0  0  0
   36.3310   30.8700   37.1800 H   0  0  0  0  0  0  0  0  0  0  0  0
   36.3790   24.4960   39.8800 C   0  0  0  0  0  0  0  0  0  0  0  0
   36.8880   24.7720   41.1360 C   0  0  0  0  0  0  0  0  0  0  0  0
   37.1860   26.0950   41.4460 C   0  0  0  0  0  0  0  0  0  0  0  0
   36.9480   27.0160   40.4740 N   0  0  0  0  0  0  0  0  0  0  0  0
   36.4620   26.7390   39.2790 C   0  0  0  0  0  0  0  0  0  0  0  0
   36.1720   25.4610   38.9750 N   0  0  0  0  0  0  0  0  0  0  0  0
   36.1680   23.4470   39.7000 H   0  0  0  0  0  0  0  0  0  0  0  0
   37.0970   24.0890   41.9420 H   0  0  0  0  0  0  0  0  0  0  0  0
   37.7140   26.6260   42.6590 N   0  0  0  0  0  0  0  0  0  0  0  0
   37.0130   27.5680   43.5180 C   0  0  0  0  0  2  0  0  0  0  0  0
   37.7870   28.8580   43.4890 C   0  0  0  0  0  2  0  0  0  0  0  0
   39.0650   28.7510   42.6920 C   0  0  0  0  0  3  0  0  0  0  0  0
   38.8650   28.8550   41.6010 H   0  0  0  0  0  0  0  0  0  0  0  0
   39.8720   27.5200   43.0050 C   0  0  0  0  0  2  0  0  0  0  0  0
   39.0270   26.2800   43.1770 C   0  0  0  0  0  2  0  0  0  0  0  0
   33.8080   28.6260   35.0220 C   0  0  0  0  0  0  0  0  0  0  0  0
   33.7770   27.6060   35.4810 H   0  0  0  0  0  0  0  0  0  0  0  0
   33.6640   28.4290   33.9320 H   0  0  0  0  0  0  0  0  0  0  0  0
   32.0430   30.4860   34.8510 C   0  0  0  0  0  0  0  0  0  0  0  0
   32.7050   29.4490   35.4860 C   0  0  0  0  0  0  0  0  0  0  0  0
   32.2470   29.1410   36.7700 C   0  0  0  0  0  0  0  0  0  0  0  0
   31.2090   29.8230   37.3580 C   0  0  0  0  0  0  0  0  0  0  0  0
   30.5810   29.7470   38.5380 N   0  0  0  0  0  0  0  0  0  0  0  0
   29.6090   30.6560   38.6380 C   0  0  0  0  0  0  0  0  0  0  0  0
   29.5720   31.3950   37.4570 C   0  0  0  0  0  0  0  0  0  0  0  0
   30.5730   30.8460   36.7040 C   0  0  0  0  0  0  0  0  0  0  0  0
   31.0120   31.1630   35.4390 C   0  0  0  0  0  0  0  0  0  0  0  0
   32.4370   30.6890   33.8490 H   0  0  0  0  0  0  0  0  0  0  0  0
   32.6740   28.3540   37.3770 H   0  0  0  0  0  0  0  0  0  0  0  0
   30.7980   29.0740   39.3050 H   0  0  0  0  0  0  0  0  0  0  0  0
   28.9420   30.8150   39.4850 H   0  0  0  0  0  0  0  0  0  0  0  0
   28.8940   32.2160   37.2110 H   0  0  0  0  0  0  0  0  0  0  0  0
   30.3750   32.2410   34.6930 C   0  0  0  0  0  0  0  0  0  0  0  0
   30.8360   32.6700   33.6090 O   0  0  0  0  0  0  0  0  0  0  0  0
   29.4630   32.7010   35.0810 H   0  0  0  0  0  0  0  0  0  0  0  0
  1  7  1  0  0  0  0
  2  1  1  0  0  0  0
  3  1  1  0  0  0  0
  4  5  1  0  0  0  0
  4 15  1  0  0  0  0
  5  9  1  0  0  0  0
  6  5  2  0  0  0  0
  7  8  1  0  0  0  0
  7  6  1  0  0  0  0
  8  4  2  0  0  0  0
 10  6  1  0  0  0  0
 11 12  1  0  0  0  0
 12 13  2  0  0  0  0
 12 18  1  0  0  0  0
 13 19  1  0  0  0  0
 14 13  1  0  0  0  0
 15 14  2  0  0  0  0
 16 15  1  0  0  0  0
 16 11  2  0  0  0  0
 17 11  1  0  0  0  0
 19 25  1  0  0  0  0
 19 20  1  0  0  0  0
 21 20  1  0  0  0  0
 22 24  1  0  0  0  0
 22 21  1  0  0  0  0
 23 22  1  0  0  0  0
 24 25  1  0  0  0  0
 26  1  1  0  0  0  0
 26 27  1  0  0  0  0
 26 30  1  0  0  0  0
 28 26  1  0  0  0  0
 29 37  2  0  0  0  0
 29 30  1  0  0  0  0
 30 31  2  0  0  0  0
 31 32  1  0  0  0  0
 31 39  1  0  0  0  0
 32 33  1  0  0  0  0
 33 34  1  0  0  0  0
 33 40  1  0  0  0  0
 34 41  1  0  0  0  0
 35 34  2  0  0  0  0
 36 32  2  0  0  0  0
 36 35  1  0  0  0  0
 37 36  1  0  0  0  0
 38 29  1  0  0  0  0
 42 35  1  0  0  0  0
 43 45  1  0  0  0  0
 43 37  1  0  0  0  0
 44 43  2  0  0  0  0
M  END
>  <minimizedAffinity>
-6.45267487

$$$$

 OpenBabel03252506303D

 45 49  0  0  0  0  0  0  0  0999 V2000
   39.0010   33.9700   40.8630 C   0  0  0  0  0  0  0  0  0  0  0  0
   38.3670   33.9010   41.7600 H   0  0  0  0  0  0  0  0  0  0  0  0
   39.5120   34.9520   40.8930 H   0  0  0  0  0  0  0  0  0  0  0  0
   40.9710   31.0310   41.4060 C   0  0  0  0  0  0  0  0  0  0  0  0
   41.5960   31.6020   40.2900 C   0  0  0  0  0  0  0  0  0  0  0  0
   40.9600   32.7360   39.9550 C   0  0  0  0  0  0  0  0  0  0  0  0
   39.9590   32.8750   40.8410 N   0  0  0  0  0  0  0  0  0  0  0  0
   39.9540   31.8650   41.7110 N   0  0  0  0  0  0  0  0  0  0  0  0
   42.4600   31.1660   39.7970 H   0  0  0  0  0  0  0  0  0  0  0  0
   41.2090   33.3960   39.1400 H   0  0  0  0  0  0  0  0  0  0  0  0
   43.0540   28.4180   42.8790 C   0  0  0  0  0  0  0  0  0  0  0  0
   42.1320   27.4720   43.2880 C   0  0  0  0  0  0  0  0  0  0  0  0
   40.7830   27.7280   43.0590 C   0  0  0  0  0  0  0  0  0  0  0  0
   40.4840   28.9030   42.4440 N   0  0  0  0  0  0  0  0  0  0  0  0
   41.3740   29.7990   42.0580 C   0  0  0  0  0  0  0  0  0  0  0  0
   42.6790   29.5550   42.2770 N   0  0  0  0  0  0  0  0  0  0  0  0
   44.0870   28.1600   43.0860 H   0  0  0  0  0  0  0  0  0  0  0  0
   42.3080   26.5280   43.7780 H   0  0  0  0  0  0  0  0  0  0  0  0
   39.6580   26.9180   43.3850 N   0  0  0  0  0  0  0  0  0  0  0  0
   39.6550   25.4630   43.3560 C   0  0  0  0  0  2  0  0  0  0  0  0
   38.7050   25.0400   42.2680 C   0  0  0  0  0  2  0  0  0  0  0  0
   37.9910   26.2100   41.6350 C   0  0  0  0  0  3  0  0  0  0  0  0
   38.6330   26.7050   40.8710 H   0  0  0  0  0  0  0  0  0  0  0  0
   37.4360   27.1920   42.6300 C   0  0  0  0  0  2  0  0  0  0  0  0
   38.3710   27.4620   43.7860 C   0  0  0  0  0  2  0  0  0  0  0  0
   38.1220   33.9110   39.6690 C   0  0  0  0  0  0  0  0  0  0  0  0
   38.6650   34.3460   38.7930 H   0  0  0  0  0  0  0  0  0  0  0  0
   37.2870   34.6320   39.8470 H   0  0  0  0  0  0  0  0  0  0  0  0
   37.6260   31.8780   38.1770 C   0  0  0  0  0  0  0  0  0  0  0  0
   37.5450   32.6180   39.3440 C   0  0  0  0  0  0  0  0  0  0  0  0
   36.7960   32.0390   40.3720 C   0  0  0  0  0  0  0  0  0  0  0  0
   36.1830   30.8170   40.2300 C   0  0  0  0  0  0  0  0  0  0  0  0
   35.4270   30.0450   41.0200 N   0  0  0  0  0  0  0  0  0  0  0  0
   35.0640   28.9180   40.4050 C   0  0  0  0  0  0  0  0  0  0  0  0
   35.6030   28.9210   39.1210 C   0  0  0  0  0  0  0  0  0  0  0  0
   36.2810   30.1080   39.0620 C   0  0  0  0  0  0  0  0  0  0  0  0
   37.0150   30.6640   38.0390 C   0  0  0  0  0  0  0  0  0  0  0  0
   38.2220   32.3730   37.4030 H   0  0  0  0  0  0  0  0  0  0  0  0
   36.6520   32.5090   41.3360 H   0  0  0  0  0  0  0  0  0  0  0  0
   35.1390   30.2650   41.9990 H   0  0  0  0  0  0  0  0  0  0  0  0
   34.4500   28.1140   40.8140 H   0  0  0  0  0  0  0  0  0  0  0  0
   35.4970   28.1480   38.3570 H   0  0  0  0  0  0  0  0  0  0  0  0
   37.1560   29.9570   36.7720 C   0  0  0  0  0  0  0  0  0  0  0  0
   37.9440   28.9920   36.6260 O   0  0  0  0  0  0  0  0  0  0  0  0
   36.5620   30.2690   35.9100 H   0  0  0  0  0  0  0  0  0  0  0  0
  1  3  1  0  0  0  0
  1  2  1  0  0  0  0
  4  8  2  0  0  0  0
  4 15  1  0  0  0  0
  5  4  1  0  0  0  0
  6  5  2  0  0  0  0
  6  7  1  0  0  0  0
  7  1  1  0  0  0  0
  7  8  1  0  0  0  0
  9  5  1  0  0  0  0
 10  6  1  0  0  0  0
 11 17  1  0  0  0  0
 11 12  1  0  0  0  0
 12 18  1  0  0  0  0
 13 12  2  0  0  0  0
 13 19  1  0  0  0  0
 14 13  1  0  0  0  0
 15 16  1  0  0  0  0
 15 14  2  0  0  0  0
 16 11  2  0  0  0  0
 19 25  1  0  0  0  0
 20 19  1  0  0  0  0
 21 20  1  0  0  0  0
 22 21  1  0  0  0  0
 22 24  1  0  0  0  0
 23 22  1  0  0  0  0
 24 25  1  0  0  0  0
 26 28  1  0  0  0  0
 26  1  1  0  0  0  0
 27 26  1  0  0  0  0
 29 30  1  0  0  0  0
 30 26  1  0  0  0  0
 30 31  2  0  0  0  0
 31 39  1  0  0  0  0
 32 31  1  0  0  0  0
 32 33  1  0  0  0  0
 33 40  1  0  0  0  0
 34 41  1  0  0  0  0
 34 33  1  0  0  0  0
 35 34  2  0  0  0  0
 36 35  1  0  0  0  0
 36 32  2  0  0  0  0
 37 29  2  0  0  0  0
 37 36  1  0  0  0  0
 38 29  1  0  0  0  0
 42 35  1  0  0  0  0
 43 37  1  0  0  0  0
 44 43  2  0  0  0  0
 45 43  1  0  0  0  0
M  END
>  <minimizedAffinity>
-6.39704275

$$$$

 OpenBabel03252506303D

 45 49  0  0  0  0  0  0  0  0999 V2000
   35.1740   29.2850   38.7080 C   0  0  0  0  0  0  0  0  0  0  0  0
   34.7870   29.4740   39.7210 H   0  0  0  0  0  0  0  0  0  0  0  0
   34.3360   29.4390   38.0000 H   0  0  0  0  0  0  0  0  0  0  0  0
   37.7730   31.7460   38.6940 C   0  0  0  0  0  0  0  0  0  0  0  0
   37.9040   31.1730   37.4230 C   0  0  0  0  0  0  0  0  0  0  0  0
   36.9790   30.2100   37.2700 C   0  0  0  0  0  0  0  0  0  0  0  0
   36.2830   30.1800   38.4200 N   0  0  0  0  0  0  0  0  0  0  0  0
   36.7460   31.0910   39.2770 N   0  0  0  0  0  0  0  0  0  0  0  0
   38.6500   31.4840   36.6980 H   0  0  0  0  0  0  0  0  0  0  0  0
   36.8320   29.5930   36.3990 H   0  0  0  0  0  0  0  0  0  0  0  0
   38.8200   34.6960   40.5730 C   0  0  0  0  0  0  0  0  0  0  0  0
   40.1490   34.8410   40.2200 C   0  0  0  0  0  0  0  0  0  0  0  0
   40.6960   33.9200   39.3310 C   0  0  0  0  0  0  0  0  0  0  0  0
   39.8630   32.9450   38.8790 N   0  0  0  0  0  0  0  0  0  0  0  0
   38.5950   32.8180   39.2230 C   0  0  0  0  0  0  0  0  0  0  0  0
   38.0630   33.7060   40.0820 N   0  0  0  0  0  0  0  0  0  0  0  0
   38.4550   35.4440   41.2690 H   0  0  0  0  0  0  0  0  0  0  0  0
   40.8540   35.5880   40.5440 H   0  0  0  0  0  0  0  0  0  0  0  0
   42.0250   33.8580   38.8220 N   0  0  0  0  0  0  0  0  0  0  0  0
   42.3610   33.6790   37.4170 C   0  0  0  0  0  2  0  0  0  0  0  0
   43.0450   32.3450   37.2910 C   0  0  0  0  0  2  0  0  0  0  0  0
   43.2630   31.6740   38.6260 C   0  0  0  0  0  3  0  0  0  0  0  0
   42.3370   31.1570   38.9690 H   0  0  0  0  0  0  0  0  0  0  0  0
   43.8230   32.5900   39.6800 C   0  0  0  0  0  2  0  0  0  0  0  0
   43.2070   33.9690   39.6610 C   0  0  0  0  0  2  0  0  0  0  0  0
   35.6190   27.8710   38.6380 C   0  0  0  0  0  0  0  0  0  0  0  0
   36.1960   27.7160   37.6920 H   0  0  0  0  0  0  0  0  0  0  0  0
   34.7020   27.2500   38.4930 H   0  0  0  0  0  0  0  0  0  0  0  0
   36.4110   27.8410   41.0830 C   0  0  0  0  0  0  0  0  0  0  0  0
   36.3420   27.3550   39.7880 C   0  0  0  0  0  0  0  0  0  0  0  0
   37.0750   26.1920   39.5420 C   0  0  0  0  0  0  0  0  0  0  0  0
   37.8140   25.5740   40.5220 C   0  0  0  0  0  0  0  0  0  0  0  0
   38.5900   24.4840   40.5710 N   0  0  0  0  0  0  0  0  0  0  0  0
   39.1030   24.2980   41.7890 C   0  0  0  0  0  0  0  0  0  0  0  0
   38.6510   25.3220   42.6200 C   0  0  0  0  0  0  0  0  0  0  0  0
   37.8640   26.0780   41.7950 C   0  0  0  0  0  0  0  0  0  0  0  0
   37.1470   27.2240   42.0550 C   0  0  0  0  0  0  0  0  0  0  0  0
   35.8200   28.7520   41.2250 H   0  0  0  0  0  0  0  0  0  0  0  0
   37.1090   25.7070   38.5760 H   0  0  0  0  0  0  0  0  0  0  0  0
   38.7900   23.8380   39.7760 H   0  0  0  0  0  0  0  0  0  0  0  0
   39.7650   23.4930   42.1080 H   0  0  0  0  0  0  0  0  0  0  0  0
   38.8830   25.4660   43.6770 H   0  0  0  0  0  0  0  0  0  0  0  0
   37.1600   27.8080   43.3900 C   0  0  0  0  0  0  0  0  0  0  0  0
   37.7740   28.8700   43.6520 O   0  0  0  0  0  0  0  0  0  0  0  0
   36.6220   27.3130   44.2020 H   0  0  0  0  0  0  0  0  0  0  0  0
  1  2  1  0  0  0  0
  3  1  1  0  0  0  0
  4 15  1  0  0  0  0
  4  8  2  0  0  0  0
  5  4  1  0  0  0  0
  6  5  2  0  0  0  0
  6  7  1  0  0  0  0
  7  1  1  0  0  0  0
  7  8  1  0  0  0  0
  9  5  1  0  0  0  0
 10  6  1  0  0  0  0
 11 17  1  0  0  0  0
 12 18  1  0  0  0  0
 12 11  1  0  0  0  0
 13 12  2  0  0  0  0
 14 15  2  0  0  0  0
 14 13  1  0  0  0  0
 15 16  1  0  0  0  0
 16 11  2  0  0  0  0
 19 13  1  0  0  0  0
 19 25  1  0  0  0  0
 20 19  1  0  0  0  0
 21 20  1  0  0  0  0
 21 22  1  0  0  0  0
 22 23  1  0  0  0  0
 22 24  1  0  0  0  0
 25 24  1  0  0  0  0
 26  1  1  0  0  0  0
 26 30  1  0  0  0  0
 27 26  1  0  0  0  0
 28 26  1  0  0  0  0
 29 38  1  0  0  0  0
 29 37  1  0  0  0  0
 30 29  2  0  0  0  0
 31 30  1  0  0  0  0
 31 32  2  0  0  0  0
 32 33  1  0  0  0  0
 32 36  1  0  0  0  0
 33 34  1  0  0  0  0
 34 41  1  0  0  0  0
 34 35  2  0  0  0  0
 35 42  1  0  0  0  0
 36 37  2  0  0  0  0
 36 35  1  0  0  0  0
 37 43  1  0  0  0  0
 39 31  1  0  0  0  0
 40 33  1  0  0  0  0
 43 44  2  0  0  0  0
 43 45  1  0  0  0  0
M  END
>  <minimizedAffinity>
-6.31629562

$$$$

 OpenBabel03252506303D

 45 49  0  0  0  0  0  0  0  0999 V2000
   34.3790   28.6080   35.7650 C   0  0  0  0  0  0  0  0  0  0  0  0
   34.4210   29.6650   35.4580 H   0  0  0  0  0  0  0  0  0  0  0  0
   34.6780   27.9980   34.8900 H   0  0  0  0  0  0  0  0  0  0  0  0
   36.1710   27.4020   38.6200 C   0  0  0  0  0  0  0  0  0  0  0  0
   36.7970   28.6310   38.3770 C   0  0  0  0  0  0  0  0  0  0  0  0
   36.2270   29.2200   37.3130 C   0  0  0  0  0  0  0  0  0  0  0  0
   35.2630   28.3790   36.8970 N   0  0  0  0  0  0  0  0  0  0  0  0
   35.2190   27.2920   37.6670 N   0  0  0  0  0  0  0  0  0  0  0  0
   37.6160   29.0170   38.9770 H   0  0  0  0  0  0  0  0  0  0  0  0
   36.4920   30.1730   36.8870 H   0  0  0  0  0  0  0  0  0  0  0  0
   36.6090   24.3050   40.5040 C   0  0  0  0  0  0  0  0  0  0  0  0
   37.1590   24.7360   41.6980 C   0  0  0  0  0  0  0  0  0  0  0  0
   37.3830   26.1000   41.8620 C   0  0  0  0  0  0  0  0  0  0  0  0
   37.0370   26.9020   40.8200 N   0  0  0  0  0  0  0  0  0  0  0  0
   36.5130   26.4780   39.6850 C   0  0  0  0  0  0  0  0  0  0  0  0
   36.2940   25.1610   39.5220 N   0  0  0  0  0  0  0  0  0  0  0  0
   36.4590   23.2330   40.4380 H   0  0  0  0  0  0  0  0  0  0  0  0
   37.4520   24.1510   42.5530 H   0  0  0  0  0  0  0  0  0  0  0  0
   37.9330   26.7800   42.9860 N   0  0  0  0  0  0  0  0  0  0  0  0
   37.2490   27.8280   43.7290 C   0  0  0  0  0  2  0  0  0  0  0  0
   38.0250   29.1000   43.5200 C   0  0  0  0  0  2  0  0  0  0  0  0
   39.2890   28.8860   42.7220 C   0  0  0  0  0  3  0  0  0  0  0  0
   39.0700   28.8490   41.6300 H   0  0  0  0  0  0  0  0  0  0  0  0
   40.0990   27.7030   43.1770 C   0  0  0  0  0  2  0  0  0  0  0  0
   39.2550   26.4990   43.5220 C   0  0  0  0  0  2  0  0  0  0  0  0
   32.9780   28.2870   36.1300 C   0  0  0  0  0  0  0  0  0  0  0  0
   32.9660   27.7930   37.1350 H   0  0  0  0  0  0  0  0  0  0  0  0
   32.6400   27.4800   35.4360 H   0  0  0  0  0  0  0  0  0  0  0  0
   31.2500   29.9430   37.0660 C   0  0  0  0  0  0  0  0  0  0  0  0
   32.0180   29.3760   36.0650 C   0  0  0  0  0  0  0  0  0  0  0  0
   31.8520   29.9300   34.7920 C   0  0  0  0  0  0  0  0  0  0  0  0
   30.9830   30.9680   34.5560 C   0  0  0  0  0  0  0  0  0  0  0  0
   30.6310   31.6740   33.4750 N   0  0  0  0  0  0  0  0  0  0  0  0
   29.7210   32.6050   33.7690 C   0  0  0  0  0  0  0  0  0  0  0  0
   29.4360   32.5290   35.1310 C   0  0  0  0  0  0  0  0  0  0  0  0
   30.2360   31.5090   35.5690 C   0  0  0  0  0  0  0  0  0  0  0  0
   30.3870   30.9750   36.8280 C   0  0  0  0  0  0  0  0  0  0  0  0
   31.4160   29.4750   38.0430 H   0  0  0  0  0  0  0  0  0  0  0  0
   32.3900   29.5820   33.9210 H   0  0  0  0  0  0  0  0  0  0  0  0
   31.0010   31.5410   32.5080 H   0  0  0  0  0  0  0  0  0  0  0  0
   29.2610   33.3160   33.0820 H   0  0  0  0  0  0  0  0  0  0  0  0
   28.7350   33.1480   35.6960 H   0  0  0  0  0  0  0  0  0  0  0  0
   29.6200   31.5090   37.9470 C   0  0  0  0  0  0  0  0  0  0  0  0
   29.2440   30.7930   38.9050 O   0  0  0  0  0  0  0  0  0  0  0  0
   29.3530   32.5680   37.9620 H   0  0  0  0  0  0  0  0  0  0  0  0
  1 26  1  0  0  0  0
  1  7  1  0  0  0  0
  2  1  1  0  0  0  0
  3  1  1  0  0  0  0
  4 15  1  0  0  0  0
  5  4  1  0  0  0  0
  5  9  1  0  0  0  0
  6  5  2  0  0  0  0
  7  6  1  0  0  0  0
  7  8  1  0  0  0  0
  8  4  2  0  0  0  0
 10  6  1  0  0  0  0
 11 12  1  0  0  0  0
 12 13  2  0  0  0  0
 12 18  1  0  0  0  0
 13 19  1  0  0  0  0
 14 13  1  0  0  0  0
 15 14  2  0  0  0  0
 16 15  1  0  0  0  0
 16 11  2  0  0  0  0
 17 11  1  0  0  0  0
 19 25  1  0  0  0  0
 19 20  1  0  0  0  0
 21 20  1  0  0  0  0
 22 24  1  0  0  0  0
 22 21  1  0  0  0  0
 23 22  1  0  0  0  0
 24 25  1  0  0  0  0
 26 27  1  0  0  0  0
 28 26  1  0  0  0  0
 29 38  1  0  0  0  0
 30 26  1  0  0  0  0
 30 29  2  0  0  0  0
 31 30  1  0  0  0  0
 32 31  2  0  0  0  0
 32 36  1  0  0  0  0
 33 34  1  0  0  0  0
 33 32  1  0  0  0  0
 34 35  2  0  0  0  0
 35 36  1  0  0  0  0
 35 42  1  0  0  0  0
 36 37  2  0  0  0  0
 37 29  1  0  0  0  0
 37 43  1  0  0  0  0
 39 31  1  0  0  0  0
 40 33  1  0  0  0  0
 41 34  1  0  0  0  0
 43 45  1  0  0  0  0
 43 44  2  0  0  0  0
M  END
>  <minimizedAffinity>
-6.28846455

$$$$

 OpenBabel03252506303D

 45 49  0  0  0  0  0  0  0  0999 V2000
   34.7710   28.2550   34.6070 C   0  0  0  0  0  0  0  0  0  0  0  0
   34.9300   29.2620   34.1910 H   0  0  0  0  0  0  0  0  0  0  0  0
   35.2630   27.5340   33.9250 H   0  0  0  0  0  0  0  0  0  0  0  0
   36.1810   28.8070   37.8510 C   0  0  0  0  0  0  0  0  0  0  0  0
   36.0290   27.4150   37.8290 C   0  0  0  0  0  0  0  0  0  0  0  0
   35.4990   27.0420   36.6530 C   0  0  0  0  0  0  0  0  0  0  0  0
   35.3230   28.1760   35.9510 N   0  0  0  0  0  0  0  0  0  0  0  0
   35.7260   29.2340   36.6530 N   0  0  0  0  0  0  0  0  0  0  0  0
   36.3060   26.7680   38.6550 H   0  0  0  0  0  0  0  0  0  0  0  0
   35.2660   26.0380   36.3420 H   0  0  0  0  0  0  0  0  0  0  0  0
   37.2250   31.6360   39.9090 C   0  0  0  0  0  0  0  0  0  0  0  0
   37.7420   31.0310   41.0400 C   0  0  0  0  0  0  0  0  0  0  0  0
   37.7340   29.6410   41.1020 C   0  0  0  0  0  0  0  0  0  0  0  0
   37.2120   28.9890   40.0290 N   0  0  0  0  0  0  0  0  0  0  0  0
   36.7210   29.5780   38.9550 C   0  0  0  0  0  0  0  0  0  0  0  0
   36.7270   30.9220   38.8910 N   0  0  0  0  0  0  0  0  0  0  0  0
   37.2600   32.7210   39.9220 H   0  0  0  0  0  0  0  0  0  0  0  0
   38.1660   31.4930   41.9160 H   0  0  0  0  0  0  0  0  0  0  0  0
   38.2040   28.7960   42.1480 N   0  0  0  0  0  0  0  0  0  0  0  0
   39.1670   27.7210   41.9670 C   0  0  0  0  0  2  0  0  0  0  0  0
   38.4520   26.4290   42.2560 C   0  0  0  0  0  2  0  0  0  0  0  0
   37.0350   26.6430   42.7310 C   0  0  0  0  0  3  0  0  0  0  0  0
   36.3480   26.8230   41.8730 H   0  0  0  0  0  0  0  0  0  0  0  0
   36.9050   27.7030   43.7910 C   0  0  0  0  0  2  0  0  0  0  0  0
   37.7660   28.9170   43.5300 C   0  0  0  0  0  2  0  0  0  0  0  0
   33.3110   27.9890   34.6310 C   0  0  0  0  0  0  0  0  0  0  0  0
   33.1260   27.0160   35.1510 H   0  0  0  0  0  0  0  0  0  0  0  0
   33.0020   27.7900   33.5770 H   0  0  0  0  0  0  0  0  0  0  0  0
   32.0870   30.2490   34.5990 C   0  0  0  0  0  0  0  0  0  0  0  0
   32.4640   29.0420   35.1630 C   0  0  0  0  0  0  0  0  0  0  0  0
   31.9540   28.7910   36.4400 C   0  0  0  0  0  0  0  0  0  0  0  0
   31.1340   29.6840   37.0880 C   0  0  0  0  0  0  0  0  0  0  0  0
   30.5190   29.7070   38.2760 N   0  0  0  0  0  0  0  0  0  0  0  0
   29.8160   30.8290   38.4460 C   0  0  0  0  0  0  0  0  0  0  0  0
   29.9610   31.6180   37.3060 C   0  0  0  0  0  0  0  0  0  0  0  0
   30.7790   30.8710   36.5030 C   0  0  0  0  0  0  0  0  0  0  0  0
   31.2730   31.1340   35.2450 C   0  0  0  0  0  0  0  0  0  0  0  0
   32.5110   30.3990   33.6000 H   0  0  0  0  0  0  0  0  0  0  0  0
   32.1680   27.8880   36.9950 H   0  0  0  0  0  0  0  0  0  0  0  0
   30.5610   28.9590   39.0030 H   0  0  0  0  0  0  0  0  0  0  0  0
   29.2220   31.1080   39.3160 H   0  0  0  0  0  0  0  0  0  0  0  0
   29.5170   32.5980   37.1190 H   0  0  0  0  0  0  0  0  0  0  0  0
   30.9290   32.3810   34.5710 C   0  0  0  0  0  0  0  0  0  0  0  0
   31.7860   33.0830   33.9830 O   0  0  0  0  0  0  0  0  0  0  0  0
   29.8940   32.7280   34.5720 H   0  0  0  0  0  0  0  0  0  0  0  0
  1 26  1  0  0  0  0
  1  7  1  0  0  0  0
  2  1  1  0  0  0  0
  3  1  1  0  0  0  0
  4 15  1  0  0  0  0
  5  4  1  0  0  0  0
  5  9  1  0  0  0  0
  6  5  2  0  0  0  0
  7  8  1  0  0  0  0
  7  6  1  0  0  0  0
  8  4  2  0  0  0  0
 10  6  1  0  0  0  0
 11 17  1  0  0  0  0
 11 12  1  0  0  0  0
 12 13  2  0  0  0  0
 12 18  1  0  0  0  0
 13 19  1  0  0  0  0
 14 13  1  0  0  0  0
 15 14  2  0  0  0  0
 16 15  1  0  0  0  0
 16 11  2  0  0  0  0
 19 25  1  0  0  0  0
 20 19  1  0  0  0  0
 20 21  1  0  0  0  0
 21 22  1  0  0  0  0
 22 24  1  0  0  0  0
 23 22  1  0  0  0  0
 25 24  1  0  0  0  0
 26 27  1  0  0  0  0
 26 30  1  0  0  0  0
 28 26  1  0  0  0  0
 29 30  2  0  0  0  0
 29 37  1  0  0  0  0
 30 31  1  0  0  0  0
 31 39  1  0  0  0  0
 31 32  2  0  0  0  0
 32 33  1  0  0  0  0
 33 34  1  0  0  0  0
 33 40  1  0  0  0  0
 34 41  1  0  0  0  0
 35 34  2  0  0  0  0
 36 32  1  0  0  0  0
 36 35  1  0  0  0  0
 37 36  2  0  0  0  0
 38 29  1  0  0  0  0
 42 35  1  0  0  0  0
 43 45  1  0  0  0  0
 43 37  1  0  0  0  0
 44 43  2  0  0  0  0
M  END
>  <minimizedAffinity>
-6.25354671

$$$$
