
 OpenBabel03252509283D

 19 20  0  0  0  0  0  0  0  0999 V2000
   46.8670   35.0300   41.9810 C   0  0  0  0  0  0  0  0  0  0  0  0
   47.9740   35.1550   42.1590 H   0  0  0  0  0  0  0  0  0  0  0  0
   46.5640   35.9080   41.3970 H   0  0  0  0  0  0  0  0  0  0  0  0
   44.5270   35.9030   44.7340 C   0  0  0  0  0  0  0  0  0  0  0  0
   45.2260   35.9700   43.5080 C   0  0  0  0  0  0  0  0  0  0  0  0
   46.1480   34.9550   43.2510 C   0  0  0  0  0  0  0  0  0  0  0  0
   46.3240   33.9750   44.1740 N   0  0  0  0  0  0  0  0  0  0  0  0
   45.6310   33.9530   45.3360 C   0  0  0  0  0  0  0  0  0  0  0  0
   44.7420   34.9160   45.6020 N   0  0  0  0  0  0  0  0  0  0  0  0
   43.8050   36.6990   44.9340 H   0  0  0  0  0  0  0  0  0  0  0  0
   45.0650   36.7570   42.7970 H   0  0  0  0  0  0  0  0  0  0  0  0
   45.7380   33.2040   46.0900 H   0  0  0  0  0  0  0  0  0  0  0  0
   46.6220   33.8660   41.1680 N   0  0  0  0  0  0  0  0  0  0  0  0
   47.6390   33.5500   40.2220 C   0  0  0  0  0  2  0  0  0  0  0  0
   47.5770   32.0390   40.0170 C   0  0  0  0  0  2  0  0  0  0  0  0
   46.1940   31.7240   39.5360 C   0  0  0  0  0  3  0  0  0  0  0  0
   45.6420   31.0080   40.2100 H   0  0  0  0  0  0  0  0  0  0  0  0
   45.3120   32.9300   39.3580 C   0  0  0  0  0  2  0  0  0  0  0  0
   45.3470   33.8810   40.5180 C   0  0  0  0  0  2  0  0  0  0  0  0
  1  2  1  0  0  0  0
  1  6  1  0  0  0  0
  3  1  1  0  0  0  0
  4 10  1  0  0  0  0
  4  9  1  0  0  0  0
  5  4  2  0  0  0  0
  6  5  1  0  0  0  0
  6  7  2  0  0  0  0
  7  8  1  0  0  0  0
  8  9  2  0  0  0  0
  8 12  1  0  0  0  0
 11  5  1  0  0  0  0
 13  1  1  0  0  0  0
 14 13  1  0  0  0  0
 15 14  1  0  0  0  0
 16 15  1  0  0  0  0
 16 17  1  0  0  0  0
 18 16  1  0  0  0  0
 18 19  1  0  0  0  0
 19 13  1  0  0  0  0
M  END
>  <minimizedAffinity>
-3.53978682

>  <minimizedRMSD>
0.768679321

$$$$
