
 OpenBabel03252509283D

 19 20  0  0  0  0  0  0  0  0999 V2000
   47.7680   34.1520   42.4230 C   0  0  0  0  0  0  0  0  0  0  0  0
   48.3520   33.2690   42.8110 H   0  0  0  0  0  0  0  0  0  0  0  0
   48.4960   34.9680   42.3370 H   0  0  0  0  0  0  0  0  0  0  0  0
   44.8080   35.8910   43.8490 C   0  0  0  0  0  0  0  0  0  0  0  0
   45.8590   35.5560   42.9660 C   0  0  0  0  0  0  0  0  0  0  0  0
   46.6830   34.4940   43.3410 C   0  0  0  0  0  0  0  0  0  0  0  0
   46.4400   33.8520   44.5120 N   0  0  0  0  0  0  0  0  0  0  0  0
   45.4200   34.2100   45.3260 C   0  0  0  0  0  0  0  0  0  0  0  0
   44.6170   35.2240   44.9850 N   0  0  0  0  0  0  0  0  0  0  0  0
   44.1630   36.7220   43.5540 H   0  0  0  0  0  0  0  0  0  0  0  0
   46.0260   36.0810   42.0460 H   0  0  0  0  0  0  0  0  0  0  0  0
   45.1920   33.7340   46.2550 H   0  0  0  0  0  0  0  0  0  0  0  0
   47.2710   33.8770   41.1000 N   0  0  0  0  0  0  0  0  0  0  0  0
   47.0390   32.5040   40.8010 C   0  0  0  0  0  2  0  0  0  0  0  0
   45.9230   32.4740   39.7630 C   0  0  0  0  0  2  0  0  0  0  0  0
   46.4030   33.2680   38.5870 C   0  0  0  0  0  3  0  0  0  0  0  0
   45.7350   34.1420   38.3390 H   0  0  0  0  0  0  0  0  0  0  0  0
   47.8000   33.8110   38.7370 C   0  0  0  0  0  2  0  0  0  0  0  0
   48.0530   34.4720   40.0590 C   0  0  0  0  0  2  0  0  0  0  0  0
  1  2  1  0  0  0  0
  1  6  1  0  0  0  0
  3  1  1  0  0  0  0
  4  9  1  0  0  0  0
  5  6  1  0  0  0  0
  5  4  2  0  0  0  0
  6  7  2  0  0  0  0
  7  8  1  0  0  0  0
  8 12  1  0  0  0  0
  9  8  2  0  0  0  0
 10  4  1  0  0  0  0
 11  5  1  0  0  0  0
 13  1  1  0  0  0  0
 14 13  1  0  0  0  0
 15 14  1  0  0  0  0
 16 18  1  0  0  0  0
 16 15  1  0  0  0  0
 17 16  1  0  0  0  0
 18 19  1  0  0  0  0
 19 13  1  0  0  0  0
M  END
>  <minimizedAffinity>
-3.64447212

>  <minimizedRMSD>
1.04946578

$$$$
