
 OpenBabel03252509283D

 19 20  0  0  0  0  0  0  0  0999 V2000
   46.9720   34.2350   42.3160 C   0  0  0  0  0  0  0  0  0  0  0  0
   47.6840   33.3860   42.5260 H   0  0  0  0  0  0  0  0  0  0  0  0
   47.6060   35.0840   42.0330 H   0  0  0  0  0  0  0  0  0  0  0  0
   44.5640   35.9550   44.5660 C   0  0  0  0  0  0  0  0  0  0  0  0
   45.3440   35.6590   43.4260 C   0  0  0  0  0  0  0  0  0  0  0  0
   46.1680   34.5350   43.4990 C   0  0  0  0  0  0  0  0  0  0  0  0
   46.1790   33.8000   44.6400 N   0  0  0  0  0  0  0  0  0  0  0  0
   45.4130   34.1230   45.7080 C   0  0  0  0  0  0  0  0  0  0  0  0
   44.6160   35.1950   45.6580 N   0  0  0  0  0  0  0  0  0  0  0  0
   43.9180   36.8350   44.5070 H   0  0  0  0  0  0  0  0  0  0  0  0
   45.3140   36.2590   42.5380 H   0  0  0  0  0  0  0  0  0  0  0  0
   45.3910   33.5740   46.6240 H   0  0  0  0  0  0  0  0  0  0  0  0
   46.1420   33.9200   41.1820 N   0  0  0  0  0  0  0  0  0  0  0  0
   45.3250   32.7610   41.3180 C   0  0  0  0  0  2  0  0  0  0  0  0
   44.1000   32.9960   40.4400 C   0  0  0  0  0  2  0  0  0  0  0  0
   44.6000   33.2130   39.0460 C   0  0  0  0  0  3  0  0  0  0  0  0
   44.3020   34.2130   38.6170 H   0  0  0  0  0  0  0  0  0  0  0  0
   46.0960   33.1020   38.9020 C   0  0  0  0  0  2  0  0  0  0  0  0
   46.8620   33.8610   39.9460 C   0  0  0  0  0  2  0  0  0  0  0  0
  1  2  1  0  0  0  0
  1  6  1  0  0  0  0
  3  1  1  0  0  0  0
  4  9  1  0  0  0  0
  5  6  1  0  0  0  0
  5  4  2  0  0  0  0
  6  7  2  0  0  0  0
  7  8  1  0  0  0  0
  8 12  1  0  0  0  0
  9  8  2  0  0  0  0
 10  4  1  0  0  0  0
 11  5  1  0  0  0  0
 13 14  1  0  0  0  0
 13  1  1  0  0  0  0
 15 14  1  0  0  0  0
 16 15  1  0  0  0  0
 17 16  1  0  0  0  0
 18 16  1  0  0  0  0
 18 19  1  0  0  0  0
 19 13  1  0  0  0  0
M  END
>  <minimizedAffinity>
-3.54643226

>  <minimizedRMSD>
0.63102895

$$$$
