
 OpenBabel03252506193D

 21 22  0  0  0  0  0  0  0  0999 V2000
   37.3060   27.0660   41.5950 C   0  0  0  0  0  0  0  0  0  0  0  0
   37.1500   27.0680   43.0090 C   0  0  0  0  0  0  0  0  0  0  0  0
   37.3410   28.2910   43.6750 C   0  0  0  0  0  0  0  0  0  0  0  0
   37.6610   29.3920   42.9320 N   0  0  0  0  0  0  0  0  0  0  0  0
   37.8000   29.3430   41.5870 C   0  0  0  0  0  0  0  0  0  0  0  0
   37.6180   28.1730   40.9360 N   0  0  0  0  0  0  0  0  0  0  0  0
   36.8980   26.2000   43.5910 H   0  0  0  0  0  0  0  0  0  0  0  0
   37.2330   28.3390   44.7430 H   0  0  0  0  0  0  0  0  0  0  0  0
   38.1330   30.5070   40.8400 N   0  0  0  0  0  0  0  0  0  0  0  0
   37.4440   30.8430   39.6130 C   0  0  0  0  0  2  0  0  0  0  0  0
   37.0660   32.3100   39.5790 C   0  0  0  0  0  2  0  0  0  0  0  0
   38.3690   33.0790   39.6330 C   0  0  0  0  0  3  0  0  0  0  0  0
   38.1770   34.1660   39.5450 H   0  0  0  0  0  0  0  0  0  0  0  0
   38.9650   32.8290   40.9950 C   0  0  0  0  0  2  0  0  0  0  0  0
   39.1870   31.3890   41.3040 C   0  0  0  0  0  2  0  0  0  0  0  0
   37.1050   25.7960   40.9110 C   0  0  0  0  0  3  0  0  0  0  0  0
   37.5250   24.6800   41.4700 C   0  0  0  0  0  3  0  0  0  0  0  0
   37.3550   23.3560   40.8360 C   0  0  0  0  0  0  0  0  0  0  0  0
   37.6800   23.3390   39.7770 H   0  0  0  0  0  0  0  0  0  0  0  0
   37.9210   22.6340   41.4740 H   0  0  0  0  0  0  0  0  0  0  0  0
   36.2810   23.0820   40.9130 H   0  0  0  0  0  0  0  0  0  0  0  0
  1  2  1  0  0  0  0
  2  7  1  0  0  0  0
  2  3  2  0  0  0  0
  3  8  1  0  0  0  0
  4  3  1  0  0  0  0
  5  4  2  0  0  0  0
  6  5  1  0  0  0  0
  6  1  2  0  0  0  0
  9 15  1  0  0  0  0
  9  5  1  0  0  0  0
 10  9  1  0  0  0  0
 11 10  1  0  0  0  0
 11 12  1  0  0  0  0
 12 14  1  0  0  0  0
 13 12  1  0  0  0  0
 14 15  1  0  0  0  0
 16 17  2  0  0  0  0
 16  1  1  0  0  0  0
 18 21  1  0  0  0  0
 18 17  1  0  0  0  0
 18 20  1  0  0  0  0
 19 18  1  0  0  0  0
M  END
>  <minimizedAffinity>
-4.6604104

$$$$

 OpenBabel03252506193D

 21 22  0  0  0  0  0  0  0  0999 V2000
   37.6630   30.2570   41.2720 C   0  0  0  0  0  0  0  0  0  0  0  0
   38.8480   30.4180   42.0400 C   0  0  0  0  0  0  0  0  0  0  0  0
   39.4470   29.2530   42.5500 C   0  0  0  0  0  0  0  0  0  0  0  0
   38.8600   28.0490   42.2810 N   0  0  0  0  0  0  0  0  0  0  0  0
   37.7300   27.9440   41.5450 C   0  0  0  0  0  0  0  0  0  0  0  0
   37.1460   29.0570   41.0480 N   0  0  0  0  0  0  0  0  0  0  0  0
   39.3090   31.3670   42.2500 H   0  0  0  0  0  0  0  0  0  0  0  0
   40.3450   29.3280   43.1360 H   0  0  0  0  0  0  0  0  0  0  0  0
   37.1410   26.6760   41.2800 N   0  0  0  0  0  0  0  0  0  0  0  0
   36.6740   26.3190   39.9580 C   0  0  0  0  0  2  0  0  0  0  0  0
   37.1230   24.9230   39.5750 C   0  0  0  0  0  2  0  0  0  0  0  0
   36.4910   23.9890   40.5840 C   0  0  0  0  0  3  0  0  0  0  0  0
   36.7210   22.9360   40.3290 H   0  0  0  0  0  0  0  0  0  0  0  0
   37.1330   24.2880   41.9150 C   0  0  0  0  0  2  0  0  0  0  0  0
   36.9970   25.7060   42.3490 C   0  0  0  0  0  2  0  0  0  0  0  0
   37.0480   31.4680   40.7440 C   0  0  0  0  0  3  0  0  0  0  0  0
   37.7810   32.3320   40.0730 C   0  0  0  0  0  3  0  0  0  0  0  0
   37.2260   33.5800   39.5080 C   0  0  0  0  0  0  0  0  0  0  0  0
   36.6210   34.1530   40.2370 H   0  0  0  0  0  0  0  0  0  0  0  0
   38.1010   34.1580   39.1220 H   0  0  0  0  0  0  0  0  0  0  0  0
   36.6080   33.3040   38.6280 H   0  0  0  0  0  0  0  0  0  0  0  0
  1  2  1  0  0  0  0
  2  7  1  0  0  0  0
  2  3  2  0  0  0  0
  3  8  1  0  0  0  0
  4  3  1  0  0  0  0
  5  4  2  0  0  0  0
  6  1  2  0  0  0  0
  6  5  1  0  0  0  0
  9  5  1  0  0  0  0
  9 15  1  0  0  0  0
 10  9  1  0  0  0  0
 11 10  1  0  0  0  0
 11 12  1  0  0  0  0
 12 14  1  0  0  0  0
 13 12  1  0  0  0  0
 14 15  1  0  0  0  0
 16  1  1  0  0  0  0
 17 16  2  0  0  0  0
 18 17  1  0  0  0  0
 18 19  1  0  0  0  0
 20 18  1  0  0  0  0
 21 18  1  0  0  0  0
M  END
>  <minimizedAffinity>
-4.47328329

$$$$

 OpenBabel03252506193D

 21 22  0  0  0  0  0  0  0  0999 V2000
   39.0790   27.2780   42.4540 C   0  0  0  0  0  0  0  0  0  0  0  0
   38.2730   27.3890   43.6200 C   0  0  0  0  0  0  0  0  0  0  0  0
   37.3720   28.4660   43.6800 C   0  0  0  0  0  0  0  0  0  0  0  0
   37.3250   29.3330   42.6250 N   0  0  0  0  0  0  0  0  0  0  0  0
   38.1120   29.1890   41.5340 C   0  0  0  0  0  0  0  0  0  0  0  0
   38.9820   28.1570   41.4660 N   0  0  0  0  0  0  0  0  0  0  0  0
   38.3110   26.7040   44.4490 H   0  0  0  0  0  0  0  0  0  0  0  0
   36.7430   28.5880   44.5430 H   0  0  0  0  0  0  0  0  0  0  0  0
   38.0410   30.1080   40.4500 N   0  0  0  0  0  0  0  0  0  0  0  0
   38.0080   29.6570   39.0760 C   0  0  0  0  0  2  0  0  0  0  0  0
   36.9440   30.3880   38.2830 C   0  0  0  0  0  2  0  0  0  0  0  0
   37.3340   31.8510   38.3070 C   0  0  0  0  0  3  0  0  0  0  0  0
   36.6340   32.4450   37.6890 H   0  0  0  0  0  0  0  0  0  0  0  0
   37.1900   32.3150   39.7350 C   0  0  0  0  0  2  0  0  0  0  0  0
   38.0000   31.5340   40.7110 C   0  0  0  0  0  2  0  0  0  0  0  0
   40.0090   26.1590   42.3970 C   0  0  0  0  0  3  0  0  0  0  0  0
   41.1810   26.2550   42.9910 C   0  0  0  0  0  3  0  0  0  0  0  0
   42.1740   25.1600   42.9760 C   0  0  0  0  0  0  0  0  0  0  0  0
   42.3480   24.7470   41.9630 H   0  0  0  0  0  0  0  0  0  0  0  0
   43.1010   25.5810   43.4380 H   0  0  0  0  0  0  0  0  0  0  0  0
   41.8070   24.3640   43.6580 H   0  0  0  0  0  0  0  0  0  0  0  0
  1  2  1  0  0  0  0
  2  3  2  0  0  0  0
  2  7  1  0  0  0  0
  3  8  1  0  0  0  0
  4  3  1  0  0  0  0
  5  4  2  0  0  0  0
  6  5  1  0  0  0  0
  6  1  2  0  0  0  0
  9 15  1  0  0  0  0
  9  5  1  0  0  0  0
 10  9  1  0  0  0  0
 11 12  1  0  0  0  0
 11 10  1  0  0  0  0
 12 14  1  0  0  0  0
 13 12  1  0  0  0  0
 14 15  1  0  0  0  0
 16  1  1  0  0  0  0
 16 17  2  0  0  0  0
 18 17  1  0  0  0  0
 18 20  1  0  0  0  0
 18 21  1  0  0  0  0
 19 18  1  0  0  0  0
M  END
>  <minimizedAffinity>
-4.38652277

$$$$

 OpenBabel03252506193D

 21 22  0  0  0  0  0  0  0  0999 V2000
   40.1060   32.8160   40.3520 C   0  0  0  0  0  0  0  0  0  0  0  0
   39.1380   33.7690   39.9320 C   0  0  0  0  0  0  0  0  0  0  0  0
   37.7860   33.3960   40.0220 C   0  0  0  0  0  0  0  0  0  0  0  0
   37.4850   32.1530   40.5020 N   0  0  0  0  0  0  0  0  0  0  0  0
   38.4410   31.2770   40.8910 C   0  0  0  0  0  0  0  0  0  0  0  0
   39.7440   31.6250   40.8100 N   0  0  0  0  0  0  0  0  0  0  0  0
   39.3780   34.7470   39.5540 H   0  0  0  0  0  0  0  0  0  0  0  0
   37.0210   34.0860   39.7150 H   0  0  0  0  0  0  0  0  0  0  0  0
   38.0980   29.9890   41.3890 N   0  0  0  0  0  0  0  0  0  0  0  0
   38.7250   29.4420   42.5720 C   0  0  0  0  0  2  0  0  0  0  0  0
   37.6990   28.8270   43.5040 C   0  0  0  0  0  2  0  0  0  0  0  0
   37.0530   27.6990   42.7280 C   0  0  0  0  0  3  0  0  0  0  0  0
   36.3330   27.1550   43.3700 H   0  0  0  0  0  0  0  0  0  0  0  0
   36.2740   28.3340   41.6040 C   0  0  0  0  0  2  0  0  0  0  0  0
   37.0970   29.1910   40.7050 C   0  0  0  0  0  2  0  0  0  0  0  0
   41.5050   33.2080   40.2580 C   0  0  0  0  0  3  0  0  0  0  0  0
   42.2240   33.3290   41.3560 C   0  0  0  0  0  3  0  0  0  0  0  0
   43.6480   33.7210   41.3370 C   0  0  0  0  0  0  0  0  0  0  0  0
   43.8420   34.6160   40.7140 H   0  0  0  0  0  0  0  0  0  0  0  0
   43.9410   33.8670   42.4060 H   0  0  0  0  0  0  0  0  0  0  0  0
   44.2310   32.8550   40.9590 H   0  0  0  0  0  0  0  0  0  0  0  0
  1  6  1  0  0  0  0
  2  3  1  0  0  0  0
  2  1  2  0  0  0  0
  3  4  2  0  0  0  0
  4  5  1  0  0  0  0
  5  9  1  0  0  0  0
  6  5  2  0  0  0  0
  7  2  1  0  0  0  0
  8  3  1  0  0  0  0
  9 10  1  0  0  0  0
 10 11  1  0  0  0  0
 12 13  1  0  0  0  0
 12 11  1  0  0  0  0
 14 12  1  0  0  0  0
 15  9  1  0  0  0  0
 15 14  1  0  0  0  0
 16  1  1  0  0  0  0
 16 17  2  0  0  0  0
 18 17  1  0  0  0  0
 18 20  1  0  0  0  0
 19 18  1  0  0  0  0
 21 18  1  0  0  0  0
M  END
>  <minimizedAffinity>
-4.33072042

$$$$

 OpenBabel03252506193D

 21 22  0  0  0  0  0  0  0  0999 V2000
   37.2440   28.5850   41.4580 C   0  0  0  0  0  0  0  0  0  0  0  0
   35.9040   28.8090   41.0400 C   0  0  0  0  0  0  0  0  0  0  0  0
   35.6150   30.0450   40.4370 C   0  0  0  0  0  0  0  0  0  0  0  0
   36.6290   30.9490   40.2910 N   0  0  0  0  0  0  0  0  0  0  0  0
   37.8920   30.6930   40.7040 C   0  0  0  0  0  0  0  0  0  0  0  0
   38.1810   29.5070   41.2850 N   0  0  0  0  0  0  0  0  0  0  0  0
   35.1070   28.0950   41.1560 H   0  0  0  0  0  0  0  0  0  0  0  0
   34.6150   30.2570   40.1060 H   0  0  0  0  0  0  0  0  0  0  0  0
   38.9280   31.6540   40.5380 N   0  0  0  0  0  0  0  0  0  0  0  0
   40.2340   31.2810   40.0400 C   0  0  0  0  0  2  0  0  0  0  0  0
   40.7160   32.2510   38.9800 C   0  0  0  0  0  2  0  0  0  0  0  0
   40.8210   33.5980   39.6620 C   0  0  0  0  0  3  0  0  0  0  0  0
   41.2320   34.3510   38.9630 H   0  0  0  0  0  0  0  0  0  0  0  0
   39.4150   34.0190   40.0110 C   0  0  0  0  0  2  0  0  0  0  0  0
   38.6870   33.0450   40.8710 C   0  0  0  0  0  2  0  0  0  0  0  0
   37.5370   27.3020   42.0800 C   0  0  0  0  0  3  0  0  0  0  0  0
   37.0670   26.1940   41.5440 C   0  0  0  0  0  3  0  0  0  0  0  0
   37.3240   24.8570   42.1180 C   0  0  0  0  0  0  0  0  0  0  0  0
   37.1260   24.8090   43.2070 H   0  0  0  0  0  0  0  0  0  0  0  0
   36.6950   24.1440   41.5310 H   0  0  0  0  0  0  0  0  0  0  0  0
   38.3840   24.6000   41.9090 H   0  0  0  0  0  0  0  0  0  0  0  0
  1 16  1  0  0  0  0
  2  7  1  0  0  0  0
  2  1  2  0  0  0  0
  3  2  1  0  0  0  0
  4  3  2  0  0  0  0
  4  5  1  0  0  0  0
  5  6  2  0  0  0  0
  6  1  1  0  0  0  0
  8  3  1  0  0  0  0
  9  5  1  0  0  0  0
  9 15  1  0  0  0  0
 10  9  1  0  0  0  0
 11 12  1  0  0  0  0
 11 10  1  0  0  0  0
 12 14  1  0  0  0  0
 13 12  1  0  0  0  0
 14 15  1  0  0  0  0
 17 16  2  0  0  0  0
 17 18  1  0  0  0  0
 18 19  1  0  0  0  0
 20 18  1  0  0  0  0
 21 18  1  0  0  0  0
M  END
>  <minimizedAffinity>
-4.3195405

$$$$

 OpenBabel03252506193D

 21 22  0  0  0  0  0  0  0  0999 V2000
   35.5740   29.4660   35.3190 C   0  0  0  0  0  0  0  0  0  0  0  0
   34.2470   28.9750   35.1730 C   0  0  0  0  0  0  0  0  0  0  0  0
   33.5600   28.6210   36.3470 C   0  0  0  0  0  0  0  0  0  0  0  0
   34.2010   28.7680   37.5450 N   0  0  0  0  0  0  0  0  0  0  0  0
   35.4650   29.2400   37.6350 C   0  0  0  0  0  0  0  0  0  0  0  0
   36.1360   29.5840   36.5130 N   0  0  0  0  0  0  0  0  0  0  0  0
   33.7450   28.8600   34.2290 H   0  0  0  0  0  0  0  0  0  0  0  0
   32.5550   28.2450   36.2840 H   0  0  0  0  0  0  0  0  0  0  0  0
   36.1080   29.3830   38.8970 N   0  0  0  0  0  0  0  0  0  0  0  0
   36.8550   30.5740   39.2360 C   0  0  0  0  0  2  0  0  0  0  0  0
   36.5110   31.0610   40.6300 C   0  0  0  0  0  2  0  0  0  0  0  0
   36.9140   29.9480   41.5730 C   0  0  0  0  0  3  0  0  0  0  0  0
   36.7520   30.2580   42.6230 H   0  0  0  0  0  0  0  0  0  0  0  0
   35.9930   28.7870   41.2930 C   0  0  0  0  0  2  0  0  0  0  0  0
   36.0210   28.3190   39.8790 C   0  0  0  0  0  2  0  0  0  0  0  0
   36.2800   29.8320   34.0990 C   0  0  0  0  0  3  0  0  0  0  0  0
   36.0600   31.0080   33.5460 C   0  0  0  0  0  3  0  0  0  0  0  0
   36.7410   31.4480   32.3110 C   0  0  0  0  0  0  0  0  0  0  0  0
   36.7070   30.6900   31.5040 H   0  0  0  0  0  0  0  0  0  0  0  0
   36.2560   32.4120   32.0200 H   0  0  0  0  0  0  0  0  0  0  0  0
   37.7950   31.6830   32.5730 H   0  0  0  0  0  0  0  0  0  0  0  0
  1  6  1  0  0  0  0
  2  1  2  0  0  0  0
  2  3  1  0  0  0  0
  3  4  2  0  0  0  0
  4  5  1  0  0  0  0
  5  9  1  0  0  0  0
  6  5  2  0  0  0  0
  7  2  1  0  0  0  0
  8  3  1  0  0  0  0
  9 10  1  0  0  0  0
  9 15  1  0  0  0  0
 10 11  1  0  0  0  0
 11 12  1  0  0  0  0
 12 13  1  0  0  0  0
 14 12  1  0  0  0  0
 15 14  1  0  0  0  0
 16  1  1  0  0  0  0
 17 16  2  0  0  0  0
 18 21  1  0  0  0  0
 18 17  1  0  0  0  0
 19 18  1  0  0  0  0
 20 18  1  0  0  0  0
M  END
>  <minimizedAffinity>
-4.31502199

$$$$

 OpenBabel03252506193D

 21 22  0  0  0  0  0  0  0  0999 V2000
   36.9670   30.0980   39.3210 C   0  0  0  0  0  0  0  0  0  0  0  0
   35.7690   29.5350   38.8020 C   0  0  0  0  0  0  0  0  0  0  0  0
   35.4710   28.2100   39.1630 C   0  0  0  0  0  0  0  0  0  0  0  0
   36.3420   27.5480   39.9820 N   0  0  0  0  0  0  0  0  0  0  0  0
   37.4720   28.1240   40.4520 C   0  0  0  0  0  0  0  0  0  0  0  0
   37.7690   29.3980   40.1120 N   0  0  0  0  0  0  0  0  0  0  0  0
   35.0850   30.0590   38.1580 H   0  0  0  0  0  0  0  0  0  0  0  0
   34.5750   27.7450   38.7930 H   0  0  0  0  0  0  0  0  0  0  0  0
   38.3610   27.4100   41.3040 N   0  0  0  0  0  0  0  0  0  0  0  0
   38.9180   28.0140   42.4940 C   0  0  0  0  0  2  0  0  0  0  0  0
   38.8350   27.0730   43.6800 C   0  0  0  0  0  2  0  0  0  0  0  0
   39.6660   25.8620   43.3120 C   0  0  0  0  0  3  0  0  0  0  0  0
   39.7070   25.1530   44.1610 H   0  0  0  0  0  0  0  0  0  0  0  0
   38.9520   25.1740   42.1760 C   0  0  0  0  0  2  0  0  0  0  0  0
   38.7270   26.0420   40.9870 C   0  0  0  0  0  2  0  0  0  0  0  0
   37.2700   31.4720   38.9460 C   0  0  0  0  0  3  0  0  0  0  0  0
   37.0540   32.4460   39.8060 C   0  0  0  0  0  3  0  0  0  0  0  0
   37.3380   33.8620   39.4950 C   0  0  0  0  0  0  0  0  0  0  0  0
   36.9230   34.1830   38.5200 H   0  0  0  0  0  0  0  0  0  0  0  0
   36.9330   34.4520   40.3530 H   0  0  0  0  0  0  0  0  0  0  0  0
   38.4410   33.9940   39.5050 H   0  0  0  0  0  0  0  0  0  0  0  0
  1  6  1  0  0  0  0
  2  3  1  0  0  0  0
  2  1  2  0  0  0  0
  3  4  2  0  0  0  0
  4  5  1  0  0  0  0
  5  9  1  0  0  0  0
  6  5  2  0  0  0  0
  7  2  1  0  0  0  0
  8  3  1  0  0  0  0
  9 10  1  0  0  0  0
 10 11  1  0  0  0  0
 12 11  1  0  0  0  0
 12 13  1  0  0  0  0
 14 12  1  0  0  0  0
 15  9  1  0  0  0  0
 15 14  1  0  0  0  0
 16  1  1  0  0  0  0
 16 17  2  0  0  0  0
 18 21  1  0  0  0  0
 18 17  1  0  0  0  0
 18 20  1  0  0  0  0
 19 18  1  0  0  0  0
M  END
>  <minimizedAffinity>
-4.31360865

$$$$

 OpenBabel03252506193D

 21 22  0  0  0  0  0  0  0  0999 V2000
   37.6660   29.9810   37.8060 C   0  0  0  0  0  0  0  0  0  0  0  0
   38.9670   30.5540   37.7830 C   0  0  0  0  0  0  0  0  0  0  0  0
   39.7070   30.5190   38.9780 C   0  0  0  0  0  0  0  0  0  0  0  0
   39.1370   29.9440   40.0780 N   0  0  0  0  0  0  0  0  0  0  0  0
   37.8940   29.4100   40.0540 C   0  0  0  0  0  0  0  0  0  0  0  0
   37.1740   29.4380   38.9110 N   0  0  0  0  0  0  0  0  0  0  0  0
   39.4130   31.0070   36.9150 H   0  0  0  0  0  0  0  0  0  0  0  0
   40.6950   30.9410   39.0060 H   0  0  0  0  0  0  0  0  0  0  0  0
   37.3270   28.8160   41.2160 N   0  0  0  0  0  0  0  0  0  0  0  0
   36.6350   27.5470   41.1570 C   0  0  0  0  0  2  0  0  0  0  0  0
   37.0690   26.6310   42.2850 C   0  0  0  0  0  2  0  0  0  0  0  0
   36.6860   27.3370   43.5680 C   0  0  0  0  0  3  0  0  0  0  0  0
   36.9140   26.6960   44.4410 H   0  0  0  0  0  0  0  0  0  0  0  0
   37.5550   28.5660   43.6640 C   0  0  0  0  0  2  0  0  0  0  0  0
   37.4350   29.4860   42.4980 C   0  0  0  0  0  2  0  0  0  0  0  0
   36.9050   30.0180   36.5650 C   0  0  0  0  0  3  0  0  0  0  0  0
   35.8550   29.2360   36.4200 C   0  0  0  0  0  3  0  0  0  0  0  0
   35.0350   29.2210   35.1910 C   0  0  0  0  0  0  0  0  0  0  0  0
   35.6410   29.1380   34.2670 H   0  0  0  0  0  0  0  0  0  0  0  0
   34.3140   28.3760   35.3130 H   0  0  0  0  0  0  0  0  0  0  0  0
   34.4360   30.1570   35.1740 H   0  0  0  0  0  0  0  0  0  0  0  0
  1  6  1  0  0  0  0
  2  1  2  0  0  0  0
  2  3  1  0  0  0  0
  3  8  1  0  0  0  0
  3  4  2  0  0  0  0
  5  4  1  0  0  0  0
  5  9  1  0  0  0  0
  6  5  2  0  0  0  0
  7  2  1  0  0  0  0
  9 15  1  0  0  0  0
 10  9  1  0  0  0  0
 10 11  1  0  0  0  0
 11 12  1  0  0  0  0
 12 14  1  0  0  0  0
 12 13  1  0  0  0  0
 15 14  1  0  0  0  0
 16  1  1  0  0  0  0
 17 16  2  0  0  0  0
 18 20  1  0  0  0  0
 18 17  1  0  0  0  0
 19 18  1  0  0  0  0
 21 18  1  0  0  0  0
M  END
>  <minimizedAffinity>
-4.30036306

$$$$

 OpenBabel03252506193D

 21 22  0  0  0  0  0  0  0  0999 V2000
   35.9090   29.2910   37.6870 C   0  0  0  0  0  0  0  0  0  0  0  0
   36.9680   30.0220   37.0820 C   0  0  0  0  0  0  0  0  0  0  0  0
   38.0760   30.3350   37.8890 C   0  0  0  0  0  0  0  0  0  0  0  0
   38.0690   29.9240   39.1920 N   0  0  0  0  0  0  0  0  0  0  0  0
   37.0370   29.2290   39.7250 C   0  0  0  0  0  0  0  0  0  0  0  0
   35.9670   28.9220   38.9590 N   0  0  0  0  0  0  0  0  0  0  0  0
   36.9720   30.3450   36.0560 H   0  0  0  0  0  0  0  0  0  0  0  0
   38.9000   30.8870   37.4730 H   0  0  0  0  0  0  0  0  0  0  0  0
   37.0570   28.8130   41.0850 N   0  0  0  0  0  0  0  0  0  0  0  0
   36.6680   27.4750   41.4740 C   0  0  0  0  0  2  0  0  0  0  0  0
   37.6540   26.8780   42.4580 C   0  0  0  0  0  2  0  0  0  0  0  0
   37.6180   27.7710   43.6800 C   0  0  0  0  0  3  0  0  0  0  0  0
   38.2690   27.3600   44.4750 H   0  0  0  0  0  0  0  0  0  0  0  0
   38.1910   29.1030   43.2620 C   0  0  0  0  0  2  0  0  0  0  0  0
   37.4770   29.7390   42.1200 C   0  0  0  0  0  2  0  0  0  0  0  0
   34.7650   28.9680   36.8460 C   0  0  0  0  0  3  0  0  0  0  0  0
   33.5500   29.0170   37.3520 C   0  0  0  0  0  3  0  0  0  0  0  0
   32.3420   28.7040   36.5580 C   0  0  0  0  0  0  0  0  0  0  0  0
   32.4290   27.7550   35.9940 H   0  0  0  0  0  0  0  0  0  0  0  0
   31.4910   28.7010   37.2830 H   0  0  0  0  0  0  0  0  0  0  0  0
   32.1690   29.5510   35.8610 H   0  0  0  0  0  0  0  0  0  0  0  0
  1  6  1  0  0  0  0
  2  1  2  0  0  0  0
  2  3  1  0  0  0  0
  3  4  2  0  0  0  0
  4  5  1  0  0  0  0
  5  9  1  0  0  0  0
  6  5  2  0  0  0  0
  7  2  1  0  0  0  0
  8  3  1  0  0  0  0
  9 10  1  0  0  0  0
  9 15  1  0  0  0  0
 10 11  1  0  0  0  0
 11 12  1  0  0  0  0
 12 13  1  0  0  0  0
 14 12  1  0  0  0  0
 15 14  1  0  0  0  0
 16 17  2  0  0  0  0
 16  1  1  0  0  0  0
 18 20  1  0  0  0  0
 18 17  1  0  0  0  0
 19 18  1  0  0  0  0
 21 18  1  0  0  0  0
M  END
>  <minimizedAffinity>
-4.29811716

$$$$
