
 OpenBabel03252509283D

 19 20  0  0  0  0  0  0  0  0999 V2000
   47.2630   34.2810   42.2840 C   0  0  0  0  0  0  0  0  0  0  0  0
   47.9730   33.4600   42.5910 H   0  0  0  0  0  0  0  0  0  0  0  0
   47.9000   35.1360   42.0250 H   0  0  0  0  0  0  0  0  0  0  0  0
   44.6440   36.0420   44.2490 C   0  0  0  0  0  0  0  0  0  0  0  0
   45.5310   35.7230   43.1970 C   0  0  0  0  0  0  0  0  0  0  0  0
   46.3470   34.6050   43.3760 C   0  0  0  0  0  0  0  0  0  0  0  0
   46.2510   33.8960   44.5300 N   0  0  0  0  0  0  0  0  0  0  0  0
   45.3840   34.2410   45.5100 C   0  0  0  0  0  0  0  0  0  0  0  0
   44.5930   35.3070   45.3590 N   0  0  0  0  0  0  0  0  0  0  0  0
   44.0050   36.9170   44.1070 H   0  0  0  0  0  0  0  0  0  0  0  0
   45.5860   36.3020   42.2960 H   0  0  0  0  0  0  0  0  0  0  0  0
   45.2750   33.7130   46.4330 H   0  0  0  0  0  0  0  0  0  0  0  0
   46.5470   33.9000   41.0930 N   0  0  0  0  0  0  0  0  0  0  0  0
   45.9140   32.6250   41.1360 C   0  0  0  0  0  2  0  0  0  0  0  0
   44.7110   32.7130   40.2030 C   0  0  0  0  0  2  0  0  0  0  0  0
   45.2380   33.0720   38.8470 C   0  0  0  0  0  3  0  0  0  0  0  0
   44.8100   34.0360   38.4450 H   0  0  0  0  0  0  0  0  0  0  0  0
   46.7380   33.1980   38.7820 C   0  0  0  0  0  2  0  0  0  0  0  0
   47.3250   34.0120   39.8980 C   0  0  0  0  0  2  0  0  0  0  0  0
  1  2  1  0  0  0  0
  1  6  1  0  0  0  0
  3  1  1  0  0  0  0
  4  9  1  0  0  0  0
  5  6  1  0  0  0  0
  5  4  2  0  0  0  0
  6  7  2  0  0  0  0
  7  8  1  0  0  0  0
  8 12  1  0  0  0  0
  9  8  2  0  0  0  0
 10  4  1  0  0  0  0
 11  5  1  0  0  0  0
 13 14  1  0  0  0  0
 13  1  1  0  0  0  0
 15 14  1  0  0  0  0
 16 15  1  0  0  0  0
 17 16  1  0  0  0  0
 18 16  1  0  0  0  0
 18 19  1  0  0  0  0
 19 13  1  0  0  0  0
M  END
>  <minimizedAffinity>
-3.5566864

>  <minimizedRMSD>
0.793086469

$$$$
