
 OpenBabel03252509283D

 19 20  0  0  0  0  0  0  0  0999 V2000
   46.7050   35.0630   41.9460 C   0  0  0  0  0  0  0  0  0  0  0  0
   47.8250   35.0500   42.0760 H   0  0  0  0  0  0  0  0  0  0  0  0
   46.4820   36.0070   41.4330 H   0  0  0  0  0  0  0  0  0  0  0  0
   44.5030   35.9540   44.8060 C   0  0  0  0  0  0  0  0  0  0  0  0
   45.1530   36.0230   43.5540 C   0  0  0  0  0  0  0  0  0  0  0  0
   46.0360   34.9870   43.2440 C   0  0  0  0  0  0  0  0  0  0  0  0
   46.2230   33.9880   44.1440 N   0  0  0  0  0  0  0  0  0  0  0  0
   45.5770   33.9660   45.3330 C   0  0  0  0  0  0  0  0  0  0  0  0
   44.7270   34.9480   45.6490 N   0  0  0  0  0  0  0  0  0  0  0  0
   43.8120   36.7650   45.0480 H   0  0  0  0  0  0  0  0  0  0  0  0
   44.9850   36.8240   42.8620 H   0  0  0  0  0  0  0  0  0  0  0  0
   45.6940   33.2020   46.0700 H   0  0  0  0  0  0  0  0  0  0  0  0
   46.2920   33.9920   41.0770 N   0  0  0  0  0  0  0  0  0  0  0  0
   47.1140   33.7740   39.9340 C   0  0  0  0  0  2  0  0  0  0  0  0
   46.9840   32.2920   39.5910 C   0  0  0  0  0  2  0  0  0  0  0  0
   45.5310   32.0310   39.3410 C   0  0  0  0  0  3  0  0  0  0  0  0
   45.0940   31.2500   40.0280 H   0  0  0  0  0  0  0  0  0  0  0  0
   44.6550   33.2520   39.4510 C   0  0  0  0  0  2  0  0  0  0  0  0
   44.9210   34.0760   40.6760 C   0  0  0  0  0  2  0  0  0  0  0  0
  1  2  1  0  0  0  0
  1  6  1  0  0  0  0
  3  1  1  0  0  0  0
  4 10  1  0  0  0  0
  4  9  1  0  0  0  0
  5  4  2  0  0  0  0
  6  5  1  0  0  0  0
  6  7  2  0  0  0  0
  7  8  1  0  0  0  0
  8  9  2  0  0  0  0
  8 12  1  0  0  0  0
 11  5  1  0  0  0  0
 13  1  1  0  0  0  0
 14 13  1  0  0  0  0
 15 14  1  0  0  0  0
 16 18  1  0  0  0  0
 16 15  1  0  0  0  0
 16 17  1  0  0  0  0
 18 19  1  0  0  0  0
 19 13  1  0  0  0  0
M  END
>  <minimizedAffinity>
-3.62176037

>  <minimizedRMSD>
0.451156318

$$$$
