
 OpenBabel03252509253D

 25 27  0  0  1  0  0  0  0  0999 V2000
   37.5830   28.9130   41.2650 C   0  0  1  0  0  0  0  0  0  0  0  0
   36.4810   27.8920   40.8900 C   0  0  0  0  0  0  0  0  0  0  0  0
   38.0200   27.6100   40.9160 C   0  0  2  0  0  0  0  0  0  0  0  0
   37.5030   29.2870   42.3010 H   0  0  0  0  0  0  0  0  0  0  0  0
   35.8950   27.5710   41.7580 H   0  0  0  0  0  0  0  0  0  0  0  0
   36.0110   27.9520   39.8990 H   0  0  0  0  0  0  0  0  0  0  0  0
   38.4410   27.4690   39.8750 H   0  0  0  0  0  0  0  0  0  0  0  0
   36.9220   32.0890   39.3640 C   0  0  0  0  0  0  0  0  0  0  0  0
   36.7510   31.0610   40.3260 C   0  0  0  0  0  0  0  0  0  0  0  0
   37.6360   30.0170   40.2300 C   0  0  0  0  0  0  0  0  0  0  0  0
   38.6220   29.9930   39.2440 N   0  0  0  0  0  0  0  0  0  0  0  0
   38.7330   30.9890   38.3660 C   0  0  0  0  0  0  0  0  0  0  0  0
   37.8760   32.0480   38.4250 N   0  0  0  0  0  0  0  0  0  0  0  0
   36.2490   32.9120   39.4140 H   0  0  0  0  0  0  0  0  0  0  0  0
   39.5450   30.8140   37.6730 H   0  0  0  0  0  0  0  0  0  0  0  0
   35.7190   31.0670   41.3140 N   0  0  0  0  0  0  0  0  0  0  0  0
   34.6690   30.9940   41.1690 H   0  0  0  0  0  0  0  0  0  0  0  0
   36.1770   31.1600   42.2540 H   0  0  0  0  0  0  0  0  0  0  0  0
   38.4760   26.5940   41.8100 N   0  0  0  0  0  0  0  0  0  0  0  0
   39.5000   27.0200   42.7100 C   0  0  0  0  0  2  0  0  0  0  0  0
   39.9120   25.9440   43.6510 C   0  0  0  0  0  2  0  0  0  0  0  0
   39.9380   24.5590   43.1000 C   0  0  0  0  0  3  0  0  0  0  0  0
   39.8340   23.8590   43.9790 H   0  0  0  0  0  0  0  0  0  0  0  0
   38.7530   24.2650   42.2020 C   0  0  0  0  0  2  0  0  0  0  0  0
   38.7630   25.3420   41.1370 C   0  0  0  0  0  2  0  0  0  0  0  0
  1  4  1  1  0  0  0
  2  3  1  0  0  0  0
  2  1  1  0  0  0  0
  2  5  1  0  0  0  0
  3  7  1  6  0  0  0
  3  1  1  0  0  0  0
  3 19  1  0  0  0  0
  6  2  1  0  0  0  0
  8 14  1  0  0  0  0
  8  9  1  0  0  0  0
  9 16  1  0  0  0  0
 10  9  2  0  0  0  0
 10  1  1  0  0  0  0
 11 10  1  0  0  0  0
 12 13  1  0  0  0  0
 12 11  2  0  0  0  0
 13  8  2  0  0  0  0
 15 12  1  0  0  0  0
 16 18  1  0  0  0  0
 17 16  1  0  0  0  0
 19 20  1  0  0  0  0
 20 21  1  0  0  0  0
 22 21  1  0  0  0  0
 22 23  1  0  0  0  0
 24 22  1  0  0  0  0
 25 19  1  0  0  0  0
 25 24  1  0  0  0  0
M  END
>  <minimizedAffinity>
-4.81934977

$$$$

 OpenBabel03252509253D

 25 27  0  0  1  0  0  0  0  0999 V2000
   38.2260   31.3660   40.5890 C   0  0  1  0  0  0  0  0  0  0  0  0
   37.0610   30.8990   39.6830 C   0  0  0  0  0  0  0  0  0  0  0  0
   38.1200   29.9700   40.3630 C   0  0  2  0  0  0  0  0  0  0  0  0
   37.8920   31.8750   41.5100 H   0  0  0  0  0  0  0  0  0  0  0  0
   36.0860   30.9950   40.1740 H   0  0  0  0  0  0  0  0  0  0  0  0
   37.1460   31.0250   38.5950 H   0  0  0  0  0  0  0  0  0  0  0  0
   38.8290   29.5140   39.6070 H   0  0  0  0  0  0  0  0  0  0  0  0
   40.5240   34.1040   39.4240 C   0  0  0  0  0  0  0  0  0  0  0  0
   39.5320   33.4460   40.1950 C   0  0  0  0  0  0  0  0  0  0  0  0
   39.2150   32.1770   39.7800 C   0  0  0  0  0  0  0  0  0  0  0  0
   39.8380   31.6020   38.6720 N   0  0  0  0  0  0  0  0  0  0  0  0
   40.7630   32.2710   37.9850 C   0  0  0  0  0  0  0  0  0  0  0  0
   41.1120   33.5350   38.3640 N   0  0  0  0  0  0  0  0  0  0  0  0
   40.7910   35.0900   39.7230 H   0  0  0  0  0  0  0  0  0  0  0  0
   41.1440   31.6840   37.1610 H   0  0  0  0  0  0  0  0  0  0  0  0
   38.8680   34.0470   41.3070 N   0  0  0  0  0  0  0  0  0  0  0  0
   38.2020   34.8750   41.3070 H   0  0  0  0  0  0  0  0  0  0  0  0
   39.1510   33.5210   42.1700 H   0  0  0  0  0  0  0  0  0  0  0  0
   37.6280   28.9910   41.2800 N   0  0  0  0  0  0  0  0  0  0  0  0
   37.9510   29.2520   42.6460 C   0  0  0  0  0  2  0  0  0  0  0  0
   37.3810   28.2330   43.5690 C   0  0  0  0  0  2  0  0  0  0  0  0
   37.3550   26.8290   43.0670 C   0  0  0  0  0  3  0  0  0  0  0  0
   36.5450   26.2950   43.6420 H   0  0  0  0  0  0  0  0  0  0  0  0
   36.9480   26.7370   41.6090 C   0  0  0  0  0  2  0  0  0  0  0  0
   37.9060   27.6340   40.8540 C   0  0  0  0  0  2  0  0  0  0  0  0
  1  4  1  1  0  0  0
  2  5  1  0  0  0  0
  2  3  1  0  0  0  0
  2  1  1  0  0  0  0
  3  7  1  6  0  0  0
  3  1  1  0  0  0  0
  3 19  1  0  0  0  0
  6  2  1  0  0  0  0
  8 14  1  0  0  0  0
  8  9  1  0  0  0  0
  9 16  1  0  0  0  0
 10  9  2  0  0  0  0
 10  1  1  0  0  0  0
 11 10  1  0  0  0  0
 12 13  1  0  0  0  0
 12 11  2  0  0  0  0
 13  8  2  0  0  0  0
 15 12  1  0  0  0  0
 16 17  1  0  0  0  0
 16 18  1  0  0  0  0
 19 20  1  0  0  0  0
 20 21  1  0  0  0  0
 22 21  1  0  0  0  0
 22 23  1  0  0  0  0
 24 22  1  0  0  0  0
 25 19  1  0  0  0  0
 25 24  1  0  0  0  0
M  END
>  <minimizedAffinity>
-4.7610774

$$$$

 OpenBabel03252509253D

 25 27  0  0  1  0  0  0  0  0999 V2000
   36.1040   28.5610   39.7310 C   0  0  1  0  0  0  0  0  0  0  0  0
   35.4800   27.7650   38.5590 C   0  0  0  0  0  0  0  0  0  0  0  0
   36.7800   27.3780   39.3380 C   0  0  2  0  0  0  0  0  0  0  0  0
   35.4440   28.6370   40.6130 H   0  0  0  0  0  0  0  0  0  0  0  0
   34.5510   27.2590   38.8460 H   0  0  0  0  0  0  0  0  0  0  0  0
   35.6130   28.1310   37.5330 H   0  0  0  0  0  0  0  0  0  0  0  0
   37.7070   27.5020   38.6990 H   0  0  0  0  0  0  0  0  0  0  0  0
   37.0270   32.2000   39.5350 C   0  0  0  0  0  0  0  0  0  0  0  0
   36.4650   31.0020   40.0440 C   0  0  0  0  0  0  0  0  0  0  0  0
   36.6020   29.9020   39.2360 C   0  0  0  0  0  0  0  0  0  0  0  0
   37.2520   29.9860   38.0040 N   0  0  0  0  0  0  0  0  0  0  0  0
   37.7600   31.1420   37.5780 C   0  0  0  0  0  0  0  0  0  0  0  0
   37.6480   32.2610   38.3500 N   0  0  0  0  0  0  0  0  0  0  0  0
   36.9360   33.0710   40.1400 H   0  0  0  0  0  0  0  0  0  0  0  0
   38.2270   31.0330   36.6090 H   0  0  0  0  0  0  0  0  0  0  0  0
   35.7670   30.9230   41.2880 N   0  0  0  0  0  0  0  0  0  0  0  0
   34.8430   31.3740   41.5540 H   0  0  0  0  0  0  0  0  0  0  0  0
   36.3350   30.3210   41.9340 H   0  0  0  0  0  0  0  0  0  0  0  0
   36.7760   26.1240   40.0210 N   0  0  0  0  0  0  0  0  0  0  0  0
   37.0810   26.2140   41.4130 C   0  0  0  0  0  2  0  0  0  0  0  0
   37.0210   24.8920   42.0940 C   0  0  0  0  0  2  0  0  0  0  0  0
   37.4980   23.7210   41.3040 C   0  0  0  0  0  3  0  0  0  0  0  0
   37.0030   22.8090   41.7470 H   0  0  0  0  0  0  0  0  0  0  0  0
   37.0440   23.7670   39.8580 C   0  0  0  0  0  2  0  0  0  0  0  0
   37.5210   25.0990   39.3170 C   0  0  0  0  0  2  0  0  0  0  0  0
  1  4  1  1  0  0  0
  2  5  1  0  0  0  0
  2  3  1  0  0  0  0
  2  1  1  0  0  0  0
  3  7  1  6  0  0  0
  3  1  1  0  0  0  0
  3 19  1  0  0  0  0
  6  2  1  0  0  0  0
  8  9  1  0  0  0  0
  8 14  1  0  0  0  0
  9 16  1  0  0  0  0
 10  1  1  0  0  0  0
 10  9  2  0  0  0  0
 11 10  1  0  0  0  0
 12 11  2  0  0  0  0
 12 13  1  0  0  0  0
 13  8  2  0  0  0  0
 15 12  1  0  0  0  0
 16 17  1  0  0  0  0
 16 18  1  0  0  0  0
 19 20  1  0  0  0  0
 20 21  1  0  0  0  0
 22 23  1  0  0  0  0
 22 21  1  0  0  0  0
 24 22  1  0  0  0  0
 25 24  1  0  0  0  0
 25 19  1  0  0  0  0
M  END
>  <minimizedAffinity>
-4.73638582

$$$$

 OpenBabel03252509253D

 25 27  0  0  1  0  0  0  0  0999 V2000
   38.7770   29.1800   42.3170 C   0  0  1  0  0  0  0  0  0  0  0  0
   37.7600   28.9260   43.4560 C   0  0  0  0  0  0  0  0  0  0  0  0
   37.8620   28.1150   42.1220 C   0  0  2  0  0  0  0  0  0  0  0  0
   39.8290   29.0490   42.6280 H   0  0  0  0  0  0  0  0  0  0  0  0
   38.2290   28.4930   44.3460 H   0  0  0  0  0  0  0  0  0  0  0  0
   36.8940   29.5940   43.5590 H   0  0  0  0  0  0  0  0  0  0  0  0
   36.9790   28.3110   41.4400 H   0  0  0  0  0  0  0  0  0  0  0  0
   39.1360   32.7200   41.1020 C   0  0  0  0  0  0  0  0  0  0  0  0
   39.4340   31.5230   41.8020 C   0  0  0  0  0  0  0  0  0  0  0  0
   38.5050   30.5230   41.6720 C   0  0  0  0  0  0  0  0  0  0  0  0
   37.3540   30.6990   40.9030 N   0  0  0  0  0  0  0  0  0  0  0  0
   37.1270   31.8480   40.2690 C   0  0  0  0  0  0  0  0  0  0  0  0
   38.0260   32.8700   40.3680 N   0  0  0  0  0  0  0  0  0  0  0  0
   39.8400   33.5140   41.1840 H   0  0  0  0  0  0  0  0  0  0  0  0
   36.1960   31.8180   39.7210 H   0  0  0  0  0  0  0  0  0  0  0  0
   40.5940   31.3540   42.6190 N   0  0  0  0  0  0  0  0  0  0  0  0
   40.8370   31.8490   43.5260 H   0  0  0  0  0  0  0  0  0  0  0  0
   41.2020   30.6290   42.1630 H   0  0  0  0  0  0  0  0  0  0  0  0
   38.1390   26.7180   42.2340 N   0  0  0  0  0  0  0  0  0  0  0  0
   39.5000   26.3690   41.9810 C   0  0  0  0  0  2  0  0  0  0  0  0
   39.7540   24.9120   42.1520 C   0  0  0  0  0  2  0  0  0  0  0  0
   38.6590   23.9970   41.7210 C   0  0  0  0  0  3  0  0  0  0  0  0
   38.8010   23.0330   42.2900 H   0  0  0  0  0  0  0  0  0  0  0  0
   37.2850   24.5030   42.1120 C   0  0  0  0  0  2  0  0  0  0  0  0
   37.1750   25.8960   41.5290 C   0  0  0  0  0  2  0  0  0  0  0  0
  1  4  1  1  0  0  0
  1  2  1  0  0  0  0
  2  6  1  0  0  0  0
  2  5  1  0  0  0  0
  3  7  1  6  0  0  0
  3 19  1  0  0  0  0
  3  1  1  0  0  0  0
  3  2  1  0  0  0  0
  8 14  1  0  0  0  0
  8  9  1  0  0  0  0
  9 16  1  0  0  0  0
 10  9  2  0  0  0  0
 10  1  1  0  0  0  0
 11 10  1  0  0  0  0
 12 13  1  0  0  0  0
 12 11  2  0  0  0  0
 13  8  2  0  0  0  0
 15 12  1  0  0  0  0
 16 17  1  0  0  0  0
 18 16  1  0  0  0  0
 20 21  1  0  0  0  0
 20 19  1  0  0  0  0
 22 24  1  0  0  0  0
 22 21  1  0  0  0  0
 22 23  1  0  0  0  0
 25 24  1  0  0  0  0
 25 19  1  0  0  0  0
M  END
>  <minimizedAffinity>
-4.6577096

$$$$

 OpenBabel03252509253D

 25 27  0  0  1  0  0  0  0  0999 V2000
   37.3630   27.6870   41.9690 C   0  0  1  0  0  0  0  0  0  0  0  0
   37.3390   28.7690   43.0750 C   0  0  0  0  0  0  0  0  0  0  0  0
   37.9950   28.9180   41.6630 C   0  0  2  0  0  0  0  0  0  0  0  0
   36.3570   27.3970   41.6140 H   0  0  0  0  0  0  0  0  0  0  0  0
   36.3420   29.2010   43.2160 H   0  0  0  0  0  0  0  0  0  0  0  0
   38.0250   28.6770   43.9280 H   0  0  0  0  0  0  0  0  0  0  0  0
   39.1250   28.9470   41.7230 H   0  0  0  0  0  0  0  0  0  0  0  0
   38.8470   24.2470   42.2850 C   0  0  0  0  0  0  0  0  0  0  0  0
   37.9650   25.2760   41.8670 C   0  0  0  0  0  0  0  0  0  0  0  0
   38.2030   26.5100   42.4160 C   0  0  0  0  0  0  0  0  0  0  0  0
   39.2450   26.7100   43.3220 N   0  0  0  0  0  0  0  0  0  0  0  0
   40.0420   25.7030   43.6770 C   0  0  0  0  0  0  0  0  0  0  0  0
   39.8440   24.4590   43.1540 N   0  0  0  0  0  0  0  0  0  0  0  0
   38.6870   23.2780   41.8740 H   0  0  0  0  0  0  0  0  0  0  0  0
   40.7950   26.0270   44.3830 H   0  0  0  0  0  0  0  0  0  0  0  0
   36.8750   25.0640   40.9690 N   0  0  0  0  0  0  0  0  0  0  0  0
   35.9970   24.4850   41.1230 H   0  0  0  0  0  0  0  0  0  0  0  0
   37.0810   25.5940   40.0860 H   0  0  0  0  0  0  0  0  0  0  0  0
   37.4870   29.9540   40.8210 N   0  0  0  0  0  0  0  0  0  0  0  0
   37.1300   29.5190   39.5080 C   0  0  0  0  0  2  0  0  0  0  0  0
   36.5650   30.6200   38.6800 C   0  0  0  0  0  2  0  0  0  0  0  0
   37.1650   31.9700   38.8780 C   0  0  0  0  0  3  0  0  0  0  0  0
   36.3900   32.7200   38.5470 H   0  0  0  0  0  0  0  0  0  0  0  0
   37.4370   32.2810   40.3370 C   0  0  0  0  0  2  0  0  0  0  0  0
   38.3050   31.1500   40.8470 C   0  0  0  0  0  2  0  0  0  0  0  0
  1  4  1  6  0  0  0
  1 10  1  0  0  0  0
  1  2  1  0  0  0  0
  2  5  1  0  0  0  0
  2  6  1  0  0  0  0
  3  7  1  1  0  0  0
  3  1  1  0  0  0  0
  3  2  1  0  0  0  0
  8 13  1  0  0  0  0
  9  8  2  0  0  0  0
  9 10  1  0  0  0  0
 10 11  2  0  0  0  0
 11 12  1  0  0  0  0
 12 15  1  0  0  0  0
 13 12  2  0  0  0  0
 14  8  1  0  0  0  0
 16 17  1  0  0  0  0
 16  9  1  0  0  0  0
 18 16  1  0  0  0  0
 19 25  1  0  0  0  0
 19  3  1  0  0  0  0
 20 19  1  0  0  0  0
 21 22  1  0  0  0  0
 21 20  1  0  0  0  0
 22 24  1  0  0  0  0
 23 22  1  0  0  0  0
 24 25  1  0  0  0  0
M  END
>  <minimizedAffinity>
-4.57094288

$$$$

 OpenBabel03252509253D

 25 27  0  0  1  0  0  0  0  0999 V2000
   39.6100   30.6210   39.0660 C   0  0  1  0  0  0  0  0  0  0  0  0
   39.6770   29.8220   40.3900 C   0  0  0  0  0  0  0  0  0  0  0  0
   38.4530   30.6560   39.8850 C   0  0  2  0  0  0  0  0  0  0  0  0
   39.7160   29.9920   38.1650 H   0  0  0  0  0  0  0  0  0  0  0  0
   39.6500   28.7390   40.2250 H   0  0  0  0  0  0  0  0  0  0  0  0
   40.2370   30.2370   41.2380 H   0  0  0  0  0  0  0  0  0  0  0  0
   38.2900   31.5860   40.5100 H   0  0  0  0  0  0  0  0  0  0  0  0
   41.5680   33.7070   38.1810 C   0  0  0  0  0  0  0  0  0  0  0  0
   40.6850   32.6070   38.0240 C   0  0  0  0  0  0  0  0  0  0  0  0
   40.5880   31.7760   39.1110 C   0  0  0  0  0  0  0  0  0  0  0  0
   41.3190   32.0170   40.2740 N   0  0  0  0  0  0  0  0  0  0  0  0
   42.1340   33.0670   40.3620 C   0  0  0  0  0  0  0  0  0  0  0  0
   42.2610   33.9220   39.3070 N   0  0  0  0  0  0  0  0  0  0  0  0
   41.6640   34.3700   37.3540 H   0  0  0  0  0  0  0  0  0  0  0  0
   42.6220   33.1070   41.3260 H   0  0  0  0  0  0  0  0  0  0  0  0
   39.9640   32.3390   36.8210 N   0  0  0  0  0  0  0  0  0  0  0  0
   40.3490   32.0610   35.8710 H   0  0  0  0  0  0  0  0  0  0  0  0
   38.9420   32.4650   37.0270 H   0  0  0  0  0  0  0  0  0  0  0  0
   37.2320   29.9470   39.6710 N   0  0  0  0  0  0  0  0  0  0  0  0
   36.6960   30.0890   38.3540 C   0  0  0  0  0  2  0  0  0  0  0  0
   35.4490   29.2980   38.1610 C   0  0  0  0  0  2  0  0  0  0  0  0
   34.5300   29.2180   39.3330 C   0  0  0  0  0  3  0  0  0  0  0  0
   33.9090   28.2870   39.1930 H   0  0  0  0  0  0  0  0  0  0  0  0
   35.2690   29.0230   40.6430 C   0  0  0  0  0  2  0  0  0  0  0  0
   36.2660   30.1600   40.7300 C   0  0  0  0  0  2  0  0  0  0  0  0
  1  4  1  6  0  0  0
  1 10  1  0  0  0  0
  1  3  1  0  0  0  0
  1  2  1  0  0  0  0
  2  6  1  0  0  0  0
  3  2  1  0  0  0  0
  3  7  1  1  0  0  0
  5  2  1  0  0  0  0
  8 13  1  0  0  0  0
  9  8  2  0  0  0  0
  9 10  1  0  0  0  0
 10 11  2  0  0  0  0
 11 12  1  0  0  0  0
 12 15  1  0  0  0  0
 13 12  2  0  0  0  0
 14  8  1  0  0  0  0
 16 18  1  0  0  0  0
 16  9  1  0  0  0  0
 17 16  1  0  0  0  0
 19  3  1  0  0  0  0
 19 25  1  0  0  0  0
 20 19  1  0  0  0  0
 21 20  1  0  0  0  0
 21 22  1  0  0  0  0
 22 24  1  0  0  0  0
 23 22  1  0  0  0  0
 24 25  1  0  0  0  0
M  END
>  <minimizedAffinity>
-4.38947296

$$$$

 OpenBabel03252509253D

 25 27  0  0  1  0  0  0  0  0999 V2000
   35.8180   29.7210   39.2290 C   0  0  1  0  0  0  0  0  0  0  0  0
   34.5490   29.1710   39.9230 C   0  0  0  0  0  0  0  0  0  0  0  0
   35.9900   28.5740   40.0440 C   0  0  2  0  0  0  0  0  0  0  0  0
   36.0790   30.7490   39.5370 H   0  0  0  0  0  0  0  0  0  0  0  0
   34.2020   29.8200   40.7350 H   0  0  0  0  0  0  0  0  0  0  0  0
   33.8260   28.5910   39.3340 H   0  0  0  0  0  0  0  0  0  0  0  0
   36.0790   27.5760   39.5180 H   0  0  0  0  0  0  0  0  0  0  0  0
   36.6130   29.5700   35.5570 C   0  0  0  0  0  0  0  0  0  0  0  0
   36.7890   29.8240   36.9410 C   0  0  0  0  0  0  0  0  0  0  0  0
   35.6980   29.5570   37.7290 C   0  0  0  0  0  0  0  0  0  0  0  0
   34.5110   29.0720   37.1800 N   0  0  0  0  0  0  0  0  0  0  0  0
   34.4040   28.8530   35.8700 C   0  0  0  0  0  0  0  0  0  0  0  0
   35.4650   29.1030   35.0490 N   0  0  0  0  0  0  0  0  0  0  0  0
   37.4430   29.7680   34.9210 H   0  0  0  0  0  0  0  0  0  0  0  0
   33.4230   28.4800   35.6110 H   0  0  0  0  0  0  0  0  0  0  0  0
   37.9920   30.3550   37.4990 N   0  0  0  0  0  0  0  0  0  0  0  0
   38.4180   31.3160   37.3520 H   0  0  0  0  0  0  0  0  0  0  0  0
   38.4140   29.6130   38.1100 H   0  0  0  0  0  0  0  0  0  0  0  0
   36.5640   28.5320   41.3510 N   0  0  0  0  0  0  0  0  0  0  0  0
   37.6640   29.4250   41.5370 C   0  0  0  0  0  2  0  0  0  0  0  0
   38.2020   29.3820   42.9240 C   0  0  0  0  0  2  0  0  0  0  0  0
   38.2100   28.0460   43.5870 C   0  0  0  0  0  3  0  0  0  0  0  0
   38.2170   28.2380   44.6990 H   0  0  0  0  0  0  0  0  0  0  0  0
   36.9460   27.2530   43.3180 C   0  0  0  0  0  2  0  0  0  0  0  0
   36.8150   27.1810   41.8110 C   0  0  0  0  0  2  0  0  0  0  0  0
  1  4  1  1  0  0  0
  1  2  1  0  0  0  0
  1  3  1  0  0  0  0
  2  3  1  0  0  0  0
  2  5  1  0  0  0  0
  3  7  1  6  0  0  0
  3 19  1  0  0  0  0
  6  2  1  0  0  0  0
  8  9  1  0  0  0  0
  9 16  1  0  0  0  0
  9 10  2  0  0  0  0
 10  1  1  0  0  0  0
 11 10  1  0  0  0  0
 12 11  2  0  0  0  0
 13  8  2  0  0  0  0
 13 12  1  0  0  0  0
 14  8  1  0  0  0  0
 15 12  1  0  0  0  0
 16 18  1  0  0  0  0
 17 16  1  0  0  0  0
 19 20  1  0  0  0  0
 19 25  1  0  0  0  0
 20 21  1  0  0  0  0
 21 22  1  0  0  0  0
 22 23  1  0  0  0  0
 24 22  1  0  0  0  0
 25 24  1  0  0  0  0
M  END
>  <minimizedAffinity>
-4.34189796

$$$$

 OpenBabel03252509253D

 25 27  0  0  1  0  0  0  0  0999 V2000
   39.2140   30.4560   42.4580 C   0  0  1  0  0  0  0  0  0  0  0  0
   40.7160   30.3180   42.8060 C   0  0  0  0  0  0  0  0  0  0  0  0
   40.1310   30.6600   41.3960 C   0  0  2  0  0  0  0  0  0  0  0  0
   38.7070   31.2690   43.0080 H   0  0  0  0  0  0  0  0  0  0  0  0
   41.0820   31.1520   43.4150 H   0  0  0  0  0  0  0  0  0  0  0  0
   41.1460   29.3150   42.9280 H   0  0  0  0  0  0  0  0  0  0  0  0
   40.2700   29.8080   40.6630 H   0  0  0  0  0  0  0  0  0  0  0  0
   36.6680   27.6920   42.3210 C   0  0  0  0  0  0  0  0  0  0  0  0
   37.2110   29.0000   42.2280 C   0  0  0  0  0  0  0  0  0  0  0  0
   38.5260   29.1150   42.6000 C   0  0  0  0  0  0  0  0  0  0  0  0
   39.2540   28.0080   43.0380 N   0  0  0  0  0  0  0  0  0  0  0  0
   38.6890   26.8040   43.1050 C   0  0  0  0  0  0  0  0  0  0  0  0
   37.3830   26.6420   42.7420 N   0  0  0  0  0  0  0  0  0  0  0  0
   35.6490   27.5720   42.0380 H   0  0  0  0  0  0  0  0  0  0  0  0
   39.3880   26.0600   43.4620 H   0  0  0  0  0  0  0  0  0  0  0  0
   36.4560   30.1400   41.8140 N   0  0  0  0  0  0  0  0  0  0  0  0
   35.6380   30.6030   42.3090 H   0  0  0  0  0  0  0  0  0  0  0  0
   36.8530   30.4700   40.9000 H   0  0  0  0  0  0  0  0  0  0  0  0
   40.5120   31.9120   40.8240 N   0  0  0  0  0  0  0  0  0  0  0  0
   39.4460   32.8570   40.7190 C   0  0  0  0  0  2  0  0  0  0  0  0
   39.8970   34.1610   40.1600 C   0  0  0  0  0  2  0  0  0  0  0  0
   40.9420   34.0980   39.0980 C   0  0  0  0  0  3  0  0  0  0  0  0
   41.4660   35.0970   39.1010 H   0  0  0  0  0  0  0  0  0  0  0  0
   42.0180   33.0720   39.3970 C   0  0  0  0  0  2  0  0  0  0  0  0
   41.2920   31.7610   39.6110 C   0  0  0  0  0  2  0  0  0  0  0  0
  1 10  1  0  0  0  0
  1  2  1  0  0  0  0
  1  4  1  1  0  0  0
  2  6  1  0  0  0  0
  2  5  1  0  0  0  0
  3  7  1  6  0  0  0
  3  1  1  0  0  0  0
  3  2  1  0  0  0  0
  8 13  1  0  0  0  0
  9  8  2  0  0  0  0
  9 10  1  0  0  0  0
 10 11  2  0  0  0  0
 11 12  1  0  0  0  0
 12 15  1  0  0  0  0
 13 12  2  0  0  0  0
 14  8  1  0  0  0  0
 16  9  1  0  0  0  0
 16 17  1  0  0  0  0
 18 16  1  0  0  0  0
 19  3  1  0  0  0  0
 20 19  1  0  0  0  0
 21 20  1  0  0  0  0
 22 23  1  0  0  0  0
 22 24  1  0  0  0  0
 22 21  1  0  0  0  0
 24 25  1  0  0  0  0
 25 19  1  0  0  0  0
M  END
>  <minimizedAffinity>
-4.27976942

$$$$

 OpenBabel03252509253D

 25 27  0  0  1  0  0  0  0  0999 V2000
   38.0780   29.9240   40.4760 C   0  0  1  0  0  0  0  0  0  0  0  0
   38.1760   29.2600   39.0810 C   0  0  0  0  0  0  0  0  0  0  0  0
   38.8170   28.7170   40.4000 C   0  0  2  0  0  0  0  0  0  0  0  0
   37.0440   29.9990   40.8570 H   0  0  0  0  0  0  0  0  0  0  0  0
   37.2260   28.8160   38.7620 H   0  0  0  0  0  0  0  0  0  0  0  0
   38.8660   29.6790   38.3360 H   0  0  0  0  0  0  0  0  0  0  0  0
   39.9460   28.8030   40.3870 H   0  0  0  0  0  0  0  0  0  0  0  0
   38.8550   33.6010   40.5850 C   0  0  0  0  0  0  0  0  0  0  0  0
   38.0870   32.4110   40.5160 C   0  0  0  0  0  0  0  0  0  0  0  0
   38.8120   31.2480   40.4690 C   0  0  0  0  0  0  0  0  0  0  0  0
   40.2070   31.2640   40.4870 N   0  0  0  0  0  0  0  0  0  0  0  0
   40.8750   32.4150   40.5520 C   0  0  0  0  0  0  0  0  0  0  0  0
   40.1940   33.5960   40.6020 N   0  0  0  0  0  0  0  0  0  0  0  0
   38.3190   34.5200   40.6230 H   0  0  0  0  0  0  0  0  0  0  0  0
   41.9440   32.2500   40.5570 H   0  0  0  0  0  0  0  0  0  0  0  0
   36.6590   32.3950   40.4620 N   0  0  0  0  0  0  0  0  0  0  0  0
   36.0260   32.7520   39.6870 H   0  0  0  0  0  0  0  0  0  0  0  0
   36.3110   31.9540   41.3490 H   0  0  0  0  0  0  0  0  0  0  0  0
   38.3930   27.4260   40.8410 N   0  0  0  0  0  0  0  0  0  0  0  0
   37.5680   27.4470   42.0070 C   0  0  0  0  0  2  0  0  0  0  0  0
   37.1130   26.0860   42.4040 C   0  0  0  0  0  2  0  0  0  0  0  0
   38.0920   24.9790   42.2070 C   0  0  0  0  0  3  0  0  0  0  0  0
   37.4920   24.0270   42.1290 H   0  0  0  0  0  0  0  0  0  0  0  0
   38.8470   25.0930   40.8960 C   0  0  0  0  0  2  0  0  0  0  0  0
   39.4800   26.4690   40.9010 C   0  0  0  0  0  2  0  0  0  0  0  0
  1  4  1  1  0  0  0
  2  3  1  0  0  0  0
  2  1  1  0  0  0  0
  3  7  1  1  0  0  0
  3  1  1  0  0  0  0
  3 19  1  0  0  0  0
  5  2  1  0  0  0  0
  6  2  1  0  0  0  0
  8 13  1  0  0  0  0
  8 14  1  0  0  0  0
  9  8  2  0  0  0  0
 10  1  1  0  0  0  0
 10 11  2  0  0  0  0
 10  9  1  0  0  0  0
 11 12  1  0  0  0  0
 12 15  1  0  0  0  0
 12 13  2  0  0  0  0
 16  9  1  0  0  0  0
 16 18  1  0  0  0  0
 17 16  1  0  0  0  0
 19 25  1  0  0  0  0
 19 20  1  0  0  0  0
 20 21  1  0  0  0  0
 22 21  1  0  0  0  0
 23 22  1  0  0  0  0
 24 25  1  0  0  0  0
 24 22  1  0  0  0  0
M  END
>  <minimizedAffinity>
-4.20641661

$$$$
