
 OpenBabel03252505443D

 40 43  0  0  1  0  0  0  0  0999 V2000
   37.6880   30.6260   40.6610 C   0  0  0  0  0  0  0  0  0  0  0  0
   38.8350   31.3440   40.9290 C   0  0  0  0  0  0  0  0  0  0  0  0
   39.6090   31.1270   42.0480 C   0  0  0  0  0  0  0  0  0  0  0  0
   39.2050   30.1680   42.8970 N   0  0  0  0  0  0  0  0  0  0  0  0
   38.0760   29.4530   42.6450 C   0  0  0  0  0  0  0  0  0  0  0  0
   37.3350   29.6770   41.5500 N   0  0  0  0  0  0  0  0  0  0  0  0
   39.1220   32.1010   40.2280 H   0  0  0  0  0  0  0  0  0  0  0  0
   40.4820   31.7160   42.1970 H   0  0  0  0  0  0  0  0  0  0  0  0
   37.4870   30.5790   38.1910 C   0  0  1  0  0  0  0  0  0  0  0  0
   37.3090   32.0870   38.5670 C   0  0  0  0  0  0  0  0  0  0  0  0
   36.8500   30.9170   39.4310 C   0  0  2  0  0  0  0  0  0  0  0  0
   38.5820   30.3100   38.1650 H   0  0  0  0  0  0  0  0  0  0  0  0
   38.1920   32.6420   38.8850 H   0  0  0  0  0  0  0  0  0  0  0  0
   36.4880   32.6250   38.0490 H   0  0  0  0  0  0  0  0  0  0  0  0
   35.7860   30.8770   39.6720 H   0  0  0  0  0  0  0  0  0  0  0  0
   36.7560   30.1800   36.9720 C   0  0  0  0  0  0  0  0  0  0  0  0
   35.8170   29.1410   37.0800 C   0  0  0  0  0  0  0  0  0  0  0  0
   35.1230   28.7570   35.9350 C   0  0  0  0  0  0  0  0  0  0  0  0
   35.3920   29.4120   34.7680 N   0  0  0  0  0  0  0  0  0  0  0  0
   36.2920   30.3940   34.7100 C   0  0  0  0  0  0  0  0  0  0  0  0
   36.9610   30.7650   35.8090 N   0  0  0  0  0  0  0  0  0  0  0  0
   35.6090   28.6310   37.9840 H   0  0  0  0  0  0  0  0  0  0  0  0
   34.3810   27.9450   35.9910 H   0  0  0  0  0  0  0  0  0  0  0  0
   36.4400   30.9960   33.3350 C   0  0  0  0  0  0  0  0  0  0  0  0
   37.4450   31.9490   33.3030 F   0  0  0  0  0  0  0  0  0  0  0  0
   35.2500   31.6830   33.0100 F   0  0  0  0  0  0  0  0  0  0  0  0
   36.5830   30.0020   32.4100 F   0  0  0  0  0  0  0  0  0  0  0  0
   37.5950   28.3900   43.5700 C   0  0  0  0  0  0  0  0  0  0  0  0
   37.4750   28.8050   44.6000 H   0  0  0  0  0  0  0  0  0  0  0  0
   36.5870   28.0620   43.2520 H   0  0  0  0  0  0  0  0  0  0  0  0
   38.6020   27.2680   43.6500 C   0  0  0  0  0  0  0  0  0  0  0  0
   39.6060   27.7280   43.7030 H   0  0  0  0  0  0  0  0  0  0  0  0
   38.4370   26.7440   44.6070 H   0  0  0  0  0  0  0  0  0  0  0  0
   38.5280   26.2980   42.6060 N   0  0  0  0  0  0  0  0  0  0  0  0
   37.1250   25.9340   42.4470 C   0  0  0  0  0  2  0  0  0  0  0  0
   36.9600   25.1300   41.1540 C   0  0  0  0  0  2  0  0  0  0  0  0
   37.7200   23.8430   41.4060 C   0  0  0  0  0  3  0  0  0  0  0  0
   37.2630   23.3670   42.2980 H   0  0  0  0  0  0  0  0  0  0  0  0
   39.1470   24.1830   41.6930 C   0  0  0  0  0  2  0  0  0  0  0  0
   39.3370   25.1210   42.8560 C   0  0  0  0  0  2  0  0  0  0  0  0
  1  2  2  0  0  0  0
  1  6  1  0  0  0  0
  2  3  1  0  0  0  0
  3  8  1  0  0  0  0
  3  4  2  0  0  0  0
  5  4  1  0  0  0  0
  5 28  1  0  0  0  0
  6  5  2  0  0  0  0
  7  2  1  0  0  0  0
  9 12  1  1  0  0  0
  9 10  1  0  0  0  0
  9 11  1  0  0  0  0
 10 13  1  0  0  0  0
 10 11  1  0  0  0  0
 11 15  1  1  0  0  0
 11  1  1  0  0  0  0
 14 10  1  0  0  0  0
 16 17  1  0  0  0  0
 16  9  1  0  0  0  0
 17 22  1  0  0  0  0
 18 23  1  0  0  0  0
 18 17  2  0  0  0  0
 19 18  1  0  0  0  0
 20 19  2  0  0  0  0
 20 21  1  0  0  0  0
 21 16  2  0  0  0  0
 24 20  1  0  0  0  0
 25 24  1  0  0  0  0
 26 24  1  0  0  0  0
 27 24  1  0  0  0  0
 28 31  1  0  0  0  0
 28 29  1  0  0  0  0
 30 28  1  0  0  0  0
 31 32  1  0  0  0  0
 31 33  1  0  0  0  0
 34 40  1  0  0  0  0
 34 31  1  0  0  0  0
 35 34  1  0  0  0  0
 36 37  1  0  0  0  0
 36 35  1  0  0  0  0
 37 39  1  0  0  0  0
 37 38  1  0  0  0  0
 39 40  1  0  0  0  0
M  END
>  <minimizedAffinity>
-6.07824421

$$$$

 OpenBabel03252505443D

 40 43  0  0  1  0  0  0  0  0999 V2000
   36.8980   30.4180   38.9800 C   0  0  0  0  0  0  0  0  0  0  0  0
   36.0330   29.8490   38.0690 C   0  0  0  0  0  0  0  0  0  0  0  0
   35.3030   28.7130   38.3390 C   0  0  0  0  0  0  0  0  0  0  0  0
   35.4600   28.1550   39.5510 N   0  0  0  0  0  0  0  0  0  0  0  0
   36.3100   28.7060   40.4590 C   0  0  0  0  0  0  0  0  0  0  0  0
   37.0130   29.8130   40.1790 N   0  0  0  0  0  0  0  0  0  0  0  0
   35.9360   30.3230   37.1140 H   0  0  0  0  0  0  0  0  0  0  0  0
   34.6530   28.3230   37.5910 H   0  0  0  0  0  0  0  0  0  0  0  0
   38.4290   32.2160   39.7350 C   0  0  1  0  0  0  0  0  0  0  0  0
   37.1780   32.9760   39.1820 C   0  0  0  0  0  0  0  0  0  0  0  0
   37.7040   31.6550   38.6310 C   0  0  2  0  0  0  0  0  0  0  0  0
   38.2350   31.8590   40.7870 H   0  0  0  0  0  0  0  0  0  0  0  0
   36.2640   32.9550   39.7760 H   0  0  0  0  0  0  0  0  0  0  0  0
   37.3880   33.8560   38.5390 H   0  0  0  0  0  0  0  0  0  0  0  0
   37.9880   31.6440   37.5780 H   0  0  0  0  0  0  0  0  0  0  0  0
   39.6910   32.9670   39.5940 C   0  0  0  0  0  0  0  0  0  0  0  0
   39.9460   34.0000   40.5110 C   0  0  0  0  0  0  0  0  0  0  0  0
   41.1340   34.7160   40.3870 C   0  0  0  0  0  0  0  0  0  0  0  0
   41.9890   34.3740   39.3790 N   0  0  0  0  0  0  0  0  0  0  0  0
   41.7090   33.3850   38.5300 C   0  0  0  0  0  0  0  0  0  0  0  0
   40.5670   32.6960   38.6480 N   0  0  0  0  0  0  0  0  0  0  0  0
   39.2830   34.2670   41.2920 H   0  0  0  0  0  0  0  0  0  0  0  0
   41.3590   35.5310   41.0920 H   0  0  0  0  0  0  0  0  0  0  0  0
   42.7810   33.1570   37.4940 C   0  0  0  0  0  0  0  0  0  0  0  0
   42.3940   32.2070   36.5620 F   0  0  0  0  0  0  0  0  0  0  0  0
   43.9230   32.6250   38.1320 F   0  0  0  0  0  0  0  0  0  0  0  0
   43.1580   34.3510   36.9500 F   0  0  0  0  0  0  0  0  0  0  0  0
   36.5160   28.1080   41.8070 C   0  0  0  0  0  0  0  0  0  0  0  0
   35.5340   27.9840   42.3240 H   0  0  0  0  0  0  0  0  0  0  0  0
   36.9330   27.0890   41.6910 H   0  0  0  0  0  0  0  0  0  0  0  0
   37.3660   29.0180   42.6610 C   0  0  0  0  0  0  0  0  0  0  0  0
   37.6100   29.9080   42.0530 H   0  0  0  0  0  0  0  0  0  0  0  0
   36.7380   29.3630   43.5000 H   0  0  0  0  0  0  0  0  0  0  0  0
   38.5410   28.4250   43.2130 N   0  0  0  0  0  0  0  0  0  0  0  0
   39.6540   28.7620   42.3320 C   0  0  0  0  0  2  0  0  0  0  0  0
   40.9690   28.4070   43.0310 C   0  0  0  0  0  2  0  0  0  0  0  0
   40.9440   26.8960   43.1460 C   0  0  0  0  0  3  0  0  0  0  0  0
   40.8550   26.4950   42.1170 H   0  0  0  0  0  0  0  0  0  0  0  0
   39.7440   26.5010   43.9460 C   0  0  0  0  0  2  0  0  0  0  0  0
   38.4370   26.9890   43.3800 C   0  0  0  0  0  2  0  0  0  0  0  0
  1  6  1  0  0  0  0
  2  3  1  0  0  0  0
  2  1  2  0  0  0  0
  3  4  2  0  0  0  0
  4  5  1  0  0  0  0
  5 28  1  0  0  0  0
  6  5  2  0  0  0  0
  7  2  1  0  0  0  0
  8  3  1  0  0  0  0
  9 12  1  1  0  0  0
 10  9  1  0  0  0  0
 10 13  1  0  0  0  0
 11 15  1  6  0  0  0
 11  1  1  0  0  0  0
 11 10  1  0  0  0  0
 11  9  1  0  0  0  0
 14 10  1  0  0  0  0
 16  9  1  0  0  0  0
 16 17  1  0  0  0  0
 17 22  1  0  0  0  0
 18 17  2  0  0  0  0
 18 23  1  0  0  0  0
 19 18  1  0  0  0  0
 20 21  1  0  0  0  0
 20 19  2  0  0  0  0
 21 16  2  0  0  0  0
 24 26  1  0  0  0  0
 24 20  1  0  0  0  0
 25 24  1  0  0  0  0
 27 24  1  0  0  0  0
 28 29  1  0  0  0  0
 28 31  1  0  0  0  0
 30 28  1  0  0  0  0
 31 34  1  0  0  0  0
 31 33  1  0  0  0  0
 32 31  1  0  0  0  0
 34 40  1  0  0  0  0
 35 36  1  0  0  0  0
 35 34  1  0  0  0  0
 36 37  1  0  0  0  0
 37 39  1  0  0  0  0
 38 37  1  0  0  0  0
 40 39  1  0  0  0  0
M  END
>  <minimizedAffinity>
-5.77411127

$$$$

 OpenBabel03252505443D

 40 43  0  0  1  0  0  0  0  0999 V2000
   34.8120   28.9760   36.2220 C   0  0  0  0  0  0  0  0  0  0  0  0
   35.8460   28.4850   35.4520 C   0  0  0  0  0  0  0  0  0  0  0  0
   37.1240   28.3150   35.9360 C   0  0  0  0  0  0  0  0  0  0  0  0
   37.3460   28.6510   37.2170 N   0  0  0  0  0  0  0  0  0  0  0  0
   36.3360   29.1360   37.9880 C   0  0  0  0  0  0  0  0  0  0  0  0
   35.0960   29.2950   37.5010 N   0  0  0  0  0  0  0  0  0  0  0  0
   35.6290   28.2310   34.4340 H   0  0  0  0  0  0  0  0  0  0  0  0
   37.8780   27.9330   35.2880 H   0  0  0  0  0  0  0  0  0  0  0  0
   32.4470   29.6200   36.5910 C   0  0  1  0  0  0  0  0  0  0  0  0
   32.3720   28.1510   36.0550 C   0  0  0  0  0  0  0  0  0  0  0  0
   33.4260   29.1740   35.6410 C   0  0  2  0  0  0  0  0  0  0  0  0
   32.6810   29.6210   37.6940 H   0  0  0  0  0  0  0  0  0  0  0  0
   32.6760   27.3470   36.7250 H   0  0  0  0  0  0  0  0  0  0  0  0
   31.5990   27.9530   35.2850 H   0  0  0  0  0  0  0  0  0  0  0  0
   33.4840   29.4100   34.5770 H   0  0  0  0  0  0  0  0  0  0  0  0
   31.2730   30.4420   36.2390 C   0  0  0  0  0  0  0  0  0  0  0  0
   30.3010   30.6560   37.2300 C   0  0  0  0  0  0  0  0  0  0  0  0
   29.1880   31.4300   36.9090 C   0  0  0  0  0  0  0  0  0  0  0  0
   29.1030   31.9390   35.6450 N   0  0  0  0  0  0  0  0  0  0  0  0
   30.0480   31.7120   34.7340 C   0  0  0  0  0  0  0  0  0  0  0  0
   31.1180   30.9680   35.0410 N   0  0  0  0  0  0  0  0  0  0  0  0
   30.3670   30.2610   38.2100 H   0  0  0  0  0  0  0  0  0  0  0  0
   28.4120   31.6140   37.6670 H   0  0  0  0  0  0  0  0  0  0  0  0
   29.7730   32.3650   33.4030 C   0  0  0  0  0  0  0  0  0  0  0  0
   29.6590   31.4270   32.3890 F   0  0  0  0  0  0  0  0  0  0  0  0
   30.8800   33.1700   33.0560 F   0  0  0  0  0  0  0  0  0  0  0  0
   28.6990   33.2010   33.5120 F   0  0  0  0  0  0  0  0  0  0  0  0
   36.5490   29.5270   39.4090 C   0  0  0  0  0  0  0  0  0  0  0  0
   36.5630   30.6400   39.5020 H   0  0  0  0  0  0  0  0  0  0  0  0
   35.6890   29.1790   40.0130 H   0  0  0  0  0  0  0  0  0  0  0  0
   37.8810   29.0160   39.9000 C   0  0  0  0  0  0  0  0  0  0  0  0
   38.2600   28.3020   39.1450 H   0  0  0  0  0  0  0  0  0  0  0  0
   38.5790   29.8710   39.9130 H   0  0  0  0  0  0  0  0  0  0  0  0
   37.8780   28.4390   41.2050 N   0  0  0  0  0  0  0  0  0  0  0  0
   36.8560   27.3990   41.2200 C   0  0  0  0  0  2  0  0  0  0  0  0
   37.0160   26.5590   42.4900 C   0  0  0  0  0  2  0  0  0  0  0  0
   36.6860   27.5110   43.6220 C   0  0  0  0  0  3  0  0  0  0  0  0
   35.6540   27.8770   43.4460 H   0  0  0  0  0  0  0  0  0  0  0  0
   37.6420   28.6600   43.5690 C   0  0  0  0  0  2  0  0  0  0  0  0
   37.6400   29.4050   42.2600 C   0  0  0  0  0  2  0  0  0  0  0  0
  1  6  1  0  0  0  0
  2  3  1  0  0  0  0
  2  1  2  0  0  0  0
  3  4  2  0  0  0  0
  4  5  1  0  0  0  0
  5 28  1  0  0  0  0
  6  5  2  0  0  0  0
  7  2  1  0  0  0  0
  8  3  1  0  0  0  0
  9 12  1  1  0  0  0
 10  9  1  0  0  0  0
 10 13  1  0  0  0  0
 11 15  1  6  0  0  0
 11 10  1  0  0  0  0
 11  1  1  0  0  0  0
 11  9  1  0  0  0  0
 14 10  1  0  0  0  0
 16  9  1  0  0  0  0
 16 17  1  0  0  0  0
 17 22  1  0  0  0  0
 18 17  2  0  0  0  0
 18 23  1  0  0  0  0
 19 18  1  0  0  0  0
 20 21  1  0  0  0  0
 20 19  2  0  0  0  0
 21 16  2  0  0  0  0
 24 27  1  0  0  0  0
 24 20  1  0  0  0  0
 25 24  1  0  0  0  0
 26 24  1  0  0  0  0
 28 29  1  0  0  0  0
 28 31  1  0  0  0  0
 28 30  1  0  0  0  0
 31 33  1  0  0  0  0
 31 34  1  0  0  0  0
 32 31  1  0  0  0  0
 34 35  1  0  0  0  0
 34 40  1  0  0  0  0
 35 36  1  0  0  0  0
 36 37  1  0  0  0  0
 38 37  1  0  0  0  0
 39 37  1  0  0  0  0
 40 39  1  0  0  0  0
M  END
>  <minimizedAffinity>
-5.71554661

$$$$

 OpenBabel03252505443D

 40 43  0  0  1  0  0  0  0  0999 V2000
   38.5640   31.6620   40.4160 C   0  0  0  0  0  0  0  0  0  0  0  0
   37.2620   31.7100   39.9630 C   0  0  0  0  0  0  0  0  0  0  0  0
   36.2520   30.9510   40.5100 C   0  0  0  0  0  0  0  0  0  0  0  0
   36.5760   30.1360   41.5280 N   0  0  0  0  0  0  0  0  0  0  0  0
   37.8560   30.0790   41.9840 C   0  0  0  0  0  0  0  0  0  0  0  0
   38.8280   30.8260   41.4410 N   0  0  0  0  0  0  0  0  0  0  0  0
   37.0440   32.3710   39.1490 H   0  0  0  0  0  0  0  0  0  0  0  0
   35.2670   31.0330   40.1130 H   0  0  0  0  0  0  0  0  0  0  0  0
   40.6490   32.9760   40.6800 C   0  0  1  0  0  0  0  0  0  0  0  0
   39.6250   33.9900   40.0700 C   0  0  0  0  0  0  0  0  0  0  0  0
   39.6520   32.4950   39.7670 C   0  0  2  0  0  0  0  0  0  0  0  0
   40.4940   32.8890   41.7930 H   0  0  0  0  0  0  0  0  0  0  0  0
   38.8310   34.3660   40.7160 H   0  0  0  0  0  0  0  0  0  0  0  0
   40.0050   34.6310   39.2470 H   0  0  0  0  0  0  0  0  0  0  0  0
   39.7810   32.2120   38.7210 H   0  0  0  0  0  0  0  0  0  0  0  0
   42.0500   33.2470   40.3020 C   0  0  0  0  0  0  0  0  0  0  0  0
   42.8250   34.0300   41.1730 C   0  0  0  0  0  0  0  0  0  0  0  0
   44.1480   34.2920   40.8260 C   0  0  0  0  0  0  0  0  0  0  0  0
   44.6210   33.7730   39.6550 N   0  0  0  0  0  0  0  0  0  0  0  0
   43.8510   33.0340   38.8570 C   0  0  0  0  0  0  0  0  0  0  0  0
   42.5790   32.7810   39.1890 N   0  0  0  0  0  0  0  0  0  0  0  0
   42.4590   34.4340   42.0800 H   0  0  0  0  0  0  0  0  0  0  0  0
   44.7780   34.9030   41.4900 H   0  0  0  0  0  0  0  0  0  0  0  0
   44.5590   32.5470   37.6170 C   0  0  0  0  0  0  0  0  0  0  0  0
   45.1820   33.5880   36.9460 F   0  0  0  0  0  0  0  0  0  0  0  0
   43.5990   32.0330   36.7190 F   0  0  0  0  0  0  0  0  0  0  0  0
   45.3900   31.5120   37.9370 F   0  0  0  0  0  0  0  0  0  0  0  0
   38.2520   29.1810   43.1030 C   0  0  0  0  0  0  0  0  0  0  0  0
   39.2780   28.7770   42.9250 H   0  0  0  0  0  0  0  0  0  0  0  0
   38.3120   29.7710   44.0370 H   0  0  0  0  0  0  0  0  0  0  0  0
   37.3120   28.0030   43.1890 C   0  0  0  0  0  0  0  0  0  0  0  0
   36.6460   28.1730   44.0550 H   0  0  0  0  0  0  0  0  0  0  0  0
   36.6760   28.0210   42.2870 H   0  0  0  0  0  0  0  0  0  0  0  0
   37.9340   26.7200   43.2550 N   0  0  0  0  0  0  0  0  0  0  0  0
   39.3730   26.9380   43.3570 C   0  0  0  0  0  2  0  0  0  0  0  0
   40.0530   25.6180   43.7280 C   0  0  0  0  0  2  0  0  0  0  0  0
   39.8310   24.7230   42.5250 C   0  0  0  0  0  3  0  0  0  0  0  0
   40.2820   25.2360   41.6520 H   0  0  0  0  0  0  0  0  0  0  0  0
   38.3580   24.5700   42.3140 C   0  0  0  0  0  2  0  0  0  0  0  0
   37.6240   25.8710   42.1220 C   0  0  0  0  0  2  0  0  0  0  0  0
  1  6  1  0  0  0  0
  2  1  2  0  0  0  0
  2  3  1  0  0  0  0
  3  4  2  0  0  0  0
  4  5  1  0  0  0  0
  5 28  1  0  0  0  0
  6  5  2  0  0  0  0
  7  2  1  0  0  0  0
  8  3  1  0  0  0  0
  9 12  1  1  0  0  0
 10  9  1  0  0  0  0
 10 13  1  0  0  0  0
 11 15  1  6  0  0  0
 11 10  1  0  0  0  0
 11  1  1  0  0  0  0
 11  9  1  0  0  0  0
 14 10  1  0  0  0  0
 16  9  1  0  0  0  0
 16 17  1  0  0  0  0
 17 22  1  0  0  0  0
 18 17  2  0  0  0  0
 18 23  1  0  0  0  0
 19 18  1  0  0  0  0
 20 21  1  0  0  0  0
 20 19  2  0  0  0  0
 21 16  2  0  0  0  0
 24 27  1  0  0  0  0
 24 20  1  0  0  0  0
 25 24  1  0  0  0  0
 26 24  1  0  0  0  0
 28 31  1  0  0  0  0
 28 30  1  0  0  0  0
 29 28  1  0  0  0  0
 31 34  1  0  0  0  0
 31 32  1  0  0  0  0
 33 31  1  0  0  0  0
 34 35  1  0  0  0  0
 35 36  1  0  0  0  0
 37 36  1  0  0  0  0
 38 37  1  0  0  0  0
 39 37  1  0  0  0  0
 40 39  1  0  0  0  0
 40 34  1  0  0  0  0
M  END
>  <minimizedAffinity>
-5.70380878

$$$$

 OpenBabel03252505443D

 40 43  0  0  1  0  0  0  0  0999 V2000
   35.8990   29.1740   39.1250 C   0  0  0  0  0  0  0  0  0  0  0  0
   34.9580   29.0260   38.1270 C   0  0  0  0  0  0  0  0  0  0  0  0
   34.6520   27.8080   37.5630 C   0  0  0  0  0  0  0  0  0  0  0  0
   35.3120   26.7330   38.0230 N   0  0  0  0  0  0  0  0  0  0  0  0
   36.2430   26.8640   39.0070 C   0  0  0  0  0  0  0  0  0  0  0  0
   36.5290   28.0580   39.5460 N   0  0  0  0  0  0  0  0  0  0  0  0
   34.4540   29.9070   37.7860 H   0  0  0  0  0  0  0  0  0  0  0  0
   33.9160   27.7620   36.7940 H   0  0  0  0  0  0  0  0  0  0  0  0
   37.5600   30.6570   40.2130 C   0  0  1  0  0  0  0  0  0  0  0  0
   36.3610   30.6130   41.2170 C   0  0  0  0  0  0  0  0  0  0  0  0
   36.2260   30.5380   39.7000 C   0  0  2  0  0  0  0  0  0  0  0  0
   38.2070   29.7420   40.3390 H   0  0  0  0  0  0  0  0  0  0  0  0
   36.2070   29.6990   41.7900 H   0  0  0  0  0  0  0  0  0  0  0  0
   36.0580   31.5860   41.6560 H   0  0  0  0  0  0  0  0  0  0  0  0
   35.6190   31.3110   39.2250 H   0  0  0  0  0  0  0  0  0  0  0  0
   38.3200   31.9220   40.2490 C   0  0  0  0  0  0  0  0  0  0  0  0
   37.6230   33.1130   39.9880 C   0  0  0  0  0  0  0  0  0  0  0  0
   38.3300   34.3130   40.0190 C   0  0  0  0  0  0  0  0  0  0  0  0
   39.6650   34.2660   40.3020 N   0  0  0  0  0  0  0  0  0  0  0  0
   40.2870   33.1120   40.5440 C   0  0  0  0  0  0  0  0  0  0  0  0
   39.6100   31.9580   40.5150 N   0  0  0  0  0  0  0  0  0  0  0  0
   36.5880   33.1500   39.7680 H   0  0  0  0  0  0  0  0  0  0  0  0
   37.8090   35.2620   39.8190 H   0  0  0  0  0  0  0  0  0  0  0  0
   41.7570   33.2720   40.8430 C   0  0  0  0  0  0  0  0  0  0  0  0
   42.1260   32.5640   41.9760 F   0  0  0  0  0  0  0  0  0  0  0  0
   42.0160   34.6280   41.1380 F   0  0  0  0  0  0  0  0  0  0  0  0
   42.4890   32.9660   39.7320 F   0  0  0  0  0  0  0  0  0  0  0  0
   37.0010   25.6960   39.5330 C   0  0  0  0  0  0  0  0  0  0  0  0
   36.4500   25.2370   40.3890 H   0  0  0  0  0  0  0  0  0  0  0  0
   37.0560   24.9170   38.7490 H   0  0  0  0  0  0  0  0  0  0  0  0
   38.3510   26.1350   40.0480 C   0  0  0  0  0  0  0  0  0  0  0  0
   39.1180   25.6540   39.4150 H   0  0  0  0  0  0  0  0  0  0  0  0
   38.4310   27.2230   39.8800 H   0  0  0  0  0  0  0  0  0  0  0  0
   38.5910   25.8910   41.4330 N   0  0  0  0  0  0  0  0  0  0  0  0
   39.0330   27.1480   42.0270 C   0  0  0  0  0  2  0  0  0  0  0  0
   39.0160   27.0130   43.5520 C   0  0  0  0  0  2  0  0  0  0  0  0
   40.0880   25.9850   43.8560 C   0  0  0  0  0  3  0  0  0  0  0  0
   41.0400   26.3790   43.4460 H   0  0  0  0  0  0  0  0  0  0  0  0
   39.7310   24.7090   43.1640 C   0  0  0  0  0  2  0  0  0  0  0  0
   39.5630   24.8420   41.6730 C   0  0  0  0  0  2  0  0  0  0  0  0
  1  6  1  0  0  0  0
  1 11  1  0  0  0  0
  2  1  2  0  0  0  0
  3  4  2  0  0  0  0
  3  2  1  0  0  0  0
  4  5  1  0  0  0  0
  5 28  1  0  0  0  0
  5  6  2  0  0  0  0
  7  2  1  0  0  0  0
  8  3  1  0  0  0  0
  9 16  1  0  0  0  0
  9 12  1  6  0  0  0
  9 10  1  0  0  0  0
 10 14  1  0  0  0  0
 10 13  1  0  0  0  0
 11 15  1  6  0  0  0
 11  9  1  0  0  0  0
 11 10  1  0  0  0  0
 16 21  1  0  0  0  0
 17 18  1  0  0  0  0
 17 16  2  0  0  0  0
 18 19  2  0  0  0  0
 19 20  1  0  0  0  0
 20 24  1  0  0  0  0
 21 20  2  0  0  0  0
 22 17  1  0  0  0  0
 23 18  1  0  0  0  0
 24 26  1  0  0  0  0
 24 25  1  0  0  0  0
 27 24  1  0  0  0  0
 28 31  1  0  0  0  0
 28 29  1  0  0  0  0
 30 28  1  0  0  0  0
 31 34  1  0  0  0  0
 32 31  1  0  0  0  0
 33 31  1  0  0  0  0
 34 40  1  0  0  0  0
 34 35  1  0  0  0  0
 35 36  1  0  0  0  0
 36 37  1  0  0  0  0
 38 37  1  0  0  0  0
 39 37  1  0  0  0  0
 40 39  1  0  0  0  0
M  END
>  <minimizedAffinity>
-5.69593143

$$$$

 OpenBabel03252505443D

 40 43  0  0  1  0  0  0  0  0999 V2000
   40.1670   30.5270   42.2330 C   0  0  0  0  0  0  0  0  0  0  0  0
   41.4690   30.9680   42.3480 C   0  0  0  0  0  0  0  0  0  0  0  0
   41.9260   32.1160   41.7400 C   0  0  0  0  0  0  0  0  0  0  0  0
   41.0440   32.8180   41.0090 N   0  0  0  0  0  0  0  0  0  0  0  0
   39.7570   32.3940   40.8880 C   0  0  0  0  0  0  0  0  0  0  0  0
   39.3290   31.2740   41.4880 N   0  0  0  0  0  0  0  0  0  0  0  0
   42.1420   30.3800   42.9380 H   0  0  0  0  0  0  0  0  0  0  0  0
   42.9440   32.4010   41.8670 H   0  0  0  0  0  0  0  0  0  0  0  0
   38.9620   28.3700   42.0400 C   0  0  1  0  0  0  0  0  0  0  0  0
   38.2200   29.1280   43.1900 C   0  0  0  0  0  0  0  0  0  0  0  0
   39.7130   29.2410   42.8970 C   0  0  2  0  0  0  0  0  0  0  0  0
   38.5970   28.7310   41.0360 H   0  0  0  0  0  0  0  0  0  0  0  0
   37.5810   29.9680   42.9180 H   0  0  0  0  0  0  0  0  0  0  0  0
   37.9740   28.5280   44.0900 H   0  0  0  0  0  0  0  0  0  0  0  0
   40.3900   28.9660   43.7070 H   0  0  0  0  0  0  0  0  0  0  0  0
   38.9330   26.9010   42.1810 C   0  0  0  0  0  0  0  0  0  0  0  0
   39.8040   26.3140   43.1150 C   0  0  0  0  0  0  0  0  0  0  0  0
   39.7840   24.9280   43.2560 C   0  0  0  0  0  0  0  0  0  0  0  0
   38.9180   24.2140   42.4790 N   0  0  0  0  0  0  0  0  0  0  0  0
   38.1080   24.8120   41.6050 C   0  0  0  0  0  0  0  0  0  0  0  0
   38.1250   26.1430   41.4680 N   0  0  0  0  0  0  0  0  0  0  0  0
   40.4760   26.8670   43.7170 H   0  0  0  0  0  0  0  0  0  0  0  0
   40.4560   24.4420   43.9800 H   0  0  0  0  0  0  0  0  0  0  0  0
   37.2240   23.8520   40.8490 C   0  0  0  0  0  0  0  0  0  0  0  0
   37.0820   24.2300   39.5230 F   0  0  0  0  0  0  0  0  0  0  0  0
   35.9260   23.8990   41.4010 F   0  0  0  0  0  0  0  0  0  0  0  0
   37.6770   22.5750   41.0190 F   0  0  0  0  0  0  0  0  0  0  0  0
   38.7560   33.1420   40.0780 C   0  0  0  0  0  0  0  0  0  0  0  0
   38.6460   34.1820   40.4710 H   0  0  0  0  0  0  0  0  0  0  0  0
   39.1310   33.2430   39.0420 H   0  0  0  0  0  0  0  0  0  0  0  0
   37.4040   32.4780   40.1720 C   0  0  0  0  0  0  0  0  0  0  0  0
   37.4280   31.8000   41.0440 H   0  0  0  0  0  0  0  0  0  0  0  0
   36.6640   33.2660   40.3980 H   0  0  0  0  0  0  0  0  0  0  0  0
   36.9680   31.7990   38.9950 N   0  0  0  0  0  0  0  0  0  0  0  0
   36.6180   30.4370   39.3830 C   0  0  0  0  0  2  0  0  0  0  0  0
   35.8710   29.7650   38.2280 C   0  0  0  0  0  2  0  0  0  0  0  0
   36.9000   29.6540   37.1210 C   0  0  0  0  0  3  0  0  0  0  0  0
   37.7440   29.0580   37.5220 H   0  0  0  0  0  0  0  0  0  0  0  0
   37.3750   31.0290   36.7750 C   0  0  0  0  0  2  0  0  0  0  0  0
   37.9570   31.7910   37.9350 C   0  0  0  0  0  2  0  0  0  0  0  0
  1  2  1  0  0  0  0
  1 11  1  0  0  0  0
  2  7  1  0  0  0  0
  3  8  1  0  0  0  0
  3  2  2  0  0  0  0
  4  3  1  0  0  0  0
  5  4  2  0  0  0  0
  5  6  1  0  0  0  0
  6  1  2  0  0  0  0
  9 12  1  6  0  0  0
  9 16  1  0  0  0  0
  9 11  1  0  0  0  0
  9 10  1  0  0  0  0
 10 14  1  0  0  0  0
 11 10  1  0  0  0  0
 11 15  1  1  0  0  0
 13 10  1  0  0  0  0
 16 17  1  0  0  0  0
 17 18  2  0  0  0  0
 17 22  1  0  0  0  0
 18 23  1  0  0  0  0
 19 18  1  0  0  0  0
 20 19  2  0  0  0  0
 21 20  1  0  0  0  0
 21 16  2  0  0  0  0
 24 27  1  0  0  0  0
 24 26  1  0  0  0  0
 24 20  1  0  0  0  0
 25 24  1  0  0  0  0
 28 31  1  0  0  0  0
 28 29  1  0  0  0  0
 28  5  1  0  0  0  0
 30 28  1  0  0  0  0
 31 33  1  0  0  0  0
 31 32  1  0  0  0  0
 34 35  1  0  0  0  0
 34 31  1  0  0  0  0
 36 35  1  0  0  0  0
 37 38  1  0  0  0  0
 37 36  1  0  0  0  0
 39 37  1  0  0  0  0
 39 40  1  0  0  0  0
 40 34  1  0  0  0  0
M  END
>  <minimizedAffinity>
-5.69370365

$$$$

 OpenBabel03252505443D

 40 43  0  0  1  0  0  0  0  0999 V2000
   38.5370   32.4230   39.8900 C   0  0  0  0  0  0  0  0  0  0  0  0
   38.2790   33.6580   40.4470 C   0  0  0  0  0  0  0  0  0  0  0  0
   39.1480   34.7220   40.3420 C   0  0  0  0  0  0  0  0  0  0  0  0
   40.2890   34.5190   39.6620 N   0  0  0  0  0  0  0  0  0  0  0  0
   40.5550   33.3060   39.1090 C   0  0  0  0  0  0  0  0  0  0  0  0
   39.6980   32.2810   39.2200 N   0  0  0  0  0  0  0  0  0  0  0  0
   37.3590   33.7790   40.9820 H   0  0  0  0  0  0  0  0  0  0  0  0
   38.8900   35.6490   40.7960 H   0  0  0  0  0  0  0  0  0  0  0  0
   37.9010   30.1040   39.2880 C   0  0  1  0  0  0  0  0  0  0  0  0
   36.6710   30.9700   38.8540 C   0  0  0  0  0  0  0  0  0  0  0  0
   37.5650   31.2700   40.0540 C   0  0  2  0  0  0  0  0  0  0  0  0
   38.7060   30.1500   38.5010 H   0  0  0  0  0  0  0  0  0  0  0  0
   36.7760   31.5980   37.9700 H   0  0  0  0  0  0  0  0  0  0  0  0
   35.6730   30.5640   39.1180 H   0  0  0  0  0  0  0  0  0  0  0  0
   37.0750   31.3150   41.0280 H   0  0  0  0  0  0  0  0  0  0  0  0
   37.5470   28.7280   39.6860 C   0  0  0  0  0  0  0  0  0  0  0  0
   37.2990   27.7930   38.6670 C   0  0  0  0  0  0  0  0  0  0  0  0
   36.9640   26.4910   39.0320 C   0  0  0  0  0  0  0  0  0  0  0  0
   36.8950   26.1930   40.3620 N   0  0  0  0  0  0  0  0  0  0  0  0
   37.1380   27.1110   41.2980 C   0  0  0  0  0  0  0  0  0  0  0  0
   37.4600   28.3630   40.9490 N   0  0  0  0  0  0  0  0  0  0  0  0
   37.3510   28.0230   37.6350 H   0  0  0  0  0  0  0  0  0  0  0  0
   36.7650   25.7380   38.2540 H   0  0  0  0  0  0  0  0  0  0  0  0
   37.0170   26.5840   42.7060 C   0  0  0  0  0  0  0  0  0  0  0  0
   36.5600   25.2760   42.7220 F   0  0  0  0  0  0  0  0  0  0  0  0
   36.0400   27.3390   43.3900 F   0  0  0  0  0  0  0  0  0  0  0  0
   38.1950   26.7720   43.3710 F   0  0  0  0  0  0  0  0  0  0  0  0
   41.8140   33.0440   38.3580 C   0  0  0  0  0  0  0  0  0  0  0  0
   41.5850   32.8590   37.2800 H   0  0  0  0  0  0  0  0  0  0  0  0
   42.4480   33.9500   38.3870 H   0  0  0  0  0  0  0  0  0  0  0  0
   42.4970   31.8080   38.8920 C   0  0  0  0  0  0  0  0  0  0  0  0
   43.3050   32.1430   39.5680 H   0  0  0  0  0  0  0  0  0  0  0  0
   41.7620   31.2670   39.5130 H   0  0  0  0  0  0  0  0  0  0  0  0
   42.9850   30.8980   37.9070 N   0  0  0  0  0  0  0  0  0  0  0  0
   43.7710   31.6710   36.9520 C   0  0  0  0  0  2  0  0  0  0  0  0
   44.5540   30.7080   36.0550 C   0  0  0  0  0  2  0  0  0  0  0  0
   43.4910   29.9790   35.2580 C   0  0  0  0  0  3  0  0  0  0  0  0
   42.9170   30.7480   34.7050 H   0  0  0  0  0  0  0  0  0  0  0  0
   42.5880   29.2660   36.2140 C   0  0  0  0  0  2  0  0  0  0  0  0
   41.9340   30.1640   37.2310 C   0  0  0  0  0  2  0  0  0  0  0  0
  1 11  1  0  0  0  0
  1  2  1  0  0  0  0
  2  7  1  0  0  0  0
  3  2  2  0  0  0  0
  3  8  1  0  0  0  0
  4  3  1  0  0  0  0
  5  6  1  0  0  0  0
  5  4  2  0  0  0  0
  6  1  2  0  0  0  0
  9 12  1  6  0  0  0
  9 16  1  0  0  0  0
  9 11  1  0  0  0  0
 10 14  1  0  0  0  0
 10  9  1  0  0  0  0
 10 11  1  0  0  0  0
 11 15  1  1  0  0  0
 13 10  1  0  0  0  0
 16 21  1  0  0  0  0
 17 18  1  0  0  0  0
 17 16  2  0  0  0  0
 18 19  2  0  0  0  0
 19 20  1  0  0  0  0
 20 24  1  0  0  0  0
 21 20  2  0  0  0  0
 22 17  1  0  0  0  0
 23 18  1  0  0  0  0
 24 25  1  0  0  0  0
 24 27  1  0  0  0  0
 24 26  1  0  0  0  0
 28 30  1  0  0  0  0
 28 31  1  0  0  0  0
 28  5  1  0  0  0  0
 29 28  1  0  0  0  0
 31 33  1  0  0  0  0
 31 32  1  0  0  0  0
 34 31  1  0  0  0  0
 35 34  1  0  0  0  0
 36 35  1  0  0  0  0
 37 36  1  0  0  0  0
 37 39  1  0  0  0  0
 38 37  1  0  0  0  0
 39 40  1  0  0  0  0
 40 34  1  0  0  0  0
M  END
>  <minimizedAffinity>
-5.67726135

$$$$

 OpenBabel03252505443D

 40 43  0  0  1  0  0  0  0  0999 V2000
   36.2770   29.6070   37.9560 C   0  0  0  0  0  0  0  0  0  0  0  0
   36.9610   29.7900   36.7720 C   0  0  0  0  0  0  0  0  0  0  0  0
   36.3860   29.5910   35.5370 C   0  0  0  0  0  0  0  0  0  0  0  0
   35.1010   29.2020   35.5130 N   0  0  0  0  0  0  0  0  0  0  0  0
   34.4140   29.0170   36.6720 C   0  0  0  0  0  0  0  0  0  0  0  0
   34.9900   29.2160   37.8670 N   0  0  0  0  0  0  0  0  0  0  0  0
   37.9850   30.1000   36.8340 H   0  0  0  0  0  0  0  0  0  0  0  0
   36.9700   29.7490   34.6610 H   0  0  0  0  0  0  0  0  0  0  0  0
   36.4300   28.9960   40.3530 C   0  0  1  0  0  0  0  0  0  0  0  0
   36.1390   30.5340   40.3610 C   0  0  0  0  0  0  0  0  0  0  0  0
   36.9570   29.8100   39.2960 C   0  0  2  0  0  0  0  0  0  0  0  0
   35.4730   28.4190   40.2070 H   0  0  0  0  0  0  0  0  0  0  0  0
   35.1350   30.8650   40.0970 H   0  0  0  0  0  0  0  0  0  0  0  0
   36.7430   31.1400   41.0680 H   0  0  0  0  0  0  0  0  0  0  0  0
   37.9860   30.1480   39.1580 H   0  0  0  0  0  0  0  0  0  0  0  0
   37.2220   28.5350   41.5100 C   0  0  0  0  0  0  0  0  0  0  0  0
   36.5460   27.8670   42.5440 C   0  0  0  0  0  0  0  0  0  0  0  0
   37.2840   27.4280   43.6410 C   0  0  0  0  0  0  0  0  0  0  0  0
   38.6270   27.6720   43.6520 N   0  0  0  0  0  0  0  0  0  0  0  0
   39.2300   28.3090   42.6480 C   0  0  0  0  0  0  0  0  0  0  0  0
   38.5220   28.7320   41.5930 N   0  0  0  0  0  0  0  0  0  0  0  0
   35.5040   27.6790   42.5370 H   0  0  0  0  0  0  0  0  0  0  0  0
   36.7790   26.9020   44.4660 H   0  0  0  0  0  0  0  0  0  0  0  0
   40.7160   28.4730   42.8450 C   0  0  0  0  0  0  0  0  0  0  0  0
   41.0700   29.8090   42.9530 F   0  0  0  0  0  0  0  0  0  0  0  0
   41.3810   27.9930   41.6950 F   0  0  0  0  0  0  0  0  0  0  0  0
   41.1320   27.7000   43.8900 F   0  0  0  0  0  0  0  0  0  0  0  0
   32.9920   28.5760   36.6820 C   0  0  0  0  0  0  0  0  0  0  0  0
   32.9370   27.4610   36.6800 H   0  0  0  0  0  0  0  0  0  0  0  0
   32.5170   28.9060   37.6260 H   0  0  0  0  0  0  0  0  0  0  0  0
   32.2820   29.0660   35.4430 C   0  0  0  0  0  0  0  0  0  0  0  0
   32.9670   28.9160   34.5880 H   0  0  0  0  0  0  0  0  0  0  0  0
   31.4130   28.4060   35.2780 H   0  0  0  0  0  0  0  0  0  0  0  0
   31.8030   30.4090   35.4960 N   0  0  0  0  0  0  0  0  0  0  0  0
   30.6720   30.4320   36.4170 C   0  0  0  0  0  2  0  0  0  0  0  0
   30.3170   31.8870   36.7350 C   0  0  0  0  0  2  0  0  0  0  0  0
   29.8210   32.4540   35.4200 C   0  0  0  0  0  3  0  0  0  0  0  0
   28.9570   31.8350   35.1050 H   0  0  0  0  0  0  0  0  0  0  0  0
   30.9170   32.3390   34.4100 C   0  0  0  0  0  2  0  0  0  0  0  0
   31.4190   30.9340   34.2010 C   0  0  0  0  0  2  0  0  0  0  0  0
  1 11  1  0  0  0  0
  2  7  1  0  0  0  0
  2  1  2  0  0  0  0
  3  2  1  0  0  0  0
  4  3  2  0  0  0  0
  4  5  1  0  0  0  0
  5 28  1  0  0  0  0
  5  6  2  0  0  0  0
  6  1  1  0  0  0  0
  8  3  1  0  0  0  0
  9 12  1  6  0  0  0
  9 10  1  0  0  0  0
  9 16  1  0  0  0  0
 10 14  1  0  0  0  0
 11 15  1  6  0  0  0
 11  9  1  0  0  0  0
 11 10  1  0  0  0  0
 13 10  1  0  0  0  0
 16 21  2  0  0  0  0
 16 17  1  0  0  0  0
 17 18  2  0  0  0  0
 18 19  1  0  0  0  0
 18 23  1  0  0  0  0
 20 24  1  0  0  0  0
 20 19  2  0  0  0  0
 21 20  1  0  0  0  0
 22 17  1  0  0  0  0
 24 25  1  0  0  0  0
 24 27  1  0  0  0  0
 26 24  1  0  0  0  0
 28 30  1  0  0  0  0
 29 28  1  0  0  0  0
 31 34  1  0  0  0  0
 31 28  1  0  0  0  0
 32 31  1  0  0  0  0
 33 31  1  0  0  0  0
 34 35  1  0  0  0  0
 35 36  1  0  0  0  0
 37 36  1  0  0  0  0
 38 37  1  0  0  0  0
 39 37  1  0  0  0  0
 40 39  1  0  0  0  0
 40 34  1  0  0  0  0
M  END
>  <minimizedAffinity>
-5.66705227

$$$$

 OpenBabel03252505443D

 40 43  0  0  1  0  0  0  0  0999 V2000
   37.6250   30.5640   40.6130 C   0  0  0  0  0  0  0  0  0  0  0  0
   38.7440   31.3350   40.8510 C   0  0  0  0  0  0  0  0  0  0  0  0
   39.5370   31.1760   41.9650 C   0  0  0  0  0  0  0  0  0  0  0  0
   39.1830   30.2220   42.8420 N   0  0  0  0  0  0  0  0  0  0  0  0
   38.0820   29.4560   42.6200 C   0  0  0  0  0  0  0  0  0  0  0  0
   37.3200   29.6230   41.5290 N   0  0  0  0  0  0  0  0  0  0  0  0
   38.9920   32.0860   40.1290 H   0  0  0  0  0  0  0  0  0  0  0  0
   40.3880   31.8050   42.0910 H   0  0  0  0  0  0  0  0  0  0  0  0
   37.1830   30.0580   38.2270 C   0  0  1  0  0  0  0  0  0  0  0  0
   37.3930   31.6090   38.2630 C   0  0  0  0  0  0  0  0  0  0  0  0
   36.7620   30.7910   39.3860 C   0  0  2  0  0  0  0  0  0  0  0  0
   38.1790   29.5300   38.2150 H   0  0  0  0  0  0  0  0  0  0  0  0
   38.4060   31.9830   38.4110 H   0  0  0  0  0  0  0  0  0  0  0  0
   36.6720   32.2120   37.6750 H   0  0  0  0  0  0  0  0  0  0  0  0
   35.7460   31.0640   39.6750 H   0  0  0  0  0  0  0  0  0  0  0  0
   36.2680   29.6080   37.1610 C   0  0  0  0  0  0  0  0  0  0  0  0
   36.8180   29.3280   35.8980 C   0  0  0  0  0  0  0  0  0  0  0  0
   35.9630   28.9030   34.8840 C   0  0  0  0  0  0  0  0  0  0  0  0
   34.6340   28.7790   35.1730 N   0  0  0  0  0  0  0  0  0  0  0  0
   34.1530   29.0540   36.3850 C   0  0  0  0  0  0  0  0  0  0  0  0
   34.9740   29.4640   37.3610 N   0  0  0  0  0  0  0  0  0  0  0  0
   37.8480   29.4250   35.6740 H   0  0  0  0  0  0  0  0  0  0  0  0
   36.3670   28.6770   33.8860 H   0  0  0  0  0  0  0  0  0  0  0  0
   32.6640   28.8500   36.5050 C   0  0  0  0  0  0  0  0  0  0  0  0
   31.9700   29.6200   35.5850 F   0  0  0  0  0  0  0  0  0  0  0  0
   32.2440   29.3010   37.7750 F   0  0  0  0  0  0  0  0  0  0  0  0
   32.3750   27.5170   36.4470 F   0  0  0  0  0  0  0  0  0  0  0  0
   37.6540   28.3970   43.5750 C   0  0  0  0  0  0  0  0  0  0  0  0
   37.5670   28.8220   44.6040 H   0  0  0  0  0  0  0  0  0  0  0  0
   36.6410   28.0480   43.3000 H   0  0  0  0  0  0  0  0  0  0  0  0
   38.6820   27.2920   43.6290 C   0  0  0  0  0  0  0  0  0  0  0  0
   39.6800   27.7690   43.6260 H   0  0  0  0  0  0  0  0  0  0  0  0
   38.5710   26.7840   44.6020 H   0  0  0  0  0  0  0  0  0  0  0  0
   38.5760   26.3010   42.6080 N   0  0  0  0  0  0  0  0  0  0  0  0
   37.1610   25.9830   42.4540 C   0  0  0  0  0  2  0  0  0  0  0  0
   36.9710   25.1550   41.1800 C   0  0  0  0  0  2  0  0  0  0  0  0
   37.6840   23.8480   41.4650 C   0  0  0  0  0  3  0  0  0  0  0  0
   37.2100   23.4100   42.3660 H   0  0  0  0  0  0  0  0  0  0  0  0
   39.1220   24.1450   41.7470 C   0  0  0  0  0  2  0  0  0  0  0  0
   39.3430   25.1030   42.8880 C   0  0  0  0  0  2  0  0  0  0  0  0
  1  2  2  0  0  0  0
  1  6  1  0  0  0  0
  2  3  1  0  0  0  0
  3  8  1  0  0  0  0
  3  4  2  0  0  0  0
  5  4  1  0  0  0  0
  5 28  1  0  0  0  0
  6  5  2  0  0  0  0
  7  2  1  0  0  0  0
  9 12  1  1  0  0  0
  9 10  1  0  0  0  0
  9 11  1  0  0  0  0
 10 13  1  0  0  0  0
 10 11  1  0  0  0  0
 11 15  1  1  0  0  0
 11  1  1  0  0  0  0
 14 10  1  0  0  0  0
 16 21  1  0  0  0  0
 16  9  1  0  0  0  0
 17 16  2  0  0  0  0
 18 19  2  0  0  0  0
 18 17  1  0  0  0  0
 19 20  1  0  0  0  0
 20 24  1  0  0  0  0
 20 21  2  0  0  0  0
 22 17  1  0  0  0  0
 23 18  1  0  0  0  0
 24 26  1  0  0  0  0
 25 24  1  0  0  0  0
 27 24  1  0  0  0  0
 28 31  1  0  0  0  0
 28 29  1  0  0  0  0
 30 28  1  0  0  0  0
 31 33  1  0  0  0  0
 32 31  1  0  0  0  0
 34 40  1  0  0  0  0
 34 31  1  0  0  0  0
 35 34  1  0  0  0  0
 36 37  1  0  0  0  0
 36 35  1  0  0  0  0
 37 39  1  0  0  0  0
 37 38  1  0  0  0  0
 39 40  1  0  0  0  0
M  END
>  <minimizedAffinity>
-5.66681099

$$$$
