
 OpenBabel03252509283D

 19 20  0  0  0  0  0  0  0  0999 V2000
   46.7330   35.0740   41.9360 C   0  0  0  0  0  0  0  0  0  0  0  0
   47.8520   35.1060   42.0750 H   0  0  0  0  0  0  0  0  0  0  0  0
   46.4790   36.0000   41.4050 H   0  0  0  0  0  0  0  0  0  0  0  0
   44.5080   35.9500   44.7820 C   0  0  0  0  0  0  0  0  0  0  0  0
   45.1660   36.0230   43.5330 C   0  0  0  0  0  0  0  0  0  0  0  0
   46.0570   34.9930   43.2280 C   0  0  0  0  0  0  0  0  0  0  0  0
   46.2440   33.9950   44.1290 N   0  0  0  0  0  0  0  0  0  0  0  0
   45.5900   33.9680   45.3140 C   0  0  0  0  0  0  0  0  0  0  0  0
   44.7310   34.9440   45.6250 N   0  0  0  0  0  0  0  0  0  0  0  0
   43.8100   36.7570   45.0190 H   0  0  0  0  0  0  0  0  0  0  0  0
   44.9980   36.8240   42.8410 H   0  0  0  0  0  0  0  0  0  0  0  0
   45.7060   33.2040   46.0510 H   0  0  0  0  0  0  0  0  0  0  0  0
   46.3690   33.9740   41.0810 N   0  0  0  0  0  0  0  0  0  0  0  0
   47.2360   33.7390   39.9750 C   0  0  0  0  0  2  0  0  0  0  0  0
   47.1400   32.2480   39.6660 C   0  0  0  0  0  2  0  0  0  0  0  0
   45.7020   31.9570   39.3690 C   0  0  0  0  0  3  0  0  0  0  0  0
   45.2530   31.1870   40.0610 H   0  0  0  0  0  0  0  0  0  0  0  0
   44.8050   33.1660   39.4160 C   0  0  0  0  0  2  0  0  0  0  0  0
   45.0130   34.0260   40.6280 C   0  0  0  0  0  2  0  0  0  0  0  0
  1  2  1  0  0  0  0
  1  6  1  0  0  0  0
  3  1  1  0  0  0  0
  4 10  1  0  0  0  0
  4  9  1  0  0  0  0
  5  4  2  0  0  0  0
  6  5  1  0  0  0  0
  6  7  2  0  0  0  0
  7  8  1  0  0  0  0
  8  9  2  0  0  0  0
  8 12  1  0  0  0  0
 11  5  1  0  0  0  0
 13  1  1  0  0  0  0
 14 13  1  0  0  0  0
 15 14  1  0  0  0  0
 16 18  1  0  0  0  0
 16 15  1  0  0  0  0
 16 17  1  0  0  0  0
 18 19  1  0  0  0  0
 19 13  1  0  0  0  0
M  END
>  <minimizedAffinity>
-3.59276819

>  <minimizedRMSD>
0.931050837

$$$$
