
 OpenBabel03252508403D

 39 42  0  0  0  0  0  0  0  0999 V2000
   38.7540   26.8920   41.4300 C   0  0  0  0  0  0  0  0  0  0  0  0
   39.3610   27.1760   42.6220 C   0  0  0  0  0  0  0  0  0  0  0  0
   38.5580   27.4900   43.6800 C   0  0  0  0  0  0  0  0  0  0  0  0
   37.1780   27.5360   43.6060 C   0  0  0  0  0  0  0  0  0  0  0  0
   36.6050   27.2430   42.3840 C   0  0  0  0  0  0  0  0  0  0  0  0
   37.3860   26.9190   41.2890 C   0  0  0  0  0  0  0  0  0  0  0  0
   39.0310   27.7150   44.6270 H   0  0  0  0  0  0  0  0  0  0  0  0
   36.5790   27.7910   44.4710 H   0  0  0  0  0  0  0  0  0  0  0  0
   35.5170   27.2870   42.3550 H   0  0  0  0  0  0  0  0  0  0  0  0
   42.8960   25.9570   43.1430 C   0  0  0  0  0  0  0  0  0  0  0  0
   41.4880   25.9750   43.1140 C   0  0  0  0  0  0  0  0  0  0  0  0
   40.8090   27.1190   42.6670 C   0  0  0  0  0  0  0  0  0  0  0  0
   41.6010   28.1560   42.2860 N   0  0  0  0  0  0  0  0  0  0  0  0
   42.9370   28.1100   42.3260 C   0  0  0  0  0  0  0  0  0  0  0  0
   43.5780   27.0150   42.7520 N   0  0  0  0  0  0  0  0  0  0  0  0
   43.5190   24.7690   43.6050 N   0  0  0  0  0  0  0  0  0  0  0  0
   40.9280   25.1080   43.4340 H   0  0  0  0  0  0  0  0  0  0  0  0
   43.4470   29.0040   41.9940 H   0  0  0  0  0  0  0  0  0  0  0  0
   44.2210   24.4120   42.9210 H   0  0  0  0  0  0  0  0  0  0  0  0
   43.1890   24.4510   44.5240 H   0  0  0  0  0  0  0  0  0  0  0  0
   36.6810   26.6300   40.0550 C   0  0  0  0  0  0  0  0  0  0  0  0
   36.5030   25.2990   39.7640 C   0  0  0  0  0  0  0  0  0  0  0  0
   35.8500   24.8310   38.6260 C   0  0  0  0  0  0  0  0  0  0  0  0
   35.3600   25.7650   37.7500 C   0  0  0  0  0  0  0  0  0  0  0  0
   35.5200   27.1110   38.0110 C   0  0  0  0  0  0  0  0  0  0  0  0
   36.1780   27.5390   39.1580 C   0  0  0  0  0  0  0  0  0  0  0  0
   36.8650   24.4920   40.4110 H   0  0  0  0  0  0  0  0  0  0  0  0
   35.7180   23.7800   38.4100 H   0  0  0  0  0  0  0  0  0  0  0  0
   34.8370   25.5390   36.8340 H   0  0  0  0  0  0  0  0  0  0  0  0
   35.1620   27.9110   37.3680 H   0  0  0  0  0  0  0  0  0  0  0  0
   36.3760   28.9200   39.4820 N   0  0  0  0  0  0  0  0  0  0  0  0
   35.5020   29.7800   40.2350 C   0  0  0  0  0  2  0  0  0  0  0  0
   36.3270   30.7810   41.0320 C   0  0  0  0  0  2  0  0  0  0  0  0
   36.9550   31.6930   39.9930 C   0  0  0  0  0  3  0  0  0  0  0  0
   37.6410   32.3870   40.5560 H   0  0  0  0  0  0  0  0  0  0  0  0
   37.6200   30.9660   38.8720 C   0  0  0  0  0  2  0  0  0  0  0  0
   37.6060   29.4760   38.9780 C   0  0  0  0  0  2  0  0  0  0  0  0
   40.1740   26.2670   39.3200 N   0  0  0  0  0  0  0  0  0  0  0  0
   39.5380   26.5490   40.2640 C   0  0  0  0  0  0  0  0  0  0  0  0
  1  2  1  0  0  0  0
  2 12  1  0  0  0  0
  2  3  2  0  0  0  0
  3  7  1  0  0  0  0
  4  3  1  0  0  0  0
  4  8  1  0  0  0  0
  5  4  2  0  0  0  0
  6  1  2  0  0  0  0
  6  5  1  0  0  0  0
  9  5  1  0  0  0  0
 10 16  1  0  0  0  0
 11 10  1  0  0  0  0
 11 17  1  0  0  0  0
 12 11  2  0  0  0  0
 13 14  2  0  0  0  0
 13 12  1  0  0  0  0
 14 15  1  0  0  0  0
 15 10  2  0  0  0  0
 16 20  1  0  0  0  0
 18 14  1  0  0  0  0
 19 16  1  0  0  0  0
 21  6  1  0  0  0  0
 22 21  1  0  0  0  0
 22 27  1  0  0  0  0
 23 22  2  0  0  0  0
 24 25  2  0  0  0  0
 24 23  1  0  0  0  0
 25 26  1  0  0  0  0
 26 31  1  0  0  0  0
 26 21  2  0  0  0  0
 28 23  1  0  0  0  0
 29 24  1  0  0  0  0
 30 25  1  0  0  0  0
 31 32  1  0  0  0  0
 32 33  1  0  0  0  0
 34 35  1  0  0  0  0
 34 33  1  0  0  0  0
 36 37  1  0  0  0  0
 36 34  1  0  0  0  0
 37 31  1  0  0  0  0
 38 39  3  0  0  0  0
 39  1  1  0  0  0  0
M  END
>  <minimizedAffinity>
-6.41499758

$$$$

 OpenBabel03252508403D

 39 42  0  0  0  0  0  0  0  0999 V2000
   39.2690   31.3640   40.4540 C   0  0  0  0  0  0  0  0  0  0  0  0
   39.3420   32.6200   39.9180 C   0  0  0  0  0  0  0  0  0  0  0  0
   38.1690   33.2800   39.6940 C   0  0  0  0  0  0  0  0  0  0  0  0
   36.9250   32.7470   39.9790 C   0  0  0  0  0  0  0  0  0  0  0  0
   36.8950   31.4770   40.5200 C   0  0  0  0  0  0  0  0  0  0  0  0
   38.0640   30.7770   40.7610 C   0  0  0  0  0  0  0  0  0  0  0  0
   38.2190   34.2740   39.2700 H   0  0  0  0  0  0  0  0  0  0  0  0
   36.0180   33.3070   39.7850 H   0  0  0  0  0  0  0  0  0  0  0  0
   35.9030   31.0830   40.7340 H   0  0  0  0  0  0  0  0  0  0  0  0
   42.3720   33.9180   38.0760 C   0  0  0  0  0  0  0  0  0  0  0  0
   41.0830   33.4030   38.3160 C   0  0  0  0  0  0  0  0  0  0  0  0
   40.6610   33.1500   39.6300 C   0  0  0  0  0  0  0  0  0  0  0  0
   41.5700   33.4330   40.6000 N   0  0  0  0  0  0  0  0  0  0  0  0
   42.7880   33.9210   40.3410 C   0  0  0  0  0  0  0  0  0  0  0  0
   43.1830   34.1610   39.0850 N   0  0  0  0  0  0  0  0  0  0  0  0
   42.7330   34.1520   36.7240 N   0  0  0  0  0  0  0  0  0  0  0  0
   40.4160   33.2030   37.4890 H   0  0  0  0  0  0  0  0  0  0  0  0
   43.4140   34.1030   41.2040 H   0  0  0  0  0  0  0  0  0  0  0  0
   43.0730   35.1280   36.5810 H   0  0  0  0  0  0  0  0  0  0  0  0
   42.6080   33.3400   36.1090 H   0  0  0  0  0  0  0  0  0  0  0  0
   37.9170   29.4500   41.3300 C   0  0  0  0  0  0  0  0  0  0  0  0
   37.9800   29.3760   42.7010 C   0  0  0  0  0  0  0  0  0  0  0  0
   37.8590   28.1910   43.4220 C   0  0  0  0  0  0  0  0  0  0  0  0
   37.6660   27.0340   42.7110 C   0  0  0  0  0  0  0  0  0  0  0  0
   37.5970   27.0720   41.3330 C   0  0  0  0  0  0  0  0  0  0  0  0
   37.7220   28.2750   40.6480 C   0  0  0  0  0  0  0  0  0  0  0  0
   38.1310   30.2520   43.3410 H   0  0  0  0  0  0  0  0  0  0  0  0
   37.9100   28.1480   44.5010 H   0  0  0  0  0  0  0  0  0  0  0  0
   37.5580   26.0520   43.1440 H   0  0  0  0  0  0  0  0  0  0  0  0
   37.4470   26.2030   40.6980 H   0  0  0  0  0  0  0  0  0  0  0  0
   37.6610   28.3780   39.2200 N   0  0  0  0  0  0  0  0  0  0  0  0
   36.5060   28.6590   38.4090 C   0  0  0  0  0  2  0  0  0  0  0  0
   36.9220   29.4620   37.1850 C   0  0  0  0  0  2  0  0  0  0  0  0
   37.7530   28.5080   36.3470 C   0  0  0  0  0  3  0  0  0  0  0  0
   38.1450   29.1090   35.4780 H   0  0  0  0  0  0  0  0  0  0  0  0
   38.8150   27.7950   37.1150 C   0  0  0  0  0  2  0  0  0  0  0  0
   38.9230   28.1700   38.5570 C   0  0  0  0  0  2  0  0  0  0  0  0
   41.4400   29.9800   40.9340 N   0  0  0  0  0  0  0  0  0  0  0  0
   40.4690   30.6020   40.7200 C   0  0  0  0  0  0  0  0  0  0  0  0
  1 39  1  0  0  0  0
  1  6  1  0  0  0  0
  2  1  2  0  0  0  0
  3  2  1  0  0  0  0
  3  4  2  0  0  0  0
  4  5  1  0  0  0  0
  5  9  1  0  0  0  0
  5  6  2  0  0  0  0
  6 21  1  0  0  0  0
  7  3  1  0  0  0  0
  8  4  1  0  0  0  0
 10 11  2  0  0  0  0
 10 15  1  0  0  0  0
 11 12  1  0  0  0  0
 12  2  1  0  0  0  0
 12 13  2  0  0  0  0
 14 13  1  0  0  0  0
 14 18  1  0  0  0  0
 15 14  2  0  0  0  0
 16 10  1  0  0  0  0
 17 11  1  0  0  0  0
 19 16  1  0  0  0  0
 20 16  1  0  0  0  0
 21 22  1  0  0  0  0
 22 27  1  0  0  0  0
 22 23  2  0  0  0  0
 23 28  1  0  0  0  0
 24 29  1  0  0  0  0
 24 23  1  0  0  0  0
 25 24  2  0  0  0  0
 26 21  2  0  0  0  0
 26 25  1  0  0  0  0
 30 25  1  0  0  0  0
 31 26  1  0  0  0  0
 32 31  1  0  0  0  0
 33 32  1  0  0  0  0
 34 36  1  0  0  0  0
 34 33  1  0  0  0  0
 35 34  1  0  0  0  0
 36 37  1  0  0  0  0
 37 31  1  0  0  0  0
 39 38  3  0  0  0  0
M  END
>  <minimizedAffinity>
-6.3799758

$$$$

 OpenBabel03252508403D

 39 42  0  0  0  0  0  0  0  0999 V2000
   39.0770   28.5920   41.6940 C   0  0  0  0  0  0  0  0  0  0  0  0
   37.8350   29.1590   41.6070 C   0  0  0  0  0  0  0  0  0  0  0  0
   36.9290   28.8430   42.5760 C   0  0  0  0  0  0  0  0  0  0  0  0
   37.2000   27.9880   43.6290 C   0  0  0  0  0  0  0  0  0  0  0  0
   38.4660   27.4380   43.6790 C   0  0  0  0  0  0  0  0  0  0  0  0
   39.4120   27.7350   42.7140 C   0  0  0  0  0  0  0  0  0  0  0  0
   35.9440   29.2870   42.5150 H   0  0  0  0  0  0  0  0  0  0  0  0
   36.4500   27.7640   44.3770 H   0  0  0  0  0  0  0  0  0  0  0  0
   38.6520   26.7680   44.5180 H   0  0  0  0  0  0  0  0  0  0  0  0
   37.1680   32.2660   39.5680 C   0  0  0  0  0  0  0  0  0  0  0  0
   37.4130   31.4320   40.6760 C   0  0  0  0  0  0  0  0  0  0  0  0
   37.5820   30.0510   40.4920 C   0  0  0  0  0  0  0  0  0  0  0  0
   37.4890   29.6180   39.2070 N   0  0  0  0  0  0  0  0  0  0  0  0
   37.2540   30.4350   38.1740 C   0  0  0  0  0  0  0  0  0  0  0  0
   37.0960   31.7510   38.3580 N   0  0  0  0  0  0  0  0  0  0  0  0
   37.0080   33.6520   39.8260 N   0  0  0  0  0  0  0  0  0  0  0  0
   37.4720   31.8530   41.6700 H   0  0  0  0  0  0  0  0  0  0  0  0
   37.2050   29.9620   37.2030 H   0  0  0  0  0  0  0  0  0  0  0  0
   37.6500   34.2280   39.2380 H   0  0  0  0  0  0  0  0  0  0  0  0
   36.2990   33.8690   40.5350 H   0  0  0  0  0  0  0  0  0  0  0  0
   40.7080   27.1000   42.8640 C   0  0  0  0  0  0  0  0  0  0  0  0
   41.6860   27.8660   43.4520 C   0  0  0  0  0  0  0  0  0  0  0  0
   42.9870   27.4270   43.6790 C   0  0  0  0  0  0  0  0  0  0  0  0
   43.3020   26.1520   43.2860 C   0  0  0  0  0  0  0  0  0  0  0  0
   42.3450   25.3540   42.6910 C   0  0  0  0  0  0  0  0  0  0  0  0
   41.0550   25.8290   42.4830 C   0  0  0  0  0  0  0  0  0  0  0  0
   41.5160   28.8940   43.7940 H   0  0  0  0  0  0  0  0  0  0  0  0
   43.7470   28.0420   44.1430 H   0  0  0  0  0  0  0  0  0  0  0  0
   44.2700   25.6890   43.4010 H   0  0  0  0  0  0  0  0  0  0  0  0
   42.5140   24.3360   42.3530 H   0  0  0  0  0  0  0  0  0  0  0  0
   40.0200   25.0500   41.8710 N   0  0  0  0  0  0  0  0  0  0  0  0
   39.0400   24.2230   42.5240 C   0  0  0  0  0  2  0  0  0  0  0  0
   37.7360   24.2560   41.7400 C   0  0  0  0  0  2  0  0  0  0  0  0
   38.0360   23.5330   40.4400 C   0  0  0  0  0  3  0  0  0  0  0  0
   37.1080   23.6230   39.8060 H   0  0  0  0  0  0  0  0  0  0  0  0
   39.2790   24.0030   39.7590 C   0  0  0  0  0  2  0  0  0  0  0  0
   39.9900   25.1310   40.4330 C   0  0  0  0  0  2  0  0  0  0  0  0
   40.9130   29.1170   39.9010 N   0  0  0  0  0  0  0  0  0  0  0  0
   40.0910   28.8800   40.7030 C   0  0  0  0  0  0  0  0  0  0  0  0
  1  6  1  0  0  0  0
  2  1  2  0  0  0  0
  2  3  1  0  0  0  0
  3  4  2  0  0  0  0
  4  5  1  0  0  0  0
  4  8  1  0  0  0  0
  5  9  1  0  0  0  0
  6 21  1  0  0  0  0
  6  5  2  0  0  0  0
  7  3  1  0  0  0  0
 10 16  1  0  0  0  0
 10 11  1  0  0  0  0
 11 17  1  0  0  0  0
 12 11  2  0  0  0  0
 12  2  1  0  0  0  0
 13 12  1  0  0  0  0
 14 15  1  0  0  0  0
 14 13  2  0  0  0  0
 15 10  2  0  0  0  0
 16 20  1  0  0  0  0
 18 14  1  0  0  0  0
 19 16  1  0  0  0  0
 21 22  1  0  0  0  0
 22 23  2  0  0  0  0
 22 27  1  0  0  0  0
 23 28  1  0  0  0  0
 24 29  1  0  0  0  0
 24 23  1  0  0  0  0
 25 24  2  0  0  0  0
 26 25  1  0  0  0  0
 26 21  2  0  0  0  0
 30 25  1  0  0  0  0
 31 26  1  0  0  0  0
 31 32  1  0  0  0  0
 33 32  1  0  0  0  0
 34 33  1  0  0  0  0
 35 34  1  0  0  0  0
 36 37  1  0  0  0  0
 36 34  1  0  0  0  0
 37 31  1  0  0  0  0
 38 39  3  0  0  0  0
 39  1  1  0  0  0  0
M  END
>  <minimizedAffinity>
-6.36948538

$$$$

 OpenBabel03252508403D

 39 42  0  0  0  0  0  0  0  0999 V2000
   38.7400   30.6890   38.9020 C   0  0  0  0  0  0  0  0  0  0  0  0
   39.2410   31.8800   39.3500 C   0  0  0  0  0  0  0  0  0  0  0  0
   38.3970   32.7010   40.0390 C   0  0  0  0  0  0  0  0  0  0  0  0
   37.0750   32.3910   40.3040 C   0  0  0  0  0  0  0  0  0  0  0  0
   36.6090   31.1790   39.8350 C   0  0  0  0  0  0  0  0  0  0  0  0
   37.4350   30.3200   39.1320 C   0  0  0  0  0  0  0  0  0  0  0  0
   38.7860   33.6450   40.3970 H   0  0  0  0  0  0  0  0  0  0  0  0
   36.4390   33.0720   40.8560 H   0  0  0  0  0  0  0  0  0  0  0  0
   35.5650   30.9610   40.0580 H   0  0  0  0  0  0  0  0  0  0  0  0
   42.3560   33.2900   37.7480 C   0  0  0  0  0  0  0  0  0  0  0  0
   40.9960   33.0270   38.0030 C   0  0  0  0  0  0  0  0  0  0  0  0
   40.6300   32.1760   39.0560 C   0  0  0  0  0  0  0  0  0  0  0  0
   41.6620   31.6540   39.7700 N   0  0  0  0  0  0  0  0  0  0  0  0
   42.9450   31.9220   39.5030 C   0  0  0  0  0  0  0  0  0  0  0  0
   43.2870   32.7360   38.4980 N   0  0  0  0  0  0  0  0  0  0  0  0
   42.6550   34.1610   36.6680 N   0  0  0  0  0  0  0  0  0  0  0  0
   40.2310   33.4810   37.3880 H   0  0  0  0  0  0  0  0  0  0  0  0
   43.6690   31.4420   40.1490 H   0  0  0  0  0  0  0  0  0  0  0  0
   43.2770   34.9440   36.9670 H   0  0  0  0  0  0  0  0  0  0  0  0
   42.2230   33.8890   35.7770 H   0  0  0  0  0  0  0  0  0  0  0  0
   36.8420   29.0740   38.6840 C   0  0  0  0  0  0  0  0  0  0  0  0
   36.3030   29.0870   37.4200 C   0  0  0  0  0  0  0  0  0  0  0  0
   35.6940   27.9870   36.8230 C   0  0  0  0  0  0  0  0  0  0  0  0
   35.6320   26.8260   37.5490 C   0  0  0  0  0  0  0  0  0  0  0  0
   36.1650   26.7770   38.8220 C   0  0  0  0  0  0  0  0  0  0  0  0
   36.7660   27.8960   39.3840 C   0  0  0  0  0  0  0  0  0  0  0  0
   36.3110   29.9740   36.7760 H   0  0  0  0  0  0  0  0  0  0  0  0
   35.2740   28.0120   35.8260 H   0  0  0  0  0  0  0  0  0  0  0  0
   35.1890   25.9040   37.2070 H   0  0  0  0  0  0  0  0  0  0  0  0
   36.1560   25.8980   39.4610 H   0  0  0  0  0  0  0  0  0  0  0  0
   37.3340   27.9080   40.7000 N   0  0  0  0  0  0  0  0  0  0  0  0
   38.7130   27.7200   41.0630 C   0  0  0  0  0  2  0  0  0  0  0  0
   39.0420   28.5650   42.2860 C   0  0  0  0  0  2  0  0  0  0  0  0
   38.2610   27.9350   43.4250 C   0  0  0  0  0  3  0  0  0  0  0  0
   38.4210   28.5990   44.3220 H   0  0  0  0  0  0  0  0  0  0  0  0
   36.8240   27.6850   43.1080 C   0  0  0  0  0  2  0  0  0  0  0  0
   36.3790   28.1370   41.7550 C   0  0  0  0  0  2  0  0  0  0  0  0
   40.2480   29.0190   37.5610 N   0  0  0  0  0  0  0  0  0  0  0  0
   39.5740   29.7660   38.1640 C   0  0  0  0  0  0  0  0  0  0  0  0
  1  6  2  0  0  0  0
  1  2  1  0  0  0  0
  2  3  2  0  0  0  0
  3  4  1  0  0  0  0
  3  7  1  0  0  0  0
  4  8  1  0  0  0  0
  5  9  1  0  0  0  0
  5  4  2  0  0  0  0
  6  5  1  0  0  0  0
 10 11  2  0  0  0  0
 10 15  1  0  0  0  0
 11 12  1  0  0  0  0
 12  2  1  0  0  0  0
 12 13  2  0  0  0  0
 14 13  1  0  0  0  0
 14 18  1  0  0  0  0
 15 14  2  0  0  0  0
 16 19  1  0  0  0  0
 16 10  1  0  0  0  0
 17 11  1  0  0  0  0
 20 16  1  0  0  0  0
 21  6  1  0  0  0  0
 21 26  1  0  0  0  0
 22 21  2  0  0  0  0
 23 22  1  0  0  0  0
 23 24  2  0  0  0  0
 24 25  1  0  0  0  0
 25 26  2  0  0  0  0
 25 30  1  0  0  0  0
 26 31  1  0  0  0  0
 27 22  1  0  0  0  0
 28 23  1  0  0  0  0
 29 24  1  0  0  0  0
 31 32  1  0  0  0  0
 31 37  1  0  0  0  0
 32 33  1  0  0  0  0
 33 34  1  0  0  0  0
 34 35  1  0  0  0  0
 36 34  1  0  0  0  0
 37 36  1  0  0  0  0
 38 39  3  0  0  0  0
 39  1  1  0  0  0  0
M  END
>  <minimizedAffinity>
-6.29869032

$$$$

 OpenBabel03252508403D

 39 42  0  0  0  0  0  0  0  0999 V2000
   38.1800   28.3560   41.0690 C   0  0  0  0  0  0  0  0  0  0  0  0
   38.1010   29.4430   41.8960 C   0  0  0  0  0  0  0  0  0  0  0  0
   37.6910   29.2290   43.1800 C   0  0  0  0  0  0  0  0  0  0  0  0
   37.3550   27.9840   43.6800 C   0  0  0  0  0  0  0  0  0  0  0  0
   37.4480   26.9140   42.8120 C   0  0  0  0  0  0  0  0  0  0  0  0
   37.8600   27.0910   41.5030 C   0  0  0  0  0  0  0  0  0  0  0  0
   37.6280   30.0840   43.8410 H   0  0  0  0  0  0  0  0  0  0  0  0
   37.0340   27.8600   44.7070 H   0  0  0  0  0  0  0  0  0  0  0  0
   37.1770   25.9470   43.2310 H   0  0  0  0  0  0  0  0  0  0  0  0
   37.8890   32.8310   40.2440 C   0  0  0  0  0  0  0  0  0  0  0  0
   37.5010   31.5840   40.7720 C   0  0  0  0  0  0  0  0  0  0  0  0
   38.4610   30.7340   41.3430 C   0  0  0  0  0  0  0  0  0  0  0  0
   39.7350   31.2050   41.3380 N   0  0  0  0  0  0  0  0  0  0  0  0
   40.0730   32.3950   40.8280 C   0  0  0  0  0  0  0  0  0  0  0  0
   39.1530   33.2000   40.2850 N   0  0  0  0  0  0  0  0  0  0  0  0
   36.8680   33.6410   39.6820 N   0  0  0  0  0  0  0  0  0  0  0  0
   36.4650   31.2790   40.7380 H   0  0  0  0  0  0  0  0  0  0  0  0
   41.1230   32.6500   40.8870 H   0  0  0  0  0  0  0  0  0  0  0  0
   36.8660   34.5980   40.0970 H   0  0  0  0  0  0  0  0  0  0  0  0
   36.3020   33.1680   38.9680 H   0  0  0  0  0  0  0  0  0  0  0  0
   37.9200   25.8990   40.6770 C   0  0  0  0  0  0  0  0  0  0  0  0
   36.7390   25.5210   40.0850 C   0  0  0  0  0  0  0  0  0  0  0  0
   36.6050   24.4070   39.2600 C   0  0  0  0  0  0  0  0  0  0  0  0
   37.7250   23.6490   39.0330 C   0  0  0  0  0  0  0  0  0  0  0  0
   38.9280   24.0010   39.6120 C   0  0  0  0  0  0  0  0  0  0  0  0
   39.0220   25.1200   40.4290 C   0  0  0  0  0  0  0  0  0  0  0  0
   35.8010   26.0710   40.2160 H   0  0  0  0  0  0  0  0  0  0  0  0
   35.6690   24.1210   38.8000 H   0  0  0  0  0  0  0  0  0  0  0  0
   37.7600   22.7640   38.4170 H   0  0  0  0  0  0  0  0  0  0  0  0
   39.8590   23.4550   39.4820 H   0  0  0  0  0  0  0  0  0  0  0  0
   40.2410   25.5350   41.0580 N   0  0  0  0  0  0  0  0  0  0  0  0
   41.2660   26.3850   40.5130 C   0  0  0  0  0  2  0  0  0  0  0  0
   41.8910   27.2150   41.6260 C   0  0  0  0  0  2  0  0  0  0  0  0
   42.6420   26.2200   42.4900 C   0  0  0  0  0  3  0  0  0  0  0  0
   43.0390   26.8020   43.3710 H   0  0  0  0  0  0  0  0  0  0  0  0
   41.8390   25.0210   42.8720 C   0  0  0  0  0  2  0  0  0  0  0  0
   40.4230   25.0200   42.3920 C   0  0  0  0  0  2  0  0  0  0  0  0
   38.9540   28.6250   38.5820 N   0  0  0  0  0  0  0  0  0  0  0  0
   38.6060   28.5030   39.6950 C   0  0  0  0  0  0  0  0  0  0  0  0
  1  6  2  0  0  0  0
  1  2  1  0  0  0  0
  2  3  2  0  0  0  0
  3  4  1  0  0  0  0
  3  7  1  0  0  0  0
  4  8  1  0  0  0  0
  5  9  1  0  0  0  0
  5  4  2  0  0  0  0
  6  5  1  0  0  0  0
 10 15  2  0  0  0  0
 10 11  1  0  0  0  0
 11 12  2  0  0  0  0
 12  2  1  0  0  0  0
 13 12  1  0  0  0  0
 14 18  1  0  0  0  0
 14 13  2  0  0  0  0
 15 14  1  0  0  0  0
 16 19  1  0  0  0  0
 16 10  1  0  0  0  0
 17 11  1  0  0  0  0
 20 16  1  0  0  0  0
 21  6  1  0  0  0  0
 22 27  1  0  0  0  0
 22 21  2  0  0  0  0
 23 22  1  0  0  0  0
 24 23  2  0  0  0  0
 24 25  1  0  0  0  0
 25 26  2  0  0  0  0
 26 21  1  0  0  0  0
 26 31  1  0  0  0  0
 28 23  1  0  0  0  0
 29 24  1  0  0  0  0
 30 25  1  0  0  0  0
 31 37  1  0  0  0  0
 32 31  1  0  0  0  0
 32 33  1  0  0  0  0
 33 34  1  0  0  0  0
 34 36  1  0  0  0  0
 34 35  1  0  0  0  0
 37 36  1  0  0  0  0
 38 39  3  0  0  0  0
 39  1  1  0  0  0  0
M  END
>  <minimizedAffinity>
-6.05092716

$$$$

 OpenBabel03252508403D

 39 42  0  0  0  0  0  0  0  0999 V2000
   38.7070   27.2530   41.6260 C   0  0  0  0  0  0  0  0  0  0  0  0
   37.5700   26.5340   41.8760 C   0  0  0  0  0  0  0  0  0  0  0  0
   36.7680   26.9570   42.8960 C   0  0  0  0  0  0  0  0  0  0  0  0
   37.0450   28.0620   43.6790 C   0  0  0  0  0  0  0  0  0  0  0  0
   38.2020   28.7600   43.3940 C   0  0  0  0  0  0  0  0  0  0  0  0
   39.0400   28.3610   42.3680 C   0  0  0  0  0  0  0  0  0  0  0  0
   35.8660   26.3950   43.0990 H   0  0  0  0  0  0  0  0  0  0  0  0
   36.3800   28.3630   44.4800 H   0  0  0  0  0  0  0  0  0  0  0  0
   38.3950   29.6250   44.0270 H   0  0  0  0  0  0  0  0  0  0  0  0
   37.5880   23.0280   40.4760 C   0  0  0  0  0  0  0  0  0  0  0  0
   37.8660   24.1250   41.3150 C   0  0  0  0  0  0  0  0  0  0  0  0
   37.3070   25.3810   41.0370 C   0  0  0  0  0  0  0  0  0  0  0  0
   36.5130   25.4360   39.9350 N   0  0  0  0  0  0  0  0  0  0  0  0
   36.2680   24.3760   39.1560 C   0  0  0  0  0  0  0  0  0  0  0  0
   36.8040   23.1810   39.4290 N   0  0  0  0  0  0  0  0  0  0  0  0
   38.1850   21.7860   40.8160 N   0  0  0  0  0  0  0  0  0  0  0  0
   38.5090   24.0010   42.1750 H   0  0  0  0  0  0  0  0  0  0  0  0
   35.6180   24.5560   38.3110 H   0  0  0  0  0  0  0  0  0  0  0  0
   37.4750   21.0250   40.8850 H   0  0  0  0  0  0  0  0  0  0  0  0
   39.2040   21.8290   40.9370 H   0  0  0  0  0  0  0  0  0  0  0  0
   40.2300   29.1650   42.1560 C   0  0  0  0  0  0  0  0  0  0  0  0
   41.3300   28.8140   42.9010 C   0  0  0  0  0  0  0  0  0  0  0  0
   42.5570   29.4680   42.8310 C   0  0  0  0  0  0  0  0  0  0  0  0
   42.6620   30.5250   41.9640 C   0  0  0  0  0  0  0  0  0  0  0  0
   41.5770   30.9040   41.2000 C   0  0  0  0  0  0  0  0  0  0  0  0
   40.3680   30.2260   41.2970 C   0  0  0  0  0  0  0  0  0  0  0  0
   41.3280   27.9840   43.6160 H   0  0  0  0  0  0  0  0  0  0  0  0
   43.4150   29.1810   43.4240 H   0  0  0  0  0  0  0  0  0  0  0  0
   43.5520   31.1170   41.8140 H   0  0  0  0  0  0  0  0  0  0  0  0
   41.5790   31.7280   40.4910 H   0  0  0  0  0  0  0  0  0  0  0  0
   39.2070   30.5720   40.5320 N   0  0  0  0  0  0  0  0  0  0  0  0
   38.7990   30.0330   39.2620 C   0  0  0  0  0  2  0  0  0  0  0  0
   37.2790   29.9880   39.1890 C   0  0  0  0  0  2  0  0  0  0  0  0
   36.8410   31.4400   39.1420 C   0  0  0  0  0  3  0  0  0  0  0  0
   35.7140   31.4320   39.1770 H   0  0  0  0  0  0  0  0  0  0  0  0
   37.4700   32.2960   40.1910 C   0  0  0  0  0  2  0  0  0  0  0  0
   38.3790   31.5830   41.1390 C   0  0  0  0  0  2  0  0  0  0  0  0
   40.3340   26.5560   39.6960 N   0  0  0  0  0  0  0  0  0  0  0  0
   39.6060   26.8660   40.5620 C   0  0  0  0  0  0  0  0  0  0  0  0
  1  2  2  0  0  0  0
  1  6  1  0  0  0  0
  2  3  1  0  0  0  0
  3  7  1  0  0  0  0
  3  4  2  0  0  0  0
  4  8  1  0  0  0  0
  5  4  1  0  0  0  0
  5  9  1  0  0  0  0
  6  5  2  0  0  0  0
 10 16  1  0  0  0  0
 10 11  1  0  0  0  0
 11 17  1  0  0  0  0
 12 11  2  0  0  0  0
 12  2  1  0  0  0  0
 13 12  1  0  0  0  0
 14 15  1  0  0  0  0
 14 13  2  0  0  0  0
 15 10  2  0  0  0  0
 16 19  1  0  0  0  0
 16 20  1  0  0  0  0
 18 14  1  0  0  0  0
 21  6  1  0  0  0  0
 21 22  1  0  0  0  0
 22 27  1  0  0  0  0
 23 22  2  0  0  0  0
 23 28  1  0  0  0  0
 24 23  1  0  0  0  0
 25 26  1  0  0  0  0
 25 24  2  0  0  0  0
 26 21  2  0  0  0  0
 29 24  1  0  0  0  0
 30 25  1  0  0  0  0
 31 37  1  0  0  0  0
 31 26  1  0  0  0  0
 32 31  1  0  0  0  0
 33 32  1  0  0  0  0
 34 35  1  0  0  0  0
 34 33  1  0  0  0  0
 34 36  1  0  0  0  0
 36 37  1  0  0  0  0
 38 39  3  0  0  0  0
 39  1  1  0  0  0  0
M  END
>  <minimizedAffinity>
-6.03402662

$$$$

 OpenBabel03252508403D

 39 42  0  0  0  0  0  0  0  0999 V2000
   39.2740   30.0540   38.8950 C   0  0  0  0  0  0  0  0  0  0  0  0
   38.9570   31.3840   38.8670 C   0  0  0  0  0  0  0  0  0  0  0  0
   37.6400   31.7150   38.7340 C   0  0  0  0  0  0  0  0  0  0  0  0
   36.6230   30.7840   38.6270 C   0  0  0  0  0  0  0  0  0  0  0  0
   36.9870   29.4520   38.6600 C   0  0  0  0  0  0  0  0  0  0  0  0
   38.3120   29.0770   38.7930 C   0  0  0  0  0  0  0  0  0  0  0  0
   37.3800   32.7650   38.7120 H   0  0  0  0  0  0  0  0  0  0  0  0
   35.5900   31.0910   38.5230 H   0  0  0  0  0  0  0  0  0  0  0  0
   36.1670   28.7410   38.5730 H   0  0  0  0  0  0  0  0  0  0  0  0
   41.7920   33.7230   38.0060 C   0  0  0  0  0  0  0  0  0  0  0  0
   40.7400   32.7990   37.8550 C   0  0  0  0  0  0  0  0  0  0  0  0
   40.0450   32.3350   38.9820 C   0  0  0  0  0  0  0  0  0  0  0  0
   40.4630   32.8380   40.1730 N   0  0  0  0  0  0  0  0  0  0  0  0
   41.4670   33.7150   40.2860 C   0  0  0  0  0  0  0  0  0  0  0  0
   42.1250   34.1530   39.2070 N   0  0  0  0  0  0  0  0  0  0  0  0
   42.4520   34.1510   36.8250 N   0  0  0  0  0  0  0  0  0  0  0  0
   40.4670   32.4450   36.8710 H   0  0  0  0  0  0  0  0  0  0  0  0
   41.6990   34.0360   41.2920 H   0  0  0  0  0  0  0  0  0  0  0  0
   42.4750   35.1920   36.7540 H   0  0  0  0  0  0  0  0  0  0  0  0
   42.8000   33.3850   36.2370 H   0  0  0  0  0  0  0  0  0  0  0  0
   38.5820   27.6520   38.8150 C   0  0  0  0  0  0  0  0  0  0  0  0
   38.8680   27.0780   37.5990 C   0  0  0  0  0  0  0  0  0  0  0  0
   39.1520   25.7260   37.4250 C   0  0  0  0  0  0  0  0  0  0  0  0
   39.1440   24.9290   38.5400 C   0  0  0  0  0  0  0  0  0  0  0  0
   38.8610   25.4720   39.7770 C   0  0  0  0  0  0  0  0  0  0  0  0
   38.5820   26.8260   39.9110 C   0  0  0  0  0  0  0  0  0  0  0  0
   38.8940   27.6450   36.6620 H   0  0  0  0  0  0  0  0  0  0  0  0
   39.3760   25.2880   36.4610 H   0  0  0  0  0  0  0  0  0  0  0  0
   39.3460   23.8690   38.5450 H   0  0  0  0  0  0  0  0  0  0  0  0
   38.8340   24.9090   40.7070 H   0  0  0  0  0  0  0  0  0  0  0  0
   38.2810   27.4480   41.1670 N   0  0  0  0  0  0  0  0  0  0  0  0
   39.1850   28.1490   42.0390 C   0  0  0  0  0  2  0  0  0  0  0  0
   38.4470   29.2820   42.7400 C   0  0  0  0  0  2  0  0  0  0  0  0
   37.4680   28.5980   43.6770 C   0  0  0  0  0  3  0  0  0  0  0  0
   36.8500   29.4190   44.1410 H   0  0  0  0  0  0  0  0  0  0  0  0
   36.6580   27.5250   43.0290 C   0  0  0  0  0  2  0  0  0  0  0  0
   36.9010   27.3350   41.5670 C   0  0  0  0  0  2  0  0  0  0  0  0
   41.7640   29.2810   39.1440 N   0  0  0  0  0  0  0  0  0  0  0  0
   40.6490   29.6250   39.0340 C   0  0  0  0  0  0  0  0  0  0  0  0
  1 39  1  0  0  0  0
  2  1  1  0  0  0  0
  2 12  1  0  0  0  0
  3  2  2  0  0  0  0
  4  5  2  0  0  0  0
  4  3  1  0  0  0  0
  5  6  1  0  0  0  0
  6 21  1  0  0  0  0
  6  1  2  0  0  0  0
  7  3  1  0  0  0  0
  8  4  1  0  0  0  0
  9  5  1  0  0  0  0
 10 15  1  0  0  0  0
 11 10  2  0  0  0  0
 11 12  1  0  0  0  0
 12 13  2  0  0  0  0
 13 14  1  0  0  0  0
 14 18  1  0  0  0  0
 15 14  2  0  0  0  0
 16 10  1  0  0  0  0
 17 11  1  0  0  0  0
 19 16  1  0  0  0  0
 20 16  1  0  0  0  0
 21 26  1  0  0  0  0
 22 21  2  0  0  0  0
 23 22  1  0  0  0  0
 23 24  2  0  0  0  0
 24 29  1  0  0  0  0
 24 25  1  0  0  0  0
 25 26  2  0  0  0  0
 25 30  1  0  0  0  0
 26 31  1  0  0  0  0
 27 22  1  0  0  0  0
 28 23  1  0  0  0  0
 31 37  1  0  0  0  0
 31 32  1  0  0  0  0
 32 33  1  0  0  0  0
 33 34  1  0  0  0  0
 34 35  1  0  0  0  0
 36 34  1  0  0  0  0
 37 36  1  0  0  0  0
 39 38  3  0  0  0  0
M  END
>  <minimizedAffinity>
-6.02137566

$$$$

 OpenBabel03252508403D

 39 42  0  0  0  0  0  0  0  0999 V2000
   38.6150   28.0690   41.4030 C   0  0  0  0  0  0  0  0  0  0  0  0
   39.0420   28.4060   42.6580 C   0  0  0  0  0  0  0  0  0  0  0  0
   38.1440   28.2990   43.6800 C   0  0  0  0  0  0  0  0  0  0  0  0
   36.8390   27.8750   43.5110 C   0  0  0  0  0  0  0  0  0  0  0  0
   36.4480   27.5450   42.2280 C   0  0  0  0  0  0  0  0  0  0  0  0
   37.3300   27.6400   41.1670 C   0  0  0  0  0  0  0  0  0  0  0  0
   38.4750   28.5630   44.6760 H   0  0  0  0  0  0  0  0  0  0  0  0
   36.1590   27.8050   44.3510 H   0  0  0  0  0  0  0  0  0  0  0  0
   35.4160   27.2140   42.1240 H   0  0  0  0  0  0  0  0  0  0  0  0
   42.1040   30.5980   42.9290 C   0  0  0  0  0  0  0  0  0  0  0  0
   40.7580   30.2080   42.7860 C   0  0  0  0  0  0  0  0  0  0  0  0
   40.4160   28.8470   42.8020 C   0  0  0  0  0  0  0  0  0  0  0  0
   41.4550   27.9860   42.9600 N   0  0  0  0  0  0  0  0  0  0  0  0
   42.7250   28.3870   43.0920 C   0  0  0  0  0  0  0  0  0  0  0  0
   43.0430   29.6860   43.0770 N   0  0  0  0  0  0  0  0  0  0  0  0
   42.3800   31.9900   42.9040 N   0  0  0  0  0  0  0  0  0  0  0  0
   39.9870   30.9550   42.6640 H   0  0  0  0  0  0  0  0  0  0  0  0
   43.4560   27.5980   43.2110 H   0  0  0  0  0  0  0  0  0  0  0  0
   42.9300   32.2870   43.7400 H   0  0  0  0  0  0  0  0  0  0  0  0
   42.0050   32.4780   42.0830 H   0  0  0  0  0  0  0  0  0  0  0  0
   36.8140   27.2700   39.8620 C   0  0  0  0  0  0  0  0  0  0  0  0
   36.6920   25.9210   39.6260 C   0  0  0  0  0  0  0  0  0  0  0  0
   36.2150   25.3800   38.4360 C   0  0  0  0  0  0  0  0  0  0  0  0
   35.8490   26.2540   37.4450 C   0  0  0  0  0  0  0  0  0  0  0  0
   35.9580   27.6160   37.6470 C   0  0  0  0  0  0  0  0  0  0  0  0
   36.4380   28.1180   38.8510 C   0  0  0  0  0  0  0  0  0  0  0  0
   36.9630   25.1590   40.3650 H   0  0  0  0  0  0  0  0  0  0  0  0
   36.1250   24.3160   38.2640 H   0  0  0  0  0  0  0  0  0  0  0  0
   35.4660   25.9690   36.4780 H   0  0  0  0  0  0  0  0  0  0  0  0
   35.6900   28.3720   36.9150 H   0  0  0  0  0  0  0  0  0  0  0  0
   36.5750   29.5190   39.1200 N   0  0  0  0  0  0  0  0  0  0  0  0
   35.8800   30.2950   40.1110 C   0  0  0  0  0  2  0  0  0  0  0  0
   36.7930   31.3930   40.6380 C   0  0  0  0  0  2  0  0  0  0  0  0
   36.9800   32.3470   39.4720 C   0  0  0  0  0  3  0  0  0  0  0  0
   37.7250   33.1210   39.8130 H   0  0  0  0  0  0  0  0  0  0  0  0
   37.3530   31.6740   38.1930 C   0  0  0  0  0  2  0  0  0  0  0  0
   37.5320   30.1920   38.2780 C   0  0  0  0  0  2  0  0  0  0  0  0
   40.2310   28.2300   39.3490 N   0  0  0  0  0  0  0  0  0  0  0  0
   39.5090   28.1560   40.2690 C   0  0  0  0  0  0  0  0  0  0  0  0
  1  2  1  0  0  0  0
  2 12  1  0  0  0  0
  2  3  2  0  0  0  0
  3  7  1  0  0  0  0
  4  3  1  0  0  0  0
  4  8  1  0  0  0  0
  5  4  2  0  0  0  0
  6  1  2  0  0  0  0
  6  5  1  0  0  0  0
  9  5  1  0  0  0  0
 10 15  1  0  0  0  0
 11 12  1  0  0  0  0
 11 10  2  0  0  0  0
 12 13  2  0  0  0  0
 13 14  1  0  0  0  0
 14 18  1  0  0  0  0
 15 14  2  0  0  0  0
 16 10  1  0  0  0  0
 16 19  1  0  0  0  0
 17 11  1  0  0  0  0
 20 16  1  0  0  0  0
 21  6  1  0  0  0  0
 22 21  1  0  0  0  0
 22 27  1  0  0  0  0
 23 22  2  0  0  0  0
 24 25  2  0  0  0  0
 24 23  1  0  0  0  0
 25 26  1  0  0  0  0
 26 31  1  0  0  0  0
 26 21  2  0  0  0  0
 28 23  1  0  0  0  0
 29 24  1  0  0  0  0
 30 25  1  0  0  0  0
 31 32  1  0  0  0  0
 32 33  1  0  0  0  0
 34 35  1  0  0  0  0
 34 33  1  0  0  0  0
 36 37  1  0  0  0  0
 36 34  1  0  0  0  0
 37 31  1  0  0  0  0
 38 39  3  0  0  0  0
 39  1  1  0  0  0  0
M  END
>  <minimizedAffinity>
-6.01590347

$$$$

 OpenBabel03252508403D

 39 42  0  0  0  0  0  0  0  0999 V2000
   38.6360   30.0210   37.7050 C   0  0  0  0  0  0  0  0  0  0  0  0
   40.0040   30.0250   37.7130 C   0  0  0  0  0  0  0  0  0  0  0  0
   40.6410   28.8930   37.2950 C   0  0  0  0  0  0  0  0  0  0  0  0
   39.9800   27.7560   36.8700 C   0  0  0  0  0  0  0  0  0  0  0  0
   38.5990   27.7930   36.8770 C   0  0  0  0  0  0  0  0  0  0  0  0
   37.9190   28.9220   37.2940 C   0  0  0  0  0  0  0  0  0  0  0  0
   41.7230   28.8900   37.2980 H   0  0  0  0  0  0  0  0  0  0  0  0
   40.5260   26.8780   36.5460 H   0  0  0  0  0  0  0  0  0  0  0  0
   38.1050   26.8830   36.5380 H   0  0  0  0  0  0  0  0  0  0  0  0
   41.8940   33.2930   37.7370 C   0  0  0  0  0  0  0  0  0  0  0  0
   41.2580   32.1300   37.2610 C   0  0  0  0  0  0  0  0  0  0  0  0
   40.6670   31.2330   38.1640 C   0  0  0  0  0  0  0  0  0  0  0  0
   40.7640   31.5760   39.4760 N   0  0  0  0  0  0  0  0  0  0  0  0
   41.3750   32.6880   39.8980 C   0  0  0  0  0  0  0  0  0  0  0  0
   41.9360   33.5400   39.0310 N   0  0  0  0  0  0  0  0  0  0  0  0
   42.4700   34.1580   36.7710 N   0  0  0  0  0  0  0  0  0  0  0  0
   41.2240   31.9270   36.2010 H   0  0  0  0  0  0  0  0  0  0  0  0
   41.3810   32.8430   40.9680 H   0  0  0  0  0  0  0  0  0  0  0  0
   42.1290   35.1380   36.8800 H   0  0  0  0  0  0  0  0  0  0  0  0
   43.1220   33.6940   36.1270 H   0  0  0  0  0  0  0  0  0  0  0  0
   36.4690   28.8520   37.2630 C   0  0  0  0  0  0  0  0  0  0  0  0
   35.8720   29.3030   36.1100 C   0  0  0  0  0  0  0  0  0  0  0  0
   34.4960   29.3110   35.8980 C   0  0  0  0  0  0  0  0  0  0  0  0
   33.6980   28.8400   36.9080 C   0  0  0  0  0  0  0  0  0  0  0  0
   34.2640   28.3790   38.0810 C   0  0  0  0  0  0  0  0  0  0  0  0
   35.6420   28.3860   38.2540 C   0  0  0  0  0  0  0  0  0  0  0  0
   36.4380   29.6940   35.2570 H   0  0  0  0  0  0  0  0  0  0  0  0
   34.0400   29.6690   34.9850 H   0  0  0  0  0  0  0  0  0  0  0  0
   32.6210   28.7920   36.8760 H   0  0  0  0  0  0  0  0  0  0  0  0
   33.7020   27.9910   38.9260 H   0  0  0  0  0  0  0  0  0  0  0  0
   36.2880   27.9230   39.4460 N   0  0  0  0  0  0  0  0  0  0  0  0
   36.8840   26.6340   39.6780 C   0  0  0  0  0  2  0  0  0  0  0  0
   38.0870   26.7830   40.5990 C   0  0  0  0  0  2  0  0  0  0  0  0
   37.5110   27.1820   41.9450 C   0  0  0  0  0  3  0  0  0  0  0  0
   38.3920   27.3840   42.6180 H   0  0  0  0  0  0  0  0  0  0  0  0
   36.5340   28.3090   41.8750 C   0  0  0  0  0  2  0  0  0  0  0  0
   36.3240   28.8900   40.5140 C   0  0  0  0  0  2  0  0  0  0  0  0
   37.2860   32.1240   38.4860 N   0  0  0  0  0  0  0  0  0  0  0  0
   37.8900   31.1830   38.1340 C   0  0  0  0  0  0  0  0  0  0  0  0
  1  2  1  0  0  0  0
  1 39  1  0  0  0  0
  2 12  1  0  0  0  0
  3  7  1  0  0  0  0
  3  2  2  0  0  0  0
  4  5  2  0  0  0  0
  4  3  1  0  0  0  0
  5  6  1  0  0  0  0
  6  1  2  0  0  0  0
  8  4  1  0  0  0  0
  9  5  1  0  0  0  0
 10 15  1  0  0  0  0
 11 10  2  0  0  0  0
 11 12  1  0  0  0  0
 12 13  2  0  0  0  0
 13 14  1  0  0  0  0
 14 18  1  0  0  0  0
 15 14  2  0  0  0  0
 16 19  1  0  0  0  0
 16 10  1  0  0  0  0
 17 11  1  0  0  0  0
 20 16  1  0  0  0  0
 21  6  1  0  0  0  0
 21 26  1  0  0  0  0
 22 21  2  0  0  0  0
 23 22  1  0  0  0  0
 23 24  2  0  0  0  0
 24 25  1  0  0  0  0
 25 26  2  0  0  0  0
 25 30  1  0  0  0  0
 26 31  1  0  0  0  0
 27 22  1  0  0  0  0
 28 23  1  0  0  0  0
 29 24  1  0  0  0  0
 31 32  1  0  0  0  0
 31 37  1  0  0  0  0
 32 33  1  0  0  0  0
 33 34  1  0  0  0  0
 34 35  1  0  0  0  0
 36 34  1  0  0  0  0
 37 36  1  0  0  0  0
 39 38  3  0  0  0  0
M  END
>  <minimizedAffinity>
-5.94309378

$$$$
