
 OpenBabel03252509223D

 25 27  0  0  1  0  0  0  0  0999 V2000
   46.5440   34.9740   41.9710 C   0  0  1  0  0  0  0  0  0  0  0  0
   48.0800   35.1670   41.9760 C   0  0  0  0  0  0  0  0  0  0  0  0
   47.3140   33.9320   41.3970 C   0  0  2  0  0  0  0  0  0  0  0  0
   46.0040   35.7430   41.3900 H   0  0  0  0  0  0  0  0  0  0  0  0
   48.4060   35.9350   41.2670 H   0  0  0  0  0  0  0  0  0  0  0  0
   48.6350   35.0060   42.9090 H   0  0  0  0  0  0  0  0  0  0  0  0
   47.4750   33.0030   42.0240 H   0  0  0  0  0  0  0  0  0  0  0  0
   44.6120   35.4500   45.1610 C   0  0  0  0  0  0  0  0  0  0  0  0
   45.0860   35.7050   43.8490 C   0  0  0  0  0  0  0  0  0  0  0  0
   46.0370   34.8300   43.3900 C   0  0  0  0  0  0  0  0  0  0  0  0
   46.4900   33.7730   44.1810 N   0  0  0  0  0  0  0  0  0  0  0  0
   46.0070   33.5850   45.4090 C   0  0  0  0  0  0  0  0  0  0  0  0
   45.0580   34.4300   45.9050 N   0  0  0  0  0  0  0  0  0  0  0  0
   43.8730   36.1130   45.5440 H   0  0  0  0  0  0  0  0  0  0  0  0
   46.4620   32.7260   45.8830 H   0  0  0  0  0  0  0  0  0  0  0  0
   44.6500   36.8070   43.0520 N   0  0  0  0  0  0  0  0  0  0  0  0
   44.8050   37.8440   43.2220 H   0  0  0  0  0  0  0  0  0  0  0  0
   44.1250   36.4190   42.2300 H   0  0  0  0  0  0  0  0  0  0  0  0
   47.4830   33.6610   40.0040 N   0  0  0  0  0  0  0  0  0  0  0  0
   48.2260   34.6570   39.3000 C   0  0  0  0  0  0  0  0  0  0  0  0
   48.4170   34.3140   37.8640 C   0  0  0  0  0  0  0  0  0  0  0  0
   47.2770   33.6250   37.1940 C   0  0  0  0  0  0  0  0  0  0  0  0
   47.7100   33.0670   36.3140 H   0  0  0  0  0  0  0  0  0  0  0  0
   46.6350   32.5680   38.0710 C   0  0  0  0  0  0  0  0  0  0  0  0
   46.2470   33.2740   39.3540 C   0  0  0  0  0  0  0  0  0  0  0  0
  1  4  1  6  0  0  0
  1  2  1  0  0  0  0
  1 10  1  0  0  0  0
  2  6  1  0  0  0  0
  3  1  1  0  0  0  0
  3  2  1  0  0  0  0
  3  7  1  1  0  0  0
  5  2  1  0  0  0  0
  8 14  1  0  0  0  0
  8 13  1  0  0  0  0
  9  8  2  0  0  0  0
 10  9  1  0  0  0  0
 10 11  2  0  0  0  0
 11 12  1  0  0  0  0
 12 15  1  0  0  0  0
 12 13  2  0  0  0  0
 16 17  1  0  0  0  0
 16  9  1  0  0  0  0
 18 16  1  0  0  0  0
 19  3  1  0  0  0  0
 20 19  1  0  0  0  0
 21 20  1  0  0  0  0
 22 21  1  0  0  0  0
 22 24  1  0  0  0  0
 23 22  1  0  0  0  0
 24 25  1  0  0  0  0
 25 19  1  0  0  0  0
M  END
>  <minimizedAffinity>
-5.07620716

>  <minimizedRMSD>
0.110878348

$$$$
