
 OpenBabel03252506503D

 29 32  0  0  0  0  0  0  0  0999 V2000
   47.2820   31.3920   45.1520 C   0  0  0  0  0  0  0  0  0  0  0  0
   46.8710   32.7220   45.1450 C   0  0  0  0  0  0  0  0  0  0  0  0
   46.2330   33.3200   46.2110 C   0  0  0  0  0  0  0  0  0  0  0  0
   45.9740   32.5790   47.3650 C   0  0  0  0  0  0  0  0  0  0  0  0
   45.3910   32.8140   48.5680 N   0  0  0  0  0  0  0  0  0  0  0  0
   45.4310   31.6780   49.3060 C   0  0  0  0  0  0  0  0  0  0  0  0
   46.0430   30.7500   48.5440 N   0  0  0  0  0  0  0  0  0  0  0  0
   46.3870   31.2700   47.3530 C   0  0  0  0  0  0  0  0  0  0  0  0
   47.0270   30.6460   46.3010 C   0  0  0  0  0  0  0  0  0  0  0  0
   47.7770   31.0090   44.2670 H   0  0  0  0  0  0  0  0  0  0  0  0
   45.9110   34.3460   46.2180 H   0  0  0  0  0  0  0  0  0  0  0  0
   44.9860   33.7610   48.8270 H   0  0  0  0  0  0  0  0  0  0  0  0
   45.0240   31.6030   50.3200 H   0  0  0  0  0  0  0  0  0  0  0  0
   46.4650   35.1980   42.4540 C   0  0  0  0  0  0  0  0  0  0  0  0
   47.6550   35.0250   41.7120 C   0  0  0  0  0  0  0  0  0  0  0  0
   48.5830   34.0670   42.1370 C   0  0  0  0  0  0  0  0  0  0  0  0
   48.2460   33.3670   43.2580 N   0  0  0  0  0  0  0  0  0  0  0  0
   47.1210   33.5330   43.9570 C   0  0  0  0  0  0  0  0  0  0  0  0
   46.2310   34.4460   43.5570 N   0  0  0  0  0  0  0  0  0  0  0  0
   45.7870   35.9380   42.0960 H   0  0  0  0  0  0  0  0  0  0  0  0
   47.9290   35.5630   40.8380 H   0  0  0  0  0  0  0  0  0  0  0  0
   49.5130   33.8790   41.6200 H   0  0  0  0  0  0  0  0  0  0  0  0
   47.4540   29.3100   46.2770 N   0  0  0  0  0  0  0  0  0  0  0  0
   48.6950   28.6780   46.6960 C   0  0  0  0  0  0  0  0  0  0  0  0
   48.3090   27.5230   47.6090 C   0  0  0  0  0  0  0  0  0  0  0  0
   47.4250   26.5430   46.9140 C   0  0  0  0  0  0  0  0  0  0  0  0
   47.9200   25.5570   46.7760 H   0  0  0  0  0  0  0  0  0  0  0  0
   46.9870   27.0240   45.5490 C   0  0  0  0  0  0  0  0  0  0  0  0
   46.4270   28.4310   45.7220 C   0  0  0  0  0  0  0  0  0  0  0  0
  1  9  1  0  0  0  0
  2  1  2  0  0  0  0
  2  3  1  0  0  0  0
  3 11  1  0  0  0  0
  3  4  2  0  0  0  0
  4  5  1  0  0  0  0
  5 12  1  0  0  0  0
  5  6  1  0  0  0  0
  6 13  1  0  0  0  0
  7  6  2  0  0  0  0
  8  4  1  0  0  0  0
  8  7  1  0  0  0  0
  9  8  2  0  0  0  0
 10  1  1  0  0  0  0
 14 19  1  0  0  0  0
 15 16  1  0  0  0  0
 15 14  2  0  0  0  0
 16 17  2  0  0  0  0
 17 18  1  0  0  0  0
 18  2  1  0  0  0  0
 19 18  2  0  0  0  0
 20 14  1  0  0  0  0
 21 15  1  0  0  0  0
 22 16  1  0  0  0  0
 23  9  1  0  0  0  0
 23 24  1  0  0  0  0
 24 25  1  0  0  0  0
 26 25  1  0  0  0  0
 27 26  1  0  0  0  0
 28 29  1  0  0  0  0
 28 26  1  0  0  0  0
 29 23  1  0  0  0  0
M  END
>  <minimizedAffinity>
-5.22703791

>  <minimizedRMSD>
0.889054418

$$$$
