
 OpenBabel03252509353D

 42 44  0  0  1  0  0  0  0  0999 V2000
   44.5290   35.4500   44.1040 O   0  0  0  0  0  0  0  0  0  0  0  0
   45.3980   34.2390   44.3820 P   0  0  1  0  0  0  0  0  0  0  0  0
   44.7240   32.8420   43.7010 O   0  0  0  0  0  0  0  0  0  0  0  0
   44.4800   33.0480   42.7770 H   0  0  0  0  0  0  0  0  0  0  0  0
   46.9070   34.5220   43.7260 O   0  0  0  0  0  0  0  0  0  0  0  0
   47.0320   33.8300   42.5150 C   0  0  1  0  0  0  0  0  0  0  0  0
   46.4440   34.6690   41.3760 C   0  0  0  0  0  0  0  0  0  0  0  0
   46.9520   33.9060   40.1790 C   0  0  0  0  0  0  0  0  0  0  0  0
   48.2400   33.2340   40.6240 C   0  0  0  0  0  0  0  0  0  0  0  0
   48.4470   33.6940   42.0500 C   0  0  1  0  0  0  0  0  0  0  0  0
   46.5110   32.8750   42.5020 H   0  0  0  0  0  0  0  0  0  0  0  0
   46.7130   35.7170   41.4160 H   0  0  0  0  0  0  0  0  0  0  0  0
   45.3410   34.6100   41.4670 H   0  0  0  0  0  0  0  0  0  0  0  0
   46.1710   33.1420   39.9000 H   0  0  0  0  0  0  0  0  0  0  0  0
   47.1210   34.5340   39.3040 H   0  0  0  0  0  0  0  0  0  0  0  0
   48.0790   32.1280   40.5970 H   0  0  0  0  0  0  0  0  0  0  0  0
   49.0880   33.4870   39.9690 H   0  0  0  0  0  0  0  0  0  0  0  0
   48.9730   32.8700   42.6080 H   0  0  0  0  0  0  0  0  0  0  0  0
   49.2140   34.9880   42.1090 C   0  0  0  0  0  0  0  0  0  0  0  0
   49.8330   35.0460   41.1720 H   0  0  0  0  0  0  0  0  0  0  0  0
   48.5860   35.8930   42.0940 H   0  0  0  0  0  0  0  0  0  0  0  0
   50.0140   35.0770   43.2260 O   0  0  0  0  0  0  0  0  0  0  0  0
   50.0430   34.2230   43.7180 H   0  0  0  0  0  0  0  0  0  0  0  0
   45.5060   33.9550   46.0230 O   0  0  0  0  0  0  0  0  0  0  0  0
   46.4400   32.9960   46.2500 C   0  0  0  0  0  0  0  0  0  0  0  0
   47.2830   33.5040   46.8060 H   0  0  0  0  0  0  0  0  0  0  0  0
   46.9190   32.5240   45.3960 H   0  0  0  0  0  0  0  0  0  0  0  0
   45.0770   31.3080   49.2720 C   0  0  0  0  0  0  0  0  0  0  0  0
   45.5130   32.3340   48.4260 C   0  0  0  0  0  0  0  0  0  0  0  0
   45.9710   31.9390   47.1620 C   0  0  0  0  0  0  0  0  0  0  0  0
   45.9670   30.6190   46.8350 N   0  0  0  0  0  0  0  0  0  0  0  0
   45.5390   29.6540   47.6760 C   0  0  0  0  0  0  0  0  0  0  0  0
   45.1010   29.9990   48.8780 N   0  0  0  0  0  0  0  0  0  0  0  0
   44.7160   31.5760   50.2580 H   0  0  0  0  0  0  0  0  0  0  0  0
   45.4780   33.3450   48.7740 H   0  0  0  0  0  0  0  0  0  0  0  0
   45.5750   28.2990   47.2400 N   0  0  0  0  0  0  0  0  0  0  0  0
   46.8370   27.5850   47.1710 C   0  0  0  0  0  2  0  0  0  0  0  0
   46.6210   26.1010   47.3900 C   0  0  0  0  0  2  0  0  0  0  0  0
   45.4970   25.9860   48.4000 C   0  0  0  0  0  3  0  0  0  0  0  0
   45.4300   24.9350   48.7210 H   0  0  0  0  0  0  0  0  0  0  0  0
   44.1770   26.4980   47.8710 C   0  0  0  0  0  2  0  0  0  0  0  0
   44.3570   27.6100   46.8560 C   0  0  0  0  0  2  0  0  0  0  0  0
  2  1  2  6  0  0  0
  2 24  1  0  0  0  0
  3  2  1  0  0  0  0
  4  3  1  0  0  0  0
  5  2  1  0  0  0  0
  6 11  1  1  0  0  0
  6  5  1  0  0  0  0
  7 12  1  0  0  0  0
  7 13  1  0  0  0  0
  7  6  1  0  0  0  0
  8  9  1  0  0  0  0
  8  7  1  0  0  0  0
  9 10  1  0  0  0  0
 10 19  1  0  0  0  0
 10  6  1  0  0  0  0
 10 18  1  1  0  0  0
 14  8  1  0  0  0  0
 15  8  1  0  0  0  0
 16  9  1  0  0  0  0
 17  9  1  0  0  0  0
 19 22  1  0  0  0  0
 20 19  1  0  0  0  0
 21 19  1  0  0  0  0
 22 23  1  0  0  0  0
 24 25  1  0  0  0  0
 25 26  1  0  0  0  0
 25 30  1  0  0  0  0
 27 25  1  0  0  0  0
 28 34  1  0  0  0  0
 29 35  1  0  0  0  0
 29 28  2  0  0  0  0
 30 29  1  0  0  0  0
 31 30  2  0  0  0  0
 31 32  1  0  0  0  0
 32 33  2  0  0  0  0
 33 28  1  0  0  0  0
 36 32  1  0  0  0  0
 37 36  1  0  0  0  0
 37 38  1  0  0  0  0
 38 39  1  0  0  0  0
 39 40  1  0  0  0  0
 41 39  1  0  0  0  0
 42 36  1  0  0  0  0
 42 41  1  0  0  0  0
M  END
>  <minimizedAffinity>
-6.24712515

>  <minimizedRMSD>
1.16631758

$$$$
