
 OpenBabel03242513293D

 35 38  0  0  0  0  0  0  0  0999 V2000
   46.4980   33.7860   41.0470 C   0  0  0  0  0  0  0  0  0  0  0  0
   46.8960   34.7280   41.9830 C   0  0  0  0  0  0  0  0  0  0  0  0
   47.9950   35.4750   41.6760 C   0  0  0  0  0  0  0  0  0  0  0  0
   48.6950   35.3120   40.4870 C   0  0  0  0  0  0  0  0  0  0  0  0
   48.2910   34.3780   39.5720 C   0  0  0  0  0  0  0  0  0  0  0  0
   47.1760   33.6010   39.8520 C   0  0  0  0  0  0  0  0  0  0  0  0
   48.2820   36.2140   42.4430 H   0  0  0  0  0  0  0  0  0  0  0  0
   49.5530   35.9450   40.3270 H   0  0  0  0  0  0  0  0  0  0  0  0
   48.8260   34.2450   38.6460 H   0  0  0  0  0  0  0  0  0  0  0  0
   44.5320   36.0050   44.6130 C   0  0  0  0  0  0  0  0  0  0  0  0
   45.2630   35.8920   43.4330 C   0  0  0  0  0  0  0  0  0  0  0  0
   46.1370   34.8560   43.1960 C   0  0  0  0  0  0  0  0  0  0  0  0
   46.2300   33.9500   44.2060 N   0  0  0  0  0  0  0  0  0  0  0  0
   45.5250   34.0520   45.3550 C   0  0  0  0  0  0  0  0  0  0  0  0
   44.6760   35.0830   45.5540 N   0  0  0  0  0  0  0  0  0  0  0  0
   43.8540   36.8340   44.7590 H   0  0  0  0  0  0  0  0  0  0  0  0
   45.1490   36.6550   42.6490 H   0  0  0  0  0  0  0  0  0  0  0  0
   45.7270   33.2330   46.0560 H   0  0  0  0  0  0  0  0  0  0  0  0
   45.3900   33.0050   41.3140 O   0  0  0  0  0  0  0  0  0  0  0  0
   44.8240   32.6440   40.5760 H   0  0  0  0  0  0  0  0  0  0  0  0
   46.7080   32.6340   38.9740 O   0  0  0  0  0  0  0  0  0  0  0  0
   46.9550   32.5700   37.6590 C   0  0  0  0  0  0  0  0  0  0  0  0
   46.0690   32.4650   36.6080 C   0  0  0  0  0  0  0  0  0  0  0  0
   46.5650   32.4130   35.3350 C   0  0  0  0  0  0  0  0  0  0  0  0
   47.9820   32.4730   35.1990 C   0  0  0  0  0  0  0  0  0  0  0  0
   48.5770   32.6050   36.9000 S   0  0  0  0  0  0  0  0  0  0  0  0
   45.0060   32.4230   36.7920 H   0  0  0  0  0  0  0  0  0  0  0  0
   45.9970   32.3300   34.4220 H   0  0  0  0  0  0  0  0  0  0  0  0
   48.7710   32.4360   34.0490 N   0  0  0  0  0  0  0  0  0  0  0  0
   49.7870   31.3710   33.9890 C   0  0  0  0  0  0  0  0  0  0  0  0
   49.0920   30.2510   33.1990 C   0  0  0  0  0  0  0  0  0  0  0  0
   48.2210   30.9070   32.1530 C   0  0  0  0  0  0  0  0  0  0  0  0
   48.1050   30.2630   31.2870 H   0  0  0  0  0  0  0  0  0  0  0  0
   48.7620   32.2490   31.6910 C   0  0  0  0  0  0  0  0  0  0  0  0
   48.7980   33.2540   32.8490 C   0  0  0  0  0  0  0  0  0  0  0  0
  1 19  1  0  0  0  0
  1  2  1  0  0  0  0
  2 12  1  0  0  0  0
  3  2  2  0  0  0  0
  3  7  1  0  0  0  0
  4  3  1  0  0  0  0
  5  6  1  0  0  0  0
  5  4  2  0  0  0  0
  6  1  2  0  0  0  0
  8  4  1  0  0  0  0
  9  5  1  0  0  0  0
 10 16  1  0  0  0  0
 10 15  1  0  0  0  0
 11 10  2  0  0  0  0
 12 11  1  0  0  0  0
 12 13  2  0  0  0  0
 13 14  1  0  0  0  0
 14 15  2  0  0  0  0
 14 18  1  0  0  0  0
 17 11  1  0  0  0  0
 20 19  1  0  0  0  0
 21  6  1  0  0  0  0
 22 21  1  0  0  0  0
 23 27  1  0  0  0  0
 23 22  2  0  0  0  0
 24 23  1  0  0  0  0
 25 24  2  0  0  0  0
 25 26  1  0  0  0  0
 26 22  1  0  0  0  0
 28 24  1  0  0  0  0
 29 25  1  0  0  0  0
 30 29  1  0  0  0  0
 31 30  1  0  0  0  0
 32 31  1  0  0  0  0
 33 32  1  0  0  0  0
 34 32  1  0  0  0  0
 34 35  1  0  0  0  0
 35 29  1  0  0  0  0
M  END
>  <minimizedAffinity>
-6.42391348

>  <minimizedRMSD>
1.14221108

$$$$
