
 OpenBabel03252507533D

 36 39  0  0  1  0  0  0  0  0999 V2000
   44.5130   34.7340   41.7830 C   0  0  2  0  0  0  0  0  0  0  0  0
   43.1680   35.3330   41.4470 C   0  0  0  0  0  0  0  0  0  0  0  0
   43.1630   35.0670   39.9360 C   0  0  0  0  0  0  0  0  0  0  0  0
   43.9040   33.7610   39.7660 C   0  0  1  0  0  0  0  0  0  0  0  0
   44.3230   33.3660   41.1460 C   0  0  0  0  0  0  0  0  0  0  0  0
   45.3220   35.2930   41.3210 H   0  0  0  0  0  0  0  0  0  0  0  0
   42.3760   34.7490   41.9230 H   0  0  0  0  0  0  0  0  0  0  0  0
   43.1630   36.4020   41.6480 H   0  0  0  0  0  0  0  0  0  0  0  0
   43.6080   35.9040   39.3850 H   0  0  0  0  0  0  0  0  0  0  0  0
   42.1100   34.9290   39.6250 H   0  0  0  0  0  0  0  0  0  0  0  0
   44.7920   33.9960   39.1850 H   0  0  0  0  0  0  0  0  0  0  0  0
   45.2010   32.7320   41.2270 H   0  0  0  0  0  0  0  0  0  0  0  0
   43.4680   33.0340   41.7940 H   0  0  0  0  0  0  0  0  0  0  0  0
   44.6440   35.4010   45.4950 C   0  0  0  0  0  0  0  0  0  0  0  0
   44.3630   35.6150   44.1400 C   0  0  0  0  0  0  0  0  0  0  0  0
   44.7430   34.6080   43.2480 C   0  0  0  0  0  0  0  0  0  0  0  0
   45.3720   33.4580   43.7160 N   0  0  0  0  0  0  0  0  0  0  0  0
   45.6150   33.3160   45.0400 C   0  0  0  0  0  0  0  0  0  0  0  0
   45.2530   34.2790   45.9160 N   0  0  0  0  0  0  0  0  0  0  0  0
   44.3090   36.2380   46.0980 H   0  0  0  0  0  0  0  0  0  0  0  0
   43.8720   36.5040   43.7520 H   0  0  0  0  0  0  0  0  0  0  0  0
   46.1030   32.4310   45.4310 H   0  0  0  0  0  0  0  0  0  0  0  0
   43.0520   32.6370   39.2560 C   0  0  2  0  0  0  0  0  0  0  0  0
   43.1230   31.3510   39.9210 C   0  0  0  0  0  0  0  0  0  0  0  0
   43.5240   31.5270   38.4620 C   0  0  2  0  0  0  0  0  0  0  0  0
   42.0290   33.0240   39.0440 H   0  0  0  0  0  0  0  0  0  0  0  0
   43.8960   30.7870   40.4110 H   0  0  0  0  0  0  0  0  0  0  0  0
   42.1470   30.7810   40.0490 H   0  0  0  0  0  0  0  0  0  0  0  0
   42.8190   31.1100   37.6820 H   0  0  0  0  0  0  0  0  0  0  0  0
   44.8760   31.3430   38.0360 N   0  0  0  0  0  0  0  0  0  0  0  0
   45.9050   31.7800   38.9040 C   0  0  0  0  0  0  0  0  0  0  0  0
   47.0970   32.1660   38.0470 C   0  0  0  0  0  0  0  0  0  0  0  0
   46.8070   33.3850   37.2260 C   0  0  0  0  0  0  0  0  0  0  0  0
   47.0580   34.3220   37.7530 H   0  0  0  0  0  0  0  0  0  0  0  0
   45.4040   33.3260   36.6850 C   0  0  0  0  0  0  0  0  0  0  0  0
   45.0110   31.8550   36.7080 C   0  0  0  0  0  0  0  0  0  0  0  0
  1  6  1  6  0  0  0
  1 16  1  0  0  0  0
  2  8  1  0  0  0  0
  2  1  1  0  0  0  0
  2  7  1  0  0  0  0
  3  2  1  0  0  0  0
  4 11  1  6  0  0  0
  4  3  1  0  0  0  0
  4  5  1  0  0  0  0
  5 12  1  0  0  0  0
  5  1  1  0  0  0  0
  5 13  1  0  0  0  0
  9  3  1  0  0  0  0
 10  3  1  0  0  0  0
 14 19  1  0  0  0  0
 14 20  1  0  0  0  0
 15 14  2  0  0  0  0
 16 17  2  0  0  0  0
 16 15  1  0  0  0  0
 17 18  1  0  0  0  0
 18 22  1  0  0  0  0
 18 19  2  0  0  0  0
 21 15  1  0  0  0  0
 23 26  1  6  0  0  0
 23  4  1  0  0  0  0
 23 24  1  0  0  0  0
 24 28  1  0  0  0  0
 24 27  1  0  0  0  0
 25 29  1  6  0  0  0
 25 23  1  0  0  0  0
 25 24  1  0  0  0  0
 30 25  1  0  0  0  0
 30 31  1  0  0  0  0
 32 31  1  0  0  0  0
 33 34  1  0  0  0  0
 33 32  1  0  0  0  0
 35 36  1  0  0  0  0
 35 33  1  0  0  0  0
 36 30  1  0  0  0  0
M  END
>  <minimizedAffinity>
-4.26318359

>  <minimizedRMSD>
5.8008709

$$$$
