
 OpenBabel03252509353D

 42 44  0  0  1  0  0  0  0  0999 V2000
   44.5180   35.4640   44.0600 O   0  0  0  0  0  0  0  0  0  0  0  0
   45.3810   34.2560   44.3660 P   0  0  1  0  0  0  0  0  0  0  0  0
   44.7120   32.8500   43.6980 O   0  0  0  0  0  0  0  0  0  0  0  0
   44.4790   33.0430   42.7680 H   0  0  0  0  0  0  0  0  0  0  0  0
   46.8980   34.5270   43.7240 O   0  0  0  0  0  0  0  0  0  0  0  0
   47.0290   33.8320   42.5160 C   0  0  1  0  0  0  0  0  0  0  0  0
   46.4460   34.6680   41.3720 C   0  0  0  0  0  0  0  0  0  0  0  0
   46.9610   33.9020   40.1790 C   0  0  0  0  0  0  0  0  0  0  0  0
   48.2460   33.2330   40.6320 C   0  0  0  0  0  0  0  0  0  0  0  0
   48.4470   33.6960   42.0570 C   0  0  1  0  0  0  0  0  0  0  0  0
   46.5090   32.8770   42.5020 H   0  0  0  0  0  0  0  0  0  0  0  0
   46.7150   35.7170   41.4110 H   0  0  0  0  0  0  0  0  0  0  0  0
   45.3430   34.6080   41.4570 H   0  0  0  0  0  0  0  0  0  0  0  0
   46.1810   33.1370   39.8980 H   0  0  0  0  0  0  0  0  0  0  0  0
   47.1340   34.5280   39.3030 H   0  0  0  0  0  0  0  0  0  0  0  0
   48.0870   32.1260   40.6070 H   0  0  0  0  0  0  0  0  0  0  0  0
   49.0980   33.4840   39.9800 H   0  0  0  0  0  0  0  0  0  0  0  0
   48.9700   32.8730   42.6200 H   0  0  0  0  0  0  0  0  0  0  0  0
   49.2120   34.9900   42.1170 C   0  0  0  0  0  0  0  0  0  0  0  0
   49.8270   35.0520   41.1770 H   0  0  0  0  0  0  0  0  0  0  0  0
   48.5830   35.8950   42.1090 H   0  0  0  0  0  0  0  0  0  0  0  0
   50.0180   35.0760   43.2310 O   0  0  0  0  0  0  0  0  0  0  0  0
   50.0500   34.2200   43.7190 H   0  0  0  0  0  0  0  0  0  0  0  0
   45.4680   33.9960   46.0120 O   0  0  0  0  0  0  0  0  0  0  0  0
   46.4320   33.0750   46.2680 C   0  0  0  0  0  0  0  0  0  0  0  0
   47.2270   33.6100   46.8680 H   0  0  0  0  0  0  0  0  0  0  0  0
   46.9680   32.6360   45.4310 H   0  0  0  0  0  0  0  0  0  0  0  0
   45.0850   31.2800   49.2350 C   0  0  0  0  0  0  0  0  0  0  0  0
   45.5140   32.3360   48.4240 C   0  0  0  0  0  0  0  0  0  0  0  0
   45.9690   31.9860   47.1460 C   0  0  0  0  0  0  0  0  0  0  0  0
   45.9670   30.6780   46.7730 N   0  0  0  0  0  0  0  0  0  0  0  0
   45.5450   29.6840   47.5820 C   0  0  0  0  0  0  0  0  0  0  0  0
   45.1110   29.9850   48.7970 N   0  0  0  0  0  0  0  0  0  0  0  0
   44.7270   31.5130   50.2310 H   0  0  0  0  0  0  0  0  0  0  0  0
   45.4780   33.3340   48.8060 H   0  0  0  0  0  0  0  0  0  0  0  0
   45.5840   28.3440   47.0990 N   0  0  0  0  0  0  0  0  0  0  0  0
   46.7550   27.8520   46.3970 C   0  0  0  0  0  2  0  0  0  0  0  0
   46.9100   26.3570   46.6000 C   0  0  0  0  0  2  0  0  0  0  0  0
   46.4400   26.0780   48.0140 C   0  0  0  0  0  3  0  0  0  0  0  0
   46.7020   25.0400   48.2630 H   0  0  0  0  0  0  0  0  0  0  0  0
   44.9640   26.3480   48.2070 C   0  0  0  0  0  2  0  0  0  0  0  0
   44.4580   27.4500   47.2980 C   0  0  0  0  0  2  0  0  0  0  0  0
  2  1  2  6  0  0  0
  2 24  1  0  0  0  0
  3  2  1  0  0  0  0
  4  3  1  0  0  0  0
  5  2  1  0  0  0  0
  6 11  1  1  0  0  0
  6  5  1  0  0  0  0
  7 12  1  0  0  0  0
  7 13  1  0  0  0  0
  7  6  1  0  0  0  0
  8  9  1  0  0  0  0
  8  7  1  0  0  0  0
  9 10  1  0  0  0  0
 10 19  1  0  0  0  0
 10  6  1  0  0  0  0
 10 18  1  1  0  0  0
 14  8  1  0  0  0  0
 15  8  1  0  0  0  0
 16  9  1  0  0  0  0
 17  9  1  0  0  0  0
 19 22  1  0  0  0  0
 20 19  1  0  0  0  0
 21 19  1  0  0  0  0
 22 23  1  0  0  0  0
 24 25  1  0  0  0  0
 25 26  1  0  0  0  0
 25 30  1  0  0  0  0
 27 25  1  0  0  0  0
 28 34  1  0  0  0  0
 29 35  1  0  0  0  0
 29 28  2  0  0  0  0
 30 29  1  0  0  0  0
 31 30  2  0  0  0  0
 31 32  1  0  0  0  0
 32 33  2  0  0  0  0
 33 28  1  0  0  0  0
 36 42  1  0  0  0  0
 36 32  1  0  0  0  0
 37 38  1  0  0  0  0
 37 36  1  0  0  0  0
 38 39  1  0  0  0  0
 39 41  1  0  0  0  0
 39 40  1  0  0  0  0
 42 41  1  0  0  0  0
M  END
>  <minimizedAffinity>
-6.10706902

>  <minimizedRMSD>
1.21911347

$$$$
