
 OpenBabel03242513253D

 43 46  0  0  1  0  0  0  0  0999 V2000
   35.8740   30.0380   39.2680 C   0  0  2  0  0  0  0  0  0  0  0  0
   36.0400   29.2350   37.9880 C   0  0  0  0  0  0  0  0  0  0  0  0
   36.8610   30.2640   37.2120 C   0  0  0  0  0  0  0  0  0  0  0  0
   37.7380   30.7740   38.1360 O   0  0  0  0  0  0  0  0  0  0  0  0
   37.2530   30.5920   39.3920 C   0  0  1  0  0  0  0  0  0  0  0  0
   35.1020   30.7900   39.0550 H   0  0  0  0  0  0  0  0  0  0  0  0
   35.0250   29.0940   37.5490 H   0  0  0  0  0  0  0  0  0  0  0  0
   36.5750   28.2890   38.1340 H   0  0  0  0  0  0  0  0  0  0  0  0
   36.1610   31.0660   36.8940 H   0  0  0  0  0  0  0  0  0  0  0  0
   37.3270   29.7460   36.3600 H   0  0  0  0  0  0  0  0  0  0  0  0
   37.9070   29.9200   39.9580 H   0  0  0  0  0  0  0  0  0  0  0  0
   37.2400   31.9120   40.1000 C   0  0  1  0  0  0  0  0  0  0  0  0
   38.4990   32.1150   40.9320 C   0  0  0  0  0  0  0  0  0  0  0  0
   38.8310   33.5570   40.6400 C   0  0  0  0  0  0  0  0  0  0  0  0
   37.7040   34.0990   40.0240 O   0  0  0  0  0  0  0  0  0  0  0  0
   37.3670   33.0790   39.1300 C   0  0  0  0  0  0  0  0  0  0  0  0
   36.3170   32.1110   40.6760 H   0  0  0  0  0  0  0  0  0  0  0  0
   38.2760   31.9220   41.9900 H   0  0  0  0  0  0  0  0  0  0  0  0
   39.2820   31.4120   40.5780 H   0  0  0  0  0  0  0  0  0  0  0  0
   39.7230   33.6100   39.9770 H   0  0  0  0  0  0  0  0  0  0  0  0
   39.0800   34.0480   41.6030 H   0  0  0  0  0  0  0  0  0  0  0  0
   36.4580   33.2650   38.5580 H   0  0  0  0  0  0  0  0  0  0  0  0
   38.2950   32.9650   38.4990 H   0  0  0  0  0  0  0  0  0  0  0  0
   35.4180   29.2030   40.4170 C   0  0  0  0  0  0  0  0  0  0  0  0
   35.3000   29.8070   41.3330 H   0  0  0  0  0  0  0  0  0  0  0  0
   34.4330   28.7700   40.1550 H   0  0  0  0  0  0  0  0  0  0  0  0
   36.6430   27.7030   41.9020 C   0  0  0  0  0  3  0  0  0  0  0  0
   36.3270   28.0560   40.6910 C   0  0  0  0  0  3  0  0  0  0  0  0
   37.8950   24.3040   42.3400 C   0  0  0  0  0  0  0  0  0  0  0  0
   39.2730   24.5130   42.6560 C   0  0  0  0  0  0  0  0  0  0  0  0
   39.7020   25.8390   42.7010 C   0  0  0  0  0  0  0  0  0  0  0  0
   38.8160   26.8280   42.4510 N   0  0  0  0  0  0  0  0  0  0  0  0
   37.5210   26.5960   42.1550 C   0  0  0  0  0  0  0  0  0  0  0  0
   37.0450   25.3500   42.0960 N   0  0  0  0  0  0  0  0  0  0  0  0
   37.4910   23.3130   42.2870 H   0  0  0  0  0  0  0  0  0  0  0  0
   39.9070   23.6790   42.8400 H   0  0  0  0  0  0  0  0  0  0  0  0
   41.0400   26.1310   43.0030 N   0  0  0  0  0  0  0  0  0  0  0  0
   42.0910   25.1920   42.6640 C   0  0  0  0  0  2  0  0  0  0  0  0
   43.2960   25.5560   43.5320 C   0  0  0  0  0  2  0  0  0  0  0  0
   43.7790   26.9160   43.0400 C   0  0  0  0  0  3  0  0  0  0  0  0
   44.6880   27.2020   43.6110 H   0  0  0  0  0  0  0  0  0  0  0  0
   42.6710   27.9210   43.0970 C   0  0  0  0  0  2  0  0  0  0  0  0
   41.3850   27.3750   43.6600 C   0  0  0  0  0  2  0  0  0  0  0  0
  1  6  1  6  0  0  0
  1  5  1  0  0  0  0
  1 24  1  0  0  0  0
  2  8  1  0  0  0  0
  2  1  1  0  0  0  0
  3  2  1  0  0  0  0
  3  4  1  0  0  0  0
  4  5  1  0  0  0  0
  5 11  1  1  0  0  0
  5 12  1  0  0  0  0
  7  2  1  0  0  0  0
  9  3  1  0  0  0  0
 10  3  1  0  0  0  0
 12 17  1  1  0  0  0
 12 13  1  0  0  0  0
 13 18  1  0  0  0  0
 14 13  1  0  0  0  0
 14 21  1  0  0  0  0
 15 14  1  0  0  0  0
 16 15  1  0  0  0  0
 16 12  1  0  0  0  0
 19 13  1  0  0  0  0
 20 14  1  0  0  0  0
 22 16  1  0  0  0  0
 23 16  1  0  0  0  0
 24 28  1  0  0  0  0
 24 25  1  0  0  0  0
 26 24  1  0  0  0  0
 27 33  1  0  0  0  0
 28 27  2  0  0  0  0
 29 30  1  0  0  0  0
 30 31  2  0  0  0  0
 30 36  1  0  0  0  0
 31 37  1  0  0  0  0
 32 31  1  0  0  0  0
 33 32  2  0  0  0  0
 34 33  1  0  0  0  0
 34 29  2  0  0  0  0
 35 29  1  0  0  0  0
 37 43  1  0  0  0  0
 38 37  1  0  0  0  0
 38 39  1  0  0  0  0
 40 42  1  0  0  0  0
 40 39  1  0  0  0  0
 40 41  1  0  0  0  0
 42 43  1  0  0  0  0
M  END
>  <minimizedAffinity>
-5.65558529

$$$$

 OpenBabel03242513253D

 43 46  0  0  1  0  0  0  0  0999 V2000
   38.9930   26.7020   43.5550 C   0  0  2  0  0  0  0  0  0  0  0  0
   40.4000   27.2640   43.6780 C   0  0  0  0  0  0  0  0  0  0  0  0
   41.1470   26.0550   43.1160 C   0  0  0  0  0  0  0  0  0  0  0  0
   40.3790   25.6350   42.0590 O   0  0  0  0  0  0  0  0  0  0  0  0
   39.0990   26.0640   42.2110 C   0  0  1  0  0  0  0  0  0  0  0  0
   38.8760   25.9920   44.3850 H   0  0  0  0  0  0  0  0  0  0  0  0
   40.6060   27.4130   44.7640 H   0  0  0  0  0  0  0  0  0  0  0  0
   40.5600   28.1720   43.0870 H   0  0  0  0  0  0  0  0  0  0  0  0
   41.1390   25.2710   43.9040 H   0  0  0  0  0  0  0  0  0  0  0  0
   42.1650   26.3830   42.8550 H   0  0  0  0  0  0  0  0  0  0  0  0
   38.8360   26.7650   41.4110 H   0  0  0  0  0  0  0  0  0  0  0  0
   38.1790   24.8870   42.1010 C   0  0  1  0  0  0  0  0  0  0  0  0
   36.9300   25.2230   41.2980 C   0  0  0  0  0  0  0  0  0  0  0  0
   36.7720   23.9900   40.4450 C   0  0  0  0  0  0  0  0  0  0  0  0
   37.6190   23.0270   40.9910 O   0  0  0  0  0  0  0  0  0  0  0  0
   38.7690   23.7840   41.2320 C   0  0  0  0  0  0  0  0  0  0  0  0
   37.9430   24.4020   43.0660 H   0  0  0  0  0  0  0  0  0  0  0  0
   36.0880   25.3950   41.9820 H   0  0  0  0  0  0  0  0  0  0  0  0
   37.1230   26.1390   40.7000 H   0  0  0  0  0  0  0  0  0  0  0  0
   37.0460   24.2230   39.3920 H   0  0  0  0  0  0  0  0  0  0  0  0
   35.7030   23.6960   40.4720 H   0  0  0  0  0  0  0  0  0  0  0  0
   39.5740   23.2340   41.7210 H   0  0  0  0  0  0  0  0  0  0  0  0
   39.0370   24.1870   40.2140 H   0  0  0  0  0  0  0  0  0  0  0  0
   37.9410   27.7530   43.6800 C   0  0  0  0  0  0  0  0  0  0  0  0
   36.9470   27.3630   43.4020 H   0  0  0  0  0  0  0  0  0  0  0  0
   37.9060   28.0770   44.7370 H   0  0  0  0  0  0  0  0  0  0  0  0
   37.3860   29.4590   42.0260 C   0  0  0  0  0  3  0  0  0  0  0  0
   38.2420   28.9670   42.8710 C   0  0  0  0  0  3  0  0  0  0  0  0
   37.0320   32.3140   39.7810 C   0  0  0  0  0  0  0  0  0  0  0  0
   38.3420   32.8830   39.7850 C   0  0  0  0  0  0  0  0  0  0  0  0
   39.2930   32.2400   40.5750 C   0  0  0  0  0  0  0  0  0  0  0  0
   38.9340   31.1420   41.2760 N   0  0  0  0  0  0  0  0  0  0  0  0
   37.6870   30.6300   41.2520 C   0  0  0  0  0  0  0  0  0  0  0  0
   36.7280   31.1980   40.5150 N   0  0  0  0  0  0  0  0  0  0  0  0
   36.2470   32.7530   39.1980 H   0  0  0  0  0  0  0  0  0  0  0  0
   38.5440   33.7510   39.2030 H   0  0  0  0  0  0  0  0  0  0  0  0
   40.6040   32.7340   40.6340 N   0  0  0  0  0  0  0  0  0  0  0  0
   41.7160   31.8390   40.8860 C   0  0  0  0  0  2  0  0  0  0  0  0
   42.8760   32.7110   41.3650 C   0  0  0  0  0  2  0  0  0  0  0  0
   43.2910   33.5620   40.1700 C   0  0  0  0  0  3  0  0  0  0  0  0
   44.1680   34.1810   40.4560 H   0  0  0  0  0  0  0  0  0  0  0  0
   42.1250   34.3450   39.6510 C   0  0  0  0  0  2  0  0  0  0  0  0
   40.8600   34.1480   40.4440 C   0  0  0  0  0  2  0  0  0  0  0  0
  1  2  1  0  0  0  0
  1 24  1  0  0  0  0
  1  6  1  1  0  0  0
  2  7  1  0  0  0  0
  3  2  1  0  0  0  0
  3  9  1  0  0  0  0
  4  5  1  0  0  0  0
  4  3  1  0  0  0  0
  5 11  1  6  0  0  0
  5  1  1  0  0  0  0
  8  2  1  0  0  0  0
 10  3  1  0  0  0  0
 12  5  1  0  0  0  0
 12 17  1  1  0  0  0
 13 18  1  0  0  0  0
 13 12  1  0  0  0  0
 14 21  1  0  0  0  0
 14 15  1  0  0  0  0
 14 13  1  0  0  0  0
 15 16  1  0  0  0  0
 16 22  1  0  0  0  0
 16 12  1  0  0  0  0
 19 13  1  0  0  0  0
 20 14  1  0  0  0  0
 23 16  1  0  0  0  0
 24 26  1  0  0  0  0
 25 24  1  0  0  0  0
 27 28  2  0  0  0  0
 28 24  1  0  0  0  0
 29 30  2  0  0  0  0
 29 34  1  0  0  0  0
 30 31  1  0  0  0  0
 31 37  1  0  0  0  0
 31 32  2  0  0  0  0
 33 32  1  0  0  0  0
 33 27  1  0  0  0  0
 34 33  2  0  0  0  0
 35 29  1  0  0  0  0
 36 30  1  0  0  0  0
 37 38  1  0  0  0  0
 38 39  1  0  0  0  0
 40 41  1  0  0  0  0
 40 39  1  0  0  0  0
 42 40  1  0  0  0  0
 42 43  1  0  0  0  0
 43 37  1  0  0  0  0
M  END
>  <minimizedAffinity>
-5.6330843

$$$$

 OpenBabel03242513253D

 43 46  0  0  1  0  0  0  0  0999 V2000
   39.3520   31.6210   40.9410 C   0  0  2  0  0  0  0  0  0  0  0  0
   40.4230   32.6860   40.7650 C   0  0  0  0  0  0  0  0  0  0  0  0
   39.8690   33.3150   39.4870 C   0  0  0  0  0  0  0  0  0  0  0  0
   38.5120   33.3540   39.6810 O   0  0  0  0  0  0  0  0  0  0  0  0
   38.1440   32.4290   40.6050 C   0  0  1  0  0  0  0  0  0  0  0  0
   39.5860   30.8330   40.2130 H   0  0  0  0  0  0  0  0  0  0  0  0
   41.3890   32.1600   40.5870 H   0  0  0  0  0  0  0  0  0  0  0  0
   40.4730   33.3950   41.5990 H   0  0  0  0  0  0  0  0  0  0  0  0
   40.0970   32.6150   38.6540 H   0  0  0  0  0  0  0  0  0  0  0  0
   40.3530   34.2960   39.3610 H   0  0  0  0  0  0  0  0  0  0  0  0
   37.7290   32.9210   41.4920 H   0  0  0  0  0  0  0  0  0  0  0  0
   37.0660   31.5660   40.0230 C   0  0  1  0  0  0  0  0  0  0  0  0
   37.6440   30.3460   39.3180 C   0  0  0  0  0  0  0  0  0  0  0  0
   36.7030   29.2570   39.7680 C   0  0  0  0  0  0  0  0  0  0  0  0
   35.6060   29.9010   40.3370 O   0  0  0  0  0  0  0  0  0  0  0  0
   36.2370   30.8850   41.1030 C   0  0  0  0  0  0  0  0  0  0  0  0
   36.3360   32.1100   39.3960 H   0  0  0  0  0  0  0  0  0  0  0  0
   37.6370   30.5120   38.2320 H   0  0  0  0  0  0  0  0  0  0  0  0
   38.6850   30.1880   39.6680 H   0  0  0  0  0  0  0  0  0  0  0  0
   37.2150   28.5980   40.5030 H   0  0  0  0  0  0  0  0  0  0  0  0
   36.4380   28.6510   38.8770 H   0  0  0  0  0  0  0  0  0  0  0  0
   35.5540   31.5640   41.6140 H   0  0  0  0  0  0  0  0  0  0  0  0
   36.9030   30.2930   41.7950 H   0  0  0  0  0  0  0  0  0  0  0  0
   39.3570   31.0210   42.3070 C   0  0  0  0  0  0  0  0  0  0  0  0
   40.1170   31.4950   42.9530 H   0  0  0  0  0  0  0  0  0  0  0  0
   38.3600   31.1900   42.7580 H   0  0  0  0  0  0  0  0  0  0  0  0
   38.7410   28.7240   42.8560 C   0  0  0  0  0  3  0  0  0  0  0  0
   39.5720   29.5470   42.2870 C   0  0  0  0  0  3  0  0  0  0  0  0
   40.0280   25.4010   43.6420 C   0  0  0  0  0  0  0  0  0  0  0  0
   39.3250   24.5640   42.7210 C   0  0  0  0  0  0  0  0  0  0  0  0
   38.4300   25.2030   41.8650 C   0  0  0  0  0  0  0  0  0  0  0  0
   38.2790   26.5430   41.9480 N   0  0  0  0  0  0  0  0  0  0  0  0
   38.9580   27.3050   42.8300 C   0  0  0  0  0  0  0  0  0  0  0  0
   39.8310   26.7560   43.6790 N   0  0  0  0  0  0  0  0  0  0  0  0
   40.7320   24.9830   44.3330 H   0  0  0  0  0  0  0  0  0  0  0  0
   39.5010   23.5150   42.7190 H   0  0  0  0  0  0  0  0  0  0  0  0
   37.7000   24.4550   40.9300 N   0  0  0  0  0  0  0  0  0  0  0  0
   36.7840   25.1100   40.0190 C   0  0  0  0  0  2  0  0  0  0  0  0
   35.8290   24.0310   39.5100 C   0  0  0  0  0  2  0  0  0  0  0  0
   36.6680   23.0910   38.6520 C   0  0  0  0  0  3  0  0  0  0  0  0
   36.0040   22.3120   38.2170 H   0  0  0  0  0  0  0  0  0  0  0  0
   37.8230   22.5510   39.4360 C   0  0  0  0  0  2  0  0  0  0  0  0
   37.8540   23.0150   40.8680 C   0  0  0  0  0  2  0  0  0  0  0  0
  1  6  1  6  0  0  0
  1 24  1  0  0  0  0
  2  1  1  0  0  0  0
  2  8  1  0  0  0  0
  3  4  1  0  0  0  0
  3  2  1  0  0  0  0
  4  5  1  0  0  0  0
  5  1  1  0  0  0  0
  5 11  1  1  0  0  0
  7  2  1  0  0  0  0
  9  3  1  0  0  0  0
 10  3  1  0  0  0  0
 12 17  1  6  0  0  0
 12  5  1  0  0  0  0
 12 16  1  0  0  0  0
 13 19  1  0  0  0  0
 13 14  1  0  0  0  0
 13 12  1  0  0  0  0
 14 15  1  0  0  0  0
 14 20  1  0  0  0  0
 15 16  1  0  0  0  0
 16 22  1  0  0  0  0
 16 23  1  0  0  0  0
 18 13  1  0  0  0  0
 21 14  1  0  0  0  0
 24 26  1  0  0  0  0
 24 25  1  0  0  0  0
 28 24  1  0  0  0  0
 28 27  2  0  0  0  0
 29 34  1  0  0  0  0
 29 35  1  0  0  0  0
 30 29  2  0  0  0  0
 31 32  2  0  0  0  0
 31 30  1  0  0  0  0
 32 33  1  0  0  0  0
 33 27  1  0  0  0  0
 33 34  2  0  0  0  0
 36 30  1  0  0  0  0
 37 31  1  0  0  0  0
 38 37  1  0  0  0  0
 39 38  1  0  0  0  0
 40 42  1  0  0  0  0
 40 39  1  0  0  0  0
 41 40  1  0  0  0  0
 42 43  1  0  0  0  0
 43 37  1  0  0  0  0
M  END
>  <minimizedAffinity>
-5.51211643

$$$$

 OpenBabel03242513253D

 43 46  0  0  1  0  0  0  0  0999 V2000
   38.7520   26.5870   43.3910 C   0  0  2  0  0  0  0  0  0  0  0  0
   40.2560   26.6380   43.6020 C   0  0  0  0  0  0  0  0  0  0  0  0
   40.6050   25.3500   42.8570 C   0  0  0  0  0  0  0  0  0  0  0  0
   39.7990   25.3650   41.7460 O   0  0  0  0  0  0  0  0  0  0  0  0
   38.7180   26.1570   41.9630 C   0  0  1  0  0  0  0  0  0  0  0  0
   38.3710   25.8370   44.0980 H   0  0  0  0  0  0  0  0  0  0  0  0
   40.4420   26.5490   44.6980 H   0  0  0  0  0  0  0  0  0  0  0  0
   40.7280   27.5230   43.1620 H   0  0  0  0  0  0  0  0  0  0  0  0
   40.3060   24.5030   43.5110 H   0  0  0  0  0  0  0  0  0  0  0  0
   41.6870   25.3660   42.6510 H   0  0  0  0  0  0  0  0  0  0  0  0
   38.7340   27.0160   41.2840 H   0  0  0  0  0  0  0  0  0  0  0  0
   37.4770   25.3720   41.6680 C   0  0  1  0  0  0  0  0  0  0  0  0
   36.8030   25.8460   40.3880 C   0  0  0  0  0  0  0  0  0  0  0  0
   36.4210   24.5390   39.7390 C   0  0  0  0  0  0  0  0  0  0  0  0
   36.5720   23.5600   40.7180 O   0  0  0  0  0  0  0  0  0  0  0  0
   37.7930   23.9310   41.2870 C   0  0  0  0  0  0  0  0  0  0  0  0
   36.7700   25.3000   42.5150 H   0  0  0  0  0  0  0  0  0  0  0  0
   35.9410   26.4800   40.6390 H   0  0  0  0  0  0  0  0  0  0  0  0
   37.5360   26.4270   39.7900 H   0  0  0  0  0  0  0  0  0  0  0  0
   37.0820   24.3470   38.8650 H   0  0  0  0  0  0  0  0  0  0  0  0
   35.3780   24.6360   39.3750 H   0  0  0  0  0  0  0  0  0  0  0  0
   38.0980   23.3180   42.1360 H   0  0  0  0  0  0  0  0  0  0  0  0
   38.5090   23.9040   40.4170 H   0  0  0  0  0  0  0  0  0  0  0  0
   38.0860   27.8910   43.6790 C   0  0  0  0  0  0  0  0  0  0  0  0
   37.1850   27.7540   44.3040 H   0  0  0  0  0  0  0  0  0  0  0  0
   38.8030   28.5250   44.2340 H   0  0  0  0  0  0  0  0  0  0  0  0
   38.1700   29.8360   42.2080 C   0  0  0  0  0  3  0  0  0  0  0  0
   37.7240   28.6380   42.4430 C   0  0  0  0  0  3  0  0  0  0  0  0
   37.7900   32.5020   39.7460 C   0  0  0  0  0  0  0  0  0  0  0  0
   37.0950   31.8520   38.6810 C   0  0  0  0  0  0  0  0  0  0  0  0
   36.7890   30.5050   38.8740 C   0  0  0  0  0  0  0  0  0  0  0  0
   37.1570   29.9040   40.0260 N   0  0  0  0  0  0  0  0  0  0  0  0
   37.8140   30.5470   41.0130 C   0  0  0  0  0  0  0  0  0  0  0  0
   38.1370   31.8380   40.8920 N   0  0  0  0  0  0  0  0  0  0  0  0
   38.0590   33.5360   39.6720 H   0  0  0  0  0  0  0  0  0  0  0  0
   36.8400   32.3970   37.8030 H   0  0  0  0  0  0  0  0  0  0  0  0
   36.1080   29.7930   37.8770 N   0  0  0  0  0  0  0  0  0  0  0  0
   36.6310   29.7380   36.5260 C   0  0  0  0  0  2  0  0  0  0  0  0
   35.4640   29.3380   35.6230 C   0  0  0  0  0  2  0  0  0  0  0  0
   35.1150   27.9000   35.9930 C   0  0  0  0  0  3  0  0  0  0  0  0
   34.2990   27.5460   35.3260 H   0  0  0  0  0  0  0  0  0  0  0  0
   34.8100   27.7900   37.4540 C   0  0  0  0  0  2  0  0  0  0  0  0
   34.8710   29.1040   38.1870 C   0  0  0  0  0  2  0  0  0  0  0  0
  1  2  1  0  0  0  0
  1 24  1  0  0  0  0
  1  6  1  1  0  0  0
  2  7  1  0  0  0  0
  3  9  1  0  0  0  0
  3  2  1  0  0  0  0
  4  5  1  0  0  0  0
  4  3  1  0  0  0  0
  5 11  1  6  0  0  0
  5  1  1  0  0  0  0
  8  2  1  0  0  0  0
 10  3  1  0  0  0  0
 12  5  1  0  0  0  0
 12 17  1  1  0  0  0
 13 18  1  0  0  0  0
 13 12  1  0  0  0  0
 14 13  1  0  0  0  0
 14 15  1  0  0  0  0
 15 16  1  0  0  0  0
 16 12  1  0  0  0  0
 16 22  1  0  0  0  0
 19 13  1  0  0  0  0
 20 14  1  0  0  0  0
 21 14  1  0  0  0  0
 23 16  1  0  0  0  0
 24 26  1  0  0  0  0
 24 25  1  0  0  0  0
 27 28  2  0  0  0  0
 28 24  1  0  0  0  0
 29 34  1  0  0  0  0
 30 31  1  0  0  0  0
 30 29  2  0  0  0  0
 31 32  2  0  0  0  0
 32 33  1  0  0  0  0
 33 27  1  0  0  0  0
 34 33  2  0  0  0  0
 35 29  1  0  0  0  0
 36 30  1  0  0  0  0
 37 43  1  0  0  0  0
 37 31  1  0  0  0  0
 38 37  1  0  0  0  0
 39 40  1  0  0  0  0
 39 38  1  0  0  0  0
 40 42  1  0  0  0  0
 41 40  1  0  0  0  0
 42 43  1  0  0  0  0
M  END
>  <minimizedAffinity>
-5.47554493

$$$$

 OpenBabel03242513253D

 43 46  0  0  1  0  0  0  0  0999 V2000
   37.5630   26.0920   41.9550 C   0  0  2  0  0  0  0  0  0  0  0  0
   36.7000   24.8520   41.7820 C   0  0  0  0  0  0  0  0  0  0  0  0
   37.8290   23.8640   41.4930 C   0  0  0  0  0  0  0  0  0  0  0  0
   38.8280   24.2150   42.3670 O   0  0  0  0  0  0  0  0  0  0  0  0
   38.6780   25.5080   42.7540 C   0  0  1  0  0  0  0  0  0  0  0  0
   37.8480   26.4060   40.9410 H   0  0  0  0  0  0  0  0  0  0  0  0
   36.0530   25.0180   40.8910 H   0  0  0  0  0  0  0  0  0  0  0  0
   36.1290   24.5910   42.6800 H   0  0  0  0  0  0  0  0  0  0  0  0
   38.1720   24.0550   40.4540 H   0  0  0  0  0  0  0  0  0  0  0  0
   37.4260   22.8480   41.6260 H   0  0  0  0  0  0  0  0  0  0  0  0
   38.4740   25.5620   43.8290 H   0  0  0  0  0  0  0  0  0  0  0  0
   39.9600   26.2400   42.5010 C   0  0  1  0  0  0  0  0  0  0  0  0
   41.1700   25.3340   42.6900 C   0  0  0  0  0  0  0  0  0  0  0  0
   42.0340   25.7260   41.5180 C   0  0  0  0  0  0  0  0  0  0  0  0
   41.4910   26.9050   41.0100 O   0  0  0  0  0  0  0  0  0  0  0  0
   40.1260   26.6050   41.0310 C   0  0  0  0  0  0  0  0  0  0  0  0
   40.0570   27.1940   43.0500 H   0  0  0  0  0  0  0  0  0  0  0  0
   41.6330   25.5390   43.6650 H   0  0  0  0  0  0  0  0  0  0  0  0
   40.8370   24.2760   42.6470 H   0  0  0  0  0  0  0  0  0  0  0  0
   42.0260   24.9140   40.7580 H   0  0  0  0  0  0  0  0  0  0  0  0
   43.0720   25.8490   41.8900 H   0  0  0  0  0  0  0  0  0  0  0  0
   39.4810   27.4250   40.7160 H   0  0  0  0  0  0  0  0  0  0  0  0
   40.0490   25.6830   40.3870 H   0  0  0  0  0  0  0  0  0  0  0  0
   36.8300   27.2160   42.6100 C   0  0  0  0  0  0  0  0  0  0  0  0
   35.7680   26.9630   42.7730 H   0  0  0  0  0  0  0  0  0  0  0  0
   37.3010   27.4020   43.5940 H   0  0  0  0  0  0  0  0  0  0  0  0
   37.8280   29.3860   42.1100 C   0  0  0  0  0  3  0  0  0  0  0  0
   36.9260   28.4890   41.8430 C   0  0  0  0  0  3  0  0  0  0  0  0
   36.9120   32.2670   40.0680 C   0  0  0  0  0  0  0  0  0  0  0  0
   38.1480   32.9730   39.9440 C   0  0  0  0  0  0  0  0  0  0  0  0
   39.2500   32.4060   40.5830 C   0  0  0  0  0  0  0  0  0  0  0  0
   39.0930   31.2510   41.2660 N   0  0  0  0  0  0  0  0  0  0  0  0
   37.9110   30.6100   41.3650 C   0  0  0  0  0  0  0  0  0  0  0  0
   36.8160   31.0990   40.7760 N   0  0  0  0  0  0  0  0  0  0  0  0
   36.0200   32.6410   39.6050 H   0  0  0  0  0  0  0  0  0  0  0  0
   38.1880   33.8790   39.3870 H   0  0  0  0  0  0  0  0  0  0  0  0
   40.5010   33.0350   40.5100 N   0  0  0  0  0  0  0  0  0  0  0  0
   41.6660   32.4240   41.1170 C   0  0  0  0  0  2  0  0  0  0  0  0
   42.7000   33.5360   41.2910 C   0  0  0  0  0  2  0  0  0  0  0  0
   43.1280   33.9430   39.8850 C   0  0  0  0  0  3  0  0  0  0  0  0
   43.9190   34.7190   39.9610 H   0  0  0  0  0  0  0  0  0  0  0  0
   41.9400   34.3480   39.0690 C   0  0  0  0  0  2  0  0  0  0  0  0
   40.6400   34.3060   39.8280 C   0  0  0  0  0  2  0  0  0  0  0  0
  1  6  1  6  0  0  0
  1 24  1  0  0  0  0
  1  5  1  0  0  0  0
  2  1  1  0  0  0  0
  2  8  1  0  0  0  0
  3 10  1  0  0  0  0
  3  2  1  0  0  0  0
  3  4  1  0  0  0  0
  4  5  1  0  0  0  0
  5 11  1  1  0  0  0
  7  2  1  0  0  0  0
  9  3  1  0  0  0  0
 12 13  1  0  0  0  0
 12  5  1  0  0  0  0
 12 17  1  1  0  0  0
 13 18  1  0  0  0  0
 14 21  1  0  0  0  0
 14 13  1  0  0  0  0
 15 16  1  0  0  0  0
 15 14  1  0  0  0  0
 16 12  1  0  0  0  0
 19 13  1  0  0  0  0
 20 14  1  0  0  0  0
 22 16  1  0  0  0  0
 23 16  1  0  0  0  0
 24 25  1  0  0  0  0
 24 26  1  0  0  0  0
 28 27  2  0  0  0  0
 28 24  1  0  0  0  0
 29 34  1  0  0  0  0
 30 29  2  0  0  0  0
 30 31  1  0  0  0  0
 31 32  2  0  0  0  0
 32 33  1  0  0  0  0
 33 27  1  0  0  0  0
 34 33  2  0  0  0  0
 35 29  1  0  0  0  0
 36 30  1  0  0  0  0
 37 31  1  0  0  0  0
 37 38  1  0  0  0  0
 38 39  1  0  0  0  0
 40 41  1  0  0  0  0
 40 39  1  0  0  0  0
 42 43  1  0  0  0  0
 42 40  1  0  0  0  0
 43 37  1  0  0  0  0
M  END
>  <minimizedAffinity>
-5.46344614

$$$$

 OpenBabel03242513253D

 43 46  0  0  1  0  0  0  0  0999 V2000
   37.3650   27.5390   41.1560 C   0  0  2  0  0  0  0  0  0  0  0  0
   36.9060   26.5530   40.0930 C   0  0  0  0  0  0  0  0  0  0  0  0
   37.9590   25.4770   40.3530 C   0  0  0  0  0  0  0  0  0  0  0  0
   38.0660   25.4210   41.7200 O   0  0  0  0  0  0  0  0  0  0  0  0
   37.6420   26.5870   42.2710 C   0  0  1  0  0  0  0  0  0  0  0  0
   38.2580   28.0310   40.7490 H   0  0  0  0  0  0  0  0  0  0  0  0
   37.0460   27.0440   39.1020 H   0  0  0  0  0  0  0  0  0  0  0  0
   35.8840   26.1910   40.2470 H   0  0  0  0  0  0  0  0  0  0  0  0
   38.9170   25.8490   39.9290 H   0  0  0  0  0  0  0  0  0  0  0  0
   37.6140   24.5490   39.8710 H   0  0  0  0  0  0  0  0  0  0  0  0
   36.7520   26.4160   42.8850 H   0  0  0  0  0  0  0  0  0  0  0  0
   38.7170   27.1140   43.1710 C   0  0  1  0  0  0  0  0  0  0  0  0
   39.6220   25.9990   43.6780 C   0  0  0  0  0  0  0  0  0  0  0  0
   40.9860   26.6320   43.5590 C   0  0  0  0  0  0  0  0  0  0  0  0
   40.7670   27.9920   43.3500 O   0  0  0  0  0  0  0  0  0  0  0  0
   39.7320   27.9590   42.4120 C   0  0  0  0  0  0  0  0  0  0  0  0
   38.3510   27.7640   43.9870 H   0  0  0  0  0  0  0  0  0  0  0  0
   39.3460   25.7430   44.7100 H   0  0  0  0  0  0  0  0  0  0  0  0
   39.4990   25.1110   43.0240 H   0  0  0  0  0  0  0  0  0  0  0  0
   41.5390   26.1730   42.7100 H   0  0  0  0  0  0  0  0  0  0  0  0
   41.5400   26.4180   44.4950 H   0  0  0  0  0  0  0  0  0  0  0  0
   39.3500   28.9410   42.1300 H   0  0  0  0  0  0  0  0  0  0  0  0
   40.1700   27.3700   41.5560 H   0  0  0  0  0  0  0  0  0  0  0  0
   36.3410   28.5840   41.4520 C   0  0  0  0  0  0  0  0  0  0  0  0
   35.4730   28.5000   40.7750 H   0  0  0  0  0  0  0  0  0  0  0  0
   35.9910   28.4350   42.4910 H   0  0  0  0  0  0  0  0  0  0  0  0
   37.6070   30.3700   40.3730 C   0  0  0  0  0  3  0  0  0  0  0  0
   36.8930   29.9650   41.3810 C   0  0  0  0  0  3  0  0  0  0  0  0
   37.8340   33.9930   40.0040 C   0  0  0  0  0  0  0  0  0  0  0  0
   39.2230   34.2460   40.2210 C   0  0  0  0  0  0  0  0  0  0  0  0
   40.0200   33.1340   40.4880 C   0  0  0  0  0  0  0  0  0  0  0  0
   39.4510   31.9090   40.5250 N   0  0  0  0  0  0  0  0  0  0  0  0
   38.1340   31.7040   40.3160 C   0  0  0  0  0  0  0  0  0  0  0  0
   37.3150   32.7260   40.0550 N   0  0  0  0  0  0  0  0  0  0  0  0
   37.1580   34.7970   39.7930 H   0  0  0  0  0  0  0  0  0  0  0  0
   39.5940   35.2430   40.1740 H   0  0  0  0  0  0  0  0  0  0  0  0
   41.3940   33.2960   40.7120 N   0  0  0  0  0  0  0  0  0  0  0  0
   42.0970   32.4180   41.6260 C   0  0  0  0  0  2  0  0  0  0  0  0
   43.3910   33.1360   42.0120 C   0  0  0  0  0  2  0  0  0  0  0  0
   44.2420   33.1860   40.7470 C   0  0  0  0  0  3  0  0  0  0  0  0
   45.2180   33.6590   40.9900 H   0  0  0  0  0  0  0  0  0  0  0  0
   43.4930   33.8510   39.6340 C   0  0  0  0  0  2  0  0  0  0  0  0
   42.1270   34.3450   40.0320 C   0  0  0  0  0  2  0  0  0  0  0  0
  1  6  1  6  0  0  0
  1 24  1  0  0  0  0
  1  5  1  0  0  0  0
  2  8  1  0  0  0  0
  2  3  1  0  0  0  0
  2  1  1  0  0  0  0
  3  4  1  0  0  0  0
  4  5  1  0  0  0  0
  5 11  1  1  0  0  0
  5 12  1  0  0  0  0
  7  2  1  0  0  0  0
  9  3  1  0  0  0  0
 10  3  1  0  0  0  0
 12 13  1  0  0  0  0
 12 17  1  1  0  0  0
 13 18  1  0  0  0  0
 14 13  1  0  0  0  0
 14 21  1  0  0  0  0
 15 14  1  0  0  0  0
 16 12  1  0  0  0  0
 16 15  1  0  0  0  0
 19 13  1  0  0  0  0
 20 14  1  0  0  0  0
 22 16  1  0  0  0  0
 23 16  1  0  0  0  0
 24 26  1  0  0  0  0
 25 24  1  0  0  0  0
 27 28  2  0  0  0  0
 28 24  1  0  0  0  0
 29 34  2  0  0  0  0
 29 30  1  0  0  0  0
 30 31  2  0  0  0  0
 31 32  1  0  0  0  0
 31 37  1  0  0  0  0
 33 27  1  0  0  0  0
 33 32  2  0  0  0  0
 34 33  1  0  0  0  0
 35 29  1  0  0  0  0
 36 30  1  0  0  0  0
 37 38  1  0  0  0  0
 38 39  1  0  0  0  0
 40 41  1  0  0  0  0
 40 39  1  0  0  0  0
 42 43  1  0  0  0  0
 42 40  1  0  0  0  0
 43 37  1  0  0  0  0
M  END
>  <minimizedAffinity>
-5.45274258

$$$$

 OpenBabel03242513253D

 43 46  0  0  1  0  0  0  0  0999 V2000
   37.1860   31.6030   39.3830 C   0  0  2  0  0  0  0  0  0  0  0  0
   36.6820   30.7120   38.2580 C   0  0  0  0  0  0  0  0  0  0  0  0
   37.6480   31.1940   37.1770 C   0  0  0  0  0  0  0  0  0  0  0  0
   38.8520   31.3240   37.8210 O   0  0  0  0  0  0  0  0  0  0  0  0
   38.6540   31.4810   39.1560 C   0  0  1  0  0  0  0  0  0  0  0  0
   36.7780   32.6030   39.1830 H   0  0  0  0  0  0  0  0  0  0  0  0
   35.6300   31.0110   38.0420 H   0  0  0  0  0  0  0  0  0  0  0  0
   36.7850   29.6420   38.4710 H   0  0  0  0  0  0  0  0  0  0  0  0
   37.2990   32.1990   36.8520 H   0  0  0  0  0  0  0  0  0  0  0  0
   37.6300   30.4560   36.3600 H   0  0  0  0  0  0  0  0  0  0  0  0
   39.0780   30.6330   39.7050 H   0  0  0  0  0  0  0  0  0  0  0  0
   39.3720   32.7160   39.6080 C   0  0  1  0  0  0  0  0  0  0  0  0
   40.1030   32.4890   40.9240 C   0  0  0  0  0  0  0  0  0  0  0  0
   41.4150   33.1900   40.6720 C   0  0  0  0  0  0  0  0  0  0  0  0
   41.2320   33.9560   39.5220 O   0  0  0  0  0  0  0  0  0  0  0  0
   40.5480   33.0540   38.7020 C   0  0  0  0  0  0  0  0  0  0  0  0
   38.7460   33.6270   39.6250 H   0  0  0  0  0  0  0  0  0  0  0  0
   39.5230   32.9280   41.7470 H   0  0  0  0  0  0  0  0  0  0  0  0
   40.2220   31.3980   41.0870 H   0  0  0  0  0  0  0  0  0  0  0  0
   42.2220   32.4370   40.5350 H   0  0  0  0  0  0  0  0  0  0  0  0
   41.6500   33.7990   41.5680 H   0  0  0  0  0  0  0  0  0  0  0  0
   40.2450   33.4640   37.7380 H   0  0  0  0  0  0  0  0  0  0  0  0
   41.2530   32.1770   38.6300 H   0  0  0  0  0  0  0  0  0  0  0  0
   36.7100   31.1570   40.7260 C   0  0  0  0  0  0  0  0  0  0  0  0
   37.0410   31.8490   41.5200 H   0  0  0  0  0  0  0  0  0  0  0  0
   35.6040   31.1470   40.7100 H   0  0  0  0  0  0  0  0  0  0  0  0
   37.9280   29.5230   42.0670 C   0  0  0  0  0  3  0  0  0  0  0  0
   37.1450   29.7730   41.0600 C   0  0  0  0  0  3  0  0  0  0  0  0
   39.6050   26.6940   43.6490 C   0  0  0  0  0  0  0  0  0  0  0  0
   39.0900   25.5760   42.9240 C   0  0  0  0  0  0  0  0  0  0  0  0
   38.1760   25.8630   41.9110 C   0  0  0  0  0  0  0  0  0  0  0  0
   37.8370   27.1500   41.6760 N   0  0  0  0  0  0  0  0  0  0  0  0
   38.3410   28.1840   42.3800 C   0  0  0  0  0  0  0  0  0  0  0  0
   39.2210   27.9770   43.3630 N   0  0  0  0  0  0  0  0  0  0  0  0
   40.3110   26.5530   44.4420 H   0  0  0  0  0  0  0  0  0  0  0  0
   39.4100   24.5910   43.1710 H   0  0  0  0  0  0  0  0  0  0  0  0
   37.6240   24.8230   41.1510 N   0  0  0  0  0  0  0  0  0  0  0  0
   36.6420   25.1050   40.1240 C   0  0  0  0  0  2  0  0  0  0  0  0
   35.9090   23.7920   39.8500 C   0  0  0  0  0  2  0  0  0  0  0  0
   36.9310   22.8630   39.2030 C   0  0  0  0  0  3  0  0  0  0  0  0
   36.4300   21.9070   38.9380 H   0  0  0  0  0  0  0  0  0  0  0  0
   38.1330   22.7090   40.0810 C   0  0  0  0  0  2  0  0  0  0  0  0
   38.0300   23.4520   41.3870 C   0  0  0  0  0  2  0  0  0  0  0  0
  1  6  1  6  0  0  0
  1 24  1  0  0  0  0
  2  8  1  0  0  0  0
  2  1  1  0  0  0  0
  3  4  1  0  0  0  0
  3  2  1  0  0  0  0
  4  5  1  0  0  0  0
  5  1  1  0  0  0  0
  5 12  1  0  0  0  0
  5 11  1  1  0  0  0
  7  2  1  0  0  0  0
  9  3  1  0  0  0  0
 10  3  1  0  0  0  0
 12 17  1  1  0  0  0
 12 13  1  0  0  0  0
 13 19  1  0  0  0  0
 13 18  1  0  0  0  0
 14 13  1  0  0  0  0
 14 21  1  0  0  0  0
 15 14  1  0  0  0  0
 16 15  1  0  0  0  0
 16 12  1  0  0  0  0
 20 14  1  0  0  0  0
 22 16  1  0  0  0  0
 23 16  1  0  0  0  0
 24 28  1  0  0  0  0
 24 25  1  0  0  0  0
 26 24  1  0  0  0  0
 27 33  1  0  0  0  0
 28 27  2  0  0  0  0
 29 35  1  0  0  0  0
 30 36  1  0  0  0  0
 30 29  2  0  0  0  0
 31 30  1  0  0  0  0
 32 31  2  0  0  0  0
 32 33  1  0  0  0  0
 33 34  2  0  0  0  0
 34 29  1  0  0  0  0
 37 43  1  0  0  0  0
 37 31  1  0  0  0  0
 38 37  1  0  0  0  0
 39 38  1  0  0  0  0
 40 39  1  0  0  0  0
 40 42  1  0  0  0  0
 41 40  1  0  0  0  0
 42 43  1  0  0  0  0
M  END
>  <minimizedAffinity>
-5.43070936

$$$$

 OpenBabel03242513253D

 43 46  0  0  1  0  0  0  0  0999 V2000
   36.8300   23.6830   40.5190 C   0  0  2  0  0  0  0  0  0  0  0  0
   37.9810   22.6900   40.5470 C   0  0  0  0  0  0  0  0  0  0  0  0
   38.0180   22.3870   39.0500 C   0  0  0  0  0  0  0  0  0  0  0  0
   37.8260   23.6040   38.4460 O   0  0  0  0  0  0  0  0  0  0  0  0
   37.2020   24.4560   39.2990 C   0  0  1  0  0  0  0  0  0  0  0  0
   35.9150   23.0840   40.4140 H   0  0  0  0  0  0  0  0  0  0  0  0
   37.6460   21.8090   41.1430 H   0  0  0  0  0  0  0  0  0  0  0  0
   38.9190   23.1200   40.9150 H   0  0  0  0  0  0  0  0  0  0  0  0
   37.1490   21.7300   38.8280 H   0  0  0  0  0  0  0  0  0  0  0  0
   38.9820   21.9020   38.8310 H   0  0  0  0  0  0  0  0  0  0  0  0
   37.8570   25.3000   39.5420 H   0  0  0  0  0  0  0  0  0  0  0  0
   35.9850   25.0110   38.6240 C   0  0  1  0  0  0  0  0  0  0  0  0
   35.9940   26.5330   38.6110 C   0  0  0  0  0  0  0  0  0  0  0  0
   35.5170   26.8320   37.2120 C   0  0  0  0  0  0  0  0  0  0  0  0
   35.0080   25.6350   36.7100 O   0  0  0  0  0  0  0  0  0  0  0  0
   35.9880   24.7290   37.1270 C   0  0  0  0  0  0  0  0  0  0  0  0
   35.0290   24.5970   38.9950 H   0  0  0  0  0  0  0  0  0  0  0  0
   35.3230   26.9110   39.3940 H   0  0  0  0  0  0  0  0  0  0  0  0
   37.0290   26.8880   38.7980 H   0  0  0  0  0  0  0  0  0  0  0  0
   36.3660   27.2030   36.5970 H   0  0  0  0  0  0  0  0  0  0  0  0
   34.7540   27.6350   37.2800 H   0  0  0  0  0  0  0  0  0  0  0  0
   35.7700   23.6890   36.8840 H   0  0  0  0  0  0  0  0  0  0  0  0
   36.9320   25.1260   36.6550 H   0  0  0  0  0  0  0  0  0  0  0  0
   36.7300   24.4830   41.7750 C   0  0  0  0  0  0  0  0  0  0  0  0
   35.7020   24.8520   41.9370 H   0  0  0  0  0  0  0  0  0  0  0  0
   37.0040   23.8250   42.6210 H   0  0  0  0  0  0  0  0  0  0  0  0
   37.3070   26.8210   42.1700 C   0  0  0  0  0  3  0  0  0  0  0  0
   37.6790   25.6310   41.8020 C   0  0  0  0  0  3  0  0  0  0  0  0
   40.2310   28.8750   42.9100 C   0  0  0  0  0  0  0  0  0  0  0  0
   39.9610   30.0800   42.1900 C   0  0  0  0  0  0  0  0  0  0  0  0
   38.7640   30.1180   41.4760 C   0  0  0  0  0  0  0  0  0  0  0  0
   37.9460   29.0440   41.5030 N   0  0  0  0  0  0  0  0  0  0  0  0
   38.2310   27.9200   42.1930 C   0  0  0  0  0  0  0  0  0  0  0  0
   39.3610   27.8180   42.8970 N   0  0  0  0  0  0  0  0  0  0  0  0
   41.1310   28.7700   43.4820 H   0  0  0  0  0  0  0  0  0  0  0  0
   40.6590   30.8830   42.2200 H   0  0  0  0  0  0  0  0  0  0  0  0
   38.4240   31.2640   40.7430 N   0  0  0  0  0  0  0  0  0  0  0  0
   37.0690   31.4540   40.2660 C   0  0  0  0  0  2  0  0  0  0  0  0
   37.1450   32.4840   39.1390 C   0  0  0  0  0  2  0  0  0  0  0  0
   37.5430   33.8020   39.7950 C   0  0  0  0  0  3  0  0  0  0  0  0
   37.5630   34.5970   39.0190 H   0  0  0  0  0  0  0  0  0  0  0  0
   38.8230   33.6470   40.5560 C   0  0  0  0  0  2  0  0  0  0  0  0
   39.4250   32.2700   40.4550 C   0  0  0  0  0  2  0  0  0  0  0  0
  1  6  1  6  0  0  0
  1  2  1  0  0  0  0
  1 24  1  0  0  0  0
  2  8  1  0  0  0  0
  2  7  1  0  0  0  0
  3  2  1  0  0  0  0
  4  3  1  0  0  0  0
  4  5  1  0  0  0  0
  5 11  1  1  0  0  0
  5  1  1  0  0  0  0
  9  3  1  0  0  0  0
 10  3  1  0  0  0  0
 12 17  1  1  0  0  0
 12  5  1  0  0  0  0
 13 12  1  0  0  0  0
 13 19  1  0  0  0  0
 13 18  1  0  0  0  0
 14 21  1  0  0  0  0
 14 13  1  0  0  0  0
 15 16  1  0  0  0  0
 15 14  1  0  0  0  0
 16 12  1  0  0  0  0
 20 14  1  0  0  0  0
 22 16  1  0  0  0  0
 23 16  1  0  0  0  0
 24 28  1  0  0  0  0
 24 25  1  0  0  0  0
 24 26  1  0  0  0  0
 27 33  1  0  0  0  0
 28 27  2  0  0  0  0
 29 35  1  0  0  0  0
 30 36  1  0  0  0  0
 30 29  2  0  0  0  0
 31 32  2  0  0  0  0
 31 30  1  0  0  0  0
 32 33  1  0  0  0  0
 33 34  2  0  0  0  0
 34 29  1  0  0  0  0
 37 31  1  0  0  0  0
 38 37  1  0  0  0  0
 39 40  1  0  0  0  0
 39 38  1  0  0  0  0
 40 42  1  0  0  0  0
 41 40  1  0  0  0  0
 43 42  1  0  0  0  0
 43 37  1  0  0  0  0
M  END
>  <minimizedAffinity>
-5.33301592

$$$$

 OpenBabel03242513253D

 43 46  0  0  1  0  0  0  0  0999 V2000
   36.2750   28.4410   39.5840 C   0  0  2  0  0  0  0  0  0  0  0  0
   35.4140   27.7360   38.5480 C   0  0  0  0  0  0  0  0  0  0  0  0
   36.2520   26.4640   38.4250 C   0  0  0  0  0  0  0  0  0  0  0  0
   36.6250   26.1700   39.7120 O   0  0  0  0  0  0  0  0  0  0  0  0
   36.5740   27.2880   40.4820 C   0  0  1  0  0  0  0  0  0  0  0  0
   37.1470   28.8290   39.0390 H   0  0  0  0  0  0  0  0  0  0  0  0
   35.4440   28.3480   37.6170 H   0  0  0  0  0  0  0  0  0  0  0  0
   34.3920   27.5380   38.8940 H   0  0  0  0  0  0  0  0  0  0  0  0
   37.1570   26.7260   37.8360 H   0  0  0  0  0  0  0  0  0  0  0  0
   35.6310   25.7010   37.9310 H   0  0  0  0  0  0  0  0  0  0  0  0
   35.8140   27.1790   41.2630 H   0  0  0  0  0  0  0  0  0  0  0  0
   37.8970   27.4670   41.1610 C   0  0  1  0  0  0  0  0  0  0  0  0
   37.7290   27.8980   42.6120 C   0  0  0  0  0  0  0  0  0  0  0  0
   38.7660   27.0510   43.3070 C   0  0  0  0  0  0  0  0  0  0  0  0
   39.5750   26.5250   42.3020 O   0  0  0  0  0  0  0  0  0  0  0  0
   38.6200   26.1410   41.3570 C   0  0  0  0  0  0  0  0  0  0  0  0
   38.6100   28.1080   40.6100 H   0  0  0  0  0  0  0  0  0  0  0  0
   37.9150   28.9770   42.6990 H   0  0  0  0  0  0  0  0  0  0  0  0
   36.6940   27.6670   42.9380 H   0  0  0  0  0  0  0  0  0  0  0  0
   38.2640   26.2460   43.8890 H   0  0  0  0  0  0  0  0  0  0  0  0
   39.3170   27.7040   44.0130 H   0  0  0  0  0  0  0  0  0  0  0  0
   39.0370   25.7370   40.4340 H   0  0  0  0  0  0  0  0  0  0  0  0
   37.9650   25.4170   41.9230 H   0  0  0  0  0  0  0  0  0  0  0  0
   35.5730   29.5880   40.2320 C   0  0  0  0  0  0  0  0  0  0  0  0
   34.6250   29.8220   39.7180 H   0  0  0  0  0  0  0  0  0  0  0  0
   35.3440   29.3010   41.2760 H   0  0  0  0  0  0  0  0  0  0  0  0
   37.5360   30.9150   39.6480 C   0  0  0  0  0  3  0  0  0  0  0  0
   36.4160   30.8130   40.3010 C   0  0  0  0  0  3  0  0  0  0  0  0
   38.6030   34.3420   40.3020 C   0  0  0  0  0  0  0  0  0  0  0  0
   39.9520   34.3490   39.8310 C   0  0  0  0  0  0  0  0  0  0  0  0
   40.4280   33.1490   39.3040 C   0  0  0  0  0  0  0  0  0  0  0  0
   39.6110   32.0740   39.2680 N   0  0  0  0  0  0  0  0  0  0  0  0
   38.3410   32.1010   39.7220 C   0  0  0  0  0  0  0  0  0  0  0  0
   37.8230   33.2190   40.2390 N   0  0  0  0  0  0  0  0  0  0  0  0
   38.1670   35.2260   40.7210 H   0  0  0  0  0  0  0  0  0  0  0  0
   40.5320   35.2390   39.8950 H   0  0  0  0  0  0  0  0  0  0  0  0
   41.7420   33.0700   38.8190 N   0  0  0  0  0  0  0  0  0  0  0  0
   41.9930   32.9350   37.3980 C   0  0  0  0  0  2  0  0  0  0  0  0
   43.4170   32.3970   37.2570 C   0  0  0  0  0  2  0  0  0  0  0  0
   44.3410   33.5090   37.7390 C   0  0  0  0  0  3  0  0  0  0  0  0
   45.3950   33.1820   37.6090 H   0  0  0  0  0  0  0  0  0  0  0  0
   43.9890   33.9200   39.1350 C   0  0  0  0  0  2  0  0  0  0  0  0
   42.8630   33.1220   39.7360 C   0  0  0  0  0  2  0  0  0  0  0  0
  1  6  1  6  0  0  0
  1 24  1  0  0  0  0
  1  5  1  0  0  0  0
  2  8  1  0  0  0  0
  2  1  1  0  0  0  0
  3  2  1  0  0  0  0
  3  4  1  0  0  0  0
  4  5  1  0  0  0  0
  5 12  1  0  0  0  0
  5 11  1  1  0  0  0
  7  2  1  0  0  0  0
  9  3  1  0  0  0  0
 10  3  1  0  0  0  0
 12 17  1  6  0  0  0
 12 16  1  0  0  0  0
 12 13  1  0  0  0  0
 13 18  1  0  0  0  0
 13 19  1  0  0  0  0
 13 14  1  0  0  0  0
 14 20  1  0  0  0  0
 14 21  1  0  0  0  0
 15 14  1  0  0  0  0
 16 23  1  0  0  0  0
 16 15  1  0  0  0  0
 22 16  1  0  0  0  0
 24 28  1  0  0  0  0
 24 26  1  0  0  0  0
 25 24  1  0  0  0  0
 27 33  1  0  0  0  0
 27 28  2  0  0  0  0
 29 35  1  0  0  0  0
 30 36  1  0  0  0  0
 30 29  2  0  0  0  0
 31 30  1  0  0  0  0
 32 31  2  0  0  0  0
 32 33  1  0  0  0  0
 33 34  2  0  0  0  0
 34 29  1  0  0  0  0
 37 31  1  0  0  0  0
 37 43  1  0  0  0  0
 38 37  1  0  0  0  0
 39 38  1  0  0  0  0
 39 40  1  0  0  0  0
 40 42  1  0  0  0  0
 41 40  1  0  0  0  0
 42 43  1  0  0  0  0
M  END
>  <minimizedAffinity>
-5.32992458

$$$$
