
 OpenBabel03252509353D

 42 44  0  0  1  0  0  0  0  0999 V2000
   44.5220   35.4720   44.0250 O   0  0  0  0  0  0  0  0  0  0  0  0
   45.3820   34.2700   44.3640 P   0  0  1  0  0  0  0  0  0  0  0  0
   44.7160   32.8510   43.7210 O   0  0  0  0  0  0  0  0  0  0  0  0
   44.4910   33.0240   42.7860 H   0  0  0  0  0  0  0  0  0  0  0  0
   46.9040   34.5260   43.7260 O   0  0  0  0  0  0  0  0  0  0  0  0
   47.0320   33.8290   42.5190 C   0  0  1  0  0  0  0  0  0  0  0  0
   46.4510   34.6640   41.3740 C   0  0  0  0  0  0  0  0  0  0  0  0
   46.9630   33.8950   40.1830 C   0  0  0  0  0  0  0  0  0  0  0  0
   48.2470   33.2230   40.6360 C   0  0  0  0  0  0  0  0  0  0  0  0
   48.4500   33.6880   42.0600 C   0  0  1  0  0  0  0  0  0  0  0  0
   46.5100   32.8750   42.5080 H   0  0  0  0  0  0  0  0  0  0  0  0
   46.7220   35.7120   41.4110 H   0  0  0  0  0  0  0  0  0  0  0  0
   45.3480   34.6080   41.4600 H   0  0  0  0  0  0  0  0  0  0  0  0
   46.1810   33.1310   39.9030 H   0  0  0  0  0  0  0  0  0  0  0  0
   47.1370   34.5190   39.3060 H   0  0  0  0  0  0  0  0  0  0  0  0
   48.0850   32.1170   40.6130 H   0  0  0  0  0  0  0  0  0  0  0  0
   49.0990   33.4710   39.9830 H   0  0  0  0  0  0  0  0  0  0  0  0
   48.9710   32.8650   42.6240 H   0  0  0  0  0  0  0  0  0  0  0  0
   49.2180   34.9810   42.1170 C   0  0  0  0  0  0  0  0  0  0  0  0
   49.8370   35.0370   41.1800 H   0  0  0  0  0  0  0  0  0  0  0  0
   48.5920   35.8870   42.1020 H   0  0  0  0  0  0  0  0  0  0  0  0
   50.0200   35.0690   43.2340 O   0  0  0  0  0  0  0  0  0  0  0  0
   50.0480   34.2160   43.7260 H   0  0  0  0  0  0  0  0  0  0  0  0
   45.4580   34.0470   46.0160 O   0  0  0  0  0  0  0  0  0  0  0  0
   46.3960   33.1060   46.2960 C   0  0  0  0  0  0  0  0  0  0  0  0
   47.2140   33.6390   46.8670 H   0  0  0  0  0  0  0  0  0  0  0  0
   46.9090   32.6190   45.4700 H   0  0  0  0  0  0  0  0  0  0  0  0
   45.3730   31.3840   49.4310 C   0  0  0  0  0  0  0  0  0  0  0  0
   45.8340   32.3930   48.5790 C   0  0  0  0  0  0  0  0  0  0  0  0
   45.9100   32.0650   47.2190 C   0  0  0  0  0  0  0  0  0  0  0  0
   45.5420   30.8210   46.8110 N   0  0  0  0  0  0  0  0  0  0  0  0
   45.1010   29.8700   47.6620 C   0  0  0  0  0  0  0  0  0  0  0  0
   45.0200   30.1520   48.9540 N   0  0  0  0  0  0  0  0  0  0  0  0
   45.3010   31.6010   50.4900 H   0  0  0  0  0  0  0  0  0  0  0  0
   46.1010   33.3420   48.9930 H   0  0  0  0  0  0  0  0  0  0  0  0
   44.7410   28.5960   47.1370 N   0  0  0  0  0  0  0  0  0  0  0  0
   43.9300   28.5020   45.9380 C   0  0  0  0  0  2  0  0  0  0  0  0
   44.2440   27.2250   45.1810 C   0  0  0  0  0  2  0  0  0  0  0  0
   45.7290   26.9830   45.3690 C   0  0  0  0  0  3  0  0  0  0  0  0
   46.0310   26.1700   44.6910 H   0  0  0  0  0  0  0  0  0  0  0  0
   46.0990   26.6880   46.8050 C   0  0  0  0  0  2  0  0  0  0  0  0
   45.1740   27.3740   47.7900 C   0  0  0  0  0  2  0  0  0  0  0  0
  2  1  2  6  0  0  0
  2 24  1  0  0  0  0
  3  2  1  0  0  0  0
  4  3  1  0  0  0  0
  5  2  1  0  0  0  0
  6 11  1  1  0  0  0
  6  5  1  0  0  0  0
  7 12  1  0  0  0  0
  7 13  1  0  0  0  0
  7  6  1  0  0  0  0
  8  9  1  0  0  0  0
  8  7  1  0  0  0  0
  9 10  1  0  0  0  0
 10 19  1  0  0  0  0
 10  6  1  0  0  0  0
 10 18  1  1  0  0  0
 14  8  1  0  0  0  0
 15  8  1  0  0  0  0
 16  9  1  0  0  0  0
 17  9  1  0  0  0  0
 19 22  1  0  0  0  0
 20 19  1  0  0  0  0
 21 19  1  0  0  0  0
 22 23  1  0  0  0  0
 24 25  1  0  0  0  0
 25 26  1  0  0  0  0
 25 30  1  0  0  0  0
 27 25  1  0  0  0  0
 28 34  1  0  0  0  0
 29 35  1  0  0  0  0
 29 28  2  0  0  0  0
 30 29  1  0  0  0  0
 31 30  2  0  0  0  0
 31 32  1  0  0  0  0
 32 33  2  0  0  0  0
 33 28  1  0  0  0  0
 36 32  1  0  0  0  0
 36 42  1  0  0  0  0
 37 36  1  0  0  0  0
 38 39  1  0  0  0  0
 38 37  1  0  0  0  0
 39 41  1  0  0  0  0
 40 39  1  0  0  0  0
 41 42  1  0  0  0  0
M  END
>  <minimizedAffinity>
-6.20357466

>  <minimizedRMSD>
1.0921272

$$$$
