
 OpenBabel03242513323D

 35 38  0  0  0  0  0  0  0  0999 V2000
   40.6790   33.1940   40.2220 C   0  0  0  0  0  0  0  0  0  0  0  0
   41.1700   34.4480   40.5540 C   0  0  0  0  0  0  0  0  0  0  0  0
   40.2670   35.4700   40.6010 C   0  0  0  0  0  0  0  0  0  0  0  0
   38.9170   35.2810   40.3300 C   0  0  0  0  0  0  0  0  0  0  0  0
   38.4480   34.0380   40.0030 C   0  0  0  0  0  0  0  0  0  0  0  0
   39.3380   32.9760   39.9470 C   0  0  0  0  0  0  0  0  0  0  0  0
   40.6920   36.4520   40.8690 H   0  0  0  0  0  0  0  0  0  0  0  0
   38.2750   36.1450   40.3890 H   0  0  0  0  0  0  0  0  0  0  0  0
   37.4020   33.8810   39.7920 H   0  0  0  0  0  0  0  0  0  0  0  0
   44.4290   35.3410   42.2000 C   0  0  0  0  0  0  0  0  0  0  0  0
   43.0660   35.2130   41.9480 C   0  0  0  0  0  0  0  0  0  0  0  0
   42.5730   34.5880   40.8250 C   0  0  0  0  0  0  0  0  0  0  0  0
   43.5240   34.1070   39.9800 N   0  0  0  0  0  0  0  0  0  0  0  0
   44.8500   34.2280   40.2160 C   0  0  0  0  0  0  0  0  0  0  0  0
   45.2980   34.8480   41.3300 N   0  0  0  0  0  0  0  0  0  0  0  0
   44.7750   35.8370   43.0960 H   0  0  0  0  0  0  0  0  0  0  0  0
   42.3400   35.6220   42.6660 H   0  0  0  0  0  0  0  0  0  0  0  0
   45.4680   33.7820   39.4280 H   0  0  0  0  0  0  0  0  0  0  0  0
   41.5560   32.1280   40.1610 O   0  0  0  0  0  0  0  0  0  0  0  0
   41.2490   31.1980   40.3450 H   0  0  0  0  0  0  0  0  0  0  0  0
   38.9360   31.6890   39.6210 O   0  0  0  0  0  0  0  0  0  0  0  0
   38.5100   30.7500   40.4760 C   0  0  0  0  0  0  0  0  0  0  0  0
   37.3220   30.6760   41.1720 C   0  0  0  0  0  0  0  0  0  0  0  0
   37.1130   29.6080   41.9990 C   0  0  0  0  0  0  0  0  0  0  0  0
   38.1600   28.6430   42.0750 C   0  0  0  0  0  0  0  0  0  0  0  0
   39.4240   29.2860   40.9560 S   0  0  0  0  0  0  0  0  0  0  0  0
   36.5770   31.4480   41.0620 H   0  0  0  0  0  0  0  0  0  0  0  0
   36.2390   29.4180   42.6030 H   0  0  0  0  0  0  0  0  0  0  0  0
   38.2400   27.4700   42.8250 N   0  0  0  0  0  0  0  0  0  0  0  0
   37.0960   26.5480   42.7190 C   0  0  0  0  0  2  0  0  0  0  0  0
   37.5350   25.5470   41.6390 C   0  0  0  0  0  2  0  0  0  0  0  0
   39.0220   25.3310   41.7980 C   0  0  0  0  0  3  0  0  0  0  0  0
   39.3090   24.3420   41.4550 H   0  0  0  0  0  0  0  0  0  0  0  0
   39.4940   25.5060   43.2320 C   0  0  0  0  0  2  0  0  0  0  0  0
   39.2580   26.9400   43.7170 C   0  0  0  0  0  2  0  0  0  0  0  0
  1  2  1  0  0  0  0
  2  3  2  0  0  0  0
  2 12  1  0  0  0  0
  3  7  1  0  0  0  0
  4  8  1  0  0  0  0
  4  3  1  0  0  0  0
  5  4  2  0  0  0  0
  6  5  1  0  0  0  0
  6  1  2  0  0  0  0
  9  5  1  0  0  0  0
 10 16  1  0  0  0  0
 11 10  1  0  0  0  0
 11 17  1  0  0  0  0
 12 11  2  0  0  0  0
 13 14  2  0  0  0  0
 13 12  1  0  0  0  0
 14 15  1  0  0  0  0
 15 10  2  0  0  0  0
 18 14  1  0  0  0  0
 19  1  1  0  0  0  0
 19 20  1  0  0  0  0
 21  6  1  0  0  0  0
 21 22  1  0  0  0  0
 22 26  1  0  0  0  0
 22 23  2  0  0  0  0
 23 24  1  0  0  0  0
 24 25  2  0  0  0  0
 24 28  1  0  0  0  0
 25 29  1  0  0  0  0
 26 25  1  0  0  0  0
 27 23  1  0  0  0  0
 29 35  1  0  0  0  0
 30 29  1  0  0  0  0
 31 32  1  0  0  0  0
 31 30  1  0  0  0  0
 32 34  1  0  0  0  0
 33 32  1  0  0  0  0
 34 35  1  0  0  0  0
M  END
>  <minimizedAffinity>
-6.17040539

$$$$

 OpenBabel03242513323D

 35 38  0  0  0  0  0  0  0  0999 V2000
   38.4850   31.7790   40.5910 C   0  0  0  0  0  0  0  0  0  0  0  0
   38.7310   32.2730   39.3190 C   0  0  0  0  0  0  0  0  0  0  0  0
   37.9160   31.8290   38.3190 C   0  0  0  0  0  0  0  0  0  0  0  0
   36.8850   30.9250   38.5470 C   0  0  0  0  0  0  0  0  0  0  0  0
   36.6550   30.4470   39.8080 C   0  0  0  0  0  0  0  0  0  0  0  0
   37.4650   30.8770   40.8490 C   0  0  0  0  0  0  0  0  0  0  0  0
   38.1390   32.2430   37.3210 H   0  0  0  0  0  0  0  0  0  0  0  0
   36.2900   30.6280   37.6970 H   0  0  0  0  0  0  0  0  0  0  0  0
   35.8570   29.7460   39.9950 H   0  0  0  0  0  0  0  0  0  0  0  0
   41.9080   33.8880   38.1250 C   0  0  0  0  0  0  0  0  0  0  0  0
   40.8690   32.9760   38.2910 C   0  0  0  0  0  0  0  0  0  0  0  0
   39.8080   33.2040   39.1380 C   0  0  0  0  0  0  0  0  0  0  0  0
   39.8560   34.3920   39.8000 N   0  0  0  0  0  0  0  0  0  0  0  0
   40.8620   35.2830   39.6450 C   0  0  0  0  0  0  0  0  0  0  0  0
   41.8870   35.0250   38.8050 N   0  0  0  0  0  0  0  0  0  0  0  0
   42.7220   33.6710   37.4470 H   0  0  0  0  0  0  0  0  0  0  0  0
   40.8820   32.0300   37.7310 H   0  0  0  0  0  0  0  0  0  0  0  0
   40.7340   36.1830   40.2580 H   0  0  0  0  0  0  0  0  0  0  0  0
   39.2860   32.1980   41.6370 O   0  0  0  0  0  0  0  0  0  0  0  0
   38.9370   32.2330   42.5700 H   0  0  0  0  0  0  0  0  0  0  0  0
   37.2930   30.4340   42.1520 O   0  0  0  0  0  0  0  0  0  0  0  0
   37.8000   29.3140   42.6830 C   0  0  0  0  0  0  0  0  0  0  0  0
   37.2380   28.4470   43.5970 C   0  0  0  0  0  0  0  0  0  0  0  0
   37.9610   27.3580   43.9970 C   0  0  0  0  0  0  0  0  0  0  0  0
   39.2580   27.2060   43.4270 C   0  0  0  0  0  0  0  0  0  0  0  0
   39.4160   28.6300   42.3250 S   0  0  0  0  0  0  0  0  0  0  0  0
   36.2480   28.6310   43.9850 H   0  0  0  0  0  0  0  0  0  0  0  0
   37.6520   26.6000   44.7000 H   0  0  0  0  0  0  0  0  0  0  0  0
   40.2170   26.2170   43.6400 N   0  0  0  0  0  0  0  0  0  0  0  0
   39.8340   24.8440   43.2680 C   0  0  0  0  0  2  0  0  0  0  0  0
   40.4000   24.6820   41.8490 C   0  0  0  0  0  2  0  0  0  0  0  0
   41.7060   25.4390   41.7920 C   0  0  0  0  0  3  0  0  0  0  0  0
   42.3790   24.9970   41.0640 H   0  0  0  0  0  0  0  0  0  0  0  0
   42.4140   25.4980   43.1360 C   0  0  0  0  0  2  0  0  0  0  0  0
   41.5710   26.2570   44.1670 C   0  0  0  0  0  2  0  0  0  0  0  0
  1  6  1  0  0  0  0
  1 19  1  0  0  0  0
  2  1  2  0  0  0  0
  3  4  2  0  0  0  0
  3  2  1  0  0  0  0
  4  5  1  0  0  0  0
  5  9  1  0  0  0  0
  5  6  2  0  0  0  0
  6 21  1  0  0  0  0
  7  3  1  0  0  0  0
  8  4  1  0  0  0  0
 10 11  2  0  0  0  0
 10 15  1  0  0  0  0
 11 12  1  0  0  0  0
 12  2  1  0  0  0  0
 12 13  2  0  0  0  0
 14 13  1  0  0  0  0
 14 18  1  0  0  0  0
 15 14  2  0  0  0  0
 16 10  1  0  0  0  0
 17 11  1  0  0  0  0
 19 20  1  0  0  0  0
 21 22  1  0  0  0  0
 22 23  2  0  0  0  0
 23 27  1  0  0  0  0
 23 24  1  0  0  0  0
 24 28  1  0  0  0  0
 25 29  1  0  0  0  0
 25 24  2  0  0  0  0
 26 22  1  0  0  0  0
 26 25  1  0  0  0  0
 29 35  1  0  0  0  0
 30 29  1  0  0  0  0
 31 30  1  0  0  0  0
 32 31  1  0  0  0  0
 32 34  1  0  0  0  0
 33 32  1  0  0  0  0
 34 35  1  0  0  0  0
M  END
>  <minimizedAffinity>
-6.12077188

$$$$

 OpenBabel03242513323D

 35 38  0  0  0  0  0  0  0  0999 V2000
   38.7830   26.7550   42.1500 C   0  0  0  0  0  0  0  0  0  0  0  0
   37.5710   26.0820   42.1150 C   0  0  0  0  0  0  0  0  0  0  0  0
   36.5770   26.5600   42.9180 C   0  0  0  0  0  0  0  0  0  0  0  0
   36.7540   27.6670   43.7390 C   0  0  0  0  0  0  0  0  0  0  0  0
   37.9550   28.3210   43.7630 C   0  0  0  0  0  0  0  0  0  0  0  0
   38.9890   27.8620   42.9590 C   0  0  0  0  0  0  0  0  0  0  0  0
   35.6280   26.0010   42.8640 H   0  0  0  0  0  0  0  0  0  0  0  0
   35.9140   27.9760   44.3410 H   0  0  0  0  0  0  0  0  0  0  0  0
   38.1030   29.1820   44.3960 H   0  0  0  0  0  0  0  0  0  0  0  0
   36.4480   23.7890   39.3570 C   0  0  0  0  0  0  0  0  0  0  0  0
   36.5630   24.8980   40.1900 C   0  0  0  0  0  0  0  0  0  0  0  0
   37.4410   24.9440   41.2490 C   0  0  0  0  0  0  0  0  0  0  0  0
   38.1870   23.8190   41.4170 N   0  0  0  0  0  0  0  0  0  0  0  0
   38.0800   22.7360   40.6130 C   0  0  0  0  0  0  0  0  0  0  0  0
   37.2070   22.7270   39.5830 N   0  0  0  0  0  0  0  0  0  0  0  0
   35.7470   23.7940   38.5330 H   0  0  0  0  0  0  0  0  0  0  0  0
   35.9340   25.7810   40.0080 H   0  0  0  0  0  0  0  0  0  0  0  0
   38.7580   21.9230   40.8980 H   0  0  0  0  0  0  0  0  0  0  0  0
   39.8200   26.3070   41.3550 O   0  0  0  0  0  0  0  0  0  0  0  0
   40.5180   26.9340   41.0170 H   0  0  0  0  0  0  0  0  0  0  0  0
   40.2340   28.4730   42.9320 O   0  0  0  0  0  0  0  0  0  0  0  0
   40.5200   29.6680   42.3980 C   0  0  0  0  0  0  0  0  0  0  0  0
   41.5100   30.5640   42.7430 C   0  0  0  0  0  0  0  0  0  0  0  0
   41.6040   31.7360   42.0450 C   0  0  0  0  0  0  0  0  0  0  0  0
   40.6550   31.9370   41.0020 C   0  0  0  0  0  0  0  0  0  0  0  0
   39.6450   30.4390   41.0400 S   0  0  0  0  0  0  0  0  0  0  0  0
   42.1920   30.3400   43.5490 H   0  0  0  0  0  0  0  0  0  0  0  0
   42.3220   32.5260   42.2020 H   0  0  0  0  0  0  0  0  0  0  0  0
   40.4970   33.0170   40.1340 N   0  0  0  0  0  0  0  0  0  0  0  0
   39.3090   32.9880   39.2640 C   0  0  0  0  0  2  0  0  0  0  0  0
   38.2760   33.8260   40.0330 C   0  0  0  0  0  2  0  0  0  0  0  0
   39.0220   34.9440   40.7240 C   0  0  0  0  0  3  0  0  0  0  0  0
   38.3840   35.8130   40.8530 H   0  0  0  0  0  0  0  0  0  0  0  0
   40.2750   35.3670   39.9760 C   0  0  0  0  0  2  0  0  0  0  0  0
   41.2850   34.2160   39.9030 C   0  0  0  0  0  2  0  0  0  0  0  0
  1  6  1  0  0  0  0
  2  1  2  0  0  0  0
  2  3  1  0  0  0  0
  3  4  2  0  0  0  0
  4  5  1  0  0  0  0
  4  8  1  0  0  0  0
  5  9  1  0  0  0  0
  6  5  2  0  0  0  0
  7  3  1  0  0  0  0
 10 15  2  0  0  0  0
 10 11  1  0  0  0  0
 11 12  2  0  0  0  0
 12 13  1  0  0  0  0
 12  2  1  0  0  0  0
 14 18  1  0  0  0  0
 14 13  2  0  0  0  0
 15 14  1  0  0  0  0
 16 10  1  0  0  0  0
 17 11  1  0  0  0  0
 19  1  1  0  0  0  0
 20 19  1  0  0  0  0
 21  6  1  0  0  0  0
 22 23  2  0  0  0  0
 22 21  1  0  0  0  0
 23 27  1  0  0  0  0
 24 28  1  0  0  0  0
 24 23  1  0  0  0  0
 25 26  1  0  0  0  0
 25 24  2  0  0  0  0
 26 22  1  0  0  0  0
 29 25  1  0  0  0  0
 30 31  1  0  0  0  0
 30 29  1  0  0  0  0
 31 32  1  0  0  0  0
 32 33  1  0  0  0  0
 34 32  1  0  0  0  0
 35 34  1  0  0  0  0
 35 29  1  0  0  0  0
M  END
>  <minimizedAffinity>
-6.02663279

$$$$

 OpenBabel03242513323D

 35 38  0  0  0  0  0  0  0  0999 V2000
   39.3770   31.8070   40.5110 C   0  0  0  0  0  0  0  0  0  0  0  0
   39.2440   32.5060   39.3210 C   0  0  0  0  0  0  0  0  0  0  0  0
   37.9940   32.5670   38.7800 C   0  0  0  0  0  0  0  0  0  0  0  0
   36.8950   31.9630   39.3780 C   0  0  0  0  0  0  0  0  0  0  0  0
   37.0420   31.2770   40.5520 C   0  0  0  0  0  0  0  0  0  0  0  0
   38.3000   31.1940   41.1310 C   0  0  0  0  0  0  0  0  0  0  0  0
   37.9260   33.1320   37.8340 H   0  0  0  0  0  0  0  0  0  0  0  0
   35.9440   32.0620   38.8800 H   0  0  0  0  0  0  0  0  0  0  0  0
   36.1950   30.8050   41.0250 H   0  0  0  0  0  0  0  0  0  0  0  0
   42.2290   33.1640   37.1330 C   0  0  0  0  0  0  0  0  0  0  0  0
   41.0990   32.5670   37.6830 C   0  0  0  0  0  0  0  0  0  0  0  0
   40.4120   33.1120   38.7450 C   0  0  0  0  0  0  0  0  0  0  0  0
   40.9280   34.2800   39.2140 N   0  0  0  0  0  0  0  0  0  0  0  0
   42.0260   34.8660   38.6860 C   0  0  0  0  0  0  0  0  0  0  0  0
   42.6740   34.3030   37.6440 N   0  0  0  0  0  0  0  0  0  0  0  0
   42.7380   32.7050   36.2970 H   0  0  0  0  0  0  0  0  0  0  0  0
   40.7260   31.6210   37.2640 H   0  0  0  0  0  0  0  0  0  0  0  0
   42.2970   35.8010   39.1920 H   0  0  0  0  0  0  0  0  0  0  0  0
   40.6250   31.7170   41.0980 O   0  0  0  0  0  0  0  0  0  0  0  0
   40.7240   31.6200   42.0850 H   0  0  0  0  0  0  0  0  0  0  0  0
   38.5250   30.5140   42.3190 O   0  0  0  0  0  0  0  0  0  0  0  0
   38.2740   29.2200   42.5520 C   0  0  0  0  0  0  0  0  0  0  0  0
   37.6250   28.6330   43.6190 C   0  0  0  0  0  0  0  0  0  0  0  0
   37.4910   27.2730   43.6370 C   0  0  0  0  0  0  0  0  0  0  0  0
   38.0430   26.5610   42.5320 C   0  0  0  0  0  0  0  0  0  0  0  0
   38.7430   27.8590   41.4870 S   0  0  0  0  0  0  0  0  0  0  0  0
   37.2340   29.2410   44.4210 H   0  0  0  0  0  0  0  0  0  0  0  0
   37.0120   26.6800   44.4000 H   0  0  0  0  0  0  0  0  0  0  0  0
   38.0690   25.1910   42.2760 N   0  0  0  0  0  0  0  0  0  0  0  0
   36.7610   24.5320   42.1140 C   0  0  0  0  0  2  0  0  0  0  0  0
   36.5470   24.5210   40.5920 C   0  0  0  0  0  2  0  0  0  0  0  0
   37.8960   24.3080   39.9450 C   0  0  0  0  0  3  0  0  0  0  0  0
   37.7920   23.8090   38.9870 H   0  0  0  0  0  0  0  0  0  0  0  0
   38.8470   23.5010   40.8140 C   0  0  0  0  0  2  0  0  0  0  0  0
   39.1570   24.2400   42.1210 C   0  0  0  0  0  2  0  0  0  0  0  0
  1 19  1  0  0  0  0
  1  6  1  0  0  0  0
  2  1  2  0  0  0  0
  3  2  1  0  0  0  0
  3  4  2  0  0  0  0
  4  5  1  0  0  0  0
  5  9  1  0  0  0  0
  5  6  2  0  0  0  0
  6 21  1  0  0  0  0
  7  3  1  0  0  0  0
  8  4  1  0  0  0  0
 10 15  2  0  0  0  0
 10 11  1  0  0  0  0
 11 12  2  0  0  0  0
 12 13  1  0  0  0  0
 12  2  1  0  0  0  0
 14 18  1  0  0  0  0
 14 13  2  0  0  0  0
 15 14  1  0  0  0  0
 16 10  1  0  0  0  0
 17 11  1  0  0  0  0
 19 20  1  0  0  0  0
 21 22  1  0  0  0  0
 22 23  2  0  0  0  0
 23 24  1  0  0  0  0
 23 27  1  0  0  0  0
 24 28  1  0  0  0  0
 25 24  2  0  0  0  0
 26 25  1  0  0  0  0
 26 22  1  0  0  0  0
 29 25  1  0  0  0  0
 30 29  1  0  0  0  0
 31 30  1  0  0  0  0
 32 31  1  0  0  0  0
 32 34  1  0  0  0  0
 33 32  1  0  0  0  0
 34 35  1  0  0  0  0
 35 29  1  0  0  0  0
M  END
>  <minimizedAffinity>
-5.99655294

$$$$

 OpenBabel03242513323D

 35 38  0  0  0  0  0  0  0  0999 V2000
   37.1360   27.7110   41.1890 C   0  0  0  0  0  0  0  0  0  0  0  0
   37.6240   26.4970   41.6510 C   0  0  0  0  0  0  0  0  0  0  0  0
   38.0990   26.4720   42.9290 C   0  0  0  0  0  0  0  0  0  0  0  0
   38.1020   27.5990   43.7430 C   0  0  0  0  0  0  0  0  0  0  0  0
   37.6170   28.7880   43.2730 C   0  0  0  0  0  0  0  0  0  0  0  0
   37.1260   28.8510   41.9770 C   0  0  0  0  0  0  0  0  0  0  0  0
   38.4770   25.4910   43.2630 H   0  0  0  0  0  0  0  0  0  0  0  0
   38.4970   27.4870   44.7400 H   0  0  0  0  0  0  0  0  0  0  0  0
   37.6140   29.6680   43.8970 H   0  0  0  0  0  0  0  0  0  0  0  0
   36.7920   23.1650   40.1240 C   0  0  0  0  0  0  0  0  0  0  0  0
   36.8100   24.2570   40.9870 C   0  0  0  0  0  0  0  0  0  0  0  0
   37.5970   25.3640   40.7690 C   0  0  0  0  0  0  0  0  0  0  0  0
   38.3570   25.3070   39.6420 N   0  0  0  0  0  0  0  0  0  0  0  0
   38.3470   24.2500   38.7990 C   0  0  0  0  0  0  0  0  0  0  0  0
   37.5610   23.1790   39.0450 N   0  0  0  0  0  0  0  0  0  0  0  0
   36.1570   22.3150   40.3310 H   0  0  0  0  0  0  0  0  0  0  0  0
   36.1750   24.2490   41.8850 H   0  0  0  0  0  0  0  0  0  0  0  0
   39.0210   24.3770   37.9440 H   0  0  0  0  0  0  0  0  0  0  0  0
   36.6450   27.7860   39.8990 O   0  0  0  0  0  0  0  0  0  0  0  0
   35.9360   28.4440   39.6560 H   0  0  0  0  0  0  0  0  0  0  0  0
   36.6210   30.0220   41.4320 O   0  0  0  0  0  0  0  0  0  0  0  0
   37.3350   31.0740   41.0120 C   0  0  0  0  0  0  0  0  0  0  0  0
   36.9510   32.1250   40.2060 C   0  0  0  0  0  0  0  0  0  0  0  0
   37.8710   33.0920   39.9080 C   0  0  0  0  0  0  0  0  0  0  0  0
   39.1730   32.9300   40.4640 C   0  0  0  0  0  0  0  0  0  0  0  0
   39.0530   31.3930   41.4070 S   0  0  0  0  0  0  0  0  0  0  0  0
   35.9440   32.1780   39.8210 H   0  0  0  0  0  0  0  0  0  0  0  0
   37.7150   33.9660   39.2940 H   0  0  0  0  0  0  0  0  0  0  0  0
   40.3050   33.7340   40.3360 N   0  0  0  0  0  0  0  0  0  0  0  0
   41.5970   33.0930   40.6340 C   0  0  0  0  0  2  0  0  0  0  0  0
   42.1090   32.6510   39.2550 C   0  0  0  0  0  2  0  0  0  0  0  0
   41.6850   33.7010   38.2550 C   0  0  0  0  0  3  0  0  0  0  0  0
   42.3790   33.7440   37.4210 H   0  0  0  0  0  0  0  0  0  0  0  0
   41.5720   35.0870   38.8670 C   0  0  0  0  0  2  0  0  0  0  0  0
   40.4860   35.1220   39.9480 C   0  0  0  0  0  2  0  0  0  0  0  0
  1  2  2  0  0  0  0
  1  6  1  0  0  0  0
  2  3  1  0  0  0  0
  3  7  1  0  0  0  0
  3  4  2  0  0  0  0
  4  8  1  0  0  0  0
  5  4  1  0  0  0  0
  5  9  1  0  0  0  0
  6  5  2  0  0  0  0
 10 16  1  0  0  0  0
 10 11  1  0  0  0  0
 11 17  1  0  0  0  0
 12 11  2  0  0  0  0
 12  2  1  0  0  0  0
 13 12  1  0  0  0  0
 14 15  1  0  0  0  0
 14 13  2  0  0  0  0
 15 10  2  0  0  0  0
 18 14  1  0  0  0  0
 19  1  1  0  0  0  0
 20 19  1  0  0  0  0
 21  6  1  0  0  0  0
 22 26  1  0  0  0  0
 22 21  1  0  0  0  0
 23 22  2  0  0  0  0
 24 23  1  0  0  0  0
 24 25  2  0  0  0  0
 25 26  1  0  0  0  0
 27 23  1  0  0  0  0
 28 24  1  0  0  0  0
 29 25  1  0  0  0  0
 29 30  1  0  0  0  0
 31 30  1  0  0  0  0
 32 34  1  0  0  0  0
 32 31  1  0  0  0  0
 33 32  1  0  0  0  0
 34 35  1  0  0  0  0
 35 29  1  0  0  0  0
M  END
>  <minimizedAffinity>
-5.99472141

$$$$

 OpenBabel03242513323D

 35 38  0  0  0  0  0  0  0  0999 V2000
   37.9770   26.4250   42.0550 C   0  0  0  0  0  0  0  0  0  0  0  0
   38.3820   25.1040   41.9310 C   0  0  0  0  0  0  0  0  0  0  0  0
   39.3530   24.6760   42.7870 C   0  0  0  0  0  0  0  0  0  0  0  0
   39.9210   25.5090   43.7440 C   0  0  0  0  0  0  0  0  0  0  0  0
   39.5110   26.8100   43.8540 C   0  0  0  0  0  0  0  0  0  0  0  0
   38.5250   27.2800   42.9990 C   0  0  0  0  0  0  0  0  0  0  0  0
   39.6500   23.6210   42.6610 H   0  0  0  0  0  0  0  0  0  0  0  0
   40.6830   25.0860   44.3780 H   0  0  0  0  0  0  0  0  0  0  0  0
   39.9450   27.4640   44.5930 H   0  0  0  0  0  0  0  0  0  0  0  0
   37.8600   22.8280   38.9860 C   0  0  0  0  0  0  0  0  0  0  0  0
   38.4720   23.6180   39.9550 C   0  0  0  0  0  0  0  0  0  0  0  0
   37.7620   24.2870   40.9260 C   0  0  0  0  0  0  0  0  0  0  0  0
   36.4150   24.1130   40.8650 N   0  0  0  0  0  0  0  0  0  0  0  0
   35.8120   23.3480   39.9270 C   0  0  0  0  0  0  0  0  0  0  0  0
   36.5410   22.7060   38.9880 N   0  0  0  0  0  0  0  0  0  0  0  0
   38.4550   22.3170   38.2410 H   0  0  0  0  0  0  0  0  0  0  0  0
   39.5670   23.7240   39.9570 H   0  0  0  0  0  0  0  0  0  0  0  0
   34.7210   23.3240   40.0300 H   0  0  0  0  0  0  0  0  0  0  0  0
   36.9960   26.9060   41.2080 O   0  0  0  0  0  0  0  0  0  0  0  0
   36.3890   27.6440   41.4910 H   0  0  0  0  0  0  0  0  0  0  0  0
   38.0610   28.5860   43.0510 O   0  0  0  0  0  0  0  0  0  0  0  0
   38.6270   29.6530   42.4710 C   0  0  0  0  0  0  0  0  0  0  0  0
   39.7150   30.3940   42.8800 C   0  0  0  0  0  0  0  0  0  0  0  0
   40.1090   31.4550   42.1130 C   0  0  0  0  0  0  0  0  0  0  0  0
   39.3490   31.7110   40.9350 C   0  0  0  0  0  0  0  0  0  0  0  0
   38.0820   30.4230   40.9490 S   0  0  0  0  0  0  0  0  0  0  0  0
   40.2400   30.1380   43.7870 H   0  0  0  0  0  0  0  0  0  0  0  0
   40.9360   32.1210   42.3070 H   0  0  0  0  0  0  0  0  0  0  0  0
   39.5010   32.7090   39.9730 N   0  0  0  0  0  0  0  0  0  0  0  0
   38.4570   33.7480   39.9390 C   0  0  0  0  0  2  0  0  0  0  0  0
   39.0450   34.8820   40.7920 C   0  0  0  0  0  2  0  0  0  0  0  0
   40.5360   34.9090   40.5460 C   0  0  0  0  0  3  0  0  0  0  0  0
   40.9320   35.9110   40.6830 H   0  0  0  0  0  0  0  0  0  0  0  0
   40.9130   34.4220   39.1560 C   0  0  0  0  0  2  0  0  0  0  0  0
   40.5170   32.9540   38.9630 C   0  0  0  0  0  2  0  0  0  0  0  0
  1  6  1  0  0  0  0
  2  1  2  0  0  0  0
  2  3  1  0  0  0  0
  3  4  2  0  0  0  0
  4  5  1  0  0  0  0
  4  8  1  0  0  0  0
  5  9  1  0  0  0  0
  6 21  1  0  0  0  0
  6  5  2  0  0  0  0
  7  3  1  0  0  0  0
 10 15  2  0  0  0  0
 10 11  1  0  0  0  0
 11 17  1  0  0  0  0
 11 12  2  0  0  0  0
 12  2  1  0  0  0  0
 13 12  1  0  0  0  0
 14 18  1  0  0  0  0
 14 13  2  0  0  0  0
 15 14  1  0  0  0  0
 16 10  1  0  0  0  0
 19 20  1  0  0  0  0
 19  1  1  0  0  0  0
 22 23  2  0  0  0  0
 22 21  1  0  0  0  0
 23 27  1  0  0  0  0
 24 28  1  0  0  0  0
 24 23  1  0  0  0  0
 25 26  1  0  0  0  0
 25 24  2  0  0  0  0
 26 22  1  0  0  0  0
 29 25  1  0  0  0  0
 30 29  1  0  0  0  0
 30 31  1  0  0  0  0
 32 33  1  0  0  0  0
 32 31  1  0  0  0  0
 34 32  1  0  0  0  0
 35 34  1  0  0  0  0
 35 29  1  0  0  0  0
M  END
>  <minimizedAffinity>
-5.94053936

$$$$

 OpenBabel03242513323D

 35 38  0  0  0  0  0  0  0  0999 V2000
   37.3120   27.8700   41.2860 C   0  0  0  0  0  0  0  0  0  0  0  0
   37.8380   26.6390   41.6500 C   0  0  0  0  0  0  0  0  0  0  0  0
   38.4710   26.5730   42.8570 C   0  0  0  0  0  0  0  0  0  0  0  0
   38.5930   27.6760   43.6930 C   0  0  0  0  0  0  0  0  0  0  0  0
   38.0700   28.8830   43.3200 C   0  0  0  0  0  0  0  0  0  0  0  0
   37.4180   28.9870   42.0990 C   0  0  0  0  0  0  0  0  0  0  0  0
   38.8750   25.5790   43.1140 H   0  0  0  0  0  0  0  0  0  0  0  0
   39.1100   27.5330   44.6280 H   0  0  0  0  0  0  0  0  0  0  0  0
   38.1580   29.7450   43.9620 H   0  0  0  0  0  0  0  0  0  0  0  0
   38.5180   24.0280   39.0330 C   0  0  0  0  0  0  0  0  0  0  0  0
   38.6800   25.1040   39.9010 C   0  0  0  0  0  0  0  0  0  0  0  0
   37.6830   25.5310   40.7490 C   0  0  0  0  0  0  0  0  0  0  0  0
   36.5270   24.8180   40.6710 N   0  0  0  0  0  0  0  0  0  0  0  0
   36.3620   23.7730   39.8290 C   0  0  0  0  0  0  0  0  0  0  0  0
   37.3620   23.3820   39.0110 N   0  0  0  0  0  0  0  0  0  0  0  0
   39.3280   23.7230   38.3840 H   0  0  0  0  0  0  0  0  0  0  0  0
   39.6360   25.6460   39.9230 H   0  0  0  0  0  0  0  0  0  0  0  0
   35.3660   23.3190   39.9020 H   0  0  0  0  0  0  0  0  0  0  0  0
   36.6620   27.9860   40.0720 O   0  0  0  0  0  0  0  0  0  0  0  0
   35.9380   28.6580   39.9380 H   0  0  0  0  0  0  0  0  0  0  0  0
   36.8650   30.1780   41.6540 O   0  0  0  0  0  0  0  0  0  0  0  0
   37.4830   31.1180   40.9270 C   0  0  0  0  0  0  0  0  0  0  0  0
   36.9460   32.0450   40.0580 C   0  0  0  0  0  0  0  0  0  0  0  0
   37.7900   32.9110   39.4200 C   0  0  0  0  0  0  0  0  0  0  0  0
   39.1790   32.7810   39.7120 C   0  0  0  0  0  0  0  0  0  0  0  0
   39.2480   31.4190   40.8980 S   0  0  0  0  0  0  0  0  0  0  0  0
   35.8810   32.0800   39.8880 H   0  0  0  0  0  0  0  0  0  0  0  0
   37.5160   33.6820   38.7180 H   0  0  0  0  0  0  0  0  0  0  0  0
   40.2660   33.5040   39.2200 N   0  0  0  0  0  0  0  0  0  0  0  0
   40.4020   34.8890   39.7050 C   0  0  0  0  0  2  0  0  0  0  0  0
   41.3830   34.7670   40.8810 C   0  0  0  0  0  2  0  0  0  0  0  0
   42.3870   33.6950   40.5250 C   0  0  0  0  0  3  0  0  0  0  0  0
   43.3390   33.8790   41.0130 H   0  0  0  0  0  0  0  0  0  0  0  0
   42.6230   33.5800   39.0280 C   0  0  0  0  0  2  0  0  0  0  0  0
   41.3390   33.1630   38.3010 C   0  0  0  0  0  2  0  0  0  0  0  0
  1  2  2  0  0  0  0
  1  6  1  0  0  0  0
  2  3  1  0  0  0  0
  3  7  1  0  0  0  0
  3  4  2  0  0  0  0
  4  8  1  0  0  0  0
  5  4  1  0  0  0  0
  5  9  1  0  0  0  0
  6  5  2  0  0  0  0
 10 11  1  0  0  0  0
 11 17  1  0  0  0  0
 11 12  2  0  0  0  0
 12  2  1  0  0  0  0
 13 12  1  0  0  0  0
 14 18  1  0  0  0  0
 14 13  2  0  0  0  0
 15 10  2  0  0  0  0
 15 14  1  0  0  0  0
 16 10  1  0  0  0  0
 19  1  1  0  0  0  0
 20 19  1  0  0  0  0
 21  6  1  0  0  0  0
 22 21  1  0  0  0  0
 23 22  2  0  0  0  0
 24 25  2  0  0  0  0
 24 23  1  0  0  0  0
 25 26  1  0  0  0  0
 26 22  1  0  0  0  0
 27 23  1  0  0  0  0
 28 24  1  0  0  0  0
 29 30  1  0  0  0  0
 29 25  1  0  0  0  0
 30 31  1  0  0  0  0
 32 31  1  0  0  0  0
 32 33  1  0  0  0  0
 34 32  1  0  0  0  0
 35 34  1  0  0  0  0
 35 29  1  0  0  0  0
M  END
>  <minimizedAffinity>
-5.61999559

$$$$

 OpenBabel03242513323D

 35 38  0  0  0  0  0  0  0  0999 V2000
   38.6270   30.4680   40.9970 C   0  0  0  0  0  0  0  0  0  0  0  0
   38.1000   31.6450   40.4850 C   0  0  0  0  0  0  0  0  0  0  0  0
   36.7500   31.6840   40.2980 C   0  0  0  0  0  0  0  0  0  0  0  0
   35.9260   30.6060   40.5990 C   0  0  0  0  0  0  0  0  0  0  0  0
   36.4600   29.4520   41.1040 C   0  0  0  0  0  0  0  0  0  0  0  0
   37.8310   29.3770   41.3080 C   0  0  0  0  0  0  0  0  0  0  0  0
   36.3650   32.6350   39.8900 H   0  0  0  0  0  0  0  0  0  0  0  0
   34.8690   30.7240   40.4190 H   0  0  0  0  0  0  0  0  0  0  0  0
   35.8300   28.6100   41.3420 H   0  0  0  0  0  0  0  0  0  0  0  0
   39.6970   35.0460   40.3880 C   0  0  0  0  0  0  0  0  0  0  0  0
   38.8220   34.0040   40.6800 C   0  0  0  0  0  0  0  0  0  0  0  0
   38.9950   32.7290   40.1910 C   0  0  0  0  0  0  0  0  0  0  0  0
   40.0900   32.5680   39.4000 N   0  0  0  0  0  0  0  0  0  0  0  0
   40.9450   33.5750   39.1110 C   0  0  0  0  0  0  0  0  0  0  0  0
   40.7430   34.8140   39.6080 N   0  0  0  0  0  0  0  0  0  0  0  0
   39.5270   36.0330   40.7940 H   0  0  0  0  0  0  0  0  0  0  0  0
   37.9510   34.1910   41.3250 H   0  0  0  0  0  0  0  0  0  0  0  0
   41.7690   33.2630   38.4590 H   0  0  0  0  0  0  0  0  0  0  0  0
   39.9900   30.3810   41.2040 O   0  0  0  0  0  0  0  0  0  0  0  0
   40.3660   29.7910   41.9140 H   0  0  0  0  0  0  0  0  0  0  0  0
   38.4430   28.2400   41.8140 O   0  0  0  0  0  0  0  0  0  0  0  0
   38.0100   26.9800   41.6800 C   0  0  0  0  0  0  0  0  0  0  0  0
   37.2710   26.2120   42.5550 C   0  0  0  0  0  0  0  0  0  0  0  0
   36.9480   24.9340   42.1940 C   0  0  0  0  0  0  0  0  0  0  0  0
   37.4120   24.4930   40.9200 C   0  0  0  0  0  0  0  0  0  0  0  0
   38.3010   25.9230   40.2640 S   0  0  0  0  0  0  0  0  0  0  0  0
   36.9570   26.6170   43.5050 H   0  0  0  0  0  0  0  0  0  0  0  0
   36.3800   24.2220   42.7720 H   0  0  0  0  0  0  0  0  0  0  0  0
   37.2500   23.2600   40.2890 N   0  0  0  0  0  0  0  0  0  0  0  0
   35.9940   23.0680   39.5440 C   0  0  0  0  0  2  0  0  0  0  0  0
   36.3690   23.4340   38.1000 C   0  0  0  0  0  2  0  0  0  0  0  0
   37.7870   22.9680   37.8670 C   0  0  0  0  0  3  0  0  0  0  0  0
   37.9500   22.7310   36.8210 H   0  0  0  0  0  0  0  0  0  0  0  0
   38.1550   21.7540   38.7040 C   0  0  0  0  0  2  0  0  0  0  0  0
   38.0960   22.0820   40.2010 C   0  0  0  0  0  2  0  0  0  0  0  0
  1 19  1  0  0  0  0
  1  6  1  0  0  0  0
  2  1  2  0  0  0  0
  3  2  1  0  0  0  0
  3  4  2  0  0  0  0
  4  5  1  0  0  0  0
  5  6  2  0  0  0  0
  5  9  1  0  0  0  0
  6 21  1  0  0  0  0
  7  3  1  0  0  0  0
  8  4  1  0  0  0  0
 10 11  1  0  0  0  0
 10 16  1  0  0  0  0
 11 17  1  0  0  0  0
 12  2  1  0  0  0  0
 12 11  2  0  0  0  0
 13 12  1  0  0  0  0
 14 13  2  0  0  0  0
 14 15  1  0  0  0  0
 15 10  2  0  0  0  0
 18 14  1  0  0  0  0
 19 20  1  0  0  0  0
 22 21  1  0  0  0  0
 22 23  2  0  0  0  0
 23 27  1  0  0  0  0
 24 23  1  0  0  0  0
 24 28  1  0  0  0  0
 25 24  2  0  0  0  0
 26 25  1  0  0  0  0
 26 22  1  0  0  0  0
 29 25  1  0  0  0  0
 30 29  1  0  0  0  0
 31 30  1  0  0  0  0
 32 31  1  0  0  0  0
 32 34  1  0  0  0  0
 33 32  1  0  0  0  0
 34 35  1  0  0  0  0
 35 29  1  0  0  0  0
M  END
>  <minimizedAffinity>
-5.60476685

$$$$

 OpenBabel03242513323D

 35 38  0  0  0  0  0  0  0  0999 V2000
   40.5370   33.0440   40.8690 C   0  0  0  0  0  0  0  0  0  0  0  0
   41.1420   34.2510   40.5530 C   0  0  0  0  0  0  0  0  0  0  0  0
   40.3190   35.2710   40.1750 C   0  0  0  0  0  0  0  0  0  0  0  0
   38.9390   35.1250   40.1030 C   0  0  0  0  0  0  0  0  0  0  0  0
   38.3570   33.9280   40.4180 C   0  0  0  0  0  0  0  0  0  0  0  0
   39.1630   32.8680   40.8070 C   0  0  0  0  0  0  0  0  0  0  0  0
   40.8340   36.2160   39.9320 H   0  0  0  0  0  0  0  0  0  0  0  0
   38.3660   35.9840   39.7940 H   0  0  0  0  0  0  0  0  0  0  0  0
   37.2870   33.8040   40.3660 H   0  0  0  0  0  0  0  0  0  0  0  0
   44.6080   35.0480   41.7700 C   0  0  0  0  0  0  0  0  0  0  0  0
   43.2210   34.9610   41.6930 C   0  0  0  0  0  0  0  0  0  0  0  0
   42.5720   34.3490   40.6450 C   0  0  0  0  0  0  0  0  0  0  0  0
   43.3940   33.8360   39.6900 N   0  0  0  0  0  0  0  0  0  0  0  0
   44.7420   33.9170   39.7570 C   0  0  0  0  0  0  0  0  0  0  0  0
   45.3450   34.5260   40.8010 N   0  0  0  0  0  0  0  0  0  0  0  0
   45.0790   35.5360   42.6130 H   0  0  0  0  0  0  0  0  0  0  0  0
   42.6040   35.3940   42.4930 H   0  0  0  0  0  0  0  0  0  0  0  0
   45.2420   33.4500   38.9000 H   0  0  0  0  0  0  0  0  0  0  0  0
   41.3300   31.9810   41.2570 O   0  0  0  0  0  0  0  0  0  0  0  0
   40.9810   31.2750   41.8690 H   0  0  0  0  0  0  0  0  0  0  0  0
   38.6440   31.6250   41.1390 O   0  0  0  0  0  0  0  0  0  0  0  0
   37.6370   30.9960   40.5210 C   0  0  0  0  0  0  0  0  0  0  0  0
   36.4380   30.5490   41.0360 C   0  0  0  0  0  0  0  0  0  0  0  0
   35.5570   29.9230   40.1980 C   0  0  0  0  0  0  0  0  0  0  0  0
   35.9590   29.7810   38.8380 C   0  0  0  0  0  0  0  0  0  0  0  0
   37.5930   30.5510   38.7860 S   0  0  0  0  0  0  0  0  0  0  0  0
   36.2060   30.6930   42.0800 H   0  0  0  0  0  0  0  0  0  0  0  0
   34.5900   29.5240   40.4590 H   0  0  0  0  0  0  0  0  0  0  0  0
   35.2890   29.1910   37.7670 N   0  0  0  0  0  0  0  0  0  0  0  0
   36.1270   28.7420   36.6410 C   0  0  0  0  0  2  0  0  0  0  0  0
   36.3650   27.2530   36.9380 C   0  0  0  0  0  2  0  0  0  0  0  0
   35.1030   26.7090   37.5670 C   0  0  0  0  0  3  0  0  0  0  0  0
   34.9910   25.6500   37.3550 H   0  0  0  0  0  0  0  0  0  0  0  0
   33.8520   27.4340   37.1030 C   0  0  0  0  0  2  0  0  0  0  0  0
   33.8860   28.9090   37.5190 C   0  0  0  0  0  2  0  0  0  0  0  0
  1 19  1  0  0  0  0
  2 12  1  0  0  0  0
  2  1  2  0  0  0  0
  3  2  1  0  0  0  0
  4  3  2  0  0  0  0
  4  5  1  0  0  0  0
  5  6  2  0  0  0  0
  6  1  1  0  0  0  0
  6 21  1  0  0  0  0
  7  3  1  0  0  0  0
  8  4  1  0  0  0  0
  9  5  1  0  0  0  0
 10 16  1  0  0  0  0
 11 10  1  0  0  0  0
 11 17  1  0  0  0  0
 12 11  2  0  0  0  0
 13 14  2  0  0  0  0
 13 12  1  0  0  0  0
 14 15  1  0  0  0  0
 15 10  2  0  0  0  0
 18 14  1  0  0  0  0
 19 20  1  0  0  0  0
 22 23  2  0  0  0  0
 22 21  1  0  0  0  0
 23 27  1  0  0  0  0
 24 28  1  0  0  0  0
 24 23  1  0  0  0  0
 25 24  2  0  0  0  0
 26 25  1  0  0  0  0
 26 22  1  0  0  0  0
 29 25  1  0  0  0  0
 30 31  1  0  0  0  0
 30 29  1  0  0  0  0
 31 32  1  0  0  0  0
 33 32  1  0  0  0  0
 34 35  1  0  0  0  0
 34 32  1  0  0  0  0
 35 29  1  0  0  0  0
M  END
>  <minimizedAffinity>
-5.58797312

$$$$
