
 OpenBabel03242511483D

 42 44  0  0  0  0  0  0  0  0999 V2000
   38.0820   29.1030   43.1940 C   0  0  0  0  0  0  0  0  0  0  0  0
   39.1490   29.2880   43.0130 H   0  0  0  0  0  0  0  0  0  0  0  0
   37.7390   29.8050   43.9760 H   0  0  0  0  0  0  0  0  0  0  0  0
   35.4490   28.8780   40.6540 C   0  0  0  0  0  0  0  0  0  0  0  0
   35.7640   29.9740   39.7980 C   0  0  0  0  0  0  0  0  0  0  0  0
   36.8600   30.7270   40.1400 C   0  0  0  0  0  0  0  0  0  0  0  0
   37.5730   30.4150   41.2310 N   0  0  0  0  0  0  0  0  0  0  0  0
   37.2350   29.3720   42.0060 C   0  0  0  0  0  0  0  0  0  0  0  0
   36.2060   28.6130   41.7420 N   0  0  0  0  0  0  0  0  0  0  0  0
   34.6080   28.2380   40.4580 H   0  0  0  0  0  0  0  0  0  0  0  0
   35.0980   30.1020   38.9530 H   0  0  0  0  0  0  0  0  0  0  0  0
   37.1770   31.8680   39.2420 C   0  0  0  0  0  0  0  0  0  0  0  0
   38.0630   31.5430   38.6320 H   0  0  0  0  0  0  0  0  0  0  0  0
   36.2970   31.9680   38.5620 H   0  0  0  0  0  0  0  0  0  0  0  0
   37.4370   33.1340   40.0130 C   0  0  0  0  0  0  0  0  0  0  0  0
   37.5270   32.8480   41.0730 H   0  0  0  0  0  0  0  0  0  0  0  0
   36.5820   33.8030   39.8160 H   0  0  0  0  0  0  0  0  0  0  0  0
   38.6420   33.7890   39.6310 N   0  0  0  0  0  0  0  0  0  0  0  0
   39.7720   32.9300   39.4130 C   0  0  0  0  0  2  0  0  0  0  0  0
   40.7120   33.1050   40.5940 C   0  0  0  0  0  2  0  0  0  0  0  0
   41.4000   34.4570   40.3820 C   0  0  0  0  0  3  0  0  0  0  0  0
   41.9990   34.6520   41.2990 H   0  0  0  0  0  0  0  0  0  0  0  0
   40.3270   35.4740   40.1250 C   0  0  0  0  0  2  0  0  0  0  0  0
   38.9300   34.9600   40.3950 C   0  0  0  0  0  2  0  0  0  0  0  0
   37.7910   27.7090   43.6830 C   0  0  0  0  0  0  0  0  0  0  0  0
   37.5240   27.7040   44.7770 H   0  0  0  0  0  0  0  0  0  0  0  0
   36.8660   27.2900   43.1960 H   0  0  0  0  0  0  0  0  0  0  0  0
   38.8920   26.7970   43.4570 C   0  0  0  0  0  0  0  0  0  0  0  0
   40.1630   26.8270   43.9830 C   0  0  0  0  0  0  0  0  0  0  0  0
   41.1300   25.9110   43.7070 C   0  0  0  0  0  0  0  0  0  0  0  0
   40.8170   24.8890   42.8500 C   0  0  0  0  0  0  0  0  0  0  0  0
   39.5490   24.8410   42.3120 C   0  0  0  0  0  0  0  0  0  0  0  0
   38.5860   25.7820   42.6060 C   0  0  0  0  0  0  0  0  0  0  0  0
   40.3560   27.6690   44.6650 H   0  0  0  0  0  0  0  0  0  0  0  0
   42.0850   26.0660   44.1930 H   0  0  0  0  0  0  0  0  0  0  0  0
   41.6300   24.1820   42.6630 H   0  0  0  0  0  0  0  0  0  0  0  0
   39.4690   23.9620   41.6500 H   0  0  0  0  0  0  0  0  0  0  0  0
   37.4350   25.7750   40.4820 C   0  0  0  0  0  0  0  0  0  0  0  0
   38.2280   26.3580   39.6360 O   0  0  0  0  0  0  0  0  0  0  0  0
   37.4000   25.4270   41.8740 N   0  0  0  0  0  0  0  0  0  0  0  0
   36.6290   25.5620   39.7610 H   0  0  0  0  0  0  0  0  0  0  0  0
   36.5160   24.9750   42.1150 H   0  0  0  0  0  0  0  0  0  0  0  0
  1 25  1  0  0  0  0
  1  3  1  0  0  0  0
  2  1  1  0  0  0  0
  4  9  1  0  0  0  0
  5  6  1  0  0  0  0
  5  4  2  0  0  0  0
  6  7  2  0  0  0  0
  7  8  1  0  0  0  0
  8  1  1  0  0  0  0
  9  8  2  0  0  0  0
 10  4  1  0  0  0  0
 11  5  1  0  0  0  0
 12 15  1  0  0  0  0
 12  6  1  0  0  0  0
 13 12  1  0  0  0  0
 14 12  1  0  0  0  0
 15 16  1  0  0  0  0
 17 15  1  0  0  0  0
 18 15  1  0  0  0  0
 18 24  1  0  0  0  0
 19 18  1  0  0  0  0
 19 20  1  0  0  0  0
 21 20  1  0  0  0  0
 21 22  1  0  0  0  0
 23 21  1  0  0  0  0
 23 24  1  0  0  0  0
 25 26  1  0  0  0  0
 27 25  1  0  0  0  0
 28 25  1  0  0  0  0
 28 29  1  0  0  0  0
 29 34  1  0  0  0  0
 30 29  2  0  0  0  0
 30 35  1  0  0  0  0
 31 30  1  0  0  0  0
 32 33  1  0  0  0  0
 32 31  2  0  0  0  0
 33 28  2  0  0  0  0
 36 31  1  0  0  0  0
 37 32  1  0  0  0  0
 38 40  1  0  0  0  0
 39 38  2  0  0  0  0
 40 42  1  0  0  0  0
 40 33  1  0  0  0  0
 41 38  1  0  0  0  0
M  END
>  <minimizedAffinity>
-6.04172754

$$$$

 OpenBabel03242511483D

 42 44  0  0  0  0  0  0  0  0999 V2000
   39.0730   26.8710   43.6950 C   0  0  0  0  0  0  0  0  0  0  0  0
   39.4560   25.8810   43.4140 H   0  0  0  0  0  0  0  0  0  0  0  0
   39.0660   26.9370   44.7990 H   0  0  0  0  0  0  0  0  0  0  0  0
   42.0010   28.8900   42.8090 C   0  0  0  0  0  0  0  0  0  0  0  0
   41.4030   30.0950   42.3380 C   0  0  0  0  0  0  0  0  0  0  0  0
   40.0310   30.1470   42.3500 C   0  0  0  0  0  0  0  0  0  0  0  0
   39.3240   29.0980   42.7910 N   0  0  0  0  0  0  0  0  0  0  0  0
   39.9360   27.9830   43.2260 C   0  0  0  0  0  0  0  0  0  0  0  0
   41.2360   27.8640   43.2420 N   0  0  0  0  0  0  0  0  0  0  0  0
   43.0680   28.7670   42.8340 H   0  0  0  0  0  0  0  0  0  0  0  0
   42.1000   30.8580   42.0140 H   0  0  0  0  0  0  0  0  0  0  0  0
   39.4180   31.4070   41.8540 C   0  0  0  0  0  0  0  0  0  0  0  0
   38.4100   31.4730   42.3440 H   0  0  0  0  0  0  0  0  0  0  0  0
   40.0590   32.2300   42.2520 H   0  0  0  0  0  0  0  0  0  0  0  0
   39.3350   31.4380   40.3510 C   0  0  0  0  0  0  0  0  0  0  0  0
   38.3940   30.9370   40.0740 H   0  0  0  0  0  0  0  0  0  0  0  0
   40.2310   30.9150   39.9760 H   0  0  0  0  0  0  0  0  0  0  0  0
   39.3050   32.7570   39.8160 N   0  0  0  0  0  0  0  0  0  0  0  0
   40.5020   33.1820   39.1470 C   0  0  0  0  0  2  0  0  0  0  0  0
   41.2090   34.1710   40.0580 C   0  0  0  0  0  2  0  0  0  0  0  0
   40.4090   35.4730   39.9580 C   0  0  0  0  0  3  0  0  0  0  0  0
   40.8440   36.1670   40.7120 H   0  0  0  0  0  0  0  0  0  0  0  0
   38.9660   35.1360   40.1980 C   0  0  0  0  0  2  0  0  0  0  0  0
   38.7510   33.7280   40.7050 C   0  0  0  0  0  2  0  0  0  0  0  0
   37.6660   27.1240   43.2200 C   0  0  0  0  0  0  0  0  0  0  0  0
   36.9260   27.0420   44.0660 H   0  0  0  0  0  0  0  0  0  0  0  0
   37.5370   28.1880   42.8750 H   0  0  0  0  0  0  0  0  0  0  0  0
   37.2690   26.2330   42.1510 C   0  0  0  0  0  0  0  0  0  0  0  0
   36.9470   24.8980   42.2120 C   0  0  0  0  0  0  0  0  0  0  0  0
   36.5780   24.1480   41.1380 C   0  0  0  0  0  0  0  0  0  0  0  0
   36.5250   24.7630   39.9160 C   0  0  0  0  0  0  0  0  0  0  0  0
   36.8440   26.1010   39.8340 C   0  0  0  0  0  0  0  0  0  0  0  0
   37.2160   26.8410   40.9360 C   0  0  0  0  0  0  0  0  0  0  0  0
   37.0070   24.4580   43.2190 H   0  0  0  0  0  0  0  0  0  0  0  0
   36.3550   23.1070   41.3390 H   0  0  0  0  0  0  0  0  0  0  0  0
   36.2240   24.1140   39.0880 H   0  0  0  0  0  0  0  0  0  0  0  0
   36.7490   26.4330   38.7860 H   0  0  0  0  0  0  0  0  0  0  0  0
   36.3270   29.0370   40.4620 C   0  0  0  0  0  0  0  0  0  0  0  0
   35.0550   28.9760   40.7100 O   0  0  0  0  0  0  0  0  0  0  0  0
   37.4790   28.1810   40.4860 N   0  0  0  0  0  0  0  0  0  0  0  0
   36.3400   30.0990   40.1700 H   0  0  0  0  0  0  0  0  0  0  0  0
   38.3120   28.6820   40.1700 H   0  0  0  0  0  0  0  0  0  0  0  0
  1  3  1  0  0  0  0
  2  1  1  0  0  0  0
  4 10  1  0  0  0  0
  4  9  1  0  0  0  0
  5  6  1  0  0  0  0
  5  4  2  0  0  0  0
  6  7  2  0  0  0  0
  7  8  1  0  0  0  0
  8  9  2  0  0  0  0
  8  1  1  0  0  0  0
 11  5  1  0  0  0  0
 12 14  1  0  0  0  0
 12 13  1  0  0  0  0
 12  6  1  0  0  0  0
 15 12  1  0  0  0  0
 16 15  1  0  0  0  0
 17 15  1  0  0  0  0
 18 15  1  0  0  0  0
 18 24  1  0  0  0  0
 19 18  1  0  0  0  0
 19 20  1  0  0  0  0
 21 20  1  0  0  0  0
 21 23  1  0  0  0  0
 21 22  1  0  0  0  0
 23 24  1  0  0  0  0
 25  1  1  0  0  0  0
 25 26  1  0  0  0  0
 27 25  1  0  0  0  0
 28 29  1  0  0  0  0
 28 25  1  0  0  0  0
 29 34  1  0  0  0  0
 30 35  1  0  0  0  0
 30 29  2  0  0  0  0
 31 30  1  0  0  0  0
 32 31  2  0  0  0  0
 32 33  1  0  0  0  0
 33 28  2  0  0  0  0
 36 31  1  0  0  0  0
 37 32  1  0  0  0  0
 38 40  1  0  0  0  0
 38 39  2  0  0  0  0
 40 33  1  0  0  0  0
 41 38  1  0  0  0  0
 42 40  1  0  0  0  0
M  END
>  <minimizedAffinity>
-5.71652126

$$$$

 OpenBabel03242511483D

 42 44  0  0  0  0  0  0  0  0999 V2000
   39.5470   30.8640   42.2640 C   0  0  0  0  0  0  0  0  0  0  0  0
   39.3350   31.7090   42.9330 H   0  0  0  0  0  0  0  0  0  0  0  0
   40.4980   30.4000   42.5870 H   0  0  0  0  0  0  0  0  0  0  0  0
   37.3610   28.1970   43.5060 C   0  0  0  0  0  0  0  0  0  0  0  0
   36.6210   27.8480   42.3390 C   0  0  0  0  0  0  0  0  0  0  0  0
   36.9130   28.5460   41.1930 C   0  0  0  0  0  0  0  0  0  0  0  0
   37.8540   29.5000   41.2110 N   0  0  0  0  0  0  0  0  0  0  0  0
   38.5250   29.7920   42.3380 C   0  0  0  0  0  0  0  0  0  0  0  0
   38.2990   29.1700   43.4630 N   0  0  0  0  0  0  0  0  0  0  0  0
   37.1960   27.6990   44.4440 H   0  0  0  0  0  0  0  0  0  0  0  0
   35.8950   27.0570   42.4750 H   0  0  0  0  0  0  0  0  0  0  0  0
   36.1340   28.1760   39.9830 C   0  0  0  0  0  0  0  0  0  0  0  0
   36.8820   28.0870   39.1500 H   0  0  0  0  0  0  0  0  0  0  0  0
   35.7170   27.1620   40.1930 H   0  0  0  0  0  0  0  0  0  0  0  0
   35.0510   29.1770   39.6840 C   0  0  0  0  0  0  0  0  0  0  0  0
   35.3910   30.1440   40.0880 H   0  0  0  0  0  0  0  0  0  0  0  0
   34.1340   28.8030   40.1710 H   0  0  0  0  0  0  0  0  0  0  0  0
   34.8060   29.3430   38.2920 N   0  0  0  0  0  0  0  0  0  0  0  0
   33.5720   28.7900   37.8090 C   0  0  0  0  0  2  0  0  0  0  0  0
   33.9100   27.5310   37.0280 C   0  0  0  0  0  2  0  0  0  0  0  0
   34.4900   28.0120   35.6940 C   0  0  0  0  0  3  0  0  0  0  0  0
   34.8530   27.1040   35.1640 H   0  0  0  0  0  0  0  0  0  0  0  0
   35.5660   29.0110   36.0040 C   0  0  0  0  0  2  0  0  0  0  0  0
   35.9390   29.0630   37.4690 C   0  0  0  0  0  2  0  0  0  0  0  0
   39.7120   31.2700   40.8230 C   0  0  0  0  0  0  0  0  0  0  0  0
   40.5790   30.7360   40.3420 H   0  0  0  0  0  0  0  0  0  0  0  0
   38.8340   30.9360   40.2020 H   0  0  0  0  0  0  0  0  0  0  0  0
   39.8830   32.6980   40.6620 C   0  0  0  0  0  0  0  0  0  0  0  0
   41.0420   33.4380   40.6700 C   0  0  0  0  0  0  0  0  0  0  0  0
   41.0930   34.7870   40.5030 C   0  0  0  0  0  0  0  0  0  0  0  0
   39.9120   35.4530   40.3130 C   0  0  0  0  0  0  0  0  0  0  0  0
   38.7390   34.7300   40.3020 C   0  0  0  0  0  0  0  0  0  0  0  0
   38.7110   33.3630   40.4740 C   0  0  0  0  0  0  0  0  0  0  0  0
   41.9590   32.8490   40.8250 H   0  0  0  0  0  0  0  0  0  0  0  0
   42.0790   35.2330   40.5350 H   0  0  0  0  0  0  0  0  0  0  0  0
   40.0110   36.5350   40.1840 H   0  0  0  0  0  0  0  0  0  0  0  0
   37.8910   35.4170   40.1380 H   0  0  0  0  0  0  0  0  0  0  0  0
   36.9410   32.3920   39.1480 C   0  0  0  0  0  0  0  0  0  0  0  0
   37.4510   32.1530   37.9790 O   0  0  0  0  0  0  0  0  0  0  0  0
   37.3370   32.9480   40.4110 N   0  0  0  0  0  0  0  0  0  0  0  0
   35.9360   32.0000   38.9210 H   0  0  0  0  0  0  0  0  0  0  0  0
   36.5530   32.9560   41.0670 H   0  0  0  0  0  0  0  0  0  0  0  0
  1  8  1  0  0  0  0
  1  3  1  0  0  0  0
  1  2  1  0  0  0  0
  4 10  1  0  0  0  0
  5 11  1  0  0  0  0
  5  4  2  0  0  0  0
  6  7  2  0  0  0  0
  6  5  1  0  0  0  0
  7  8  1  0  0  0  0
  8  9  2  0  0  0  0
  9  4  1  0  0  0  0
 12 14  1  0  0  0  0
 12  6  1  0  0  0  0
 13 12  1  0  0  0  0
 15 12  1  0  0  0  0
 15 16  1  0  0  0  0
 15 17  1  0  0  0  0
 18 15  1  0  0  0  0
 19 18  1  0  0  0  0
 20 19  1  0  0  0  0
 21 23  1  0  0  0  0
 21 20  1  0  0  0  0
 22 21  1  0  0  0  0
 23 24  1  0  0  0  0
 24 18  1  0  0  0  0
 25  1  1  0  0  0  0
 26 25  1  0  0  0  0
 27 25  1  0  0  0  0
 28 29  1  0  0  0  0
 28 25  1  0  0  0  0
 29 34  1  0  0  0  0
 30 35  1  0  0  0  0
 30 29  2  0  0  0  0
 31 30  1  0  0  0  0
 32 31  2  0  0  0  0
 32 33  1  0  0  0  0
 33 28  2  0  0  0  0
 36 31  1  0  0  0  0
 37 32  1  0  0  0  0
 38 40  1  0  0  0  0
 39 38  2  0  0  0  0
 40 33  1  0  0  0  0
 40 42  1  0  0  0  0
 41 38  1  0  0  0  0
M  END
>  <minimizedAffinity>
-5.70051622

$$$$

 OpenBabel03242511483D

 42 44  0  0  0  0  0  0  0  0999 V2000
   41.1740   30.8430   41.4110 C   0  0  0  0  0  0  0  0  0  0  0  0
   42.0650   31.4850   41.4320 H   0  0  0  0  0  0  0  0  0  0  0  0
   41.0460   30.4650   40.3790 H   0  0  0  0  0  0  0  0  0  0  0  0
   42.5530   28.2210   43.5690 C   0  0  0  0  0  0  0  0  0  0  0  0
   41.4060   27.4160   43.8330 C   0  0  0  0  0  0  0  0  0  0  0  0
   40.2270   27.8170   43.2560 C   0  0  0  0  0  0  0  0  0  0  0  0
   40.1950   28.9160   42.4900 N   0  0  0  0  0  0  0  0  0  0  0  0
   41.3040   29.6410   42.2710 C   0  0  0  0  0  0  0  0  0  0  0  0
   42.4590   29.3190   42.7880 N   0  0  0  0  0  0  0  0  0  0  0  0
   43.5150   27.9760   43.9810 H   0  0  0  0  0  0  0  0  0  0  0  0
   41.5840   26.5570   44.4690 H   0  0  0  0  0  0  0  0  0  0  0  0
   39.0370   26.9720   43.5400 C   0  0  0  0  0  0  0  0  0  0  0  0
   38.9680   26.2410   42.6900 H   0  0  0  0  0  0  0  0  0  0  0  0
   39.2850   26.4080   44.4710 H   0  0  0  0  0  0  0  0  0  0  0  0
   37.7880   27.7960   43.6980 C   0  0  0  0  0  0  0  0  0  0  0  0
   38.1030   28.8510   43.7190 H   0  0  0  0  0  0  0  0  0  0  0  0
   37.3120   27.4680   44.6380 H   0  0  0  0  0  0  0  0  0  0  0  0
   36.8660   27.6330   42.6260 N   0  0  0  0  0  0  0  0  0  0  0  0
   37.1350   26.5370   41.7380 C   0  0  0  0  0  2  0  0  0  0  0  0
   37.6760   27.1180   40.4430 C   0  0  0  0  0  2  0  0  0  0  0  0
   36.4660   27.7160   39.7190 C   0  0  0  0  0  3  0  0  0  0  0  0
   36.8660   28.2510   38.8290 H   0  0  0  0  0  0  0  0  0  0  0  0
   35.7480   28.6030   40.6940 C   0  0  0  0  0  2  0  0  0  0  0  0
   36.5250   28.8530   41.9680 C   0  0  0  0  0  2  0  0  0  0  0  0
   39.9070   31.5650   41.7860 C   0  0  0  0  0  0  0  0  0  0  0  0
   39.3670   31.0410   42.6240 H   0  0  0  0  0  0  0  0  0  0  0  0
   40.1300   32.5790   42.2250 H   0  0  0  0  0  0  0  0  0  0  0  0
   39.0050   31.7290   40.6660 C   0  0  0  0  0  0  0  0  0  0  0  0
   38.6260   30.8080   39.7190 C   0  0  0  0  0  0  0  0  0  0  0  0
   37.7610   31.0650   38.7010 C   0  0  0  0  0  0  0  0  0  0  0  0
   37.2310   32.3260   38.6150 C   0  0  0  0  0  0  0  0  0  0  0  0
   37.5990   33.2630   39.5540 C   0  0  0  0  0  0  0  0  0  0  0  0
   38.4790   32.9800   40.5770 C   0  0  0  0  0  0  0  0  0  0  0  0
   39.0820   29.8140   39.8390 H   0  0  0  0  0  0  0  0  0  0  0  0
   37.5580   30.2410   38.0290 H   0  0  0  0  0  0  0  0  0  0  0  0
   36.5430   32.4780   37.7780 H   0  0  0  0  0  0  0  0  0  0  0  0
   37.0840   34.2150   39.3380 H   0  0  0  0  0  0  0  0  0  0  0  0
   39.4720   35.1750   40.7500 C   0  0  0  0  0  0  0  0  0  0  0  0
   40.1860   35.3370   39.6780 O   0  0  0  0  0  0  0  0  0  0  0  0
   38.6350   34.1780   41.3560 N   0  0  0  0  0  0  0  0  0  0  0  0
   39.6880   36.1630   41.1870 H   0  0  0  0  0  0  0  0  0  0  0  0
   38.2850   34.4980   42.2610 H   0  0  0  0  0  0  0  0  0  0  0  0
  1  2  1  0  0  0  0
  1 25  1  0  0  0  0
  1  8  1  0  0  0  0
  3  1  1  0  0  0  0
  4  5  1  0  0  0  0
  4 10  1  0  0  0  0
  5 11  1  0  0  0  0
  6 12  1  0  0  0  0
  6  5  2  0  0  0  0
  7  6  1  0  0  0  0
  8  7  2  0  0  0  0
  8  9  1  0  0  0  0
  9  4  2  0  0  0  0
 12 15  1  0  0  0  0
 12 14  1  0  0  0  0
 13 12  1  0  0  0  0
 15 16  1  0  0  0  0
 15 17  1  0  0  0  0
 18 15  1  0  0  0  0
 19 18  1  0  0  0  0
 20 19  1  0  0  0  0
 21 20  1  0  0  0  0
 21 23  1  0  0  0  0
 22 21  1  0  0  0  0
 23 24  1  0  0  0  0
 24 18  1  0  0  0  0
 25 27  1  0  0  0  0
 25 26  1  0  0  0  0
 28 25  1  0  0  0  0
 29 34  1  0  0  0  0
 29 28  2  0  0  0  0
 30 29  1  0  0  0  0
 31 30  2  0  0  0  0
 31 32  1  0  0  0  0
 32 33  2  0  0  0  0
 33 28  1  0  0  0  0
 33 40  1  0  0  0  0
 35 30  1  0  0  0  0
 36 31  1  0  0  0  0
 37 32  1  0  0  0  0
 38 41  1  0  0  0  0
 38 40  1  0  0  0  0
 39 38  2  0  0  0  0
 40 42  1  0  0  0  0
M  END
>  <minimizedAffinity>
-5.69503784

$$$$

 OpenBabel03242511483D

 42 44  0  0  0  0  0  0  0  0999 V2000
   40.5810   30.8740   42.1090 C   0  0  0  0  0  0  0  0  0  0  0  0
   40.6320   31.7100   42.8190 H   0  0  0  0  0  0  0  0  0  0  0  0
   41.5670   30.3730   42.0960 H   0  0  0  0  0  0  0  0  0  0  0  0
   37.4440   29.1150   42.8120 C   0  0  0  0  0  0  0  0  0  0  0  0
   37.9070   27.8410   43.2530 C   0  0  0  0  0  0  0  0  0  0  0  0
   39.2680   27.6570   43.2850 C   0  0  0  0  0  0  0  0  0  0  0  0
   40.0860   28.6500   42.9120 N   0  0  0  0  0  0  0  0  0  0  0  0
   39.6000   29.8340   42.5040 C   0  0  0  0  0  0  0  0  0  0  0  0
   38.3190   30.0780   42.4480 N   0  0  0  0  0  0  0  0  0  0  0  0
   36.3950   29.3410   42.7590 H   0  0  0  0  0  0  0  0  0  0  0  0
   37.1290   27.1380   43.5240 H   0  0  0  0  0  0  0  0  0  0  0  0
   39.7390   26.3250   43.7440 C   0  0  0  0  0  0  0  0  0  0  0  0
   40.2890   26.5070   44.7060 H   0  0  0  0  0  0  0  0  0  0  0  0
   38.8150   25.7410   43.9690 H   0  0  0  0  0  0  0  0  0  0  0  0
   40.5940   25.6440   42.7090 C   0  0  0  0  0  0  0  0  0  0  0  0
   41.3200   25.0210   43.2550 H   0  0  0  0  0  0  0  0  0  0  0  0
   41.0700   26.4450   42.1170 H   0  0  0  0  0  0  0  0  0  0  0  0
   39.8540   24.7960   41.8370 N   0  0  0  0  0  0  0  0  0  0  0  0
   39.7630   25.2350   40.4740 C   0  0  0  0  0  2  0  0  0  0  0  0
   38.3530   25.7540   40.2530 C   0  0  0  0  0  2  0  0  0  0  0  0
   37.4630   24.5110   40.1590 C   0  0  0  0  0  3  0  0  0  0  0  0
   36.4130   24.8790   40.1200 H   0  0  0  0  0  0  0  0  0  0  0  0
   37.7640   23.6490   41.3500 C   0  0  0  0  0  2  0  0  0  0  0  0
   38.6220   24.3340   42.3910 C   0  0  0  0  0  2  0  0  0  0  0  0
   40.2790   31.3060   40.6980 C   0  0  0  0  0  0  0  0  0  0  0  0
   41.0410   30.9040   39.9720 H   0  0  0  0  0  0  0  0  0  0  0  0
   39.3160   30.8520   40.3300 H   0  0  0  0  0  0  0  0  0  0  0  0
   40.2010   32.7450   40.5590 C   0  0  0  0  0  0  0  0  0  0  0  0
   41.2210   33.6580   40.4320 C   0  0  0  0  0  0  0  0  0  0  0  0
   41.0380   35.0000   40.3010 C   0  0  0  0  0  0  0  0  0  0  0  0
   39.7520   35.4730   40.2950 C   0  0  0  0  0  0  0  0  0  0  0  0
   38.7160   34.5730   40.4210 C   0  0  0  0  0  0  0  0  0  0  0  0
   38.9260   33.2170   40.5530 C   0  0  0  0  0  0  0  0  0  0  0  0
   42.2310   33.2210   40.4430 H   0  0  0  0  0  0  0  0  0  0  0  0
   41.9370   35.5970   40.2130 H   0  0  0  0  0  0  0  0  0  0  0  0
   39.6630   36.5570   40.1880 H   0  0  0  0  0  0  0  0  0  0  0  0
   37.7570   35.1190   40.3970 H   0  0  0  0  0  0  0  0  0  0  0  0
   37.0670   32.1760   39.4150 C   0  0  0  0  0  0  0  0  0  0  0  0
   37.3520   32.2090   38.1490 O   0  0  0  0  0  0  0  0  0  0  0  0
   37.6370   32.5910   40.6650 N   0  0  0  0  0  0  0  0  0  0  0  0
   36.1000   31.6590   39.3060 H   0  0  0  0  0  0  0  0  0  0  0  0
   37.0130   32.3650   41.4420 H   0  0  0  0  0  0  0  0  0  0  0  0
  1  8  1  0  0  0  0
  1  2  1  0  0  0  0
  3  1  1  0  0  0  0
  4  5  1  0  0  0  0
  5  6  2  0  0  0  0
  5 11  1  0  0  0  0
  6 12  1  0  0  0  0
  7  6  1  0  0  0  0
  8  7  2  0  0  0  0
  9  8  1  0  0  0  0
  9  4  2  0  0  0  0
 10  4  1  0  0  0  0
 12 14  1  0  0  0  0
 12 13  1  0  0  0  0
 15 16  1  0  0  0  0
 15 12  1  0  0  0  0
 17 15  1  0  0  0  0
 18 24  1  0  0  0  0
 18 15  1  0  0  0  0
 19 18  1  0  0  0  0
 20 19  1  0  0  0  0
 21 20  1  0  0  0  0
 21 23  1  0  0  0  0
 22 21  1  0  0  0  0
 23 24  1  0  0  0  0
 25  1  1  0  0  0  0
 26 25  1  0  0  0  0
 27 25  1  0  0  0  0
 28 25  1  0  0  0  0
 29 34  1  0  0  0  0
 29 28  2  0  0  0  0
 30 29  1  0  0  0  0
 31 30  2  0  0  0  0
 31 32  1  0  0  0  0
 32 33  2  0  0  0  0
 33 28  1  0  0  0  0
 33 40  1  0  0  0  0
 35 30  1  0  0  0  0
 36 31  1  0  0  0  0
 37 32  1  0  0  0  0
 38 40  1  0  0  0  0
 39 38  2  0  0  0  0
 40 42  1  0  0  0  0
 41 38  1  0  0  0  0
M  END
>  <minimizedAffinity>
-5.66461706

$$$$

 OpenBabel03242511483D

 42 44  0  0  0  0  0  0  0  0999 V2000
   34.8110   28.9610   39.6000 C   0  0  0  0  0  0  0  0  0  0  0  0
   34.3980   29.8400   40.1130 H   0  0  0  0  0  0  0  0  0  0  0  0
   34.2860   28.0640   39.9770 H   0  0  0  0  0  0  0  0  0  0  0  0
   35.3540   28.9210   35.9760 C   0  0  0  0  0  0  0  0  0  0  0  0
   34.0250   29.0270   35.4720 C   0  0  0  0  0  0  0  0  0  0  0  0
   33.0190   29.1070   36.4030 C   0  0  0  0  0  0  0  0  0  0  0  0
   33.3110   29.0830   37.7100 N   0  0  0  0  0  0  0  0  0  0  0  0
   34.5820   28.9820   38.1350 C   0  0  0  0  0  0  0  0  0  0  0  0
   35.5880   28.9010   37.3070 N   0  0  0  0  0  0  0  0  0  0  0  0
   36.2000   28.8550   35.3150 H   0  0  0  0  0  0  0  0  0  0  0  0
   33.9420   29.0360   34.3920 H   0  0  0  0  0  0  0  0  0  0  0  0
   31.6370   29.2160   35.8660 C   0  0  0  0  0  0  0  0  0  0  0  0
   31.6210   28.5990   34.9280 H   0  0  0  0  0  0  0  0  0  0  0  0
   30.9810   28.7230   36.6240 H   0  0  0  0  0  0  0  0  0  0  0  0
   31.2380   30.6470   35.6260 C   0  0  0  0  0  0  0  0  0  0  0  0
   32.0510   31.2750   36.0250 H   0  0  0  0  0  0  0  0  0  0  0  0
   30.2780   30.7990   36.1470 H   0  0  0  0  0  0  0  0  0  0  0  0
   31.0760   30.9620   34.2470 N   0  0  0  0  0  0  0  0  0  0  0  0
   30.9130   32.3560   33.9440 C   0  0  0  0  0  2  0  0  0  0  0  0
   29.4520   32.5790   33.5900 C   0  0  0  0  0  2  0  0  0  0  0  0
   29.2760   32.0100   32.1790 C   0  0  0  0  0  3  0  0  0  0  0  0
   28.1860   32.0560   31.9560 H   0  0  0  0  0  0  0  0  0  0  0  0
   29.8410   30.6200   32.1790 C   0  0  0  0  0  2  0  0  0  0  0  0
   30.1680   30.1000   33.5610 C   0  0  0  0  0  2  0  0  0  0  0  0
   36.2820   28.7590   39.8520 C   0  0  0  0  0  0  0  0  0  0  0  0
   36.8750   28.8140   38.8950 H   0  0  0  0  0  0  0  0  0  0  0  0
   36.7110   29.6040   40.4620 H   0  0  0  0  0  0  0  0  0  0  0  0
   36.5680   27.5080   40.5200 C   0  0  0  0  0  0  0  0  0  0  0  0
   36.6650   26.2440   39.9860 C   0  0  0  0  0  0  0  0  0  0  0  0
   36.9450   25.1250   40.7070 C   0  0  0  0  0  0  0  0  0  0  0  0
   37.1450   25.2660   42.0540 C   0  0  0  0  0  0  0  0  0  0  0  0
   37.0520   26.5240   42.6090 C   0  0  0  0  0  0  0  0  0  0  0  0
   36.7660   27.6440   41.8580 C   0  0  0  0  0  0  0  0  0  0  0  0
   36.4950   26.1930   38.8990 H   0  0  0  0  0  0  0  0  0  0  0  0
   36.9860   24.1980   40.1490 H   0  0  0  0  0  0  0  0  0  0  0  0
   37.3660   24.3360   42.5850 H   0  0  0  0  0  0  0  0  0  0  0  0
   37.2400   26.4570   43.6940 H   0  0  0  0  0  0  0  0  0  0  0  0
   38.0360   29.3180   43.0500 C   0  0  0  0  0  0  0  0  0  0  0  0
   39.2840   29.0970   42.7690 O   0  0  0  0  0  0  0  0  0  0  0  0
   36.7440   28.7690   42.7530 N   0  0  0  0  0  0  0  0  0  0  0  0
   38.2130   30.1940   43.6950 H   0  0  0  0  0  0  0  0  0  0  0  0
   36.0080   29.2830   43.2420 H   0  0  0  0  0  0  0  0  0  0  0  0
  1 25  1  0  0  0  0
  1  3  1  0  0  0  0
  1  2  1  0  0  0  0
  4  9  1  0  0  0  0
  5  4  2  0  0  0  0
  5  6  1  0  0  0  0
  6  7  2  0  0  0  0
  7  8  1  0  0  0  0
  8  1  1  0  0  0  0
  9  8  2  0  0  0  0
 10  4  1  0  0  0  0
 11  5  1  0  0  0  0
 12  6  1  0  0  0  0
 12 14  1  0  0  0  0
 13 12  1  0  0  0  0
 15 12  1  0  0  0  0
 15 16  1  0  0  0  0
 15 17  1  0  0  0  0
 18 15  1  0  0  0  0
 19 18  1  0  0  0  0
 20 19  1  0  0  0  0
 21 20  1  0  0  0  0
 22 21  1  0  0  0  0
 23 21  1  0  0  0  0
 23 24  1  0  0  0  0
 24 18  1  0  0  0  0
 25 27  1  0  0  0  0
 25 28  1  0  0  0  0
 26 25  1  0  0  0  0
 28 33  1  0  0  0  0
 29 28  2  0  0  0  0
 29 30  1  0  0  0  0
 30 31  2  0  0  0  0
 31 36  1  0  0  0  0
 31 32  1  0  0  0  0
 32 37  1  0  0  0  0
 33 32  2  0  0  0  0
 33 40  1  0  0  0  0
 34 29  1  0  0  0  0
 35 30  1  0  0  0  0
 38 41  1  0  0  0  0
 39 38  2  0  0  0  0
 40 38  1  0  0  0  0
 40 42  1  0  0  0  0
M  END
>  <minimizedAffinity>
-5.51069546

$$$$

 OpenBabel03242511483D

 42 44  0  0  0  0  0  0  0  0999 V2000
   37.3890   25.4010   39.8080 C   0  0  0  0  0  0  0  0  0  0  0  0
   37.3210   24.4210   39.3160 H   0  0  0  0  0  0  0  0  0  0  0  0
   38.4460   25.7270   39.7800 H   0  0  0  0  0  0  0  0  0  0  0  0
   35.0350   27.1210   37.5880 C   0  0  0  0  0  0  0  0  0  0  0  0
   35.2700   28.4910   37.9060 C   0  0  0  0  0  0  0  0  0  0  0  0
   36.2210   28.7470   38.8620 C   0  0  0  0  0  0  0  0  0  0  0  0
   36.8750   27.7330   39.4450 N   0  0  0  0  0  0  0  0  0  0  0  0
   36.6180   26.4570   39.1100 C   0  0  0  0  0  0  0  0  0  0  0  0
   35.7260   26.1410   38.2100 N   0  0  0  0  0  0  0  0  0  0  0  0
   34.3080   26.8340   36.8500 H   0  0  0  0  0  0  0  0  0  0  0  0
   34.6670   29.2010   37.3530 H   0  0  0  0  0  0  0  0  0  0  0  0
   36.4560   30.1780   39.1870 C   0  0  0  0  0  0  0  0  0  0  0  0
   35.6110   30.7450   38.7120 H   0  0  0  0  0  0  0  0  0  0  0  0
   36.3540   30.2550   40.2960 H   0  0  0  0  0  0  0  0  0  0  0  0
   37.8060   30.6470   38.7140 C   0  0  0  0  0  0  0  0  0  0  0  0
   37.6560   31.0980   37.7200 H   0  0  0  0  0  0  0  0  0  0  0  0
   38.4580   29.7570   38.6920 H   0  0  0  0  0  0  0  0  0  0  0  0
   38.3880   31.6320   39.5610 N   0  0  0  0  0  0  0  0  0  0  0  0
   37.4610   32.4300   40.3130 C   0  0  0  0  0  2  0  0  0  0  0  0
   37.4210   33.8080   39.6760 C   0  0  0  0  0  2  0  0  0  0  0  0
   38.7210   34.4990   40.0970 C   0  0  0  0  0  3  0  0  0  0  0  0
   38.7610   35.4610   39.5390 H   0  0  0  0  0  0  0  0  0  0  0  0
   39.8520   33.5640   39.7840 C   0  0  0  0  0  2  0  0  0  0  0  0
   39.4390   32.3760   38.9430 C   0  0  0  0  0  2  0  0  0  0  0  0
   36.9660   25.3740   41.2530 C   0  0  0  0  0  0  0  0  0  0  0  0
   36.1510   26.1240   41.4570 H   0  0  0  0  0  0  0  0  0  0  0  0
   36.4780   24.3930   41.5170 H   0  0  0  0  0  0  0  0  0  0  0  0
   38.0670   25.6070   42.1620 C   0  0  0  0  0  0  0  0  0  0  0  0
   39.1740   24.8260   42.4000 C   0  0  0  0  0  0  0  0  0  0  0  0
   40.1620   25.1420   43.2800 C   0  0  0  0  0  0  0  0  0  0  0  0
   40.0480   26.3170   43.9750 C   0  0  0  0  0  0  0  0  0  0  0  0
   38.9460   27.1140   43.7510 C   0  0  0  0  0  0  0  0  0  0  0  0
   37.9570   26.7720   42.8550 C   0  0  0  0  0  0  0  0  0  0  0  0
   39.2120   23.8960   41.8130 H   0  0  0  0  0  0  0  0  0  0  0  0
   40.9720   24.4280   43.3630 H   0  0  0  0  0  0  0  0  0  0  0  0
   40.8690   26.5210   44.6680 H   0  0  0  0  0  0  0  0  0  0  0  0
   39.0140   28.0130   44.3880 H   0  0  0  0  0  0  0  0  0  0  0  0
   37.4850   29.1260   42.5860 C   0  0  0  0  0  0  0  0  0  0  0  0
   38.6180   29.6950   42.3090 O   0  0  0  0  0  0  0  0  0  0  0  0
   36.9710   27.8190   42.8820 N   0  0  0  0  0  0  0  0  0  0  0  0
   36.8760   30.0430   42.5370 H   0  0  0  0  0  0  0  0  0  0  0  0
   35.9670   27.8550   43.0670 H   0  0  0  0  0  0  0  0  0  0  0  0
  1 25  1  0  0  0  0
  2  1  1  0  0  0  0
  3  1  1  0  0  0  0
  4  5  2  0  0  0  0
  4  9  1  0  0  0  0
  5  6  1  0  0  0  0
  6 12  1  0  0  0  0
  6  7  2  0  0  0  0
  8  7  1  0  0  0  0
  8  1  1  0  0  0  0
  9  8  2  0  0  0  0
 10  4  1  0  0  0  0
 11  5  1  0  0  0  0
 12 14  1  0  0  0  0
 13 12  1  0  0  0  0
 15 12  1  0  0  0  0
 15 18  1  0  0  0  0
 16 15  1  0  0  0  0
 17 15  1  0  0  0  0
 18 19  1  0  0  0  0
 20 21  1  0  0  0  0
 20 19  1  0  0  0  0
 22 21  1  0  0  0  0
 23 21  1  0  0  0  0
 24 18  1  0  0  0  0
 24 23  1  0  0  0  0
 25 26  1  0  0  0  0
 25 27  1  0  0  0  0
 25 28  1  0  0  0  0
 28 29  2  0  0  0  0
 28 33  1  0  0  0  0
 29 30  1  0  0  0  0
 30 35  1  0  0  0  0
 30 31  2  0  0  0  0
 31 36  1  0  0  0  0
 32 31  1  0  0  0  0
 32 37  1  0  0  0  0
 33 40  1  0  0  0  0
 33 32  2  0  0  0  0
 34 29  1  0  0  0  0
 38 40  1  0  0  0  0
 39 38  2  0  0  0  0
 40 42  1  0  0  0  0
 41 38  1  0  0  0  0
M  END
>  <minimizedAffinity>
-5.50787115

$$$$

 OpenBabel03242511483D

 42 44  0  0  0  0  0  0  0  0999 V2000
   37.9200   29.1670   39.2390 C   0  0  0  0  0  0  0  0  0  0  0  0
   38.0440   28.8590   38.1920 H   0  0  0  0  0  0  0  0  0  0  0  0
   38.7340   28.7070   39.8310 H   0  0  0  0  0  0  0  0  0  0  0  0
   37.1990   32.7580   39.3380 C   0  0  0  0  0  0  0  0  0  0  0  0
   38.4200   33.2950   39.8420 C   0  0  0  0  0  0  0  0  0  0  0  0
   39.4200   32.3970   40.1180 C   0  0  0  0  0  0  0  0  0  0  0  0
   39.2210   31.0880   39.9120 N   0  0  0  0  0  0  0  0  0  0  0  0
   38.0510   30.6310   39.4350 C   0  0  0  0  0  0  0  0  0  0  0  0
   37.0570   31.4280   39.1500 N   0  0  0  0  0  0  0  0  0  0  0  0
   36.3660   33.3930   39.0950 H   0  0  0  0  0  0  0  0  0  0  0  0
   38.4350   34.3730   39.9560 H   0  0  0  0  0  0  0  0  0  0  0  0
   40.6870   32.9680   40.6450 C   0  0  0  0  0  0  0  0  0  0  0  0
   40.6360   32.8540   41.7610 H   0  0  0  0  0  0  0  0  0  0  0  0
   41.4980   32.3050   40.2580 H   0  0  0  0  0  0  0  0  0  0  0  0
   40.8800   34.3980   40.2170 C   0  0  0  0  0  0  0  0  0  0  0  0
   40.8730   35.0080   41.1340 H   0  0  0  0  0  0  0  0  0  0  0  0
   40.0480   34.6360   39.5320 H   0  0  0  0  0  0  0  0  0  0  0  0
   42.1150   34.6240   39.5470 N   0  0  0  0  0  0  0  0  0  0  0  0
   42.0330   34.7540   38.1200 C   0  0  0  0  0  2  0  0  0  0  0  0
   42.5800   33.4740   37.5110 C   0  0  0  0  0  2  0  0  0  0  0  0
   44.1020   33.5580   37.6670 C   0  0  0  0  0  3  0  0  0  0  0  0
   44.5060   32.5750   37.3360 H   0  0  0  0  0  0  0  0  0  0  0  0
   44.3910   33.8860   39.1020 C   0  0  0  0  0  2  0  0  0  0  0  0
   43.1790   33.7860   40.0020 C   0  0  0  0  0  2  0  0  0  0  0  0
   36.6160   28.7170   39.8430 C   0  0  0  0  0  0  0  0  0  0  0  0
   36.1850   29.5040   40.5240 H   0  0  0  0  0  0  0  0  0  0  0  0
   35.8190   28.6020   39.0540 H   0  0  0  0  0  0  0  0  0  0  0  0
   36.7370   27.4720   40.5700 C   0  0  0  0  0  0  0  0  0  0  0  0
   36.7630   26.1860   40.0860 C   0  0  0  0  0  0  0  0  0  0  0  0
   36.8860   25.0750   40.8620 C   0  0  0  0  0  0  0  0  0  0  0  0
   36.9920   25.2500   42.2160 C   0  0  0  0  0  0  0  0  0  0  0  0
   36.9680   26.5310   42.7220 C   0  0  0  0  0  0  0  0  0  0  0  0
   36.8420   27.6420   41.9160 C   0  0  0  0  0  0  0  0  0  0  0  0
   36.6750   26.1070   38.9910 H   0  0  0  0  0  0  0  0  0  0  0  0
   36.8880   24.1270   40.3390 H   0  0  0  0  0  0  0  0  0  0  0  0
   37.0880   24.3250   42.7920 H   0  0  0  0  0  0  0  0  0  0  0  0
   37.0640   26.4890   43.8210 H   0  0  0  0  0  0  0  0  0  0  0  0
   38.1520   29.3420   43.0230 C   0  0  0  0  0  0  0  0  0  0  0  0
   39.3920   29.0960   42.7270 O   0  0  0  0  0  0  0  0  0  0  0  0
   36.8480   28.7970   42.7700 N   0  0  0  0  0  0  0  0  0  0  0  0
   38.3510   30.2370   43.6340 H   0  0  0  0  0  0  0  0  0  0  0  0
   36.1280   29.3380   43.2540 H   0  0  0  0  0  0  0  0  0  0  0  0
  1  8  1  0  0  0  0
  1  3  1  0  0  0  0
  1 25  1  0  0  0  0
  2  1  1  0  0  0  0
  4  5  1  0  0  0  0
  5 11  1  0  0  0  0
  5  6  2  0  0  0  0
  6 12  1  0  0  0  0
  7  6  1  0  0  0  0
  8  7  2  0  0  0  0
  9  4  2  0  0  0  0
  9  8  1  0  0  0  0
 10  4  1  0  0  0  0
 12 13  1  0  0  0  0
 14 12  1  0  0  0  0
 15 12  1  0  0  0  0
 15 16  1  0  0  0  0
 17 15  1  0  0  0  0
 18 24  1  0  0  0  0
 18 15  1  0  0  0  0
 19 18  1  0  0  0  0
 20 21  1  0  0  0  0
 20 19  1  0  0  0  0
 21 23  1  0  0  0  0
 22 21  1  0  0  0  0
 23 24  1  0  0  0  0
 25 26  1  0  0  0  0
 25 28  1  0  0  0  0
 27 25  1  0  0  0  0
 28 33  1  0  0  0  0
 29 28  2  0  0  0  0
 29 30  1  0  0  0  0
 30 31  2  0  0  0  0
 31 32  1  0  0  0  0
 31 36  1  0  0  0  0
 32 37  1  0  0  0  0
 33 32  2  0  0  0  0
 33 40  1  0  0  0  0
 34 29  1  0  0  0  0
 35 30  1  0  0  0  0
 38 41  1  0  0  0  0
 39 38  2  0  0  0  0
 40 38  1  0  0  0  0
 40 42  1  0  0  0  0
M  END
>  <minimizedAffinity>
-5.47608995

$$$$

 OpenBabel03242511483D

 42 44  0  0  0  0  0  0  0  0999 V2000
   37.2860   31.5850   40.4430 C   0  0  0  0  0  0  0  0  0  0  0  0
   36.5910   31.6390   41.2920 H   0  0  0  0  0  0  0  0  0  0  0  0
   36.6930   31.6330   39.5100 H   0  0  0  0  0  0  0  0  0  0  0  0
   38.6800   34.9460   40.0150 C   0  0  0  0  0  0  0  0  0  0  0  0
   40.0560   34.7420   40.3270 C   0  0  0  0  0  0  0  0  0  0  0  0
   40.4280   33.4650   40.6660 C   0  0  0  0  0  0  0  0  0  0  0  0
   39.5130   32.4860   40.6910 N   0  0  0  0  0  0  0  0  0  0  0  0
   38.2270   32.7290   40.3880 C   0  0  0  0  0  0  0  0  0  0  0  0
   37.8040   33.9190   40.0570 N   0  0  0  0  0  0  0  0  0  0  0  0
   38.3070   35.9160   39.7380 H   0  0  0  0  0  0  0  0  0  0  0  0
   40.6780   35.6270   40.2630 H   0  0  0  0  0  0  0  0  0  0  0  0
   41.8640   33.2640   40.9920 C   0  0  0  0  0  0  0  0  0  0  0  0
   41.9450   33.3680   42.1070 H   0  0  0  0  0  0  0  0  0  0  0  0
   42.0880   32.2050   40.7180 H   0  0  0  0  0  0  0  0  0  0  0  0
   42.7480   34.2340   40.2540 C   0  0  0  0  0  0  0  0  0  0  0  0
   42.1050   35.0660   39.9290 H   0  0  0  0  0  0  0  0  0  0  0  0
   43.1930   33.6760   39.4130 H   0  0  0  0  0  0  0  0  0  0  0  0
   43.7890   34.7720   41.0610 N   0  0  0  0  0  0  0  0  0  0  0  0
   45.0440   34.0770   40.9990 C   0  0  0  0  0  2  0  0  0  0  0  0
   45.2040   33.3020   42.2960 C   0  0  0  0  0  2  0  0  0  0  0  0
   45.5640   34.3430   43.3600 C   0  0  0  0  0  3  0  0  0  0  0  0
   45.5640   33.8070   44.3360 H   0  0  0  0  0  0  0  0  0  0  0  0
   44.5540   35.4490   43.2700 C   0  0  0  0  0  2  0  0  0  0  0  0
   43.3740   35.1200   42.3830 C   0  0  0  0  0  2  0  0  0  0  0  0
   38.0820   30.3070   40.4040 C   0  0  0  0  0  0  0  0  0  0  0  0
   37.9890   29.7950   39.4050 H   0  0  0  0  0  0  0  0  0  0  0  0
   39.1870   30.5130   40.4800 H   0  0  0  0  0  0  0  0  0  0  0  0
   37.7050   29.3820   41.4520 C   0  0  0  0  0  0  0  0  0  0  0  0
   37.9670   29.4470   42.7990 C   0  0  0  0  0  0  0  0  0  0  0  0
   37.5600   28.5190   43.7070 C   0  0  0  0  0  0  0  0  0  0  0  0
   36.8390   27.4490   43.2480 C   0  0  0  0  0  0  0  0  0  0  0  0
   36.5660   27.3650   41.9000 C   0  0  0  0  0  0  0  0  0  0  0  0
   36.9900   28.3170   40.9990 C   0  0  0  0  0  0  0  0  0  0  0  0
   38.5490   30.3290   43.1100 H   0  0  0  0  0  0  0  0  0  0  0  0
   37.8440   28.7030   44.7360 H   0  0  0  0  0  0  0  0  0  0  0  0
   36.5380   26.7340   44.0190 H   0  0  0  0  0  0  0  0  0  0  0  0
   35.9820   26.4490   41.7050 H   0  0  0  0  0  0  0  0  0  0  0  0
   35.2650   28.4560   39.3130 C   0  0  0  0  0  0  0  0  0  0  0  0
   34.3380   29.2220   39.8030 O   0  0  0  0  0  0  0  0  0  0  0  0
   36.5360   27.9110   39.6970 N   0  0  0  0  0  0  0  0  0  0  0  0
   34.7700   28.2760   38.3460 H   0  0  0  0  0  0  0  0  0  0  0  0
   36.9120   27.3100   38.9600 H   0  0  0  0  0  0  0  0  0  0  0  0
  1  2  1  0  0  0  0
  3  1  1  0  0  0  0
  4  9  2  0  0  0  0
  4  5  1  0  0  0  0
  5  6  2  0  0  0  0
  6  7  1  0  0  0  0
  6 12  1  0  0  0  0
  8  1  1  0  0  0  0
  8  7  2  0  0  0  0
  9  8  1  0  0  0  0
 10  4  1  0  0  0  0
 11  5  1  0  0  0  0
 12 13  1  0  0  0  0
 14 12  1  0  0  0  0
 15 12  1  0  0  0  0
 15 18  1  0  0  0  0
 16 15  1  0  0  0  0
 17 15  1  0  0  0  0
 18 24  1  0  0  0  0
 19 18  1  0  0  0  0
 19 20  1  0  0  0  0
 20 21  1  0  0  0  0
 21 22  1  0  0  0  0
 23 21  1  0  0  0  0
 24 23  1  0  0  0  0
 25  1  1  0  0  0  0
 25 27  1  0  0  0  0
 25 28  1  0  0  0  0
 26 25  1  0  0  0  0
 28 29  1  0  0  0  0
 29 34  1  0  0  0  0
 29 30  2  0  0  0  0
 30 35  1  0  0  0  0
 31 30  1  0  0  0  0
 31 36  1  0  0  0  0
 32 31  2  0  0  0  0
 33 28  2  0  0  0  0
 33 32  1  0  0  0  0
 37 32  1  0  0  0  0
 38 40  1  0  0  0  0
 38 39  2  0  0  0  0
 40 33  1  0  0  0  0
 41 38  1  0  0  0  0
 42 40  1  0  0  0  0
M  END
>  <minimizedAffinity>
-5.47154236

$$$$
