
 OpenBabel03252500413D

 26 28  0  0  1  0  0  0  0  0999 V2000
   47.6690   35.0960   41.8190 C   0  0  1  0  0  0  0  0  0  0  0  0
   49.1440   34.6820   41.8070 C   0  0  0  0  0  0  0  0  0  0  0  0
   48.4000   34.9740   40.5410 C   0  0  1  0  0  0  0  0  0  0  0  0
   47.5860   36.1540   42.1430 H   0  0  0  0  0  0  0  0  0  0  0  0
   49.3840   33.5940   41.9520 H   0  0  0  0  0  0  0  0  0  0  0  0
   49.9200   35.3720   42.1300 H   0  0  0  0  0  0  0  0  0  0  0  0
   48.6760   35.9080   39.9760 H   0  0  0  0  0  0  0  0  0  0  0  0
   48.0190   33.9330   39.6070 N   0  0  0  0  0  0  0  0  0  0  0  0
   48.9740   32.8360   39.8760 C   0  0  0  0  0  0  0  0  0  0  0  0
   48.8510   31.7640   38.8240 C   0  0  0  0  0  0  0  0  0  0  0  0
   49.1720   32.3610   37.4710 C   0  0  0  0  0  0  0  0  0  0  0  0
   49.2420   31.6270   36.6700 H   0  0  0  0  0  0  0  0  0  0  0  0
   48.0930   33.4240   37.2200 C   0  0  0  0  0  0  0  0  0  0  0  0
   48.3400   34.4730   38.2800 C   0  0  0  0  0  0  0  0  0  0  0  0
   46.7510   34.0230   42.2850 C   0  0  0  0  0  0  0  0  0  0  0  0
   47.3330   33.0780   42.5350 H   0  0  0  0  0  0  0  0  0  0  0  0
   45.9810   33.6860   41.5750 H   0  0  0  0  0  0  0  0  0  0  0  0
   46.0120   34.4090   43.5140 C   0  0  0  0  0  0  0  0  0  0  0  0
   45.2710   35.5660   43.4300 C   0  0  0  0  0  0  0  0  0  0  0  0
   44.5510   36.0140   44.5350 C   0  0  0  0  0  0  0  0  0  0  0  0
   44.6350   35.2480   45.6600 N   0  0  0  0  0  0  0  0  0  0  0  0
   45.3700   34.1090   45.7250 C   0  0  0  0  0  0  0  0  0  0  0  0
   46.0540   33.6930   44.6570 N   0  0  0  0  0  0  0  0  0  0  0  0
   45.0490   36.3090   42.6830 H   0  0  0  0  0  0  0  0  0  0  0  0
   43.9220   36.8580   44.7090 H   0  0  0  0  0  0  0  0  0  0  0  0
   45.4030   33.5320   46.6500 H   0  0  0  0  0  0  0  0  0  0  0  0
  1  4  1  1  0  0  0
  1 15  1  0  0  0  0
  2  1  1  0  0  0  0
  2  5  1  0  0  0  0
  2  6  1  0  0  0  0
  3  7  1  6  0  0  0
  3  2  1  0  0  0  0
  3  1  1  0  0  0  0
  8  9  1  0  0  0  0
  8  3  1  0  0  0  0
 10  9  1  0  0  0  0
 11 10  1  0  0  0  0
 12 11  1  0  0  0  0
 13 11  1  0  0  0  0
 13 14  1  0  0  0  0
 14  8  1  0  0  0  0
 15 16  1  0  0  0  0
 15 18  1  0  0  0  0
 17 15  1  0  0  0  0
 18 23  1  0  0  0  0
 19 18  2  0  0  0  0
 19 20  1  0  0  0  0
 20 25  1  0  0  0  0
 20 21  2  0  0  0  0
 21 22  1  0  0  0  0
 22 26  1  0  0  0  0
 23 22  2  0  0  0  0
 24 19  1  0  0  0  0
M  END
>  <minimizedAffinity>
-4.69310904

>  <minimizedRMSD>
1.15910125

$$$$
