
 OpenBabel03252509353D

 42 44  0  0  1  0  0  0  0  0999 V2000
   44.5260   35.4640   44.0750 O   0  0  0  0  0  0  0  0  0  0  0  0
   45.3910   34.2550   44.3720 P   0  0  1  0  0  0  0  0  0  0  0  0
   44.7180   32.8520   43.7030 O   0  0  0  0  0  0  0  0  0  0  0  0
   44.4790   33.0480   42.7750 H   0  0  0  0  0  0  0  0  0  0  0  0
   46.9040   34.5300   43.7200 O   0  0  0  0  0  0  0  0  0  0  0  0
   47.0300   33.8310   42.5130 C   0  0  1  0  0  0  0  0  0  0  0  0
   46.4480   34.6650   41.3680 C   0  0  0  0  0  0  0  0  0  0  0  0
   46.9580   33.8950   40.1760 C   0  0  0  0  0  0  0  0  0  0  0  0
   48.2420   33.2220   40.6290 C   0  0  0  0  0  0  0  0  0  0  0  0
   48.4470   33.6880   42.0520 C   0  0  1  0  0  0  0  0  0  0  0  0
   46.5070   32.8780   42.5030 H   0  0  0  0  0  0  0  0  0  0  0  0
   46.7210   35.7130   41.4040 H   0  0  0  0  0  0  0  0  0  0  0  0
   45.3450   34.6100   41.4550 H   0  0  0  0  0  0  0  0  0  0  0  0
   46.1750   33.1320   39.8990 H   0  0  0  0  0  0  0  0  0  0  0  0
   47.1320   34.5180   39.2990 H   0  0  0  0  0  0  0  0  0  0  0  0
   48.0790   32.1160   40.6070 H   0  0  0  0  0  0  0  0  0  0  0  0
   49.0940   33.4680   39.9740 H   0  0  0  0  0  0  0  0  0  0  0  0
   48.9680   32.8650   42.6170 H   0  0  0  0  0  0  0  0  0  0  0  0
   49.2170   34.9800   42.1070 C   0  0  0  0  0  0  0  0  0  0  0  0
   49.8410   35.0310   41.1730 H   0  0  0  0  0  0  0  0  0  0  0  0
   48.5920   35.8880   42.0850 H   0  0  0  0  0  0  0  0  0  0  0  0
   50.0130   35.0730   43.2280 O   0  0  0  0  0  0  0  0  0  0  0  0
   50.0370   34.2220   43.7240 H   0  0  0  0  0  0  0  0  0  0  0  0
   45.4900   33.9900   46.0160 O   0  0  0  0  0  0  0  0  0  0  0  0
   46.4360   33.0470   46.2590 C   0  0  0  0  0  0  0  0  0  0  0  0
   47.2550   33.5660   46.8410 H   0  0  0  0  0  0  0  0  0  0  0  0
   46.9450   32.5900   45.4150 H   0  0  0  0  0  0  0  0  0  0  0  0
   45.1010   31.3030   49.2620 C   0  0  0  0  0  0  0  0  0  0  0  0
   45.5410   32.3430   48.4370 C   0  0  0  0  0  0  0  0  0  0  0  0
   45.9630   31.9740   47.1520 C   0  0  0  0  0  0  0  0  0  0  0  0
   45.9220   30.6640   46.7870 N   0  0  0  0  0  0  0  0  0  0  0  0
   45.4910   29.6860   47.6110 C   0  0  0  0  0  0  0  0  0  0  0  0
   45.0870   30.0050   48.8310 N   0  0  0  0  0  0  0  0  0  0  0  0
   44.7670   31.5500   50.2640 H   0  0  0  0  0  0  0  0  0  0  0  0
   45.5360   33.3430   48.8130 H   0  0  0  0  0  0  0  0  0  0  0  0
   45.4880   28.3430   47.1350 N   0  0  0  0  0  0  0  0  0  0  0  0
   46.7240   27.7130   46.7100 C   0  0  0  0  0  2  0  0  0  0  0  0
   46.6610   26.2140   46.9290 C   0  0  0  0  0  2  0  0  0  0  0  0
   45.8560   26.0100   48.1970 C   0  0  0  0  0  3  0  0  0  0  0  0
   45.9390   24.9520   48.4890 H   0  0  0  0  0  0  0  0  0  0  0  0
   44.4160   26.4450   48.0550 C   0  0  0  0  0  2  0  0  0  0  0  0
   44.2530   27.5820   47.0670 C   0  0  0  0  0  2  0  0  0  0  0  0
  2  1  2  6  0  0  0
  2 24  1  0  0  0  0
  3  2  1  0  0  0  0
  4  3  1  0  0  0  0
  5  2  1  0  0  0  0
  6 11  1  1  0  0  0
  6  5  1  0  0  0  0
  7 12  1  0  0  0  0
  7 13  1  0  0  0  0
  7  6  1  0  0  0  0
  8  9  1  0  0  0  0
  8  7  1  0  0  0  0
  9 10  1  0  0  0  0
 10 19  1  0  0  0  0
 10  6  1  0  0  0  0
 10 18  1  1  0  0  0
 14  8  1  0  0  0  0
 15  8  1  0  0  0  0
 16  9  1  0  0  0  0
 17  9  1  0  0  0  0
 19 22  1  0  0  0  0
 20 19  1  0  0  0  0
 21 19  1  0  0  0  0
 22 23  1  0  0  0  0
 24 25  1  0  0  0  0
 25 26  1  0  0  0  0
 25 30  1  0  0  0  0
 27 25  1  0  0  0  0
 28 34  1  0  0  0  0
 29 35  1  0  0  0  0
 29 28  2  0  0  0  0
 30 29  1  0  0  0  0
 31 30  2  0  0  0  0
 31 32  1  0  0  0  0
 32 33  2  0  0  0  0
 33 28  1  0  0  0  0
 36 32  1  0  0  0  0
 37 38  1  0  0  0  0
 37 36  1  0  0  0  0
 38 39  1  0  0  0  0
 39 40  1  0  0  0  0
 41 39  1  0  0  0  0
 42 36  1  0  0  0  0
 42 41  1  0  0  0  0
M  END
>  <minimizedAffinity>
-6.15768576

>  <minimizedRMSD>
1.18156815

$$$$
