
 OpenBabel03252505563D

 34 36  0  0  0  0  0  0  0  0999 V2000
   44.9980   34.3870   45.7530 C   0  0  0  0  0  0  0  0  0  0  0  0
   45.4440   34.5250   44.4430 C   0  0  0  0  0  0  0  0  0  0  0  0
   46.5250   33.7250   44.0610 C   0  0  0  0  0  0  0  0  0  0  0  0
   47.0790   32.8760   44.9470 N   0  0  0  0  0  0  0  0  0  0  0  0
   46.5980   32.7850   46.2150 C   0  0  0  0  0  0  0  0  0  0  0  0
   45.5720   33.5320   46.6090 N   0  0  0  0  0  0  0  0  0  0  0  0
   44.1690   34.9980   46.0540 H   0  0  0  0  0  0  0  0  0  0  0  0
   47.0710   33.7460   42.7490 N   0  0  0  0  0  0  0  0  0  0  0  0
   46.6000   33.2170   41.4830 C   0  0  0  0  0  0  0  0  0  0  0  0
   46.9690   34.0250   40.2900 C   0  0  0  0  0  0  0  0  0  0  0  0
   48.2480   34.7820   40.3970 C   0  0  0  0  0  0  0  0  0  0  0  0
   48.8580   34.6890   39.4720 H   0  0  0  0  0  0  0  0  0  0  0  0
   49.1090   34.3480   41.5430 C   0  0  0  0  0  0  0  0  0  0  0  0
   48.3460   34.4720   42.8610 C   0  0  0  0  0  0  0  0  0  0  0  0
   44.7790   35.4940   43.5280 C   0  0  0  0  0  0  0  0  0  0  0  0
   43.8910   36.1690   44.3570 F   0  0  0  0  0  0  0  0  0  0  0  0
   44.0470   34.7450   42.6170 F   0  0  0  0  0  0  0  0  0  0  0  0
   45.6920   36.3150   42.9760 F   0  0  0  0  0  0  0  0  0  0  0  0
   47.1430   31.9240   47.1450 O   0  0  0  0  0  0  0  0  0  0  0  0
   47.0850   30.5260   46.9580 C   0  0  0  0  0  0  0  0  0  0  0  0
   46.0910   30.0890   47.1720 H   0  0  0  0  0  0  0  0  0  0  0  0
   47.2780   30.3030   45.8850 H   0  0  0  0  0  0  0  0  0  0  0  0
   48.1780   29.9250   47.7430 C   0  0  0  0  0  0  0  0  0  0  0  0
   48.5900   28.6050   47.8330 C   0  0  0  0  0  0  0  0  0  0  0  0
   49.6450   28.3220   48.6440 C   0  0  0  0  0  0  0  0  0  0  0  0
   50.2820   29.2580   49.3410 N   0  0  0  0  0  0  0  0  0  0  0  0
   49.8740   30.5330   49.2470 C   0  0  0  0  0  0  0  0  0  0  0  0
   48.8210   30.8840   48.4500 N   0  0  0  0  0  0  0  0  0  0  0  0
   47.9980   27.9540   47.2250 H   0  0  0  0  0  0  0  0  0  0  0  0
   49.9340   27.2780   48.6840 H   0  0  0  0  0  0  0  0  0  0  0  0
   50.6430   31.5050   50.0590 C   0  0  0  0  0  0  0  0  0  0  0  0
   50.3890   32.7940   49.6730 F   0  0  0  0  0  0  0  0  0  0  0  0
   52.0170   31.2610   49.9250 F   0  0  0  0  0  0  0  0  0  0  0  0
   50.3470   31.3960   51.4020 F   0  0  0  0  0  0  0  0  0  0  0  0
  1  7  1  0  0  0  0
  1  6  1  0  0  0  0
  2  1  2  0  0  0  0
  3  2  1  0  0  0  0
  3  4  2  0  0  0  0
  4  5  1  0  0  0  0
  5  6  2  0  0  0  0
  5 19  1  0  0  0  0
  8 14  1  0  0  0  0
  8  3  1  0  0  0  0
  9  8  1  0  0  0  0
 10 11  1  0  0  0  0
 10  9  1  0  0  0  0
 11 13  1  0  0  0  0
 12 11  1  0  0  0  0
 13 14  1  0  0  0  0
 15 16  1  0  0  0  0
 15  2  1  0  0  0  0
 17 15  1  0  0  0  0
 18 15  1  0  0  0  0
 20 19  1  0  0  0  0
 20 21  1  0  0  0  0
 20 23  1  0  0  0  0
 22 20  1  0  0  0  0
 23 24  2  0  0  0  0
 23 28  1  0  0  0  0
 24 25  1  0  0  0  0
 25 30  1  0  0  0  0
 25 26  2  0  0  0  0
 27 26  1  0  0  0  0
 27 31  1  0  0  0  0
 28 27  2  0  0  0  0
 29 24  1  0  0  0  0
 31 34  1  0  0  0  0
 32 31  1  0  0  0  0
 33 31  1  0  0  0  0
M  END
>  <minimizedAffinity>
-6.15222263

>  <minimizedRMSD>
1.53246713

$$$$
