
 OpenBabel03252508223D

 32 34  0  0  0  0  0  0  0  0999 V2000
   36.1250   30.1050   38.9850 C   0  0  0  0  0  0  0  0  0  0  0  0
   35.5310   29.3880   37.9580 C   0  0  0  0  0  0  0  0  0  0  0  0
   35.9100   29.3980   36.6360 C   0  0  0  0  0  0  0  0  0  0  0  0
   37.0110   30.2270   36.3390 C   0  0  0  0  0  0  0  0  0  0  0  0
   37.6320   30.9570   37.3280 C   0  0  0  0  0  0  0  0  0  0  0  0
   37.2070   30.9090   38.6410 C   0  0  0  0  0  0  0  0  0  0  0  0
   34.6890   28.7740   38.2690 H   0  0  0  0  0  0  0  0  0  0  0  0
   35.3790   28.7990   35.9060 H   0  0  0  0  0  0  0  0  0  0  0  0
   37.3170   30.2400   35.2970 H   0  0  0  0  0  0  0  0  0  0  0  0
   38.4750   31.5700   37.0010 H   0  0  0  0  0  0  0  0  0  0  0  0
   37.9360   31.7050   39.5330 N   0  0  0  0  0  0  0  0  0  0  0  0
   39.2560   31.3330   40.0100 C   0  0  0  0  0  2  0  0  0  0  0  0
   40.2770   32.4430   39.7310 C   0  0  0  0  0  2  0  0  0  0  0  0
   39.8120   33.6830   40.4320 C   0  0  0  0  0  3  0  0  0  0  0  0
   39.7510   33.5380   41.5380 H   0  0  0  0  0  0  0  0  0  0  0  0
   38.4540   34.0740   39.9300 C   0  0  0  0  0  2  0  0  0  0  0  0
   37.4450   32.9490   40.0480 C   0  0  0  0  0  2  0  0  0  0  0  0
   35.7000   30.0770   40.3860 C   0  0  0  0  0  0  0  0  0  0  0  0
   34.6980   30.5220   40.5500 H   0  0  0  0  0  0  0  0  0  0  0  0
   36.4910   30.5140   41.0440 H   0  0  0  0  0  0  0  0  0  0  0  0
   35.5690   28.6290   40.8730 C   0  0  0  0  0  0  0  0  0  0  0  0
   35.6390   27.9820   39.9870 H   0  0  0  0  0  0  0  0  0  0  0  0
   34.5900   28.4970   41.3500 H   0  0  0  0  0  0  0  0  0  0  0  0
   38.1490   26.7130   42.8300 C   0  0  0  0  0  0  0  0  0  0  0  0
   37.0650   27.0290   41.9780 C   0  0  0  0  0  0  0  0  0  0  0  0
   36.7070   28.3490   41.7700 C   0  0  0  0  0  0  0  0  0  0  0  0
   37.4540   29.2820   42.4280 N   0  0  0  0  0  0  0  0  0  0  0  0
   38.4700   28.9730   43.2250 C   0  0  0  0  0  0  0  0  0  0  0  0
   38.8310   27.6980   43.4380 N   0  0  0  0  0  0  0  0  0  0  0  0
   38.3570   25.6410   42.9320 H   0  0  0  0  0  0  0  0  0  0  0  0
   36.5210   26.2340   41.4920 H   0  0  0  0  0  0  0  0  0  0  0  0
   38.9950   29.7930   43.6970 H   0  0  0  0  0  0  0  0  0  0  0  0
  1 18  1  0  0  0  0
  2  7  1  0  0  0  0
  2  1  2  0  0  0  0
  3  2  1  0  0  0  0
  4  3  2  0  0  0  0
  4  5  1  0  0  0  0
  5  6  2  0  0  0  0
  6  1  1  0  0  0  0
  6 11  1  0  0  0  0
  8  3  1  0  0  0  0
  9  4  1  0  0  0  0
 10  5  1  0  0  0  0
 11 12  1  0  0  0  0
 11 17  1  0  0  0  0
 13 12  1  0  0  0  0
 13 14  1  0  0  0  0
 14 15  1  0  0  0  0
 16 17  1  0  0  0  0
 16 14  1  0  0  0  0
 18 19  1  0  0  0  0
 18 21  1  0  0  0  0
 18 20  1  0  0  0  0
 21 23  1  0  0  0  0
 21 26  1  0  0  0  0
 22 21  1  0  0  0  0
 24 30  1  0  0  0  0
 24 29  1  0  0  0  0
 25 24  2  0  0  0  0
 26 25  1  0  0  0  0
 26 27  2  0  0  0  0
 27 28  1  0  0  0  0
 28 29  2  0  0  0  0
 28 32  1  0  0  0  0
 31 25  1  0  0  0  0
M  END
>  <minimizedAffinity>
-5.29893446

$$$$

 OpenBabel03252508223D

 32 34  0  0  0  0  0  0  0  0999 V2000
   36.1300   28.7450   40.1750 C   0  0  0  0  0  0  0  0  0  0  0  0
   35.2680   28.9390   39.1060 C   0  0  0  0  0  0  0  0  0  0  0  0
   34.9790   28.0250   38.1210 C   0  0  0  0  0  0  0  0  0  0  0  0
   35.6400   26.7870   38.2460 C   0  0  0  0  0  0  0  0  0  0  0  0
   36.5050   26.5490   39.2910 C   0  0  0  0  0  0  0  0  0  0  0  0
   36.7580   27.5060   40.2540 C   0  0  0  0  0  0  0  0  0  0  0  0
   34.7990   29.9200   39.0820 H   0  0  0  0  0  0  0  0  0  0  0  0
   34.2880   28.2750   37.3240 H   0  0  0  0  0  0  0  0  0  0  0  0
   35.4160   26.0590   37.4700 H   0  0  0  0  0  0  0  0  0  0  0  0
   36.9690   25.5610   39.3020 H   0  0  0  0  0  0  0  0  0  0  0  0
   37.6590   27.1200   41.2540 N   0  0  0  0  0  0  0  0  0  0  0  0
   39.0970   27.1540   41.0620 C   0  0  0  0  0  2  0  0  0  0  0  0
   39.7810   27.9920   42.1500 C   0  0  0  0  0  2  0  0  0  0  0  0
   39.4570   27.3760   43.4770 C   0  0  0  0  0  3  0  0  0  0  0  0
   39.8400   26.3300   43.5550 H   0  0  0  0  0  0  0  0  0  0  0  0
   37.9720   27.3540   43.6800 C   0  0  0  0  0  2  0  0  0  0  0  0
   37.2410   26.6620   42.5460 C   0  0  0  0  0  2  0  0  0  0  0  0
   36.4210   29.7370   41.2120 C   0  0  0  0  0  0  0  0  0  0  0  0
   37.4730   29.7080   41.5640 H   0  0  0  0  0  0  0  0  0  0  0  0
   35.6760   29.6660   42.0420 H   0  0  0  0  0  0  0  0  0  0  0  0
   36.2320   31.1540   40.6600 C   0  0  0  0  0  0  0  0  0  0  0  0
   35.5640   31.6850   41.3530 H   0  0  0  0  0  0  0  0  0  0  0  0
   35.7640   31.0950   39.6700 H   0  0  0  0  0  0  0  0  0  0  0  0
   38.9070   33.7120   39.9850 C   0  0  0  0  0  0  0  0  0  0  0  0
   37.6640   33.0400   40.0170 C   0  0  0  0  0  0  0  0  0  0  0  0
   37.5510   31.8170   40.6530 C   0  0  0  0  0  0  0  0  0  0  0  0
   38.6920   31.3310   41.2230 N   0  0  0  0  0  0  0  0  0  0  0  0
   39.8540   31.9720   41.1850 C   0  0  0  0  0  0  0  0  0  0  0  0
   39.9810   33.1590   40.5740 N   0  0  0  0  0  0  0  0  0  0  0  0
   38.8980   34.6740   39.4590 H   0  0  0  0  0  0  0  0  0  0  0  0
   36.8040   33.4890   39.5430 H   0  0  0  0  0  0  0  0  0  0  0  0
   40.6960   31.4950   41.6710 H   0  0  0  0  0  0  0  0  0  0  0  0
  1  6  1  0  0  0  0
  1 18  1  0  0  0  0
  2  1  2  0  0  0  0
  3  4  2  0  0  0  0
  3  2  1  0  0  0  0
  4  5  1  0  0  0  0
  5 10  1  0  0  0  0
  5  6  2  0  0  0  0
  6 11  1  0  0  0  0
  7  2  1  0  0  0  0
  8  3  1  0  0  0  0
  9  4  1  0  0  0  0
 11 17  1  0  0  0  0
 12 11  1  0  0  0  0
 12 13  1  0  0  0  0
 13 14  1  0  0  0  0
 14 15  1  0  0  0  0
 14 16  1  0  0  0  0
 17 16  1  0  0  0  0
 18 19  1  0  0  0  0
 18 20  1  0  0  0  0
 21 18  1  0  0  0  0
 21 22  1  0  0  0  0
 23 21  1  0  0  0  0
 24 25  2  0  0  0  0
 24 29  1  0  0  0  0
 25 26  1  0  0  0  0
 26 21  1  0  0  0  0
 26 27  2  0  0  0  0
 28 27  1  0  0  0  0
 28 32  1  0  0  0  0
 29 28  2  0  0  0  0
 30 24  1  0  0  0  0
 31 25  1  0  0  0  0
M  END
>  <minimizedAffinity>
-5.09083271

$$$$

 OpenBabel03252508223D

 32 34  0  0  0  0  0  0  0  0999 V2000
   36.9400   26.4450   41.6950 C   0  0  0  0  0  0  0  0  0  0  0  0
   37.1020   25.2240   42.3290 C   0  0  0  0  0  0  0  0  0  0  0  0
   37.4590   24.0380   41.7290 C   0  0  0  0  0  0  0  0  0  0  0  0
   37.6690   24.1170   40.3380 C   0  0  0  0  0  0  0  0  0  0  0  0
   37.5190   25.3100   39.6660 C   0  0  0  0  0  0  0  0  0  0  0  0
   37.1590   26.4700   40.3210 C   0  0  0  0  0  0  0  0  0  0  0  0
   36.9210   25.2480   43.4020 H   0  0  0  0  0  0  0  0  0  0  0  0
   37.5600   23.1340   42.3160 H   0  0  0  0  0  0  0  0  0  0  0  0
   37.9520   23.1840   39.8570 H   0  0  0  0  0  0  0  0  0  0  0  0
   37.7040   25.2690   38.5910 H   0  0  0  0  0  0  0  0  0  0  0  0
   37.0450   27.6030   39.5060 N   0  0  0  0  0  0  0  0  0  0  0  0
   35.8200   27.9350   38.8010 C   0  0  0  0  0  2  0  0  0  0  0  0
   35.3520   29.3550   39.1460 C   0  0  0  0  0  2  0  0  0  0  0  0
   36.4400   30.3070   38.7550 C   0  0  0  0  0  3  0  0  0  0  0  0
   36.6520   30.2690   37.6590 H   0  0  0  0  0  0  0  0  0  0  0  0
   37.7020   29.9710   39.4930 C   0  0  0  0  0  2  0  0  0  0  0  0
   38.1210   28.5270   39.2990 C   0  0  0  0  0  2  0  0  0  0  0  0
   36.5590   27.6940   42.3580 C   0  0  0  0  0  0  0  0  0  0  0  0
   35.5100   27.6970   42.7190 H   0  0  0  0  0  0  0  0  0  0  0  0
   36.8070   28.5720   41.7120 H   0  0  0  0  0  0  0  0  0  0  0  0
   37.4060   27.9070   43.6180 C   0  0  0  0  0  0  0  0  0  0  0  0
   37.6650   26.9120   44.0070 H   0  0  0  0  0  0  0  0  0  0  0  0
   36.8140   28.4520   44.3630 H   0  0  0  0  0  0  0  0  0  0  0  0
   41.0240   28.5080   42.7760 C   0  0  0  0  0  0  0  0  0  0  0  0
   39.8160   27.8790   43.1540 C   0  0  0  0  0  0  0  0  0  0  0  0
   38.6420   28.6080   43.2180 C   0  0  0  0  0  0  0  0  0  0  0  0
   38.7420   29.9310   42.8980 N   0  0  0  0  0  0  0  0  0  0  0  0
   39.8830   30.5110   42.5440 C   0  0  0  0  0  0  0  0  0  0  0  0
   41.0300   29.8190   42.4770 N   0  0  0  0  0  0  0  0  0  0  0  0
   41.9000   27.8500   42.7540 H   0  0  0  0  0  0  0  0  0  0  0  0
   39.8170   26.8260   43.3920 H   0  0  0  0  0  0  0  0  0  0  0  0
   39.8480   31.5670   42.3110 H   0  0  0  0  0  0  0  0  0  0  0  0
  1  2  1  0  0  0  0
  1 18  1  0  0  0  0
  2  7  1  0  0  0  0
  3  8  1  0  0  0  0
  3  2  2  0  0  0  0
  4  3  1  0  0  0  0
  5  6  1  0  0  0  0
  5  4  2  0  0  0  0
  6  1  2  0  0  0  0
  9  4  1  0  0  0  0
 10  5  1  0  0  0  0
 11  6  1  0  0  0  0
 12 13  1  0  0  0  0
 12 11  1  0  0  0  0
 14 13  1  0  0  0  0
 14 16  1  0  0  0  0
 15 14  1  0  0  0  0
 17 16  1  0  0  0  0
 17 11  1  0  0  0  0
 18 19  1  0  0  0  0
 18 21  1  0  0  0  0
 20 18  1  0  0  0  0
 21 22  1  0  0  0  0
 21 23  1  0  0  0  0
 24 25  1  0  0  0  0
 25 26  2  0  0  0  0
 25 31  1  0  0  0  0
 26 21  1  0  0  0  0
 27 26  1  0  0  0  0
 28 27  2  0  0  0  0
 29 28  1  0  0  0  0
 29 24  2  0  0  0  0
 30 24  1  0  0  0  0
 32 28  1  0  0  0  0
M  END
>  <minimizedAffinity>
-5.069098

$$$$

 OpenBabel03252508223D

 32 34  0  0  0  0  0  0  0  0999 V2000
   38.9590   31.4170   40.4290 C   0  0  0  0  0  0  0  0  0  0  0  0
   39.4560   32.6770   40.7260 C   0  0  0  0  0  0  0  0  0  0  0  0
   38.8420   33.8770   40.4530 C   0  0  0  0  0  0  0  0  0  0  0  0
   37.5920   33.7720   39.8110 C   0  0  0  0  0  0  0  0  0  0  0  0
   37.0590   32.5410   39.4970 C   0  0  0  0  0  0  0  0  0  0  0  0
   37.7210   31.3670   39.7950 C   0  0  0  0  0  0  0  0  0  0  0  0
   40.4250   32.6710   41.2200 H   0  0  0  0  0  0  0  0  0  0  0  0
   39.3150   34.8120   40.7270 H   0  0  0  0  0  0  0  0  0  0  0  0
   37.1000   34.7160   39.5920 H   0  0  0  0  0  0  0  0  0  0  0  0
   36.0870   32.5630   39.0010 H   0  0  0  0  0  0  0  0  0  0  0  0
   37.0560   30.1950   39.4150 N   0  0  0  0  0  0  0  0  0  0  0  0
   36.0900   29.5350   40.2730 C   0  0  0  0  0  2  0  0  0  0  0  0
   34.7470   29.3520   39.5540 C   0  0  0  0  0  2  0  0  0  0  0  0
   34.9900   28.5260   38.3280 C   0  0  0  0  0  3  0  0  0  0  0  0
   35.3880   27.5130   38.5800 H   0  0  0  0  0  0  0  0  0  0  0  0
   35.9790   29.2150   37.4360 C   0  0  0  0  0  2  0  0  0  0  0  0
   37.2720   29.5510   38.1530 C   0  0  0  0  0  2  0  0  0  0  0  0
   39.6340   30.1530   40.7300 C   0  0  0  0  0  0  0  0  0  0  0  0
   40.7160   30.1640   40.4860 H   0  0  0  0  0  0  0  0  0  0  0  0
   39.0850   29.2960   40.2680 H   0  0  0  0  0  0  0  0  0  0  0  0
   39.5770   29.8660   42.2350 C   0  0  0  0  0  0  0  0  0  0  0  0
   39.1360   30.7490   42.7180 H   0  0  0  0  0  0  0  0  0  0  0  0
   40.5950   29.7090   42.6110 H   0  0  0  0  0  0  0  0  0  0  0  0
   36.8660   27.6920   43.6790 C   0  0  0  0  0  0  0  0  0  0  0  0
   37.7400   28.7780   43.4460 C   0  0  0  0  0  0  0  0  0  0  0  0
   38.6870   28.7060   42.4400 C   0  0  0  0  0  0  0  0  0  0  0  0
   38.7050   27.5470   41.7190 N   0  0  0  0  0  0  0  0  0  0  0  0
   37.8790   26.5330   41.9470 C   0  0  0  0  0  0  0  0  0  0  0  0
   36.9550   26.5870   42.9190 N   0  0  0  0  0  0  0  0  0  0  0  0
   36.1510   27.8420   44.4970 H   0  0  0  0  0  0  0  0  0  0  0  0
   37.6630   29.6630   44.0590 H   0  0  0  0  0  0  0  0  0  0  0  0
   37.9810   25.6610   41.3150 H   0  0  0  0  0  0  0  0  0  0  0  0
  1  2  1  0  0  0  0
  1 18  1  0  0  0  0
  2  7  1  0  0  0  0
  3  2  2  0  0  0  0
  3  8  1  0  0  0  0
  4  3  1  0  0  0  0
  5  6  1  0  0  0  0
  5  4  2  0  0  0  0
  6  1  2  0  0  0  0
  9  4  1  0  0  0  0
 10  5  1  0  0  0  0
 11  6  1  0  0  0  0
 11 12  1  0  0  0  0
 13 12  1  0  0  0  0
 14 15  1  0  0  0  0
 14 13  1  0  0  0  0
 16 17  1  0  0  0  0
 16 14  1  0  0  0  0
 17 11  1  0  0  0  0
 18 21  1  0  0  0  0
 19 18  1  0  0  0  0
 20 18  1  0  0  0  0
 21 26  1  0  0  0  0
 21 23  1  0  0  0  0
 21 22  1  0  0  0  0
 24 30  1  0  0  0  0
 25 24  1  0  0  0  0
 25 31  1  0  0  0  0
 26 25  2  0  0  0  0
 27 28  2  0  0  0  0
 27 26  1  0  0  0  0
 28 29  1  0  0  0  0
 29 24  2  0  0  0  0
 32 28  1  0  0  0  0
M  END
>  <minimizedAffinity>
-5.05420542

$$$$

 OpenBabel03252508223D

 32 34  0  0  0  0  0  0  0  0999 V2000
   36.6790   29.1720   38.5540 C   0  0  0  0  0  0  0  0  0  0  0  0
   35.9310   29.1990   37.3870 C   0  0  0  0  0  0  0  0  0  0  0  0
   34.5610   29.1080   37.2990 C   0  0  0  0  0  0  0  0  0  0  0  0
   33.8940   28.9760   38.5340 C   0  0  0  0  0  0  0  0  0  0  0  0
   34.5970   28.9450   39.7180 C   0  0  0  0  0  0  0  0  0  0  0  0
   35.9740   29.0410   39.7460 C   0  0  0  0  0  0  0  0  0  0  0  0
   36.5200   29.3020   36.4790 H   0  0  0  0  0  0  0  0  0  0  0  0
   34.0690   29.1390   36.3350 H   0  0  0  0  0  0  0  0  0  0  0  0
   32.8110   28.9040   38.4720 H   0  0  0  0  0  0  0  0  0  0  0  0
   33.9920   28.8410   40.6210 H   0  0  0  0  0  0  0  0  0  0  0  0
   36.5480   28.9940   41.0220 N   0  0  0  0  0  0  0  0  0  0  0  0
   36.7210   27.7520   41.7530 C   0  0  0  0  0  2  0  0  0  0  0  0
   38.1840   27.5540   42.1700 C   0  0  0  0  0  2  0  0  0  0  0  0
   38.5780   28.7140   43.0330 C   0  0  0  0  0  3  0  0  0  0  0  0
   37.9590   28.7710   43.9600 H   0  0  0  0  0  0  0  0  0  0  0  0
   38.4110   29.9960   42.2720 C   0  0  0  0  0  2  0  0  0  0  0  0
   37.0120   30.1610   41.7120 C   0  0  0  0  0  2  0  0  0  0  0  0
   38.1390   29.2710   38.6200 C   0  0  0  0  0  0  0  0  0  0  0  0
   38.6590   28.4120   38.1490 H   0  0  0  0  0  0  0  0  0  0  0  0
   38.4710   29.4680   39.6690 H   0  0  0  0  0  0  0  0  0  0  0  0
   38.6240   30.4970   37.8380 C   0  0  0  0  0  0  0  0  0  0  0  0
   37.8840   30.6950   37.0510 H   0  0  0  0  0  0  0  0  0  0  0  0
   39.5970   30.2720   37.3830 H   0  0  0  0  0  0  0  0  0  0  0  0
   37.5310   33.5620   39.7290 C   0  0  0  0  0  0  0  0  0  0  0  0
   37.5430   32.4540   38.8500 C   0  0  0  0  0  0  0  0  0  0  0  0
   38.6600   31.6420   38.7700 C   0  0  0  0  0  0  0  0  0  0  0  0
   39.7070   31.9840   39.5760 N   0  0  0  0  0  0  0  0  0  0  0  0
   39.6840   33.0270   40.3970 C   0  0  0  0  0  0  0  0  0  0  0  0
   38.6090   33.8250   40.4870 N   0  0  0  0  0  0  0  0  0  0  0  0
   36.6030   34.1450   39.7230 H   0  0  0  0  0  0  0  0  0  0  0  0
   36.6740   32.2470   38.2440 H   0  0  0  0  0  0  0  0  0  0  0  0
   40.5700   33.2070   40.9910 H   0  0  0  0  0  0  0  0  0  0  0  0
  1 18  1  0  0  0  0
  1  6  1  0  0  0  0
  2  1  2  0  0  0  0
  3  2  1  0  0  0  0
  3  4  2  0  0  0  0
  4  5  1  0  0  0  0
  5  6  2  0  0  0  0
  5 10  1  0  0  0  0
  6 11  1  0  0  0  0
  7  2  1  0  0  0  0
  8  3  1  0  0  0  0
  9  4  1  0  0  0  0
 11 17  1  0  0  0  0
 11 12  1  0  0  0  0
 12 13  1  0  0  0  0
 13 14  1  0  0  0  0
 14 15  1  0  0  0  0
 16 14  1  0  0  0  0
 17 16  1  0  0  0  0
 18 20  1  0  0  0  0
 19 18  1  0  0  0  0
 21 18  1  0  0  0  0
 21 26  1  0  0  0  0
 22 21  1  0  0  0  0
 23 21  1  0  0  0  0
 24 29  1  0  0  0  0
 25 24  2  0  0  0  0
 26 25  1  0  0  0  0
 26 27  2  0  0  0  0
 27 28  1  0  0  0  0
 28 29  2  0  0  0  0
 28 32  1  0  0  0  0
 30 24  1  0  0  0  0
 31 25  1  0  0  0  0
M  END
>  <minimizedAffinity>
-4.98297787

$$$$

 OpenBabel03252508223D

 32 34  0  0  0  0  0  0  0  0999 V2000
   36.5220   28.6380   41.4030 C   0  0  0  0  0  0  0  0  0  0  0  0
   36.3360   27.7490   42.4500 C   0  0  0  0  0  0  0  0  0  0  0  0
   37.1590   27.5950   43.5410 C   0  0  0  0  0  0  0  0  0  0  0  0
   38.2870   28.4400   43.5570 C   0  0  0  0  0  0  0  0  0  0  0  0
   38.5120   29.3390   42.5380 C   0  0  0  0  0  0  0  0  0  0  0  0
   37.6500   29.4500   41.4660 C   0  0  0  0  0  0  0  0  0  0  0  0
   35.4430   27.1340   42.3620 H   0  0  0  0  0  0  0  0  0  0  0  0
   36.9250   26.8690   44.3090 H   0  0  0  0  0  0  0  0  0  0  0  0
   38.9430   28.3250   44.4170 H   0  0  0  0  0  0  0  0  0  0  0  0
   39.4120   29.9490   42.6400 H   0  0  0  0  0  0  0  0  0  0  0  0
   38.0100   30.4070   40.5090 N   0  0  0  0  0  0  0  0  0  0  0  0
   38.8630   30.0930   39.3770 C   0  0  0  0  0  2  0  0  0  0  0  0
   38.1830   30.4670   38.0530 C   0  0  0  0  0  2  0  0  0  0  0  0
   37.8950   31.9370   38.0830 C   0  0  0  0  0  3  0  0  0  0  0  0
   38.8290   32.5430   38.1760 H   0  0  0  0  0  0  0  0  0  0  0  0
   37.0040   32.2580   39.2460 C   0  0  0  0  0  2  0  0  0  0  0  0
   37.5700   31.7690   40.5640 C   0  0  0  0  0  2  0  0  0  0  0  0
   35.6280   28.7820   40.2520 C   0  0  0  0  0  0  0  0  0  0  0  0
   35.7360   29.7550   39.7310 H   0  0  0  0  0  0  0  0  0  0  0  0
   34.5740   28.5500   40.5430 H   0  0  0  0  0  0  0  0  0  0  0  0
   35.9600   27.7300   39.1870 C   0  0  0  0  0  0  0  0  0  0  0  0
   35.9680   26.7520   39.6880 H   0  0  0  0  0  0  0  0  0  0  0  0
   36.9540   27.9390   38.7710 H   0  0  0  0  0  0  0  0  0  0  0  0
   33.1010   28.9790   37.0830 C   0  0  0  0  0  0  0  0  0  0  0  0
   34.1440   28.9120   38.0360 C   0  0  0  0  0  0  0  0  0  0  0  0
   34.8820   27.7510   38.1790 C   0  0  0  0  0  0  0  0  0  0  0  0
   34.5360   26.7180   37.3570 N   0  0  0  0  0  0  0  0  0  0  0  0
   33.5550   26.7930   36.4660 C   0  0  0  0  0  0  0  0  0  0  0  0
   32.8290   27.9110   36.3150 N   0  0  0  0  0  0  0  0  0  0  0  0
   32.5740   29.9390   37.0440 H   0  0  0  0  0  0  0  0  0  0  0  0
   34.3590   29.7730   38.6510 H   0  0  0  0  0  0  0  0  0  0  0  0
   33.3650   25.9120   35.8650 H   0  0  0  0  0  0  0  0  0  0  0  0
  1  6  2  0  0  0  0
  1  2  1  0  0  0  0
  2  3  2  0  0  0  0
  3  4  1  0  0  0  0
  3  8  1  0  0  0  0
  4  9  1  0  0  0  0
  5 10  1  0  0  0  0
  5  4  2  0  0  0  0
  6  5  1  0  0  0  0
  7  2  1  0  0  0  0
 11 17  1  0  0  0  0
 11  6  1  0  0  0  0
 12 11  1  0  0  0  0
 13 14  1  0  0  0  0
 13 12  1  0  0  0  0
 14 15  1  0  0  0  0
 14 16  1  0  0  0  0
 16 17  1  0  0  0  0
 18 20  1  0  0  0  0
 18  1  1  0  0  0  0
 19 18  1  0  0  0  0
 21 22  1  0  0  0  0
 21 18  1  0  0  0  0
 23 21  1  0  0  0  0
 24 25  1  0  0  0  0
 25 26  2  0  0  0  0
 25 31  1  0  0  0  0
 26 21  1  0  0  0  0
 27 26  1  0  0  0  0
 28 27  2  0  0  0  0
 29 28  1  0  0  0  0
 29 24  2  0  0  0  0
 30 24  1  0  0  0  0
 32 28  1  0  0  0  0
M  END
>  <minimizedAffinity>
-4.9715662

$$$$

 OpenBabel03252508223D

 32 34  0  0  0  0  0  0  0  0999 V2000
   36.7890   29.1040   41.3070 C   0  0  0  0  0  0  0  0  0  0  0  0
   35.5180   28.8720   40.8040 C   0  0  0  0  0  0  0  0  0  0  0  0
   35.0670   29.2090   39.5490 C   0  0  0  0  0  0  0  0  0  0  0  0
   36.0180   29.8480   38.7290 C   0  0  0  0  0  0  0  0  0  0  0  0
   37.2920   30.0990   39.1870 C   0  0  0  0  0  0  0  0  0  0  0  0
   37.6900   29.7380   40.4580 C   0  0  0  0  0  0  0  0  0  0  0  0
   34.8450   28.3750   41.5000 H   0  0  0  0  0  0  0  0  0  0  0  0
   34.0510   28.9830   39.2510 H   0  0  0  0  0  0  0  0  0  0  0  0
   35.6690   30.1180   37.7350 H   0  0  0  0  0  0  0  0  0  0  0  0
   37.9560   30.5990   38.4780 H   0  0  0  0  0  0  0  0  0  0  0  0
   39.0150   30.0580   40.7810 N   0  0  0  0  0  0  0  0  0  0  0  0
   39.3810   31.3170   41.4060 C   0  0  0  0  0  2  0  0  0  0  0  0
   40.1640   31.0820   42.7040 C   0  0  0  0  0  2  0  0  0  0  0  0
   41.3970   30.3020   42.3640 C   0  0  0  0  0  3  0  0  0  0  0  0
   42.0590   30.8580   41.6570 H   0  0  0  0  0  0  0  0  0  0  0  0
   41.0170   28.9970   41.7300 C   0  0  0  0  0  2  0  0  0  0  0  0
   40.1150   29.1770   40.5250 C   0  0  0  0  0  2  0  0  0  0  0  0
   37.2430   28.7350   42.6500 C   0  0  0  0  0  0  0  0  0  0  0  0
   36.9900   29.4890   43.4220 H   0  0  0  0  0  0  0  0  0  0  0  0
   38.3280   28.4640   42.6350 H   0  0  0  0  0  0  0  0  0  0  0  0
   36.5450   27.4510   43.1120 C   0  0  0  0  0  0  0  0  0  0  0  0
   35.6000   27.3770   42.5570 H   0  0  0  0  0  0  0  0  0  0  0  0
   36.3370   27.5220   44.1870 H   0  0  0  0  0  0  0  0  0  0  0  0
   39.6370   25.3530   42.6650 C   0  0  0  0  0  0  0  0  0  0  0  0
   38.7690   26.4200   42.9920 C   0  0  0  0  0  0  0  0  0  0  0  0
   37.4110   26.3110   42.7530 C   0  0  0  0  0  0  0  0  0  0  0  0
   36.9950   25.1360   42.1970 N   0  0  0  0  0  0  0  0  0  0  0  0
   37.8200   24.1410   41.8940 C   0  0  0  0  0  0  0  0  0  0  0  0
   39.1390   24.2300   42.1190 N   0  0  0  0  0  0  0  0  0  0  0  0
   40.6950   25.5330   42.8910 H   0  0  0  0  0  0  0  0  0  0  0  0
   39.1740   27.3200   43.4310 H   0  0  0  0  0  0  0  0  0  0  0  0
   37.3820   23.2530   41.4560 H   0  0  0  0  0  0  0  0  0  0  0  0
  1 18  1  0  0  0  0
  2  1  1  0  0  0  0
  2  7  1  0  0  0  0
  3  2  2  0  0  0  0
  4  5  2  0  0  0  0
  4  3  1  0  0  0  0
  5  6  1  0  0  0  0
  6 11  1  0  0  0  0
  6  1  2  0  0  0  0
  8  3  1  0  0  0  0
  9  4  1  0  0  0  0
 10  5  1  0  0  0  0
 11 12  1  0  0  0  0
 12 13  1  0  0  0  0
 14 13  1  0  0  0  0
 15 14  1  0  0  0  0
 16 14  1  0  0  0  0
 17 11  1  0  0  0  0
 17 16  1  0  0  0  0
 18 21  1  0  0  0  0
 18 19  1  0  0  0  0
 20 18  1  0  0  0  0
 21 23  1  0  0  0  0
 22 21  1  0  0  0  0
 24 30  1  0  0  0  0
 24 25  1  0  0  0  0
 25 31  1  0  0  0  0
 26 25  2  0  0  0  0
 26 21  1  0  0  0  0
 27 26  1  0  0  0  0
 28 29  1  0  0  0  0
 28 27  2  0  0  0  0
 29 24  2  0  0  0  0
 32 28  1  0  0  0  0
M  END
>  <minimizedAffinity>
-4.95478725

$$$$

 OpenBabel03252508223D

 32 34  0  0  0  0  0  0  0  0999 V2000
   38.4770   28.5440   42.4670 C   0  0  0  0  0  0  0  0  0  0  0  0
   39.0670   27.6130   43.3080 C   0  0  0  0  0  0  0  0  0  0  0  0
   38.9310   26.2460   43.2280 C   0  0  0  0  0  0  0  0  0  0  0  0
   38.1060   25.7920   42.1790 C   0  0  0  0  0  0  0  0  0  0  0  0
   37.5000   26.6810   41.3200 C   0  0  0  0  0  0  0  0  0  0  0  0
   37.6730   28.0450   41.4480 C   0  0  0  0  0  0  0  0  0  0  0  0
   39.6870   28.0450   44.0900 H   0  0  0  0  0  0  0  0  0  0  0  0
   39.4360   25.6010   43.9360 H   0  0  0  0  0  0  0  0  0  0  0  0
   37.9940   24.7130   42.1100 H   0  0  0  0  0  0  0  0  0  0  0  0
   36.8810   26.2330   40.5400 H   0  0  0  0  0  0  0  0  0  0  0  0
   36.9930   28.8230   40.5020 N   0  0  0  0  0  0  0  0  0  0  0  0
   37.5870   29.1980   39.2310 C   0  0  0  0  0  2  0  0  0  0  0  0
   36.6970   28.7680   38.0580 C   0  0  0  0  0  2  0  0  0  0  0  0
   35.3680   29.4390   38.2180 C   0  0  0  0  0  3  0  0  0  0  0  0
   35.4580   30.5520   38.1950 H   0  0  0  0  0  0  0  0  0  0  0  0
   34.7500   29.0410   39.5250 C   0  0  0  0  0  2  0  0  0  0  0  0
   35.6620   29.3110   40.7050 C   0  0  0  0  0  2  0  0  0  0  0  0
   38.6390   29.9960   42.5740 C   0  0  0  0  0  0  0  0  0  0  0  0
   38.6780   30.3570   43.6220 H   0  0  0  0  0  0  0  0  0  0  0  0
   37.8720   30.5220   41.9530 H   0  0  0  0  0  0  0  0  0  0  0  0
   39.9750   30.4290   41.9610 C   0  0  0  0  0  0  0  0  0  0  0  0
   40.2540   29.6670   41.2200 H   0  0  0  0  0  0  0  0  0  0  0  0
   40.7360   30.4720   42.7510 H   0  0  0  0  0  0  0  0  0  0  0  0
   40.7180   33.6970   40.2510 C   0  0  0  0  0  0  0  0  0  0  0  0
   40.8740   32.4560   40.9100 C   0  0  0  0  0  0  0  0  0  0  0  0
   39.7620   31.7180   41.2760 C   0  0  0  0  0  0  0  0  0  0  0  0
   38.5520   32.2650   40.9600 N   0  0  0  0  0  0  0  0  0  0  0  0
   38.4190   33.4320   40.3410 C   0  0  0  0  0  0  0  0  0  0  0  0
   39.4860   34.1600   39.9800 N   0  0  0  0  0  0  0  0  0  0  0  0
   41.6560   34.2080   40.0020 H   0  0  0  0  0  0  0  0  0  0  0  0
   41.8660   32.0890   41.1250 H   0  0  0  0  0  0  0  0  0  0  0  0
   37.4110   33.7710   40.1400 H   0  0  0  0  0  0  0  0  0  0  0  0
  1 18  1  0  0  0  0
  1  2  1  0  0  0  0
  2  7  1  0  0  0  0
  3  2  2  0  0  0  0
  3  8  1  0  0  0  0
  4  3  1  0  0  0  0
  5  6  1  0  0  0  0
  5  4  2  0  0  0  0
  6  1  2  0  0  0  0
  9  4  1  0  0  0  0
 10  5  1  0  0  0  0
 11 17  1  0  0  0  0
 11  6  1  0  0  0  0
 12 11  1  0  0  0  0
 13 14  1  0  0  0  0
 13 12  1  0  0  0  0
 14 16  1  0  0  0  0
 15 14  1  0  0  0  0
 16 17  1  0  0  0  0
 18 19  1  0  0  0  0
 20 18  1  0  0  0  0
 21 18  1  0  0  0  0
 21 23  1  0  0  0  0
 22 21  1  0  0  0  0
 24 25  1  0  0  0  0
 25 31  1  0  0  0  0
 25 26  2  0  0  0  0
 26 21  1  0  0  0  0
 27 26  1  0  0  0  0
 28 27  2  0  0  0  0
 29 24  2  0  0  0  0
 29 28  1  0  0  0  0
 30 24  1  0  0  0  0
 32 28  1  0  0  0  0
M  END
>  <minimizedAffinity>
-4.93181133

$$$$

 OpenBabel03252508223D

 32 34  0  0  0  0  0  0  0  0999 V2000
   36.4840   28.8350   41.3530 C   0  0  0  0  0  0  0  0  0  0  0  0
   36.3320   27.9090   42.3740 C   0  0  0  0  0  0  0  0  0  0  0  0
   37.1770   27.7350   43.4450 C   0  0  0  0  0  0  0  0  0  0  0  0
   38.2900   28.6000   43.4700 C   0  0  0  0  0  0  0  0  0  0  0  0
   38.4810   29.5360   42.4770 C   0  0  0  0  0  0  0  0  0  0  0  0
   37.5980   29.6650   41.4240 C   0  0  0  0  0  0  0  0  0  0  0  0
   35.4490   27.2800   42.2800 H   0  0  0  0  0  0  0  0  0  0  0  0
   36.9690   26.9800   44.1920 H   0  0  0  0  0  0  0  0  0  0  0  0
   38.9620   28.4690   44.3140 H   0  0  0  0  0  0  0  0  0  0  0  0
   39.3710   30.1590   42.5840 H   0  0  0  0  0  0  0  0  0  0  0  0
   37.9240   30.6590   40.4920 N   0  0  0  0  0  0  0  0  0  0  0  0
   37.3910   32.0070   40.5730 C   0  0  0  0  0  2  0  0  0  0  0  0
   38.5180   33.0470   40.5940 C   0  0  0  0  0  2  0  0  0  0  0  0
   39.3160   32.8870   39.3360 C   0  0  0  0  0  3  0  0  0  0  0  0
   38.6960   33.0680   38.4250 H   0  0  0  0  0  0  0  0  0  0  0  0
   39.8770   31.4990   39.2600 C   0  0  0  0  0  2  0  0  0  0  0  0
   38.8070   30.4320   39.3870 C   0  0  0  0  0  2  0  0  0  0  0  0
   35.5680   28.9990   40.2220 C   0  0  0  0  0  0  0  0  0  0  0  0
   35.6790   29.9730   39.7050 H   0  0  0  0  0  0  0  0  0  0  0  0
   34.5170   28.7820   40.5350 H   0  0  0  0  0  0  0  0  0  0  0  0
   35.8610   27.9490   39.1440 C   0  0  0  0  0  0  0  0  0  0  0  0
   35.4310   26.9990   39.4920 H   0  0  0  0  0  0  0  0  0  0  0  0
   36.9470   27.8430   39.0310 H   0  0  0  0  0  0  0  0  0  0  0  0
   33.1350   29.1030   36.8210 C   0  0  0  0  0  0  0  0  0  0  0  0
   33.8340   28.6950   37.9810 C   0  0  0  0  0  0  0  0  0  0  0  0
   35.1760   28.3680   37.9060 C   0  0  0  0  0  0  0  0  0  0  0  0
   35.7470   28.4680   36.6710 N   0  0  0  0  0  0  0  0  0  0  0  0
   35.0810   28.8520   35.5890 C   0  0  0  0  0  0  0  0  0  0  0  0
   33.7800   29.1730   35.6430 N   0  0  0  0  0  0  0  0  0  0  0  0
   32.0770   29.3400   36.9790 H   0  0  0  0  0  0  0  0  0  0  0  0
   33.3110   28.6410   38.9240 H   0  0  0  0  0  0  0  0  0  0  0  0
   35.6340   28.8970   34.6590 H   0  0  0  0  0  0  0  0  0  0  0  0
  1  6  2  0  0  0  0
  1  2  1  0  0  0  0
  2  3  2  0  0  0  0
  3  4  1  0  0  0  0
  3  8  1  0  0  0  0
  4  9  1  0  0  0  0
  5 10  1  0  0  0  0
  5  4  2  0  0  0  0
  6  5  1  0  0  0  0
  7  2  1  0  0  0  0
 11 12  1  0  0  0  0
 11  6  1  0  0  0  0
 12 13  1  0  0  0  0
 14 13  1  0  0  0  0
 15 14  1  0  0  0  0
 16 14  1  0  0  0  0
 16 17  1  0  0  0  0
 17 11  1  0  0  0  0
 18 20  1  0  0  0  0
 18  1  1  0  0  0  0
 19 18  1  0  0  0  0
 21 22  1  0  0  0  0
 21 18  1  0  0  0  0
 23 21  1  0  0  0  0
 24 30  1  0  0  0  0
 24 25  1  0  0  0  0
 25 31  1  0  0  0  0
 26 25  2  0  0  0  0
 26 21  1  0  0  0  0
 27 26  1  0  0  0  0
 28 29  1  0  0  0  0
 28 27  2  0  0  0  0
 29 24  2  0  0  0  0
 32 28  1  0  0  0  0
M  END
>  <minimizedAffinity>
-4.90125656

$$$$
