
 OpenBabel03252502333D

 22 23  0  0  0  0  0  0  0  0999 V2000
   35.7080   29.1090   39.8080 C   0  0  0  0  0  0  0  0  0  0  0  0
   36.4060   30.3220   39.7110 C   0  0  0  0  0  0  0  0  0  0  0  0
   37.3570   30.5950   40.7360 C   0  0  0  0  0  0  0  0  0  0  0  0
   37.5220   29.6740   41.7260 N   0  0  0  0  0  0  0  0  0  0  0  0
   36.8270   28.5250   41.7750 C   0  0  0  0  0  0  0  0  0  0  0  0
   35.9320   28.2580   40.8180 N   0  0  0  0  0  0  0  0  0  0  0  0
   36.3000   31.0600   38.9530 H   0  0  0  0  0  0  0  0  0  0  0  0
   38.1180   31.7730   40.7500 N   0  0  0  0  0  0  0  0  0  0  0  0
   39.3970   31.8270   41.4290 C   0  0  0  0  0  2  0  0  0  0  0  0
   40.3800   32.5020   40.5200 C   0  0  0  0  0  2  0  0  0  0  0  0
   39.9580   33.8650   40.0770 C   0  0  0  0  0  3  0  0  0  0  0  0
   40.5470   34.6320   40.6250 H   0  0  0  0  0  0  0  0  0  0  0  0
   38.4920   34.1600   40.3360 C   0  0  0  0  0  2  0  0  0  0  0  0
   37.6200   32.9550   40.0750 C   0  0  0  0  0  2  0  0  0  0  0  0
   34.7160   28.8380   38.7280 C   0  0  0  0  0  0  0  0  0  0  0  0
   34.7080   27.5310   38.3410 F   0  0  0  0  0  0  0  0  0  0  0  0
   33.4470   29.2370   39.1830 F   0  0  0  0  0  0  0  0  0  0  0  0
   34.9860   29.6800   37.6370 F   0  0  0  0  0  0  0  0  0  0  0  0
   37.0320   27.5440   42.8680 C   0  0  0  0  0  0  0  0  0  0  0  0
   38.0820   27.9190   43.6790 F   0  0  0  0  0  0  0  0  0  0  0  0
   37.2120   26.2630   42.3590 F   0  0  0  0  0  0  0  0  0  0  0  0
   35.9050   27.4590   43.6790 F   0  0  0  0  0  0  0  0  0  0  0  0
  1  6  1  0  0  0  0
  2  1  2  0  0  0  0
  2  3  1  0  0  0  0
  3  8  1  0  0  0  0
  3  4  2  0  0  0  0
  4  5  1  0  0  0  0
  5 19  1  0  0  0  0
  6  5  2  0  0  0  0
  7  2  1  0  0  0  0
  8  9  1  0  0  0  0
 10  9  1  0  0  0  0
 11 13  1  0  0  0  0
 11 10  1  0  0  0  0
 11 12  1  0  0  0  0
 14 13  1  0  0  0  0
 14  8  1  0  0  0  0
 15 17  1  0  0  0  0
 15  1  1  0  0  0  0
 16 15  1  0  0  0  0
 18 15  1  0  0  0  0
 19 20  1  0  0  0  0
 19 22  1  0  0  0  0
 21 19  1  0  0  0  0
M  END
>  <minimizedAffinity>
-5.69181585

$$$$

 OpenBabel03252502333D

 22 23  0  0  0  0  0  0  0  0999 V2000
   36.7450   28.4520   41.7560 C   0  0  0  0  0  0  0  0  0  0  0  0
   37.5180   29.6200   41.8200 C   0  0  0  0  0  0  0  0  0  0  0  0
   37.3310   30.5690   40.7740 C   0  0  0  0  0  0  0  0  0  0  0  0
   36.4270   30.2810   39.7960 N   0  0  0  0  0  0  0  0  0  0  0  0
   35.7110   29.1460   39.7780 C   0  0  0  0  0  0  0  0  0  0  0  0
   35.8780   28.2480   40.7550 N   0  0  0  0  0  0  0  0  0  0  0  0
   38.2300   29.8730   42.5690 H   0  0  0  0  0  0  0  0  0  0  0  0
   38.0450   31.7750   40.7280 N   0  0  0  0  0  0  0  0  0  0  0  0
   39.3420   31.8990   41.3630 C   0  0  0  0  0  2  0  0  0  0  0  0
   40.2680   32.5820   40.4020 C   0  0  0  0  0  2  0  0  0  0  0  0
   39.7800   33.9140   39.9330 C   0  0  0  0  0  3  0  0  0  0  0  0
   40.3550   34.7190   40.4380 H   0  0  0  0  0  0  0  0  0  0  0  0
   38.3120   34.1610   40.2320 C   0  0  0  0  0  2  0  0  0  0  0  0
   37.4800   32.9160   40.0360 C   0  0  0  0  0  2  0  0  0  0  0  0
   36.9530   27.4690   42.8580 C   0  0  0  0  0  0  0  0  0  0  0  0
   35.8690   27.3660   43.6780 F   0  0  0  0  0  0  0  0  0  0  0  0
   37.2720   26.2250   42.2850 F   0  0  0  0  0  0  0  0  0  0  0  0
   38.0980   27.8320   43.5850 F   0  0  0  0  0  0  0  0  0  0  0  0
   34.7350   28.8650   38.6970 C   0  0  0  0  0  0  0  0  0  0  0  0
   33.4550   29.1960   39.0880 F   0  0  0  0  0  0  0  0  0  0  0  0
   34.8170   27.5400   38.2840 F   0  0  0  0  0  0  0  0  0  0  0  0
   35.0180   29.6190   37.5620 F   0  0  0  0  0  0  0  0  0  0  0  0
  1  2  1  0  0  0  0
  1 15  1  0  0  0  0
  2  7  1  0  0  0  0
  3  2  2  0  0  0  0
  4  3  1  0  0  0  0
  5  4  2  0  0  0  0
  5  6  1  0  0  0  0
  6  1  2  0  0  0  0
  8  3  1  0  0  0  0
  8  9  1  0  0  0  0
 10  9  1  0  0  0  0
 11 13  1  0  0  0  0
 11 10  1  0  0  0  0
 11 12  1  0  0  0  0
 14 13  1  0  0  0  0
 14  8  1  0  0  0  0
 15 18  1  0  0  0  0
 15 16  1  0  0  0  0
 17 15  1  0  0  0  0
 19 20  1  0  0  0  0
 19  5  1  0  0  0  0
 21 19  1  0  0  0  0
 22 19  1  0  0  0  0
M  END
>  <minimizedAffinity>
-5.63708735

$$$$

 OpenBabel03252502333D

 22 23  0  0  0  0  0  0  0  0999 V2000
   36.3060   27.9410   39.3710 C   0  0  0  0  0  0  0  0  0  0  0  0
   36.8170   29.2250   39.1280 C   0  0  0  0  0  0  0  0  0  0  0  0
   37.4360   29.8850   40.2280 C   0  0  0  0  0  0  0  0  0  0  0  0
   37.4890   29.2360   41.4240 N   0  0  0  0  0  0  0  0  0  0  0  0
   36.9840   28.0050   41.6080 C   0  0  0  0  0  0  0  0  0  0  0  0
   36.4010   27.3750   40.5820 N   0  0  0  0  0  0  0  0  0  0  0  0
   36.7900   29.7570   38.2080 H   0  0  0  0  0  0  0  0  0  0  0  0
   37.9840   31.1710   40.1110 N   0  0  0  0  0  0  0  0  0  0  0  0
   37.6260   32.0360   39.0040 C   0  0  0  0  0  2  0  0  0  0  0  0
   37.3350   33.4000   39.5530 C   0  0  0  0  0  2  0  0  0  0  0  0
   38.4600   33.9880   40.3420 C   0  0  0  0  0  3  0  0  0  0  0  0
   38.9630   34.7750   39.7410 H   0  0  0  0  0  0  0  0  0  0  0  0
   39.5230   32.9760   40.7290 C   0  0  0  0  0  2  0  0  0  0  0  0
   38.9220   31.6440   41.1100 C   0  0  0  0  0  2  0  0  0  0  0  0
   35.6620   27.2630   38.2100 C   0  0  0  0  0  0  0  0  0  0  0  0
   36.3520   27.4460   37.0490 F   0  0  0  0  0  0  0  0  0  0  0  0
   35.5350   25.8960   38.5120 F   0  0  0  0  0  0  0  0  0  0  0  0
   34.3420   27.7270   38.0850 F   0  0  0  0  0  0  0  0  0  0  0  0
   37.0600   27.3270   42.9240 C   0  0  0  0  0  0  0  0  0  0  0  0
   35.8730   27.4530   43.6150 F   0  0  0  0  0  0  0  0  0  0  0  0
   38.1360   27.7990   43.6670 F   0  0  0  0  0  0  0  0  0  0  0  0
   37.2940   25.9640   42.7700 F   0  0  0  0  0  0  0  0  0  0  0  0
  1  6  1  0  0  0  0
  2  1  2  0  0  0  0
  2  3  1  0  0  0  0
  3  4  2  0  0  0  0
  4  5  1  0  0  0  0
  5 19  1  0  0  0  0
  6  5  2  0  0  0  0
  7  2  1  0  0  0  0
  8  3  1  0  0  0  0
  8 14  1  0  0  0  0
  9 10  1  0  0  0  0
  9  8  1  0  0  0  0
 10 11  1  0  0  0  0
 11 13  1  0  0  0  0
 12 11  1  0  0  0  0
 13 14  1  0  0  0  0
 15 17  1  0  0  0  0
 15  1  1  0  0  0  0
 16 15  1  0  0  0  0
 18 15  1  0  0  0  0
 19 20  1  0  0  0  0
 19 21  1  0  0  0  0
 22 19  1  0  0  0  0
M  END
>  <minimizedAffinity>
-5.13910294

$$$$

 OpenBabel03252502333D

 22 23  0  0  0  0  0  0  0  0999 V2000
   37.1430   30.1450   38.0520 C   0  0  0  0  0  0  0  0  0  0  0  0
   37.2400   29.1330   39.0180 C   0  0  0  0  0  0  0  0  0  0  0  0
   37.6590   29.5300   40.3200 C   0  0  0  0  0  0  0  0  0  0  0  0
   37.9330   30.8460   40.5360 N   0  0  0  0  0  0  0  0  0  0  0  0
   37.8270   31.7790   39.5760 C   0  0  0  0  0  0  0  0  0  0  0  0
   37.4340   31.4180   38.3500 N   0  0  0  0  0  0  0  0  0  0  0  0
   37.0330   28.0980   38.8800 H   0  0  0  0  0  0  0  0  0  0  0  0
   37.7940   28.6100   41.3710 N   0  0  0  0  0  0  0  0  0  0  0  0
   38.2830   27.2680   41.1290 C   0  0  0  0  0  2  0  0  0  0  0  0
   39.3090   26.9500   42.1740 C   0  0  0  0  0  2  0  0  0  0  0  0
   38.8080   27.0850   43.5760 C   0  0  0  0  0  3  0  0  0  0  0  0
   38.6370   26.0760   44.0080 H   0  0  0  0  0  0  0  0  0  0  0  0
   37.4960   27.8420   43.6800 C   0  0  0  0  0  2  0  0  0  0  0  0
   37.4400   29.0070   42.7190 C   0  0  0  0  0  2  0  0  0  0  0  0
   36.7040   29.7120   36.6940 C   0  0  0  0  0  0  0  0  0  0  0  0
   37.3450   28.5860   36.2710 F   0  0  0  0  0  0  0  0  0  0  0  0
   35.3110   29.5200   36.7210 F   0  0  0  0  0  0  0  0  0  0  0  0
   36.9020   30.7690   35.7910 F   0  0  0  0  0  0  0  0  0  0  0  0
   38.1340   33.2050   39.8470 C   0  0  0  0  0  0  0  0  0  0  0  0
   38.3870   33.4120   41.1860 F   0  0  0  0  0  0  0  0  0  0  0  0
   37.1130   34.0300   39.3870 F   0  0  0  0  0  0  0  0  0  0  0  0
   39.2700   33.6100   39.1540 F   0  0  0  0  0  0  0  0  0  0  0  0
  1  6  2  0  0  0  0
  1  2  1  0  0  0  0
  2  3  2  0  0  0  0
  3  4  1  0  0  0  0
  3  8  1  0  0  0  0
  5 19  1  0  0  0  0
  5  4  2  0  0  0  0
  6  5  1  0  0  0  0
  7  2  1  0  0  0  0
  8 14  1  0  0  0  0
  9  8  1  0  0  0  0
  9 10  1  0  0  0  0
 10 11  1  0  0  0  0
 11 13  1  0  0  0  0
 11 12  1  0  0  0  0
 14 13  1  0  0  0  0
 15 17  1  0  0  0  0
 15  1  1  0  0  0  0
 16 15  1  0  0  0  0
 18 15  1  0  0  0  0
 19 20  1  0  0  0  0
 21 19  1  0  0  0  0
 22 19  1  0  0  0  0
M  END
>  <minimizedAffinity>
-5.02032375

$$$$

 OpenBabel03252502333D

 22 23  0  0  0  0  0  0  0  0999 V2000
   35.7430   29.2940   39.3830 C   0  0  0  0  0  0  0  0  0  0  0  0
   36.2770   28.3570   40.2800 C   0  0  0  0  0  0  0  0  0  0  0  0
   37.3810   28.7870   41.0710 C   0  0  0  0  0  0  0  0  0  0  0  0
   37.8380   30.0590   40.9050 N   0  0  0  0  0  0  0  0  0  0  0  0
   37.2930   30.9200   40.0300 C   0  0  0  0  0  0  0  0  0  0  0  0
   36.2550   30.5280   39.2820 N   0  0  0  0  0  0  0  0  0  0  0  0
   35.9430   27.3580   40.4320 H   0  0  0  0  0  0  0  0  0  0  0  0
   38.0010   27.9420   42.0030 N   0  0  0  0  0  0  0  0  0  0  0  0
   37.3250   26.7630   42.5060 C   0  0  0  0  0  2  0  0  0  0  0  0
   38.2920   25.6180   42.4660 C   0  0  0  0  0  2  0  0  0  0  0  0
   39.5560   25.8660   43.2240 C   0  0  0  0  0  3  0  0  0  0  0  0
   39.5360   25.2950   44.1770 H   0  0  0  0  0  0  0  0  0  0  0  0
   39.7700   27.3250   43.5840 C   0  0  0  0  0  2  0  0  0  0  0  0
   39.3370   28.2500   42.4710 C   0  0  0  0  0  2  0  0  0  0  0  0
   34.5880   28.8290   38.5630 C   0  0  0  0  0  0  0  0  0  0  0  0
   34.6560   27.4990   38.2710 F   0  0  0  0  0  0  0  0  0  0  0  0
   33.4030   29.1330   39.2560 F   0  0  0  0  0  0  0  0  0  0  0  0
   34.5230   29.5960   37.3880 F   0  0  0  0  0  0  0  0  0  0  0  0
   37.8150   32.2990   39.8750 C   0  0  0  0  0  0  0  0  0  0  0  0
   36.8420   33.1460   39.3890 F   0  0  0  0  0  0  0  0  0  0  0  0
   38.9510   32.3140   39.0730 F   0  0  0  0  0  0  0  0  0  0  0  0
   38.2260   32.8160   41.0990 F   0  0  0  0  0  0  0  0  0  0  0  0
  1  2  1  0  0  0  0
  2  7  1  0  0  0  0
  2  3  2  0  0  0  0
  3  8  1  0  0  0  0
  4  3  1  0  0  0  0
  5  4  2  0  0  0  0
  6  1  2  0  0  0  0
  6  5  1  0  0  0  0
  8 14  1  0  0  0  0
  8  9  1  0  0  0  0
 10  9  1  0  0  0  0
 10 11  1  0  0  0  0
 11 13  1  0  0  0  0
 11 12  1  0  0  0  0
 14 13  1  0  0  0  0
 15 17  1  0  0  0  0
 15  1  1  0  0  0  0
 16 15  1  0  0  0  0
 18 15  1  0  0  0  0
 19  5  1  0  0  0  0
 19 22  1  0  0  0  0
 20 19  1  0  0  0  0
 21 19  1  0  0  0  0
M  END
>  <minimizedAffinity>
-4.99185133

$$$$

 OpenBabel03252502333D

 22 23  0  0  0  0  0  0  0  0999 V2000
   37.1350   28.7480   41.3570 C   0  0  0  0  0  0  0  0  0  0  0  0
   37.9380   29.8790   41.1450 C   0  0  0  0  0  0  0  0  0  0  0  0
   37.6040   30.7000   40.0300 C   0  0  0  0  0  0  0  0  0  0  0  0
   36.5430   30.3380   39.2570 N   0  0  0  0  0  0  0  0  0  0  0  0
   35.8040   29.2440   39.5010 C   0  0  0  0  0  0  0  0  0  0  0  0
   36.1080   28.4650   40.5450 N   0  0  0  0  0  0  0  0  0  0  0  0
   38.7720   30.1860   41.7290 H   0  0  0  0  0  0  0  0  0  0  0  0
   38.3310   31.8570   39.7140 N   0  0  0  0  0  0  0  0  0  0  0  0
   37.7250   33.1690   39.8150 C   0  0  0  0  0  2  0  0  0  0  0  0
   38.6900   34.0770   40.5180 C   0  0  0  0  0  2  0  0  0  0  0  0
   40.0300   34.1610   39.8600 C   0  0  0  0  0  3  0  0  0  0  0  0
   40.1220   35.1330   39.3300 H   0  0  0  0  0  0  0  0  0  0  0  0
   40.2720   33.0690   38.8340 C   0  0  0  0  0  2  0  0  0  0  0  0
   39.7100   31.7400   39.2820 C   0  0  0  0  0  2  0  0  0  0  0  0
   37.4980   27.8990   42.5270 C   0  0  0  0  0  0  0  0  0  0  0  0
   37.6140   28.6180   43.6800 F   0  0  0  0  0  0  0  0  0  0  0  0
   36.5290   26.8890   42.6580 F   0  0  0  0  0  0  0  0  0  0  0  0
   38.6920   27.2150   42.2430 F   0  0  0  0  0  0  0  0  0  0  0  0
   34.6540   28.8790   38.6380 C   0  0  0  0  0  0  0  0  0  0  0  0
   34.6150   27.5200   38.4120 F   0  0  0  0  0  0  0  0  0  0  0  0
   34.6800   29.5950   37.4460 F   0  0  0  0  0  0  0  0  0  0  0  0
   33.4490   29.2220   39.2430 F   0  0  0  0  0  0  0  0  0  0  0  0
  1 15  1  0  0  0  0
  2  1  1  0  0  0  0
  2  7  1  0  0  0  0
  3  2  2  0  0  0  0
  4  5  2  0  0  0  0
  4  3  1  0  0  0  0
  5  6  1  0  0  0  0
  6  1  2  0  0  0  0
  8  9  1  0  0  0  0
  8  3  1  0  0  0  0
  9 10  1  0  0  0  0
 11 10  1  0  0  0  0
 12 11  1  0  0  0  0
 13 14  1  0  0  0  0
 13 11  1  0  0  0  0
 14  8  1  0  0  0  0
 15 17  1  0  0  0  0
 15 16  1  0  0  0  0
 18 15  1  0  0  0  0
 19 22  1  0  0  0  0
 19  5  1  0  0  0  0
 20 19  1  0  0  0  0
 21 19  1  0  0  0  0
M  END
>  <minimizedAffinity>
-4.98966312

$$$$

 OpenBabel03252502333D

 22 23  0  0  0  0  0  0  0  0999 V2000
   36.5010   29.0780   39.9730 C   0  0  0  0  0  0  0  0  0  0  0  0
   36.8850   27.8990   40.6280 C   0  0  0  0  0  0  0  0  0  0  0  0
   38.0250   27.9820   41.4770 C   0  0  0  0  0  0  0  0  0  0  0  0
   38.6570   29.1820   41.5950 N   0  0  0  0  0  0  0  0  0  0  0  0
   38.2510   30.2850   40.9440 C   0  0  0  0  0  0  0  0  0  0  0  0
   37.1810   30.2190   40.1440 N   0  0  0  0  0  0  0  0  0  0  0  0
   36.4130   26.9480   40.5560 H   0  0  0  0  0  0  0  0  0  0  0  0
   38.5060   26.8710   42.1860 N   0  0  0  0  0  0  0  0  0  0  0  0
   37.7260   25.6540   42.2840 C   0  0  0  0  0  2  0  0  0  0  0  0
   38.6340   24.4930   42.0080 C   0  0  0  0  0  2  0  0  0  0  0  0
   39.8270   24.4310   42.9060 C   0  0  0  0  0  3  0  0  0  0  0  0
   39.6840   23.6250   43.6570 H   0  0  0  0  0  0  0  0  0  0  0  0
   40.0760   25.7160   43.6740 C   0  0  0  0  0  2  0  0  0  0  0  0
   39.8030   26.9390   42.8300 C   0  0  0  0  0  2  0  0  0  0  0  0
   35.3060   28.9750   39.0870 C   0  0  0  0  0  0  0  0  0  0  0  0
   34.1360   29.1550   39.7640 F   0  0  0  0  0  0  0  0  0  0  0  0
   35.4400   29.9180   38.0530 F   0  0  0  0  0  0  0  0  0  0  0  0
   35.3220   27.7280   38.4400 F   0  0  0  0  0  0  0  0  0  0  0  0
   38.9620   31.5780   41.0960 C   0  0  0  0  0  0  0  0  0  0  0  0
   39.9330   31.7250   40.1270 F   0  0  0  0  0  0  0  0  0  0  0  0
   39.4930   31.7070   42.3750 F   0  0  0  0  0  0  0  0  0  0  0  0
   38.0860   32.6490   40.9550 F   0  0  0  0  0  0  0  0  0  0  0  0
  1  6  2  0  0  0  0
  1  2  1  0  0  0  0
  2  3  2  0  0  0  0
  3  4  1  0  0  0  0
  3  8  1  0  0  0  0
  5 19  1  0  0  0  0
  5  4  2  0  0  0  0
  6  5  1  0  0  0  0
  7  2  1  0  0  0  0
  8  9  1  0  0  0  0
  8 14  1  0  0  0  0
 10  9  1  0  0  0  0
 10 11  1  0  0  0  0
 11 12  1  0  0  0  0
 11 13  1  0  0  0  0
 14 13  1  0  0  0  0
 15 16  1  0  0  0  0
 15  1  1  0  0  0  0
 17 15  1  0  0  0  0
 18 15  1  0  0  0  0
 19 21  1  0  0  0  0
 20 19  1  0  0  0  0
 22 19  1  0  0  0  0
M  END
>  <minimizedAffinity>
-4.85575199

$$$$

 OpenBabel03252502333D

 22 23  0  0  0  0  0  0  0  0999 V2000
   35.5100   28.9160   37.9810 C   0  0  0  0  0  0  0  0  0  0  0  0
   35.7670   28.2900   39.2100 C   0  0  0  0  0  0  0  0  0  0  0  0
   36.7180   28.9210   40.0620 C   0  0  0  0  0  0  0  0  0  0  0  0
   37.3060   30.0720   39.6320 N   0  0  0  0  0  0  0  0  0  0  0  0
   37.0270   30.6320   38.4440 C   0  0  0  0  0  0  0  0  0  0  0  0
   36.1350   30.0490   37.6360 N   0  0  0  0  0  0  0  0  0  0  0  0
   35.3250   27.3930   39.5730 H   0  0  0  0  0  0  0  0  0  0  0  0
   37.0600   28.3930   41.3150 N   0  0  0  0  0  0  0  0  0  0  0  0
   36.9560   26.9710   41.5790 C   0  0  0  0  0  2  0  0  0  0  0  0
   38.2100   26.5320   42.2720 C   0  0  0  0  0  2  0  0  0  0  0  0
   38.5020   27.2840   43.5310 C   0  0  0  0  0  3  0  0  0  0  0  0
   38.2690   26.6420   44.4080 H   0  0  0  0  0  0  0  0  0  0  0  0
   37.6870   28.5550   43.6800 C   0  0  0  0  0  2  0  0  0  0  0  0
   37.5250   29.2790   42.3640 C   0  0  0  0  0  2  0  0  0  0  0  0
   34.5120   28.2430   37.1010 C   0  0  0  0  0  0  0  0  0  0  0  0
   33.9970   27.1130   37.6640 F   0  0  0  0  0  0  0  0  0  0  0  0
   33.4940   29.1650   36.8020 F   0  0  0  0  0  0  0  0  0  0  0  0
   35.1110   27.9570   35.8640 F   0  0  0  0  0  0  0  0  0  0  0  0
   37.6870   31.8870   38.0070 C   0  0  0  0  0  0  0  0  0  0  0  0
   39.0390   31.8560   38.2760 F   0  0  0  0  0  0  0  0  0  0  0  0
   37.0770   32.9960   38.5830 F   0  0  0  0  0  0  0  0  0  0  0  0
   37.5520   32.0690   36.6340 F   0  0  0  0  0  0  0  0  0  0  0  0
  1  2  1  0  0  0  0
  2  7  1  0  0  0  0
  2  3  2  0  0  0  0
  3  8  1  0  0  0  0
  4  3  1  0  0  0  0
  5  4  2  0  0  0  0
  6  1  2  0  0  0  0
  6  5  1  0  0  0  0
  8  9  1  0  0  0  0
  8 14  1  0  0  0  0
  9 10  1  0  0  0  0
 10 11  1  0  0  0  0
 11 13  1  0  0  0  0
 11 12  1  0  0  0  0
 14 13  1  0  0  0  0
 15 16  1  0  0  0  0
 15  1  1  0  0  0  0
 17 15  1  0  0  0  0
 18 15  1  0  0  0  0
 19 20  1  0  0  0  0
 19  5  1  0  0  0  0
 19 21  1  0  0  0  0
 22 19  1  0  0  0  0
M  END
>  <minimizedAffinity>
-4.84953165

$$$$

 OpenBabel03252502333D

 22 23  0  0  0  0  0  0  0  0999 V2000
   37.5720   28.0010   41.8230 C   0  0  0  0  0  0  0  0  0  0  0  0
   37.1120   27.7690   40.5180 C   0  0  0  0  0  0  0  0  0  0  0  0
   37.4340   28.7540   39.5420 C   0  0  0  0  0  0  0  0  0  0  0  0
   38.1550   29.8410   39.9350 N   0  0  0  0  0  0  0  0  0  0  0  0
   38.5720   30.0190   41.1990 C   0  0  0  0  0  0  0  0  0  0  0  0
   38.2760   29.1000   42.1240 N   0  0  0  0  0  0  0  0  0  0  0  0
   36.5470   26.9320   40.1820 H   0  0  0  0  0  0  0  0  0  0  0  0
   37.0310   28.6350   38.2040 N   0  0  0  0  0  0  0  0  0  0  0  0
   36.1250   29.5960   37.6090 C   0  0  0  0  0  2  0  0  0  0  0  0
   36.6700   29.9840   36.2670 C   0  0  0  0  0  2  0  0  0  0  0  0
   36.8920   28.8270   35.3470 C   0  0  0  0  0  3  0  0  0  0  0  0
   36.0950   28.8100   34.5740 H   0  0  0  0  0  0  0  0  0  0  0  0
   36.8610   27.4810   36.0480 C   0  0  0  0  0  2  0  0  0  0  0  0
   37.5280   27.5350   37.4020 C   0  0  0  0  0  2  0  0  0  0  0  0
   37.2260   26.9610   42.8330 C   0  0  0  0  0  0  0  0  0  0  0  0
   36.8520   25.7810   42.2620 F   0  0  0  0  0  0  0  0  0  0  0  0
   38.3350   26.7810   43.6790 F   0  0  0  0  0  0  0  0  0  0  0  0
   36.2130   27.4540   43.6710 F   0  0  0  0  0  0  0  0  0  0  0  0
   39.3570   31.2150   41.5920 C   0  0  0  0  0  0  0  0  0  0  0  0
   40.5170   31.3110   40.8540 F   0  0  0  0  0  0  0  0  0  0  0  0
   39.6180   31.2120   42.9580 F   0  0  0  0  0  0  0  0  0  0  0  0
   38.6350   32.3820   41.3620 F   0  0  0  0  0  0  0  0  0  0  0  0
  1  6  1  0  0  0  0
  1 15  1  0  0  0  0
  2  1  2  0  0  0  0
  3  4  2  0  0  0  0
  3  2  1  0  0  0  0
  4  5  1  0  0  0  0
  5 19  1  0  0  0  0
  5  6  2  0  0  0  0
  7  2  1  0  0  0  0
  8  3  1  0  0  0  0
  9  8  1  0  0  0  0
 10  9  1  0  0  0  0
 11 13  1  0  0  0  0
 11 10  1  0  0  0  0
 12 11  1  0  0  0  0
 13 14  1  0  0  0  0
 14  8  1  0  0  0  0
 15 18  1  0  0  0  0
 15 17  1  0  0  0  0
 16 15  1  0  0  0  0
 19 21  1  0  0  0  0
 20 19  1  0  0  0  0
 22 19  1  0  0  0  0
M  END
>  <minimizedAffinity>
-4.71223116

$$$$
