
 OpenBabel03252500423D

 26 28  0  0  1  0  0  0  0  0999 V2000
   36.2060   30.7700   40.0810 C   0  0  1  0  0  0  0  0  0  0  0  0
   35.3120   29.5310   39.9600 C   0  0  0  0  0  0  0  0  0  0  0  0
   36.2030   29.7440   41.1440 C   0  0  1  0  0  0  0  0  0  0  0  0
   35.5840   31.6470   40.3570 H   0  0  0  0  0  0  0  0  0  0  0  0
   35.6520   28.7050   39.2790 H   0  0  0  0  0  0  0  0  0  0  0  0
   34.2360   29.6040   40.0940 H   0  0  0  0  0  0  0  0  0  0  0  0
   35.7130   29.9780   42.1310 H   0  0  0  0  0  0  0  0  0  0  0  0
   37.3990   28.9570   41.3680 N   0  0  0  0  0  0  0  0  0  0  0  0
   36.8900   27.6410   41.8110 C   0  0  0  0  0  2  0  0  0  0  0  0
   38.0230   26.7780   42.3030 C   0  0  0  0  0  2  0  0  0  0  0  0
   38.6870   27.4590   43.4800 C   0  0  0  0  0  3  0  0  0  0  0  0
   39.4290   26.8430   43.9850 H   0  0  0  0  0  0  0  0  0  0  0  0
   39.2680   28.7690   42.9290 C   0  0  0  0  0  2  0  0  0  0  0  0
   38.0570   29.5790   42.5230 C   0  0  0  0  0  2  0  0  0  0  0  0
   37.2920   30.8240   39.0680 C   0  0  0  0  0  0  0  0  0  0  0  0
   36.8620   30.9670   38.0250 H   0  0  0  0  0  0  0  0  0  0  0  0
   37.9300   29.9310   38.9770 H   0  0  0  0  0  0  0  0  0  0  0  0
   38.2280   31.9530   39.3050 C   0  0  0  0  0  0  0  0  0  0  0  0
   37.6960   33.0480   39.9480 C   0  0  0  0  0  0  0  0  0  0  0  0
   38.4950   34.1600   40.2050 C   0  0  0  0  0  0  0  0  0  0  0  0
   39.7910   34.0810   39.7880 N   0  0  0  0  0  0  0  0  0  0  0  0
   40.2990   32.9930   39.1560 C   0  0  0  0  0  0  0  0  0  0  0  0
   39.5200   31.9360   38.9170 N   0  0  0  0  0  0  0  0  0  0  0  0
   36.7460   33.3350   40.3650 H   0  0  0  0  0  0  0  0  0  0  0  0
   38.3140   35.1010   40.6760 H   0  0  0  0  0  0  0  0  0  0  0  0
   41.3430   32.9810   38.8430 H   0  0  0  0  0  0  0  0  0  0  0  0
  1  4  1  1  0  0  0
  1  3  1  0  0  0  0
  2  1  1  0  0  0  0
  2  6  1  0  0  0  0
  2  3  1  0  0  0  0
  3  8  1  0  0  0  0
  3  7  1  1  0  0  0
  5  2  1  0  0  0  0
  8  9  1  0  0  0  0
  8 14  1  0  0  0  0
  9 10  1  0  0  0  0
 10 11  1  0  0  0  0
 11 12  1  0  0  0  0
 13 11  1  0  0  0  0
 14 13  1  0  0  0  0
 15 18  1  0  0  0  0
 15  1  1  0  0  0  0
 16 15  1  0  0  0  0
 17 15  1  0  0  0  0
 18 19  1  0  0  0  0
 19 20  2  0  0  0  0
 19 24  1  0  0  0  0
 20 25  1  0  0  0  0
 21 20  1  0  0  0  0
 22 21  2  0  0  0  0
 23 22  1  0  0  0  0
 23 18  2  0  0  0  0
 26 22  1  0  0  0  0
M  END
>  <minimizedAffinity>
-4.6543541

$$$$

 OpenBabel03252500423D

 26 28  0  0  1  0  0  0  0  0999 V2000
   36.9670   28.3820   42.4330 C   0  0  1  0  0  0  0  0  0  0  0  0
   36.4920   27.3380   43.4490 C   0  0  0  0  0  0  0  0  0  0  0  0
   37.7000   27.1100   42.5930 C   0  0  1  0  0  0  0  0  0  0  0  0
   37.4700   29.2140   42.9690 H   0  0  0  0  0  0  0  0  0  0  0  0
   35.6110   26.6990   43.1690 H   0  0  0  0  0  0  0  0  0  0  0  0
   36.6270   27.4950   44.5160 H   0  0  0  0  0  0  0  0  0  0  0  0
   38.7060   27.1170   43.0990 H   0  0  0  0  0  0  0  0  0  0  0  0
   37.7090   26.1590   41.5010 N   0  0  0  0  0  0  0  0  0  0  0  0
   36.9760   24.9880   42.0310 C   0  0  0  0  0  2  0  0  0  0  0  0
   37.0980   23.8210   41.0870 C   0  0  0  0  0  2  0  0  0  0  0  0
   38.5580   23.4510   40.9450 C   0  0  0  0  0  3  0  0  0  0  0  0
   38.7280   22.5300   40.3890 H   0  0  0  0  0  0  0  0  0  0  0  0
   39.2370   24.6720   40.3090 C   0  0  0  0  0  2  0  0  0  0  0  0
   39.1140   25.7600   41.3520 C   0  0  0  0  0  2  0  0  0  0  0  0
   36.0230   28.5890   41.3030 C   0  0  0  0  0  0  0  0  0  0  0  0
   34.9680   28.7640   41.6880 H   0  0  0  0  0  0  0  0  0  0  0  0
   35.9170   27.7580   40.5890 H   0  0  0  0  0  0  0  0  0  0  0  0
   36.3810   29.7730   40.4800 C   0  0  0  0  0  0  0  0  0  0  0  0
   36.4100   29.5710   39.1190 C   0  0  0  0  0  0  0  0  0  0  0  0
   36.7450   30.6200   38.2660 C   0  0  0  0  0  0  0  0  0  0  0  0
   37.0300   31.8140   38.8610 N   0  0  0  0  0  0  0  0  0  0  0  0
   36.9970   31.9950   40.2060 C   0  0  0  0  0  0  0  0  0  0  0  0
   36.6740   30.9790   41.0090 N   0  0  0  0  0  0  0  0  0  0  0  0
   36.2240   28.7590   38.4360 H   0  0  0  0  0  0  0  0  0  0  0  0
   36.8320   30.7060   37.2060 H   0  0  0  0  0  0  0  0  0  0  0  0
   37.2340   32.9700   40.6320 H   0  0  0  0  0  0  0  0  0  0  0  0
  1  3  1  0  0  0  0
  1  4  1  1  0  0  0
  1  2  1  0  0  0  0
  2  6  1  0  0  0  0
  3  7  1  1  0  0  0
  3  2  1  0  0  0  0
  5  2  1  0  0  0  0
  8  9  1  0  0  0  0
  8  3  1  0  0  0  0
 10  9  1  0  0  0  0
 11 10  1  0  0  0  0
 12 11  1  0  0  0  0
 13 11  1  0  0  0  0
 13 14  1  0  0  0  0
 14  8  1  0  0  0  0
 15 16  1  0  0  0  0
 15  1  1  0  0  0  0
 17 15  1  0  0  0  0
 18 23  1  0  0  0  0
 18 15  1  0  0  0  0
 19 18  2  0  0  0  0
 20 21  2  0  0  0  0
 20 19  1  0  0  0  0
 21 22  1  0  0  0  0
 22 26  1  0  0  0  0
 22 23  2  0  0  0  0
 24 19  1  0  0  0  0
 25 20  1  0  0  0  0
M  END
>  <minimizedAffinity>
-4.57416105

$$$$

 OpenBabel03252500423D

 26 28  0  0  1  0  0  0  0  0999 V2000
   37.4500   28.4150   42.9320 C   0  0  1  0  0  0  0  0  0  0  0  0
   36.5650   27.4130   43.6790 C   0  0  0  0  0  0  0  0  0  0  0  0
   37.8480   26.9960   43.0300 C   0  0  1  0  0  0  0  0  0  0  0  0
   37.9940   29.0450   43.6650 H   0  0  0  0  0  0  0  0  0  0  0  0
   35.6470   27.0320   43.1560 H   0  0  0  0  0  0  0  0  0  0  0  0
   36.5050   27.4230   44.7650 H   0  0  0  0  0  0  0  0  0  0  0  0
   38.7050   26.7140   43.7040 H   0  0  0  0  0  0  0  0  0  0  0  0
   37.8840   26.1880   41.8290 N   0  0  0  0  0  0  0  0  0  0  0  0
   36.9510   25.0750   42.1110 C   0  0  0  0  0  2  0  0  0  0  0  0
   37.0510   24.0210   41.0390 C   0  0  0  0  0  2  0  0  0  0  0  0
   38.4620   23.4740   41.0160 C   0  0  0  0  0  3  0  0  0  0  0  0
   38.5900   22.6110   40.3640 H   0  0  0  0  0  0  0  0  0  0  0  0
   39.3610   24.6570   40.6300 C   0  0  0  0  0  2  0  0  0  0  0  0
   39.2370   25.6210   41.7880 C   0  0  0  0  0  2  0  0  0  0  0  0
   36.8270   28.9540   41.6930 C   0  0  0  0  0  0  0  0  0  0  0  0
   35.7130   29.1220   41.8450 H   0  0  0  0  0  0  0  0  0  0  0  0
   36.8860   28.3230   40.7940 H   0  0  0  0  0  0  0  0  0  0  0  0
   37.4080   30.2620   41.2950 C   0  0  0  0  0  0  0  0  0  0  0  0
   38.6870   30.5110   41.7380 C   0  0  0  0  0  0  0  0  0  0  0  0
   39.3110   31.7160   41.4220 C   0  0  0  0  0  0  0  0  0  0  0  0
   38.5850   32.5920   40.6700 N   0  0  0  0  0  0  0  0  0  0  0  0
   37.3240   32.3300   40.2420 C   0  0  0  0  0  0  0  0  0  0  0  0
   36.7410   31.1710   40.5530 N   0  0  0  0  0  0  0  0  0  0  0  0
   39.4380   29.9970   42.3130 H   0  0  0  0  0  0  0  0  0  0  0  0
   40.2710   32.1260   41.6450 H   0  0  0  0  0  0  0  0  0  0  0  0
   36.7870   33.0660   39.6420 H   0  0  0  0  0  0  0  0  0  0  0  0
  1  3  1  0  0  0  0
  1  4  1  1  0  0  0
  1  2  1  0  0  0  0
  2  6  1  0  0  0  0
  3  2  1  0  0  0  0
  3  7  1  1  0  0  0
  5  2  1  0  0  0  0
  8  9  1  0  0  0  0
  8  3  1  0  0  0  0
 10  9  1  0  0  0  0
 11 10  1  0  0  0  0
 12 11  1  0  0  0  0
 13 11  1  0  0  0  0
 13 14  1  0  0  0  0
 14  8  1  0  0  0  0
 15 16  1  0  0  0  0
 15  1  1  0  0  0  0
 17 15  1  0  0  0  0
 18 15  1  0  0  0  0
 18 19  1  0  0  0  0
 19 24  1  0  0  0  0
 20 25  1  0  0  0  0
 20 19  2  0  0  0  0
 21 20  1  0  0  0  0
 22 23  1  0  0  0  0
 22 21  2  0  0  0  0
 23 18  2  0  0  0  0
 26 22  1  0  0  0  0
M  END
>  <minimizedAffinity>
-4.55147696

$$$$

 OpenBabel03252500423D

 26 28  0  0  1  0  0  0  0  0999 V2000
   36.6460   28.9040   39.1430 C   0  0  1  0  0  0  0  0  0  0  0  0
   35.9860   29.7810   38.0740 C   0  0  0  0  0  0  0  0  0  0  0  0
   37.2790   30.1700   38.7200 C   0  0  1  0  0  0  0  0  0  0  0  0
   37.1210   28.0260   38.6580 H   0  0  0  0  0  0  0  0  0  0  0  0
   35.1140   30.4180   38.3850 H   0  0  0  0  0  0  0  0  0  0  0  0
   35.9900   29.4840   37.0290 H   0  0  0  0  0  0  0  0  0  0  0  0
   38.2100   30.1320   38.0880 H   0  0  0  0  0  0  0  0  0  0  0  0
   37.3770   31.2620   39.6670 N   0  0  0  0  0  0  0  0  0  0  0  0
   37.1750   32.4750   38.8460 C   0  0  0  0  0  2  0  0  0  0  0  0
   37.4750   33.7110   39.6530 C   0  0  0  0  0  2  0  0  0  0  0  0
   38.9190   33.6690   40.1030 C   0  0  0  0  0  3  0  0  0  0  0  0
   39.2610   34.5880   40.5770 H   0  0  0  0  0  0  0  0  0  0  0  0
   39.0330   32.4420   41.0200 C   0  0  0  0  0  2  0  0  0  0  0  0
   38.7770   31.2640   40.1080 C   0  0  0  0  0  2  0  0  0  0  0  0
   35.8690   28.8190   40.4090 C   0  0  0  0  0  0  0  0  0  0  0  0
   35.0120   28.0790   40.3050 H   0  0  0  0  0  0  0  0  0  0  0  0
   35.3870   29.7450   40.7570 H   0  0  0  0  0  0  0  0  0  0  0  0
   36.7010   28.3550   41.5490 C   0  0  0  0  0  0  0  0  0  0  0  0
   37.0110   27.0140   41.5590 C   0  0  0  0  0  0  0  0  0  0  0  0
   37.7780   26.4850   42.5950 C   0  0  0  0  0  0  0  0  0  0  0  0
   38.1820   27.3630   43.5570 N   0  0  0  0  0  0  0  0  0  0  0  0
   37.8670   28.6840   43.5300 C   0  0  0  0  0  0  0  0  0  0  0  0
   37.1310   29.1750   42.5320 N   0  0  0  0  0  0  0  0  0  0  0  0
   36.8250   26.1550   40.9370 H   0  0  0  0  0  0  0  0  0  0  0  0
   38.1380   25.5040   42.8150 H   0  0  0  0  0  0  0  0  0  0  0  0
   38.2150   29.3440   44.3250 H   0  0  0  0  0  0  0  0  0  0  0  0
  1  4  1  6  0  0  0
  1 15  1  0  0  0  0
  2  5  1  0  0  0  0
  2  3  1  0  0  0  0
  2  1  1  0  0  0  0
  3  7  1  6  0  0  0
  3  1  1  0  0  0  0
  3  8  1  0  0  0  0
  6  2  1  0  0  0  0
  8 14  1  0  0  0  0
  9 10  1  0  0  0  0
  9  8  1  0  0  0  0
 10 11  1  0  0  0  0
 11 12  1  0  0  0  0
 11 13  1  0  0  0  0
 14 13  1  0  0  0  0
 15 17  1  0  0  0  0
 15 18  1  0  0  0  0
 16 15  1  0  0  0  0
 18 19  2  0  0  0  0
 18 23  1  0  0  0  0
 19 20  1  0  0  0  0
 20 25  1  0  0  0  0
 20 21  2  0  0  0  0
 22 21  1  0  0  0  0
 22 26  1  0  0  0  0
 23 22  2  0  0  0  0
 24 19  1  0  0  0  0
M  END
>  <minimizedAffinity>
-4.47433472

$$$$

 OpenBabel03252500423D

 26 28  0  0  1  0  0  0  0  0999 V2000
   36.5710   30.7940   39.3680 C   0  0  1  0  0  0  0  0  0  0  0  0
   35.7750   29.5850   38.8650 C   0  0  0  0  0  0  0  0  0  0  0  0
   36.0590   29.7880   40.3210 C   0  0  1  0  0  0  0  0  0  0  0  0
   35.9260   31.6970   39.3400 H   0  0  0  0  0  0  0  0  0  0  0  0
   36.3480   28.7350   38.4050 H   0  0  0  0  0  0  0  0  0  0  0  0
   34.7540   29.6980   38.5090 H   0  0  0  0  0  0  0  0  0  0  0  0
   35.1930   30.0570   40.9890 H   0  0  0  0  0  0  0  0  0  0  0  0
   37.0000   28.9640   41.0510 N   0  0  0  0  0  0  0  0  0  0  0  0
   36.1980   27.8060   41.5020 C   0  0  0  0  0  2  0  0  0  0  0  0
   36.9860   26.9660   42.4720 C   0  0  0  0  0  2  0  0  0  0  0  0
   37.3400   27.8080   43.6800 C   0  0  0  0  0  3  0  0  0  0  0  0
   37.7920   27.2430   44.4940 H   0  0  0  0  0  0  0  0  0  0  0  0
   38.2430   28.9320   43.1530 C   0  0  0  0  0  2  0  0  0  0  0  0
   37.3470   29.7430   42.2450 C   0  0  0  0  0  2  0  0  0  0  0  0
   37.9950   30.7910   38.9400 C   0  0  0  0  0  0  0  0  0  0  0  0
   38.0730   30.7590   37.8060 H   0  0  0  0  0  0  0  0  0  0  0  0
   38.6130   29.9460   39.2780 H   0  0  0  0  0  0  0  0  0  0  0  0
   38.7180   32.0100   39.3850 C   0  0  0  0  0  0  0  0  0  0  0  0
   39.9570   32.2130   38.8200 C   0  0  0  0  0  0  0  0  0  0  0  0
   40.7150   33.3240   39.1830 C   0  0  0  0  0  0  0  0  0  0  0  0
   40.1550   34.1610   40.1030 N   0  0  0  0  0  0  0  0  0  0  0  0
   38.9310   33.9450   40.6500 C   0  0  0  0  0  0  0  0  0  0  0  0
   38.2190   32.8760   40.2910 N   0  0  0  0  0  0  0  0  0  0  0  0
   40.5850   31.7220   38.0960 H   0  0  0  0  0  0  0  0  0  0  0  0
   41.6760   33.6850   38.8910 H   0  0  0  0  0  0  0  0  0  0  0  0
   38.5300   34.6460   41.3830 H   0  0  0  0  0  0  0  0  0  0  0  0
  1  4  1  6  0  0  0
  1  3  1  0  0  0  0
  2  1  1  0  0  0  0
  2  3  1  0  0  0  0
  3  7  1  1  0  0  0
  3  8  1  0  0  0  0
  5  2  1  0  0  0  0
  6  2  1  0  0  0  0
  8  9  1  0  0  0  0
  8 14  1  0  0  0  0
  9 10  1  0  0  0  0
 10 11  1  0  0  0  0
 11 12  1  0  0  0  0
 13 11  1  0  0  0  0
 14 13  1  0  0  0  0
 15 17  1  0  0  0  0
 15  1  1  0  0  0  0
 15 18  1  0  0  0  0
 16 15  1  0  0  0  0
 18 23  1  0  0  0  0
 19 20  1  0  0  0  0
 19 18  2  0  0  0  0
 20 21  2  0  0  0  0
 21 22  1  0  0  0  0
 22 26  1  0  0  0  0
 23 22  2  0  0  0  0
 24 19  1  0  0  0  0
 25 20  1  0  0  0  0
M  END
>  <minimizedAffinity>
-4.46024704

$$$$

 OpenBabel03252500423D

 26 28  0  0  1  0  0  0  0  0999 V2000
   39.5000   28.1080   42.8220 C   0  0  1  0  0  0  0  0  0  0  0  0
   39.6590   26.8490   43.6800 C   0  0  0  0  0  0  0  0  0  0  0  0
   39.2660   26.7730   42.2370 C   0  0  1  0  0  0  0  0  0  0  0  0
   40.5040   28.5020   42.5560 H   0  0  0  0  0  0  0  0  0  0  0  0
   38.8280   26.5910   44.3900 H   0  0  0  0  0  0  0  0  0  0  0  0
   40.6430   26.4950   43.9750 H   0  0  0  0  0  0  0  0  0  0  0  0
   40.0190   26.3520   41.5130 H   0  0  0  0  0  0  0  0  0  0  0  0
   37.9280   26.4120   41.8150 N   0  0  0  0  0  0  0  0  0  0  0  0
   37.8150   24.9760   42.1490 C   0  0  0  0  0  2  0  0  0  0  0  0
   36.5550   24.3960   41.5610 C   0  0  0  0  0  2  0  0  0  0  0  0
   36.6040   24.5380   40.0550 C   0  0  0  0  0  3  0  0  0  0  0  0
   35.7960   24.0230   39.5370 H   0  0  0  0  0  0  0  0  0  0  0  0
   36.6270   26.0480   39.7800 C   0  0  0  0  0  2  0  0  0  0  0  0
   37.9470   26.5160   40.3510 C   0  0  0  0  0  2  0  0  0  0  0  0
   38.3660   28.9750   43.2380 C   0  0  0  0  0  0  0  0  0  0  0  0
   38.6430   29.5860   44.1560 H   0  0  0  0  0  0  0  0  0  0  0  0
   37.4320   28.4660   43.5220 H   0  0  0  0  0  0  0  0  0  0  0  0
   37.9800   29.9430   42.1790 C   0  0  0  0  0  0  0  0  0  0  0  0
   36.6930   29.8300   41.7030 C   0  0  0  0  0  0  0  0  0  0  0  0
   36.2430   30.6880   40.7010 C   0  0  0  0  0  0  0  0  0  0  0  0
   37.1410   31.6110   40.2500 N   0  0  0  0  0  0  0  0  0  0  0  0
   38.4060   31.7080   40.7320 C   0  0  0  0  0  0  0  0  0  0  0  0
   38.8210   30.8780   41.6910 N   0  0  0  0  0  0  0  0  0  0  0  0
   35.8300   29.2160   41.8960 H   0  0  0  0  0  0  0  0  0  0  0  0
   35.3150   30.7920   40.1860 H   0  0  0  0  0  0  0  0  0  0  0  0
   39.0840   32.4640   40.3360 H   0  0  0  0  0  0  0  0  0  0  0  0
  1  4  1  6  0  0  0
  1 15  1  0  0  0  0
  1  2  1  0  0  0  0
  2  6  1  0  0  0  0
  2  5  1  0  0  0  0
  3  7  1  6  0  0  0
  3  1  1  0  0  0  0
  3  2  1  0  0  0  0
  8  9  1  0  0  0  0
  8  3  1  0  0  0  0
 10  9  1  0  0  0  0
 11 10  1  0  0  0  0
 12 11  1  0  0  0  0
 13 11  1  0  0  0  0
 13 14  1  0  0  0  0
 14  8  1  0  0  0  0
 15 17  1  0  0  0  0
 15 16  1  0  0  0  0
 18 15  1  0  0  0  0
 19 24  1  0  0  0  0
 19 18  1  0  0  0  0
 20 19  2  0  0  0  0
 21 20  1  0  0  0  0
 21 22  2  0  0  0  0
 22 23  1  0  0  0  0
 23 18  2  0  0  0  0
 25 20  1  0  0  0  0
 26 22  1  0  0  0  0
M  END
>  <minimizedAffinity>
-4.41411114

$$$$

 OpenBabel03252500423D

 26 28  0  0  1  0  0  0  0  0999 V2000
   36.2550   28.0730   40.7430 C   0  0  1  0  0  0  0  0  0  0  0  0
   35.1830   29.0980   40.3590 C   0  0  0  0  0  0  0  0  0  0  0  0
   36.6130   29.2640   39.9460 C   0  0  1  0  0  0  0  0  0  0  0  0
   36.1480   27.1710   40.1060 H   0  0  0  0  0  0  0  0  0  0  0  0
   34.8500   29.8270   41.1450 H   0  0  0  0  0  0  0  0  0  0  0  0
   34.4400   28.8700   39.5980 H   0  0  0  0  0  0  0  0  0  0  0  0
   36.8580   29.1390   38.8540 H   0  0  0  0  0  0  0  0  0  0  0  0
   37.4770   30.2700   40.5280 N   0  0  0  0  0  0  0  0  0  0  0  0
   36.9280   31.5520   40.0340 C   0  0  0  0  0  2  0  0  0  0  0  0
   37.8590   32.6860   40.3710 C   0  0  0  0  0  2  0  0  0  0  0  0
   39.1950   32.4440   39.7020 C   0  0  0  0  0  3  0  0  0  0  0  0
   39.8860   33.2830   39.7790 H   0  0  0  0  0  0  0  0  0  0  0  0
   39.7450   31.1540   40.3260 C   0  0  0  0  0  2  0  0  0  0  0  0
   38.7800   30.0780   39.8810 C   0  0  0  0  0  2  0  0  0  0  0  0
   36.5300   28.0150   42.2040 C   0  0  0  0  0  0  0  0  0  0  0  0
   35.6050   27.6770   42.7720 H   0  0  0  0  0  0  0  0  0  0  0  0
   36.8170   28.9590   42.6910 H   0  0  0  0  0  0  0  0  0  0  0  0
   37.6130   27.0550   42.5350 C   0  0  0  0  0  0  0  0  0  0  0  0
   38.6290   27.5450   43.3240 C   0  0  0  0  0  0  0  0  0  0  0  0
   39.6950   26.7210   43.6790 C   0  0  0  0  0  0  0  0  0  0  0  0
   39.6530   25.4430   43.2040 N   0  0  0  0  0  0  0  0  0  0  0  0
   38.6430   24.9770   42.4260 C   0  0  0  0  0  0  0  0  0  0  0  0
   37.6300   25.7790   42.0950 N   0  0  0  0  0  0  0  0  0  0  0  0
   38.8730   28.4740   43.8110 H   0  0  0  0  0  0  0  0  0  0  0  0
   40.5740   26.8690   44.2660 H   0  0  0  0  0  0  0  0  0  0  0  0
   38.6580   23.9460   42.0720 H   0  0  0  0  0  0  0  0  0  0  0  0
  1  4  1  6  0  0  0
  1 15  1  0  0  0  0
  2  1  1  0  0  0  0
  2  5  1  0  0  0  0
  3  7  1  6  0  0  0
  3  2  1  0  0  0  0
  3  8  1  0  0  0  0
  3  1  1  0  0  0  0
  6  2  1  0  0  0  0
  9 10  1  0  0  0  0
  9  8  1  0  0  0  0
 11 12  1  0  0  0  0
 11 13  1  0  0  0  0
 11 10  1  0  0  0  0
 14 13  1  0  0  0  0
 14  8  1  0  0  0  0
 15 18  1  0  0  0  0
 15 17  1  0  0  0  0
 15 16  1  0  0  0  0
 18 19  1  0  0  0  0
 19 20  2  0  0  0  0
 19 24  1  0  0  0  0
 20 25  1  0  0  0  0
 21 20  1  0  0  0  0
 22 21  2  0  0  0  0
 23 22  1  0  0  0  0
 23 18  2  0  0  0  0
 26 22  1  0  0  0  0
M  END
>  <minimizedAffinity>
-4.34112358

$$$$

 OpenBabel03252500423D

 26 28  0  0  1  0  0  0  0  0999 V2000
   37.0840   29.4360   40.8610 C   0  0  1  0  0  0  0  0  0  0  0  0
   35.9400   30.4180   40.5900 C   0  0  0  0  0  0  0  0  0  0  0  0
   37.3280   30.6710   40.0890 C   0  0  1  0  0  0  0  0  0  0  0  0
   36.9770   28.5530   40.1970 H   0  0  0  0  0  0  0  0  0  0  0  0
   35.6270   31.1010   41.4250 H   0  0  0  0  0  0  0  0  0  0  0  0
   35.1590   30.1800   39.8720 H   0  0  0  0  0  0  0  0  0  0  0  0
   37.5040   30.5980   38.9790 H   0  0  0  0  0  0  0  0  0  0  0  0
   38.1810   31.6980   40.6520 N   0  0  0  0  0  0  0  0  0  0  0  0
   37.6690   32.9570   40.0670 C   0  0  0  0  0  2  0  0  0  0  0  0
   38.6010   34.0980   40.3800 C   0  0  0  0  0  2  0  0  0  0  0  0
   39.9590   33.8060   39.7810 C   0  0  0  0  0  3  0  0  0  0  0  0
   40.6570   34.6400   39.8410 H   0  0  0  0  0  0  0  0  0  0  0  0
   40.4670   32.5450   40.4950 C   0  0  0  0  0  2  0  0  0  0  0  0
   39.5070   31.4570   40.0700 C   0  0  0  0  0  2  0  0  0  0  0  0
   37.4610   29.3400   42.2970 C   0  0  0  0  0  0  0  0  0  0  0  0
   36.5370   29.3880   42.9580 H   0  0  0  0  0  0  0  0  0  0  0  0
   38.1180   30.1300   42.6900 H   0  0  0  0  0  0  0  0  0  0  0  0
   38.1490   28.0620   42.6130 C   0  0  0  0  0  0  0  0  0  0  0  0
   37.5520   26.9220   42.1250 C   0  0  0  0  0  0  0  0  0  0  0  0
   38.1200   25.6750   42.3800 C   0  0  0  0  0  0  0  0  0  0  0  0
   39.2650   25.6740   43.1200 N   0  0  0  0  0  0  0  0  0  0  0  0
   39.8400   26.8080   43.5930 C   0  0  0  0  0  0  0  0  0  0  0  0
   39.2840   27.9950   43.3400 N   0  0  0  0  0  0  0  0  0  0  0  0
   36.6870   26.6740   41.5340 H   0  0  0  0  0  0  0  0  0  0  0  0
   37.8490   24.6770   42.1150 H   0  0  0  0  0  0  0  0  0  0  0  0
   40.7570   26.7520   44.1800 H   0  0  0  0  0  0  0  0  0  0  0  0
  1  4  1  6  0  0  0
  1 15  1  0  0  0  0
  2  1  1  0  0  0  0
  2  5  1  0  0  0  0
  3  7  1  6  0  0  0
  3  2  1  0  0  0  0
  3  8  1  0  0  0  0
  3  1  1  0  0  0  0
  6  2  1  0  0  0  0
  9 10  1  0  0  0  0
  9  8  1  0  0  0  0
 11 12  1  0  0  0  0
 11 10  1  0  0  0  0
 11 13  1  0  0  0  0
 14 13  1  0  0  0  0
 14  8  1  0  0  0  0
 15 18  1  0  0  0  0
 15 17  1  0  0  0  0
 15 16  1  0  0  0  0
 18 23  1  0  0  0  0
 19 20  1  0  0  0  0
 19 18  2  0  0  0  0
 20 21  2  0  0  0  0
 21 22  1  0  0  0  0
 22 26  1  0  0  0  0
 23 22  2  0  0  0  0
 24 19  1  0  0  0  0
 25 20  1  0  0  0  0
M  END
>  <minimizedAffinity>
-4.22613144

$$$$

 OpenBabel03252500423D

 26 28  0  0  1  0  0  0  0  0999 V2000
   37.1060   27.5380   42.4990 C   0  0  1  0  0  0  0  0  0  0  0  0
   37.8990   28.4130   43.4740 C   0  0  0  0  0  0  0  0  0  0  0  0
   36.9660   29.0080   42.4670 C   0  0  1  0  0  0  0  0  0  0  0  0
   36.2620   27.0580   43.0370 H   0  0  0  0  0  0  0  0  0  0  0  0
   38.9850   28.5950   43.2500 H   0  0  0  0  0  0  0  0  0  0  0  0
   37.6330   28.4570   44.5270 H   0  0  0  0  0  0  0  0  0  0  0  0
   36.0160   29.4760   42.8490 H   0  0  0  0  0  0  0  0  0  0  0  0
   37.4370   29.7370   41.3070 N   0  0  0  0  0  0  0  0  0  0  0  0
   38.6180   30.4790   41.7990 C   0  0  0  0  0  2  0  0  0  0  0  0
   39.0880   31.4650   40.7620 C   0  0  0  0  0  2  0  0  0  0  0  0
   37.9780   32.4560   40.4840 C   0  0  0  0  0  3  0  0  0  0  0  0
   38.2780   33.2870   39.8480 H   0  0  0  0  0  0  0  0  0  0  0  0
   36.8240   31.6330   39.8950 C   0  0  0  0  0  2  0  0  0  0  0  0
   36.3900   30.7260   41.0240 C   0  0  0  0  0  2  0  0  0  0  0  0
   37.9560   26.8250   41.5080 C   0  0  0  0  0  0  0  0  0  0  0  0
   38.7240   26.1720   42.0350 H   0  0  0  0  0  0  0  0  0  0  0  0
   38.5530   27.4510   40.8270 H   0  0  0  0  0  0  0  0  0  0  0  0
   37.1630   25.9300   40.6270 C   0  0  0  0  0  0  0  0  0  0  0  0
   36.8620   24.6910   41.1450 C   0  0  0  0  0  0  0  0  0  0  0  0
   36.1300   23.7780   40.3880 C   0  0  0  0  0  0  0  0  0  0  0  0
   35.7510   24.1930   39.1450 N   0  0  0  0  0  0  0  0  0  0  0  0
   36.0570   25.4190   38.6500 C   0  0  0  0  0  0  0  0  0  0  0  0
   36.7590   26.2810   39.3880 N   0  0  0  0  0  0  0  0  0  0  0  0
   37.0330   24.1560   42.0640 H   0  0  0  0  0  0  0  0  0  0  0  0
   35.7830   22.7850   40.5690 H   0  0  0  0  0  0  0  0  0  0  0  0
   35.7300   25.7010   37.6490 H   0  0  0  0  0  0  0  0  0  0  0  0
  1  4  1  1  0  0  0
  1  2  1  0  0  0  0
  2  6  1  0  0  0  0
  3  1  1  0  0  0  0
  3  7  1  1  0  0  0
  3  2  1  0  0  0  0
  5  2  1  0  0  0  0
  8  9  1  0  0  0  0
  8  3  1  0  0  0  0
 10  9  1  0  0  0  0
 11 10  1  0  0  0  0
 12 11  1  0  0  0  0
 13 11  1  0  0  0  0
 13 14  1  0  0  0  0
 14  8  1  0  0  0  0
 15 16  1  0  0  0  0
 15  1  1  0  0  0  0
 17 15  1  0  0  0  0
 18 19  1  0  0  0  0
 18 15  1  0  0  0  0
 19 24  1  0  0  0  0
 20 25  1  0  0  0  0
 20 19  2  0  0  0  0
 21 20  1  0  0  0  0
 22 21  2  0  0  0  0
 22 23  1  0  0  0  0
 23 18  2  0  0  0  0
 26 22  1  0  0  0  0
M  END
>  <minimizedAffinity>
-4.22066498

$$$$
