
 OpenBabel03242511403D

 32 34  0  0  0  0  0  0  0  0999 V2000
   46.2760   32.0010   47.2280 C   0  0  0  0  0  0  0  0  0  0  0  0
   45.2460   32.2880   48.1050 C   0  0  0  0  0  0  0  0  0  0  0  0
   44.6830   31.3790   48.9640 C   0  0  0  0  0  0  0  0  0  0  0  0
   45.1880   30.1060   48.9330 C   0  0  0  0  0  0  0  0  0  0  0  0
   46.2290   29.7880   48.0590 C   0  0  0  0  0  0  0  0  0  0  0  0
   46.7830   30.7310   47.2010 C   0  0  0  0  0  0  0  0  0  0  0  0
   44.9740   33.3450   47.9890 H   0  0  0  0  0  0  0  0  0  0  0  0
   43.9120   31.8450   49.5330 H   0  0  0  0  0  0  0  0  0  0  0  0
   44.6500   29.4990   49.6570 H   0  0  0  0  0  0  0  0  0  0  0  0
   46.4130   28.7290   48.2560 H   0  0  0  0  0  0  0  0  0  0  0  0
   47.8210   29.9210   46.5880 N   0  0  0  0  0  0  0  0  0  0  0  0
   47.9090   29.3880   45.2140 C   0  0  0  0  0  0  0  0  0  0  0  0
   49.3600   29.3380   44.8160 C   0  0  0  0  0  0  0  0  0  0  0  0
   50.0220   28.3990   45.8260 C   0  0  0  0  0  0  0  0  0  0  0  0
   50.9950   28.0270   45.5060 H   0  0  0  0  0  0  0  0  0  0  0  0
   50.1390   29.1770   47.0920 C   0  0  0  0  0  0  0  0  0  0  0  0
   48.8240   29.6350   47.6060 C   0  0  0  0  0  0  0  0  0  0  0  0
   46.9350   32.8700   46.2420 C   0  0  0  0  0  0  0  0  0  0  0  0
   48.0400   32.6780   46.2150 H   0  0  0  0  0  0  0  0  0  0  0  0
   46.8360   33.8910   46.6260 H   0  0  0  0  0  0  0  0  0  0  0  0
   46.3650   32.6940   44.8600 C   0  0  0  0  0  0  0  0  0  0  0  0
   45.3820   32.1540   45.0320 H   0  0  0  0  0  0  0  0  0  0  0  0
   47.0100   32.2770   44.1130 H   0  0  0  0  0  0  0  0  0  0  0  0
   44.5340   35.8910   44.7640 C   0  0  0  0  0  0  0  0  0  0  0  0
   44.9080   36.4050   43.4920 C   0  0  0  0  0  0  0  0  0  0  0  0
   45.7790   35.6390   42.7400 C   0  0  0  0  0  0  0  0  0  0  0  0
   46.2320   34.4750   43.2120 N   0  0  0  0  0  0  0  0  0  0  0  0
   45.8360   34.0320   44.4380 C   0  0  0  0  0  0  0  0  0  0  0  0
   45.0110   34.7160   45.2020 N   0  0  0  0  0  0  0  0  0  0  0  0
   43.8510   36.4040   45.4520 H   0  0  0  0  0  0  0  0  0  0  0  0
   44.4660   37.3450   43.2530 H   0  0  0  0  0  0  0  0  0  0  0  0
   46.0480   36.0470   41.7840 H   0  0  0  0  0  0  0  0  0  0  0  0
  1  2  1  0  0  0  0
  2  3  2  0  0  0  0
  3  8  1  0  0  0  0
  4  3  1  0  0  0  0
  4  9  1  0  0  0  0
  5 10  1  0  0  0  0
  5  4  2  0  0  0  0
  6  1  2  0  0  0  0
  6  5  1  0  0  0  0
  7  2  1  0  0  0  0
 11  6  1  0  0  0  0
 11 17  1  0  0  0  0
 12 11  1  0  0  0  0
 13 12  1  0  0  0  0
 13 14  1  0  0  0  0
 14 16  1  0  0  0  0
 15 14  1  0  0  0  0
 16 17  1  0  0  0  0
 18 20  1  0  0  0  0
 18  1  1  0  0  0  0
 19 18  1  0  0  0  0
 21 22  1  0  0  0  0
 21 18  1  0  0  0  0
 23 21  1  0  0  0  0
 24 29  1  0  0  0  0
 24 30  1  0  0  0  0
 25 24  2  0  0  0  0
 26 27  2  0  0  0  0
 26 25  1  0  0  0  0
 27 28  1  0  0  0  0
 28 21  1  0  0  0  0
 28 29  2  0  0  0  0
 31 25  1  0  0  0  0
 32 26  1  0  0  0  0
M  END
>  <minimizedAffinity>
-4.89682007

>  <minimizedRMSD>
1.79191971

$$$$
