
 OpenBabel03242516183D

 26 28  0  0  0  0  0  0  0  0999 V2000
   46.0820   32.7240   47.0610 C   0  0  0  0  0  0  0  0  0  0  0  0
   47.3240   32.2470   47.4180 C   0  0  0  0  0  0  0  0  0  0  0  0
   47.4950   31.4460   48.5450 C   0  0  0  0  0  0  0  0  0  0  0  0
   46.4190   31.1140   49.3270 C   0  0  0  0  0  0  0  0  0  0  0  0
   45.1820   31.5780   48.9880 C   0  0  0  0  0  0  0  0  0  0  0  0
   45.0070   32.3740   47.8680 C   0  0  0  0  0  0  0  0  0  0  0  0
   48.1210   32.5340   46.7800 H   0  0  0  0  0  0  0  0  0  0  0  0
   46.4510   30.5120   50.2000 H   0  0  0  0  0  0  0  0  0  0  0  0
   44.2930   31.3490   49.5670 H   0  0  0  0  0  0  0  0  0  0  0  0
   44.0150   32.7280   47.6220 H   0  0  0  0  0  0  0  0  0  0  0  0
   44.7300   35.3310   44.8640 C   0  0  0  0  0  0  0  0  0  0  0  0
   45.5000   35.1920   43.6910 C   0  0  0  0  0  0  0  0  0  0  0  0
   46.4810   34.1980   43.6660 C   0  0  0  0  0  0  0  0  0  0  0  0
   46.6500   33.4160   44.7610 N   0  0  0  0  0  0  0  0  0  0  0  0
   45.9030   33.5650   45.8760 C   0  0  0  0  0  0  0  0  0  0  0  0
   44.9590   34.5190   45.9040 N   0  0  0  0  0  0  0  0  0  0  0  0
   43.9870   36.1050   44.8440 H   0  0  0  0  0  0  0  0  0  0  0  0
   45.4140   35.7790   42.7910 H   0  0  0  0  0  0  0  0  0  0  0  0
   47.1480   33.9650   42.8500 H   0  0  0  0  0  0  0  0  0  0  0  0
   48.7910   30.9630   48.8950 N   0  0  0  0  0  0  0  0  0  0  0  0
   49.7340   31.8360   49.5590 C   0  0  0  0  0  0  0  0  0  0  0  0
   51.1720   31.3940   49.3970 C   0  0  0  0  0  0  0  0  0  0  0  0
   51.3750   29.9690   49.8530 C   0  0  0  0  0  0  0  0  0  0  0  0
   52.0790   29.5010   49.1320 H   0  0  0  0  0  0  0  0  0  0  0  0
   50.0900   29.1720   49.7910 C   0  0  0  0  0  0  0  0  0  0  0  0
   49.2280   29.6110   48.6190 C   0  0  0  0  0  0  0  0  0  0  0  0
  1  2  2  0  0  0  0
  1  6  1  0  0  0  0
  2  3  1  0  0  0  0
  3 20  1  0  0  0  0
  3  4  2  0  0  0  0
  4  8  1  0  0  0  0
  5  4  1  0  0  0  0
  5  9  1  0  0  0  0
  6  5  2  0  0  0  0
  7  2  1  0  0  0  0
 10  6  1  0  0  0  0
 11 16  1  0  0  0  0
 12 11  2  0  0  0  0
 13 12  1  0  0  0  0
 13 14  2  0  0  0  0
 14 15  1  0  0  0  0
 15 16  2  0  0  0  0
 15  1  1  0  0  0  0
 17 11  1  0  0  0  0
 18 12  1  0  0  0  0
 19 13  1  0  0  0  0
 20 21  1  0  0  0  0
 22 21  1  0  0  0  0
 22 23  1  0  0  0  0
 24 23  1  0  0  0  0
 25 23  1  0  0  0  0
 26 20  1  0  0  0  0
 26 25  1  0  0  0  0
M  END
>  <minimizedAffinity>
-5.62914419

>  <minimizedRMSD>
0.782949328

$$$$
