
 OpenBabel03252509353D

 42 44  0  0  1  0  0  0  0  0999 V2000
   44.5130   35.4560   44.0250 O   0  0  0  0  0  0  0  0  0  0  0  0
   45.3740   34.2560   44.3650 P   0  0  1  0  0  0  0  0  0  0  0  0
   44.7160   32.8370   43.7150 O   0  0  0  0  0  0  0  0  0  0  0  0
   44.4940   33.0120   42.7790 H   0  0  0  0  0  0  0  0  0  0  0  0
   46.8990   34.5180   43.7350 O   0  0  0  0  0  0  0  0  0  0  0  0
   47.0330   33.8280   42.5240 C   0  0  1  0  0  0  0  0  0  0  0  0
   46.4460   34.6650   41.3830 C   0  0  0  0  0  0  0  0  0  0  0  0
   46.9640   33.9060   40.1880 C   0  0  0  0  0  0  0  0  0  0  0  0
   48.2540   33.2410   40.6380 C   0  0  0  0  0  0  0  0  0  0  0  0
   48.4520   33.7000   42.0650 C   0  0  1  0  0  0  0  0  0  0  0  0
   46.5180   32.8700   42.5070 H   0  0  0  0  0  0  0  0  0  0  0  0
   46.7100   35.7150   41.4260 H   0  0  0  0  0  0  0  0  0  0  0  0
   45.3430   34.6000   41.4680 H   0  0  0  0  0  0  0  0  0  0  0  0
   46.1890   33.1380   39.9040 H   0  0  0  0  0  0  0  0  0  0  0  0
   47.1340   34.5360   39.3140 H   0  0  0  0  0  0  0  0  0  0  0  0
   48.0990   32.1340   40.6090 H   0  0  0  0  0  0  0  0  0  0  0  0
   49.1040   33.4990   39.9870 H   0  0  0  0  0  0  0  0  0  0  0  0
   48.9790   32.8780   42.6250 H   0  0  0  0  0  0  0  0  0  0  0  0
   49.2110   34.9980   42.1300 C   0  0  0  0  0  0  0  0  0  0  0  0
   49.8160   35.0720   41.1850 H   0  0  0  0  0  0  0  0  0  0  0  0
   48.5770   35.9000   42.1360 H   0  0  0  0  0  0  0  0  0  0  0  0
   50.0270   35.0780   43.2360 O   0  0  0  0  0  0  0  0  0  0  0  0
   50.0690   34.2180   43.7160 H   0  0  0  0  0  0  0  0  0  0  0  0
   45.4430   34.0280   46.0160 O   0  0  0  0  0  0  0  0  0  0  0  0
   46.4240   33.1340   46.3020 C   0  0  0  0  0  0  0  0  0  0  0  0
   47.1890   33.6940   46.9200 H   0  0  0  0  0  0  0  0  0  0  0  0
   46.9940   32.7050   45.4820 H   0  0  0  0  0  0  0  0  0  0  0  0
   45.1780   31.3030   49.2910 C   0  0  0  0  0  0  0  0  0  0  0  0
   45.6040   32.3650   48.4870 C   0  0  0  0  0  0  0  0  0  0  0  0
   45.9680   32.0370   47.1740 C   0  0  0  0  0  0  0  0  0  0  0  0
   45.8890   30.7430   46.7640 N   0  0  0  0  0  0  0  0  0  0  0  0
   45.4740   29.7420   47.5680 C   0  0  0  0  0  0  0  0  0  0  0  0
   45.1240   30.0220   48.8140 N   0  0  0  0  0  0  0  0  0  0  0  0
   44.8890   31.5180   50.3130 H   0  0  0  0  0  0  0  0  0  0  0  0
   45.6320   33.3510   48.8990 H   0  0  0  0  0  0  0  0  0  0  0  0
   45.4270   28.4180   47.0440 N   0  0  0  0  0  0  0  0  0  0  0  0
   46.3550   28.0080   46.0060 C   0  0  0  0  0  2  0  0  0  0  0  0
   46.6320   26.5200   46.0970 C   0  0  0  0  0  2  0  0  0  0  0  0
   46.6210   26.1820   47.5750 C   0  0  0  0  0  3  0  0  0  0  0  0
   46.9950   25.1540   47.6940 H   0  0  0  0  0  0  0  0  0  0  0  0
   45.2610   26.3660   48.2100 C   0  0  0  0  0  2  0  0  0  0  0  0
   44.4560   27.4580   47.5350 C   0  0  0  0  0  2  0  0  0  0  0  0
  2  1  2  6  0  0  0
  2 24  1  0  0  0  0
  3  2  1  0  0  0  0
  4  3  1  0  0  0  0
  5  2  1  0  0  0  0
  6 11  1  1  0  0  0
  6  5  1  0  0  0  0
  7 12  1  0  0  0  0
  7 13  1  0  0  0  0
  7  6  1  0  0  0  0
  8  9  1  0  0  0  0
  8  7  1  0  0  0  0
  9 10  1  0  0  0  0
 10 19  1  0  0  0  0
 10  6  1  0  0  0  0
 10 18  1  1  0  0  0
 14  8  1  0  0  0  0
 15  8  1  0  0  0  0
 16  9  1  0  0  0  0
 17  9  1  0  0  0  0
 19 21  1  0  0  0  0
 19 22  1  0  0  0  0
 20 19  1  0  0  0  0
 22 23  1  0  0  0  0
 24 25  1  0  0  0  0
 25 26  1  0  0  0  0
 25 30  1  0  0  0  0
 27 25  1  0  0  0  0
 28 34  1  0  0  0  0
 29 35  1  0  0  0  0
 29 28  2  0  0  0  0
 30 29  1  0  0  0  0
 31 30  2  0  0  0  0
 31 32  1  0  0  0  0
 32 33  2  0  0  0  0
 33 28  1  0  0  0  0
 36 42  1  0  0  0  0
 36 32  1  0  0  0  0
 37 38  1  0  0  0  0
 37 36  1  0  0  0  0
 38 39  1  0  0  0  0
 39 40  1  0  0  0  0
 39 41  1  0  0  0  0
 42 41  1  0  0  0  0
M  END
>  <minimizedAffinity>
-6.08791447

>  <minimizedRMSD>
1.21042371

$$$$
