
 OpenBabel03252509353D

 42 44  0  0  1  0  0  0  0  0999 V2000
   44.4090   35.5500   44.1420 O   0  0  0  0  0  0  0  0  0  0  0  0
   45.2830   34.3360   44.3840 P   0  0  1  0  0  0  0  0  0  0  0  0
   44.6270   32.9610   43.6420 O   0  0  0  0  0  0  0  0  0  0  0  0
   44.3930   33.2010   42.7240 H   0  0  0  0  0  0  0  0  0  0  0  0
   46.7970   34.6550   43.7570 O   0  0  0  0  0  0  0  0  0  0  0  0
   46.9940   33.9020   42.5940 C   0  0  1  0  0  0  0  0  0  0  0  0
   46.4700   34.6770   41.3810 C   0  0  0  0  0  0  0  0  0  0  0  0
   47.0490   33.8570   40.2560 C   0  0  0  0  0  0  0  0  0  0  0  0
   48.3110   33.2160   40.8090 C   0  0  0  0  0  0  0  0  0  0  0  0
   48.4340   33.7500   42.2180 C   0  0  1  0  0  0  0  0  0  0  0  0
   46.4770   32.9450   42.6000 H   0  0  0  0  0  0  0  0  0  0  0  0
   46.7340   35.7280   41.3820 H   0  0  0  0  0  0  0  0  0  0  0  0
   45.3650   34.6170   41.4100 H   0  0  0  0  0  0  0  0  0  0  0  0
   46.2870   33.0750   39.9730 H   0  0  0  0  0  0  0  0  0  0  0  0
   47.2670   34.4390   39.3610 H   0  0  0  0  0  0  0  0  0  0  0  0
   48.1550   32.1090   40.8300 H   0  0  0  0  0  0  0  0  0  0  0  0
   49.1950   33.4390   40.1910 H   0  0  0  0  0  0  0  0  0  0  0  0
   48.9290   32.9590   42.8480 H   0  0  0  0  0  0  0  0  0  0  0  0
   49.1930   35.0500   42.2540 C   0  0  0  0  0  0  0  0  0  0  0  0
   49.5950   35.2240   41.2180 H   0  0  0  0  0  0  0  0  0  0  0  0
   48.5740   35.9350   42.4750 H   0  0  0  0  0  0  0  0  0  0  0  0
   50.2150   35.0390   43.1770 O   0  0  0  0  0  0  0  0  0  0  0  0
   50.3520   34.1380   43.5530 H   0  0  0  0  0  0  0  0  0  0  0  0
   45.3730   33.9910   46.0140 O   0  0  0  0  0  0  0  0  0  0  0  0
   46.3600   33.0820   46.2240 C   0  0  0  0  0  0  0  0  0  0  0  0
   47.2120   33.6490   46.7060 H   0  0  0  0  0  0  0  0  0  0  0  0
   46.8080   32.5920   45.3630 H   0  0  0  0  0  0  0  0  0  0  0  0
   45.1990   31.4790   49.3740 C   0  0  0  0  0  0  0  0  0  0  0  0
   45.5370   32.4830   48.4600 C   0  0  0  0  0  0  0  0  0  0  0  0
   45.9920   32.0490   47.2070 C   0  0  0  0  0  0  0  0  0  0  0  0
   46.0760   30.7150   46.9540 N   0  0  0  0  0  0  0  0  0  0  0  0
   45.7410   29.7730   47.8600 C   0  0  0  0  0  0  0  0  0  0  0  0
   45.3090   30.1540   49.0530 N   0  0  0  0  0  0  0  0  0  0  0  0
   44.8430   31.7770   50.3530 H   0  0  0  0  0  0  0  0  0  0  0  0
   45.4370   33.5060   48.7510 H   0  0  0  0  0  0  0  0  0  0  0  0
   45.8650   28.4010   47.5000 N   0  0  0  0  0  0  0  0  0  0  0  0
   44.7020   27.5330   47.5090 C   0  0  0  0  0  2  0  0  0  0  0  0
   44.8550   26.4250   46.4860 C   0  0  0  0  0  2  0  0  0  0  0  0
   45.5970   27.0380   45.3140 C   0  0  0  0  0  3  0  0  0  0  0  0
   45.5710   26.3200   44.4790 H   0  0  0  0  0  0  0  0  0  0  0  0
   47.0100   27.4460   45.6620 C   0  0  0  0  0  2  0  0  0  0  0  0
   47.1510   27.8460   47.1180 C   0  0  0  0  0  2  0  0  0  0  0  0
  2  1  2  6  0  0  0
  2 24  1  0  0  0  0
  3  2  1  0  0  0  0
  4  3  1  0  0  0  0
  5  2  1  0  0  0  0
  6 11  1  1  0  0  0
  6  5  1  0  0  0  0
  7 12  1  0  0  0  0
  7 13  1  0  0  0  0
  7  6  1  0  0  0  0
  8  9  1  0  0  0  0
  8  7  1  0  0  0  0
  9 16  1  0  0  0  0
  9 10  1  0  0  0  0
 10 19  1  0  0  0  0
 10  6  1  0  0  0  0
 10 18  1  1  0  0  0
 14  8  1  0  0  0  0
 15  8  1  0  0  0  0
 17  9  1  0  0  0  0
 19 21  1  0  0  0  0
 19 22  1  0  0  0  0
 20 19  1  0  0  0  0
 22 23  1  0  0  0  0
 24 25  1  0  0  0  0
 25 26  1  0  0  0  0
 25 30  1  0  0  0  0
 27 25  1  0  0  0  0
 28 34  1  0  0  0  0
 29 35  1  0  0  0  0
 29 28  2  0  0  0  0
 30 29  1  0  0  0  0
 31 30  2  0  0  0  0
 31 32  1  0  0  0  0
 32 33  2  0  0  0  0
 33 28  1  0  0  0  0
 36 37  1  0  0  0  0
 36 32  1  0  0  0  0
 38 37  1  0  0  0  0
 39 41  1  0  0  0  0
 39 38  1  0  0  0  0
 40 39  1  0  0  0  0
 41 42  1  0  0  0  0
 42 36  1  0  0  0  0
M  END
>  <minimizedAffinity>
-6.01817608

>  <minimizedRMSD>
1.25763178

$$$$
