
 OpenBabel03242522503D

 24 25  0  0  0  0  0  0  0  0999 V2000
   45.2820   30.6890   47.6140 O   0  0  0  0  0  0  0  0  0  0  0  0
   45.7990   31.9350   48.3550 P   0  0  2  0  0  0  0  0  0  0  0  0
   45.1960   31.8090   49.9260 O   0  0  0  0  0  0  0  0  0  0  0  0
   45.2980   32.6890   50.3410 H   0  0  0  0  0  0  0  0  0  0  0  0
   45.1510   33.3050   47.6010 O   0  0  0  0  0  0  0  0  0  0  0  0
   46.9620   33.2450   44.4480 C   0  0  0  0  0  0  0  0  0  0  0  0
   46.5500   32.9300   45.7570 C   0  0  0  0  0  0  0  0  0  0  0  0
   45.5210   33.6470   46.3190 C   0  0  0  0  0  0  0  0  0  0  0  0
   44.9370   34.6400   45.5840 N   0  0  0  0  0  0  0  0  0  0  0  0
   45.3490   34.9240   44.3330 C   0  0  0  0  0  0  0  0  0  0  0  0
   46.3540   34.2350   43.7650 N   0  0  0  0  0  0  0  0  0  0  0  0
   47.7610   32.7370   43.9260 H   0  0  0  0  0  0  0  0  0  0  0  0
   47.1180   32.1320   46.1580 H   0  0  0  0  0  0  0  0  0  0  0  0
   44.7910   35.7420   43.8690 H   0  0  0  0  0  0  0  0  0  0  0  0
   47.4500   31.9830   48.3240 O   0  0  0  0  0  0  0  0  0  0  0  0
   48.3710   31.0190   48.5490 C   0  0  0  0  0  0  0  0  0  0  0  0
   48.5190   30.7090   49.7820 O   0  0  0  0  0  0  0  0  0  0  0  0
   49.3570   30.0700   48.1620 N   0  0  0  0  0  0  0  0  0  0  0  0
   50.6080   30.4170   48.8000 C   0  0  0  0  0  2  0  0  0  0  0  0
   51.6740   29.4350   48.4350 C   0  0  0  0  0  2  0  0  0  0  0  0
   51.7510   29.1050   46.9740 C   0  0  0  0  0  3  0  0  0  0  0  0
   52.4230   29.8470   46.4910 H   0  0  0  0  0  0  0  0  0  0  0  0
   50.4300   28.9960   46.2860 C   0  0  0  0  0  2  0  0  0  0  0  0
   49.2830   28.9160   47.2990 C   0  0  0  0  0  2  0  0  0  0  0  0
  2  1  2  6  0  0  0
  2  3  1  0  0  0  0
  3  4  1  0  0  0  0
  5  2  1  0  0  0  0
  6  7  1  0  0  0  0
  7 13  1  0  0  0  0
  7  8  2  0  0  0  0
  8  5  1  0  0  0  0
  9  8  1  0  0  0  0
 10  9  2  0  0  0  0
 11 10  1  0  0  0  0
 11  6  2  0  0  0  0
 12  6  1  0  0  0  0
 14 10  1  0  0  0  0
 15  2  1  0  0  0  0
 15 16  1  0  0  0  0
 16 17  2  0  0  0  0
 18 16  1  0  0  0  0
 18 19  1  0  0  0  0
 20 19  1  0  0  0  0
 21 20  1  0  0  0  0
 22 21  1  0  0  0  0
 23 21  1  0  0  0  0
 23 24  1  0  0  0  0
 24 18  1  0  0  0  0
M  END
>  <minimizedAffinity>
-4.76843023

>  <minimizedRMSD>
0.919217825

$$$$
