
 OpenBabel03242522503D

 24 25  0  0  0  0  0  0  0  0999 V2000
   45.4790   30.8150   47.5470 O   0  0  0  0  0  0  0  0  0  0  0  0
   45.8150   32.0880   48.3450 P   0  0  2  0  0  0  0  0  0  0  0  0
   45.2180   31.8170   49.8990 O   0  0  0  0  0  0  0  0  0  0  0  0
   45.1970   32.6850   50.3510 H   0  0  0  0  0  0  0  0  0  0  0  0
   44.9960   33.3880   47.6350 O   0  0  0  0  0  0  0  0  0  0  0  0
   46.6680   33.5320   44.4100 C   0  0  0  0  0  0  0  0  0  0  0  0
   46.3060   33.1270   45.7080 C   0  0  0  0  0  0  0  0  0  0  0  0
   45.3170   33.8180   46.3670 C   0  0  0  0  0  0  0  0  0  0  0  0
   44.7230   34.8730   45.7340 N   0  0  0  0  0  0  0  0  0  0  0  0
   45.0870   35.2430   44.4900 C   0  0  0  0  0  0  0  0  0  0  0  0
   46.0520   34.5800   43.8290 N   0  0  0  0  0  0  0  0  0  0  0  0
   47.4330   33.0500   43.8160 H   0  0  0  0  0  0  0  0  0  0  0  0
   46.8740   32.2920   46.0240 H   0  0  0  0  0  0  0  0  0  0  0  0
   44.5270   36.1020   44.1130 H   0  0  0  0  0  0  0  0  0  0  0  0
   47.4450   32.3590   48.3410 O   0  0  0  0  0  0  0  0  0  0  0  0
   48.4850   31.5220   48.5520 C   0  0  0  0  0  0  0  0  0  0  0  0
   49.3950   31.9950   49.3170 O   0  0  0  0  0  0  0  0  0  0  0  0
   49.2080   30.3080   48.3930 N   0  0  0  0  0  0  0  0  0  0  0  0
   50.4330   30.3960   49.1580 C   0  0  0  0  0  2  0  0  0  0  0  0
   51.2220   29.1320   49.0350 C   0  0  0  0  0  2  0  0  0  0  0  0
   51.3570   28.6110   47.6360 C   0  0  0  0  0  3  0  0  0  0  0  0
   52.2530   29.0830   47.1800 H   0  0  0  0  0  0  0  0  0  0  0  0
   50.1360   28.7600   46.7900 C   0  0  0  0  0  2  0  0  0  0  0  0
   48.9110   29.1130   47.6420 C   0  0  0  0  0  2  0  0  0  0  0  0
  2  1  2  6  0  0  0
  2  3  1  0  0  0  0
  3  4  1  0  0  0  0
  5  2  1  0  0  0  0
  6  7  1  0  0  0  0
  7 13  1  0  0  0  0
  7  8  2  0  0  0  0
  8  5  1  0  0  0  0
  9  8  1  0  0  0  0
 10  9  2  0  0  0  0
 11  6  2  0  0  0  0
 11 10  1  0  0  0  0
 12  6  1  0  0  0  0
 14 10  1  0  0  0  0
 15  2  1  0  0  0  0
 15 16  1  0  0  0  0
 16 17  2  0  0  0  0
 18 16  1  0  0  0  0
 18 19  1  0  0  0  0
 20 19  1  0  0  0  0
 21 20  1  0  0  0  0
 22 21  1  0  0  0  0
 23 21  1  0  0  0  0
 23 24  1  0  0  0  0
 24 18  1  0  0  0  0
M  END
>  <minimizedAffinity>
-4.82438231

>  <minimizedRMSD>
0.302914143

$$$$
