
 OpenBabel03242522503D

 24 25  0  0  0  0  0  0  0  0999 V2000
   45.3890   30.7880   47.5680 O   0  0  0  0  0  0  0  0  0  0  0  0
   45.7960   32.0330   48.3760 P   0  0  2  0  0  0  0  0  0  0  0  0
   45.1890   31.7810   49.9300 O   0  0  0  0  0  0  0  0  0  0  0  0
   45.2160   32.6440   50.3890 H   0  0  0  0  0  0  0  0  0  0  0  0
   45.0470   33.3820   47.6810 O   0  0  0  0  0  0  0  0  0  0  0  0
   46.7160   33.4660   44.4510 C   0  0  0  0  0  0  0  0  0  0  0  0
   46.3600   33.0900   45.7600 C   0  0  0  0  0  0  0  0  0  0  0  0
   45.3620   33.7840   46.4010 C   0  0  0  0  0  0  0  0  0  0  0  0
   44.7530   34.8140   45.7420 N   0  0  0  0  0  0  0  0  0  0  0  0
   45.1120   35.1560   44.4880 C   0  0  0  0  0  0  0  0  0  0  0  0
   46.0850   34.4910   43.8440 N   0  0  0  0  0  0  0  0  0  0  0  0
   47.4880   32.9800   43.8700 H   0  0  0  0  0  0  0  0  0  0  0  0
   46.9400   32.2710   46.0970 H   0  0  0  0  0  0  0  0  0  0  0  0
   44.5390   35.9980   44.0900 H   0  0  0  0  0  0  0  0  0  0  0  0
   47.4380   32.2150   48.3700 O   0  0  0  0  0  0  0  0  0  0  0  0
   48.4300   31.3350   48.6350 C   0  0  0  0  0  0  0  0  0  0  0  0
   49.1530   31.6440   49.6450 O   0  0  0  0  0  0  0  0  0  0  0  0
   49.1970   30.1590   48.4090 N   0  0  0  0  0  0  0  0  0  0  0  0
   50.5500   30.3960   48.8590 C   0  0  0  0  0  2  0  0  0  0  0  0
   51.3920   29.1780   48.6580 C   0  0  0  0  0  2  0  0  0  0  0  0
   51.2510   28.5330   47.3110 C   0  0  0  0  0  3  0  0  0  0  0  0
   51.9800   29.0150   46.6230 H   0  0  0  0  0  0  0  0  0  0  0  0
   49.8630   28.5260   46.7610 C   0  0  0  0  0  2  0  0  0  0  0  0
   48.8380   28.8810   47.8440 C   0  0  0  0  0  2  0  0  0  0  0  0
  2  1  2  6  0  0  0
  2  3  1  0  0  0  0
  3  4  1  0  0  0  0
  5  2  1  0  0  0  0
  6  7  1  0  0  0  0
  7 13  1  0  0  0  0
  7  8  2  0  0  0  0
  8  5  1  0  0  0  0
  9  8  1  0  0  0  0
 10  9  2  0  0  0  0
 11  6  2  0  0  0  0
 11 10  1  0  0  0  0
 12  6  1  0  0  0  0
 14 10  1  0  0  0  0
 15  2  1  0  0  0  0
 15 16  1  0  0  0  0
 16 17  2  0  0  0  0
 18 16  1  0  0  0  0
 18 19  1  0  0  0  0
 20 19  1  0  0  0  0
 21 20  1  0  0  0  0
 22 21  1  0  0  0  0
 23 21  1  0  0  0  0
 23 24  1  0  0  0  0
 24 18  1  0  0  0  0
M  END
>  <minimizedAffinity>
-4.79355049

>  <minimizedRMSD>
0.329580665

$$$$
