
 OpenBabel03242522523D

 24 25  0  0  0  0  0  0  0  0999 V2000
   35.9260   29.7290   39.3090 O   0  0  0  0  0  0  0  0  0  0  0  0
   36.4140   29.7860   40.7680 P   0  0  2  0  0  0  0  0  0  0  0  0
   35.5720   31.0640   41.4770 O   0  0  0  0  0  0  0  0  0  0  0  0
   36.0310   31.2780   42.3140 H   0  0  0  0  0  0  0  0  0  0  0  0
   38.0720   30.1280   40.7570 O   0  0  0  0  0  0  0  0  0  0  0  0
   40.3790   32.9350   40.6320 C   0  0  0  0  0  0  0  0  0  0  0  0
   39.8720   31.6310   40.7790 C   0  0  0  0  0  0  0  0  0  0  0  0
   38.5250   31.4200   40.6030 C   0  0  0  0  0  0  0  0  0  0  0  0
   37.7300   32.4870   40.2920 N   0  0  0  0  0  0  0  0  0  0  0  0
   38.2390   33.7280   40.1570 C   0  0  0  0  0  0  0  0  0  0  0  0
   39.5530   33.9550   40.3250 N   0  0  0  0  0  0  0  0  0  0  0  0
   41.4220   33.1960   40.7520 H   0  0  0  0  0  0  0  0  0  0  0  0
   40.6400   30.9430   41.0170 H   0  0  0  0  0  0  0  0  0  0  0  0
   37.4860   34.4790   39.9080 H   0  0  0  0  0  0  0  0  0  0  0  0
   36.1240   28.3490   41.5310 O   0  0  0  0  0  0  0  0  0  0  0  0
   36.9600   27.4980   42.1680 C   0  0  0  0  0  0  0  0  0  0  0  0
   36.6700   27.2980   43.3990 O   0  0  0  0  0  0  0  0  0  0  0  0
   38.0750   26.6220   42.2590 N   0  0  0  0  0  0  0  0  0  0  0  0
   37.6390   25.2820   41.9290 C   0  0  0  0  0  2  0  0  0  0  0  0
   38.7850   24.3240   41.9940 C   0  0  0  0  0  2  0  0  0  0  0  0
   39.6430   24.4540   43.2170 C   0  0  0  0  0  3  0  0  0  0  0  0
   39.2050   23.8110   44.0120 H   0  0  0  0  0  0  0  0  0  0  0  0
   39.8730   25.8560   43.6770 C   0  0  0  0  0  2  0  0  0  0  0  0
   39.4540   26.8660   42.6020 C   0  0  0  0  0  2  0  0  0  0  0  0
  2  1  2  6  0  0  0
  2  3  1  0  0  0  0
  2 15  1  0  0  0  0
  3  4  1  0  0  0  0
  5  2  1  0  0  0  0
  6 12  1  0  0  0  0
  6  7  1  0  0  0  0
  7 13  1  0  0  0  0
  8  5  1  0  0  0  0
  8  7  2  0  0  0  0
  9  8  1  0  0  0  0
 10  9  2  0  0  0  0
 10 11  1  0  0  0  0
 11  6  2  0  0  0  0
 14 10  1  0  0  0  0
 15 16  1  0  0  0  0
 16 18  1  0  0  0  0
 16 17  2  0  0  0  0
 18 24  1  0  0  0  0
 19 20  1  0  0  0  0
 19 18  1  0  0  0  0
 20 21  1  0  0  0  0
 21 23  1  0  0  0  0
 21 22  1  0  0  0  0
 24 23  1  0  0  0  0
M  END
>  <minimizedAffinity>
-5.44625902

$$$$

 OpenBabel03242522523D

 24 25  0  0  0  0  0  0  0  0999 V2000
   34.9720   29.3940   39.5290 O   0  0  0  0  0  0  0  0  0  0  0  0
   36.0030   29.5120   40.6660 P   0  0  2  0  0  0  0  0  0  0  0  0
   35.7110   31.0090   41.3870 O   0  0  0  0  0  0  0  0  0  0  0  0
   36.4910   31.2160   41.9400 H   0  0  0  0  0  0  0  0  0  0  0  0
   37.5500   29.5000   39.9790 O   0  0  0  0  0  0  0  0  0  0  0  0
   40.3430   31.8270   40.0350 C   0  0  0  0  0  0  0  0  0  0  0  0
   39.3080   30.9970   39.5670 C   0  0  0  0  0  0  0  0  0  0  0  0
   38.5520   30.3020   40.4810 C   0  0  0  0  0  0  0  0  0  0  0  0
   38.8360   30.4440   41.8100 N   0  0  0  0  0  0  0  0  0  0  0  0
   39.8330   31.2450   42.2340 C   0  0  0  0  0  0  0  0  0  0  0  0
   40.5840   31.9340   41.3570 N   0  0  0  0  0  0  0  0  0  0  0  0
   40.9890   32.4110   39.3920 H   0  0  0  0  0  0  0  0  0  0  0  0
   39.2420   31.0210   38.5110 H   0  0  0  0  0  0  0  0  0  0  0  0
   39.9440   31.2600   43.3210 H   0  0  0  0  0  0  0  0  0  0  0  0
   35.8340   28.2620   41.7330 O   0  0  0  0  0  0  0  0  0  0  0  0
   36.7550   27.4620   42.3170 C   0  0  0  0  0  0  0  0  0  0  0  0
   36.5840   27.2940   43.5750 O   0  0  0  0  0  0  0  0  0  0  0  0
   37.9060   26.6290   42.3320 N   0  0  0  0  0  0  0  0  0  0  0  0
   37.4930   25.2650   42.0850 C   0  0  0  0  0  2  0  0  0  0  0  0
   38.6760   24.3500   42.0740 C   0  0  0  0  0  2  0  0  0  0  0  0
   39.6340   24.5510   43.2090 C   0  0  0  0  0  3  0  0  0  0  0  0
   39.2940   23.9200   44.0600 H   0  0  0  0  0  0  0  0  0  0  0  0
   39.8510   25.9740   43.6040 C   0  0  0  0  0  2  0  0  0  0  0  0
   39.3000   26.9330   42.5410 C   0  0  0  0  0  2  0  0  0  0  0  0
  2  1  2  6  0  0  0
  2  3  1  0  0  0  0
  2 15  1  0  0  0  0
  3  4  1  0  0  0  0
  5  8  1  0  0  0  0
  5  2  1  0  0  0  0
  6 11  1  0  0  0  0
  7  6  2  0  0  0  0
  7  8  1  0  0  0  0
  8  9  2  0  0  0  0
  9 10  1  0  0  0  0
 10 14  1  0  0  0  0
 11 10  2  0  0  0  0
 12  6  1  0  0  0  0
 13  7  1  0  0  0  0
 15 16  1  0  0  0  0
 16 18  1  0  0  0  0
 16 17  2  0  0  0  0
 18 24  1  0  0  0  0
 19 18  1  0  0  0  0
 20 19  1  0  0  0  0
 20 21  1  0  0  0  0
 21 23  1  0  0  0  0
 21 22  1  0  0  0  0
 24 23  1  0  0  0  0
M  END
>  <minimizedAffinity>
-5.18942642

$$$$

 OpenBabel03242522523D

 24 25  0  0  0  0  0  0  0  0999 V2000
   38.7170   31.9800   38.8570 O   0  0  0  0  0  0  0  0  0  0  0  0
   38.5350   32.5820   40.2620 P   0  0  2  0  0  0  0  0  0  0  0  0
   36.9500   33.1590   40.3040 O   0  0  0  0  0  0  0  0  0  0  0  0
   36.8850   33.7540   41.0780 H   0  0  0  0  0  0  0  0  0  0  0  0
   39.6180   33.8730   40.4270 O   0  0  0  0  0  0  0  0  0  0  0  0
   42.8110   34.0060   38.6920 C   0  0  0  0  0  0  0  0  0  0  0  0
   41.4420   34.1610   38.9820 C   0  0  0  0  0  0  0  0  0  0  0  0
   40.9630   33.7010   40.1850 C   0  0  0  0  0  0  0  0  0  0  0  0
   41.8360   33.1100   41.0540 N   0  0  0  0  0  0  0  0  0  0  0  0
   43.1430   32.9720   40.7540 C   0  0  0  0  0  0  0  0  0  0  0  0
   43.6310   33.4150   39.5830 N   0  0  0  0  0  0  0  0  0  0  0  0
   43.2770   34.3360   37.7730 H   0  0  0  0  0  0  0  0  0  0  0  0
   40.9330   34.6430   38.1890 H   0  0  0  0  0  0  0  0  0  0  0  0
   43.7180   32.4810   41.5430 H   0  0  0  0  0  0  0  0  0  0  0  0
   38.8150   31.4400   41.4220 O   0  0  0  0  0  0  0  0  0  0  0  0
   38.1410   30.3100   41.7360 C   0  0  0  0  0  0  0  0  0  0  0  0
   36.8970   30.3370   41.4350 O   0  0  0  0  0  0  0  0  0  0  0  0
   38.0160   28.9940   42.2590 N   0  0  0  0  0  0  0  0  0  0  0  0
   38.2630   28.0480   41.1920 C   0  0  0  0  0  2  0  0  0  0  0  0
   38.1600   26.6450   41.6980 C   0  0  0  0  0  2  0  0  0  0  0  0
   36.9580   26.3740   42.5520 C   0  0  0  0  0  3  0  0  0  0  0  0
   36.1220   26.0750   41.8820 H   0  0  0  0  0  0  0  0  0  0  0  0
   36.5810   27.4830   43.4770 C   0  0  0  0  0  2  0  0  0  0  0  0
   37.7060   28.5200   43.5850 C   0  0  0  0  0  2  0  0  0  0  0  0
  2  1  2  6  0  0  0
  2  3  1  0  0  0  0
  2  5  1  0  0  0  0
  2 15  1  0  0  0  0
  3  4  1  0  0  0  0
  6  7  2  0  0  0  0
  6 11  1  0  0  0  0
  7  8  1  0  0  0  0
  8  5  1  0  0  0  0
  8  9  2  0  0  0  0
 10  9  1  0  0  0  0
 10 14  1  0  0  0  0
 11 10  2  0  0  0  0
 12  6  1  0  0  0  0
 13  7  1  0  0  0  0
 15 16  1  0  0  0  0
 16 18  1  0  0  0  0
 17 16  2  0  0  0  0
 18 24  1  0  0  0  0
 19 20  1  0  0  0  0
 19 18  1  0  0  0  0
 20 21  1  0  0  0  0
 21 23  1  0  0  0  0
 22 21  1  0  0  0  0
 23 24  1  0  0  0  0
M  END
>  <minimizedAffinity>
-5.04317474

$$$$

 OpenBabel03242522523D

 24 25  0  0  0  0  0  0  0  0999 V2000
   36.5550   30.8590   39.0650 O   0  0  0  0  0  0  0  0  0  0  0  0
   36.9830   30.8690   40.5430 P   0  0  2  0  0  0  0  0  0  0  0  0
   35.5530   31.0150   41.4260 O   0  0  0  0  0  0  0  0  0  0  0  0
   35.8060   31.2680   42.3370 H   0  0  0  0  0  0  0  0  0  0  0  0
   37.9560   32.2300   40.8020 O   0  0  0  0  0  0  0  0  0  0  0  0
   40.9660   32.6160   38.7970 C   0  0  0  0  0  0  0  0  0  0  0  0
   39.6130   32.6130   39.1870 C   0  0  0  0  0  0  0  0  0  0  0  0
   39.2920   32.2170   40.4630 C   0  0  0  0  0  0  0  0  0  0  0  0
   40.3000   31.8410   41.3050 N   0  0  0  0  0  0  0  0  0  0  0  0
   41.5880   31.8510   40.9090 C   0  0  0  0  0  0  0  0  0  0  0  0
   41.9240   32.2350   39.6650 N   0  0  0  0  0  0  0  0  0  0  0  0
   41.3130   32.9100   37.8160 H   0  0  0  0  0  0  0  0  0  0  0  0
   38.9850   32.9390   38.4000 H   0  0  0  0  0  0  0  0  0  0  0  0
   42.2820   31.5250   41.6880 H   0  0  0  0  0  0  0  0  0  0  0  0
   37.8090   29.4880   40.9160 O   0  0  0  0  0  0  0  0  0  0  0  0
   37.3750   28.2260   41.1360 C   0  0  0  0  0  0  0  0  0  0  0  0
   36.3060   28.1500   41.8360 O   0  0  0  0  0  0  0  0  0  0  0  0
   37.4360   26.8100   41.0230 N   0  0  0  0  0  0  0  0  0  0  0  0
   36.7020   26.4090   39.8420 C   0  0  0  0  0  2  0  0  0  0  0  0
   36.7530   24.9240   39.6710 C   0  0  0  0  0  2  0  0  0  0  0  0
   36.4730   24.1390   40.9170 C   0  0  0  0  0  3  0  0  0  0  0  0
   35.3740   23.9820   40.9840 H   0  0  0  0  0  0  0  0  0  0  0  0
   37.0450   24.7210   42.1670 C   0  0  0  0  0  2  0  0  0  0  0  0
   38.0720   25.8140   41.8490 C   0  0  0  0  0  2  0  0  0  0  0  0
  2  1  2  6  0  0  0
  2  5  1  0  0  0  0
  2 15  1  0  0  0  0
  2  3  1  0  0  0  0
  3  4  1  0  0  0  0
  6  7  2  0  0  0  0
  6 11  1  0  0  0  0
  7  8  1  0  0  0  0
  8  5  1  0  0  0  0
  8  9  2  0  0  0  0
 10  9  1  0  0  0  0
 10 14  1  0  0  0  0
 11 10  2  0  0  0  0
 12  6  1  0  0  0  0
 13  7  1  0  0  0  0
 15 16  1  0  0  0  0
 16 17  2  0  0  0  0
 18 16  1  0  0  0  0
 18 24  1  0  0  0  0
 19 18  1  0  0  0  0
 20 19  1  0  0  0  0
 20 21  1  0  0  0  0
 21 22  1  0  0  0  0
 21 23  1  0  0  0  0
 24 23  1  0  0  0  0
M  END
>  <minimizedAffinity>
-4.98904514

$$$$

 OpenBabel03242522523D

 24 25  0  0  0  0  0  0  0  0999 V2000
   37.9070   31.5460   38.6100 O   0  0  0  0  0  0  0  0  0  0  0  0
   38.1860   32.4780   39.8030 P   0  0  2  0  0  0  0  0  0  0  0  0
   36.8540   33.5090   39.8910 O   0  0  0  0  0  0  0  0  0  0  0  0
   37.1100   34.2560   40.4700 H   0  0  0  0  0  0  0  0  0  0  0  0
   39.5810   33.3730   39.4580 O   0  0  0  0  0  0  0  0  0  0  0  0
   42.6480   31.4290   39.2770 C   0  0  0  0  0  0  0  0  0  0  0  0
   41.4990   32.0650   39.7840 C   0  0  0  0  0  0  0  0  0  0  0  0
   40.6940   32.7670   38.9190 C   0  0  0  0  0  0  0  0  0  0  0  0
   41.0410   32.8200   37.5990 N   0  0  0  0  0  0  0  0  0  0  0  0
   42.1480   32.2040   37.1370 C   0  0  0  0  0  0  0  0  0  0  0  0
   42.9480   31.5130   37.9660 N   0  0  0  0  0  0  0  0  0  0  0  0
   43.3390   30.8560   39.8810 H   0  0  0  0  0  0  0  0  0  0  0  0
   41.3990   31.9060   40.8260 H   0  0  0  0  0  0  0  0  0  0  0  0
   42.2980   32.3350   36.0620 H   0  0  0  0  0  0  0  0  0  0  0  0
   38.3890   31.6010   41.1880 O   0  0  0  0  0  0  0  0  0  0  0  0
   37.8260   30.4410   41.5950 C   0  0  0  0  0  0  0  0  0  0  0  0
   36.5490   30.4150   41.5060 O   0  0  0  0  0  0  0  0  0  0  0  0
   37.8460   29.1170   42.1120 N   0  0  0  0  0  0  0  0  0  0  0  0
   37.9500   28.1900   41.0060 C   0  0  0  0  0  2  0  0  0  0  0  0
   37.9930   26.7800   41.5030 C   0  0  0  0  0  2  0  0  0  0  0  0
   36.9620   26.4510   42.5410 C   0  0  0  0  0  3  0  0  0  0  0  0
   36.0400   26.1200   42.0160 H   0  0  0  0  0  0  0  0  0  0  0  0
   36.6990   27.5360   43.5320 C   0  0  0  0  0  2  0  0  0  0  0  0
   37.7820   28.6200   43.4650 C   0  0  0  0  0  2  0  0  0  0  0  0
  2  1  2  6  0  0  0
  2  3  1  0  0  0  0
  2 15  1  0  0  0  0
  3  4  1  0  0  0  0
  5  2  1  0  0  0  0
  6  7  1  0  0  0  0
  6 12  1  0  0  0  0
  7 13  1  0  0  0  0
  8  5  1  0  0  0  0
  8  7  2  0  0  0  0
  9  8  1  0  0  0  0
 10  9  2  0  0  0  0
 10 11  1  0  0  0  0
 11  6  2  0  0  0  0
 14 10  1  0  0  0  0
 15 16  1  0  0  0  0
 16 18  1  0  0  0  0
 17 16  2  0  0  0  0
 18 24  1  0  0  0  0
 19 20  1  0  0  0  0
 19 18  1  0  0  0  0
 20 21  1  0  0  0  0
 21 23  1  0  0  0  0
 22 21  1  0  0  0  0
 24 23  1  0  0  0  0
M  END
>  <minimizedAffinity>
-4.97445869

$$$$

 OpenBabel03242522523D

 24 25  0  0  0  0  0  0  0  0999 V2000
   37.6040   29.4620   36.6920 O   0  0  0  0  0  0  0  0  0  0  0  0
   37.9240   30.7670   37.4430 P   0  0  2  0  0  0  0  0  0  0  0  0
   37.7120   32.0020   36.3130 O   0  0  0  0  0  0  0  0  0  0  0  0
   38.1380   32.8010   36.6820 H   0  0  0  0  0  0  0  0  0  0  0  0
   39.5430   30.7110   37.9330 O   0  0  0  0  0  0  0  0  0  0  0  0
   42.0120   33.3400   37.4710 C   0  0  0  0  0  0  0  0  0  0  0  0
   41.2600   32.1660   37.2750 C   0  0  0  0  0  0  0  0  0  0  0  0
   40.2520   31.8700   38.1620 C   0  0  0  0  0  0  0  0  0  0  0  0
   40.0190   32.7280   39.1990 N   0  0  0  0  0  0  0  0  0  0  0  0
   40.7530   33.8460   39.3660 C   0  0  0  0  0  0  0  0  0  0  0  0
   41.7430   34.1540   38.5110 N   0  0  0  0  0  0  0  0  0  0  0  0
   42.8230   33.6540   36.8270 H   0  0  0  0  0  0  0  0  0  0  0  0
   41.5880   31.6360   36.4200 H   0  0  0  0  0  0  0  0  0  0  0  0
   40.4540   34.4330   40.2370 H   0  0  0  0  0  0  0  0  0  0  0  0
   36.9290   30.9410   38.7500 O   0  0  0  0  0  0  0  0  0  0  0  0
   37.0670   30.5340   40.0320 C   0  0  0  0  0  0  0  0  0  0  0  0
   36.6940   31.3960   40.9020 O   0  0  0  0  0  0  0  0  0  0  0  0
   37.4240   29.6130   41.0550 N   0  0  0  0  0  0  0  0  0  0  0  0
   36.2720   28.7930   41.3600 C   0  0  0  0  0  2  0  0  0  0  0  0
   36.6030   27.7940   42.4220 C   0  0  0  0  0  2  0  0  0  0  0  0
   37.3430   28.3530   43.6000 C   0  0  0  0  0  3  0  0  0  0  0  0
   36.5920   28.7170   44.3340 H   0  0  0  0  0  0  0  0  0  0  0  0
   38.3660   29.3870   43.2660 C   0  0  0  0  0  2  0  0  0  0  0  0
   38.6630   29.4060   41.7620 C   0  0  0  0  0  2  0  0  0  0  0  0
  2  1  2  6  0  0  0
  2  5  1  0  0  0  0
  2 15  1  0  0  0  0
  3  4  1  0  0  0  0
  3  2  1  0  0  0  0
  5  8  1  0  0  0  0
  6 11  1  0  0  0  0
  7  6  2  0  0  0  0
  7  8  1  0  0  0  0
  8  9  2  0  0  0  0
  9 10  1  0  0  0  0
 10 14  1  0  0  0  0
 11 10  2  0  0  0  0
 12  6  1  0  0  0  0
 13  7  1  0  0  0  0
 15 16  1  0  0  0  0
 16 17  2  0  0  0  0
 16 18  1  0  0  0  0
 18 19  1  0  0  0  0
 18 24  1  0  0  0  0
 19 20  1  0  0  0  0
 20 21  1  0  0  0  0
 21 22  1  0  0  0  0
 23 21  1  0  0  0  0
 24 23  1  0  0  0  0
M  END
>  <minimizedAffinity>
-4.91661215

$$$$

 OpenBabel03242522523D

 24 25  0  0  0  0  0  0  0  0999 V2000
   36.5960   31.4580   39.0830 O   0  0  0  0  0  0  0  0  0  0  0  0
   36.9590   30.8570   40.4530 P   0  0  2  0  0  0  0  0  0  0  0  0
   35.6070   31.1080   41.4290 O   0  0  0  0  0  0  0  0  0  0  0  0
   35.8920   30.9630   42.3530 H   0  0  0  0  0  0  0  0  0  0  0  0
   38.2800   31.7150   41.0720 O   0  0  0  0  0  0  0  0  0  0  0  0
   40.5030   34.1610   39.5560 C   0  0  0  0  0  0  0  0  0  0  0  0
   39.5330   33.5770   40.3930 C   0  0  0  0  0  0  0  0  0  0  0  0
   39.2350   32.2450   40.2330 C   0  0  0  0  0  0  0  0  0  0  0  0
   39.8920   31.5390   39.2650 N   0  0  0  0  0  0  0  0  0  0  0  0
   40.8170   32.1210   38.4750 C   0  0  0  0  0  0  0  0  0  0  0  0
   41.1230   33.4220   38.6160 N   0  0  0  0  0  0  0  0  0  0  0  0
   40.8020   35.2000   39.6090 H   0  0  0  0  0  0  0  0  0  0  0  0
   39.1410   34.2820   41.0790 H   0  0  0  0  0  0  0  0  0  0  0  0
   41.2570   31.4340   37.7480 H   0  0  0  0  0  0  0  0  0  0  0  0
   37.3300   29.2540   40.3010 O   0  0  0  0  0  0  0  0  0  0  0  0
   38.1270   28.4530   41.0430 C   0  0  0  0  0  0  0  0  0  0  0  0
   38.3800   27.3190   40.5070 O   0  0  0  0  0  0  0  0  0  0  0  0
   38.9130   28.1230   42.1810 N   0  0  0  0  0  0  0  0  0  0  0  0
   40.2740   28.5490   41.9420 C   0  0  0  0  0  2  0  0  0  0  0  0
   41.1380   28.2380   43.1230 C   0  0  0  0  0  2  0  0  0  0  0  0
   40.9700   26.8540   43.6750 C   0  0  0  0  0  3  0  0  0  0  0  0
   41.6660   26.1810   43.1290 H   0  0  0  0  0  0  0  0  0  0  0  0
   39.5670   26.3460   43.6790 C   0  0  0  0  0  2  0  0  0  0  0  0
   38.5660   27.4800   43.4250 C   0  0  0  0  0  2  0  0  0  0  0  0
  2  1  2  6  0  0  0
  2  5  1  0  0  0  0
  2  3  1  0  0  0  0
  3  4  1  0  0  0  0
  6 12  1  0  0  0  0
  6  7  1  0  0  0  0
  7 13  1  0  0  0  0
  8  7  2  0  0  0  0
  8  5  1  0  0  0  0
  9  8  1  0  0  0  0
 10 11  1  0  0  0  0
 10  9  2  0  0  0  0
 11  6  2  0  0  0  0
 14 10  1  0  0  0  0
 15  2  1  0  0  0  0
 15 16  1  0  0  0  0
 16 18  1  0  0  0  0
 17 16  2  0  0  0  0
 18 24  1  0  0  0  0
 19 18  1  0  0  0  0
 19 20  1  0  0  0  0
 20 21  1  0  0  0  0
 21 23  1  0  0  0  0
 22 21  1  0  0  0  0
 24 23  1  0  0  0  0
M  END
>  <minimizedAffinity>
-4.85484505

$$$$

 OpenBabel03242522523D

 24 25  0  0  0  0  0  0  0  0999 V2000
   34.7550   29.2980   39.6570 O   0  0  0  0  0  0  0  0  0  0  0  0
   35.8850   29.4560   40.6900 P   0  0  2  0  0  0  0  0  0  0  0  0
   35.6270   30.9570   41.4160 O   0  0  0  0  0  0  0  0  0  0  0  0
   36.4510   31.1890   41.8900 H   0  0  0  0  0  0  0  0  0  0  0  0
   37.3600   29.4670   39.8610 O   0  0  0  0  0  0  0  0  0  0  0  0
   37.8150   26.6490   37.6080 C   0  0  0  0  0  0  0  0  0  0  0  0
   37.6540   27.4040   38.7850 C   0  0  0  0  0  0  0  0  0  0  0  0
   37.5150   28.7670   38.6840 C   0  0  0  0  0  0  0  0  0  0  0  0
   37.5380   29.3380   37.4430 N   0  0  0  0  0  0  0  0  0  0  0  0
   37.6940   28.5940   36.3290 C   0  0  0  0  0  0  0  0  0  0  0  0
   37.8320   27.2590   36.4070 N   0  0  0  0  0  0  0  0  0  0  0  0
   37.9320   25.5740   37.5900 H   0  0  0  0  0  0  0  0  0  0  0  0
   37.6580   26.7850   39.6440 H   0  0  0  0  0  0  0  0  0  0  0  0
   37.6940   29.1860   35.4110 H   0  0  0  0  0  0  0  0  0  0  0  0
   35.8450   28.2190   41.7840 O   0  0  0  0  0  0  0  0  0  0  0  0
   36.8420   27.5240   42.3760 C   0  0  0  0  0  0  0  0  0  0  0  0
   36.6870   27.3480   43.6340 O   0  0  0  0  0  0  0  0  0  0  0  0
   38.0750   26.8160   42.4000 N   0  0  0  0  0  0  0  0  0  0  0  0
   37.8070   25.4140   42.1620 C   0  0  0  0  0  2  0  0  0  0  0  0
   39.0790   24.6280   42.1600 C   0  0  0  0  0  2  0  0  0  0  0  0
   40.0080   24.9360   43.2960 C   0  0  0  0  0  3  0  0  0  0  0  0
   39.7340   24.2800   44.1500 H   0  0  0  0  0  0  0  0  0  0  0  0
   40.0740   26.3770   43.6800 C   0  0  0  0  0  2  0  0  0  0  0  0
   39.4290   27.2650   42.6080 C   0  0  0  0  0  2  0  0  0  0  0  0
  2  1  2  6  0  0  0
  2  3  1  0  0  0  0
  2 15  1  0  0  0  0
  3  4  1  0  0  0  0
  5  2  1  0  0  0  0
  6  7  1  0  0  0  0
  7 13  1  0  0  0  0
  8  7  2  0  0  0  0
  8  5  1  0  0  0  0
  9  8  1  0  0  0  0
 10 11  1  0  0  0  0
 10  9  2  0  0  0  0
 11  6  2  0  0  0  0
 12  6  1  0  0  0  0
 14 10  1  0  0  0  0
 15 16  1  0  0  0  0
 16 18  1  0  0  0  0
 16 17  2  0  0  0  0
 18 24  1  0  0  0  0
 19 18  1  0  0  0  0
 20 19  1  0  0  0  0
 20 21  1  0  0  0  0
 21 23  1  0  0  0  0
 21 22  1  0  0  0  0
 24 23  1  0  0  0  0
M  END
>  <minimizedAffinity>
-4.80773497

$$$$

 OpenBabel03242522523D

 24 25  0  0  0  0  0  0  0  0999 V2000
   39.3530   30.4150   42.9920 O   0  0  0  0  0  0  0  0  0  0  0  0
   38.5270   29.2130   42.5000 P   0  0  2  0  0  0  0  0  0  0  0  0
   36.9750   29.4490   43.1160 O   0  0  0  0  0  0  0  0  0  0  0  0
   36.5020   28.5970   43.0300 H   0  0  0  0  0  0  0  0  0  0  0  0
   39.1970   27.8060   43.1610 O   0  0  0  0  0  0  0  0  0  0  0  0
   39.2060   24.2570   42.3680 C   0  0  0  0  0  0  0  0  0  0  0  0
   39.6450   25.5440   42.7310 C   0  0  0  0  0  0  0  0  0  0  0  0
   38.7240   26.5620   42.8020 C   0  0  0  0  0  0  0  0  0  0  0  0
   37.4170   26.2840   42.5180 N   0  0  0  0  0  0  0  0  0  0  0  0
   37.0210   25.0430   42.1720 C   0  0  0  0  0  0  0  0  0  0  0  0
   37.9060   24.0340   42.0960 N   0  0  0  0  0  0  0  0  0  0  0  0
   39.8570   23.3970   42.2850 H   0  0  0  0  0  0  0  0  0  0  0  0
   40.6870   25.5590   42.9150 H   0  0  0  0  0  0  0  0  0  0  0  0
   35.9490   24.9710   41.9730 H   0  0  0  0  0  0  0  0  0  0  0  0
   38.5380   29.1390   40.8500 O   0  0  0  0  0  0  0  0  0  0  0  0
   37.5440   28.9020   39.9640 C   0  0  0  0  0  0  0  0  0  0  0  0
   37.5850   27.7430   39.4240 O   0  0  0  0  0  0  0  0  0  0  0  0
   36.3770   29.2380   39.2250 N   0  0  0  0  0  0  0  0  0  0  0  0
   35.2150   28.8480   39.9940 C   0  0  0  0  0  2  0  0  0  0  0  0
   33.9590   29.1980   39.2640 C   0  0  0  0  0  2  0  0  0  0  0  0
   33.9480   28.8110   37.8150 C   0  0  0  0  0  3  0  0  0  0  0  0
   33.5680   27.7680   37.7420 H   0  0  0  0  0  0  0  0  0  0  0  0
   35.2470   28.9980   37.1050 C   0  0  0  0  0  2  0  0  0  0  0  0
   36.2110   29.8570   37.9330 C   0  0  0  0  0  2  0  0  0  0  0  0
  2  1  2  1  0  0  0
  2  3  1  0  0  0  0
  2  5  1  0  0  0  0
  4  3  1  0  0  0  0
  6  7  1  0  0  0  0
  7  8  2  0  0  0  0
  7 13  1  0  0  0  0
  8  5  1  0  0  0  0
  9  8  1  0  0  0  0
 10  9  2  0  0  0  0
 11 10  1  0  0  0  0
 11  6  2  0  0  0  0
 12  6  1  0  0  0  0
 14 10  1  0  0  0  0
 15  2  1  0  0  0  0
 16 15  1  0  0  0  0
 17 16  2  0  0  0  0
 18 16  1  0  0  0  0
 18 19  1  0  0  0  0
 20 19  1  0  0  0  0
 21 20  1  0  0  0  0
 22 21  1  0  0  0  0
 23 21  1  0  0  0  0
 23 24  1  0  0  0  0
 24 18  1  0  0  0  0
M  END
>  <minimizedAffinity>
-4.71829796

$$$$
