
 OpenBabel03242522513D

 24 25  0  0  0  0  0  0  0  0999 V2000
   45.4630   30.8020   47.5590 O   0  0  0  0  0  0  0  0  0  0  0  0
   45.8150   32.0720   48.3550 P   0  0  2  0  0  0  0  0  0  0  0  0
   45.2150   31.8100   49.9100 O   0  0  0  0  0  0  0  0  0  0  0  0
   45.2040   32.6790   50.3610 H   0  0  0  0  0  0  0  0  0  0  0  0
   45.0100   33.3800   47.6450 O   0  0  0  0  0  0  0  0  0  0  0  0
   46.6880   33.5060   44.4210 C   0  0  0  0  0  0  0  0  0  0  0  0
   46.3250   33.1090   45.7220 C   0  0  0  0  0  0  0  0  0  0  0  0
   45.3330   33.8030   46.3730 C   0  0  0  0  0  0  0  0  0  0  0  0
   44.7380   34.8520   45.7320 N   0  0  0  0  0  0  0  0  0  0  0  0
   45.1040   35.2150   44.4870 C   0  0  0  0  0  0  0  0  0  0  0  0
   46.0720   34.5500   43.8320 N   0  0  0  0  0  0  0  0  0  0  0  0
   47.4560   33.0220   43.8330 H   0  0  0  0  0  0  0  0  0  0  0  0
   46.8950   32.2780   46.0440 H   0  0  0  0  0  0  0  0  0  0  0  0
   44.5430   36.0700   44.1030 H   0  0  0  0  0  0  0  0  0  0  0  0
   47.4470   32.3250   48.3510 O   0  0  0  0  0  0  0  0  0  0  0  0
   48.4770   31.4790   48.5810 C   0  0  0  0  0  0  0  0  0  0  0  0
   49.2890   31.8720   49.4890 O   0  0  0  0  0  0  0  0  0  0  0  0
   49.2410   30.2990   48.3680 N   0  0  0  0  0  0  0  0  0  0  0  0
   50.5350   30.4680   48.9890 C   0  0  0  0  0  2  0  0  0  0  0  0
   51.3710   29.2410   48.8070 C   0  0  0  0  0  2  0  0  0  0  0  0
   51.3780   28.6890   47.4140 C   0  0  0  0  0  3  0  0  0  0  0  0
   52.1930   29.1930   46.8500 H   0  0  0  0  0  0  0  0  0  0  0  0
   50.0650   28.7560   46.7050 C   0  0  0  0  0  2  0  0  0  0  0  0
   48.9250   29.0710   47.6810 C   0  0  0  0  0  2  0  0  0  0  0  0
  2  1  2  6  0  0  0
  2  3  1  0  0  0  0
  3  4  1  0  0  0  0
  5  2  1  0  0  0  0
  6  7  1  0  0  0  0
  7 13  1  0  0  0  0
  7  8  2  0  0  0  0
  8  5  1  0  0  0  0
  9  8  1  0  0  0  0
 10  9  2  0  0  0  0
 11  6  2  0  0  0  0
 11 10  1  0  0  0  0
 12  6  1  0  0  0  0
 14 10  1  0  0  0  0
 15  2  1  0  0  0  0
 15 16  1  0  0  0  0
 16 17  2  0  0  0  0
 18 16  1  0  0  0  0
 18 19  1  0  0  0  0
 20 19  1  0  0  0  0
 21 20  1  0  0  0  0
 22 21  1  0  0  0  0
 23 21  1  0  0  0  0
 23 24  1  0  0  0  0
 24 18  1  0  0  0  0
M  END
>  <minimizedAffinity>
-4.8386302

>  <minimizedRMSD>
0.323526621

$$$$
