
 OpenBabel03242522503D

 24 25  0  0  0  0  0  0  0  0999 V2000
   45.1930   30.8110   47.5370 O   0  0  0  0  0  0  0  0  0  0  0  0
   45.7560   32.0060   48.3270 P   0  0  2  0  0  0  0  0  0  0  0  0
   45.2210   31.7910   49.9120 O   0  0  0  0  0  0  0  0  0  0  0  0
   45.3510   32.6440   50.3740 H   0  0  0  0  0  0  0  0  0  0  0  0
   45.0890   33.4240   47.6860 O   0  0  0  0  0  0  0  0  0  0  0  0
   46.6880   33.4960   44.4200 C   0  0  0  0  0  0  0  0  0  0  0  0
   46.3640   33.1270   45.7400 C   0  0  0  0  0  0  0  0  0  0  0  0
   45.3730   33.8170   46.3960 C   0  0  0  0  0  0  0  0  0  0  0  0
   44.7390   34.8350   45.7410 N   0  0  0  0  0  0  0  0  0  0  0  0
   45.0680   35.1700   44.4770 C   0  0  0  0  0  0  0  0  0  0  0  0
   46.0340   34.5080   43.8180 N   0  0  0  0  0  0  0  0  0  0  0  0
   47.4520   33.0120   43.8270 H   0  0  0  0  0  0  0  0  0  0  0  0
   46.9600   32.3180   46.0710 H   0  0  0  0  0  0  0  0  0  0  0  0
   44.4780   36.0020   44.0840 H   0  0  0  0  0  0  0  0  0  0  0  0
   47.4040   32.0430   48.2240 O   0  0  0  0  0  0  0  0  0  0  0  0
   48.3320   31.0950   48.4850 C   0  0  0  0  0  0  0  0  0  0  0  0
   48.7900   31.1200   49.6800 O   0  0  0  0  0  0  0  0  0  0  0  0
   49.1630   29.9890   48.1590 N   0  0  0  0  0  0  0  0  0  0  0  0
   48.3220   28.8800   47.7620 C   0  0  0  0  0  2  0  0  0  0  0  0
   49.1540   27.6950   47.3920 C   0  0  0  0  0  2  0  0  0  0  0  0
   50.2520   27.3720   48.3600 C   0  0  0  0  0  3  0  0  0  0  0  0
   49.8340   26.6960   49.1380 H   0  0  0  0  0  0  0  0  0  0  0  0
   50.9430   28.5600   48.9450 C   0  0  0  0  0  2  0  0  0  0  0  0
   50.5970   29.8370   48.1710 C   0  0  0  0  0  2  0  0  0  0  0  0
  2  1  2  6  0  0  0
  2  3  1  0  0  0  0
  3  4  1  0  0  0  0
  5  2  1  0  0  0  0
  6  7  1  0  0  0  0
  7 13  1  0  0  0  0
  7  8  2  0  0  0  0
  8  5  1  0  0  0  0
  9  8  1  0  0  0  0
 10  9  2  0  0  0  0
 11  6  2  0  0  0  0
 11 10  1  0  0  0  0
 12  6  1  0  0  0  0
 14 10  1  0  0  0  0
 15  2  1  0  0  0  0
 15 16  1  0  0  0  0
 16 17  2  0  0  0  0
 18 24  1  0  0  0  0
 18 16  1  0  0  0  0
 19 18  1  0  0  0  0
 20 19  1  0  0  0  0
 20 21  1  0  0  0  0
 21 23  1  0  0  0  0
 21 22  1  0  0  0  0
 24 23  1  0  0  0  0
M  END
>  <minimizedAffinity>
-4.63111782

>  <minimizedRMSD>
0.71174556

$$$$
