
 OpenBabel03242522503D

 24 25  0  0  0  0  0  0  0  0999 V2000
   45.4560   30.8090   47.5400 O   0  0  0  0  0  0  0  0  0  0  0  0
   45.8240   32.0720   48.3380 P   0  0  2  0  0  0  0  0  0  0  0  0
   45.2400   31.8070   49.8980 O   0  0  0  0  0  0  0  0  0  0  0  0
   45.2390   32.6740   50.3530 H   0  0  0  0  0  0  0  0  0  0  0  0
   45.0200   33.3890   47.6420 O   0  0  0  0  0  0  0  0  0  0  0  0
   46.6730   33.5280   44.4070 C   0  0  0  0  0  0  0  0  0  0  0  0
   46.3210   33.1270   45.7090 C   0  0  0  0  0  0  0  0  0  0  0  0
   45.3320   33.8150   46.3700 C   0  0  0  0  0  0  0  0  0  0  0  0
   44.7290   34.8650   45.7360 N   0  0  0  0  0  0  0  0  0  0  0  0
   45.0840   35.2310   44.4880 C   0  0  0  0  0  0  0  0  0  0  0  0
   46.0490   34.5710   43.8250 N   0  0  0  0  0  0  0  0  0  0  0  0
   47.4380   33.0470   43.8110 H   0  0  0  0  0  0  0  0  0  0  0  0
   46.8950   32.2960   46.0250 H   0  0  0  0  0  0  0  0  0  0  0  0
   44.5170   36.0860   44.1110 H   0  0  0  0  0  0  0  0  0  0  0  0
   47.4580   32.3150   48.3160 O   0  0  0  0  0  0  0  0  0  0  0  0
   48.4780   31.5260   48.7240 C   0  0  0  0  0  0  0  0  0  0  0  0
   49.4290   32.1550   49.3070 O   0  0  0  0  0  0  0  0  0  0  0  0
   49.1570   30.2880   48.8880 N   0  0  0  0  0  0  0  0  0  0  0  0
   49.6690   30.2170   50.2390 C   0  0  0  0  0  2  0  0  0  0  0  0
   50.3770   28.9210   50.4660 C   0  0  0  0  0  2  0  0  0  0  0  0
   51.3340   28.5310   49.3790 C   0  0  0  0  0  3  0  0  0  0  0  0
   52.3220   28.9840   49.6140 H   0  0  0  0  0  0  0  0  0  0  0  0
   50.8750   28.8470   47.9950 C   0  0  0  0  0  2  0  0  0  0  0  0
   49.3820   29.1950   47.9740 C   0  0  0  0  0  2  0  0  0  0  0  0
  2  1  2  6  0  0  0
  2  3  1  0  0  0  0
  3  4  1  0  0  0  0
  5  2  1  0  0  0  0
  6  7  1  0  0  0  0
  7 13  1  0  0  0  0
  7  8  2  0  0  0  0
  8  5  1  0  0  0  0
  9  8  1  0  0  0  0
 10  9  2  0  0  0  0
 11  6  2  0  0  0  0
 11 10  1  0  0  0  0
 12  6  1  0  0  0  0
 14 10  1  0  0  0  0
 15  2  1  0  0  0  0
 15 16  1  0  0  0  0
 16 18  1  0  0  0  0
 16 17  2  0  0  0  0
 18 19  1  0  0  0  0
 19 20  1  0  0  0  0
 21 22  1  0  0  0  0
 21 20  1  0  0  0  0
 23 21  1  0  0  0  0
 24 23  1  0  0  0  0
 24 18  1  0  0  0  0
M  END
>  <minimizedAffinity>
-5.08404827

>  <minimizedRMSD>
0.26128

$$$$
