
 OpenBabel03242522503D

 24 25  0  0  0  0  0  0  0  0999 V2000
   45.2720   30.7110   47.5970 O   0  0  0  0  0  0  0  0  0  0  0  0
   45.7870   31.9490   48.3520 P   0  0  2  0  0  0  0  0  0  0  0  0
   45.1900   31.8010   49.9230 O   0  0  0  0  0  0  0  0  0  0  0  0
   45.2920   32.6760   50.3490 H   0  0  0  0  0  0  0  0  0  0  0  0
   45.1320   33.3260   47.6180 O   0  0  0  0  0  0  0  0  0  0  0  0
   46.9030   33.2910   44.4420 C   0  0  0  0  0  0  0  0  0  0  0  0
   46.5080   32.9650   45.7530 C   0  0  0  0  0  0  0  0  0  0  0  0
   45.4850   33.6780   46.3330 C   0  0  0  0  0  0  0  0  0  0  0  0
   44.8920   34.6760   45.6140 N   0  0  0  0  0  0  0  0  0  0  0  0
   45.2890   34.9710   44.3600 C   0  0  0  0  0  0  0  0  0  0  0  0
   46.2860   34.2860   43.7740 N   0  0  0  0  0  0  0  0  0  0  0  0
   47.6960   32.7870   43.9060 H   0  0  0  0  0  0  0  0  0  0  0  0
   47.0810   32.1650   46.1410 H   0  0  0  0  0  0  0  0  0  0  0  0
   44.7250   35.7920   43.9100 H   0  0  0  0  0  0  0  0  0  0  0  0
   47.4380   32.0030   48.3140 O   0  0  0  0  0  0  0  0  0  0  0  0
   48.3630   31.0370   48.5110 C   0  0  0  0  0  0  0  0  0  0  0  0
   48.6680   30.8410   49.7390 O   0  0  0  0  0  0  0  0  0  0  0  0
   49.2710   30.0260   48.0940 N   0  0  0  0  0  0  0  0  0  0  0  0
   50.5150   30.1960   48.8120 C   0  0  0  0  0  2  0  0  0  0  0  0
   51.4990   29.1420   48.4180 C   0  0  0  0  0  2  0  0  0  0  0  0
   51.6190   28.9170   46.9410 C   0  0  0  0  0  3  0  0  0  0  0  0
   52.3840   29.6200   46.5480 H   0  0  0  0  0  0  0  0  0  0  0  0
   50.3310   28.9920   46.1880 C   0  0  0  0  0  2  0  0  0  0  0  0
   49.1310   28.9530   47.1400 C   0  0  0  0  0  2  0  0  0  0  0  0
  2  1  2  6  0  0  0
  2  3  1  0  0  0  0
  3  4  1  0  0  0  0
  5  2  1  0  0  0  0
  6  7  1  0  0  0  0
  7 13  1  0  0  0  0
  7  8  2  0  0  0  0
  8  5  1  0  0  0  0
  9  8  1  0  0  0  0
 10  9  2  0  0  0  0
 11 10  1  0  0  0  0
 11  6  2  0  0  0  0
 12  6  1  0  0  0  0
 14 10  1  0  0  0  0
 15  2  1  0  0  0  0
 15 16  1  0  0  0  0
 16 17  2  0  0  0  0
 18 16  1  0  0  0  0
 18 19  1  0  0  0  0
 20 19  1  0  0  0  0
 21 20  1  0  0  0  0
 22 21  1  0  0  0  0
 23 21  1  0  0  0  0
 23 24  1  0  0  0  0
 24 18  1  0  0  0  0
M  END
>  <minimizedAffinity>
-4.77498102

>  <minimizedRMSD>
0.790498316

$$$$
