
 OpenBabel03242522503D

 24 25  0  0  0  0  0  0  0  0999 V2000
   45.5420   30.7060   47.6670 O   0  0  0  0  0  0  0  0  0  0  0  0
   45.8520   31.9980   48.4440 P   0  0  2  0  0  0  0  0  0  0  0  0
   45.2500   31.7450   49.9990 O   0  0  0  0  0  0  0  0  0  0  0  0
   45.2110   32.6210   50.4350 H   0  0  0  0  0  0  0  0  0  0  0  0
   45.0150   33.2710   47.7060 O   0  0  0  0  0  0  0  0  0  0  0  0
   46.7200   33.4040   44.4980 C   0  0  0  0  0  0  0  0  0  0  0  0
   46.3450   33.0030   45.7930 C   0  0  0  0  0  0  0  0  0  0  0  0
   45.3500   33.6970   46.4390 C   0  0  0  0  0  0  0  0  0  0  0  0
   44.7630   34.7500   45.7970 N   0  0  0  0  0  0  0  0  0  0  0  0
   45.1400   35.1160   44.5560 C   0  0  0  0  0  0  0  0  0  0  0  0
   46.1110   34.4510   43.9070 N   0  0  0  0  0  0  0  0  0  0  0  0
   47.4920   32.9200   43.9140 H   0  0  0  0  0  0  0  0  0  0  0  0
   46.9100   32.1690   46.1180 H   0  0  0  0  0  0  0  0  0  0  0  0
   44.5840   35.9750   44.1710 H   0  0  0  0  0  0  0  0  0  0  0  0
   47.4770   32.2980   48.4440 O   0  0  0  0  0  0  0  0  0  0  0  0
   48.5330   31.4650   48.5830 C   0  0  0  0  0  0  0  0  0  0  0  0
   49.4860   31.9370   49.2950 O   0  0  0  0  0  0  0  0  0  0  0  0
   49.2520   30.2580   48.3680 N   0  0  0  0  0  0  0  0  0  0  0  0
   48.8750   29.7170   47.0810 C   0  0  0  0  0  2  0  0  0  0  0  0
   49.6200   28.4520   46.8020 C   0  0  0  0  0  2  0  0  0  0  0  0
   49.6480   27.4770   47.9400 C   0  0  0  0  0  3  0  0  0  0  0  0
   48.7470   26.8320   47.8610 H   0  0  0  0  0  0  0  0  0  0  0  0
   49.7940   28.0940   49.2920 C   0  0  0  0  0  2  0  0  0  0  0  0
   50.2170   29.5640   49.1870 C   0  0  0  0  0  2  0  0  0  0  0  0
  2  1  2  6  0  0  0
  2 15  1  0  0  0  0
  2  3  1  0  0  0  0
  3  4  1  0  0  0  0
  5  2  1  0  0  0  0
  6  7  1  0  0  0  0
  7 13  1  0  0  0  0
  7  8  2  0  0  0  0
  8  5  1  0  0  0  0
  9  8  1  0  0  0  0
 10  9  2  0  0  0  0
 11  6  2  0  0  0  0
 11 10  1  0  0  0  0
 12  6  1  0  0  0  0
 14 10  1  0  0  0  0
 15 16  1  0  0  0  0
 16 17  2  0  0  0  0
 18 16  1  0  0  0  0
 18 24  1  0  0  0  0
 19 18  1  0  0  0  0
 20 19  1  0  0  0  0
 20 21  1  0  0  0  0
 21 23  1  0  0  0  0
 22 21  1  0  0  0  0
 24 23  1  0  0  0  0
M  END
>  <minimizedAffinity>
-4.70172358

>  <minimizedRMSD>
0.358016133

$$$$
