
 OpenBabel03242522503D

 24 25  0  0  0  0  0  0  0  0999 V2000
   45.2720   30.7930   47.5570 O   0  0  0  0  0  0  0  0  0  0  0  0
   45.7970   32.0380   48.2940 P   0  0  2  0  0  0  0  0  0  0  0  0
   45.3210   31.8450   49.9010 O   0  0  0  0  0  0  0  0  0  0  0  0
   45.4220   32.7170   50.3340 H   0  0  0  0  0  0  0  0  0  0  0  0
   45.0420   33.4010   47.6330 O   0  0  0  0  0  0  0  0  0  0  0  0
   46.6630   33.5360   44.3810 C   0  0  0  0  0  0  0  0  0  0  0  0
   46.3240   33.1360   45.6870 C   0  0  0  0  0  0  0  0  0  0  0  0
   45.3410   33.8250   46.3570 C   0  0  0  0  0  0  0  0  0  0  0  0
   44.7310   34.8730   45.7270 N   0  0  0  0  0  0  0  0  0  0  0  0
   45.0730   35.2370   44.4750 C   0  0  0  0  0  0  0  0  0  0  0  0
   46.0320   34.5760   43.8030 N   0  0  0  0  0  0  0  0  0  0  0  0
   47.4220   33.0550   43.7790 H   0  0  0  0  0  0  0  0  0  0  0  0
   46.9030   32.3070   46.0000 H   0  0  0  0  0  0  0  0  0  0  0  0
   44.5020   36.0900   44.1020 H   0  0  0  0  0  0  0  0  0  0  0  0
   47.4380   32.1530   48.1390 O   0  0  0  0  0  0  0  0  0  0  0  0
   48.4290   31.3300   48.5500 C   0  0  0  0  0  0  0  0  0  0  0  0
   49.1820   31.8250   49.4590 O   0  0  0  0  0  0  0  0  0  0  0  0
   49.1780   30.1220   48.5470 N   0  0  0  0  0  0  0  0  0  0  0  0
   48.4130   29.1060   47.8560 C   0  0  0  0  0  2  0  0  0  0  0  0
   49.1700   27.8180   47.8110 C   0  0  0  0  0  2  0  0  0  0  0  0
   49.7820   27.4050   49.1160 C   0  0  0  0  0  3  0  0  0  0  0  0
   49.0260   26.8130   49.6760 H   0  0  0  0  0  0  0  0  0  0  0  0
   50.3490   28.5240   49.9250 C   0  0  0  0  0  2  0  0  0  0  0  0
   50.4750   29.8020   49.0900 C   0  0  0  0  0  2  0  0  0  0  0  0
  2  1  2  6  0  0  0
  2  3  1  0  0  0  0
  3  4  1  0  0  0  0
  5  2  1  0  0  0  0
  6  7  1  0  0  0  0
  7 13  1  0  0  0  0
  7  8  2  0  0  0  0
  8  5  1  0  0  0  0
  9  8  1  0  0  0  0
 10  9  2  0  0  0  0
 11  6  2  0  0  0  0
 11 10  1  0  0  0  0
 12  6  1  0  0  0  0
 14 10  1  0  0  0  0
 15  2  1  0  0  0  0
 15 16  1  0  0  0  0
 16 17  2  0  0  0  0
 18 16  1  0  0  0  0
 18 24  1  0  0  0  0
 19 18  1  0  0  0  0
 20 19  1  0  0  0  0
 20 21  1  0  0  0  0
 21 22  1  0  0  0  0
 21 23  1  0  0  0  0
 24 23  1  0  0  0  0
M  END
>  <minimizedAffinity>
-4.93100929

>  <minimizedRMSD>
0.153050944

$$$$
