
 OpenBabel03252506213D

 35 37  0  0  0  0  0  0  0  0999 V2000
   45.1140   36.6120   43.3280 C   0  0  0  0  0  0  0  0  0  0  0  0
   44.0710   36.5520   42.3830 C   0  0  0  0  0  0  0  0  0  0  0  0
   44.1210   35.5340   41.4120 C   0  0  0  0  0  0  0  0  0  0  0  0
   45.1570   34.6740   41.4320 N   0  0  0  0  0  0  0  0  0  0  0  0
   46.1430   34.7680   42.3620 C   0  0  0  0  0  0  0  0  0  0  0  0
   46.1160   35.7340   43.3020 N   0  0  0  0  0  0  0  0  0  0  0  0
   43.2990   37.2830   42.4570 H   0  0  0  0  0  0  0  0  0  0  0  0
   43.3320   35.4850   40.6930 H   0  0  0  0  0  0  0  0  0  0  0  0
   48.7190   35.7710   41.1290 Cl  0  0  0  0  0  0  0  0  0  0  0  0
   48.4430   34.1790   41.7440 C   0  0  0  0  0  0  0  0  0  0  0  0
   47.2380   33.7740   42.3000 C   0  0  0  0  0  0  0  0  0  0  0  0
   46.9960   32.5240   42.7930 C   0  0  0  0  0  0  0  0  0  0  0  0
   48.0220   31.6180   42.7280 C   0  0  0  0  0  0  0  0  0  0  0  0
   49.2670   31.9000   42.1970 C   0  0  0  0  0  0  0  0  0  0  0  0
   49.4200   33.2010   41.7190 C   0  0  0  0  0  0  0  0  0  0  0  0
   46.0270   32.2820   43.2130 H   0  0  0  0  0  0  0  0  0  0  0  0
   47.8450   30.6200   43.1140 H   0  0  0  0  0  0  0  0  0  0  0  0
   50.0830   31.1960   42.1400 H   0  0  0  0  0  0  0  0  0  0  0  0
   50.3920   33.4550   41.2940 H   0  0  0  0  0  0  0  0  0  0  0  0
   45.0690   37.6710   44.3450 C   0  0  0  0  0  3  0  0  0  0  0  0
   45.4220   38.8910   43.9830 C   0  0  0  0  0  3  0  0  0  0  0  0
   45.3850   39.9860   44.9940 C   0  0  0  0  0  0  0  0  0  0  0  0
   45.3860   39.5920   46.0350 H   0  0  0  0  0  0  0  0  0  0  0  0
   46.3060   40.5990   44.8670 H   0  0  0  0  0  0  0  0  0  0  0  0
   44.1880   40.7740   44.7280 N   0  0  0  0  0  0  0  0  0  0  0  0
   43.3110   40.3480   44.3050 H   0  0  0  0  0  0  0  0  0  0  0  0
   41.8440   42.0110   45.5460 F   0  0  0  0  0  0  0  0  0  0  0  0
   42.9480   42.7980   45.4270 C   0  0  0  0  0  0  0  0  0  0  0  0
   44.1130   42.1770   45.0210 C   0  0  0  0  0  0  0  0  0  0  0  0
   45.2960   42.9080   44.8710 C   0  0  0  0  0  0  0  0  0  0  0  0
   46.2530   42.5130   44.5590 H   0  0  0  0  0  0  0  0  0  0  0  0
   45.1720   44.2570   45.1630 C   0  0  0  0  0  0  0  0  0  0  0  0
   46.0890   44.8560   45.0550 H   0  0  0  0  0  0  0  0  0  0  0  0
   44.0360   44.9250   45.5730 C   0  0  0  0  0  3  0  0  0  0  0  0
   42.9120   44.1450   45.6990 C   0  0  0  0  0  3  0  0  0  0  0  0
  1 20  1  0  0  0  0
  2  7  1  0  0  0  0
  2  1  2  0  0  0  0
  3  4  2  0  0  0  0
  3  2  1  0  0  0  0
  4  5  1  0  0  0  0
  5  6  2  0  0  0  0
  6  1  1  0  0  0  0
  8  3  1  0  0  0  0
  9 10  1  0  0  0  0
 10 11  1  0  0  0  0
 11  5  1  0  0  0  0
 11 12  2  0  0  0  0
 12 16  1  0  0  0  0
 13 12  1  0  0  0  0
 13 17  1  0  0  0  0
 14 13  2  0  0  0  0
 15 10  2  0  0  0  0
 15 14  1  0  0  0  0
 18 14  1  0  0  0  0
 19 15  1  0  0  0  0
 21 20  2  0  0  0  0
 21 22  1  0  0  0  0
 22 23  1  0  0  0  0
 24 22  1  0  0  0  0
 25 22  1  0  0  0  0
 25 29  1  0  0  0  0
 26 25  1  0  0  0  0
 28 27  1  0  0  0  0
 28 35  1  0  0  0  0
 29 28  2  0  0  0  0
 30 29  1  0  0  0  0
 30 32  2  0  0  0  0
 31 30  1  0  0  0  0
 32 34  1  0  0  0  0
 33 32  1  0  0  0  0
 34 35  2  0  0  0  0
M  END
>  <minimizedAffinity>
-0.843777597

>  <minimizedRMSD>
0.801635623

$$$$
