
 OpenBabel03242523493D

 26 28  0  0  0  0  0  0  0  0999 V2000
   38.3430   29.3490   42.7290 C   0  0  0  0  0  0  0  0  0  0  0  0
   37.4100   29.8600   41.8060 C   0  0  0  0  0  0  0  0  0  0  0  0
   37.7900   30.9720   41.0550 C   0  0  0  0  0  0  0  0  0  0  0  0
   39.0390   31.5210   41.2400 N   0  0  0  0  0  0  0  0  0  0  0  0
   39.8950   30.9930   42.1370 C   0  0  0  0  0  0  0  0  0  0  0  0
   39.5420   29.9150   42.8730 N   0  0  0  0  0  0  0  0  0  0  0  0
   36.4140   29.4890   41.6110 H   0  0  0  0  0  0  0  0  0  0  0  0
   40.8740   31.4570   42.2520 H   0  0  0  0  0  0  0  0  0  0  0  0
   36.8640   31.5580   40.0400 C   0  0  0  0  0  0  0  0  0  0  0  0
   37.2140   32.8830   39.4320 C   0  0  0  0  0  0  0  0  0  0  0  0
   37.2490   31.5760   38.6380 C   0  0  0  0  0  0  0  0  0  0  0  0
   35.8040   31.4030   40.3260 H   0  0  0  0  0  0  0  0  0  0  0  0
   38.1510   33.3640   39.7390 H   0  0  0  0  0  0  0  0  0  0  0  0
   36.3650   33.5650   39.2850 H   0  0  0  0  0  0  0  0  0  0  0  0
   38.2720   31.3280   38.2870 H   0  0  0  0  0  0  0  0  0  0  0  0
   36.4900   31.5570   37.8240 H   0  0  0  0  0  0  0  0  0  0  0  0
   37.9680   28.2660   43.4610 O   0  0  0  0  0  0  0  0  0  0  0  0
   40.3970   26.8440   43.6740 F   0  0  0  0  0  0  0  0  0  0  0  0
   39.2450   26.3410   43.1670 C   0  0  0  0  0  0  0  0  0  0  0  0
   37.9940   26.9550   43.0220 C   0  0  0  0  0  0  0  0  0  0  0  0
   36.9590   26.2220   42.4800 C   0  0  0  0  0  0  0  0  0  0  0  0
   36.0520   26.7990   42.4200 H   0  0  0  0  0  0  0  0  0  0  0  0
   37.1340   24.9130   42.0840 C   0  0  0  0  0  0  0  0  0  0  0  0
   36.2120   24.4980   41.6830 H   0  0  0  0  0  0  0  0  0  0  0  0
   38.3510   24.3080   42.2220 C   0  0  0  0  0  3  0  0  0  0  0  0
   39.4060   25.0160   42.7620 C   0  0  0  0  0  3  0  0  0  0  0  0
  1  6  1  0  0  0  0
  1 17  1  0  0  0  0
  2  1  2  0  0  0  0
  3  4  2  0  0  0  0
  3  2  1  0  0  0  0
  4  5  1  0  0  0  0
  5  8  1  0  0  0  0
  5  6  2  0  0  0  0
  7  2  1  0  0  0  0
  9 12  1  0  0  0  0
  9  3  1  0  0  0  0
 10 13  1  0  0  0  0
 10  9  1  0  0  0  0
 11 10  1  0  0  0  0
 11  9  1  0  0  0  0
 14 10  1  0  0  0  0
 15 11  1  0  0  0  0
 16 11  1  0  0  0  0
 19 18  1  0  0  0  0
 20 19  1  0  0  0  0
 20 17  1  0  0  0  0
 21 20  2  0  0  0  0
 22 21  1  0  0  0  0
 23 25  2  0  0  0  0
 23 21  1  0  0  0  0
 24 23  1  0  0  0  0
 25 26  1  0  0  0  0
 26 19  2  0  0  0  0
M  END
>  <minimizedAffinity>
-5.15172434

$$$$

 OpenBabel03242523493D

 26 28  0  0  0  0  0  0  0  0999 V2000
   38.4260   29.4950   42.6930 C   0  0  0  0  0  0  0  0  0  0  0  0
   37.4980   30.0280   41.7790 C   0  0  0  0  0  0  0  0  0  0  0  0
   37.8780   31.1630   41.0630 C   0  0  0  0  0  0  0  0  0  0  0  0
   39.1230   31.7110   41.2720 N   0  0  0  0  0  0  0  0  0  0  0  0
   39.9750   31.1610   42.1600 C   0  0  0  0  0  0  0  0  0  0  0  0
   39.6220   30.0610   42.8610 N   0  0  0  0  0  0  0  0  0  0  0  0
   36.5050   29.6580   41.5650 H   0  0  0  0  0  0  0  0  0  0  0  0
   40.9520   31.6260   42.2950 H   0  0  0  0  0  0  0  0  0  0  0  0
   36.9560   31.7740   40.0580 C   0  0  0  0  0  0  0  0  0  0  0  0
   37.2890   33.1310   39.5140 C   0  0  0  0  0  0  0  0  0  0  0  0
   37.3640   31.8610   38.6650 C   0  0  0  0  0  0  0  0  0  0  0  0
   35.8960   31.5860   40.3190 H   0  0  0  0  0  0  0  0  0  0  0  0
   38.2110   33.6160   39.8570 H   0  0  0  0  0  0  0  0  0  0  0  0
   36.4290   33.8010   39.3820 H   0  0  0  0  0  0  0  0  0  0  0  0
   38.3970   31.6480   38.3210 H   0  0  0  0  0  0  0  0  0  0  0  0
   36.6180   31.8620   37.8380 H   0  0  0  0  0  0  0  0  0  0  0  0
   38.0510   28.3890   43.3910 O   0  0  0  0  0  0  0  0  0  0  0  0
   36.5590   26.7560   41.6370 F   0  0  0  0  0  0  0  0  0  0  0  0
   37.6920   26.3750   42.2780 C   0  0  0  0  0  0  0  0  0  0  0  0
   38.5030   27.1030   43.1570 C   0  0  0  0  0  0  0  0  0  0  0  0
   39.6240   26.4910   43.6790 C   0  0  0  0  0  0  0  0  0  0  0  0
   40.1650   27.1480   44.3390 H   0  0  0  0  0  0  0  0  0  0  0  0
   39.9530   25.1930   43.3530 C   0  0  0  0  0  0  0  0  0  0  0  0
   40.8650   24.8820   43.8570 H   0  0  0  0  0  0  0  0  0  0  0  0
   39.1660   24.4770   42.4950 C   0  0  0  0  0  3  0  0  0  0  0  0
   38.0380   25.0630   41.9570 C   0  0  0  0  0  3  0  0  0  0  0  0
  1  6  1  0  0  0  0
  1 17  1  0  0  0  0
  2  1  2  0  0  0  0
  3  4  2  0  0  0  0
  3  2  1  0  0  0  0
  4  5  1  0  0  0  0
  5  8  1  0  0  0  0
  5  6  2  0  0  0  0
  7  2  1  0  0  0  0
  9 12  1  0  0  0  0
  9  3  1  0  0  0  0
 10 13  1  0  0  0  0
 10  9  1  0  0  0  0
 11 10  1  0  0  0  0
 11  9  1  0  0  0  0
 14 10  1  0  0  0  0
 15 11  1  0  0  0  0
 16 11  1  0  0  0  0
 18 19  1  0  0  0  0
 19 20  1  0  0  0  0
 20 17  1  0  0  0  0
 20 21  2  0  0  0  0
 21 22  1  0  0  0  0
 23 21  1  0  0  0  0
 23 24  1  0  0  0  0
 25 23  2  0  0  0  0
 26 19  2  0  0  0  0
 26 25  1  0  0  0  0
M  END
>  <minimizedAffinity>
-5.11097574

$$$$

 OpenBabel03242523493D

 26 28  0  0  0  0  0  0  0  0999 V2000
   37.0030   28.8210   41.9570 C   0  0  0  0  0  0  0  0  0  0  0  0
   36.5960   27.4830   41.7990 C   0  0  0  0  0  0  0  0  0  0  0  0
   37.3770   26.4960   42.4000 C   0  0  0  0  0  0  0  0  0  0  0  0
   38.4980   26.8600   43.1120 N   0  0  0  0  0  0  0  0  0  0  0  0
   38.8440   28.1560   43.2340 C   0  0  0  0  0  0  0  0  0  0  0  0
   38.0960   29.1240   42.6570 N   0  0  0  0  0  0  0  0  0  0  0  0
   35.7360   27.1220   41.2520 H   0  0  0  0  0  0  0  0  0  0  0  0
   39.7380   28.4010   43.8070 H   0  0  0  0  0  0  0  0  0  0  0  0
   36.9980   25.0550   42.2950 C   0  0  0  0  0  0  0  0  0  0  0  0
   36.7590   24.4740   40.9350 C   0  0  0  0  0  0  0  0  0  0  0  0
   37.9640   24.0890   41.7950 C   0  0  0  0  0  0  0  0  0  0  0  0
   36.2850   24.7690   43.0940 H   0  0  0  0  0  0  0  0  0  0  0  0
   36.8940   25.1250   40.0610 H   0  0  0  0  0  0  0  0  0  0  0  0
   35.9130   23.7750   40.8700 H   0  0  0  0  0  0  0  0  0  0  0  0
   38.9250   24.3820   41.3230 H   0  0  0  0  0  0  0  0  0  0  0  0
   37.9350   23.0210   42.1060 H   0  0  0  0  0  0  0  0  0  0  0  0
   36.2390   29.7800   41.3670 O   0  0  0  0  0  0  0  0  0  0  0  0
   36.2310   28.7890   38.7240 F   0  0  0  0  0  0  0  0  0  0  0  0
   36.6180   30.0370   39.0850 C   0  0  0  0  0  0  0  0  0  0  0  0
   36.6560   30.6260   40.3550 C   0  0  0  0  0  0  0  0  0  0  0  0
   37.0860   31.9310   40.4650 C   0  0  0  0  0  0  0  0  0  0  0  0
   37.0710   32.2710   41.4860 H   0  0  0  0  0  0  0  0  0  0  0  0
   37.4740   32.6570   39.3580 C   0  0  0  0  0  0  0  0  0  0  0  0
   37.7800   33.6630   39.6370 H   0  0  0  0  0  0  0  0  0  0  0  0
   37.4400   32.0900   38.1150 C   0  0  0  0  0  3  0  0  0  0  0  0
   37.0140   30.7850   37.9750 C   0  0  0  0  0  3  0  0  0  0  0  0
  1  6  1  0  0  0  0
  2  1  2  0  0  0  0
  2  3  1  0  0  0  0
  3  4  2  0  0  0  0
  4  5  1  0  0  0  0
  5  8  1  0  0  0  0
  6  5  2  0  0  0  0
  7  2  1  0  0  0  0
  9  3  1  0  0  0  0
  9 12  1  0  0  0  0
 10 11  1  0  0  0  0
 10  9  1  0  0  0  0
 11 16  1  0  0  0  0
 11  9  1  0  0  0  0
 13 10  1  0  0  0  0
 14 10  1  0  0  0  0
 15 11  1  0  0  0  0
 17  1  1  0  0  0  0
 18 19  1  0  0  0  0
 19 20  1  0  0  0  0
 20 21  2  0  0  0  0
 20 17  1  0  0  0  0
 21 22  1  0  0  0  0
 23 24  1  0  0  0  0
 23 21  1  0  0  0  0
 25 23  2  0  0  0  0
 26 25  1  0  0  0  0
 26 19  2  0  0  0  0
M  END
>  <minimizedAffinity>
-5.09255505

$$$$

 OpenBabel03242523493D

 26 28  0  0  0  0  0  0  0  0999 V2000
   36.5760   28.8180   41.8280 C   0  0  0  0  0  0  0  0  0  0  0  0
   37.2880   30.0290   41.7430 C   0  0  0  0  0  0  0  0  0  0  0  0
   36.9820   30.8840   40.6840 C   0  0  0  0  0  0  0  0  0  0  0  0
   36.0120   30.5200   39.7770 N   0  0  0  0  0  0  0  0  0  0  0  0
   35.3590   29.3480   39.9040 C   0  0  0  0  0  0  0  0  0  0  0  0
   35.6450   28.5080   40.9250 N   0  0  0  0  0  0  0  0  0  0  0  0
   38.0630   30.3800   42.4100 H   0  0  0  0  0  0  0  0  0  0  0  0
   34.5980   29.0980   39.1650 H   0  0  0  0  0  0  0  0  0  0  0  0
   37.6790   32.1980   40.5390 C   0  0  0  0  0  0  0  0  0  0  0  0
   38.6790   32.3590   39.4350 C   0  0  0  0  0  0  0  0  0  0  0  0
   37.3310   33.0810   39.4380 C   0  0  0  0  0  0  0  0  0  0  0  0
   37.9530   32.6180   41.5270 H   0  0  0  0  0  0  0  0  0  0  0  0
   38.8460   31.5120   38.7570 H   0  0  0  0  0  0  0  0  0  0  0  0
   39.5810   32.9270   39.7040 H   0  0  0  0  0  0  0  0  0  0  0  0
   36.6870   32.7680   38.5900 H   0  0  0  0  0  0  0  0  0  0  0  0
   37.4450   34.1850   39.5170 H   0  0  0  0  0  0  0  0  0  0  0  0
   36.8790   27.9860   42.8610 O   0  0  0  0  0  0  0  0  0  0  0  0
   39.5730   27.7800   43.6790 F   0  0  0  0  0  0  0  0  0  0  0  0
   38.8360   26.7620   43.1710 C   0  0  0  0  0  0  0  0  0  0  0  0
   37.5020   26.7570   42.7420 C   0  0  0  0  0  0  0  0  0  0  0  0
   36.9680   25.5780   42.2660 C   0  0  0  0  0  0  0  0  0  0  0  0
   35.9400   25.7000   41.9680 H   0  0  0  0  0  0  0  0  0  0  0  0
   37.7140   24.4210   42.2060 C   0  0  0  0  0  0  0  0  0  0  0  0
   37.1280   23.5970   41.8060 H   0  0  0  0  0  0  0  0  0  0  0  0
   39.0160   24.4180   42.6230 C   0  0  0  0  0  3  0  0  0  0  0  0
   39.5780   25.5830   43.1040 C   0  0  0  0  0  3  0  0  0  0  0  0
  1 17  1  0  0  0  0
  2  1  1  0  0  0  0
  2  7  1  0  0  0  0
  3  2  2  0  0  0  0
  4  5  2  0  0  0  0
  4  3  1  0  0  0  0
  5  6  1  0  0  0  0
  6  1  2  0  0  0  0
  8  5  1  0  0  0  0
  9  3  1  0  0  0  0
  9 12  1  0  0  0  0
 10 11  1  0  0  0  0
 10 14  1  0  0  0  0
 10  9  1  0  0  0  0
 11 16  1  0  0  0  0
 11  9  1  0  0  0  0
 13 10  1  0  0  0  0
 15 11  1  0  0  0  0
 19 18  1  0  0  0  0
 20 17  1  0  0  0  0
 20 19  2  0  0  0  0
 21 20  1  0  0  0  0
 22 21  1  0  0  0  0
 23 21  2  0  0  0  0
 23 25  1  0  0  0  0
 24 23  1  0  0  0  0
 25 26  2  0  0  0  0
 26 19  1  0  0  0  0
M  END
>  <minimizedAffinity>
-5.03772593

$$$$

 OpenBabel03242523493D

 26 28  0  0  0  0  0  0  0  0999 V2000
   36.8490   30.9360   40.5840 C   0  0  0  0  0  0  0  0  0  0  0  0
   36.6850   30.2090   39.3900 C   0  0  0  0  0  0  0  0  0  0  0  0
   36.9930   30.8560   38.1940 C   0  0  0  0  0  0  0  0  0  0  0  0
   37.4380   32.1590   38.2230 N   0  0  0  0  0  0  0  0  0  0  0  0
   37.5780   32.8110   39.3940 C   0  0  0  0  0  0  0  0  0  0  0  0
   37.2840   32.1970   40.5620 N   0  0  0  0  0  0  0  0  0  0  0  0
   36.3370   29.1910   39.2880 H   0  0  0  0  0  0  0  0  0  0  0  0
   37.9330   33.8410   39.3730 H   0  0  0  0  0  0  0  0  0  0  0  0
   36.8660   30.1440   36.8870 C   0  0  0  0  0  0  0  0  0  0  0  0
   37.3000   28.7110   36.8070 C   0  0  0  0  0  0  0  0  0  0  0  0
   35.8330   29.1350   36.7120 C   0  0  0  0  0  0  0  0  0  0  0  0
   37.1530   30.8010   36.0420 H   0  0  0  0  0  0  0  0  0  0  0  0
   37.6740   28.2300   37.7200 H   0  0  0  0  0  0  0  0  0  0  0  0
   37.8290   28.4370   35.8840 H   0  0  0  0  0  0  0  0  0  0  0  0
   35.2280   28.7360   37.5530 H   0  0  0  0  0  0  0  0  0  0  0  0
   35.3950   28.9160   35.7130 H   0  0  0  0  0  0  0  0  0  0  0  0
   36.5450   30.3020   41.7490 O   0  0  0  0  0  0  0  0  0  0  0  0
   39.1360   30.4520   42.8590 F   0  0  0  0  0  0  0  0  0  0  0  0
   38.4130   29.3130   42.7260 C   0  0  0  0  0  0  0  0  0  0  0  0
   37.1280   29.1310   42.1980 C   0  0  0  0  0  0  0  0  0  0  0  0
   36.5970   27.8590   42.1810 C   0  0  0  0  0  0  0  0  0  0  0  0
   35.6080   27.8460   41.7540 H   0  0  0  0  0  0  0  0  0  0  0  0
   37.3000   26.7780   42.6690 C   0  0  0  0  0  0  0  0  0  0  0  0
   36.7240   25.8600   42.5730 H   0  0  0  0  0  0  0  0  0  0  0  0
   38.5540   26.9470   43.1850 C   0  0  0  0  0  3  0  0  0  0  0  0
   39.1120   28.2090   43.2160 C   0  0  0  0  0  3  0  0  0  0  0  0
  1 17  1  0  0  0  0
  2  1  2  0  0  0  0
  3  4  2  0  0  0  0
  3  2  1  0  0  0  0
  4  5  1  0  0  0  0
  5  6  2  0  0  0  0
  6  1  1  0  0  0  0
  7  2  1  0  0  0  0
  8  5  1  0  0  0  0
  9  3  1  0  0  0  0
 10  9  1  0  0  0  0
 10 13  1  0  0  0  0
 11 10  1  0  0  0  0
 11  9  1  0  0  0  0
 11 15  1  0  0  0  0
 12  9  1  0  0  0  0
 14 10  1  0  0  0  0
 16 11  1  0  0  0  0
 17 20  1  0  0  0  0
 19 18  1  0  0  0  0
 19 26  1  0  0  0  0
 20 19  2  0  0  0  0
 21 20  1  0  0  0  0
 21 23  2  0  0  0  0
 22 21  1  0  0  0  0
 23 25  1  0  0  0  0
 24 23  1  0  0  0  0
 25 26  2  0  0  0  0
M  END
>  <minimizedAffinity>
-5.02920485

$$$$

 OpenBabel03242523493D

 26 28  0  0  0  0  0  0  0  0999 V2000
   37.9440   27.8060   42.9170 C   0  0  0  0  0  0  0  0  0  0  0  0
   37.1460   26.7990   42.3440 C   0  0  0  0  0  0  0  0  0  0  0  0
   37.6720   25.5080   42.2960 C   0  0  0  0  0  0  0  0  0  0  0  0
   38.9310   25.2710   42.8010 N   0  0  0  0  0  0  0  0  0  0  0  0
   39.6550   26.2710   43.3400 C   0  0  0  0  0  0  0  0  0  0  0  0
   39.1580   27.5280   43.3940 N   0  0  0  0  0  0  0  0  0  0  0  0
   36.1550   26.9100   41.9240 H   0  0  0  0  0  0  0  0  0  0  0  0
   40.6460   26.0400   43.7280 H   0  0  0  0  0  0  0  0  0  0  0  0
   36.8760   24.3810   41.7230 C   0  0  0  0  0  0  0  0  0  0  0  0
   36.5650   24.3970   40.2570 C   0  0  0  0  0  0  0  0  0  0  0  0
   37.5300   23.3900   40.8840 C   0  0  0  0  0  0  0  0  0  0  0  0
   36.0560   24.0810   42.4050 H   0  0  0  0  0  0  0  0  0  0  0  0
   36.9540   25.2260   39.6520 H   0  0  0  0  0  0  0  0  0  0  0  0
   35.5520   24.0620   39.9940 H   0  0  0  0  0  0  0  0  0  0  0  0
   38.5650   23.5080   40.5000 H   0  0  0  0  0  0  0  0  0  0  0  0
   37.1530   22.3450   40.8130 H   0  0  0  0  0  0  0  0  0  0  0  0
   37.4280   29.0640   42.9600 O   0  0  0  0  0  0  0  0  0  0  0  0
   39.7090   30.6080   42.3460 F   0  0  0  0  0  0  0  0  0  0  0  0
   38.5340   30.6570   41.6720 C   0  0  0  0  0  0  0  0  0  0  0  0
   37.3530   29.9360   41.8890 C   0  0  0  0  0  0  0  0  0  0  0  0
   36.2810   30.1580   41.0510 C   0  0  0  0  0  0  0  0  0  0  0  0
   35.4350   29.5480   41.3170 H   0  0  0  0  0  0  0  0  0  0  0  0
   36.3530   31.0650   40.0150 C   0  0  0  0  0  0  0  0  0  0  0  0
   35.4170   31.1050   39.4630 H   0  0  0  0  0  0  0  0  0  0  0  0
   37.5020   31.7720   39.7960 C   0  0  0  0  0  3  0  0  0  0  0  0
   38.5920   31.5710   40.6190 C   0  0  0  0  0  3  0  0  0  0  0  0
  1 17  1  0  0  0  0
  1  6  1  0  0  0  0
  2  1  2  0  0  0  0
  3  2  1  0  0  0  0
  3  4  2  0  0  0  0
  4  5  1  0  0  0  0
  5  6  2  0  0  0  0
  5  8  1  0  0  0  0
  7  2  1  0  0  0  0
  9  3  1  0  0  0  0
  9 12  1  0  0  0  0
 10 11  1  0  0  0  0
 10  9  1  0  0  0  0
 11  9  1  0  0  0  0
 13 10  1  0  0  0  0
 14 10  1  0  0  0  0
 15 11  1  0  0  0  0
 16 11  1  0  0  0  0
 19 20  1  0  0  0  0
 19 18  1  0  0  0  0
 20 17  1  0  0  0  0
 21 22  1  0  0  0  0
 21 20  2  0  0  0  0
 23 21  1  0  0  0  0
 24 23  1  0  0  0  0
 25 23  2  0  0  0  0
 25 26  1  0  0  0  0
 26 19  2  0  0  0  0
M  END
>  <minimizedAffinity>
-4.87429619

$$$$

 OpenBabel03242523493D

 26 28  0  0  0  0  0  0  0  0999 V2000
   37.6250   29.6990   41.9200 C   0  0  0  0  0  0  0  0  0  0  0  0
   37.4870   30.6320   40.8750 C   0  0  0  0  0  0  0  0  0  0  0  0
   38.4810   31.6010   40.7410 C   0  0  0  0  0  0  0  0  0  0  0  0
   39.5410   31.6100   41.6200 N   0  0  0  0  0  0  0  0  0  0  0  0
   39.6260   30.6940   42.6040 C   0  0  0  0  0  0  0  0  0  0  0  0
   38.6700   29.7480   42.7470 N   0  0  0  0  0  0  0  0  0  0  0  0
   36.6850   30.6910   40.1530 H   0  0  0  0  0  0  0  0  0  0  0  0
   40.4810   30.7360   43.2780 H   0  0  0  0  0  0  0  0  0  0  0  0
   38.4180   32.6120   39.6430 C   0  0  0  0  0  0  0  0  0  0  0  0
   37.3800   32.4450   38.5760 C   0  0  0  0  0  0  0  0  0  0  0  0
   37.3250   33.5720   39.6090 C   0  0  0  0  0  0  0  0  0  0  0  0
   39.4320   32.9100   39.3130 H   0  0  0  0  0  0  0  0  0  0  0  0
   36.6870   31.5970   38.6520 H   0  0  0  0  0  0  0  0  0  0  0  0
   37.7190   32.6810   37.5580 H   0  0  0  0  0  0  0  0  0  0  0  0
   36.4310   33.4960   40.2630 H   0  0  0  0  0  0  0  0  0  0  0  0
   37.4450   34.5760   39.1440 H   0  0  0  0  0  0  0  0  0  0  0  0
   36.6520   28.7560   42.0480 O   0  0  0  0  0  0  0  0  0  0  0  0
   36.2790   27.9570   39.3670 F   0  0  0  0  0  0  0  0  0  0  0  0
   36.5830   27.1230   40.3910 C   0  0  0  0  0  0  0  0  0  0  0  0
   36.7920   27.4150   41.7450 C   0  0  0  0  0  0  0  0  0  0  0  0
   37.1030   26.3800   42.6020 C   0  0  0  0  0  0  0  0  0  0  0  0
   37.2400   26.7280   43.6120 H   0  0  0  0  0  0  0  0  0  0  0  0
   37.2120   25.0810   42.1530 C   0  0  0  0  0  0  0  0  0  0  0  0
   37.4630   24.4050   42.9680 H   0  0  0  0  0  0  0  0  0  0  0  0
   37.0090   24.7880   40.8340 C   0  0  0  0  0  3  0  0  0  0  0  0
   36.6960   25.8030   39.9520 C   0  0  0  0  0  3  0  0  0  0  0  0
  1 17  1  0  0  0  0
  1  6  1  0  0  0  0
  2  1  2  0  0  0  0
  3  2  1  0  0  0  0
  3  4  2  0  0  0  0
  4  5  1  0  0  0  0
  5  6  2  0  0  0  0
  5  8  1  0  0  0  0
  7  2  1  0  0  0  0
  9  3  1  0  0  0  0
 10 13  1  0  0  0  0
 10 11  1  0  0  0  0
 10  9  1  0  0  0  0
 11  9  1  0  0  0  0
 11 15  1  0  0  0  0
 12  9  1  0  0  0  0
 14 10  1  0  0  0  0
 16 11  1  0  0  0  0
 18 19  1  0  0  0  0
 19 20  1  0  0  0  0
 20 17  1  0  0  0  0
 20 21  2  0  0  0  0
 21 22  1  0  0  0  0
 23 21  1  0  0  0  0
 23 24  1  0  0  0  0
 25 23  2  0  0  0  0
 26 19  2  0  0  0  0
 26 25  1  0  0  0  0
M  END
>  <minimizedAffinity>
-4.85535097

$$$$

 OpenBabel03242523493D

 26 28  0  0  0  0  0  0  0  0999 V2000
   38.6390   29.1370   41.7420 C   0  0  0  0  0  0  0  0  0  0  0  0
   38.5220   27.8420   41.2020 C   0  0  0  0  0  0  0  0  0  0  0  0
   37.8560   26.8830   41.9640 C   0  0  0  0  0  0  0  0  0  0  0  0
   37.3470   27.2310   43.1950 N   0  0  0  0  0  0  0  0  0  0  0  0
   37.4850   28.4850   43.6670 C   0  0  0  0  0  0  0  0  0  0  0  0
   38.1280   29.4260   42.9390 N   0  0  0  0  0  0  0  0  0  0  0  0
   38.8990   27.4950   40.2500 H   0  0  0  0  0  0  0  0  0  0  0  0
   37.0670   28.7180   44.6460 H   0  0  0  0  0  0  0  0  0  0  0  0
   37.6720   25.4930   41.4490 C   0  0  0  0  0  0  0  0  0  0  0  0
   38.2690   24.3580   42.2250 C   0  0  0  0  0  0  0  0  0  0  0  0
   36.7590   24.5870   42.1290 C   0  0  0  0  0  0  0  0  0  0  0  0
   37.7780   25.4560   40.3470 H   0  0  0  0  0  0  0  0  0  0  0  0
   38.8000   24.5880   43.1570 H   0  0  0  0  0  0  0  0  0  0  0  0
   38.7200   23.5640   41.6130 H   0  0  0  0  0  0  0  0  0  0  0  0
   36.3070   24.8110   43.1170 H   0  0  0  0  0  0  0  0  0  0  0  0
   36.2420   23.7650   41.5860 H   0  0  0  0  0  0  0  0  0  0  0  0
   39.2910   30.0690   40.9950 O   0  0  0  0  0  0  0  0  0  0  0  0
   37.1750   30.1180   39.1270 F   0  0  0  0  0  0  0  0  0  0  0  0
   37.7380   31.2140   39.6930 C   0  0  0  0  0  0  0  0  0  0  0  0
   38.7790   31.3000   40.6250 C   0  0  0  0  0  0  0  0  0  0  0  0
   39.1720   32.5470   41.0620 C   0  0  0  0  0  0  0  0  0  0  0  0
   39.9770   32.4830   41.7750 H   0  0  0  0  0  0  0  0  0  0  0  0
   38.5650   33.6960   40.6020 C   0  0  0  0  0  0  0  0  0  0  0  0
   39.0050   34.5810   41.0560 H   0  0  0  0  0  0  0  0  0  0  0  0
   37.5480   33.6210   39.6920 C   0  0  0  0  0  3  0  0  0  0  0  0
   37.1330   32.3860   39.2370 C   0  0  0  0  0  3  0  0  0  0  0  0
  1  6  1  0  0  0  0
  2  1  2  0  0  0  0
  2  3  1  0  0  0  0
  3  4  2  0  0  0  0
  4  5  1  0  0  0  0
  5  8  1  0  0  0  0
  6  5  2  0  0  0  0
  7  2  1  0  0  0  0
  9  3  1  0  0  0  0
  9 11  1  0  0  0  0
  9 10  1  0  0  0  0
 10 13  1  0  0  0  0
 11 10  1  0  0  0  0
 11 15  1  0  0  0  0
 12  9  1  0  0  0  0
 14 10  1  0  0  0  0
 16 11  1  0  0  0  0
 17  1  1  0  0  0  0
 18 19  1  0  0  0  0
 19 20  1  0  0  0  0
 20 17  1  0  0  0  0
 20 21  2  0  0  0  0
 21 22  1  0  0  0  0
 23 24  1  0  0  0  0
 23 21  1  0  0  0  0
 25 23  2  0  0  0  0
 26 25  1  0  0  0  0
 26 19  2  0  0  0  0
M  END
>  <minimizedAffinity>
-4.82529974

$$$$

 OpenBabel03242523493D

 26 28  0  0  0  0  0  0  0  0999 V2000
   36.5550   27.6740   40.6010 C   0  0  0  0  0  0  0  0  0  0  0  0
   37.3020   27.8530   41.7810 C   0  0  0  0  0  0  0  0  0  0  0  0
   38.0130   26.7550   42.2660 C   0  0  0  0  0  0  0  0  0  0  0  0
   37.9600   25.5590   41.5860 N   0  0  0  0  0  0  0  0  0  0  0  0
   37.2290   25.4410   40.4600 C   0  0  0  0  0  0  0  0  0  0  0  0
   36.5340   26.4960   39.9770 N   0  0  0  0  0  0  0  0  0  0  0  0
   37.3870   28.7550   42.3700 H   0  0  0  0  0  0  0  0  0  0  0  0
   37.2140   24.4770   39.9520 H   0  0  0  0  0  0  0  0  0  0  0  0
   38.8470   26.8720   43.5000 C   0  0  0  0  0  0  0  0  0  0  0  0
   39.9970   25.9280   43.6780 C   0  0  0  0  0  0  0  0  0  0  0  0
   40.1910   27.4220   43.4130 C   0  0  0  0  0  0  0  0  0  0  0  0
   38.2190   27.0700   44.3910 H   0  0  0  0  0  0  0  0  0  0  0  0
   40.1990   25.1990   42.8830 H   0  0  0  0  0  0  0  0  0  0  0  0
   40.1350   25.5530   44.7020 H   0  0  0  0  0  0  0  0  0  0  0  0
   40.7070   27.6120   42.4490 H   0  0  0  0  0  0  0  0  0  0  0  0
   40.6640   27.9450   44.2740 H   0  0  0  0  0  0  0  0  0  0  0  0
   35.8600   28.7470   40.1330 O   0  0  0  0  0  0  0  0  0  0  0  0
   36.1450   31.1960   41.5080 F   0  0  0  0  0  0  0  0  0  0  0  0
   36.5000   30.9840   40.2170 C   0  0  0  0  0  0  0  0  0  0  0  0
   36.4070   29.8170   39.4480 C   0  0  0  0  0  0  0  0  0  0  0  0
   36.8490   29.8500   38.1430 C   0  0  0  0  0  0  0  0  0  0  0  0
   36.7270   28.8980   37.6570 H   0  0  0  0  0  0  0  0  0  0  0  0
   37.3760   30.9990   37.5900 C   0  0  0  0  0  0  0  0  0  0  0  0
   37.6710   30.8360   36.5560 H   0  0  0  0  0  0  0  0  0  0  0  0
   37.4710   32.1410   38.3340 C   0  0  0  0  0  3  0  0  0  0  0  0
   37.0350   32.1380   39.6440 C   0  0  0  0  0  3  0  0  0  0  0  0
  1  2  1  0  0  0  0
  2  3  2  0  0  0  0
  2  7  1  0  0  0  0
  3  9  1  0  0  0  0
  4  3  1  0  0  0  0
  5  4  2  0  0  0  0
  6  5  1  0  0  0  0
  6  1  2  0  0  0  0
  8  5  1  0  0  0  0
  9 10  1  0  0  0  0
  9 12  1  0  0  0  0
 10 14  1  0  0  0  0
 11  9  1  0  0  0  0
 11 10  1  0  0  0  0
 11 16  1  0  0  0  0
 13 10  1  0  0  0  0
 15 11  1  0  0  0  0
 17  1  1  0  0  0  0
 19 18  1  0  0  0  0
 20 17  1  0  0  0  0
 20 19  2  0  0  0  0
 21 20  1  0  0  0  0
 22 21  1  0  0  0  0
 23 21  2  0  0  0  0
 23 25  1  0  0  0  0
 24 23  1  0  0  0  0
 25 26  2  0  0  0  0
 26 19  1  0  0  0  0
M  END
>  <minimizedAffinity>
-4.81430149

$$$$
