
 OpenBabel03252505273D

 24 25  0  0  0  0  0  0  0  0999 V2000
   46.8540   32.2360   48.4100 O   0  0  0  0  0  0  0  0  0  0  0  0
   45.8270   32.5160   47.3130 P   0  0  1  0  0  0  0  0  0  0  0  0
   44.5420   33.4440   47.8670 O   0  0  0  0  0  0  0  0  0  0  0  0
   44.8710   34.3060   48.2640 H   0  0  0  0  0  0  0  0  0  0  0  0
   46.6360   33.2780   46.0640 O   0  0  0  0  0  0  0  0  0  0  0  0
   44.4590   35.6710   44.5920 C   0  0  0  0  0  0  0  0  0  0  0  0
   44.8950   35.7820   43.2600 C   0  0  0  0  0  0  0  0  0  0  0  0
   45.9820   34.9860   42.9000 C   0  0  0  0  0  0  0  0  0  0  0  0
   46.5500   34.1690   43.8120 N   0  0  0  0  0  0  0  0  0  0  0  0
   46.0940   34.0950   45.0880 C   0  0  0  0  0  0  0  0  0  0  0  0
   45.0520   34.8410   45.4830 N   0  0  0  0  0  0  0  0  0  0  0  0
   43.6080   36.2770   44.9250 H   0  0  0  0  0  0  0  0  0  0  0  0
   44.4160   36.4460   42.5590 H   0  0  0  0  0  0  0  0  0  0  0  0
   46.3700   35.0250   41.8780 H   0  0  0  0  0  0  0  0  0  0  0  0
   45.2240   30.9920   46.8440 O   0  0  0  0  0  0  0  0  0  0  0  0
   44.9110   28.7250   48.4680 F   0  0  0  0  0  0  0  0  0  0  0  0
   45.8930   28.6960   47.5540 C   0  0  0  0  0  0  0  0  0  0  0  0
   45.9850   29.8510   46.7900 C   0  0  0  0  0  0  0  0  0  0  0  0
   46.9810   29.9080   45.8100 C   0  0  0  0  0  0  0  0  0  0  0  0
   47.1440   30.7730   45.1490 H   0  0  0  0  0  0  0  0  0  0  0  0
   47.8600   28.8510   45.5950 C   0  0  0  0  0  0  0  0  0  0  0  0
   48.6310   28.9150   44.8240 H   0  0  0  0  0  0  0  0  0  0  0  0
   47.7540   27.7090   46.3630 C   0  0  0  0  0  0  0  0  0  0  0  0
   46.7740   27.6510   47.3290 C   0  0  0  0  0  0  0  0  0  0  0  0
  2  3  1  0  0  0  0
  2  1  2  1  0  0  0
  3  4  1  0  0  0  0
  5  2  1  0  0  0  0
  6 12  1  0  0  0  0
  6 11  1  0  0  0  0
  7  6  2  0  0  0  0
  8  7  1  0  0  0  0
  8  9  2  0  0  0  0
  9 10  1  0  0  0  0
 10 11  2  0  0  0  0
 10  5  1  0  0  0  0
 13  7  1  0  0  0  0
 14  8  1  0  0  0  0
 15  2  1  0  0  0  0
 17 16  1  0  0  0  0
 18 15  1  0  0  0  0
 18 17  2  0  0  0  0
 19 18  1  0  0  0  0
 20 19  1  0  0  0  0
 21 19  2  0  0  0  0
 21 23  1  0  0  0  0
 22 21  1  0  0  0  0
 23 24  2  0  0  0  0
 24 17  1  0  0  0  0
M  END
>  <minimizedAffinity>
-4.60683489

>  <minimizedRMSD>
2.5221777

$$$$
