
 OpenBabel03252506213D

 35 37  0  0  0  0  0  0  0  0999 V2000
   44.9250   35.5350   42.5750 C   0  0  0  0  0  0  0  0  0  0  0  0
   43.8070   35.5510   41.7180 C   0  0  0  0  0  0  0  0  0  0  0  0
   43.8090   34.6750   40.6160 C   0  0  0  0  0  0  0  0  0  0  0  0
   44.8730   33.8710   40.4340 N   0  0  0  0  0  0  0  0  0  0  0  0
   45.9310   33.8870   41.2840 C   0  0  0  0  0  0  0  0  0  0  0  0
   45.9520   34.7160   42.3470 N   0  0  0  0  0  0  0  0  0  0  0  0
   43.0170   36.2290   41.9540 H   0  0  0  0  0  0  0  0  0  0  0  0
   42.9620   34.6850   39.9640 H   0  0  0  0  0  0  0  0  0  0  0  0
   48.4910   35.2190   40.3700 Cl  0  0  0  0  0  0  0  0  0  0  0  0
   48.2510   33.5190   40.5750 C   0  0  0  0  0  0  0  0  0  0  0  0
   47.0520   32.9630   40.9990 C   0  0  0  0  0  0  0  0  0  0  0  0
   46.8380   31.6250   41.1680 C   0  0  0  0  0  0  0  0  0  0  0  0
   47.8870   30.7860   40.8990 C   0  0  0  0  0  0  0  0  0  0  0  0
   49.1290   31.2170   40.4710 C   0  0  0  0  0  0  0  0  0  0  0  0
   49.2530   32.5990   40.3270 C   0  0  0  0  0  0  0  0  0  0  0  0
   45.8730   31.2660   41.5030 H   0  0  0  0  0  0  0  0  0  0  0  0
   47.7330   29.7210   41.0290 H   0  0  0  0  0  0  0  0  0  0  0  0
   49.9640   30.5670   40.2560 H   0  0  0  0  0  0  0  0  0  0  0  0
   50.2220   32.9710   39.9900 H   0  0  0  0  0  0  0  0  0  0  0  0
   44.9300   36.4450   43.7270 C   0  0  0  0  0  3  0  0  0  0  0  0
   45.2800   37.7010   43.5210 C   0  0  0  0  0  3  0  0  0  0  0  0
   45.2950   38.6480   44.6720 C   0  0  0  0  0  0  0  0  0  0  0  0
   44.6270   38.3120   45.4960 H   0  0  0  0  0  0  0  0  0  0  0  0
   46.3320   38.6810   45.0740 H   0  0  0  0  0  0  0  0  0  0  0  0
   44.8870   39.9510   44.1600 N   0  0  0  0  0  0  0  0  0  0  0  0
   44.6980   40.1210   43.1280 H   0  0  0  0  0  0  0  0  0  0  0  0
   44.8040   39.7540   46.9260 F   0  0  0  0  0  0  0  0  0  0  0  0
   44.6700   40.9990   46.3910 C   0  0  0  0  0  0  0  0  0  0  0  0
   44.7120   41.0900   45.0140 C   0  0  0  0  0  0  0  0  0  0  0  0
   44.5810   42.3300   44.3770 C   0  0  0  0  0  0  0  0  0  0  0  0
   44.6020   42.5010   43.3100 H   0  0  0  0  0  0  0  0  0  0  0  0
   44.4140   43.3990   45.2440 C   0  0  0  0  0  0  0  0  0  0  0  0
   44.3100   44.3870   44.7690 H   0  0  0  0  0  0  0  0  0  0  0  0
   44.3660   43.3620   46.6220 C   0  0  0  0  0  3  0  0  0  0  0  0
   44.5000   42.1120   47.1780 C   0  0  0  0  0  3  0  0  0  0  0  0
  1 20  1  0  0  0  0
  2  7  1  0  0  0  0
  2  1  2  0  0  0  0
  3  2  1  0  0  0  0
  4  3  2  0  0  0  0
  4  5  1  0  0  0  0
  5  6  2  0  0  0  0
  6  1  1  0  0  0  0
  8  3  1  0  0  0  0
  9 10  1  0  0  0  0
 10 11  1  0  0  0  0
 11 12  2  0  0  0  0
 11  5  1  0  0  0  0
 12 16  1  0  0  0  0
 13 17  1  0  0  0  0
 13 12  1  0  0  0  0
 14 13  2  0  0  0  0
 15 14  1  0  0  0  0
 15 10  2  0  0  0  0
 18 14  1  0  0  0  0
 19 15  1  0  0  0  0
 21 20  2  0  0  0  0
 21 22  1  0  0  0  0
 22 24  1  0  0  0  0
 22 23  1  0  0  0  0
 25 22  1  0  0  0  0
 25 29  1  0  0  0  0
 26 25  1  0  0  0  0
 28 27  1  0  0  0  0
 28 35  1  0  0  0  0
 29 28  2  0  0  0  0
 30 29  1  0  0  0  0
 30 32  2  0  0  0  0
 31 30  1  0  0  0  0
 32 34  1  0  0  0  0
 33 32  1  0  0  0  0
 34 35  2  0  0  0  0
M  END
>  <minimizedAffinity>
-3.64019799

>  <minimizedRMSD>
1.4192872

$$$$
