
 OpenBabel03252506213D

 35 37  0  0  0  0  0  0  0  0999 V2000
   45.1560   35.5790   42.8660 C   0  0  0  0  0  0  0  0  0  0  0  0
   44.2220   35.4020   41.8270 C   0  0  0  0  0  0  0  0  0  0  0  0
   44.5460   34.4990   40.7970 C   0  0  0  0  0  0  0  0  0  0  0  0
   45.7270   33.8530   40.8540 N   0  0  0  0  0  0  0  0  0  0  0  0
   46.6000   34.0540   41.8740 C   0  0  0  0  0  0  0  0  0  0  0  0
   46.3110   34.9130   42.8730 N   0  0  0  0  0  0  0  0  0  0  0  0
   43.3170   35.9640   41.8800 H   0  0  0  0  0  0  0  0  0  0  0  0
   43.8400   34.3620   40.0070 H   0  0  0  0  0  0  0  0  0  0  0  0
   49.0830   35.7270   41.4320 Cl  0  0  0  0  0  0  0  0  0  0  0  0
   49.0430   34.0120   41.6460 C   0  0  0  0  0  0  0  0  0  0  0  0
   47.8700   33.2960   41.8460 C   0  0  0  0  0  0  0  0  0  0  0  0
   47.8120   31.9420   42.0170 C   0  0  0  0  0  0  0  0  0  0  0  0
   48.9990   31.2580   41.9890 C   0  0  0  0  0  0  0  0  0  0  0  0
   50.2300   31.8570   41.7970 C   0  0  0  0  0  0  0  0  0  0  0  0
   50.1900   33.2410   41.6320 C   0  0  0  0  0  0  0  0  0  0  0  0
   46.8580   31.4530   42.1690 H   0  0  0  0  0  0  0  0  0  0  0  0
   48.9690   30.1820   42.1220 H   0  0  0  0  0  0  0  0  0  0  0  0
   51.1720   31.3290   41.7720 H   0  0  0  0  0  0  0  0  0  0  0  0
   51.1460   33.7430   41.4780 H   0  0  0  0  0  0  0  0  0  0  0  0
   44.8250   36.5190   43.9450 C   0  0  0  0  0  3  0  0  0  0  0  0
   45.3440   37.7320   43.8880 C   0  0  0  0  0  3  0  0  0  0  0  0
   45.0250   38.7080   44.9690 C   0  0  0  0  0  0  0  0  0  0  0  0
   44.0850   38.4450   45.5030 H   0  0  0  0  0  0  0  0  0  0  0  0
   45.8520   38.6760   45.7130 H   0  0  0  0  0  0  0  0  0  0  0  0
   44.9290   40.0220   44.3460 N   0  0  0  0  0  0  0  0  0  0  0  0
   44.9660   40.1540   43.2910 H   0  0  0  0  0  0  0  0  0  0  0  0
   45.0020   42.5460   43.1990 F   0  0  0  0  0  0  0  0  0  0  0  0
   44.8130   42.4850   44.5460 C   0  0  0  0  0  0  0  0  0  0  0  0
   44.7770   41.2260   45.1110 C   0  0  0  0  0  0  0  0  0  0  0  0
   44.5880   41.0670   46.4890 C   0  0  0  0  0  0  0  0  0  0  0  0
   44.5460   40.1270   47.0210 H   0  0  0  0  0  0  0  0  0  0  0  0
   44.4480   42.2580   47.1840 C   0  0  0  0  0  0  0  0  0  0  0  0
   44.2980   42.1620   48.2700 H   0  0  0  0  0  0  0  0  0  0  0  0
   44.4760   43.5380   46.6690 C   0  0  0  0  0  3  0  0  0  0  0  0
   44.6660   43.6180   45.3100 C   0  0  0  0  0  3  0  0  0  0  0  0
  1  6  1  0  0  0  0
  1 20  1  0  0  0  0
  2  7  1  0  0  0  0
  2  1  2  0  0  0  0
  3  4  2  0  0  0  0
  3  2  1  0  0  0  0
  4  5  1  0  0  0  0
  5  6  2  0  0  0  0
  8  3  1  0  0  0  0
  9 10  1  0  0  0  0
 10 11  1  0  0  0  0
 11  5  1  0  0  0  0
 11 12  2  0  0  0  0
 12 16  1  0  0  0  0
 13 12  1  0  0  0  0
 13 17  1  0  0  0  0
 14 13  2  0  0  0  0
 15 10  2  0  0  0  0
 15 14  1  0  0  0  0
 18 14  1  0  0  0  0
 19 15  1  0  0  0  0
 21 20  2  0  0  0  0
 21 22  1  0  0  0  0
 22 23  1  0  0  0  0
 22 24  1  0  0  0  0
 25 22  1  0  0  0  0
 25 29  1  0  0  0  0
 26 25  1  0  0  0  0
 27 28  1  0  0  0  0
 28 29  2  0  0  0  0
 28 35  1  0  0  0  0
 29 30  1  0  0  0  0
 30 31  1  0  0  0  0
 30 32  2  0  0  0  0
 32 33  1  0  0  0  0
 34 32  1  0  0  0  0
 35 34  2  0  0  0  0
M  END
>  <minimizedAffinity>
-2.57815528

>  <minimizedRMSD>
0.931824446

$$$$
