
 OpenBabel03242523493D

 26 28  0  0  0  0  0  0  0  0999 V2000
   44.0940   34.5140   41.8150 C   0  0  0  0  0  0  0  0  0  0  0  0
   45.3850   34.1800   41.3640 C   0  0  0  0  0  0  0  0  0  0  0  0
   46.4640   34.8340   41.9560 C   0  0  0  0  0  0  0  0  0  0  0  0
   46.2330   35.7660   42.9430 N   0  0  0  0  0  0  0  0  0  0  0  0
   44.9760   36.0500   43.3390 C   0  0  0  0  0  0  0  0  0  0  0  0
   43.9200   35.4240   42.7740 N   0  0  0  0  0  0  0  0  0  0  0  0
   45.6430   33.4660   40.5940 H   0  0  0  0  0  0  0  0  0  0  0  0
   44.8380   36.7940   44.1230 H   0  0  0  0  0  0  0  0  0  0  0  0
   47.8660   34.5170   41.5470 C   0  0  0  0  0  0  0  0  0  0  0  0
   48.2620   34.7410   40.1200 C   0  0  0  0  0  0  0  0  0  0  0  0
   48.7970   35.5980   41.2680 C   0  0  0  0  0  0  0  0  0  0  0  0
   48.2220   33.5830   42.0250 H   0  0  0  0  0  0  0  0  0  0  0  0
   47.5140   35.1530   39.4310 H   0  0  0  0  0  0  0  0  0  0  0  0
   48.9150   33.9680   39.6930 H   0  0  0  0  0  0  0  0  0  0  0  0
   48.4850   36.6600   41.1780 H   0  0  0  0  0  0  0  0  0  0  0  0
   49.8940   35.4750   41.4110 H   0  0  0  0  0  0  0  0  0  0  0  0
   43.0430   33.8750   41.2320 O   0  0  0  0  0  0  0  0  0  0  0  0
   40.3400   34.2990   41.9240 F   0  0  0  0  0  0  0  0  0  0  0  0
   40.8870   34.5850   40.7170 C   0  0  0  0  0  0  0  0  0  0  0  0
   42.2060   34.4190   40.2760 C   0  0  0  0  0  0  0  0  0  0  0  0
   42.5230   34.7990   38.9890 C   0  0  0  0  0  0  0  0  0  0  0  0
   43.5620   34.6240   38.7680 H   0  0  0  0  0  0  0  0  0  0  0  0
   41.5760   35.3330   38.1410 C   0  0  0  0  0  0  0  0  0  0  0  0
   42.0080   35.5720   37.1720 H   0  0  0  0  0  0  0  0  0  0  0  0
   40.2870   35.4980   38.5640 C   0  0  0  0  0  0  0  0  0  0  0  0
   39.9400   35.1260   39.8470 C   0  0  0  0  0  0  0  0  0  0  0  0
  1  6  1  0  0  0  0
  2  1  2  0  0  0  0
  2  3  1  0  0  0  0
  3  4  2  0  0  0  0
  4  5  1  0  0  0  0
  5  8  1  0  0  0  0
  6  5  2  0  0  0  0
  7  2  1  0  0  0  0
  9  3  1  0  0  0  0
  9 12  1  0  0  0  0
 10 11  1  0  0  0  0
 10  9  1  0  0  0  0
 11 16  1  0  0  0  0
 11  9  1  0  0  0  0
 13 10  1  0  0  0  0
 14 10  1  0  0  0  0
 15 11  1  0  0  0  0
 17  1  1  0  0  0  0
 19 18  1  0  0  0  0
 20 19  1  0  0  0  0
 20 17  1  0  0  0  0
 21 20  2  0  0  0  0
 22 21  1  0  0  0  0
 23 25  2  0  0  0  0
 23 21  1  0  0  0  0
 24 23  1  0  0  0  0
 25 26  1  0  0  0  0
 26 19  2  0  0  0  0
M  END
>  <minimizedAffinity>
-5.35858774

>  <minimizedRMSD>
3.68257523

$$$$
