
 OpenBabel03242515113D

 36 38  0  0  0  0  0  0  0  0999 V2000
   36.6820   30.6240   39.3050 C   0  0  0  0  0  0  0  0  0  0  0  0
   36.4210   30.4330   37.9810 C   0  0  0  0  0  0  0  0  0  0  0  0
   35.6420   29.4140   37.4790 C   0  0  0  0  0  0  0  0  0  0  0  0
   35.0790   28.5150   38.3570 C   0  0  0  0  0  0  0  0  0  0  0  0
   35.3200   28.6780   39.6900 C   0  0  0  0  0  0  0  0  0  0  0  0
   36.1060   29.7120   40.1670 C   0  0  0  0  0  0  0  0  0  0  0  0
   36.8620   31.1390   37.2770 H   0  0  0  0  0  0  0  0  0  0  0  0
   35.5010   29.3540   36.4150 H   0  0  0  0  0  0  0  0  0  0  0  0
   34.4860   27.7470   37.9060 H   0  0  0  0  0  0  0  0  0  0  0  0
   34.8510   27.9400   40.3400 H   0  0  0  0  0  0  0  0  0  0  0  0
   39.3620   32.3910   41.0720 C   0  0  0  0  0  0  0  0  0  0  0  0
   39.1210   33.7270   40.7540 C   0  0  0  0  0  0  0  0  0  0  0  0
   38.0310   34.0270   39.9280 C   0  0  0  0  0  0  0  0  0  0  0  0
   37.2320   33.0230   39.4530 N   0  0  0  0  0  0  0  0  0  0  0  0
   37.5080   31.7130   39.7930 C   0  0  0  0  0  0  0  0  0  0  0  0
   38.5590   31.4490   40.5860 N   0  0  0  0  0  0  0  0  0  0  0  0
   40.1830   32.0740   41.7040 H   0  0  0  0  0  0  0  0  0  0  0  0
   39.7940   34.4500   41.1680 H   0  0  0  0  0  0  0  0  0  0  0  0
   37.8910   35.0560   39.7170 H   0  0  0  0  0  0  0  0  0  0  0  0
   36.2530   29.7350   41.5690 N   0  0  0  0  0  0  0  0  0  0  0  0
   35.6010   30.4350   41.9920 H   0  0  0  0  0  0  0  0  0  0  0  0
   37.2590   28.8660   42.6490 S   0  0  0  0  0  0  0  0  0  0  0  0
   38.1750   29.8730   43.3610 O   0  0  0  0  0  0  0  0  0  0  0  0
   38.2320   29.9610   44.3440 H   0  0  0  0  0  0  0  0  0  0  0  0
   36.5440   28.0910   43.6800 O   0  0  0  0  0  0  0  0  0  0  0  0
   35.6600   27.6640   43.5720 H   0  0  0  0  0  0  0  0  0  0  0  0
   38.3010   27.9500   41.6970 O   0  0  0  0  0  0  0  0  0  0  0  0
   36.8900   25.6280   40.9830 F   0  0  0  0  0  0  0  0  0  0  0  0
   37.9690   25.4830   41.7850 C   0  0  0  0  0  0  0  0  0  0  0  0
   38.6210   26.6620   42.1010 C   0  0  0  0  0  0  0  0  0  0  0  0
   39.7350   26.5950   42.9180 C   0  0  0  0  0  0  0  0  0  0  0  0
   40.3100   27.4640   43.2200 H   0  0  0  0  0  0  0  0  0  0  0  0
   40.1970   25.4020   43.4130 C   0  0  0  0  0  0  0  0  0  0  0  0
   41.0680   25.3180   44.0560 H   0  0  0  0  0  0  0  0  0  0  0  0
   39.5500   24.2460   43.0970 C   0  0  0  0  0  3  0  0  0  0  0  0
   38.4420   24.2830   42.2880 C   0  0  0  0  0  3  0  0  0  0  0  0
  1 15  1  0  0  0  0
  1  6  1  0  0  0  0
  2  1  2  0  0  0  0
  3  2  1  0  0  0  0
  3  4  2  0  0  0  0
  4  5  1  0  0  0  0
  5  6  2  0  0  0  0
  5 10  1  0  0  0  0
  6 20  1  0  0  0  0
  7  2  1  0  0  0  0
  8  3  1  0  0  0  0
  9  4  1  0  0  0  0
 11 17  1  0  0  0  0
 12 11  1  0  0  0  0
 12 18  1  0  0  0  0
 13 12  2  0  0  0  0
 14 15  2  0  0  0  0
 14 13  1  0  0  0  0
 15 16  1  0  0  0  0
 16 11  2  0  0  0  0
 19 13  1  0  0  0  0
 20 21  1  0  0  0  0
 20 22  1  0  0  0  0
 22 23  1  0  0  0  0
 22 25  1  0  0  0  0
 23 24  1  0  0  0  0
 26 25  1  0  0  0  0
 27 30  1  0  0  0  0
 27 22  1  0  0  0  0
 28 29  1  0  0  0  0
 29 30  2  0  0  0  0
 29 36  1  0  0  0  0
 30 31  1  0  0  0  0
 31 32  1  0  0  0  0
 31 33  2  0  0  0  0
 33 34  1  0  0  0  0
 35 33  1  0  0  0  0
 36 35  2  0  0  0  0
M  END
>  <minimizedAffinity>
-6.38918257

$$$$

 OpenBabel03242515113D

 36 38  0  0  0  0  0  0  0  0999 V2000
   36.6220   30.5420   39.2630 C   0  0  0  0  0  0  0  0  0  0  0  0
   36.3860   30.3950   37.9290 C   0  0  0  0  0  0  0  0  0  0  0  0
   35.5710   29.4280   37.3830 C   0  0  0  0  0  0  0  0  0  0  0  0
   34.9430   28.5380   38.2260 C   0  0  0  0  0  0  0  0  0  0  0  0
   35.1570   28.6580   39.5680 C   0  0  0  0  0  0  0  0  0  0  0  0
   35.9810   29.6410   40.0880 C   0  0  0  0  0  0  0  0  0  0  0  0
   36.8780   31.0940   37.2530 H   0  0  0  0  0  0  0  0  0  0  0  0
   35.4550   29.3990   36.3150 H   0  0  0  0  0  0  0  0  0  0  0  0
   34.3240   27.8110   37.7420 H   0  0  0  0  0  0  0  0  0  0  0  0
   34.6370   27.9300   40.1880 H   0  0  0  0  0  0  0  0  0  0  0  0
   37.9890   33.8710   39.9580 C   0  0  0  0  0  0  0  0  0  0  0  0
   39.0850   33.5970   40.7750 C   0  0  0  0  0  0  0  0  0  0  0  0
   39.3610   32.2610   41.0900 C   0  0  0  0  0  0  0  0  0  0  0  0
   38.5650   31.2610   40.6020 N   0  0  0  0  0  0  0  0  0  0  0  0
   37.4880   31.5780   39.7970 C   0  0  0  0  0  0  0  0  0  0  0  0
   37.2420   32.8660   39.5080 N   0  0  0  0  0  0  0  0  0  0  0  0
   37.7060   34.8750   39.6670 H   0  0  0  0  0  0  0  0  0  0  0  0
   39.6560   34.4370   41.1120 H   0  0  0  0  0  0  0  0  0  0  0  0
   40.2050   32.1060   41.7120 H   0  0  0  0  0  0  0  0  0  0  0  0
   36.0930   29.6240   41.4940 N   0  0  0  0  0  0  0  0  0  0  0  0
   35.4500   30.3310   41.9180 H   0  0  0  0  0  0  0  0  0  0  0  0
   37.0470   28.6990   42.5740 S   0  0  0  0  0  0  0  0  0  0  0  0
   37.9890   29.6580   43.3170 O   0  0  0  0  0  0  0  0  0  0  0  0
   38.0340   29.7290   44.3020 H   0  0  0  0  0  0  0  0  0  0  0  0
   36.2860   27.9370   43.5820 O   0  0  0  0  0  0  0  0  0  0  0  0
   35.3880   27.5460   43.4540 H   0  0  0  0  0  0  0  0  0  0  0  0
   38.0670   27.7590   41.6250 O   0  0  0  0  0  0  0  0  0  0  0  0
   39.1560   25.8560   43.3830 F   0  0  0  0  0  0  0  0  0  0  0  0
   38.3540   25.4050   42.3910 C   0  0  0  0  0  0  0  0  0  0  0  0
   37.8500   26.3900   41.5590 C   0  0  0  0  0  0  0  0  0  0  0  0
   37.0210   26.0070   40.5190 C   0  0  0  0  0  0  0  0  0  0  0  0
   36.5790   26.7050   39.8170 H   0  0  0  0  0  0  0  0  0  0  0  0
   36.6970   24.6920   40.3010 C   0  0  0  0  0  0  0  0  0  0  0  0
   36.0500   24.3610   39.4950 H   0  0  0  0  0  0  0  0  0  0  0  0
   37.1970   23.7290   41.1250 C   0  0  0  0  0  3  0  0  0  0  0  0
   38.0220   24.0800   42.1640 C   0  0  0  0  0  3  0  0  0  0  0  0
  1 15  1  0  0  0  0
  1  6  1  0  0  0  0
  2  1  2  0  0  0  0
  3  2  1  0  0  0  0
  3  4  2  0  0  0  0
  4  5  1  0  0  0  0
  5  6  2  0  0  0  0
  5 10  1  0  0  0  0
  6 20  1  0  0  0  0
  7  2  1  0  0  0  0
  8  3  1  0  0  0  0
  9  4  1  0  0  0  0
 11 12  1  0  0  0  0
 12 13  2  0  0  0  0
 12 18  1  0  0  0  0
 13 19  1  0  0  0  0
 14 13  1  0  0  0  0
 15 14  2  0  0  0  0
 16 15  1  0  0  0  0
 16 11  2  0  0  0  0
 17 11  1  0  0  0  0
 20 21  1  0  0  0  0
 20 22  1  0  0  0  0
 22 23  1  0  0  0  0
 22 25  1  0  0  0  0
 23 24  1  0  0  0  0
 26 25  1  0  0  0  0
 27 22  1  0  0  0  0
 29 28  1  0  0  0  0
 30 27  1  0  0  0  0
 30 29  2  0  0  0  0
 31 30  1  0  0  0  0
 32 31  1  0  0  0  0
 33 31  2  0  0  0  0
 33 35  1  0  0  0  0
 34 33  1  0  0  0  0
 35 36  2  0  0  0  0
 36 29  1  0  0  0  0
M  END
>  <minimizedAffinity>
-6.34755087

$$$$

 OpenBabel03242515113D

 36 38  0  0  0  0  0  0  0  0999 V2000
   36.6140   26.3500   39.7780 C   0  0  0  0  0  0  0  0  0  0  0  0
   36.3320   25.0180   39.6950 C   0  0  0  0  0  0  0  0  0  0  0  0
   36.4980   24.1210   40.7270 C   0  0  0  0  0  0  0  0  0  0  0  0
   36.9810   24.5780   41.9320 C   0  0  0  0  0  0  0  0  0  0  0  0
   37.2730   25.9060   42.0490 C   0  0  0  0  0  0  0  0  0  0  0  0
   37.0950   26.7850   40.9960 C   0  0  0  0  0  0  0  0  0  0  0  0
   35.9490   24.6460   38.7450 H   0  0  0  0  0  0  0  0  0  0  0  0
   36.2460   23.0910   40.5540 H   0  0  0  0  0  0  0  0  0  0  0  0
   37.0880   23.8330   42.6930 H   0  0  0  0  0  0  0  0  0  0  0  0
   37.6510   26.2140   43.0230 H   0  0  0  0  0  0  0  0  0  0  0  0
   35.1060   28.9340   37.6620 C   0  0  0  0  0  0  0  0  0  0  0  0
   35.9950   29.0220   36.5910 C   0  0  0  0  0  0  0  0  0  0  0  0
   37.1190   28.1880   36.5910 C   0  0  0  0  0  0  0  0  0  0  0  0
   37.3280   27.3150   37.6240 N   0  0  0  0  0  0  0  0  0  0  0  0
   36.4230   27.2630   38.6660 C   0  0  0  0  0  0  0  0  0  0  0  0
   35.3510   28.0720   38.6450 N   0  0  0  0  0  0  0  0  0  0  0  0
   34.2130   29.5430   37.7390 H   0  0  0  0  0  0  0  0  0  0  0  0
   35.7560   29.7300   35.8240 H   0  0  0  0  0  0  0  0  0  0  0  0
   37.7620   28.2920   35.7550 H   0  0  0  0  0  0  0  0  0  0  0  0
   37.4450   28.1210   41.2850 N   0  0  0  0  0  0  0  0  0  0  0  0
   37.2420   28.7360   40.4650 H   0  0  0  0  0  0  0  0  0  0  0  0
   38.1110   28.8760   42.6710 S   0  0  0  0  0  0  0  0  0  0  0  0
   36.9750   29.1040   43.6790 O   0  0  0  0  0  0  0  0  0  0  0  0
   36.9900   28.7650   44.6080 H   0  0  0  0  0  0  0  0  0  0  0  0
   39.1750   28.1100   43.3470 O   0  0  0  0  0  0  0  0  0  0  0  0
   39.8220   27.5080   42.9080 H   0  0  0  0  0  0  0  0  0  0  0  0
   38.5690   30.4230   42.1970 O   0  0  0  0  0  0  0  0  0  0  0  0
   36.0280   31.2860   41.3650 F   0  0  0  0  0  0  0  0  0  0  0  0
   37.0230   31.2920   40.4480 C   0  0  0  0  0  0  0  0  0  0  0  0
   38.2490   30.8560   40.9190 C   0  0  0  0  0  0  0  0  0  0  0  0
   39.3170   30.8330   40.0390 C   0  0  0  0  0  0  0  0  0  0  0  0
   40.3140   30.5070   40.3160 H   0  0  0  0  0  0  0  0  0  0  0  0
   39.1840   31.2260   38.7320 C   0  0  0  0  0  0  0  0  0  0  0  0
   40.0030   31.2190   38.0180 H   0  0  0  0  0  0  0  0  0  0  0  0
   37.9740   31.6550   38.2770 C   0  0  0  0  0  3  0  0  0  0  0  0
   36.8970   31.6880   39.1280 C   0  0  0  0  0  3  0  0  0  0  0  0
  1  6  1  0  0  0  0
  2  1  2  0  0  0  0
  2  3  1  0  0  0  0
  3  4  2  0  0  0  0
  4  5  1  0  0  0  0
  4  9  1  0  0  0  0
  5 10  1  0  0  0  0
  6 20  1  0  0  0  0
  6  5  2  0  0  0  0
  7  2  1  0  0  0  0
  8  3  1  0  0  0  0
 11 17  1  0  0  0  0
 11 16  1  0  0  0  0
 12 13  1  0  0  0  0
 12 11  2  0  0  0  0
 13 14  2  0  0  0  0
 14 15  1  0  0  0  0
 15  1  1  0  0  0  0
 16 15  2  0  0  0  0
 18 12  1  0  0  0  0
 19 13  1  0  0  0  0
 20 22  1  0  0  0  0
 21 20  1  0  0  0  0
 22 25  1  0  0  0  0
 22 23  1  0  0  0  0
 23 24  1  0  0  0  0
 26 25  1  0  0  0  0
 27 22  1  0  0  0  0
 29 30  1  0  0  0  0
 29 28  1  0  0  0  0
 30 27  1  0  0  0  0
 31 32  1  0  0  0  0
 31 30  2  0  0  0  0
 33 31  1  0  0  0  0
 34 33  1  0  0  0  0
 35 33  2  0  0  0  0
 35 36  1  0  0  0  0
 36 29  2  0  0  0  0
M  END
>  <minimizedAffinity>
-5.85854387

$$$$

 OpenBabel03242515113D

 36 38  0  0  0  0  0  0  0  0999 V2000
   37.3160   30.1720   39.1530 C   0  0  0  0  0  0  0  0  0  0  0  0
   36.3830   30.2310   38.1600 C   0  0  0  0  0  0  0  0  0  0  0  0
   35.4980   29.2190   37.8610 C   0  0  0  0  0  0  0  0  0  0  0  0
   35.5420   28.0590   38.6010 C   0  0  0  0  0  0  0  0  0  0  0  0
   36.4630   27.9670   39.6030 C   0  0  0  0  0  0  0  0  0  0  0  0
   37.3400   29.0010   39.8820 C   0  0  0  0  0  0  0  0  0  0  0  0
   36.3400   31.1450   37.5670 H   0  0  0  0  0  0  0  0  0  0  0  0
   34.8020   29.3690   37.0550 H   0  0  0  0  0  0  0  0  0  0  0  0
   34.8300   27.3110   38.3190 H   0  0  0  0  0  0  0  0  0  0  0  0
   36.4550   27.0290   40.1570 H   0  0  0  0  0  0  0  0  0  0  0  0
   38.9180   32.9520   40.9220 C   0  0  0  0  0  0  0  0  0  0  0  0
   39.9280   33.3440   40.0450 C   0  0  0  0  0  0  0  0  0  0  0  0
   40.0620   32.6510   38.8360 C   0  0  0  0  0  0  0  0  0  0  0  0
   39.2160   31.6180   38.5370 N   0  0  0  0  0  0  0  0  0  0  0  0
   38.2290   31.2630   39.4360 C   0  0  0  0  0  0  0  0  0  0  0  0
   38.1200   31.9410   40.5900 N   0  0  0  0  0  0  0  0  0  0  0  0
   38.7460   33.4340   41.8770 H   0  0  0  0  0  0  0  0  0  0  0  0
   40.5450   34.1620   40.3550 H   0  0  0  0  0  0  0  0  0  0  0  0
   40.8440   32.9880   38.2040 H   0  0  0  0  0  0  0  0  0  0  0  0
   38.2270   28.7420   40.9480 N   0  0  0  0  0  0  0  0  0  0  0  0
   39.1130   28.3170   40.5890 H   0  0  0  0  0  0  0  0  0  0  0  0
   38.1170   28.9860   42.6390 S   0  0  0  0  0  0  0  0  0  0  0  0
   39.1330   30.0700   43.0300 O   0  0  0  0  0  0  0  0  0  0  0  0
   38.8900   30.9000   43.5100 H   0  0  0  0  0  0  0  0  0  0  0  0
   36.7900   29.4080   43.1230 O   0  0  0  0  0  0  0  0  0  0  0  0
   35.9220   29.1480   42.7300 H   0  0  0  0  0  0  0  0  0  0  0  0
   38.7010   27.5840   43.3620 O   0  0  0  0  0  0  0  0  0  0  0  0
   40.7450   26.0110   42.2460 F   0  0  0  0  0  0  0  0  0  0  0  0
   39.4770   25.5500   42.1500 C   0  0  0  0  0  0  0  0  0  0  0  0
   38.5160   26.3700   42.7180 C   0  0  0  0  0  0  0  0  0  0  0  0
   37.1940   25.9650   42.6590 C   0  0  0  0  0  0  0  0  0  0  0  0
   36.3730   26.5400   43.0750 H   0  0  0  0  0  0  0  0  0  0  0  0
   36.8240   24.7890   42.0580 C   0  0  0  0  0  0  0  0  0  0  0  0
   35.7960   24.4460   41.9960 H   0  0  0  0  0  0  0  0  0  0  0  0
   37.7760   23.9880   41.5020 C   0  0  0  0  0  3  0  0  0  0  0  0
   39.0950   24.3650   41.5450 C   0  0  0  0  0  3  0  0  0  0  0  0
  1 15  1  0  0  0  0
  1  6  1  0  0  0  0
  2  1  2  0  0  0  0
  3  2  1  0  0  0  0
  3  4  2  0  0  0  0
  4  5  1  0  0  0  0
  5  6  2  0  0  0  0
  5 10  1  0  0  0  0
  6 20  1  0  0  0  0
  7  2  1  0  0  0  0
  8  3  1  0  0  0  0
  9  4  1  0  0  0  0
 11 17  1  0  0  0  0
 12 18  1  0  0  0  0
 12 11  2  0  0  0  0
 13 12  1  0  0  0  0
 14 13  2  0  0  0  0
 14 15  1  0  0  0  0
 15 16  2  0  0  0  0
 16 11  1  0  0  0  0
 19 13  1  0  0  0  0
 20 22  1  0  0  0  0
 21 20  1  0  0  0  0
 22 23  1  0  0  0  0
 22 25  1  0  0  0  0
 22 27  1  0  0  0  0
 23 24  1  0  0  0  0
 26 25  1  0  0  0  0
 29 28  1  0  0  0  0
 29 30  1  0  0  0  0
 30 27  1  0  0  0  0
 31 30  2  0  0  0  0
 31 32  1  0  0  0  0
 33 31  1  0  0  0  0
 34 33  1  0  0  0  0
 35 36  1  0  0  0  0
 35 33  2  0  0  0  0
 36 29  2  0  0  0  0
M  END
>  <minimizedAffinity>
-5.85324812

$$$$

 OpenBabel03242515113D

 36 38  0  0  0  0  0  0  0  0999 V2000
   35.9790   27.0070   38.2530 C   0  0  0  0  0  0  0  0  0  0  0  0
   36.0950   26.8190   36.9080 C   0  0  0  0  0  0  0  0  0  0  0  0
   35.7750   27.7630   35.9580 C   0  0  0  0  0  0  0  0  0  0  0  0
   35.3020   28.9880   36.3730 C   0  0  0  0  0  0  0  0  0  0  0  0
   35.1740   29.2090   37.7130 C   0  0  0  0  0  0  0  0  0  0  0  0
   35.5040   28.2420   38.6460 C   0  0  0  0  0  0  0  0  0  0  0  0
   36.4690   25.8530   36.5680 H   0  0  0  0  0  0  0  0  0  0  0  0
   35.9040   27.5100   34.9210 H   0  0  0  0  0  0  0  0  0  0  0  0
   35.0710   29.6770   35.5880 H   0  0  0  0  0  0  0  0  0  0  0  0
   34.7960   30.1930   37.9870 H   0  0  0  0  0  0  0  0  0  0  0  0
   37.5130   25.4060   41.1700 C   0  0  0  0  0  0  0  0  0  0  0  0
   37.0370   24.0970   41.0980 C   0  0  0  0  0  0  0  0  0  0  0  0
   36.1850   23.7590   40.0410 C   0  0  0  0  0  0  0  0  0  0  0  0
   35.8360   24.6990   39.1100 N   0  0  0  0  0  0  0  0  0  0  0  0
   36.3300   25.9840   39.2210 C   0  0  0  0  0  0  0  0  0  0  0  0
   37.1460   26.2870   40.2440 N   0  0  0  0  0  0  0  0  0  0  0  0
   38.1760   25.7500   41.9560 H   0  0  0  0  0  0  0  0  0  0  0  0
   37.3600   23.4240   41.8660 H   0  0  0  0  0  0  0  0  0  0  0  0
   35.8520   22.7520   40.0300 H   0  0  0  0  0  0  0  0  0  0  0  0
   35.3120   28.6340   39.9870 N   0  0  0  0  0  0  0  0  0  0  0  0
   34.3810   28.3060   40.3320 H   0  0  0  0  0  0  0  0  0  0  0  0
   36.2820   29.5070   41.0950 S   0  0  0  0  0  0  0  0  0  0  0  0
   35.5220   30.7830   41.4890 O   0  0  0  0  0  0  0  0  0  0  0  0
   35.3090   31.0270   42.4230 H   0  0  0  0  0  0  0  0  0  0  0  0
   36.6250   28.7800   42.3320 O   0  0  0  0  0  0  0  0  0  0  0  0
   36.7600   27.8050   42.4100 H   0  0  0  0  0  0  0  0  0  0  0  0
   37.6130   30.0610   40.2300 O   0  0  0  0  0  0  0  0  0  0  0  0
   39.5180   31.2840   41.8950 F   0  0  0  0  0  0  0  0  0  0  0  0
   38.8320   32.0780   41.0400 C   0  0  0  0  0  0  0  0  0  0  0  0
   37.9090   31.4170   40.2490 C   0  0  0  0  0  0  0  0  0  0  0  0
   37.1670   32.1610   39.3490 C   0  0  0  0  0  0  0  0  0  0  0  0
   36.4220   31.7320   38.6870 H   0  0  0  0  0  0  0  0  0  0  0  0
   37.3260   33.5190   39.2300 C   0  0  0  0  0  0  0  0  0  0  0  0
   36.7590   34.1290   38.5340 H   0  0  0  0  0  0  0  0  0  0  0  0
   38.2360   34.1610   40.0130 C   0  0  0  0  0  3  0  0  0  0  0  0
   38.9860   33.4480   40.9150 C   0  0  0  0  0  3  0  0  0  0  0  0
  1  6  1  0  0  0  0
  1 15  1  0  0  0  0
  2  1  2  0  0  0  0
  3  4  2  0  0  0  0
  3  2  1  0  0  0  0
  4  5  1  0  0  0  0
  5 10  1  0  0  0  0
  5  6  2  0  0  0  0
  6 20  1  0  0  0  0
  7  2  1  0  0  0  0
  8  3  1  0  0  0  0
  9  4  1  0  0  0  0
 11 17  1  0  0  0  0
 12 11  1  0  0  0  0
 12 18  1  0  0  0  0
 13 12  2  0  0  0  0
 14 15  2  0  0  0  0
 14 13  1  0  0  0  0
 15 16  1  0  0  0  0
 16 11  2  0  0  0  0
 19 13  1  0  0  0  0
 20 21  1  0  0  0  0
 20 22  1  0  0  0  0
 22 23  1  0  0  0  0
 22 25  1  0  0  0  0
 23 24  1  0  0  0  0
 25 26  1  0  0  0  0
 27 30  1  0  0  0  0
 27 22  1  0  0  0  0
 29 28  1  0  0  0  0
 30 29  2  0  0  0  0
 31 30  1  0  0  0  0
 32 31  1  0  0  0  0
 33 31  2  0  0  0  0
 33 35  1  0  0  0  0
 34 33  1  0  0  0  0
 35 36  2  0  0  0  0
 36 29  1  0  0  0  0
M  END
>  <minimizedAffinity>
-5.7964859

$$$$

 OpenBabel03242515113D

 36 38  0  0  0  0  0  0  0  0999 V2000
   37.7710   30.7420   38.1980 C   0  0  0  0  0  0  0  0  0  0  0  0
   37.4160   30.8480   36.8860 C   0  0  0  0  0  0  0  0  0  0  0  0
   36.7000   29.8970   36.1930 C   0  0  0  0  0  0  0  0  0  0  0  0
   36.3070   28.7530   36.8500 C   0  0  0  0  0  0  0  0  0  0  0  0
   36.6460   28.6150   38.1640 C   0  0  0  0  0  0  0  0  0  0  0  0
   37.3650   29.5880   38.8360 C   0  0  0  0  0  0  0  0  0  0  0  0
   37.7210   31.7500   36.3560 H   0  0  0  0  0  0  0  0  0  0  0  0
   36.4730   30.0810   35.1580 H   0  0  0  0  0  0  0  0  0  0  0  0
   35.7550   28.0540   36.2570 H   0  0  0  0  0  0  0  0  0  0  0  0
   36.3110   27.6930   38.6360 H   0  0  0  0  0  0  0  0  0  0  0  0
   40.4850   33.0650   39.0130 C   0  0  0  0  0  0  0  0  0  0  0  0
   40.0130   33.7130   40.1540 C   0  0  0  0  0  0  0  0  0  0  0  0
   38.7550   33.3510   40.6510 C   0  0  0  0  0  0  0  0  0  0  0  0
   38.0190   32.3850   40.0200 N   0  0  0  0  0  0  0  0  0  0  0  0
   38.5250   31.7700   38.8920 C   0  0  0  0  0  0  0  0  0  0  0  0
   39.7330   32.1330   38.4330 N   0  0  0  0  0  0  0  0  0  0  0  0
   41.4460   33.2860   38.5650 H   0  0  0  0  0  0  0  0  0  0  0  0
   40.6520   34.4560   40.5860 H   0  0  0  0  0  0  0  0  0  0  0  0
   38.4430   33.8710   41.5200 H   0  0  0  0  0  0  0  0  0  0  0  0
   37.6310   29.2880   40.1890 N   0  0  0  0  0  0  0  0  0  0  0  0
   38.6060   28.9240   40.2950 H   0  0  0  0  0  0  0  0  0  0  0  0
   36.6900   29.4060   41.6140 S   0  0  0  0  0  0  0  0  0  0  0  0
   35.8520   30.6910   41.5250 O   0  0  0  0  0  0  0  0  0  0  0  0
   34.8670   30.7080   41.6030 H   0  0  0  0  0  0  0  0  0  0  0  0
   35.7710   28.2770   41.8510 O   0  0  0  0  0  0  0  0  0  0  0  0
   35.9300   27.3380   41.5900 H   0  0  0  0  0  0  0  0  0  0  0  0
   37.7670   29.6940   42.8740 O   0  0  0  0  0  0  0  0  0  0  0  0
   40.3270   30.5090   42.0510 F   0  0  0  0  0  0  0  0  0  0  0  0
   40.2030   29.2680   42.5750 C   0  0  0  0  0  0  0  0  0  0  0  0
   38.9180   28.9260   42.9610 C   0  0  0  0  0  0  0  0  0  0  0  0
   38.7120   27.6710   43.5060 C   0  0  0  0  0  0  0  0  0  0  0  0
   37.7420   27.3140   43.8370 H   0  0  0  0  0  0  0  0  0  0  0  0
   39.7380   26.7750   43.6680 C   0  0  0  0  0  0  0  0  0  0  0  0
   39.6070   25.7850   44.0930 H   0  0  0  0  0  0  0  0  0  0  0  0
   41.0000   27.1210   43.2870 C   0  0  0  0  0  3  0  0  0  0  0  0
   41.2340   28.3590   42.7420 C   0  0  0  0  0  3  0  0  0  0  0  0
  1  6  1  0  0  0  0
  1 15  1  0  0  0  0
  2  1  2  0  0  0  0
  3  4  2  0  0  0  0
  3  2  1  0  0  0  0
  4  5  1  0  0  0  0
  5 10  1  0  0  0  0
  5  6  2  0  0  0  0
  6 20  1  0  0  0  0
  7  2  1  0  0  0  0
  8  3  1  0  0  0  0
  9  4  1  0  0  0  0
 11 12  1  0  0  0  0
 12 18  1  0  0  0  0
 12 13  2  0  0  0  0
 13 19  1  0  0  0  0
 14 13  1  0  0  0  0
 15 14  2  0  0  0  0
 16 15  1  0  0  0  0
 16 11  2  0  0  0  0
 17 11  1  0  0  0  0
 20 21  1  0  0  0  0
 20 22  1  0  0  0  0
 22 25  1  0  0  0  0
 22 27  1  0  0  0  0
 23 24  1  0  0  0  0
 23 22  1  0  0  0  0
 26 25  1  0  0  0  0
 27 30  1  0  0  0  0
 28 29  1  0  0  0  0
 29 36  2  0  0  0  0
 29 30  1  0  0  0  0
 30 31  2  0  0  0  0
 31 33  1  0  0  0  0
 31 32  1  0  0  0  0
 33 34  1  0  0  0  0
 35 33  2  0  0  0  0
 36 35  1  0  0  0  0
M  END
>  <minimizedAffinity>
-5.78894949

$$$$

 OpenBabel03242515113D

 36 38  0  0  0  0  0  0  0  0999 V2000
   39.3180   26.2160   42.1910 C   0  0  0  0  0  0  0  0  0  0  0  0
   39.3050   24.8840   42.4810 C   0  0  0  0  0  0  0  0  0  0  0  0
   38.2000   24.0710   42.3590 C   0  0  0  0  0  0  0  0  0  0  0  0
   37.0170   24.6210   41.9180 C   0  0  0  0  0  0  0  0  0  0  0  0
   36.9960   25.9520   41.6190 C   0  0  0  0  0  0  0  0  0  0  0  0
   38.1230   26.7450   41.7500 C   0  0  0  0  0  0  0  0  0  0  0  0
   40.2360   24.4380   42.8310 H   0  0  0  0  0  0  0  0  0  0  0  0
   38.2990   23.0320   42.6160 H   0  0  0  0  0  0  0  0  0  0  0  0
   36.1960   23.9390   41.8460 H   0  0  0  0  0  0  0  0  0  0  0  0
   36.0370   26.3360   41.2750 H   0  0  0  0  0  0  0  0  0  0  0  0
   42.1680   28.3360   41.2880 C   0  0  0  0  0  0  0  0  0  0  0  0
   42.7620   28.6080   42.5210 C   0  0  0  0  0  0  0  0  0  0  0  0
   42.1820   28.0600   43.6710 C   0  0  0  0  0  0  0  0  0  0  0  0
   41.0620   27.2800   43.5730 N   0  0  0  0  0  0  0  0  0  0  0  0
   40.5070   27.0380   42.3320 C   0  0  0  0  0  0  0  0  0  0  0  0
   41.0790   27.5740   41.2420 N   0  0  0  0  0  0  0  0  0  0  0  0
   42.5520   28.7200   40.3510 H   0  0  0  0  0  0  0  0  0  0  0  0
   43.6360   29.2250   42.5090 H   0  0  0  0  0  0  0  0  0  0  0  0
   42.6710   28.2950   44.5820 H   0  0  0  0  0  0  0  0  0  0  0  0
   37.9280   28.0980   41.3990 N   0  0  0  0  0  0  0  0  0  0  0  0
   37.9250   28.2070   40.3590 H   0  0  0  0  0  0  0  0  0  0  0  0
   37.7080   29.5200   42.3260 S   0  0  0  0  0  0  0  0  0  0  0  0
   37.1020   29.1160   43.6800 O   0  0  0  0  0  0  0  0  0  0  0  0
   37.5100   29.3430   44.5510 H   0  0  0  0  0  0  0  0  0  0  0  0
   38.9380   30.2910   42.5890 O   0  0  0  0  0  0  0  0  0  0  0  0
   39.7160   30.3600   41.9850 H   0  0  0  0  0  0  0  0  0  0  0  0
   36.4920   30.4000   41.5680 O   0  0  0  0  0  0  0  0  0  0  0  0
   37.9120   31.2060   39.2820 F   0  0  0  0  0  0  0  0  0  0  0  0
   36.8070   30.4490   39.0970 C   0  0  0  0  0  0  0  0  0  0  0  0
   36.1510   30.0850   40.2610 C   0  0  0  0  0  0  0  0  0  0  0  0
   35.0100   29.3090   40.1530 C   0  0  0  0  0  0  0  0  0  0  0  0
   34.4300   28.9760   41.0080 H   0  0  0  0  0  0  0  0  0  0  0  0
   34.5240   28.9030   38.9370 C   0  0  0  0  0  0  0  0  0  0  0  0
   33.6330   28.2950   38.8210 H   0  0  0  0  0  0  0  0  0  0  0  0
   35.1760   29.2650   37.7970 C   0  0  0  0  0  3  0  0  0  0  0  0
   36.3100   30.0350   37.8730 C   0  0  0  0  0  3  0  0  0  0  0  0
  1 15  1  0  0  0  0
  1  2  1  0  0  0  0
  2  7  1  0  0  0  0
  3  2  2  0  0  0  0
  3  8  1  0  0  0  0
  4  3  1  0  0  0  0
  5  6  1  0  0  0  0
  5  4  2  0  0  0  0
  6  1  2  0  0  0  0
  9  4  1  0  0  0  0
 10  5  1  0  0  0  0
 11 12  1  0  0  0  0
 12 13  2  0  0  0  0
 13 19  1  0  0  0  0
 14 13  1  0  0  0  0
 15 14  2  0  0  0  0
 16 11  2  0  0  0  0
 16 15  1  0  0  0  0
 17 11  1  0  0  0  0
 18 12  1  0  0  0  0
 20  6  1  0  0  0  0
 20 22  1  0  0  0  0
 21 20  1  0  0  0  0
 22 25  1  0  0  0  0
 22 23  1  0  0  0  0
 23 24  1  0  0  0  0
 26 25  1  0  0  0  0
 27 22  1  0  0  0  0
 29 28  1  0  0  0  0
 29 30  1  0  0  0  0
 30 27  1  0  0  0  0
 31 30  2  0  0  0  0
 31 32  1  0  0  0  0
 33 31  1  0  0  0  0
 34 33  1  0  0  0  0
 35 36  1  0  0  0  0
 35 33  2  0  0  0  0
 36 29  2  0  0  0  0
M  END
>  <minimizedAffinity>
-5.77405357

$$$$

 OpenBabel03242515113D

 36 38  0  0  0  0  0  0  0  0999 V2000
   37.4250   27.9140   38.0430 C   0  0  0  0  0  0  0  0  0  0  0  0
   37.2060   27.7310   36.7100 C   0  0  0  0  0  0  0  0  0  0  0  0
   36.9180   28.7430   35.8210 C   0  0  0  0  0  0  0  0  0  0  0  0
   36.8390   30.0350   36.2900 C   0  0  0  0  0  0  0  0  0  0  0  0
   37.0540   30.2540   37.6190 C   0  0  0  0  0  0  0  0  0  0  0  0
   37.3430   29.2170   38.4900 C   0  0  0  0  0  0  0  0  0  0  0  0
   37.2660   26.7120   36.3280 H   0  0  0  0  0  0  0  0  0  0  0  0
   36.7610   28.4880   34.7890 H   0  0  0  0  0  0  0  0  0  0  0  0
   36.6110   30.7750   35.5510 H   0  0  0  0  0  0  0  0  0  0  0  0
   36.9800   31.2930   37.9370 H   0  0  0  0  0  0  0  0  0  0  0  0
   37.0210   25.4380   40.7140 C   0  0  0  0  0  0  0  0  0  0  0  0
   38.2320   24.7480   40.6900 C   0  0  0  0  0  0  0  0  0  0  0  0
   39.1970   25.1340   39.7520 C   0  0  0  0  0  0  0  0  0  0  0  0
   38.9430   26.1630   38.8870 N   0  0  0  0  0  0  0  0  0  0  0  0
   37.7290   26.8190   38.9450 C   0  0  0  0  0  0  0  0  0  0  0  0
   36.8170   26.4320   39.8530 N   0  0  0  0  0  0  0  0  0  0  0  0
   36.2220   25.2030   41.4070 H   0  0  0  0  0  0  0  0  0  0  0  0
   38.3500   23.9570   41.4010 H   0  0  0  0  0  0  0  0  0  0  0  0
   40.1000   24.5790   39.7750 H   0  0  0  0  0  0  0  0  0  0  0  0
   37.5360   29.6160   39.8290 N   0  0  0  0  0  0  0  0  0  0  0  0
   38.5450   29.8270   40.0030 H   0  0  0  0  0  0  0  0  0  0  0  0
   36.4670   29.8070   41.1520 S   0  0  0  0  0  0  0  0  0  0  0  0
   35.7790   31.1740   41.0140 O   0  0  0  0  0  0  0  0  0  0  0  0
   34.7980   31.2930   40.9910 H   0  0  0  0  0  0  0  0  0  0  0  0
   35.4170   28.7770   41.2590 O   0  0  0  0  0  0  0  0  0  0  0  0
   35.5060   27.8310   40.9890 H   0  0  0  0  0  0  0  0  0  0  0  0
   37.4270   29.9570   42.5240 O   0  0  0  0  0  0  0  0  0  0  0  0
   36.7050   27.4850   43.6480 F   0  0  0  0  0  0  0  0  0  0  0  0
   38.0160   27.6980   43.3940 C   0  0  0  0  0  0  0  0  0  0  0  0
   38.3080   28.9330   42.8420 C   0  0  0  0  0  0  0  0  0  0  0  0
   39.6300   29.2250   42.5530 C   0  0  0  0  0  0  0  0  0  0  0  0
   39.9540   30.1650   42.1200 H   0  0  0  0  0  0  0  0  0  0  0  0
   40.6380   28.3300   42.8020 C   0  0  0  0  0  0  0  0  0  0  0  0
   41.6830   28.5300   42.5870 H   0  0  0  0  0  0  0  0  0  0  0  0
   40.3430   27.1160   43.3450 C   0  0  0  0  0  3  0  0  0  0  0  0
   39.0400   26.7990   43.6420 C   0  0  0  0  0  3  0  0  0  0  0  0
  1  6  1  0  0  0  0
  1 15  1  0  0  0  0
  2  1  2  0  0  0  0
  3  4  2  0  0  0  0
  3  2  1  0  0  0  0
  4  5  1  0  0  0  0
  5 10  1  0  0  0  0
  5  6  2  0  0  0  0
  6 20  1  0  0  0  0
  7  2  1  0  0  0  0
  8  3  1  0  0  0  0
  9  4  1  0  0  0  0
 11 17  1  0  0  0  0
 12 11  1  0  0  0  0
 12 18  1  0  0  0  0
 13 19  1  0  0  0  0
 13 12  2  0  0  0  0
 14 15  2  0  0  0  0
 14 13  1  0  0  0  0
 15 16  1  0  0  0  0
 16 11  2  0  0  0  0
 20 21  1  0  0  0  0
 20 22  1  0  0  0  0
 22 25  1  0  0  0  0
 22 27  1  0  0  0  0
 23 22  1  0  0  0  0
 24 23  1  0  0  0  0
 26 25  1  0  0  0  0
 27 30  1  0  0  0  0
 29 36  1  0  0  0  0
 29 28  1  0  0  0  0
 30 29  2  0  0  0  0
 31 33  2  0  0  0  0
 31 30  1  0  0  0  0
 32 31  1  0  0  0  0
 33 35  1  0  0  0  0
 34 33  1  0  0  0  0
 35 36  2  0  0  0  0
M  END
>  <minimizedAffinity>
-5.60580826

$$$$

 OpenBabel03242515113D

 36 38  0  0  0  0  0  0  0  0999 V2000
   36.8220   28.5640   40.0160 C   0  0  0  0  0  0  0  0  0  0  0  0
   35.8530   27.8360   39.3920 C   0  0  0  0  0  0  0  0  0  0  0  0
   35.2190   28.2150   38.2300 C   0  0  0  0  0  0  0  0  0  0  0  0
   35.5720   29.4090   37.6420 C   0  0  0  0  0  0  0  0  0  0  0  0
   36.5390   30.1620   38.2400 C   0  0  0  0  0  0  0  0  0  0  0  0
   37.1600   29.7560   39.4070 C   0  0  0  0  0  0  0  0  0  0  0  0
   35.5660   26.8890   39.8500 H   0  0  0  0  0  0  0  0  0  0  0  0
   34.4670   27.5650   37.8220 H   0  0  0  0  0  0  0  0  0  0  0  0
   35.0430   29.6470   36.7420 H   0  0  0  0  0  0  0  0  0  0  0  0
   36.7790   31.0960   37.7330 H   0  0  0  0  0  0  0  0  0  0  0  0
   37.5370   28.1940   43.5910 C   0  0  0  0  0  0  0  0  0  0  0  0
   38.6370   27.3370   43.6050 C   0  0  0  0  0  0  0  0  0  0  0  0
   39.1400   26.8820   42.3800 C   0  0  0  0  0  0  0  0  0  0  0  0
   38.5560   27.2770   41.2080 N   0  0  0  0  0  0  0  0  0  0  0  0
   37.4670   28.1270   41.2400 C   0  0  0  0  0  0  0  0  0  0  0  0
   37.0010   28.5500   42.4260 N   0  0  0  0  0  0  0  0  0  0  0  0
   37.0870   28.5910   44.4930 H   0  0  0  0  0  0  0  0  0  0  0  0
   39.0340   27.0780   44.5650 H   0  0  0  0  0  0  0  0  0  0  0  0
   39.9770   26.2350   42.4450 H   0  0  0  0  0  0  0  0  0  0  0  0
   38.1360   30.6520   39.8920 N   0  0  0  0  0  0  0  0  0  0  0  0
   38.9940   30.1320   40.1840 H   0  0  0  0  0  0  0  0  0  0  0  0
   38.1630   32.3540   40.0790 S   0  0  0  0  0  0  0  0  0  0  0  0
   38.6510   32.9690   38.7580 O   0  0  0  0  0  0  0  0  0  0  0  0
   38.1420   33.6450   38.2480 H   0  0  0  0  0  0  0  0  0  0  0  0
   36.8630   32.9650   40.4130 O   0  0  0  0  0  0  0  0  0  0  0  0
   36.1480   32.5450   40.9500 H   0  0  0  0  0  0  0  0  0  0  0  0
   39.3870   32.6940   41.1790 O   0  0  0  0  0  0  0  0  0  0  0  0
   39.2680   30.7960   43.2480 F   0  0  0  0  0  0  0  0  0  0  0  0
   40.3470   30.7660   42.4320 C   0  0  0  0  0  0  0  0  0  0  0  0
   40.3480   31.7260   41.4350 C   0  0  0  0  0  0  0  0  0  0  0  0
   41.4190   31.7590   40.5600 C   0  0  0  0  0  0  0  0  0  0  0  0
   41.5080   32.4740   39.7490 H   0  0  0  0  0  0  0  0  0  0  0  0
   42.4640   30.8760   40.6630 C   0  0  0  0  0  0  0  0  0  0  0  0
   43.3170   30.8770   39.9920 H   0  0  0  0  0  0  0  0  0  0  0  0
   42.4550   29.9340   41.6470 C   0  0  0  0  0  3  0  0  0  0  0  0
   41.4050   29.8780   42.5290 C   0  0  0  0  0  3  0  0  0  0  0  0
  1 15  1  0  0  0  0
  2  7  1  0  0  0  0
  2  1  2  0  0  0  0
  3  2  1  0  0  0  0
  4  3  2  0  0  0  0
  4  5  1  0  0  0  0
  5  6  2  0  0  0  0
  6 20  1  0  0  0  0
  6  1  1  0  0  0  0
  8  3  1  0  0  0  0
  9  4  1  0  0  0  0
 10  5  1  0  0  0  0
 11 12  1  0  0  0  0
 11 17  1  0  0  0  0
 12 18  1  0  0  0  0
 13 19  1  0  0  0  0
 13 12  2  0  0  0  0
 14 15  2  0  0  0  0
 14 13  1  0  0  0  0
 15 16  1  0  0  0  0
 16 11  2  0  0  0  0
 20 22  1  0  0  0  0
 20 21  1  0  0  0  0
 22 25  1  0  0  0  0
 22 27  1  0  0  0  0
 23 22  1  0  0  0  0
 24 23  1  0  0  0  0
 25 26  1  0  0  0  0
 27 30  1  0  0  0  0
 29 36  1  0  0  0  0
 29 28  1  0  0  0  0
 30 29  2  0  0  0  0
 31 33  2  0  0  0  0
 31 30  1  0  0  0  0
 32 31  1  0  0  0  0
 33 35  1  0  0  0  0
 34 33  1  0  0  0  0
 35 36  2  0  0  0  0
M  END
>  <minimizedAffinity>
-5.57202005

$$$$
