
 OpenBabel03242521103D

 19 20  0  0  0  0  0  0  0  0999 V2000
   46.9340   32.2950   45.2870 S   0  0  0  0  0  0  0  0  0  0  0  0
   45.8320   32.0280   49.1680 C   0  0  0  0  0  0  0  0  0  0  0  0
   45.1090   30.8010   49.1400 C   0  0  0  0  0  0  0  0  0  0  0  0
   44.9970   30.1200   47.9250 C   0  0  0  0  0  0  0  0  0  0  0  0
   45.5830   30.6590   46.8350 N   0  0  0  0  0  0  0  0  0  0  0  0
   46.2710   31.8370   46.8890 C   0  0  0  0  0  0  0  0  0  0  0  0
   46.3860   32.4970   48.0370 N   0  0  0  0  0  0  0  0  0  0  0  0
   45.9600   32.6070   50.0660 H   0  0  0  0  0  0  0  0  0  0  0  0
   44.6810   30.4610   50.0660 H   0  0  0  0  0  0  0  0  0  0  0  0
   44.4470   29.1940   47.9150 H   0  0  0  0  0  0  0  0  0  0  0  0
   47.4730   33.5930   42.7350 F   0  0  0  0  0  0  0  0  0  0  0  0
   46.5270   34.2410   43.4430 C   0  0  0  0  0  0  0  0  0  0  0  0
   46.1210   33.7910   44.6840 C   0  0  0  0  0  0  0  0  0  0  0  0
   45.1570   34.4390   45.4220 C   0  0  0  0  0  0  0  0  0  0  0  0
   44.9350   33.9780   46.3780 H   0  0  0  0  0  0  0  0  0  0  0  0
   44.5420   35.5810   44.9550 C   0  0  0  0  0  0  0  0  0  0  0  0
   43.7970   36.0150   45.6090 H   0  0  0  0  0  0  0  0  0  0  0  0
   44.9300   36.0460   43.7220 C   0  0  0  0  0  0  0  0  0  0  0  0
   45.8980   35.3930   42.9840 C   0  0  0  0  0  0  0  0  0  0  0  0
  1  6  1  0  0  0  0
  2  8  1  0  0  0  0
  3  2  1  0  0  0  0
  3  9  1  0  0  0  0
  4  3  2  0  0  0  0
  5  6  2  0  0  0  0
  5  4  1  0  0  0  0
  6  7  1  0  0  0  0
  7  2  2  0  0  0  0
 10  4  1  0  0  0  0
 11 12  1  0  0  0  0
 12 13  1  0  0  0  0
 13  1  1  0  0  0  0
 13 14  2  0  0  0  0
 14 15  1  0  0  0  0
 16 14  1  0  0  0  0
 16 17  1  0  0  0  0
 18 16  2  0  0  0  0
 19 12  2  0  0  0  0
 19 18  1  0  0  0  0
M  END
>  <minimizedAffinity>
-4.78710842

>  <minimizedRMSD>
5.5548625

$$$$
