
 OpenBabel03242519043D

 32 34  0  0  1  0  0  0  0  0999 V2000
   37.2870   30.8730   41.1450 N   0  0  0  0  0  0  0  0  0  0  0  0
   37.5860   29.8450   42.1250 C   0  0  0  0  0  0  0  0  0  0  0  0
   37.1510   28.6460   41.3440 C   0  0  2  0  0  0  0  0  0  0  0  0
   35.7870   29.0810   40.8480 C   0  0  0  0  0  0  0  0  0  0  0  0
   35.9850   30.5530   40.5970 C   0  0  0  0  0  0  0  0  0  0  0  0
   37.0230   29.9840   43.0620 H   0  0  0  0  0  0  0  0  0  0  0  0
   38.6750   29.8690   42.2690 H   0  0  0  0  0  0  0  0  0  0  0  0
   37.8520   28.5120   40.4920 H   0  0  0  0  0  0  0  0  0  0  0  0
   35.5360   28.5030   39.9310 H   0  0  0  0  0  0  0  0  0  0  0  0
   35.0420   28.9040   41.6480 H   0  0  0  0  0  0  0  0  0  0  0  0
   36.0220   30.6750   39.4870 H   0  0  0  0  0  0  0  0  0  0  0  0
   35.1670   31.1670   41.0380 H   0  0  0  0  0  0  0  0  0  0  0  0
   38.3710   34.1550   39.7540 C   0  0  0  0  0  0  0  0  0  0  0  0
   37.5100   33.1200   40.0990 C   0  0  0  0  0  0  0  0  0  0  0  0
   38.0410   31.9900   40.7400 C   0  0  0  0  0  0  0  0  0  0  0  0
   39.3930   31.9640   40.9990 N   0  0  0  0  0  0  0  0  0  0  0  0
   40.2010   33.0000   40.6440 C   0  0  0  0  0  0  0  0  0  0  0  0
   39.6790   34.1030   40.0160 N   0  0  0  0  0  0  0  0  0  0  0  0
   37.9390   35.0110   39.2620 H   0  0  0  0  0  0  0  0  0  0  0  0
   36.4510   33.1240   39.9050 H   0  0  0  0  0  0  0  0  0  0  0  0
   41.2520   32.8900   40.8870 H   0  0  0  0  0  0  0  0  0  0  0  0
   36.9870   27.4690   42.1330 N   0  0  0  0  0  0  0  0  0  0  0  0
   36.0440   27.3050   42.5940 H   0  0  0  0  0  0  0  0  0  0  0  0
   36.6180   24.8020   41.2600 F   0  0  0  0  0  0  0  0  0  0  0  0
   37.7120   25.0840   42.0290 C   0  0  0  0  0  0  0  0  0  0  0  0
   37.8670   26.4100   42.4530 C   0  0  0  0  0  0  0  0  0  0  0  0
   38.9930   26.6090   43.2240 C   0  0  0  0  0  0  0  0  0  0  0  0
   39.2710   27.5610   43.6250 H   0  0  0  0  0  0  0  0  0  0  0  0
   39.9040   25.6400   43.5700 C   0  0  0  0  0  0  0  0  0  0  0  0
   40.7840   25.7870   44.1710 H   0  0  0  0  0  0  0  0  0  0  0  0
   39.7070   24.3470   43.1290 C   0  0  0  0  0  3  0  0  0  0  0  0
   38.6000   24.0970   42.3570 C   0  0  0  0  0  3  0  0  0  0  0  0
  1  2  1  0  0  0  0
  2  7  1  0  0  0  0
  2  6  1  0  0  0  0
  3  8  1  6  0  0  0
  3  2  1  0  0  0  0
  3 22  1  0  0  0  0
  4  3  1  0  0  0  0
  4 10  1  0  0  0  0
  5  4  1  0  0  0  0
  5 12  1  0  0  0  0
  5  1  1  0  0  0  0
  9  4  1  0  0  0  0
 11  5  1  0  0  0  0
 13 18  2  0  0  0  0
 13 14  1  0  0  0  0
 14 15  2  0  0  0  0
 15 16  1  0  0  0  0
 15  1  1  0  0  0  0
 17 21  1  0  0  0  0
 17 16  2  0  0  0  0
 18 17  1  0  0  0  0
 19 13  1  0  0  0  0
 20 14  1  0  0  0  0
 22 26  1  0  0  0  0
 22 23  1  0  0  0  0
 24 25  1  0  0  0  0
 25 32  2  0  0  0  0
 25 26  1  0  0  0  0
 26 27  2  0  0  0  0
 27 29  1  0  0  0  0
 27 28  1  0  0  0  0
 29 30  1  0  0  0  0
 31 29  2  0  0  0  0
 32 31  1  0  0  0  0
M  END
>  <minimizedAffinity>
-5.46201658

$$$$

 OpenBabel03242519043D

 32 34  0  0  1  0  0  0  0  0999 V2000
   36.4620   30.0600   38.5550 N   0  0  0  0  0  0  0  0  0  0  0  0
   36.7100   29.2810   39.7540 C   0  0  0  0  0  0  0  0  0  0  0  0
   36.2430   30.2700   40.7750 C   0  0  2  0  0  0  0  0  0  0  0  0
   36.9560   31.5310   40.3290 C   0  0  0  0  0  0  0  0  0  0  0  0
   36.9420   31.3990   38.8280 C   0  0  0  0  0  0  0  0  0  0  0  0
   37.7720   29.0080   39.8640 H   0  0  0  0  0  0  0  0  0  0  0  0
   36.0450   28.4080   39.6940 H   0  0  0  0  0  0  0  0  0  0  0  0
   35.1420   30.3850   40.6710 H   0  0  0  0  0  0  0  0  0  0  0  0
   36.3920   32.4140   40.7020 H   0  0  0  0  0  0  0  0  0  0  0  0
   37.9880   31.5180   40.7260 H   0  0  0  0  0  0  0  0  0  0  0  0
   36.1860   32.1340   38.4600 H   0  0  0  0  0  0  0  0  0  0  0  0
   37.9430   31.5990   38.3810 H   0  0  0  0  0  0  0  0  0  0  0  0
   34.1760   28.7410   35.9260 C   0  0  0  0  0  0  0  0  0  0  0  0
   34.6310   29.0590   37.2000 C   0  0  0  0  0  0  0  0  0  0  0  0
   35.8810   29.6830   37.3300 C   0  0  0  0  0  0  0  0  0  0  0  0
   36.5970   29.9520   36.1850 N   0  0  0  0  0  0  0  0  0  0  0  0
   36.1140   29.6240   34.9550 C   0  0  0  0  0  0  0  0  0  0  0  0
   34.8910   29.0130   34.8310 N   0  0  0  0  0  0  0  0  0  0  0  0
   33.2130   28.2620   35.8520 H   0  0  0  0  0  0  0  0  0  0  0  0
   34.0850   28.8550   38.1050 H   0  0  0  0  0  0  0  0  0  0  0  0
   36.7470   29.8750   34.1120 H   0  0  0  0  0  0  0  0  0  0  0  0
   36.6580   29.9690   42.1060 N   0  0  0  0  0  0  0  0  0  0  0  0
   36.1560   30.4520   42.9070 H   0  0  0  0  0  0  0  0  0  0  0  0
   36.1170   27.4620   43.3050 F   0  0  0  0  0  0  0  0  0  0  0  0
   37.4200   27.8640   43.2080 C   0  0  0  0  0  0  0  0  0  0  0  0
   37.6590   29.1110   42.6170 C   0  0  0  0  0  0  0  0  0  0  0  0
   38.9980   29.4410   42.5580 C   0  0  0  0  0  0  0  0  0  0  0  0
   39.3610   30.3510   42.1310 H   0  0  0  0  0  0  0  0  0  0  0  0
   40.0310   28.6600   43.0190 C   0  0  0  0  0  0  0  0  0  0  0  0
   41.0760   28.9100   42.9770 H   0  0  0  0  0  0  0  0  0  0  0  0
   39.7450   27.4400   43.5950 C   0  0  0  0  0  3  0  0  0  0  0  0
   38.4270   27.0660   43.6770 C   0  0  0  0  0  3  0  0  0  0  0  0
  1  5  1  0  0  0  0
  1  2  1  0  0  0  0
  2  6  1  0  0  0  0
  2  3  1  0  0  0  0
  3  8  1  6  0  0  0
  3 22  1  0  0  0  0
  4  9  1  0  0  0  0
  4 10  1  0  0  0  0
  4  3  1  0  0  0  0
  5  4  1  0  0  0  0
  7  2  1  0  0  0  0
 11  5  1  0  0  0  0
 12  5  1  0  0  0  0
 13 14  1  0  0  0  0
 14 15  2  0  0  0  0
 14 20  1  0  0  0  0
 15  1  1  0  0  0  0
 16 15  1  0  0  0  0
 17 16  2  0  0  0  0
 18 17  1  0  0  0  0
 18 13  2  0  0  0  0
 19 13  1  0  0  0  0
 21 17  1  0  0  0  0
 22 26  1  0  0  0  0
 22 23  1  0  0  0  0
 25 24  1  0  0  0  0
 25 32  1  0  0  0  0
 26 25  2  0  0  0  0
 27 26  1  0  0  0  0
 27 29  2  0  0  0  0
 28 27  1  0  0  0  0
 29 31  1  0  0  0  0
 30 29  1  0  0  0  0
 31 32  2  0  0  0  0
M  END
>  <minimizedAffinity>
-5.35178661

$$$$

 OpenBabel03242519043D

 32 34  0  0  1  0  0  0  0  0999 V2000
   36.1150   29.7430   38.7180 N   0  0  0  0  0  0  0  0  0  0  0  0
   36.4670   29.0540   39.9460 C   0  0  0  0  0  0  0  0  0  0  0  0
   36.2090   30.1630   40.9170 C   0  0  2  0  0  0  0  0  0  0  0  0
   36.9410   31.3180   40.2630 C   0  0  0  0  0  0  0  0  0  0  0  0
   36.7180   31.0570   38.7960 C   0  0  0  0  0  0  0  0  0  0  0  0
   37.5130   28.7070   39.9470 H   0  0  0  0  0  0  0  0  0  0  0  0
   35.7420   28.2360   40.0560 H   0  0  0  0  0  0  0  0  0  0  0  0
   35.1150   30.3570   40.9420 H   0  0  0  0  0  0  0  0  0  0  0  0
   36.4940   32.2740   40.6170 H   0  0  0  0  0  0  0  0  0  0  0  0
   38.0140   31.2570   40.5260 H   0  0  0  0  0  0  0  0  0  0  0  0
   35.9720   31.8160   38.4570 H   0  0  0  0  0  0  0  0  0  0  0  0
   37.6610   31.1360   38.2090 H   0  0  0  0  0  0  0  0  0  0  0  0
   34.9470   28.8230   35.3020 C   0  0  0  0  0  0  0  0  0  0  0  0
   35.8090   29.2770   36.2940 C   0  0  0  0  0  0  0  0  0  0  0  0
   35.3510   29.3080   37.6190 C   0  0  0  0  0  0  0  0  0  0  0  0
   34.0670   28.8840   37.8740 N   0  0  0  0  0  0  0  0  0  0  0  0
   33.2540   28.4460   36.8740 C   0  0  0  0  0  0  0  0  0  0  0  0
   33.7050   28.4170   35.5780 N   0  0  0  0  0  0  0  0  0  0  0  0
   35.3220   28.8080   34.2920 H   0  0  0  0  0  0  0  0  0  0  0  0
   36.8160   29.6120   36.1120 H   0  0  0  0  0  0  0  0  0  0  0  0
   32.2590   28.1330   37.1700 H   0  0  0  0  0  0  0  0  0  0  0  0
   36.7770   29.9470   42.2080 N   0  0  0  0  0  0  0  0  0  0  0  0
   36.3990   30.5160   43.0210 H   0  0  0  0  0  0  0  0  0  0  0  0
   36.2900   27.4450   43.4390 F   0  0  0  0  0  0  0  0  0  0  0  0
   37.5870   27.8390   43.2670 C   0  0  0  0  0  0  0  0  0  0  0  0
   37.8000   29.0840   42.6620 C   0  0  0  0  0  0  0  0  0  0  0  0
   39.1350   29.4050   42.5270 C   0  0  0  0  0  0  0  0  0  0  0  0
   39.4790   30.3130   42.0800 H   0  0  0  0  0  0  0  0  0  0  0  0
   40.1880   28.6190   42.9300 C   0  0  0  0  0  0  0  0  0  0  0  0
   41.2310   28.8620   42.8290 H   0  0  0  0  0  0  0  0  0  0  0  0
   39.9280   27.4010   43.5230 C   0  0  0  0  0  3  0  0  0  0  0  0
   38.6140   27.0350   43.6800 C   0  0  0  0  0  3  0  0  0  0  0  0
  1  5  1  0  0  0  0
  1  2  1  0  0  0  0
  2  6  1  0  0  0  0
  2  7  1  0  0  0  0
  2  3  1  0  0  0  0
  3  8  1  1  0  0  0
  3 22  1  0  0  0  0
  4 10  1  0  0  0  0
  4  9  1  0  0  0  0
  4  3  1  0  0  0  0
  5  4  1  0  0  0  0
 11  5  1  0  0  0  0
 12  5  1  0  0  0  0
 13 18  2  0  0  0  0
 13 14  1  0  0  0  0
 14 15  2  0  0  0  0
 15 16  1  0  0  0  0
 15  1  1  0  0  0  0
 17 21  1  0  0  0  0
 17 16  2  0  0  0  0
 18 17  1  0  0  0  0
 19 13  1  0  0  0  0
 20 14  1  0  0  0  0
 22 26  1  0  0  0  0
 22 23  1  0  0  0  0
 25 24  1  0  0  0  0
 25 32  1  0  0  0  0
 26 25  2  0  0  0  0
 27 26  1  0  0  0  0
 27 29  2  0  0  0  0
 28 27  1  0  0  0  0
 29 31  1  0  0  0  0
 30 29  1  0  0  0  0
 31 32  2  0  0  0  0
M  END
>  <minimizedAffinity>
-5.24150372

$$$$

 OpenBabel03242519043D

 32 34  0  0  1  0  0  0  0  0999 V2000
   36.5120   29.3170   39.1990 N   0  0  0  0  0  0  0  0  0  0  0  0
   36.8750   28.2070   40.0600 C   0  0  0  0  0  0  0  0  0  0  0  0
   36.1490   28.6270   41.2990 C   0  0  2  0  0  0  0  0  0  0  0  0
   36.5780   30.0750   41.4290 C   0  0  0  0  0  0  0  0  0  0  0  0
   36.6640   30.5200   39.9930 C   0  0  0  0  0  0  0  0  0  0  0  0
   37.9650   28.1230   40.1990 H   0  0  0  0  0  0  0  0  0  0  0  0
   36.4280   27.3110   39.6070 H   0  0  0  0  0  0  0  0  0  0  0  0
   35.0570   28.5580   41.1040 H   0  0  0  0  0  0  0  0  0  0  0  0
   35.8120   30.6250   42.0200 H   0  0  0  0  0  0  0  0  0  0  0  0
   37.5670   30.1120   41.9240 H   0  0  0  0  0  0  0  0  0  0  0  0
   35.7780   31.1780   39.8190 H   0  0  0  0  0  0  0  0  0  0  0  0
   37.6120   31.0630   39.7790 H   0  0  0  0  0  0  0  0  0  0  0  0
   36.3460   29.6660   35.4940 C   0  0  0  0  0  0  0  0  0  0  0  0
   36.8930   29.7030   36.7710 C   0  0  0  0  0  0  0  0  0  0  0  0
   36.0890   29.3270   37.8570 C   0  0  0  0  0  0  0  0  0  0  0  0
   34.7940   28.9350   37.6030 N   0  0  0  0  0  0  0  0  0  0  0  0
   34.2970   28.9120   36.3360 C   0  0  0  0  0  0  0  0  0  0  0  0
   35.0860   29.2820   35.2760 N   0  0  0  0  0  0  0  0  0  0  0  0
   36.9830   29.9600   34.6760 H   0  0  0  0  0  0  0  0  0  0  0  0
   37.9030   30.0070   36.9870 H   0  0  0  0  0  0  0  0  0  0  0  0
   33.2660   28.5900   36.2340 H   0  0  0  0  0  0  0  0  0  0  0  0
   36.5600   27.9310   42.4750 N   0  0  0  0  0  0  0  0  0  0  0  0
   35.9940   28.0730   43.3620 H   0  0  0  0  0  0  0  0  0  0  0  0
   36.5780   25.2290   41.6320 F   0  0  0  0  0  0  0  0  0  0  0  0
   37.6640   25.7000   42.3140 C   0  0  0  0  0  0  0  0  0  0  0  0
   37.6270   27.0380   42.7250 C   0  0  0  0  0  0  0  0  0  0  0  0
   38.7600   27.4330   43.4060 C   0  0  0  0  0  0  0  0  0  0  0  0
   38.9040   28.4230   43.7840 H   0  0  0  0  0  0  0  0  0  0  0  0
   39.8440   26.6340   43.6800 C   0  0  0  0  0  0  0  0  0  0  0  0
   40.7310   26.9340   44.2100 H   0  0  0  0  0  0  0  0  0  0  0  0
   39.8340   25.3210   43.2550 C   0  0  0  0  0  3  0  0  0  0  0  0
   38.7280   24.8790   42.5720 C   0  0  0  0  0  3  0  0  0  0  0  0
  1  5  1  0  0  0  0
  1  2  1  0  0  0  0
  2  6  1  0  0  0  0
  2  3  1  0  0  0  0
  3  8  1  6  0  0  0
  3  4  1  0  0  0  0
  3 22  1  0  0  0  0
  4 10  1  0  0  0  0
  4  9  1  0  0  0  0
  5  4  1  0  0  0  0
  7  2  1  0  0  0  0
 11  5  1  0  0  0  0
 12  5  1  0  0  0  0
 13 14  1  0  0  0  0
 14 20  1  0  0  0  0
 14 15  2  0  0  0  0
 15  1  1  0  0  0  0
 16 15  1  0  0  0  0
 17 16  2  0  0  0  0
 18 13  2  0  0  0  0
 18 17  1  0  0  0  0
 19 13  1  0  0  0  0
 21 17  1  0  0  0  0
 22 26  1  0  0  0  0
 22 23  1  0  0  0  0
 24 25  1  0  0  0  0
 25 32  2  0  0  0  0
 25 26  1  0  0  0  0
 26 27  2  0  0  0  0
 27 29  1  0  0  0  0
 27 28  1  0  0  0  0
 29 30  1  0  0  0  0
 31 29  2  0  0  0  0
 32 31  1  0  0  0  0
M  END
>  <minimizedAffinity>
-4.93001604

$$$$

 OpenBabel03242519043D

 32 34  0  0  1  0  0  0  0  0999 V2000
   35.2480   28.8870   38.7000 N   0  0  0  0  0  0  0  0  0  0  0  0
   33.8110   29.0870   38.7440 C   0  0  0  0  0  0  0  0  0  0  0  0
   33.4370   28.3630   37.4890 C   0  0  2  0  0  0  0  0  0  0  0  0
   34.4210   28.9450   36.4950 C   0  0  0  0  0  0  0  0  0  0  0  0
   35.6570   29.1400   37.3340 C   0  0  0  0  0  0  0  0  0  0  0  0
   33.5360   30.1540   38.7310 H   0  0  0  0  0  0  0  0  0  0  0  0
   33.4570   28.5620   39.6420 H   0  0  0  0  0  0  0  0  0  0  0  0
   33.6300   27.2790   37.6420 H   0  0  0  0  0  0  0  0  0  0  0  0
   34.5590   28.2220   35.6600 H   0  0  0  0  0  0  0  0  0  0  0  0
   34.0270   29.9110   36.1250 H   0  0  0  0  0  0  0  0  0  0  0  0
   36.3720   28.3420   37.0200 H   0  0  0  0  0  0  0  0  0  0  0  0
   36.1020   30.1510   37.1950 H   0  0  0  0  0  0  0  0  0  0  0  0
   36.8640   28.2440   41.9940 C   0  0  0  0  0  0  0  0  0  0  0  0
   35.8850   28.6430   41.0930 C   0  0  0  0  0  0  0  0  0  0  0  0
   36.1460   28.5230   39.7200 C   0  0  0  0  0  0  0  0  0  0  0  0
   37.3640   28.0120   39.3320 N   0  0  0  0  0  0  0  0  0  0  0  0
   38.2970   27.6320   40.2480 C   0  0  0  0  0  0  0  0  0  0  0  0
   38.0380   27.7520   41.5910 N   0  0  0  0  0  0  0  0  0  0  0  0
   36.6400   28.3470   43.0430 H   0  0  0  0  0  0  0  0  0  0  0  0
   34.9280   29.0460   41.3790 H   0  0  0  0  0  0  0  0  0  0  0  0
   39.2260   27.2420   39.8490 H   0  0  0  0  0  0  0  0  0  0  0  0
   32.1160   28.6440   37.0300 N   0  0  0  0  0  0  0  0  0  0  0  0
   31.5130   27.8290   36.7140 H   0  0  0  0  0  0  0  0  0  0  0  0
   30.5780   29.7920   39.1100 F   0  0  0  0  0  0  0  0  0  0  0  0
   30.6330   30.4450   37.9120 C   0  0  0  0  0  0  0  0  0  0  0  0
   31.3950   29.8530   36.8970 C   0  0  0  0  0  0  0  0  0  0  0  0
   31.3970   30.5750   35.7210 C   0  0  0  0  0  0  0  0  0  0  0  0
   31.9330   30.2740   34.8470 H   0  0  0  0  0  0  0  0  0  0  0  0
   30.7350   31.7610   35.5140 C   0  0  0  0  0  0  0  0  0  0  0  0
   30.7310   32.3290   34.6010 H   0  0  0  0  0  0  0  0  0  0  0  0
   29.9950   32.3050   36.5440 C   0  0  0  0  0  3  0  0  0  0  0  0
   29.9610   31.6240   37.7350 C   0  0  0  0  0  3  0  0  0  0  0  0
  1  2  1  0  0  0  0
  1 15  1  0  0  0  0
  2  7  1  0  0  0  0
  3  8  1  1  0  0  0
  3  2  1  0  0  0  0
  4  5  1  0  0  0  0
  4  3  1  0  0  0  0
  5  1  1  0  0  0  0
  6  2  1  0  0  0  0
  9  4  1  0  0  0  0
 10  4  1  0  0  0  0
 11  5  1  0  0  0  0
 12  5  1  0  0  0  0
 13 19  1  0  0  0  0
 14 20  1  0  0  0  0
 14 13  2  0  0  0  0
 15 14  1  0  0  0  0
 16 15  2  0  0  0  0
 16 17  1  0  0  0  0
 17 18  2  0  0  0  0
 18 13  1  0  0  0  0
 21 17  1  0  0  0  0
 22  3  1  0  0  0  0
 23 22  1  0  0  0  0
 25 24  1  0  0  0  0
 26 22  1  0  0  0  0
 26 25  2  0  0  0  0
 27 26  1  0  0  0  0
 28 27  1  0  0  0  0
 29 27  2  0  0  0  0
 29 31  1  0  0  0  0
 30 29  1  0  0  0  0
 31 32  2  0  0  0  0
 32 25  1  0  0  0  0
M  END
>  <minimizedAffinity>
-4.91023016

$$$$

 OpenBabel03242519043D

 32 34  0  0  1  0  0  0  0  0999 V2000
   37.8170   30.4620   40.7040 N   0  0  0  0  0  0  0  0  0  0  0  0
   38.8800   30.9090   39.8240 C   0  0  0  0  0  0  0  0  0  0  0  0
   38.7930   32.3800   40.0810 C   0  0  2  0  0  0  0  0  0  0  0  0
   37.3050   32.6300   39.9340 C   0  0  0  0  0  0  0  0  0  0  0  0
   36.7050   31.3690   40.5000 C   0  0  0  0  0  0  0  0  0  0  0  0
   38.6940   30.6380   38.7720 H   0  0  0  0  0  0  0  0  0  0  0  0
   39.8080   30.4770   40.2220 H   0  0  0  0  0  0  0  0  0  0  0  0
   39.1200   32.5710   41.1260 H   0  0  0  0  0  0  0  0  0  0  0  0
   37.0360   33.5460   40.5050 H   0  0  0  0  0  0  0  0  0  0  0  0
   37.0660   32.7430   38.8600 H   0  0  0  0  0  0  0  0  0  0  0  0
   36.2830   31.6480   41.4960 H   0  0  0  0  0  0  0  0  0  0  0  0
   35.9170   30.9460   39.8370 H   0  0  0  0  0  0  0  0  0  0  0  0
   36.7540   27.5340   42.7470 C   0  0  0  0  0  0  0  0  0  0  0  0
   36.6550   28.5680   41.8250 C   0  0  0  0  0  0  0  0  0  0  0  0
   37.7760   29.3830   41.6060 C   0  0  0  0  0  0  0  0  0  0  0  0
   38.9240   29.1150   42.3180 N   0  0  0  0  0  0  0  0  0  0  0  0
   38.9790   28.0900   43.2130 C   0  0  0  0  0  0  0  0  0  0  0  0
   37.8800   27.2960   43.4250 N   0  0  0  0  0  0  0  0  0  0  0  0
   35.8790   26.9220   42.8970 H   0  0  0  0  0  0  0  0  0  0  0  0
   35.7660   28.7920   41.2600 H   0  0  0  0  0  0  0  0  0  0  0  0
   39.9240   27.9560   43.7270 H   0  0  0  0  0  0  0  0  0  0  0  0
   39.4790   33.1790   39.1180 N   0  0  0  0  0  0  0  0  0  0  0  0
   38.8960   33.7500   38.4380 H   0  0  0  0  0  0  0  0  0  0  0  0
   41.3080   34.1610   41.0410 F   0  0  0  0  0  0  0  0  0  0  0  0
   41.7800   33.8600   39.7940 C   0  0  0  0  0  0  0  0  0  0  0  0
   40.8530   33.3820   38.8600 C   0  0  0  0  0  0  0  0  0  0  0  0
   41.4100   33.1050   37.6280 C   0  0  0  0  0  0  0  0  0  0  0  0
   40.8500   32.7240   36.8020 H   0  0  0  0  0  0  0  0  0  0  0  0
   42.7350   33.2630   37.3000 C   0  0  0  0  0  0  0  0  0  0  0  0
   43.1770   33.0490   36.3430 H   0  0  0  0  0  0  0  0  0  0  0  0
   43.6110   33.7390   38.2550 C   0  0  0  0  0  3  0  0  0  0  0  0
   43.1050   34.0300   39.4970 C   0  0  0  0  0  3  0  0  0  0  0  0
  1 15  1  0  0  0  0
  2  3  1  0  0  0  0
  2  7  1  0  0  0  0
  2  1  1  0  0  0  0
  3  8  1  1  0  0  0
  4  3  1  0  0  0  0
  4  5  1  0  0  0  0
  4  9  1  0  0  0  0
  5  1  1  0  0  0  0
  5 11  1  0  0  0  0
  6  2  1  0  0  0  0
 10  4  1  0  0  0  0
 12  5  1  0  0  0  0
 13 19  1  0  0  0  0
 13 18  1  0  0  0  0
 14 13  2  0  0  0  0
 15 14  1  0  0  0  0
 15 16  2  0  0  0  0
 16 17  1  0  0  0  0
 17 18  2  0  0  0  0
 17 21  1  0  0  0  0
 20 14  1  0  0  0  0
 22  3  1  0  0  0  0
 23 22  1  0  0  0  0
 25 24  1  0  0  0  0
 26 22  1  0  0  0  0
 26 25  2  0  0  0  0
 27 26  1  0  0  0  0
 28 27  1  0  0  0  0
 29 27  2  0  0  0  0
 29 31  1  0  0  0  0
 30 29  1  0  0  0  0
 31 32  2  0  0  0  0
 32 25  1  0  0  0  0
M  END
>  <minimizedAffinity>
-4.8216033

$$$$

 OpenBabel03242519043D

 32 34  0  0  1  0  0  0  0  0999 V2000
   35.3800   28.9150   38.6840 N   0  0  0  0  0  0  0  0  0  0  0  0
   35.8090   28.5120   40.0100 C   0  0  0  0  0  0  0  0  0  0  0  0
   35.8020   29.8520   40.6750 C   0  0  2  0  0  0  0  0  0  0  0  0
   36.5660   30.6950   39.6740 C   0  0  0  0  0  0  0  0  0  0  0  0
   36.1290   30.1110   38.3550 C   0  0  0  0  0  0  0  0  0  0  0  0
   36.8020   28.0330   40.0020 H   0  0  0  0  0  0  0  0  0  0  0  0
   35.0190   27.8560   40.4010 H   0  0  0  0  0  0  0  0  0  0  0  0
   34.7490   30.1960   40.7540 H   0  0  0  0  0  0  0  0  0  0  0  0
   36.2760   31.7610   39.8050 H   0  0  0  0  0  0  0  0  0  0  0  0
   37.6510   30.5520   39.8390 H   0  0  0  0  0  0  0  0  0  0  0  0
   35.4330   30.8570   37.9020 H   0  0  0  0  0  0  0  0  0  0  0  0
   36.9920   29.9090   37.6800 H   0  0  0  0  0  0  0  0  0  0  0  0
   32.5240   28.3240   36.3670 C   0  0  0  0  0  0  0  0  0  0  0  0
   33.3840   29.0250   37.2030 C   0  0  0  0  0  0  0  0  0  0  0  0
   34.4380   28.3320   37.8170 C   0  0  0  0  0  0  0  0  0  0  0  0
   34.5710   26.9860   37.5570 N   0  0  0  0  0  0  0  0  0  0  0  0
   33.7060   26.3370   36.7290 C   0  0  0  0  0  0  0  0  0  0  0  0
   32.6750   27.0180   36.1320 N   0  0  0  0  0  0  0  0  0  0  0  0
   31.7220   28.8780   35.9080 H   0  0  0  0  0  0  0  0  0  0  0  0
   33.2940   30.0760   37.4180 H   0  0  0  0  0  0  0  0  0  0  0  0
   33.8890   25.2780   36.5850 H   0  0  0  0  0  0  0  0  0  0  0  0
   36.5040   29.8860   41.9170 N   0  0  0  0  0  0  0  0  0  0  0  0
   36.2010   30.5990   42.6430 H   0  0  0  0  0  0  0  0  0  0  0  0
   39.2220   30.5760   41.5270 F   0  0  0  0  0  0  0  0  0  0  0  0
   38.9380   29.4480   42.2440 C   0  0  0  0  0  0  0  0  0  0  0  0
   37.5860   29.1260   42.4170 C   0  0  0  0  0  0  0  0  0  0  0  0
   37.3880   27.9740   43.1500 C   0  0  0  0  0  0  0  0  0  0  0  0
   36.4200   27.5860   43.3840 H   0  0  0  0  0  0  0  0  0  0  0  0
   38.3810   27.1860   43.6800 C   0  0  0  0  0  0  0  0  0  0  0  0
   38.2350   26.2870   44.2520 H   0  0  0  0  0  0  0  0  0  0  0  0
   39.6990   27.5440   43.4820 C   0  0  0  0  0  3  0  0  0  0  0  0
   39.9490   28.6830   42.7580 C   0  0  0  0  0  3  0  0  0  0  0  0
  1  2  1  0  0  0  0
  2  7  1  0  0  0  0
  2  3  1  0  0  0  0
  3  8  1  1  0  0  0
  3 22  1  0  0  0  0
  4  9  1  0  0  0  0
  4 10  1  0  0  0  0
  4  3  1  0  0  0  0
  5  1  1  0  0  0  0
  5  4  1  0  0  0  0
  6  2  1  0  0  0  0
 11  5  1  0  0  0  0
 12  5  1  0  0  0  0
 13 14  1  0  0  0  0
 14 20  1  0  0  0  0
 14 15  2  0  0  0  0
 15  1  1  0  0  0  0
 16 15  1  0  0  0  0
 17 16  2  0  0  0  0
 18 13  2  0  0  0  0
 18 17  1  0  0  0  0
 19 13  1  0  0  0  0
 21 17  1  0  0  0  0
 22 26  1  0  0  0  0
 22 23  1  0  0  0  0
 24 25  1  0  0  0  0
 25 26  2  0  0  0  0
 25 32  1  0  0  0  0
 26 27  1  0  0  0  0
 27 28  1  0  0  0  0
 27 29  2  0  0  0  0
 29 30  1  0  0  0  0
 31 29  1  0  0  0  0
 32 31  2  0  0  0  0
M  END
>  <minimizedAffinity>
-4.82026196

$$$$

 OpenBabel03242519043D

 32 34  0  0  1  0  0  0  0  0999 V2000
   39.5320   30.8850   40.8570 N   0  0  0  0  0  0  0  0  0  0  0  0
   38.4820   29.9520   40.4940 C   0  0  0  0  0  0  0  0  0  0  0  0
   37.6590   30.0290   41.7410 C   0  0  2  0  0  0  0  0  0  0  0  0
   38.7150   29.8600   42.8150 C   0  0  0  0  0  0  0  0  0  0  0  0
   39.9000   30.5780   42.2240 C   0  0  0  0  0  0  0  0  0  0  0  0
   38.8720   28.9410   40.2900 H   0  0  0  0  0  0  0  0  0  0  0  0
   37.9640   30.3950   39.6320 H   0  0  0  0  0  0  0  0  0  0  0  0
   37.2050   31.0420   41.7960 H   0  0  0  0  0  0  0  0  0  0  0  0
   38.3440   30.3170   43.7590 H   0  0  0  0  0  0  0  0  0  0  0  0
   38.9220   28.7810   42.9470 H   0  0  0  0  0  0  0  0  0  0  0  0
   39.9970   31.5350   42.7930 H   0  0  0  0  0  0  0  0  0  0  0  0
   40.8340   29.9750   42.2960 H   0  0  0  0  0  0  0  0  0  0  0  0
   40.9920   32.9370   38.1130 C   0  0  0  0  0  0  0  0  0  0  0  0
   40.3890   31.8480   38.7290 C   0  0  0  0  0  0  0  0  0  0  0  0
   40.1350   31.9110   40.1070 C   0  0  0  0  0  0  0  0  0  0  0  0
   40.4960   33.0550   40.7830 N   0  0  0  0  0  0  0  0  0  0  0  0
   41.0850   34.1010   40.1410 C   0  0  0  0  0  0  0  0  0  0  0  0
   41.3330   34.0350   38.7920 N   0  0  0  0  0  0  0  0  0  0  0  0
   41.1770   32.8640   37.0530 H   0  0  0  0  0  0  0  0  0  0  0  0
   40.1010   30.9460   38.2160 H   0  0  0  0  0  0  0  0  0  0  0  0
   41.3340   34.9590   40.7550 H   0  0  0  0  0  0  0  0  0  0  0  0
   36.7100   28.9720   41.8760 N   0  0  0  0  0  0  0  0  0  0  0  0
   35.7590   29.2050   42.2870 H   0  0  0  0  0  0  0  0  0  0  0  0
   36.2830   27.9390   39.2760 F   0  0  0  0  0  0  0  0  0  0  0  0
   36.5710   27.0600   40.2810 C   0  0  0  0  0  0  0  0  0  0  0  0
   36.7710   27.5960   41.5590 C   0  0  0  0  0  0  0  0  0  0  0  0
   37.0550   26.6430   42.5150 C   0  0  0  0  0  0  0  0  0  0  0  0
   37.2440   26.8760   43.5410 H   0  0  0  0  0  0  0  0  0  0  0  0
   37.1440   25.2900   42.2880 C   0  0  0  0  0  0  0  0  0  0  0  0
   37.3650   24.5410   43.0270 H   0  0  0  0  0  0  0  0  0  0  0  0
   36.9380   24.8080   41.0110 C   0  0  0  0  0  3  0  0  0  0  0  0
   36.6520   25.7180   40.0240 C   0  0  0  0  0  3  0  0  0  0  0  0
  1  5  1  0  0  0  0
  2  1  1  0  0  0  0
  2  3  1  0  0  0  0
  3  8  1  1  0  0  0
  3 22  1  0  0  0  0
  3  4  1  0  0  0  0
  4 10  1  0  0  0  0
  4  9  1  0  0  0  0
  5 12  1  0  0  0  0
  5 11  1  0  0  0  0
  5  4  1  0  0  0  0
  6  2  1  0  0  0  0
  7  2  1  0  0  0  0
 13 14  2  0  0  0  0
 13 18  1  0  0  0  0
 14 15  1  0  0  0  0
 15 16  2  0  0  0  0
 15  1  1  0  0  0  0
 17 21  1  0  0  0  0
 17 16  1  0  0  0  0
 18 17  2  0  0  0  0
 19 13  1  0  0  0  0
 20 14  1  0  0  0  0
 22 23  1  0  0  0  0
 24 25  1  0  0  0  0
 25 26  1  0  0  0  0
 26 22  1  0  0  0  0
 26 27  2  0  0  0  0
 27 28  1  0  0  0  0
 29 27  1  0  0  0  0
 29 30  1  0  0  0  0
 31 29  2  0  0  0  0
 32 25  2  0  0  0  0
 32 31  1  0  0  0  0
M  END
>  <minimizedAffinity>
-4.8045001

$$$$

 OpenBabel03242519043D

 32 34  0  0  1  0  0  0  0  0999 V2000
   37.7640   29.0850   41.5180 N   0  0  0  0  0  0  0  0  0  0  0  0
   37.9050   27.6780   41.1950 C   0  0  0  0  0  0  0  0  0  0  0  0
   36.9870   27.1080   42.2300 C   0  0  2  0  0  0  0  0  0  0  0  0
   37.4580   27.8210   43.4820 C   0  0  0  0  0  0  0  0  0  0  0  0
   37.8290   29.1850   42.9620 C   0  0  0  0  0  0  0  0  0  0  0  0
   38.9450   27.3270   41.2940 H   0  0  0  0  0  0  0  0  0  0  0  0
   37.5040   27.5560   40.1790 H   0  0  0  0  0  0  0  0  0  0  0  0
   35.9470   27.4090   41.9770 H   0  0  0  0  0  0  0  0  0  0  0  0
   36.6250   27.8380   44.2210 H   0  0  0  0  0  0  0  0  0  0  0  0
   38.3400   27.2890   43.8860 H   0  0  0  0  0  0  0  0  0  0  0  0
   37.0250   29.8780   43.3100 H   0  0  0  0  0  0  0  0  0  0  0  0
   38.8270   29.5150   43.3280 H   0  0  0  0  0  0  0  0  0  0  0  0
   37.7660   32.5150   40.0640 C   0  0  0  0  0  0  0  0  0  0  0  0
   37.9930   31.5060   40.9920 C   0  0  0  0  0  0  0  0  0  0  0  0
   37.5960   30.1990   40.6750 C   0  0  0  0  0  0  0  0  0  0  0  0
   36.9990   29.9790   39.4530 N   0  0  0  0  0  0  0  0  0  0  0  0
   36.7950   30.9960   38.5710 C   0  0  0  0  0  0  0  0  0  0  0  0
   37.1840   32.2740   38.8860 N   0  0  0  0  0  0  0  0  0  0  0  0
   38.0800   33.5110   40.3310 H   0  0  0  0  0  0  0  0  0  0  0  0
   38.4570   31.6610   41.9510 H   0  0  0  0  0  0  0  0  0  0  0  0
   36.3180   30.7270   37.6360 H   0  0  0  0  0  0  0  0  0  0  0  0
   37.1390   25.7040   42.4300 N   0  0  0  0  0  0  0  0  0  0  0  0
   37.1780   25.3430   43.4280 H   0  0  0  0  0  0  0  0  0  0  0  0
   39.4820   24.1430   42.1440 F   0  0  0  0  0  0  0  0  0  0  0  0
   38.4000   23.8320   41.3690 C   0  0  0  0  0  0  0  0  0  0  0  0
   37.2560   24.6240   41.5250 C   0  0  0  0  0  0  0  0  0  0  0  0
   36.2120   24.2440   40.7080 C   0  0  0  0  0  0  0  0  0  0  0  0
   35.2610   24.7330   40.7020 H   0  0  0  0  0  0  0  0  0  0  0  0
   36.2400   23.2020   39.8120 C   0  0  0  0  0  0  0  0  0  0  0  0
   35.4310   22.9000   39.1710 H   0  0  0  0  0  0  0  0  0  0  0  0
   37.3910   22.4510   39.6920 C   0  0  0  0  0  3  0  0  0  0  0  0
   38.4590   22.7890   40.4860 C   0  0  0  0  0  3  0  0  0  0  0  0
  1  5  1  0  0  0  0
  2  6  1  0  0  0  0
  2  1  1  0  0  0  0
  2  3  1  0  0  0  0
  3  8  1  6  0  0  0
  3 22  1  0  0  0  0
  3  4  1  0  0  0  0
  4 10  1  0  0  0  0
  4  9  1  0  0  0  0
  5 11  1  0  0  0  0
  5 12  1  0  0  0  0
  5  4  1  0  0  0  0
  7  2  1  0  0  0  0
 13 19  1  0  0  0  0
 13 14  1  0  0  0  0
 14 20  1  0  0  0  0
 15 14  2  0  0  0  0
 15  1  1  0  0  0  0
 16 15  1  0  0  0  0
 17 18  1  0  0  0  0
 17 16  2  0  0  0  0
 18 13  2  0  0  0  0
 21 17  1  0  0  0  0
 22 23  1  0  0  0  0
 25 26  1  0  0  0  0
 25 24  1  0  0  0  0
 26 22  1  0  0  0  0
 27 26  2  0  0  0  0
 28 27  1  0  0  0  0
 29 27  1  0  0  0  0
 30 29  1  0  0  0  0
 31 29  2  0  0  0  0
 31 32  1  0  0  0  0
 32 25  2  0  0  0  0
M  END
>  <minimizedAffinity>
-4.79664946

$$$$
