
 OpenBabel03252508073D

 44 47  0  0  0  0  0  0  0  0999 V2000
   45.2410   35.7870   43.0020 C   0  0  0  0  0  0  0  0  0  0  0  0
   45.5290   34.4310   43.0630 C   0  0  0  0  0  0  0  0  0  0  0  0
   45.3320   33.7440   44.2360 C   0  0  0  0  0  0  0  0  0  0  0  0
   44.8420   34.4620   45.3120 N   0  0  0  0  0  0  0  0  0  0  0  0
   44.5690   35.7620   45.2420 C   0  0  0  0  0  0  0  0  0  0  0  0
   44.7740   36.4140   44.0760 N   0  0  0  0  0  0  0  0  0  0  0  0
   45.3900   36.3520   42.0840 H   0  0  0  0  0  0  0  0  0  0  0  0
   44.1860   36.2590   46.1320 H   0  0  0  0  0  0  0  0  0  0  0  0
   45.5760   32.3700   44.4620 C   0  0  0  0  0  0  0  0  0  0  0  0
   45.1460   31.3480   43.6100 C   0  0  0  0  0  0  0  0  0  0  0  0
   45.3250   30.0100   43.8620 C   0  0  0  0  0  0  0  0  0  0  0  0
   45.9660   29.6080   45.0210 C   0  0  0  0  0  0  0  0  0  0  0  0
   46.4080   30.6360   45.8920 C   0  0  0  0  0  0  0  0  0  0  0  0
   47.0430   30.2510   47.0470 C   0  0  0  0  0  0  0  0  0  0  0  0
   47.5040   31.1960   47.9440 C   0  0  0  0  0  0  0  0  0  0  0  0
   47.3170   32.5550   47.6640 C   0  0  0  0  0  0  0  0  0  0  0  0
   46.6600   32.9050   46.4680 C   0  0  0  0  0  0  0  0  0  0  0  0
   46.2110   31.9450   45.6010 C   0  0  0  0  0  0  0  0  0  0  0  0
   44.6420   31.6680   42.7000 H   0  0  0  0  0  0  0  0  0  0  0  0
   44.9530   29.2990   43.1340 H   0  0  0  0  0  0  0  0  0  0  0  0
   46.1040   28.5730   45.2200 H   0  0  0  0  0  0  0  0  0  0  0  0
   47.1780   29.1880   47.2420 H   0  0  0  0  0  0  0  0  0  0  0  0
   47.9870   30.8130   48.8200 H   0  0  0  0  0  0  0  0  0  0  0  0
   47.7090   33.2210   48.4160 H   0  0  0  0  0  0  0  0  0  0  0  0
   46.6370   33.9720   46.4270 H   0  0  0  0  0  0  0  0  0  0  0  0
   46.0010   33.8440   41.9300 O   0  0  0  0  0  0  0  0  0  0  0  0
   48.0560   32.2190   41.7220 O   0  0  0  0  0  0  0  0  0  0  0  0
   47.6400   33.6480   41.5530 P   0  0  1  0  0  0  0  0  0  0  0  0
   47.9720   34.0830   39.9600 O   0  0  0  0  0  0  0  0  0  0  0  0
   49.8870   32.2480   38.9400 F   0  0  0  0  0  0  0  0  0  0  0  0
   48.6550   32.2440   38.3830 C   0  0  0  0  0  0  0  0  0  0  0  0
   47.8030   33.1650   38.9440 C   0  0  0  0  0  0  0  0  0  0  0  0
   46.5020   33.2380   38.4350 C   0  0  0  0  0  0  0  0  0  0  0  0
   45.7020   33.9180   38.7730 H   0  0  0  0  0  0  0  0  0  0  0  0
   46.0760   32.4150   37.4020 C   0  0  0  0  0  0  0  0  0  0  0  0
   45.0820   32.4420   36.9840 H   0  0  0  0  0  0  0  0  0  0  0  0
   46.9410   31.4960   36.8500 C   0  0  0  0  0  3  0  0  0  0  0  0
   48.2220   31.4310   37.3580 C   0  0  0  0  0  3  0  0  0  0  0  0
   48.5320   34.6470   42.5690 O   0  0  0  0  0  0  0  0  0  0  0  0
   49.7410   35.2590   42.2750 C   0  0  0  0  0  0  0  0  0  0  0  0
   49.4220   36.3340   41.7300 O   0  0  0  0  0  0  0  0  0  0  0  0
   50.8490   34.4440   42.6970 N   0  0  0  0  0  0  0  0  0  0  0  0
   51.5410   33.9230   42.0990 H   0  0  0  0  0  0  0  0  0  0  0  0
   50.9620   34.3740   43.7380 H   0  0  0  0  0  0  0  0  0  0  0  0
  1  2  2  0  0  0  0
  1  6  1  0  0  0  0
  2  3  1  0  0  0  0
  3  9  1  0  0  0  0
  3  4  2  0  0  0  0
  5  4  1  0  0  0  0
  5  8  1  0  0  0  0
  6  5  2  0  0  0  0
  7  1  1  0  0  0  0
  9 18  1  0  0  0  0
 10 11  1  0  0  0  0
 10  9  2  0  0  0  0
 11 12  2  0  0  0  0
 12 21  1  0  0  0  0
 12 13  1  0  0  0  0
 13 14  1  0  0  0  0
 14 22  1  0  0  0  0
 14 15  2  0  0  0  0
 15 23  1  0  0  0  0
 16 15  1  0  0  0  0
 16 24  1  0  0  0  0
 17 16  2  0  0  0  0
 18 13  2  0  0  0  0
 18 17  1  0  0  0  0
 19 10  1  0  0  0  0
 20 11  1  0  0  0  0
 25 17  1  0  0  0  0
 26  2  1  0  0  0  0
 28 27  2  1  0  0  0
 28 26  1  0  0  0  0
 28 39  1  0  0  0  0
 29 28  1  0  0  0  0
 31 30  1  0  0  0  0
 31 32  1  0  0  0  0
 32 29  1  0  0  0  0
 33 34  1  0  0  0  0
 33 32  2  0  0  0  0
 35 33  1  0  0  0  0
 36 35  1  0  0  0  0
 37 38  1  0  0  0  0
 37 35  2  0  0  0  0
 38 31  2  0  0  0  0
 40 39  1  0  0  0  0
 40 42  1  0  0  0  0
 41 40  2  0  0  0  0
 42 44  1  0  0  0  0
 43 42  1  0  0  0  0
M  END
>  <minimizedAffinity>
-6.00845432

>  <minimizedRMSD>
1.14004481

$$$$
