
 OpenBabel03242519033D

 32 34  0  0  1  0  0  0  0  0999 V2000
   46.5330   32.6500   43.5070 N   0  0  0  0  0  0  0  0  0  0  0  0
   46.7010   31.4160   44.2530 C   0  0  0  0  0  0  0  0  0  0  0  0
   45.9010   31.7660   45.4670 C   0  0  2  0  0  0  0  0  0  0  0  0
   46.4500   33.1360   45.8120 C   0  0  0  0  0  0  0  0  0  0  0  0
   46.7200   33.7310   44.4540 C   0  0  0  0  0  0  0  0  0  0  0  0
   47.7590   31.2010   44.4740 H   0  0  0  0  0  0  0  0  0  0  0  0
   46.2180   30.6300   43.6560 H   0  0  0  0  0  0  0  0  0  0  0  0
   44.8320   31.8370   45.1720 H   0  0  0  0  0  0  0  0  0  0  0  0
   45.6860   33.6940   46.3970 H   0  0  0  0  0  0  0  0  0  0  0  0
   47.3850   33.0120   46.3900 H   0  0  0  0  0  0  0  0  0  0  0  0
   45.9220   34.4950   44.2870 H   0  0  0  0  0  0  0  0  0  0  0  0
   47.7320   34.1900   44.3910 H   0  0  0  0  0  0  0  0  0  0  0  0
   44.9010   32.7410   40.1600 C   0  0  0  0  0  0  0  0  0  0  0  0
   45.0530   32.4740   41.5150 C   0  0  0  0  0  0  0  0  0  0  0  0
   46.2460   32.8570   42.1460 C   0  0  0  0  0  0  0  0  0  0  0  0
   47.2110   33.4830   41.3880 N   0  0  0  0  0  0  0  0  0  0  0  0
   47.0210   33.7260   40.0620 C   0  0  0  0  0  0  0  0  0  0  0  0
   45.8530   33.3490   39.4480 N   0  0  0  0  0  0  0  0  0  0  0  0
   43.9750   32.4370   39.6990 H   0  0  0  0  0  0  0  0  0  0  0  0
   44.3100   31.9860   42.1220 H   0  0  0  0  0  0  0  0  0  0  0  0
   47.8360   34.2230   39.5470 H   0  0  0  0  0  0  0  0  0  0  0  0
   46.1260   30.9010   46.5790 N   0  0  0  0  0  0  0  0  0  0  0  0
   45.3290   30.2730   46.8920 H   0  0  0  0  0  0  0  0  0  0  0  0
   46.4760   32.1330   49.1040 F   0  0  0  0  0  0  0  0  0  0  0  0
   47.4480   31.2820   48.6600 C   0  0  0  0  0  0  0  0  0  0  0  0
   47.2540   30.6910   47.4050 C   0  0  0  0  0  0  0  0  0  0  0  0
   48.2810   29.8480   47.0320 C   0  0  0  0  0  0  0  0  0  0  0  0
   48.2920   29.3080   46.1100 H   0  0  0  0  0  0  0  0  0  0  0  0
   49.4030   29.5810   47.7790 C   0  0  0  0  0  0  0  0  0  0  0  0
   50.2070   28.9260   47.4950 H   0  0  0  0  0  0  0  0  0  0  0  0
   49.5510   30.1890   49.0090 C   0  0  0  0  0  0  0  0  0  0  0  0
   48.5550   31.0370   49.4260 C   0  0  0  0  0  0  0  0  0  0  0  0
  1  2  1  0  0  0  0
  1  5  1  0  0  0  0
  2  6  1  0  0  0  0
  2  3  1  0  0  0  0
  3  8  1  6  0  0  0
  3  4  1  0  0  0  0
  3 22  1  0  0  0  0
  4 10  1  0  0  0  0
  4  9  1  0  0  0  0
  5  4  1  0  0  0  0
  7  2  1  0  0  0  0
 11  5  1  0  0  0  0
 12  5  1  0  0  0  0
 13 14  1  0  0  0  0
 14 20  1  0  0  0  0
 14 15  2  0  0  0  0
 15  1  1  0  0  0  0
 16 15  1  0  0  0  0
 17 16  2  0  0  0  0
 18 17  1  0  0  0  0
 18 13  2  0  0  0  0
 19 13  1  0  0  0  0
 21 17  1  0  0  0  0
 22 23  1  0  0  0  0
 22 26  1  0  0  0  0
 25 24  1  0  0  0  0
 25 32  1  0  0  0  0
 26 25  2  0  0  0  0
 27 26  1  0  0  0  0
 27 29  2  0  0  0  0
 28 27  1  0  0  0  0
 29 31  1  0  0  0  0
 30 29  1  0  0  0  0
 31 32  2  0  0  0  0
M  END
>  <minimizedAffinity>
-3.81604815

>  <minimizedRMSD>
8.49829483

$$$$
