
 OpenBabel03242521293D

 35 37  0  0  1  0  0  0  0  0999 V2000
   37.3230   29.6870   41.8370 C   0  0  1  0  0  0  0  0  0  0  0  0
   37.7900   28.4890   41.0450 C   0  0  2  0  0  0  0  0  0  0  0  0
   36.7510   27.8450   40.4050 O   0  0  0  0  0  0  0  0  0  0  0  0
   36.3420   28.6960   39.3890 C   0  0  0  0  0  0  0  0  0  0  0  0
   35.6060   29.8500   40.0000 C   0  0  2  0  0  0  0  0  0  0  0  0
   36.3210   30.5370   41.1330 C   0  0  2  0  0  0  0  0  0  0  0  0
   38.2510   30.3180   41.9910 H   0  0  0  0  0  0  0  0  0  0  0  0
   38.4820   28.9060   40.2690 H   0  0  0  0  0  0  0  0  0  0  0  0
   35.6160   28.1530   38.7540 H   0  0  0  0  0  0  0  0  0  0  0  0
   37.2020   29.0780   38.7820 H   0  0  0  0  0  0  0  0  0  0  0  0
   35.3880   30.6050   39.2140 H   0  0  0  0  0  0  0  0  0  0  0  0
   35.5190   30.7640   41.8780 H   0  0  0  0  0  0  0  0  0  0  0  0
   38.9200   25.2670   42.6900 C   0  0  0  0  0  0  0  0  0  0  0  0
   38.2440   26.1410   41.8280 C   0  0  0  0  0  0  0  0  0  0  0  0
   38.4910   27.5400   41.9250 C   0  0  0  0  0  0  0  0  0  0  0  0
   39.3770   27.9550   42.8590 N   0  0  0  0  0  0  0  0  0  0  0  0
   40.0150   27.0850   43.6800 C   0  0  0  0  0  0  0  0  0  0  0  0
   39.7920   25.7420   43.6010 N   0  0  0  0  0  0  0  0  0  0  0  0
   38.6430   24.2400   42.5120 H   0  0  0  0  0  0  0  0  0  0  0  0
   37.5280   25.8080   41.0740 H   0  0  0  0  0  0  0  0  0  0  0  0
   40.7250   27.4070   44.4310 H   0  0  0  0  0  0  0  0  0  0  0  0
   36.9150   29.3330   43.1300 O   0  0  0  0  0  0  0  0  0  0  0  0
   37.0090   30.0640   43.7690 H   0  0  0  0  0  0  0  0  0  0  0  0
   34.3720   29.3220   40.4190 O   0  0  0  0  0  0  0  0  0  0  0  0
   34.1300   28.4910   39.9620 H   0  0  0  0  0  0  0  0  0  0  0  0
   36.8540   31.7630   40.7320 O   0  0  0  0  0  0  0  0  0  0  0  0
   37.4130   31.7920   38.1040 F   0  0  0  0  0  0  0  0  0  0  0  0
   38.3590   32.0160   39.0560 C   0  0  0  0  0  0  0  0  0  0  0  0
   38.1810   32.0260   40.4470 C   0  0  0  0  0  0  0  0  0  0  0  0
   39.2790   32.2740   41.2340 C   0  0  0  0  0  0  0  0  0  0  0  0
   39.0320   32.2580   42.2730 H   0  0  0  0  0  0  0  0  0  0  0  0
   40.5010   32.5050   40.6650 C   0  0  0  0  0  0  0  0  0  0  0  0
   41.2860   32.6890   41.3870 H   0  0  0  0  0  0  0  0  0  0  0  0
   40.7070   32.5030   39.2960 C   0  0  0  0  0  3  0  0  0  0  0  0
   39.6130   32.2540   38.4950 C   0  0  0  0  0  3  0  0  0  0  0  0
  1  7  1  1  0  0  0
  1 22  1  0  0  0  0
  2  8  1  6  0  0  0
  2  1  1  0  0  0  0
  2 15  1  0  0  0  0
  3  2  1  0  0  0  0
  4  5  1  0  0  0  0
  4  3  1  0  0  0  0
  5 11  1  6  0  0  0
  5 24  1  0  0  0  0
  5  6  1  0  0  0  0
  6  1  1  0  0  0  0
  6 12  1  1  0  0  0
  9  4  1  0  0  0  0
 10  4  1  0  0  0  0
 13 18  1  0  0  0  0
 14 15  1  0  0  0  0
 14 13  2  0  0  0  0
 15 16  2  0  0  0  0
 16 17  1  0  0  0  0
 17 21  1  0  0  0  0
 18 17  2  0  0  0  0
 19 13  1  0  0  0  0
 20 14  1  0  0  0  0
 22 23  1  0  0  0  0
 25 24  1  0  0  0  0
 26  6  1  0  0  0  0
 27 28  1  0  0  0  0
 28 29  1  0  0  0  0
 29 26  1  0  0  0  0
 29 30  2  0  0  0  0
 30 31  1  0  0  0  0
 32 30  1  0  0  0  0
 32 33  1  0  0  0  0
 34 32  2  0  0  0  0
 35 28  2  0  0  0  0
 35 34  1  0  0  0  0
M  END
>  <minimizedAffinity>
-5.94001293

$$$$

 OpenBabel03242521293D

 35 37  0  0  1  0  0  0  0  0999 V2000
   39.2390   31.8680   38.2700 C   0  0  1  0  0  0  0  0  0  0  0  0
   40.2080   32.5180   39.2280 C   0  0  2  0  0  0  0  0  0  0  0  0
   39.7410   33.7230   39.7120 O   0  0  0  0  0  0  0  0  0  0  0  0
   38.6910   33.4110   40.5630 C   0  0  0  0  0  0  0  0  0  0  0  0
   37.5170   32.9810   39.7360 C   0  0  2  0  0  0  0  0  0  0  0  0
   37.8130   31.9240   38.7060 C   0  0  2  0  0  0  0  0  0  0  0  0
   39.5390   30.7770   38.2430 H   0  0  0  0  0  0  0  0  0  0  0  0
   40.2960   31.8000   40.0840 H   0  0  0  0  0  0  0  0  0  0  0  0
   38.3880   34.3340   41.0930 H   0  0  0  0  0  0  0  0  0  0  0  0
   38.9570   32.5990   41.2870 H   0  0  0  0  0  0  0  0  0  0  0  0
   36.7140   32.6030   40.4050 H   0  0  0  0  0  0  0  0  0  0  0  0
   37.2200   32.2290   37.8080 H   0  0  0  0  0  0  0  0  0  0  0  0
   43.3740   34.1600   37.9440 C   0  0  0  0  0  0  0  0  0  0  0  0
   42.1400   33.9990   38.5900 C   0  0  0  0  0  0  0  0  0  0  0  0
   41.5100   32.7220   38.5730 C   0  0  0  0  0  0  0  0  0  0  0  0
   42.1460   31.7200   37.9240 N   0  0  0  0  0  0  0  0  0  0  0  0
   43.3390   31.9060   37.3080 C   0  0  0  0  0  0  0  0  0  0  0  0
   43.9580   33.1220   37.3150 N   0  0  0  0  0  0  0  0  0  0  0  0
   43.7390   35.1710   38.0330 H   0  0  0  0  0  0  0  0  0  0  0  0
   41.6250   34.8070   39.1140 H   0  0  0  0  0  0  0  0  0  0  0  0
   43.8560   31.1120   36.7860 H   0  0  0  0  0  0  0  0  0  0  0  0
   39.4180   32.3210   36.9570 O   0  0  0  0  0  0  0  0  0  0  0  0
   39.1350   31.6670   36.2910 H   0  0  0  0  0  0  0  0  0  0  0  0
   37.0340   34.1580   39.1380 O   0  0  0  0  0  0  0  0  0  0  0  0
   37.3100   34.9720   39.6060 H   0  0  0  0  0  0  0  0  0  0  0  0
   37.3290   30.6760   39.1000 O   0  0  0  0  0  0  0  0  0  0  0  0
   35.4700   29.9900   40.9150 F   0  0  0  0  0  0  0  0  0  0  0  0
   35.3410   29.7030   39.5910 C   0  0  0  0  0  0  0  0  0  0  0  0
   36.2420   30.0110   38.5620 C   0  0  0  0  0  0  0  0  0  0  0  0
   35.9160   29.6270   37.2850 C   0  0  0  0  0  0  0  0  0  0  0  0
   36.6680   29.9100   36.5820 H   0  0  0  0  0  0  0  0  0  0  0  0
   34.7440   28.9650   37.0390 C   0  0  0  0  0  0  0  0  0  0  0  0
   34.5990   28.7160   35.9960 H   0  0  0  0  0  0  0  0  0  0  0  0
   33.8350   28.6470   38.0340 C   0  0  0  0  0  3  0  0  0  0  0  0
   34.1520   29.0280   39.3200 C   0  0  0  0  0  3  0  0  0  0  0  0
  1  7  1  6  0  0  0
  1  6  1  0  0  0  0
  1  2  1  0  0  0  0
  2  3  1  0  0  0  0
  2  8  1  1  0  0  0
  3  4  1  0  0  0  0
  4  9  1  0  0  0  0
  4 10  1  0  0  0  0
  5 11  1  1  0  0  0
  5  4  1  0  0  0  0
  6 12  1  6  0  0  0
  6 26  1  0  0  0  0
  6  5  1  0  0  0  0
 13 19  1  0  0  0  0
 13 14  1  0  0  0  0
 14 20  1  0  0  0  0
 15 14  2  0  0  0  0
 15  2  1  0  0  0  0
 16 15  1  0  0  0  0
 17 18  1  0  0  0  0
 17 16  2  0  0  0  0
 18 13  2  0  0  0  0
 21 17  1  0  0  0  0
 22  1  1  0  0  0  0
 23 22  1  0  0  0  0
 24 25  1  0  0  0  0
 24  5  1  0  0  0  0
 28 27  1  0  0  0  0
 29 26  1  0  0  0  0
 29 28  2  0  0  0  0
 30 29  1  0  0  0  0
 31 30  1  0  0  0  0
 32 30  2  0  0  0  0
 32 34  1  0  0  0  0
 33 32  1  0  0  0  0
 34 35  2  0  0  0  0
 35 28  1  0  0  0  0
M  END
>  <minimizedAffinity>
-5.91216135

$$$$

 OpenBabel03242521293D

 35 37  0  0  1  0  0  0  0  0999 V2000
   37.3230   29.8100   41.6020 C   0  0  1  0  0  0  0  0  0  0  0  0
   37.7640   28.5500   40.8980 C   0  0  2  0  0  0  0  0  0  0  0  0
   36.7020   27.8440   40.3700 O   0  0  0  0  0  0  0  0  0  0  0  0
   36.2350   28.5980   39.3040 C   0  0  0  0  0  0  0  0  0  0  0  0
   35.5170   29.7970   39.8450 C   0  0  2  0  0  0  0  0  0  0  0  0
   36.2790   30.5880   40.8760 C   0  0  2  0  0  0  0  0  0  0  0  0
   38.2500   30.4590   41.6530 H   0  0  0  0  0  0  0  0  0  0  0  0
   38.4130   28.9000   40.0550 H   0  0  0  0  0  0  0  0  0  0  0  0
   35.4850   27.9970   38.7560 H   0  0  0  0  0  0  0  0  0  0  0  0
   37.0600   28.9310   38.6240 H   0  0  0  0  0  0  0  0  0  0  0  0
   35.2520   30.4780   39.0070 H   0  0  0  0  0  0  0  0  0  0  0  0
   35.5110   30.8750   41.6370 H   0  0  0  0  0  0  0  0  0  0  0  0
   38.9700   25.5040   42.8040 C   0  0  0  0  0  0  0  0  0  0  0  0
   38.2420   26.2930   41.9020 C   0  0  0  0  0  0  0  0  0  0  0  0
   38.5170   27.6880   41.8230 C   0  0  0  0  0  0  0  0  0  0  0  0
   39.4800   28.1820   42.6340 N   0  0  0  0  0  0  0  0  0  0  0  0
   40.1670   27.3940   43.4960 C   0  0  0  0  0  0  0  0  0  0  0  0
   39.9180   26.0560   43.5860 N   0  0  0  0  0  0  0  0  0  0  0  0
   38.6650   24.4700   42.7640 H   0  0  0  0  0  0  0  0  0  0  0  0
   37.4650   25.8950   41.2470 H   0  0  0  0  0  0  0  0  0  0  0  0
   40.9390   27.7800   44.1500 H   0  0  0  0  0  0  0  0  0  0  0  0
   36.9820   29.5700   42.9400 O   0  0  0  0  0  0  0  0  0  0  0  0
   37.0990   30.3560   43.5060 H   0  0  0  0  0  0  0  0  0  0  0  0
   34.3100   29.3010   40.3700 O   0  0  0  0  0  0  0  0  0  0  0  0
   34.0560   28.4310   40.0010 H   0  0  0  0  0  0  0  0  0  0  0  0
   36.7780   31.7770   40.3410 O   0  0  0  0  0  0  0  0  0  0  0  0
   38.7050   33.2990   41.4300 F   0  0  0  0  0  0  0  0  0  0  0  0
   38.8350   32.7180   40.2060 C   0  0  0  0  0  0  0  0  0  0  0  0
   37.9010   31.9090   39.5450 C   0  0  0  0  0  0  0  0  0  0  0  0
   38.2350   31.4210   38.3060 C   0  0  0  0  0  0  0  0  0  0  0  0
   37.4550   30.8200   37.8930 H   0  0  0  0  0  0  0  0  0  0  0  0
   39.4470   31.7230   37.7470 C   0  0  0  0  0  0  0  0  0  0  0  0
   39.5940   31.2800   36.7700 H   0  0  0  0  0  0  0  0  0  0  0  0
   40.3900   32.5180   38.3760 C   0  0  0  0  0  3  0  0  0  0  0  0
   40.0650   33.0140   39.6210 C   0  0  0  0  0  3  0  0  0  0  0  0
  1  7  1  1  0  0  0
  1 22  1  0  0  0  0
  2  8  1  6  0  0  0
  2  1  1  0  0  0  0
  2 15  1  0  0  0  0
  3  2  1  0  0  0  0
  4  5  1  0  0  0  0
  4  3  1  0  0  0  0
  5 11  1  6  0  0  0
  5 24  1  0  0  0  0
  5  6  1  0  0  0  0
  6  1  1  0  0  0  0
  6 12  1  1  0  0  0
  9  4  1  0  0  0  0
 10  4  1  0  0  0  0
 13 18  1  0  0  0  0
 14 13  2  0  0  0  0
 15 14  1  0  0  0  0
 15 16  2  0  0  0  0
 16 17  1  0  0  0  0
 17 18  2  0  0  0  0
 17 21  1  0  0  0  0
 19 13  1  0  0  0  0
 20 14  1  0  0  0  0
 22 23  1  0  0  0  0
 25 24  1  0  0  0  0
 26  6  1  0  0  0  0
 28 27  1  0  0  0  0
 29 28  2  0  0  0  0
 29 26  1  0  0  0  0
 30 29  1  0  0  0  0
 31 30  1  0  0  0  0
 32 30  2  0  0  0  0
 32 34  1  0  0  0  0
 33 32  1  0  0  0  0
 34 35  2  0  0  0  0
 35 28  1  0  0  0  0
M  END
>  <minimizedAffinity>
-5.82072973

$$$$

 OpenBabel03242521293D

 35 37  0  0  1  0  0  0  0  0999 V2000
   38.0620   30.8580   38.9630 C   0  0  1  0  0  0  0  0  0  0  0  0
   39.4600   31.3590   39.2330 C   0  0  2  0  0  0  0  0  0  0  0  0
   39.5450   32.7360   39.1840 O   0  0  0  0  0  0  0  0  0  0  0  0
   38.8720   33.1990   40.3050 C   0  0  0  0  0  0  0  0  0  0  0  0
   37.4010   33.0130   40.0900 C   0  0  2  0  0  0  0  0  0  0  0  0
   36.9880   31.6340   39.6480 C   0  0  2  0  0  0  0  0  0  0  0  0
   38.0390   29.8080   39.3850 H   0  0  0  0  0  0  0  0  0  0  0  0
   39.6920   31.0260   40.2770 H   0  0  0  0  0  0  0  0  0  0  0  0
   39.0480   34.2890   40.3890 H   0  0  0  0  0  0  0  0  0  0  0  0
   39.1850   32.6670   41.2390 H   0  0  0  0  0  0  0  0  0  0  0  0
   36.8570   33.2560   41.0290 H   0  0  0  0  0  0  0  0  0  0  0  0
   36.1890   31.8080   38.8850 H   0  0  0  0  0  0  0  0  0  0  0  0
   42.2710   30.9930   36.7160 C   0  0  0  0  0  0  0  0  0  0  0  0
   41.3960   31.5810   37.6400 C   0  0  0  0  0  0  0  0  0  0  0  0
   40.4050   30.7740   38.2680 C   0  0  0  0  0  0  0  0  0  0  0  0
   40.3620   29.4640   37.9330 N   0  0  0  0  0  0  0  0  0  0  0  0
   41.2220   28.9230   37.0360 C   0  0  0  0  0  0  0  0  0  0  0  0
   42.1770   29.6810   36.4240 N   0  0  0  0  0  0  0  0  0  0  0  0
   42.9680   31.7120   36.3160 H   0  0  0  0  0  0  0  0  0  0  0  0
   41.4290   32.6390   37.9100 H   0  0  0  0  0  0  0  0  0  0  0  0
   41.1950   27.8770   36.7610 H   0  0  0  0  0  0  0  0  0  0  0  0
   37.8190   30.6980   37.5920 O   0  0  0  0  0  0  0  0  0  0  0  0
   37.1410   30.0220   37.4060 H   0  0  0  0  0  0  0  0  0  0  0  0
   37.0380   33.9850   39.1410 O   0  0  0  0  0  0  0  0  0  0  0  0
   37.6730   34.7280   39.0860 H   0  0  0  0  0  0  0  0  0  0  0  0
   36.3980   30.9180   40.6900 O   0  0  0  0  0  0  0  0  0  0  0  0
   35.1950   28.5150   40.7240 F   0  0  0  0  0  0  0  0  0  0  0  0
   36.3180   28.7830   41.4470 C   0  0  0  0  0  0  0  0  0  0  0  0
   37.0250   29.9910   41.5040 C   0  0  0  0  0  0  0  0  0  0  0  0
   38.1400   30.0470   42.3040 C   0  0  0  0  0  0  0  0  0  0  0  0
   38.6000   31.0100   42.2740 H   0  0  0  0  0  0  0  0  0  0  0  0
   38.5360   28.9480   43.0160 C   0  0  0  0  0  0  0  0  0  0  0  0
   39.4270   29.1150   43.6070 H   0  0  0  0  0  0  0  0  0  0  0  0
   37.8580   27.7410   42.9790 C   0  0  0  0  0  3  0  0  0  0  0  0
   36.7370   27.6740   42.1800 C   0  0  0  0  0  3  0  0  0  0  0  0
  1  2  1  0  0  0  0
  1  7  1  1  0  0  0
  1  6  1  0  0  0  0
  2  8  1  1  0  0  0
  3  2  1  0  0  0  0
  3  4  1  0  0  0  0
  4  9  1  0  0  0  0
  4 10  1  0  0  0  0
  5  4  1  0  0  0  0
  5 11  1  1  0  0  0
  6 12  1  6  0  0  0
  6  5  1  0  0  0  0
  6 26  1  0  0  0  0
 13 14  1  0  0  0  0
 14 20  1  0  0  0  0
 14 15  2  0  0  0  0
 15  2  1  0  0  0  0
 16 15  1  0  0  0  0
 17 16  2  0  0  0  0
 18 13  2  0  0  0  0
 18 17  1  0  0  0  0
 19 13  1  0  0  0  0
 21 17  1  0  0  0  0
 22  1  1  0  0  0  0
 23 22  1  0  0  0  0
 24  5  1  0  0  0  0
 25 24  1  0  0  0  0
 26 29  1  0  0  0  0
 27 28  1  0  0  0  0
 28 29  2  0  0  0  0
 28 35  1  0  0  0  0
 29 30  1  0  0  0  0
 30 32  2  0  0  0  0
 31 30  1  0  0  0  0
 32 33  1  0  0  0  0
 34 32  1  0  0  0  0
 35 34  2  0  0  0  0
M  END
>  <minimizedAffinity>
-5.78232956

$$$$

 OpenBabel03242521293D

 35 37  0  0  1  0  0  0  0  0999 V2000
   37.8030   30.2400   39.7900 C   0  0  1  0  0  0  0  0  0  0  0  0
   38.5000   30.6620   38.5190 C   0  0  2  0  0  0  0  0  0  0  0  0
   38.3040   31.9970   38.2300 O   0  0  0  0  0  0  0  0  0  0  0  0
   39.0280   32.7030   39.1790 C   0  0  0  0  0  0  0  0  0  0  0  0
   38.3140   32.6060   40.4940 C   0  0  2  0  0  0  0  0  0  0  0  0
   37.9360   31.2100   40.9150 C   0  0  2  0  0  0  0  0  0  0  0  0
   38.3220   29.2850   40.1070 H   0  0  0  0  0  0  0  0  0  0  0  0
   39.5890   30.4970   38.7160 H   0  0  0  0  0  0  0  0  0  0  0  0
   39.0260   33.7720   38.8920 H   0  0  0  0  0  0  0  0  0  0  0  0
   40.0730   32.3170   39.2910 H   0  0  0  0  0  0  0  0  0  0  0  0
   38.9470   33.0530   41.2910 H   0  0  0  0  0  0  0  0  0  0  0  0
   36.9180   31.3150   41.3640 H   0  0  0  0  0  0  0  0  0  0  0  0
   38.2160   27.8580   35.9840 C   0  0  0  0  0  0  0  0  0  0  0  0
   38.6770   28.6080   37.0750 C   0  0  0  0  0  0  0  0  0  0  0  0
   38.0360   29.8410   37.3890 C   0  0  0  0  0  0  0  0  0  0  0  0
   37.0030   30.2260   36.6050 N   0  0  0  0  0  0  0  0  0  0  0  0
   36.5800   29.4790   35.5560 C   0  0  0  0  0  0  0  0  0  0  0  0
   37.1810   28.2960   35.2400 N   0  0  0  0  0  0  0  0  0  0  0  0
   38.7860   26.9510   35.8570 H   0  0  0  0  0  0  0  0  0  0  0  0
   39.5100   28.2990   37.7080 H   0  0  0  0  0  0  0  0  0  0  0  0
   35.7560   29.7780   34.9220 H   0  0  0  0  0  0  0  0  0  0  0  0
   36.4730   29.8650   39.5590 O   0  0  0  0  0  0  0  0  0  0  0  0
   36.1420   29.2260   40.2170 H   0  0  0  0  0  0  0  0  0  0  0  0
   37.1790   33.4250   40.3610 O   0  0  0  0  0  0  0  0  0  0  0  0
   37.2630   34.0910   39.6490 H   0  0  0  0  0  0  0  0  0  0  0  0
   38.7740   30.7380   41.9270 O   0  0  0  0  0  0  0  0  0  0  0  0
   41.1490   29.4990   42.1370 F   0  0  0  0  0  0  0  0  0  0  0  0
   39.9910   28.9450   42.5920 C   0  0  0  0  0  0  0  0  0  0  0  0
   38.7050   29.4980   42.5350 C   0  0  0  0  0  0  0  0  0  0  0  0
   37.6670   28.7650   43.0560 C   0  0  0  0  0  0  0  0  0  0  0  0
   36.7340   29.2770   42.9610 H   0  0  0  0  0  0  0  0  0  0  0  0
   37.8960   27.5350   43.6100 C   0  0  0  0  0  0  0  0  0  0  0  0
   37.0020   27.0570   43.9860 H   0  0  0  0  0  0  0  0  0  0  0  0
   39.1560   26.9640   43.6800 C   0  0  0  0  0  3  0  0  0  0  0  0
   40.2060   27.6910   43.1600 C   0  0  0  0  0  3  0  0  0  0  0  0
  1  7  1  1  0  0  0
  1  6  1  0  0  0  0
  2  8  1  1  0  0  0
  2  1  1  0  0  0  0
  3  2  1  0  0  0  0
  3  4  1  0  0  0  0
  4 10  1  0  0  0  0
  4  5  1  0  0  0  0
  5  6  1  0  0  0  0
  5 11  1  1  0  0  0
  6 12  1  1  0  0  0
  6 26  1  0  0  0  0
  9  4  1  0  0  0  0
 13 14  1  0  0  0  0
 14 15  2  0  0  0  0
 14 20  1  0  0  0  0
 15  2  1  0  0  0  0
 16 15  1  0  0  0  0
 17 16  2  0  0  0  0
 18 17  1  0  0  0  0
 18 13  2  0  0  0  0
 19 13  1  0  0  0  0
 21 17  1  0  0  0  0
 22  1  1  0  0  0  0
 22 23  1  0  0  0  0
 24  5  1  0  0  0  0
 25 24  1  0  0  0  0
 26 29  1  0  0  0  0
 27 28  1  0  0  0  0
 28 35  1  0  0  0  0
 29 28  2  0  0  0  0
 29 30  1  0  0  0  0
 30 32  2  0  0  0  0
 31 30  1  0  0  0  0
 32 34  1  0  0  0  0
 32 33  1  0  0  0  0
 35 34  2  0  0  0  0
M  END
>  <minimizedAffinity>
-5.69933414

$$$$

 OpenBabel03242521293D

 35 37  0  0  1  0  0  0  0  0999 V2000
   39.2940   31.6970   38.1830 C   0  0  1  0  0  0  0  0  0  0  0  0
   40.1940   32.2920   39.2390 C   0  0  2  0  0  0  0  0  0  0  0  0
   39.6510   33.4200   39.8190 O   0  0  0  0  0  0  0  0  0  0  0  0
   38.5870   32.9780   40.5910 C   0  0  0  0  0  0  0  0  0  0  0  0
   37.4670   32.5800   39.6780 C   0  0  2  0  0  0  0  0  0  0  0  0
   37.8520   31.6460   38.5620 C   0  0  2  0  0  0  0  0  0  0  0  0
   39.6480   30.6290   38.0610 H   0  0  0  0  0  0  0  0  0  0  0  0
   40.2850   31.4970   40.0230 H   0  0  0  0  0  0  0  0  0  0  0  0
   38.2200   33.8290   41.1960 H   0  0  0  0  0  0  0  0  0  0  0  0
   38.8650   32.1110   41.2430 H   0  0  0  0  0  0  0  0  0  0  0  0
   36.6590   32.1010   40.2730 H   0  0  0  0  0  0  0  0  0  0  0  0
   37.2780   32.0110   37.6750 H   0  0  0  0  0  0  0  0  0  0  0  0
   43.7830   31.9900   38.0580 C   0  0  0  0  0  0  0  0  0  0  0  0
   42.5400   31.6400   38.6030 C   0  0  0  0  0  0  0  0  0  0  0  0
   41.5080   32.6190   38.6610 C   0  0  0  0  0  0  0  0  0  0  0  0
   41.7880   33.8520   38.1810 N   0  0  0  0  0  0  0  0  0  0  0  0
   43.0000   34.1610   37.6590 C   0  0  0  0  0  0  0  0  0  0  0  0
   44.0010   33.2370   37.5950 N   0  0  0  0  0  0  0  0  0  0  0  0
   44.4720   31.1600   38.0740 H   0  0  0  0  0  0  0  0  0  0  0  0
   42.3130   30.6450   38.9920 H   0  0  0  0  0  0  0  0  0  0  0  0
   43.2340   35.1440   37.2730 H   0  0  0  0  0  0  0  0  0  0  0  0
   39.4990   32.2860   36.9280 O   0  0  0  0  0  0  0  0  0  0  0  0
   39.2730   31.6900   36.1900 H   0  0  0  0  0  0  0  0  0  0  0  0
   36.9490   33.7880   39.1780 O   0  0  0  0  0  0  0  0  0  0  0  0
   37.1670   34.5630   39.7350 H   0  0  0  0  0  0  0  0  0  0  0  0
   37.4160   30.3440   38.8130 O   0  0  0  0  0  0  0  0  0  0  0  0
   35.1080   29.5130   39.9100 F   0  0  0  0  0  0  0  0  0  0  0  0
   36.3200   29.2550   40.4720 C   0  0  0  0  0  0  0  0  0  0  0  0
   37.5800   29.6370   39.9900 C   0  0  0  0  0  0  0  0  0  0  0  0
   38.6850   29.2720   40.7200 C   0  0  0  0  0  0  0  0  0  0  0  0
   39.5890   29.6130   40.2650 H   0  0  0  0  0  0  0  0  0  0  0  0
   38.5450   28.5570   41.8770 C   0  0  0  0  0  0  0  0  0  0  0  0
   39.4860   28.3290   42.3610 H   0  0  0  0  0  0  0  0  0  0  0  0
   37.3150   28.1660   42.3780 C   0  0  0  0  0  3  0  0  0  0  0  0
   36.1980   28.5270   41.6540 C   0  0  0  0  0  3  0  0  0  0  0  0
  1  7  1  6  0  0  0
  1  6  1  0  0  0  0
  1  2  1  0  0  0  0
  2  3  1  0  0  0  0
  2  8  1  1  0  0  0
  3  4  1  0  0  0  0
  4  9  1  0  0  0  0
  4 10  1  0  0  0  0
  5 11  1  1  0  0  0
  5  4  1  0  0  0  0
  6 12  1  6  0  0  0
  6 26  1  0  0  0  0
  6  5  1  0  0  0  0
 13 19  1  0  0  0  0
 13 14  1  0  0  0  0
 14 15  2  0  0  0  0
 14 20  1  0  0  0  0
 15  2  1  0  0  0  0
 16 15  1  0  0  0  0
 17 16  2  0  0  0  0
 18 17  1  0  0  0  0
 18 13  2  0  0  0  0
 21 17  1  0  0  0  0
 22  1  1  0  0  0  0
 23 22  1  0  0  0  0
 24  5  1  0  0  0  0
 24 25  1  0  0  0  0
 26 29  1  0  0  0  0
 27 28  1  0  0  0  0
 28 35  1  0  0  0  0
 29 28  2  0  0  0  0
 29 30  1  0  0  0  0
 30 32  2  0  0  0  0
 31 30  1  0  0  0  0
 32 33  1  0  0  0  0
 32 34  1  0  0  0  0
 35 34  2  0  0  0  0
M  END
>  <minimizedAffinity>
-5.68695831

$$$$

 OpenBabel03242521293D

 35 37  0  0  1  0  0  0  0  0999 V2000
   35.6590   29.2340   40.3280 C   0  0  1  0  0  0  0  0  0  0  0  0
   36.1780   29.1800   38.9120 C   0  0  2  0  0  0  0  0  0  0  0  0
   36.4920   30.4300   38.4190 O   0  0  0  0  0  0  0  0  0  0  0  0
   37.6270   30.8360   39.1060 C   0  0  0  0  0  0  0  0  0  0  0  0
   37.2360   31.1910   40.5080 C   0  0  2  0  0  0  0  0  0  0  0  0
   36.4170   30.1520   41.2270 C   0  0  2  0  0  0  0  0  0  0  0  0
   35.7920   28.1840   40.7310 H   0  0  0  0  0  0  0  0  0  0  0  0
   37.1170   28.5730   38.9700 H   0  0  0  0  0  0  0  0  0  0  0  0
   38.0050   31.7630   38.6340 H   0  0  0  0  0  0  0  0  0  0  0  0
   38.4180   30.0440   39.1260 H   0  0  0  0  0  0  0  0  0  0  0  0
   38.1510   31.3910   41.1070 H   0  0  0  0  0  0  0  0  0  0  0  0
   35.6540   30.7370   41.7980 H   0  0  0  0  0  0  0  0  0  0  0  0
   34.2530   26.5560   36.9680 C   0  0  0  0  0  0  0  0  0  0  0  0
   35.2040   27.1310   37.8230 C   0  0  0  0  0  0  0  0  0  0  0  0
   35.1870   28.5390   38.0320 C   0  0  0  0  0  0  0  0  0  0  0  0
   34.2410   29.2560   37.3830 N   0  0  0  0  0  0  0  0  0  0  0  0
   33.3350   28.6730   36.5620 C   0  0  0  0  0  0  0  0  0  0  0  0
   33.3350   27.3250   36.3500 N   0  0  0  0  0  0  0  0  0  0  0  0
   34.3760   25.4870   36.8980 H   0  0  0  0  0  0  0  0  0  0  0  0
   35.9680   26.5540   38.3470 H   0  0  0  0  0  0  0  0  0  0  0  0
   32.5740   29.2370   36.0380 H   0  0  0  0  0  0  0  0  0  0  0  0
   34.2760   29.4600   40.3720 O   0  0  0  0  0  0  0  0  0  0  0  0
   33.8600   29.0990   41.1770 H   0  0  0  0  0  0  0  0  0  0  0  0
   36.5390   32.4080   40.4020 O   0  0  0  0  0  0  0  0  0  0  0  0
   36.7360   32.8970   39.5770 H   0  0  0  0  0  0  0  0  0  0  0  0
   37.1800   29.4620   42.1690 O   0  0  0  0  0  0  0  0  0  0  0  0
   36.0070   27.3860   43.4080 F   0  0  0  0  0  0  0  0  0  0  0  0
   37.1350   27.2490   42.6600 C   0  0  0  0  0  0  0  0  0  0  0  0
   37.8280   28.2560   41.9740 C   0  0  0  0  0  0  0  0  0  0  0  0
   38.9550   27.8980   41.2740 C   0  0  0  0  0  0  0  0  0  0  0  0
   39.4030   28.7380   40.7900 H   0  0  0  0  0  0  0  0  0  0  0  0
   39.3750   26.5970   41.2560 C   0  0  0  0  0  0  0  0  0  0  0  0
   40.2720   26.4400   40.6710 H   0  0  0  0  0  0  0  0  0  0  0  0
   38.7110   25.5810   41.9240 C   0  0  0  0  0  3  0  0  0  0  0  0
   37.5790   25.9280   42.6300 C   0  0  0  0  0  3  0  0  0  0  0  0
  1 22  1  0  0  0  0
  1  7  1  1  0  0  0
  1  6  1  0  0  0  0
  2  8  1  6  0  0  0
  2  1  1  0  0  0  0
  3  2  1  0  0  0  0
  3  4  1  0  0  0  0
  4 10  1  0  0  0  0
  4  5  1  0  0  0  0
  5 11  1  1  0  0  0
  5  6  1  0  0  0  0
  6 12  1  1  0  0  0
  6 26  1  0  0  0  0
  9  4  1  0  0  0  0
 13 14  1  0  0  0  0
 14 15  2  0  0  0  0
 14 20  1  0  0  0  0
 15  2  1  0  0  0  0
 16 15  1  0  0  0  0
 17 16  2  0  0  0  0
 18 17  1  0  0  0  0
 18 13  2  0  0  0  0
 19 13  1  0  0  0  0
 21 17  1  0  0  0  0
 22 23  1  0  0  0  0
 24  5  1  0  0  0  0
 25 24  1  0  0  0  0
 28 27  1  0  0  0  0
 29 26  1  0  0  0  0
 29 28  2  0  0  0  0
 30 29  1  0  0  0  0
 31 30  1  0  0  0  0
 32 30  2  0  0  0  0
 32 34  1  0  0  0  0
 33 32  1  0  0  0  0
 34 35  2  0  0  0  0
 35 28  1  0  0  0  0
M  END
>  <minimizedAffinity>
-5.6679697

$$$$

 OpenBabel03242521293D

 35 37  0  0  1  0  0  0  0  0999 V2000
   37.4420   31.1050   38.7030 C   0  0  1  0  0  0  0  0  0  0  0  0
   38.6720   31.0240   39.5750 C   0  0  2  0  0  0  0  0  0  0  0  0
   38.3790   31.1900   40.9140 O   0  0  0  0  0  0  0  0  0  0  0  0
   37.7000   30.0440   41.3000 C   0  0  0  0  0  0  0  0  0  0  0  0
   36.3200   30.0870   40.7170 C   0  0  2  0  0  0  0  0  0  0  0  0
   36.2580   30.3740   39.2400 C   0  0  2  0  0  0  0  0  0  0  0  0
   37.7360   30.6020   37.7330 H   0  0  0  0  0  0  0  0  0  0  0  0
   39.0680   29.9880   39.4230 H   0  0  0  0  0  0  0  0  0  0  0  0
   37.5830   30.0650   42.4010 H   0  0  0  0  0  0  0  0  0  0  0  0
   38.2190   29.1090   40.9680 H   0  0  0  0  0  0  0  0  0  0  0  0
   35.8090   29.1180   40.9070 H   0  0  0  0  0  0  0  0  0  0  0  0
   35.3830   31.0590   39.1200 H   0  0  0  0  0  0  0  0  0  0  0  0
   41.4880   32.7550   37.7200 C   0  0  0  0  0  0  0  0  0  0  0  0
   40.5530   31.7750   38.0820 C   0  0  0  0  0  0  0  0  0  0  0  0
   39.6580   32.0340   39.1590 C   0  0  0  0  0  0  0  0  0  0  0  0
   39.7610   33.2300   39.7830 N   0  0  0  0  0  0  0  0  0  0  0  0
   40.6750   34.1580   39.4110 C   0  0  0  0  0  0  0  0  0  0  0  0
   41.5410   33.9280   38.3820 N   0  0  0  0  0  0  0  0  0  0  0  0
   42.1010   32.4330   36.8940 H   0  0  0  0  0  0  0  0  0  0  0  0
   40.4690   30.8090   37.5790 H   0  0  0  0  0  0  0  0  0  0  0  0
   40.7660   35.1170   39.9050 H   0  0  0  0  0  0  0  0  0  0  0  0
   37.1410   32.4250   38.3440 O   0  0  0  0  0  0  0  0  0  0  0  0
   36.6570   32.4850   37.5000 H   0  0  0  0  0  0  0  0  0  0  0  0
   35.6340   31.0660   41.4580 O   0  0  0  0  0  0  0  0  0  0  0  0
   36.0390   31.2460   42.3300 H   0  0  0  0  0  0  0  0  0  0  0  0
   35.9690   29.2220   38.5070 O   0  0  0  0  0  0  0  0  0  0  0  0
   33.3650   29.0750   39.1540 F   0  0  0  0  0  0  0  0  0  0  0  0
   33.8010   29.0660   37.8640 C   0  0  0  0  0  0  0  0  0  0  0  0
   35.1260   29.1370   37.4140 C   0  0  0  0  0  0  0  0  0  0  0  0
   35.3460   29.1110   36.0590 C   0  0  0  0  0  0  0  0  0  0  0  0
   36.3870   29.1710   35.8260 H   0  0  0  0  0  0  0  0  0  0  0  0
   34.2960   29.0190   35.1880 C   0  0  0  0  0  0  0  0  0  0  0  0
   34.5960   29.0080   34.1480 H   0  0  0  0  0  0  0  0  0  0  0  0
   32.9770   28.9470   35.6030 C   0  0  0  0  0  3  0  0  0  0  0  0
   32.7430   28.9720   36.9610 C   0  0  0  0  0  3  0  0  0  0  0  0
  1  7  1  6  0  0  0
  1  6  1  0  0  0  0
  1  2  1  0  0  0  0
  2  8  1  6  0  0  0
  2  3  1  0  0  0  0
  3  4  1  0  0  0  0
  4  9  1  0  0  0  0
  5 11  1  1  0  0  0
  5  4  1  0  0  0  0
  5 24  1  0  0  0  0
  6 12  1  6  0  0  0
  6  5  1  0  0  0  0
 10  4  1  0  0  0  0
 13 14  2  0  0  0  0
 13 18  1  0  0  0  0
 14 15  1  0  0  0  0
 15  2  1  0  0  0  0
 15 16  2  0  0  0  0
 17 16  1  0  0  0  0
 17 21  1  0  0  0  0
 18 17  2  0  0  0  0
 19 13  1  0  0  0  0
 20 14  1  0  0  0  0
 22  1  1  0  0  0  0
 23 22  1  0  0  0  0
 24 25  1  0  0  0  0
 26  6  1  0  0  0  0
 28 27  1  0  0  0  0
 29 28  1  0  0  0  0
 29 26  1  0  0  0  0
 30 29  2  0  0  0  0
 31 30  1  0  0  0  0
 32 34  2  0  0  0  0
 32 30  1  0  0  0  0
 33 32  1  0  0  0  0
 34 35  1  0  0  0  0
 35 28  2  0  0  0  0
M  END
>  <minimizedAffinity>
-5.62433624

$$$$

 OpenBabel03242521293D

 35 37  0  0  1  0  0  0  0  0999 V2000
   39.5400   31.4800   40.5590 C   0  0  1  0  0  0  0  0  0  0  0  0
   39.7620   32.9700   40.4580 C   0  0  2  0  0  0  0  0  0  0  0  0
   38.9960   33.5500   39.4680 O   0  0  0  0  0  0  0  0  0  0  0  0
   37.6870   33.5040   39.9230 C   0  0  0  0  0  0  0  0  0  0  0  0
   37.2020   32.0880   39.8410 C   0  0  2  0  0  0  0  0  0  0  0  0
   38.1110   31.0640   40.4680 C   0  0  2  0  0  0  0  0  0  0  0  0
   39.9070   31.1970   41.5920 H   0  0  0  0  0  0  0  0  0  0  0  0
   39.4350   33.3800   41.4480 H   0  0  0  0  0  0  0  0  0  0  0  0
   37.0590   34.0980   39.2310 H   0  0  0  0  0  0  0  0  0  0  0  0
   37.5880   33.8750   40.9750 H   0  0  0  0  0  0  0  0  0  0  0  0
   36.2040   32.0120   40.3240 H   0  0  0  0  0  0  0  0  0  0  0  0
   38.0790   30.1920   39.7690 H   0  0  0  0  0  0  0  0  0  0  0  0
   42.9610   34.1600   38.8090 C   0  0  0  0  0  0  0  0  0  0  0  0
   41.5970   33.9150   39.0180 C   0  0  0  0  0  0  0  0  0  0  0  0
   41.1850   33.2560   40.2110 C   0  0  0  0  0  0  0  0  0  0  0  0
   42.1480   32.8960   41.0900 N   0  0  0  0  0  0  0  0  0  0  0  0
   43.4600   33.1460   40.8610 C   0  0  0  0  0  0  0  0  0  0  0  0
   43.8730   33.7770   39.7240 N   0  0  0  0  0  0  0  0  0  0  0  0
   43.1360   34.6640   37.8720 H   0  0  0  0  0  0  0  0  0  0  0  0
   40.8190   34.2050   38.3090 H   0  0  0  0  0  0  0  0  0  0  0  0
   44.2380   32.8610   41.5580 H   0  0  0  0  0  0  0  0  0  0  0  0
   40.3650   30.7670   39.6790 O   0  0  0  0  0  0  0  0  0  0  0  0
   40.5550   29.8620   39.9900 H   0  0  0  0  0  0  0  0  0  0  0  0
   37.0170   31.8380   38.4700 O   0  0  0  0  0  0  0  0  0  0  0  0
   36.9140   32.6530   37.9380 H   0  0  0  0  0  0  0  0  0  0  0  0
   37.6090   30.6160   41.6910 O   0  0  0  0  0  0  0  0  0  0  0  0
   35.6420   28.8630   41.1650 F   0  0  0  0  0  0  0  0  0  0  0  0
   36.7310   28.5390   41.9150 C   0  0  0  0  0  0  0  0  0  0  0  0
   37.8100   29.3680   42.2510 C   0  0  0  0  0  0  0  0  0  0  0  0
   38.8130   28.8360   43.0250 C   0  0  0  0  0  0  0  0  0  0  0  0
   39.5830   29.5510   43.2200 H   0  0  0  0  0  0  0  0  0  0  0  0
   38.7470   27.5370   43.4470 C   0  0  0  0  0  0  0  0  0  0  0  0
   39.5940   27.2350   44.0490 H   0  0  0  0  0  0  0  0  0  0  0  0
   37.6940   26.6950   43.1320 C   0  0  0  0  0  3  0  0  0  0  0  0
   36.6810   27.2170   42.3550 C   0  0  0  0  0  3  0  0  0  0  0  0
  1  7  1  1  0  0  0
  2  1  1  0  0  0  0
  2  8  1  1  0  0  0
  3  4  1  0  0  0  0
  3  2  1  0  0  0  0
  4 10  1  0  0  0  0
  5  4  1  0  0  0  0
  5 11  1  1  0  0  0
  5  6  1  0  0  0  0
  6 12  1  6  0  0  0
  6  1  1  0  0  0  0
  6 26  1  0  0  0  0
  9  4  1  0  0  0  0
 13 14  2  0  0  0  0
 13 18  1  0  0  0  0
 14 15  1  0  0  0  0
 15  2  1  0  0  0  0
 15 16  2  0  0  0  0
 17 16  1  0  0  0  0
 17 21  1  0  0  0  0
 18 17  2  0  0  0  0
 19 13  1  0  0  0  0
 20 14  1  0  0  0  0
 22 23  1  0  0  0  0
 22  1  1  0  0  0  0
 24  5  1  0  0  0  0
 25 24  1  0  0  0  0
 26 29  1  0  0  0  0
 27 28  1  0  0  0  0
 28 29  2  0  0  0  0
 28 35  1  0  0  0  0
 29 30  1  0  0  0  0
 30 31  1  0  0  0  0
 30 32  2  0  0  0  0
 32 33  1  0  0  0  0
 34 32  1  0  0  0  0
 35 34  2  0  0  0  0
M  END
>  <minimizedAffinity>
-5.5137291

$$$$
