
 OpenBabel03252508073D

 44 47  0  0  0  0  0  0  0  0999 V2000
   45.9660   35.1690   42.3560 C   0  0  0  0  0  0  0  0  0  0  0  0
   46.0620   33.8260   42.6920 C   0  0  0  0  0  0  0  0  0  0  0  0
   45.5400   33.3820   43.8810 C   0  0  0  0  0  0  0  0  0  0  0  0
   44.9300   34.3220   44.6920 N   0  0  0  0  0  0  0  0  0  0  0  0
   44.8430   35.6080   44.3590 C   0  0  0  0  0  0  0  0  0  0  0  0
   45.3670   36.0180   43.1840 N   0  0  0  0  0  0  0  0  0  0  0  0
   46.3740   35.5440   41.4180 H   0  0  0  0  0  0  0  0  0  0  0  0
   44.3480   36.2880   45.0500 H   0  0  0  0  0  0  0  0  0  0  0  0
   45.5560   32.0550   44.3690 C   0  0  0  0  0  0  0  0  0  0  0  0
   44.9840   30.9680   43.7010 C   0  0  0  0  0  0  0  0  0  0  0  0
   44.9410   29.6910   44.2040 C   0  0  0  0  0  0  0  0  0  0  0  0
   45.4890   29.4230   45.4480 C   0  0  0  0  0  0  0  0  0  0  0  0
   46.0740   30.5180   46.1330 C   0  0  0  0  0  0  0  0  0  0  0  0
   46.6190   30.2660   47.3680 C   0  0  0  0  0  0  0  0  0  0  0  0
   47.2090   31.2820   48.0960 C   0  0  0  0  0  0  0  0  0  0  0  0
   47.2480   32.5740   47.5610 C   0  0  0  0  0  0  0  0  0  0  0  0
   46.6760   32.7880   46.2910 C   0  0  0  0  0  0  0  0  0  0  0  0
   46.0950   31.7620   45.5960 C   0  0  0  0  0  0  0  0  0  0  0  0
   44.5540   31.1830   42.7250 H   0  0  0  0  0  0  0  0  0  0  0  0
   44.4730   28.9200   43.6040 H   0  0  0  0  0  0  0  0  0  0  0  0
   45.4560   28.4360   45.8410 H   0  0  0  0  0  0  0  0  0  0  0  0
   46.5790   29.2520   47.7620 H   0  0  0  0  0  0  0  0  0  0  0  0
   47.6090   31.0020   49.0500 H   0  0  0  0  0  0  0  0  0  0  0  0
   47.7280   33.3040   48.1950 H   0  0  0  0  0  0  0  0  0  0  0  0
   46.8250   33.8180   46.0520 H   0  0  0  0  0  0  0  0  0  0  0  0
   46.6830   33.0050   41.8010 O   0  0  0  0  0  0  0  0  0  0  0  0
   48.3710   31.1150   42.4990 O   0  0  0  0  0  0  0  0  0  0  0  0
   48.2930   32.4940   41.9180 P   0  0  1  0  0  0  0  0  0  0  0  0
   49.0450   32.4460   40.4110 O   0  0  0  0  0  0  0  0  0  0  0  0
   47.5260   30.3430   39.2510 F   0  0  0  0  0  0  0  0  0  0  0  0
   47.5250   31.5400   38.6230 C   0  0  0  0  0  0  0  0  0  0  0  0
   48.2860   32.4890   39.2600 C   0  0  0  0  0  0  0  0  0  0  0  0
   48.3490   33.7620   38.6850 C   0  0  0  0  0  0  0  0  0  0  0  0
   48.9110   34.6290   39.0670 H   0  0  0  0  0  0  0  0  0  0  0  0
   47.6700   34.0680   37.5140 C   0  0  0  0  0  0  0  0  0  0  0  0
   47.6940   35.0380   37.0400 H   0  0  0  0  0  0  0  0  0  0  0  0
   46.9090   33.1050   36.8860 C   0  0  0  0  0  3  0  0  0  0  0  0
   46.8530   31.8520   37.4590 C   0  0  0  0  0  3  0  0  0  0  0  0
   49.1200   33.5910   42.8860 O   0  0  0  0  0  0  0  0  0  0  0  0
   50.1940   34.3820   42.5070 C   0  0  0  0  0  0  0  0  0  0  0  0
   49.7340   35.5410   42.4780 O   0  0  0  0  0  0  0  0  0  0  0  0
   51.3760   33.5860   42.3020 N   0  0  0  0  0  0  0  0  0  0  0  0
   51.8650   33.3650   41.3970 H   0  0  0  0  0  0  0  0  0  0  0  0
   51.7840   33.1850   43.1820 H   0  0  0  0  0  0  0  0  0  0  0  0
  1  2  2  0  0  0  0
  1  6  1  0  0  0  0
  2  3  1  0  0  0  0
  3  9  1  0  0  0  0
  3  4  2  0  0  0  0
  5  4  1  0  0  0  0
  5  8  1  0  0  0  0
  6  5  2  0  0  0  0
  7  1  1  0  0  0  0
  9 18  1  0  0  0  0
 10 11  1  0  0  0  0
 10  9  2  0  0  0  0
 11 12  2  0  0  0  0
 12 21  1  0  0  0  0
 12 13  1  0  0  0  0
 13 14  1  0  0  0  0
 14 22  1  0  0  0  0
 14 15  2  0  0  0  0
 15 23  1  0  0  0  0
 16 15  1  0  0  0  0
 16 24  1  0  0  0  0
 17 16  2  0  0  0  0
 18 13  2  0  0  0  0
 18 17  1  0  0  0  0
 19 10  1  0  0  0  0
 20 11  1  0  0  0  0
 25 17  1  0  0  0  0
 26 28  1  0  0  0  0
 26  2  1  0  0  0  0
 28 27  2  1  0  0  0
 28 39  1  0  0  0  0
 29 28  1  0  0  0  0
 31 30  1  0  0  0  0
 31 32  1  0  0  0  0
 32 29  1  0  0  0  0
 33 34  1  0  0  0  0
 33 32  2  0  0  0  0
 35 33  1  0  0  0  0
 36 35  1  0  0  0  0
 37 38  1  0  0  0  0
 37 35  2  0  0  0  0
 38 31  2  0  0  0  0
 40 39  1  0  0  0  0
 41 40  2  0  0  0  0
 42 40  1  0  0  0  0
 42 44  1  0  0  0  0
 43 42  1  0  0  0  0
M  END
>  <minimizedAffinity>
-5.78606939

>  <minimizedRMSD>
1.42382789

$$$$
