
 OpenBabel03252508073D

 44 47  0  0  0  0  0  0  0  0999 V2000
   45.2390   35.7890   43.0030 C   0  0  0  0  0  0  0  0  0  0  0  0
   45.5270   34.4330   43.0640 C   0  0  0  0  0  0  0  0  0  0  0  0
   45.3310   33.7460   44.2360 C   0  0  0  0  0  0  0  0  0  0  0  0
   44.8410   34.4630   45.3120 N   0  0  0  0  0  0  0  0  0  0  0  0
   44.5680   35.7630   45.2430 C   0  0  0  0  0  0  0  0  0  0  0  0
   44.7720   36.4160   44.0780 N   0  0  0  0  0  0  0  0  0  0  0  0
   45.3880   36.3550   42.0850 H   0  0  0  0  0  0  0  0  0  0  0  0
   44.1850   36.2600   46.1330 H   0  0  0  0  0  0  0  0  0  0  0  0
   45.5750   32.3720   44.4620 C   0  0  0  0  0  0  0  0  0  0  0  0
   45.1460   31.3500   43.6090 C   0  0  0  0  0  0  0  0  0  0  0  0
   45.3250   30.0120   43.8600 C   0  0  0  0  0  0  0  0  0  0  0  0
   45.9660   29.6090   45.0190 C   0  0  0  0  0  0  0  0  0  0  0  0
   46.4080   30.6370   45.8900 C   0  0  0  0  0  0  0  0  0  0  0  0
   47.0440   30.2520   47.0450 C   0  0  0  0  0  0  0  0  0  0  0  0
   47.5040   31.1970   47.9430 C   0  0  0  0  0  0  0  0  0  0  0  0
   47.3170   32.5550   47.6630 C   0  0  0  0  0  0  0  0  0  0  0  0
   46.6590   32.9060   46.4670 C   0  0  0  0  0  0  0  0  0  0  0  0
   46.2110   31.9470   45.6000 C   0  0  0  0  0  0  0  0  0  0  0  0
   44.6420   31.6710   42.6990 H   0  0  0  0  0  0  0  0  0  0  0  0
   44.9530   29.3010   43.1320 H   0  0  0  0  0  0  0  0  0  0  0  0
   46.1050   28.5740   45.2180 H   0  0  0  0  0  0  0  0  0  0  0  0
   47.1790   29.1890   47.2390 H   0  0  0  0  0  0  0  0  0  0  0  0
   47.9880   30.8130   48.8180 H   0  0  0  0  0  0  0  0  0  0  0  0
   47.7090   33.2210   48.4160 H   0  0  0  0  0  0  0  0  0  0  0  0
   46.6360   33.9730   46.4270 H   0  0  0  0  0  0  0  0  0  0  0  0
   45.9990   33.8470   41.9300 O   0  0  0  0  0  0  0  0  0  0  0  0
   48.0550   32.2220   41.7210 O   0  0  0  0  0  0  0  0  0  0  0  0
   47.6390   33.6510   41.5530 P   0  0  1  0  0  0  0  0  0  0  0  0
   47.9700   34.0850   39.9590 O   0  0  0  0  0  0  0  0  0  0  0  0
   49.8870   32.2490   38.9440 F   0  0  0  0  0  0  0  0  0  0  0  0
   48.6550   32.2450   38.3860 C   0  0  0  0  0  0  0  0  0  0  0  0
   47.8020   33.1670   38.9440 C   0  0  0  0  0  0  0  0  0  0  0  0
   46.5020   33.2400   38.4330 C   0  0  0  0  0  0  0  0  0  0  0  0
   45.7030   33.9200   38.7670 H   0  0  0  0  0  0  0  0  0  0  0  0
   46.0780   32.4160   37.4000 C   0  0  0  0  0  0  0  0  0  0  0  0
   45.0840   32.4430   36.9790 H   0  0  0  0  0  0  0  0  0  0  0  0
   46.9440   31.4960   36.8490 C   0  0  0  0  0  3  0  0  0  0  0  0
   48.2240   31.4310   37.3600 C   0  0  0  0  0  3  0  0  0  0  0  0
   48.5300   34.6500   42.5680 O   0  0  0  0  0  0  0  0  0  0  0  0
   49.7400   35.2610   42.2730 C   0  0  0  0  0  0  0  0  0  0  0  0
   49.4230   36.3370   41.7270 O   0  0  0  0  0  0  0  0  0  0  0  0
   50.8480   34.4450   42.6970 N   0  0  0  0  0  0  0  0  0  0  0  0
   51.5390   33.9240   42.1000 H   0  0  0  0  0  0  0  0  0  0  0  0
   50.9600   34.3770   43.7390 H   0  0  0  0  0  0  0  0  0  0  0  0
  1  2  2  0  0  0  0
  1  6  1  0  0  0  0
  2  3  1  0  0  0  0
  3  9  1  0  0  0  0
  3  4  2  0  0  0  0
  5  4  1  0  0  0  0
  5  8  1  0  0  0  0
  6  5  2  0  0  0  0
  7  1  1  0  0  0  0
  9 18  1  0  0  0  0
 10 11  1  0  0  0  0
 10  9  2  0  0  0  0
 11 12  2  0  0  0  0
 12 21  1  0  0  0  0
 12 13  1  0  0  0  0
 13 14  1  0  0  0  0
 14 22  1  0  0  0  0
 14 15  2  0  0  0  0
 15 23  1  0  0  0  0
 16 15  1  0  0  0  0
 16 24  1  0  0  0  0
 17 16  2  0  0  0  0
 18 13  2  0  0  0  0
 18 17  1  0  0  0  0
 19 10  1  0  0  0  0
 20 11  1  0  0  0  0
 25 17  1  0  0  0  0
 26  2  1  0  0  0  0
 28 27  2  1  0  0  0
 28 26  1  0  0  0  0
 28 39  1  0  0  0  0
 29 28  1  0  0  0  0
 31 30  1  0  0  0  0
 31 32  1  0  0  0  0
 32 29  1  0  0  0  0
 33 34  1  0  0  0  0
 33 32  2  0  0  0  0
 35 33  1  0  0  0  0
 36 35  1  0  0  0  0
 37 38  1  0  0  0  0
 37 35  2  0  0  0  0
 38 31  2  0  0  0  0
 40 39  1  0  0  0  0
 40 42  1  0  0  0  0
 41 40  2  0  0  0  0
 42 44  1  0  0  0  0
 43 42  1  0  0  0  0
M  END
>  <minimizedAffinity>
-6.00562525

>  <minimizedRMSD>
1.14856482

$$$$
