
 OpenBabel03242513403D

 40 43  0  0  0  0  0  0  0  0999 V2000
   47.7010   30.9960   46.0080 C   0  0  0  0  0  0  0  0  0  0  0  0
   46.9740   32.0730   45.5340 C   0  0  0  0  0  0  0  0  0  0  0  0
   45.9800   32.5880   46.3370 C   0  0  0  0  0  0  0  0  0  0  0  0
   45.6860   32.0740   47.5840 C   0  0  0  0  0  0  0  0  0  0  0  0
   44.8150   32.3320   48.5830 N   0  0  0  0  0  0  0  0  0  0  0  0
   44.9970   31.4660   49.6060 C   0  0  0  0  0  0  0  0  0  0  0  0
   46.0040   30.6560   49.2290 N   0  0  0  0  0  0  0  0  0  0  0  0
   46.4420   31.0070   48.0000 C   0  0  0  0  0  0  0  0  0  0  0  0
   47.4350   30.4490   47.2610 C   0  0  0  0  0  0  0  0  0  0  0  0
   48.4740   30.5920   45.3890 H   0  0  0  0  0  0  0  0  0  0  0  0
   45.3890   33.4310   46.0000 H   0  0  0  0  0  0  0  0  0  0  0  0
   44.1120   33.1140   48.5170 H   0  0  0  0  0  0  0  0  0  0  0  0
   44.4370   31.4370   50.5410 H   0  0  0  0  0  0  0  0  0  0  0  0
   47.1910   34.4100   42.7370 C   0  0  0  0  0  0  0  0  0  0  0  0
   47.8180   33.6580   41.7410 C   0  0  0  0  0  0  0  0  0  0  0  0
   48.1520   32.3440   42.0750 C   0  0  0  0  0  0  0  0  0  0  0  0
   47.8660   31.8640   43.3080 N   0  0  0  0  0  0  0  0  0  0  0  0
   47.2610   32.6380   44.2180 C   0  0  0  0  0  0  0  0  0  0  0  0
   46.9200   33.8950   43.9590 N   0  0  0  0  0  0  0  0  0  0  0  0
   46.8790   35.4460   42.6050 H   0  0  0  0  0  0  0  0  0  0  0  0
   48.6380   31.7590   41.3040 H   0  0  0  0  0  0  0  0  0  0  0  0
   48.0760   34.2990   40.4300 C   0  0  0  0  0  0  0  0  0  0  0  0
   48.5780   35.5500   40.7420 F   0  0  0  0  0  0  0  0  0  0  0  0
   46.8860   34.4180   39.7690 F   0  0  0  0  0  0  0  0  0  0  0  0
   48.9810   33.5070   39.7340 F   0  0  0  0  0  0  0  0  0  0  0  0
   48.1570   29.3690   47.7480 O   0  0  0  0  0  0  0  0  0  0  0  0
   49.7720   28.0560   49.2870 O   0  0  0  0  0  0  0  0  0  0  0  0
   49.4520   29.4750   48.8130 P   0  0  2  0  0  0  0  0  0  0  0  0
   48.9000   30.3150   50.1950 O   0  0  0  0  0  0  0  0  0  0  0  0
   48.2440   29.7340   50.6680 H   0  0  0  0  0  0  0  0  0  0  0  0
   50.8130   30.2110   48.1940 O   0  0  0  0  0  0  0  0  0  0  0  0
   50.5220   29.3190   45.5450 F   0  0  0  0  0  0  0  0  0  0  0  0
   51.6770   29.0300   46.1500 C   0  0  0  0  0  0  0  0  0  0  0  0
   51.7540   29.5040   47.4650 C   0  0  0  0  0  0  0  0  0  0  0  0
   52.9270   29.2510   48.1830 C   0  0  0  0  0  0  0  0  0  0  0  0
   53.0820   29.5790   49.2140 H   0  0  0  0  0  0  0  0  0  0  0  0
   53.9910   28.5500   47.6200 C   0  0  0  0  0  0  0  0  0  0  0  0
   54.8870   28.3680   48.1940 H   0  0  0  0  0  0  0  0  0  0  0  0
   53.9070   28.0920   46.3340 C   0  0  0  0  0  0  0  0  0  0  0  0
   52.7570   28.3500   45.6550 C   0  0  0  0  0  0  0  0  0  0  0  0
  1  9  1  0  0  0  0
  2  1  2  0  0  0  0
  2  3  1  0  0  0  0
  3  4  2  0  0  0  0
  4  8  1  0  0  0  0
  4  5  1  0  0  0  0
  5  6  1  0  0  0  0
  6 13  1  0  0  0  0
  7  6  2  0  0  0  0
  8  7  1  0  0  0  0
  9 26  1  0  0  0  0
  9  8  2  0  0  0  0
 10  1  1  0  0  0  0
 11  3  1  0  0  0  0
 12  5  1  0  0  0  0
 14 19  1  0  0  0  0
 15 16  1  0  0  0  0
 15 14  2  0  0  0  0
 16 17  2  0  0  0  0
 17 18  1  0  0  0  0
 18  2  1  0  0  0  0
 19 18  2  0  0  0  0
 20 14  1  0  0  0  0
 21 16  1  0  0  0  0
 22 23  1  0  0  0  0
 22 15  1  0  0  0  0
 24 22  1  0  0  0  0
 25 22  1  0  0  0  0
 26 28  1  0  0  0  0
 28 27  2  1  0  0  0
 28 29  1  0  0  0  0
 29 30  1  0  0  0  0
 31 28  1  0  0  0  0
 32 33  1  0  0  0  0
 33 34  1  0  0  0  0
 34 35  2  0  0  0  0
 34 31  1  0  0  0  0
 35 36  1  0  0  0  0
 37 35  1  0  0  0  0
 37 38  1  0  0  0  0
 39 37  2  0  0  0  0
 40 33  2  0  0  0  0
 40 39  1  0  0  0  0
M  END
>  <minimizedAffinity>
-5.65941191

>  <minimizedRMSD>
0.703898907

$$$$
