
 OpenBabel03252501033D

 31 33  0  0  1  0  0  0  0  0999 V2000
   47.9660   35.6180   41.8830 C   0  0  1  0  0  0  0  0  0  0  0  0
   49.3520   35.1060   42.0060 C   0  0  0  0  0  0  0  0  0  0  0  0
   48.6180   35.1020   40.6730 C   0  0  1  0  0  0  0  0  0  0  0  0
   47.7930   36.7240   41.9780 H   0  0  0  0  0  0  0  0  0  0  0  0
   50.1970   35.8390   42.1520 H   0  0  0  0  0  0  0  0  0  0  0  0
   49.6170   34.1010   42.3340 H   0  0  0  0  0  0  0  0  0  0  0  0
   49.0670   35.8330   39.9700 H   0  0  0  0  0  0  0  0  0  0  0  0
   46.2240   33.0530   44.0500 C   0  0  0  0  0  0  0  0  0  0  0  0
   47.2520   33.8450   43.5150 C   0  0  0  0  0  0  0  0  0  0  0  0
   46.9200   34.7530   42.5000 C   0  0  0  0  0  0  0  0  0  0  0  0
   45.6260   34.8260   42.0810 N   0  0  0  0  0  0  0  0  0  0  0  0
   44.6530   34.0490   42.6150 C   0  0  0  0  0  0  0  0  0  0  0  0
   44.9640   33.1670   43.5990 N   0  0  0  0  0  0  0  0  0  0  0  0
   46.5030   32.3620   44.8310 H   0  0  0  0  0  0  0  0  0  0  0  0
   48.2400   33.7320   43.8980 H   0  0  0  0  0  0  0  0  0  0  0  0
   43.6240   34.0930   42.2960 H   0  0  0  0  0  0  0  0  0  0  0  0
   48.1230   33.9890   40.1110 O   0  0  0  0  0  0  0  0  0  0  0  0
   48.7940   32.4400   38.0630 O   0  0  0  0  0  0  0  0  0  0  0  0
   48.2520   33.7860   38.4890 P   0  0  2  0  0  0  0  0  0  0  0  0
   49.1950   34.9500   37.7140 O   0  0  0  0  0  0  0  0  0  0  0  0
   49.2210   34.6790   36.7440 H   0  0  0  0  0  0  0  0  0  0  0  0
   46.7100   33.8720   37.7970 O   0  0  0  0  0  0  0  0  0  0  0  0
   45.3540   32.8970   35.6860 F   0  0  0  0  0  0  0  0  0  0  0  0
   45.1270   32.4630   36.9650 C   0  0  0  0  0  0  0  0  0  0  0  0
   45.7720   32.9010   38.1260 C   0  0  0  0  0  0  0  0  0  0  0  0
   45.4280   32.3640   39.3310 C   0  0  0  0  0  0  0  0  0  0  0  0
   45.9900   32.7790   40.1440 H   0  0  0  0  0  0  0  0  0  0  0  0
   44.4460   31.3940   39.3960 C   0  0  0  0  0  0  0  0  0  0  0  0
   44.2160   31.0050   40.3790 H   0  0  0  0  0  0  0  0  0  0  0  0
   43.8080   30.9590   38.2520 C   0  0  0  0  0  3  0  0  0  0  0  0
   44.1340   31.4830   37.0180 C   0  0  0  0  0  3  0  0  0  0  0  0
  1  4  1  1  0  0  0
  1  2  1  0  0  0  0
  1 10  1  0  0  0  0
  2  5  1  0  0  0  0
  2  6  1  0  0  0  0
  3  7  1  6  0  0  0
  3  1  1  0  0  0  0
  3  2  1  0  0  0  0
  8 14  1  0  0  0  0
  9 15  1  0  0  0  0
  9  8  2  0  0  0  0
 10  9  1  0  0  0  0
 11 10  2  0  0  0  0
 11 12  1  0  0  0  0
 12 13  2  0  0  0  0
 13  8  1  0  0  0  0
 16 12  1  0  0  0  0
 17  3  1  0  0  0  0
 19 18  2  6  0  0  0
 19 17  1  0  0  0  0
 20 19  1  0  0  0  0
 21 20  1  0  0  0  0
 22 25  1  0  0  0  0
 22 19  1  0  0  0  0
 23 24  1  0  0  0  0
 24 31  2  0  0  0  0
 24 25  1  0  0  0  0
 25 26  2  0  0  0  0
 26 28  1  0  0  0  0
 26 27  1  0  0  0  0
 28 29  1  0  0  0  0
 30 28  2  0  0  0  0
 31 30  1  0  0  0  0
M  END
>  <minimizedAffinity>
-4.30481625

>  <minimizedRMSD>
0.606203675

$$$$
