
 OpenBabel03252509283D

 21 22  0  0  0  0  0  0  0  0999 V2000
   47.0390   34.9730   41.9430 C   0  0  0  0  0  0  0  0  0  0  0  0
   47.9870   34.4060   42.1720 H   0  0  0  0  0  0  0  0  0  0  0  0
   47.2330   36.0020   41.6300 H   0  0  0  0  0  0  0  0  0  0  0  0
   44.5880   36.0250   44.5380 C   0  0  0  0  0  0  0  0  0  0  0  0
   45.3640   36.0210   43.3610 C   0  0  0  0  0  0  0  0  0  0  0  0
   46.2500   34.9470   43.1740 C   0  0  0  0  0  0  0  0  0  0  0  0
   46.3110   33.9790   44.1250 N   0  0  0  0  0  0  0  0  0  0  0  0
   45.5510   34.0210   45.2380 C   0  0  0  0  0  0  0  0  0  0  0  0
   44.6990   35.0450   45.4290 N   0  0  0  0  0  0  0  0  0  0  0  0
   43.9150   36.8650   44.6560 H   0  0  0  0  0  0  0  0  0  0  0  0
   45.2760   36.8200   42.6330 H   0  0  0  0  0  0  0  0  0  0  0  0
   45.6220   33.2330   45.9820 H   0  0  0  0  0  0  0  0  0  0  0  0
   48.4740   33.9210   39.7870 F   0  0  0  0  0  0  0  0  0  0  0  0
   47.1190   33.7240   39.7230 C   0  0  0  0  0  0  0  0  0  0  0  0
   46.4210   34.2570   40.8090 C   0  0  0  0  0  0  0  0  0  0  0  0
   45.0570   34.0840   40.7900 C   0  0  0  0  0  0  0  0  0  0  0  0
   44.3970   34.4450   41.5640 H   0  0  0  0  0  0  0  0  0  0  0  0
   44.4110   33.4190   39.7510 C   0  0  0  0  0  0  0  0  0  0  0  0
   43.3360   33.2740   39.7190 H   0  0  0  0  0  0  0  0  0  0  0  0
   45.1100   32.9020   38.6930 C   0  0  0  0  0  3  0  0  0  0  0  0
   46.4830   33.0650   38.6940 C   0  0  0  0  0  3  0  0  0  0  0  0
  1  2  1  0  0  0  0
  1  6  1  0  0  0  0
  3  1  1  0  0  0  0
  4 10  1  0  0  0  0
  4  9  1  0  0  0  0
  5  4  2  0  0  0  0
  6  5  1  0  0  0  0
  6  7  2  0  0  0  0
  7  8  1  0  0  0  0
  8  9  2  0  0  0  0
  8 12  1  0  0  0  0
 11  5  1  0  0  0  0
 14 13  1  0  0  0  0
 14 15  1  0  0  0  0
 15  1  1  0  0  0  0
 16 15  2  0  0  0  0
 16 17  1  0  0  0  0
 18 16  1  0  0  0  0
 19 18  1  0  0  0  0
 20 21  1  0  0  0  0
 20 18  2  0  0  0  0
 21 14  2  0  0  0  0
M  END
>  <minimizedAffinity>
-4.27164888

>  <minimizedRMSD>
0.655585945

$$$$
