
 OpenBabel03252509293D

 21 22  0  0  0  0  0  0  0  0999 V2000
   47.2730   34.9750   41.9730 C   0  0  0  0  0  0  0  0  0  0  0  0
   48.2760   34.5740   42.3000 H   0  0  0  0  0  0  0  0  0  0  0  0
   47.3370   35.9960   41.5890 H   0  0  0  0  0  0  0  0  0  0  0  0
   44.5640   35.8700   44.3610 C   0  0  0  0  0  0  0  0  0  0  0  0
   45.4090   35.8970   43.2340 C   0  0  0  0  0  0  0  0  0  0  0  0
   46.4140   34.9190   43.1550 C   0  0  0  0  0  0  0  0  0  0  0  0
   46.5180   34.0090   44.1580 N   0  0  0  0  0  0  0  0  0  0  0  0
   45.6880   34.0180   45.2210 C   0  0  0  0  0  0  0  0  0  0  0  0
   44.7210   34.9500   45.3080 N   0  0  0  0  0  0  0  0  0  0  0  0
   43.7980   36.6360   44.3950 H   0  0  0  0  0  0  0  0  0  0  0  0
   45.2830   36.6470   42.4600 H   0  0  0  0  0  0  0  0  0  0  0  0
   45.7950   33.2780   46.0080 H   0  0  0  0  0  0  0  0  0  0  0  0
   48.4330   34.9790   39.4280 F   0  0  0  0  0  0  0  0  0  0  0  0
   47.4100   34.0800   39.5900 C   0  0  0  0  0  0  0  0  0  0  0  0
   46.8450   34.0950   40.8680 C   0  0  0  0  0  0  0  0  0  0  0  0
   45.8120   33.2100   41.0780 C   0  0  0  0  0  0  0  0  0  0  0  0
   45.2860   33.1170   42.0160 H   0  0  0  0  0  0  0  0  0  0  0  0
   45.3590   32.3530   40.0800 C   0  0  0  0  0  0  0  0  0  0  0  0
   44.5470   31.6480   40.2280 H   0  0  0  0  0  0  0  0  0  0  0  0
   45.9230   32.3500   38.8320 C   0  0  0  0  0  3  0  0  0  0  0  0
   46.9630   33.2330   38.6000 C   0  0  0  0  0  3  0  0  0  0  0  0
  1  2  1  0  0  0  0
  1  6  1  0  0  0  0
  3  1  1  0  0  0  0
  4 10  1  0  0  0  0
  4  9  1  0  0  0  0
  5  4  2  0  0  0  0
  6  5  1  0  0  0  0
  6  7  2  0  0  0  0
  7  8  1  0  0  0  0
  8  9  2  0  0  0  0
  8 12  1  0  0  0  0
 11  5  1  0  0  0  0
 13 14  1  0  0  0  0
 14 15  1  0  0  0  0
 15 16  2  0  0  0  0
 15  1  1  0  0  0  0
 16 17  1  0  0  0  0
 18 19  1  0  0  0  0
 18 16  1  0  0  0  0
 20 18  2  0  0  0  0
 21 20  1  0  0  0  0
 21 14  2  0  0  0  0
M  END
>  <minimizedAffinity>
-4.23865366

>  <minimizedRMSD>
0.660295665

$$$$
