
 OpenBabel03252509293D

 21 22  0  0  0  0  0  0  0  0999 V2000
   47.7330   33.7740   42.8920 C   0  0  0  0  0  0  0  0  0  0  0  0
   47.7910   32.7110   43.2630 H   0  0  0  0  0  0  0  0  0  0  0  0
   48.6530   34.3330   43.0800 H   0  0  0  0  0  0  0  0  0  0  0  0
   44.9110   36.0910   43.6070 C   0  0  0  0  0  0  0  0  0  0  0  0
   46.0020   35.4810   42.9570 C   0  0  0  0  0  0  0  0  0  0  0  0
   46.6040   34.3830   43.5940 C   0  0  0  0  0  0  0  0  0  0  0  0
   46.1080   33.9710   44.7890 N   0  0  0  0  0  0  0  0  0  0  0  0
   45.0610   34.5830   45.3780 C   0  0  0  0  0  0  0  0  0  0  0  0
   44.4760   35.6360   44.7780 N   0  0  0  0  0  0  0  0  0  0  0  0
   44.4670   36.9350   43.0930 H   0  0  0  0  0  0  0  0  0  0  0  0
   46.3590   35.8510   42.0010 H   0  0  0  0  0  0  0  0  0  0  0  0
   44.6860   34.2320   46.3350 H   0  0  0  0  0  0  0  0  0  0  0  0
   46.0030   31.9570   41.6570 F   0  0  0  0  0  0  0  0  0  0  0  0
   46.6950   32.7660   40.7930 C   0  0  0  0  0  0  0  0  0  0  0  0
   47.5540   33.6660   41.4300 C   0  0  0  0  0  0  0  0  0  0  0  0
   48.2700   34.5000   40.6030 C   0  0  0  0  0  0  0  0  0  0  0  0
   48.9680   35.2420   40.9620 H   0  0  0  0  0  0  0  0  0  0  0  0
   48.1480   34.4500   39.2180 C   0  0  0  0  0  0  0  0  0  0  0  0
   48.7060   35.0990   38.5510 H   0  0  0  0  0  0  0  0  0  0  0  0
   47.3040   33.5620   38.6080 C   0  0  0  0  0  3  0  0  0  0  0  0
   46.5730   32.7150   39.4220 C   0  0  0  0  0  3  0  0  0  0  0  0
  1  3  1  0  0  0  0
  1  2  1  0  0  0  0
  1  6  1  0  0  0  0
  4  9  1  0  0  0  0
  5  6  1  0  0  0  0
  5  4  2  0  0  0  0
  6  7  2  0  0  0  0
  7  8  1  0  0  0  0
  8 12  1  0  0  0  0
  9  8  2  0  0  0  0
 10  4  1  0  0  0  0
 11  5  1  0  0  0  0
 14 15  1  0  0  0  0
 14 13  1  0  0  0  0
 15  1  1  0  0  0  0
 16 17  1  0  0  0  0
 16 15  2  0  0  0  0
 18 16  1  0  0  0  0
 19 18  1  0  0  0  0
 20 18  2  0  0  0  0
 20 21  1  0  0  0  0
 21 14  2  0  0  0  0
M  END
>  <minimizedAffinity>
-4.0907197

>  <minimizedRMSD>
1.53222167

$$$$
