
 OpenBabel03252501493D

 33 35  0  0  0  0  0  0  0  0999 V2000
   34.3790   29.1200   39.4970 C   0  0  0  0  0  0  0  0  0  0  0  0
   34.7910   28.8030   38.1710 C   0  0  0  0  0  0  0  0  0  0  0  0
   36.0410   28.2210   37.9760 C   0  0  0  0  0  0  0  0  0  0  0  0
   36.8170   27.9810   39.0710 N   0  0  0  0  0  0  0  0  0  0  0  0
   36.3890   28.2970   40.3090 C   0  0  0  0  0  0  0  0  0  0  0  0
   35.1890   28.8570   40.5180 N   0  0  0  0  0  0  0  0  0  0  0  0
   33.4140   29.5760   39.7050 H   0  0  0  0  0  0  0  0  0  0  0  0
   36.3660   27.9750   36.9750 H   0  0  0  0  0  0  0  0  0  0  0  0
   37.7660   30.3300   41.6100 F   0  0  0  0  0  0  0  0  0  0  0  0
   37.9480   29.0540   42.0680 C   0  0  0  0  0  0  0  0  0  0  0  0
   37.2700   28.0080   41.4360 C   0  0  0  0  0  0  0  0  0  0  0  0
   37.4170   26.7130   41.8530 C   0  0  0  0  0  0  0  0  0  0  0  0
   38.2650   26.4620   42.9330 C   0  0  0  0  0  0  0  0  0  0  0  0
   38.9540   27.5060   43.5790 C   0  0  0  0  0  0  0  0  0  0  0  0
   38.7890   28.8140   43.1360 C   0  0  0  0  0  0  0  0  0  0  0  0
   36.8890   25.9010   41.3610 H   0  0  0  0  0  0  0  0  0  0  0  0
   38.3810   25.4410   43.2660 H   0  0  0  0  0  0  0  0  0  0  0  0
   39.6110   27.2780   44.4220 H   0  0  0  0  0  0  0  0  0  0  0  0
   39.3090   29.6420   43.6160 H   0  0  0  0  0  0  0  0  0  0  0  0
   33.8850   29.0940   37.0650 C   0  0  0  0  0  3  0  0  0  0  0  0
   32.7480   28.4680   36.8240 C   0  0  0  0  0  3  0  0  0  0  0  0
   31.9040   28.8570   35.6460 C   0  0  0  0  0  0  0  0  0  0  0  0
   31.1510   28.0730   35.4460 H   0  0  0  0  0  0  0  0  0  0  0  0
   32.5240   29.0730   34.7530 H   0  0  0  0  0  0  0  0  0  0  0  0
   31.8780   30.9000   33.7940 F   0  0  0  0  0  0  0  0  0  0  0  0
   31.2710   31.0810   35.0040 C   0  0  0  0  0  0  0  0  0  0  0  0
   31.2220   30.1250   36.0110 C   0  0  0  0  0  0  0  0  0  0  0  0
   30.5720   30.4490   37.1870 C   0  0  0  0  0  0  0  0  0  0  0  0
   30.5780   29.6570   37.9130 H   0  0  0  0  0  0  0  0  0  0  0  0
   29.9970   31.6910   37.3360 C   0  0  0  0  0  0  0  0  0  0  0  0
   29.4960   31.9030   38.2760 H   0  0  0  0  0  0  0  0  0  0  0  0
   30.0530   32.6420   36.3170 C   0  0  0  0  0  3  0  0  0  0  0  0
   30.6990   32.3390   35.1310 C   0  0  0  0  0  3  0  0  0  0  0  0
  1  7  1  0  0  0  0
  1  6  1  0  0  0  0
  2  1  2  0  0  0  0
  3  2  1  0  0  0  0
  3  4  2  0  0  0  0
  4  5  1  0  0  0  0
  5  6  2  0  0  0  0
  5 11  1  0  0  0  0
  8  3  1  0  0  0  0
  9 10  1  0  0  0  0
 10 15  1  0  0  0  0
 11 12  1  0  0  0  0
 11 10  2  0  0  0  0
 12 13  2  0  0  0  0
 13 17  1  0  0  0  0
 13 14  1  0  0  0  0
 14 18  1  0  0  0  0
 15 14  2  0  0  0  0
 15 19  1  0  0  0  0
 16 12  1  0  0  0  0
 20  2  1  0  0  0  0
 21 20  2  0  0  0  0
 22 27  1  0  0  0  0
 22 21  1  0  0  0  0
 23 22  1  0  0  0  0
 24 22  1  0  0  0  0
 25 26  1  0  0  0  0
 26 33  2  0  0  0  0
 26 27  1  0  0  0  0
 27 28  2  0  0  0  0
 28 30  1  0  0  0  0
 28 29  1  0  0  0  0
 30 31  1  0  0  0  0
 32 30  2  0  0  0  0
 33 32  1  0  0  0  0
M  END
>  <minimizedAffinity>
-5.93338585

$$$$

 OpenBabel03252501493D

 33 35  0  0  0  0  0  0  0  0999 V2000
   35.7240   27.4380   38.5860 C   0  0  0  0  0  0  0  0  0  0  0  0
   35.3760   28.7850   38.2830 C   0  0  0  0  0  0  0  0  0  0  0  0
   35.9190   29.8100   39.0540 C   0  0  0  0  0  0  0  0  0  0  0  0
   36.7650   29.4720   40.0690 N   0  0  0  0  0  0  0  0  0  0  0  0
   37.0690   28.1840   40.3210 C   0  0  0  0  0  0  0  0  0  0  0  0
   36.5570   27.1830   39.5910 N   0  0  0  0  0  0  0  0  0  0  0  0
   35.3280   26.6000   38.0160 H   0  0  0  0  0  0  0  0  0  0  0  0
   35.6630   30.8370   38.8350 H   0  0  0  0  0  0  0  0  0  0  0  0
   36.1190   27.6510   42.8770 F   0  0  0  0  0  0  0  0  0  0  0  0
   37.4730   27.6320   42.6940 C   0  0  0  0  0  0  0  0  0  0  0  0
   37.9850   27.8960   41.4200 C   0  0  0  0  0  0  0  0  0  0  0  0
   39.3320   27.8900   41.1820 C   0  0  0  0  0  0  0  0  0  0  0  0
   40.1880   27.6120   42.2490 C   0  0  0  0  0  0  0  0  0  0  0  0
   39.6870   27.3440   43.5370 C   0  0  0  0  0  0  0  0  0  0  0  0
   38.3130   27.3570   43.7540 C   0  0  0  0  0  0  0  0  0  0  0  0
   39.7280   28.0950   40.1910 H   0  0  0  0  0  0  0  0  0  0  0  0
   41.2520   27.6050   42.0630 H   0  0  0  0  0  0  0  0  0  0  0  0
   40.3820   27.1300   44.3520 H   0  0  0  0  0  0  0  0  0  0  0  0
   37.8960   27.1530   44.7390 H   0  0  0  0  0  0  0  0  0  0  0  0
   34.4660   29.0440   37.1720 C   0  0  0  0  0  3  0  0  0  0  0  0
   33.2620   28.5200   37.0340 C   0  0  0  0  0  3  0  0  0  0  0  0
   32.4210   28.8610   35.8380 C   0  0  0  0  0  0  0  0  0  0  0  0
   31.7950   27.9940   35.5580 H   0  0  0  0  0  0  0  0  0  0  0  0
   33.0400   29.2160   34.9910 H   0  0  0  0  0  0  0  0  0  0  0  0
   32.0410   30.9090   34.0320 F   0  0  0  0  0  0  0  0  0  0  0  0
   31.4320   30.9680   35.2530 C   0  0  0  0  0  0  0  0  0  0  0  0
   31.5520   29.9970   36.2400 C   0  0  0  0  0  0  0  0  0  0  0  0
   30.8780   30.1900   37.4310 C   0  0  0  0  0  0  0  0  0  0  0  0
   31.0210   29.3950   38.1390 H   0  0  0  0  0  0  0  0  0  0  0  0
   30.1140   31.3210   37.6140 C   0  0  0  0  0  0  0  0  0  0  0  0
   29.6010   31.4330   38.5650 H   0  0  0  0  0  0  0  0  0  0  0  0
   30.0020   32.2890   36.6150 C   0  0  0  0  0  3  0  0  0  0  0  0
   30.6690   32.1150   35.4150 C   0  0  0  0  0  3  0  0  0  0  0  0
  1  6  1  0  0  0  0
  2  1  2  0  0  0  0
  2  3  1  0  0  0  0
  3  4  2  0  0  0  0
  4  5  1  0  0  0  0
  5 11  1  0  0  0  0
  6  5  2  0  0  0  0
  7  1  1  0  0  0  0
  8  3  1  0  0  0  0
 10  9  1  0  0  0  0
 10 15  1  0  0  0  0
 11 10  2  0  0  0  0
 12 11  1  0  0  0  0
 12 13  2  0  0  0  0
 13 14  1  0  0  0  0
 14 15  2  0  0  0  0
 14 18  1  0  0  0  0
 15 19  1  0  0  0  0
 16 12  1  0  0  0  0
 17 13  1  0  0  0  0
 20  2  1  0  0  0  0
 21 20  2  0  0  0  0
 22 27  1  0  0  0  0
 22 21  1  0  0  0  0
 23 22  1  0  0  0  0
 24 22  1  0  0  0  0
 25 26  1  0  0  0  0
 26 33  2  0  0  0  0
 26 27  1  0  0  0  0
 27 28  2  0  0  0  0
 28 30  1  0  0  0  0
 28 29  1  0  0  0  0
 30 31  1  0  0  0  0
 32 30  2  0  0  0  0
 33 32  1  0  0  0  0
M  END
>  <minimizedAffinity>
-5.89681292

$$$$

 OpenBabel03252501493D

 33 35  0  0  0  0  0  0  0  0999 V2000
   38.2880   28.7350   40.6360 C   0  0  0  0  0  0  0  0  0  0  0  0
   38.4120   28.3310   41.9960 C   0  0  0  0  0  0  0  0  0  0  0  0
   38.8550   29.2590   42.9350 C   0  0  0  0  0  0  0  0  0  0  0  0
   39.1500   30.5190   42.5050 N   0  0  0  0  0  0  0  0  0  0  0  0
   39.0180   30.8600   41.2090 C   0  0  0  0  0  0  0  0  0  0  0  0
   38.5930   29.9810   40.2890 N   0  0  0  0  0  0  0  0  0  0  0  0
   37.9470   28.0500   39.8620 H   0  0  0  0  0  0  0  0  0  0  0  0
   38.9540   28.9670   43.9710 H   0  0  0  0  0  0  0  0  0  0  0  0
   37.0300   32.6690   40.5050 F   0  0  0  0  0  0  0  0  0  0  0  0
   38.3230   33.1120   40.4710 C   0  0  0  0  0  0  0  0  0  0  0  0
   39.3480   32.2270   40.8190 C   0  0  0  0  0  0  0  0  0  0  0  0
   40.6590   32.6180   40.8010 C   0  0  0  0  0  0  0  0  0  0  0  0
   40.9490   33.9310   40.4250 C   0  0  0  0  0  0  0  0  0  0  0  0
   39.9270   34.8320   40.0720 C   0  0  0  0  0  0  0  0  0  0  0  0
   38.6020   34.4110   40.0970 C   0  0  0  0  0  0  0  0  0  0  0  0
   41.4540   31.9300   41.0720 H   0  0  0  0  0  0  0  0  0  0  0  0
   41.9840   34.2420   40.4120 H   0  0  0  0  0  0  0  0  0  0  0  0
   40.1860   35.8540   39.7820 H   0  0  0  0  0  0  0  0  0  0  0  0
   37.7900   35.0860   39.8300 H   0  0  0  0  0  0  0  0  0  0  0  0
   38.0660   26.9600   42.3570 C   0  0  0  0  0  3  0  0  0  0  0  0
   37.0470   26.2770   41.8710 C   0  0  0  0  0  3  0  0  0  0  0  0
   36.7920   24.8710   42.3290 C   0  0  0  0  0  0  0  0  0  0  0  0
   35.7750   24.7920   42.7580 H   0  0  0  0  0  0  0  0  0  0  0  0
   37.5680   24.5240   43.0380 H   0  0  0  0  0  0  0  0  0  0  0  0
   39.2030   23.6370   41.8160 F   0  0  0  0  0  0  0  0  0  0  0  0
   38.1520   23.4380   40.9670 C   0  0  0  0  0  0  0  0  0  0  0  0
   36.8940   24.0060   41.1240 C   0  0  0  0  0  0  0  0  0  0  0  0
   35.9240   23.7160   40.1840 C   0  0  0  0  0  0  0  0  0  0  0  0
   34.9810   24.1930   40.3780 H   0  0  0  0  0  0  0  0  0  0  0  0
   36.2180   22.8840   39.1270 C   0  0  0  0  0  0  0  0  0  0  0  0
   35.4260   22.6810   38.4110 H   0  0  0  0  0  0  0  0  0  0  0  0
   37.4850   22.3180   38.9800 C   0  0  0  0  0  3  0  0  0  0  0  0
   38.4710   22.5970   39.9110 C   0  0  0  0  0  3  0  0  0  0  0  0
  1  2  1  0  0  0  0
  2 20  1  0  0  0  0
  2  3  2  0  0  0  0
  3  8  1  0  0  0  0
  4  3  1  0  0  0  0
  5  4  2  0  0  0  0
  6  1  2  0  0  0  0
  6  5  1  0  0  0  0
  7  1  1  0  0  0  0
 10  9  1  0  0  0  0
 10 11  1  0  0  0  0
 11  5  1  0  0  0  0
 12 11  2  0  0  0  0
 12 16  1  0  0  0  0
 13 12  1  0  0  0  0
 14 15  1  0  0  0  0
 14 13  2  0  0  0  0
 15 10  2  0  0  0  0
 17 13  1  0  0  0  0
 18 14  1  0  0  0  0
 19 15  1  0  0  0  0
 21 22  1  0  0  0  0
 21 20  2  0  0  0  0
 22 23  1  0  0  0  0
 22 24  1  0  0  0  0
 26 27  1  0  0  0  0
 26 25  1  0  0  0  0
 27 22  1  0  0  0  0
 28 29  1  0  0  0  0
 28 27  2  0  0  0  0
 30 28  1  0  0  0  0
 31 30  1  0  0  0  0
 32 30  2  0  0  0  0
 32 33  1  0  0  0  0
 33 26  2  0  0  0  0
M  END
>  <minimizedAffinity>
-5.82599306

$$$$

 OpenBabel03252501493D

 33 35  0  0  0  0  0  0  0  0999 V2000
   34.3340   29.1530   39.4250 C   0  0  0  0  0  0  0  0  0  0  0  0
   34.7750   28.8370   38.1090 C   0  0  0  0  0  0  0  0  0  0  0  0
   36.0180   28.2310   37.9430 C   0  0  0  0  0  0  0  0  0  0  0  0
   36.7600   27.9690   39.0580 N   0  0  0  0  0  0  0  0  0  0  0  0
   36.3050   28.2850   40.2850 C   0  0  0  0  0  0  0  0  0  0  0  0
   35.1110   28.8670   40.4660 N   0  0  0  0  0  0  0  0  0  0  0  0
   33.3720   29.6270   39.6110 H   0  0  0  0  0  0  0  0  0  0  0  0
   36.3660   27.9850   36.9500 H   0  0  0  0  0  0  0  0  0  0  0  0
   37.5330   30.2980   41.7540 F   0  0  0  0  0  0  0  0  0  0  0  0
   37.7530   29.0080   42.1510 C   0  0  0  0  0  0  0  0  0  0  0  0
   37.1490   27.9710   41.4340 C   0  0  0  0  0  0  0  0  0  0  0  0
   37.3360   26.6620   41.7870 C   0  0  0  0  0  0  0  0  0  0  0  0
   38.1480   26.3880   42.8890 C   0  0  0  0  0  0  0  0  0  0  0  0
   38.7610   27.4220   43.6200 C   0  0  0  0  0  0  0  0  0  0  0  0
   38.5570   28.7450   43.2410 C   0  0  0  0  0  0  0  0  0  0  0  0
   36.8660   25.8580   41.2290 H   0  0  0  0  0  0  0  0  0  0  0  0
   38.2950   25.3550   43.1710 H   0  0  0  0  0  0  0  0  0  0  0  0
   39.3920   27.1760   44.4780 H   0  0  0  0  0  0  0  0  0  0  0  0
   39.0180   29.5660   43.7870 H   0  0  0  0  0  0  0  0  0  0  0  0
   33.9050   29.1530   36.9810 C   0  0  0  0  0  3  0  0  0  0  0  0
   32.6800   28.6950   36.8110 C   0  0  0  0  0  3  0  0  0  0  0  0
   31.8850   29.0900   35.6000 C   0  0  0  0  0  0  0  0  0  0  0  0
   31.3570   28.2090   35.1910 H   0  0  0  0  0  0  0  0  0  0  0  0
   32.5200   29.5830   34.8370 H   0  0  0  0  0  0  0  0  0  0  0  0
   29.5410   28.1930   36.7410 F   0  0  0  0  0  0  0  0  0  0  0  0
   29.7550   29.5360   36.6110 C   0  0  0  0  0  0  0  0  0  0  0  0
   30.8950   30.1010   36.0530 C   0  0  0  0  0  0  0  0  0  0  0  0
   30.9740   31.4790   35.9850 C   0  0  0  0  0  0  0  0  0  0  0  0
   31.8860   31.8350   35.5420 H   0  0  0  0  0  0  0  0  0  0  0  0
   29.9400   32.2520   36.4630 C   0  0  0  0  0  0  0  0  0  0  0  0
   30.0440   33.3320   36.3900 H   0  0  0  0  0  0  0  0  0  0  0  0
   28.8000   31.6730   37.0220 C   0  0  0  0  0  3  0  0  0  0  0  0
   28.7000   30.2940   37.0980 C   0  0  0  0  0  3  0  0  0  0  0  0
  1  7  1  0  0  0  0
  1  6  1  0  0  0  0
  2  1  2  0  0  0  0
  3  2  1  0  0  0  0
  3  4  2  0  0  0  0
  4  5  1  0  0  0  0
  5  6  2  0  0  0  0
  5 11  1  0  0  0  0
  8  3  1  0  0  0  0
  9 10  1  0  0  0  0
 10 15  1  0  0  0  0
 11 12  1  0  0  0  0
 11 10  2  0  0  0  0
 12 13  2  0  0  0  0
 13 17  1  0  0  0  0
 13 14  1  0  0  0  0
 14 18  1  0  0  0  0
 15 14  2  0  0  0  0
 15 19  1  0  0  0  0
 16 12  1  0  0  0  0
 20  2  1  0  0  0  0
 21 20  2  0  0  0  0
 22 27  1  0  0  0  0
 22 21  1  0  0  0  0
 23 22  1  0  0  0  0
 24 22  1  0  0  0  0
 26 25  1  0  0  0  0
 26 33  1  0  0  0  0
 27 26  2  0  0  0  0
 28 27  1  0  0  0  0
 28 30  2  0  0  0  0
 29 28  1  0  0  0  0
 30 32  1  0  0  0  0
 31 30  1  0  0  0  0
 32 33  2  0  0  0  0
M  END
>  <minimizedAffinity>
-5.56385326

$$$$

 OpenBabel03252501493D

 33 35  0  0  0  0  0  0  0  0999 V2000
   36.3350   28.3570   38.3240 C   0  0  0  0  0  0  0  0  0  0  0  0
   35.0430   28.6640   38.8380 C   0  0  0  0  0  0  0  0  0  0  0  0
   34.9360   29.1860   40.1250 C   0  0  0  0  0  0  0  0  0  0  0  0
   36.0830   29.3800   40.8370 N   0  0  0  0  0  0  0  0  0  0  0  0
   37.2860   29.0760   40.3130 C   0  0  0  0  0  0  0  0  0  0  0  0
   37.4100   28.5740   39.0760 N   0  0  0  0  0  0  0  0  0  0  0  0
   36.4740   27.9480   37.3260 H   0  0  0  0  0  0  0  0  0  0  0  0
   33.9620   29.4230   40.5270 H   0  0  0  0  0  0  0  0  0  0  0  0
   38.4100   31.6100   40.5080 F   0  0  0  0  0  0  0  0  0  0  0  0
   39.0120   30.6010   41.2060 C   0  0  0  0  0  0  0  0  0  0  0  0
   38.4720   29.3140   41.1300 C   0  0  0  0  0  0  0  0  0  0  0  0
   39.0360   28.2670   41.8080 C   0  0  0  0  0  0  0  0  0  0  0  0
   40.1700   28.5190   42.5820 C   0  0  0  0  0  0  0  0  0  0  0  0
   40.7240   29.8100   42.6680 C   0  0  0  0  0  0  0  0  0  0  0  0
   40.1330   30.8580   41.9690 C   0  0  0  0  0  0  0  0  0  0  0  0
   38.6150   27.2680   41.7480 H   0  0  0  0  0  0  0  0  0  0  0  0
   40.6150   27.6940   43.1190 H   0  0  0  0  0  0  0  0  0  0  0  0
   41.6120   29.9760   43.2820 H   0  0  0  0  0  0  0  0  0  0  0  0
   40.5390   31.8670   42.0160 H   0  0  0  0  0  0  0  0  0  0  0  0
   33.8760   28.4250   37.9940 C   0  0  0  0  0  3  0  0  0  0  0  0
   33.5440   29.1350   36.9330 C   0  0  0  0  0  3  0  0  0  0  0  0
   32.3110   28.7920   36.1480 C   0  0  0  0  0  0  0  0  0  0  0  0
   31.6030   28.2280   36.7840 H   0  0  0  0  0  0  0  0  0  0  0  0
   32.5580   28.2450   35.2170 H   0  0  0  0  0  0  0  0  0  0  0  0
   30.8020   30.1610   38.0060 F   0  0  0  0  0  0  0  0  0  0  0  0
   30.9600   30.6810   36.7530 C   0  0  0  0  0  0  0  0  0  0  0  0
   31.6950   30.0810   35.7390 C   0  0  0  0  0  0  0  0  0  0  0  0
   31.7680   30.7240   34.5180 C   0  0  0  0  0  0  0  0  0  0  0  0
   32.3550   30.1960   33.7880 H   0  0  0  0  0  0  0  0  0  0  0  0
   31.1200   31.9250   34.3320 C   0  0  0  0  0  0  0  0  0  0  0  0
   31.2040   32.3960   33.3560 H   0  0  0  0  0  0  0  0  0  0  0  0
   30.3850   32.5170   35.3590 C   0  0  0  0  0  3  0  0  0  0  0  0
   30.2990   31.8900   36.5900 C   0  0  0  0  0  3  0  0  0  0  0  0
  1  2  2  0  0  0  0
  1  6  1  0  0  0  0
  2  3  1  0  0  0  0
  3  8  1  0  0  0  0
  3  4  2  0  0  0  0
  5  4  1  0  0  0  0
  5 11  1  0  0  0  0
  6  5  2  0  0  0  0
  7  1  1  0  0  0  0
  9 10  1  0  0  0  0
 10 15  1  0  0  0  0
 11 10  2  0  0  0  0
 11 12  1  0  0  0  0
 12 13  2  0  0  0  0
 13 14  1  0  0  0  0
 13 17  1  0  0  0  0
 14 18  1  0  0  0  0
 15 19  1  0  0  0  0
 15 14  2  0  0  0  0
 16 12  1  0  0  0  0
 20  2  1  0  0  0  0
 21 20  2  0  0  0  0
 22 23  1  0  0  0  0
 22 21  1  0  0  0  0
 24 22  1  0  0  0  0
 26 25  1  0  0  0  0
 27 22  1  0  0  0  0
 27 26  2  0  0  0  0
 28 27  1  0  0  0  0
 29 28  1  0  0  0  0
 30 28  2  0  0  0  0
 30 32  1  0  0  0  0
 31 30  1  0  0  0  0
 32 33  2  0  0  0  0
 33 26  1  0  0  0  0
M  END
>  <minimizedAffinity>
-5.50442314

$$$$

 OpenBabel03252501493D

 33 35  0  0  0  0  0  0  0  0999 V2000
   38.1990   29.6040   42.1100 C   0  0  0  0  0  0  0  0  0  0  0  0
   37.6680   28.8890   40.9990 C   0  0  0  0  0  0  0  0  0  0  0  0
   37.6640   29.4970   39.7460 C   0  0  0  0  0  0  0  0  0  0  0  0
   38.1730   30.7580   39.6420 N   0  0  0  0  0  0  0  0  0  0  0  0
   38.6660   31.4000   40.7190 C   0  0  0  0  0  0  0  0  0  0  0  0
   38.6790   30.8320   41.9330 N   0  0  0  0  0  0  0  0  0  0  0  0
   38.2260   29.1760   43.1090 H   0  0  0  0  0  0  0  0  0  0  0  0
   37.2640   28.9650   38.8950 H   0  0  0  0  0  0  0  0  0  0  0  0
   41.4050   31.8610   40.6410 F   0  0  0  0  0  0  0  0  0  0  0  0
   40.5820   32.9430   40.4990 C   0  0  0  0  0  0  0  0  0  0  0  0
   39.1980   32.7460   40.5330 C   0  0  0  0  0  0  0  0  0  0  0  0
   38.3290   33.7940   40.3970 C   0  0  0  0  0  0  0  0  0  0  0  0
   38.8620   35.0720   40.2210 C   0  0  0  0  0  0  0  0  0  0  0  0
   40.2530   35.2850   40.1850 C   0  0  0  0  0  0  0  0  0  0  0  0
   41.1160   34.2030   40.3270 C   0  0  0  0  0  0  0  0  0  0  0  0
   37.2540   33.6400   40.4240 H   0  0  0  0  0  0  0  0  0  0  0  0
   38.1780   35.9010   40.1120 H   0  0  0  0  0  0  0  0  0  0  0  0
   40.6410   36.2970   40.0460 H   0  0  0  0  0  0  0  0  0  0  0  0
   42.1970   34.3370   40.3020 H   0  0  0  0  0  0  0  0  0  0  0  0
   37.1520   27.5400   41.2130 C   0  0  0  0  0  3  0  0  0  0  0  0
   37.5020   26.7370   42.1990 C   0  0  0  0  0  3  0  0  0  0  0  0
   36.9020   25.3650   42.3070 C   0  0  0  0  0  0  0  0  0  0  0  0
   35.8100   25.4160   42.1380 H   0  0  0  0  0  0  0  0  0  0  0  0
   37.1480   24.8870   43.2760 H   0  0  0  0  0  0  0  0  0  0  0  0
   35.2840   23.7070   40.8120 F   0  0  0  0  0  0  0  0  0  0  0  0
   36.6250   23.7450   40.5590 C   0  0  0  0  0  0  0  0  0  0  0  0
   37.5350   24.5390   41.2470 C   0  0  0  0  0  0  0  0  0  0  0  0
   38.8660   24.4740   40.8820 C   0  0  0  0  0  0  0  0  0  0  0  0
   39.5020   25.1180   41.4600 H   0  0  0  0  0  0  0  0  0  0  0  0
   39.2590   23.6360   39.8620 C   0  0  0  0  0  0  0  0  0  0  0  0
   40.3150   23.6160   39.6070 H   0  0  0  0  0  0  0  0  0  0  0  0
   38.3360   22.8430   39.1790 C   0  0  0  0  0  3  0  0  0  0  0  0
   36.9980   22.8940   39.5290 C   0  0  0  0  0  3  0  0  0  0  0  0
  1  7  1  0  0  0  0
  2 20  1  0  0  0  0
  2  1  2  0  0  0  0
  3  2  1  0  0  0  0
  4  3  2  0  0  0  0
  4  5  1  0  0  0  0
  5  6  2  0  0  0  0
  6  1  1  0  0  0  0
  8  3  1  0  0  0  0
 10 11  1  0  0  0  0
 10  9  1  0  0  0  0
 11  5  1  0  0  0  0
 12 16  1  0  0  0  0
 12 11  2  0  0  0  0
 13 12  1  0  0  0  0
 14 13  2  0  0  0  0
 14 15  1  0  0  0  0
 15 10  2  0  0  0  0
 17 13  1  0  0  0  0
 18 14  1  0  0  0  0
 19 15  1  0  0  0  0
 20 21  2  0  0  0  0
 21 22  1  0  0  0  0
 22 24  1  0  0  0  0
 23 22  1  0  0  0  0
 26 25  1  0  0  0  0
 26 27  1  0  0  0  0
 27 22  1  0  0  0  0
 28 27  2  0  0  0  0
 28 29  1  0  0  0  0
 30 28  1  0  0  0  0
 31 30  1  0  0  0  0
 32 33  1  0  0  0  0
 32 30  2  0  0  0  0
 33 26  2  0  0  0  0
M  END
>  <minimizedAffinity>
-5.40695429

$$$$

 OpenBabel03252501493D

 33 35  0  0  0  0  0  0  0  0999 V2000
   39.6600   29.6250   40.5810 C   0  0  0  0  0  0  0  0  0  0  0  0
   38.7950   30.7060   40.9110 C   0  0  0  0  0  0  0  0  0  0  0  0
   37.4700   30.4320   41.2410 C   0  0  0  0  0  0  0  0  0  0  0  0
   37.0620   29.1310   41.2330 N   0  0  0  0  0  0  0  0  0  0  0  0
   37.9130   28.1370   40.9150 C   0  0  0  0  0  0  0  0  0  0  0  0
   39.1920   28.3800   40.5950 N   0  0  0  0  0  0  0  0  0  0  0  0
   40.7030   29.7830   40.3160 H   0  0  0  0  0  0  0  0  0  0  0  0
   36.8030   31.2440   41.4940 H   0  0  0  0  0  0  0  0  0  0  0  0
   37.8850   26.6460   43.2590 F   0  0  0  0  0  0  0  0  0  0  0  0
   37.4090   26.0450   42.1270 C   0  0  0  0  0  0  0  0  0  0  0  0
   37.4090   26.7680   40.9300 C   0  0  0  0  0  0  0  0  0  0  0  0
   36.9450   26.2140   39.7680 C   0  0  0  0  0  0  0  0  0  0  0  0
   36.4680   24.9030   39.8080 C   0  0  0  0  0  0  0  0  0  0  0  0
   36.4620   24.1640   41.0060 C   0  0  0  0  0  0  0  0  0  0  0  0
   36.9400   24.7480   42.1750 C   0  0  0  0  0  0  0  0  0  0  0  0
   36.9450   26.7770   38.8390 H   0  0  0  0  0  0  0  0  0  0  0  0
   36.0990   24.4650   38.8920 H   0  0  0  0  0  0  0  0  0  0  0  0
   36.0820   23.1390   41.0060 H   0  0  0  0  0  0  0  0  0  0  0  0
   36.9480   24.2010   43.1160 H   0  0  0  0  0  0  0  0  0  0  0  0
   39.3300   32.0640   40.8970 C   0  0  0  0  0  3  0  0  0  0  0  0
   39.6480   32.7470   39.8140 C   0  0  0  0  0  3  0  0  0  0  0  0
   40.1970   34.1400   39.9310 C   0  0  0  0  0  0  0  0  0  0  0  0
   40.2760   34.4260   40.9960 H   0  0  0  0  0  0  0  0  0  0  0  0
   39.5960   34.8660   39.3510 H   0  0  0  0  0  0  0  0  0  0  0  0
   42.3760   33.8820   41.6010 F   0  0  0  0  0  0  0  0  0  0  0  0
   42.5700   33.9830   40.2530 C   0  0  0  0  0  0  0  0  0  0  0  0
   41.5510   34.1160   39.3180 C   0  0  0  0  0  0  0  0  0  0  0  0
   41.8960   34.2080   37.9840 C   0  0  0  0  0  0  0  0  0  0  0  0
   41.0520   34.3080   37.3270 H   0  0  0  0  0  0  0  0  0  0  0  0
   43.2220   34.1670   37.6120 C   0  0  0  0  0  0  0  0  0  0  0  0
   43.4490   34.2410   36.5520 H   0  0  0  0  0  0  0  0  0  0  0  0
   44.2370   34.0320   38.5600 C   0  0  0  0  0  3  0  0  0  0  0  0
   43.9120   33.9390   39.9020 C   0  0  0  0  0  3  0  0  0  0  0  0
  1  6  2  0  0  0  0
  1  2  1  0  0  0  0
  2  3  2  0  0  0  0
  3  8  1  0  0  0  0
  4  3  1  0  0  0  0
  5 11  1  0  0  0  0
  5  4  2  0  0  0  0
  6  5  1  0  0  0  0
  7  1  1  0  0  0  0
 10 15  1  0  0  0  0
 10  9  1  0  0  0  0
 11 10  2  0  0  0  0
 12 13  2  0  0  0  0
 12 11  1  0  0  0  0
 13 14  1  0  0  0  0
 14 15  2  0  0  0  0
 15 19  1  0  0  0  0
 16 12  1  0  0  0  0
 17 13  1  0  0  0  0
 18 14  1  0  0  0  0
 20  2  1  0  0  0  0
 21 22  1  0  0  0  0
 21 20  2  0  0  0  0
 22 23  1  0  0  0  0
 24 22  1  0  0  0  0
 26 25  1  0  0  0  0
 27 22  1  0  0  0  0
 27 26  2  0  0  0  0
 28 27  1  0  0  0  0
 29 28  1  0  0  0  0
 30 28  2  0  0  0  0
 30 32  1  0  0  0  0
 31 30  1  0  0  0  0
 32 33  2  0  0  0  0
 33 26  1  0  0  0  0
M  END
>  <minimizedAffinity>
-5.37239313

$$$$

 OpenBabel03252501493D

 33 35  0  0  0  0  0  0  0  0999 V2000
   34.4950   26.5080   37.4600 C   0  0  0  0  0  0  0  0  0  0  0  0
   35.5790   27.1080   38.1610 C   0  0  0  0  0  0  0  0  0  0  0  0
   35.6530   28.4970   38.2230 C   0  0  0  0  0  0  0  0  0  0  0  0
   34.6770   29.2220   37.6050 N   0  0  0  0  0  0  0  0  0  0  0  0
   33.6690   28.6140   36.9520 C   0  0  0  0  0  0  0  0  0  0  0  0
   33.5780   27.2780   36.8810 N   0  0  0  0  0  0  0  0  0  0  0  0
   34.3890   25.4280   37.3810 H   0  0  0  0  0  0  0  0  0  0  0  0
   36.4710   28.9660   38.7520 H   0  0  0  0  0  0  0  0  0  0  0  0
   31.5700   29.6910   38.4210 F   0  0  0  0  0  0  0  0  0  0  0  0
   31.6130   29.9770   37.0840 C   0  0  0  0  0  0  0  0  0  0  0  0
   32.6560   29.4510   36.3160 C   0  0  0  0  0  0  0  0  0  0  0  0
   32.7470   29.7060   34.9750 C   0  0  0  0  0  0  0  0  0  0  0  0
   31.7670   30.5100   34.3900 C   0  0  0  0  0  0  0  0  0  0  0  0
   30.7110   31.0460   35.1520 C   0  0  0  0  0  0  0  0  0  0  0  0
   30.6400   30.7720   36.5130 C   0  0  0  0  0  0  0  0  0  0  0  0
   33.5580   29.2970   34.3790 H   0  0  0  0  0  0  0  0  0  0  0  0
   31.8380   30.7140   33.3310 H   0  0  0  0  0  0  0  0  0  0  0  0
   29.9590   31.6710   34.6650 H   0  0  0  0  0  0  0  0  0  0  0  0
   29.8350   31.1730   37.1280 H   0  0  0  0  0  0  0  0  0  0  0  0
   36.5700   26.2450   38.7950 C   0  0  0  0  0  3  0  0  0  0  0  0
   36.5790   25.9010   40.0690 C   0  0  0  0  0  3  0  0  0  0  0  0
   37.6610   25.0090   40.6040 C   0  0  0  0  0  0  0  0  0  0  0  0
   38.4280   24.8370   39.8260 H   0  0  0  0  0  0  0  0  0  0  0  0
   37.2500   24.0580   40.9970 H   0  0  0  0  0  0  0  0  0  0  0  0
   39.5460   23.6750   42.1110 F   0  0  0  0  0  0  0  0  0  0  0  0
   39.2040   24.9550   42.4420 C   0  0  0  0  0  0  0  0  0  0  0  0
   38.2690   25.7220   41.7570 C   0  0  0  0  0  0  0  0  0  0  0  0
   38.0230   27.0050   42.2060 C   0  0  0  0  0  0  0  0  0  0  0  0
   37.2890   27.5310   41.6230 H   0  0  0  0  0  0  0  0  0  0  0  0
   38.6950   27.4910   43.3060 C   0  0  0  0  0  0  0  0  0  0  0  0
   38.4710   28.5050   43.6250 H   0  0  0  0  0  0  0  0  0  0  0  0
   39.6320   26.7110   43.9850 C   0  0  0  0  0  3  0  0  0  0  0  0
   39.8930   25.4230   43.5520 C   0  0  0  0  0  3  0  0  0  0  0  0
  1  2  1  0  0  0  0
  2  3  2  0  0  0  0
  2 20  1  0  0  0  0
  3  8  1  0  0  0  0
  4  3  1  0  0  0  0
  5  4  2  0  0  0  0
  6  5  1  0  0  0  0
  6  1  2  0  0  0  0
  7  1  1  0  0  0  0
 10  9  1  0  0  0  0
 11  5  1  0  0  0  0
 11 10  2  0  0  0  0
 12 11  1  0  0  0  0
 13 12  2  0  0  0  0
 13 14  1  0  0  0  0
 14 15  2  0  0  0  0
 15 10  1  0  0  0  0
 15 19  1  0  0  0  0
 16 12  1  0  0  0  0
 17 13  1  0  0  0  0
 18 14  1  0  0  0  0
 20 21  2  0  0  0  0
 21 22  1  0  0  0  0
 22 24  1  0  0  0  0
 22 27  1  0  0  0  0
 23 22  1  0  0  0  0
 25 26  1  0  0  0  0
 26 33  1  0  0  0  0
 27 28  1  0  0  0  0
 27 26  2  0  0  0  0
 28 30  2  0  0  0  0
 29 28  1  0  0  0  0
 30 31  1  0  0  0  0
 30 32  1  0  0  0  0
 33 32  2  0  0  0  0
M  END
>  <minimizedAffinity>
-5.3480835

$$$$

 OpenBabel03252501493D

 33 35  0  0  0  0  0  0  0  0999 V2000
   36.6120   28.7300   41.9110 C   0  0  0  0  0  0  0  0  0  0  0  0
   37.3610   27.7520   41.1980 C   0  0  0  0  0  0  0  0  0  0  0  0
   38.2830   28.1750   40.2430 C   0  0  0  0  0  0  0  0  0  0  0  0
   38.4250   29.5150   40.0360 N   0  0  0  0  0  0  0  0  0  0  0  0
   37.6960   30.4080   40.7330 C   0  0  0  0  0  0  0  0  0  0  0  0
   36.8040   30.0210   41.6560 N   0  0  0  0  0  0  0  0  0  0  0  0
   35.8790   28.4550   42.6670 H   0  0  0  0  0  0  0  0  0  0  0  0
   38.8590   27.4430   39.6940 H   0  0  0  0  0  0  0  0  0  0  0  0
   39.8000   31.7980   41.9010 F   0  0  0  0  0  0  0  0  0  0  0  0
   38.9710   32.4970   41.0660 C   0  0  0  0  0  0  0  0  0  0  0  0
   37.9030   31.8270   40.4620 C   0  0  0  0  0  0  0  0  0  0  0  0
   37.0430   32.4780   39.6200 C   0  0  0  0  0  0  0  0  0  0  0  0
   37.2620   33.8350   39.3770 C   0  0  0  0  0  0  0  0  0  0  0  0
   38.3340   34.5220   39.9780 C   0  0  0  0  0  0  0  0  0  0  0  0
   39.1930   33.8380   40.8320 C   0  0  0  0  0  0  0  0  0  0  0  0
   36.2140   31.9560   39.1510 H   0  0  0  0  0  0  0  0  0  0  0  0
   36.5850   34.3500   38.7100 H   0  0  0  0  0  0  0  0  0  0  0  0
   38.4790   35.5840   39.7690 H   0  0  0  0  0  0  0  0  0  0  0  0
   40.0310   34.3430   41.3110 H   0  0  0  0  0  0  0  0  0  0  0  0
   37.1400   26.3410   41.4970 C   0  0  0  0  0  3  0  0  0  0  0  0
   37.2550   25.3510   40.6320 C   0  0  0  0  0  3  0  0  0  0  0  0
   36.9940   23.9370   41.0620 C   0  0  0  0  0  0  0  0  0  0  0  0
   36.3150   23.9260   41.9350 H   0  0  0  0  0  0  0  0  0  0  0  0
   37.9360   23.3900   41.2640 H   0  0  0  0  0  0  0  0  0  0  0  0
   38.5960   22.5740   39.2790 F   0  0  0  0  0  0  0  0  0  0  0  0
   37.2450   22.6030   39.0830 C   0  0  0  0  0  0  0  0  0  0  0  0
   36.3420   23.2560   39.9130 C   0  0  0  0  0  0  0  0  0  0  0  0
   35.0000   23.2020   39.5900 C   0  0  0  0  0  0  0  0  0  0  0  0
   34.3700   23.7310   40.2800 H   0  0  0  0  0  0  0  0  0  0  0  0
   34.5900   22.5140   38.4700 C   0  0  0  0  0  0  0  0  0  0  0  0
   33.5250   22.4960   38.2530 H   0  0  0  0  0  0  0  0  0  0  0  0
   35.5060   21.8610   37.6440 C   0  0  0  0  0  3  0  0  0  0  0  0
   36.8550   21.9040   37.9490 C   0  0  0  0  0  3  0  0  0  0  0  0
  1  7  1  0  0  0  0
  2 20  1  0  0  0  0
  2  1  2  0  0  0  0
  3  2  1  0  0  0  0
  4  3  2  0  0  0  0
  4  5  1  0  0  0  0
  5  6  2  0  0  0  0
  6  1  1  0  0  0  0
  8  3  1  0  0  0  0
 10  9  1  0  0  0  0
 11  5  1  0  0  0  0
 11 10  2  0  0  0  0
 12 11  1  0  0  0  0
 13 12  2  0  0  0  0
 13 14  1  0  0  0  0
 14 15  2  0  0  0  0
 15 10  1  0  0  0  0
 15 19  1  0  0  0  0
 16 12  1  0  0  0  0
 17 13  1  0  0  0  0
 18 14  1  0  0  0  0
 21 22  1  0  0  0  0
 21 20  2  0  0  0  0
 22 24  1  0  0  0  0
 22 23  1  0  0  0  0
 26 25  1  0  0  0  0
 26 27  1  0  0  0  0
 27 22  1  0  0  0  0
 28 27  2  0  0  0  0
 28 29  1  0  0  0  0
 30 28  1  0  0  0  0
 31 30  1  0  0  0  0
 32 33  1  0  0  0  0
 32 30  2  0  0  0  0
 33 26  2  0  0  0  0
M  END
>  <minimizedAffinity>
-5.2814827

$$$$
