
 OpenBabel03252509283D

 21 22  0  0  0  0  0  0  0  0999 V2000
   47.1010   35.0870   41.8490 C   0  0  0  0  0  0  0  0  0  0  0  0
   48.1840   35.0760   42.1670 H   0  0  0  0  0  0  0  0  0  0  0  0
   46.8380   35.9930   41.2970 H   0  0  0  0  0  0  0  0  0  0  0  0
   44.5760   35.9100   44.4560 C   0  0  0  0  0  0  0  0  0  0  0  0
   45.3450   35.9780   43.2760 C   0  0  0  0  0  0  0  0  0  0  0  0
   46.3220   34.9870   43.0830 C   0  0  0  0  0  0  0  0  0  0  0  0
   46.4720   34.0260   44.0310 N   0  0  0  0  0  0  0  0  0  0  0  0
   45.7150   33.9970   45.1460 C   0  0  0  0  0  0  0  0  0  0  0  0
   44.7760   34.9410   45.3430 N   0  0  0  0  0  0  0  0  0  0  0  0
   43.8310   36.6870   44.5790 H   0  0  0  0  0  0  0  0  0  0  0  0
   45.1840   36.7680   42.5510 H   0  0  0  0  0  0  0  0  0  0  0  0
   45.8580   33.2170   45.8880 H   0  0  0  0  0  0  0  0  0  0  0  0
   49.0860   33.1670   41.4140 F   0  0  0  0  0  0  0  0  0  0  0  0
   47.9290   32.9640   40.7070 C   0  0  0  0  0  0  0  0  0  0  0  0
   46.9500   33.9350   40.9400 C   0  0  0  0  0  0  0  0  0  0  0  0
   45.7690   33.7730   40.2520 C   0  0  0  0  0  0  0  0  0  0  0  0
   44.9300   34.4480   40.3370 H   0  0  0  0  0  0  0  0  0  0  0  0
   45.5620   32.7100   39.3790 C   0  0  0  0  0  0  0  0  0  0  0  0
   44.6370   32.5670   38.8290 H   0  0  0  0  0  0  0  0  0  0  0  0
   46.5300   31.7660   39.1620 C   0  0  0  0  0  3  0  0  0  0  0  0
   47.7240   31.9100   39.8440 C   0  0  0  0  0  3  0  0  0  0  0  0
  1  2  1  0  0  0  0
  1  6  1  0  0  0  0
  3  1  1  0  0  0  0
  4 10  1  0  0  0  0
  4  9  1  0  0  0  0
  5  4  2  0  0  0  0
  6  5  1  0  0  0  0
  6  7  2  0  0  0  0
  7  8  1  0  0  0  0
  8  9  2  0  0  0  0
  8 12  1  0  0  0  0
 11  5  1  0  0  0  0
 14 15  1  0  0  0  0
 14 13  1  0  0  0  0
 15  1  1  0  0  0  0
 16 17  1  0  0  0  0
 16 15  2  0  0  0  0
 18 16  1  0  0  0  0
 19 18  1  0  0  0  0
 20 18  2  0  0  0  0
 20 21  1  0  0  0  0
 21 14  2  0  0  0  0
M  END
>  <minimizedAffinity>
-3.87638831

>  <minimizedRMSD>
1.37955117

$$$$
