
 OpenBabel03242518543D

 42 44  0  0  1  0  0  0  0  0999 V2000
   45.7770   31.2470   46.6290 C   0  0  2  0  0  0  0  0  0  0  0  0
   45.8890   30.4660   47.9000 C   0  0  0  0  0  0  0  0  0  0  0  0
   45.0880   29.2210   47.7230 C   0  0  0  0  0  0  0  0  0  0  0  0
   44.3520   29.1050   46.4290 C   0  0  0  0  0  0  0  0  0  0  0  0
   45.2860   29.2780   45.2610 C   0  0  0  0  0  0  0  0  0  0  0  0
   46.2240   30.3720   45.4760 C   0  0  2  0  0  0  0  0  0  0  0  0
   44.7000   31.4370   46.4170 H   0  0  0  0  0  0  0  0  0  0  0  0
   45.5170   31.1000   48.7450 H   0  0  0  0  0  0  0  0  0  0  0  0
   46.9260   30.2170   48.1600 H   0  0  0  0  0  0  0  0  0  0  0  0
   45.6230   28.2770   47.9800 H   0  0  0  0  0  0  0  0  0  0  0  0
   44.2730   29.2540   48.5100 H   0  0  0  0  0  0  0  0  0  0  0  0
   43.4740   29.7750   46.3740 H   0  0  0  0  0  0  0  0  0  0  0  0
   43.9580   28.0730   46.3690 H   0  0  0  0  0  0  0  0  0  0  0  0
   44.6120   29.5690   44.3990 H   0  0  0  0  0  0  0  0  0  0  0  0
   45.6990   28.3010   44.9420 H   0  0  0  0  0  0  0  0  0  0  0  0
   46.3620   31.0300   44.5950 H   0  0  0  0  0  0  0  0  0  0  0  0
   47.5350   29.7310   45.7970 C   0  0  0  0  0  0  0  0  0  0  0  0
   47.9610   30.0720   46.7710 H   0  0  0  0  0  0  0  0  0  0  0  0
   47.4550   28.6270   45.8490 H   0  0  0  0  0  0  0  0  0  0  0  0
   49.9740   28.5000   46.0220 F   0  0  0  0  0  0  0  0  0  0  0  0
   49.7270   29.2860   44.9460 C   0  0  0  0  0  0  0  0  0  0  0  0
   48.5470   29.9670   44.7060 C   0  0  0  0  0  0  0  0  0  0  0  0
   48.3570   30.7510   43.5910 C   0  0  0  0  0  0  0  0  0  0  0  0
   47.3980   31.2390   43.4930 H   0  0  0  0  0  0  0  0  0  0  0  0
   49.4140   30.8280   42.7090 C   0  0  0  0  0  0  0  0  0  0  0  0
   49.2770   31.4380   41.8320 H   0  0  0  0  0  0  0  0  0  0  0  0
   50.5970   30.1590   42.9270 C   0  0  0  0  0  0  0  0  0  0  0  0
   50.7730   29.3750   44.0520 C   0  0  0  0  0  0  0  0  0  0  0  0
   46.4680   32.5590   46.6580 C   0  0  0  0  0  0  0  0  0  0  0  0
   47.3940   32.8250   47.4540 O   0  0  0  0  0  0  0  0  0  0  0  0
   44.6180   35.3220   45.1450 C   0  0  0  0  0  0  0  0  0  0  0  0
   45.1630   35.4370   43.8360 C   0  0  0  0  0  0  0  0  0  0  0  0
   46.1720   34.5460   43.5140 C   0  0  0  0  0  0  0  0  0  0  0  0
   46.5110   33.6840   44.4780 N   0  0  0  0  0  0  0  0  0  0  0  0
   46.0110   33.5710   45.6910 C   0  0  0  0  0  0  0  0  0  0  0  0
   45.0310   34.4240   46.0280 N   0  0  0  0  0  0  0  0  0  0  0  0
   43.8190   36.0480   45.3610 H   0  0  0  0  0  0  0  0  0  0  0  0
   44.8190   36.1710   43.1250 H   0  0  0  0  0  0  0  0  0  0  0  0
   46.7360   34.6470   42.1750 C   0  0  0  0  0  0  0  0  0  0  0  0
   47.4630   33.5050   41.8850 F   0  0  0  0  0  0  0  0  0  0  0  0
   47.5690   35.7180   42.1820 F   0  0  0  0  0  0  0  0  0  0  0  0
   45.7490   34.7280   41.2000 F   0  0  0  0  0  0  0  0  0  0  0  0
  1  7  1  6  0  0  0
  1 29  1  0  0  0  0
  1  2  1  0  0  0  0
  2  9  1  0  0  0  0
  2  8  1  0  0  0  0
  3  2  1  0  0  0  0
  3 10  1  0  0  0  0
  3 11  1  0  0  0  0
  4  3  1  0  0  0  0
  5  6  1  0  0  0  0
  5  4  1  0  0  0  0
  6 16  1  6  0  0  0
  6 17  1  0  0  0  0
  6  1  1  0  0  0  0
 12  4  1  0  0  0  0
 13  4  1  0  0  0  0
 14  5  1  0  0  0  0
 15  5  1  0  0  0  0
 17 19  1  0  0  0  0
 17 18  1  0  0  0  0
 21 20  1  0  0  0  0
 22 21  1  0  0  0  0
 22 17  1  0  0  0  0
 23 22  2  0  0  0  0
 24 23  1  0  0  0  0
 25 27  2  0  0  0  0
 25 23  1  0  0  0  0
 26 25  1  0  0  0  0
 27 28  1  0  0  0  0
 28 21  2  0  0  0  0
 29 30  2  0  0  0  0
 31 37  1  0  0  0  0
 31 36  1  0  0  0  0
 32 31  2  0  0  0  0
 33 32  1  0  0  0  0
 33 34  2  0  0  0  0
 34 35  1  0  0  0  0
 35 36  2  0  0  0  0
 35 29  1  0  0  0  0
 38 32  1  0  0  0  0
 39 41  1  0  0  0  0
 39 33  1  0  0  0  0
 40 39  1  0  0  0  0
 42 39  1  0  0  0  0
M  END
>  <minimizedAffinity>
-5.50735807

>  <minimizedRMSD>
1.33891952

$$$$
