
 OpenBabel03252509293D

 21 22  0  0  0  0  0  0  0  0999 V2000
   46.9670   35.0540   42.0100 C   0  0  0  0  0  0  0  0  0  0  0  0
   47.9620   34.5590   42.2040 H   0  0  0  0  0  0  0  0  0  0  0  0
   47.0730   36.1000   41.7090 H   0  0  0  0  0  0  0  0  0  0  0  0
   44.5490   35.9000   44.7080 C   0  0  0  0  0  0  0  0  0  0  0  0
   45.2880   35.9730   43.5110 C   0  0  0  0  0  0  0  0  0  0  0  0
   46.2160   34.9480   43.2600 C   0  0  0  0  0  0  0  0  0  0  0  0
   46.3490   33.9520   44.1740 N   0  0  0  0  0  0  0  0  0  0  0  0
   45.6210   33.9190   45.3080 C   0  0  0  0  0  0  0  0  0  0  0  0
   44.7290   34.8950   45.5600 N   0  0  0  0  0  0  0  0  0  0  0  0
   43.8410   36.7030   44.8760 H   0  0  0  0  0  0  0  0  0  0  0  0
   45.1430   36.7920   42.8150 H   0  0  0  0  0  0  0  0  0  0  0  0
   45.7490   33.1090   46.0200 H   0  0  0  0  0  0  0  0  0  0  0  0
   48.4510   33.9610   39.9060 F   0  0  0  0  0  0  0  0  0  0  0  0
   47.0970   33.7560   39.8200 C   0  0  0  0  0  0  0  0  0  0  0  0
   46.3760   34.3100   40.8800 C   0  0  0  0  0  0  0  0  0  0  0  0
   45.0120   34.1290   40.8380 C   0  0  0  0  0  0  0  0  0  0  0  0
   44.3350   34.5040   41.5910 H   0  0  0  0  0  0  0  0  0  0  0  0
   44.3910   33.4370   39.8020 C   0  0  0  0  0  0  0  0  0  0  0  0
   43.3180   33.2850   39.7520 H   0  0  0  0  0  0  0  0  0  0  0  0
   45.1120   32.9000   38.7700 C   0  0  0  0  0  3  0  0  0  0  0  0
   46.4840   33.0710   38.7940 C   0  0  0  0  0  3  0  0  0  0  0  0
  1  2  1  0  0  0  0
  1  6  1  0  0  0  0
  3  1  1  0  0  0  0
  4 10  1  0  0  0  0
  4  9  1  0  0  0  0
  5  4  2  0  0  0  0
  6  5  1  0  0  0  0
  6  7  2  0  0  0  0
  7  8  1  0  0  0  0
  8  9  2  0  0  0  0
  8 12  1  0  0  0  0
 11  5  1  0  0  0  0
 14 13  1  0  0  0  0
 14 15  1  0  0  0  0
 15  1  1  0  0  0  0
 16 15  2  0  0  0  0
 16 17  1  0  0  0  0
 18 16  1  0  0  0  0
 19 18  1  0  0  0  0
 20 21  1  0  0  0  0
 20 18  2  0  0  0  0
 21 14  2  0  0  0  0
M  END
>  <minimizedAffinity>
-4.24758053

>  <minimizedRMSD>
0.468465537

$$$$
