
 OpenBabel03252509033D

 48 50  0  0  1  0  0  0  0  0999 V2000
   46.7570   34.3510   43.6500 N   0  0  0  0  0  0  0  0  0  0  0  0
   46.4020   35.2600   42.6310 C   0  0  0  0  0  0  0  0  0  0  0  0
   44.9110   35.4550   42.4470 C   0  0  0  0  0  0  0  0  0  0  0  0
   44.1010   35.3220   43.7180 C   0  0  0  0  0  0  0  0  0  0  0  0
   45.0080   35.1620   44.9290 C   0  0  0  0  0  0  0  0  0  0  0  0
   45.8510   33.8790   44.5660 C   0  0  2  0  0  0  0  0  0  0  0  0
   46.8100   36.2710   42.9240 H   0  0  0  0  0  0  0  0  0  0  0  0
   46.8130   35.0710   41.6360 H   0  0  0  0  0  0  0  0  0  0  0  0
   44.5110   34.8070   41.6200 H   0  0  0  0  0  0  0  0  0  0  0  0
   44.7290   36.4930   42.0770 H   0  0  0  0  0  0  0  0  0  0  0  0
   43.3400   36.0990   43.8350 H   0  0  0  0  0  0  0  0  0  0  0  0
   43.5470   34.3580   43.6290 H   0  0  0  0  0  0  0  0  0  0  0  0
   44.3710   34.9220   45.8000 H   0  0  0  0  0  0  0  0  0  0  0  0
   45.6970   36.0050   45.0700 H   0  0  0  0  0  0  0  0  0  0  0  0
   45.1200   33.1060   44.2430 H   0  0  0  0  0  0  0  0  0  0  0  0
   47.8950   33.5160   43.3190 C   0  0  0  0  0  0  0  0  0  0  0  0
   48.3380   33.1160   44.2570 H   0  0  0  0  0  0  0  0  0  0  0  0
   48.6610   34.1000   42.7990 H   0  0  0  0  0  0  0  0  0  0  0  0
   47.4110   32.3580   42.5120 C   0  0  0  0  0  0  0  0  0  0  0  0
   47.4400   31.3910   43.0430 H   0  0  0  0  0  0  0  0  0  0  0  0
   46.3500   32.5090   42.1880 H   0  0  0  0  0  0  0  0  0  0  0  0
   50.1150   31.5080   40.0410 C   0  0  0  0  0  0  0  0  0  0  0  0
   49.3700   31.5840   41.2310 C   0  0  0  0  0  0  0  0  0  0  0  0
   48.1920   32.2820   41.2470 C   0  0  0  0  0  0  0  0  0  0  0  0
   47.8090   32.8640   40.1030 N   0  0  0  0  0  0  0  0  0  0  0  0
   48.5180   32.7910   38.9710 C   0  0  0  0  0  0  0  0  0  0  0  0
   49.6760   32.1150   38.9210 N   0  0  0  0  0  0  0  0  0  0  0  0
   51.0210   30.9310   40.1590 H   0  0  0  0  0  0  0  0  0  0  0  0
   49.6950   31.1040   42.1580 H   0  0  0  0  0  0  0  0  0  0  0  0
   48.2330   33.2490   38.0380 H   0  0  0  0  0  0  0  0  0  0  0  0
   46.4250   33.5780   45.7900 O   0  0  0  0  0  0  0  0  0  0  0  0
   45.5030   31.1650   45.1490 O   0  0  0  0  0  0  0  0  0  0  0  0
   46.1240   31.9910   46.2810 P   0  0  2  0  0  0  0  0  0  0  0  0
   44.9330   32.0950   47.4870 O   0  0  0  0  0  0  0  0  0  0  0  0
   45.3120   32.5380   48.2780 H   0  0  0  0  0  0  0  0  0  0  0  0
   47.4810   31.2650   46.9380 O   0  0  0  0  0  0  0  0  0  0  0  0
   47.9450   30.3150   46.0160 C   0  0  0  0  0  0  0  0  0  0  0  0
   47.1300   30.0260   45.3140 H   0  0  0  0  0  0  0  0  0  0  0  0
   48.7990   30.6650   45.4280 H   0  0  0  0  0  0  0  0  0  0  0  0
   46.1390   28.2760   46.3070 F   0  0  0  0  0  0  0  0  0  0  0  0
   47.3660   28.1480   46.8870 C   0  0  0  0  0  0  0  0  0  0  0  0
   48.3640   29.1270   46.7980 C   0  0  0  0  0  0  0  0  0  0  0  0
   49.5660   28.8840   47.4260 C   0  0  0  0  0  0  0  0  0  0  0  0
   50.2710   29.6820   47.3090 H   0  0  0  0  0  0  0  0  0  0  0  0
   49.7860   27.7140   48.1220 C   0  0  0  0  0  0  0  0  0  0  0  0
   50.7290   27.5690   48.5920 H   0  0  0  0  0  0  0  0  0  0  0  0
   48.8110   26.7260   48.2250 C   0  0  0  0  0  3  0  0  0  0  0  0
   47.6190   26.9850   47.5930 C   0  0  0  0  0  3  0  0  0  0  0  0
  1  6  1  0  0  0  0
  2  7  1  0  0  0  0
  2  1  1  0  0  0  0
  3  2  1  0  0  0  0
  3  4  1  0  0  0  0
  4 11  1  0  0  0  0
  4  5  1  0  0  0  0
  5 14  1  0  0  0  0
  5 13  1  0  0  0  0
  6 15  1  6  0  0  0
  6  5  1  0  0  0  0
  6 31  1  0  0  0  0
  8  2  1  0  0  0  0
  9  3  1  0  0  0  0
 10  3  1  0  0  0  0
 12  4  1  0  0  0  0
 16  1  1  0  0  0  0
 16 17  1  0  0  0  0
 18 16  1  0  0  0  0
 19 20  1  0  0  0  0
 19 16  1  0  0  0  0
 21 19  1  0  0  0  0
 22 28  1  0  0  0  0
 22 23  1  0  0  0  0
 23 24  2  0  0  0  0
 23 29  1  0  0  0  0
 24 19  1  0  0  0  0
 25 24  1  0  0  0  0
 26 25  2  0  0  0  0
 27 26  1  0  0  0  0
 27 22  2  0  0  0  0
 30 26  1  0  0  0  0
 31 33  1  0  0  0  0
 33 32  2  6  0  0  0
 33 36  1  0  0  0  0
 33 34  1  0  0  0  0
 34 35  1  0  0  0  0
 37 42  1  0  0  0  0
 37 36  1  0  0  0  0
 38 37  1  0  0  0  0
 39 37  1  0  0  0  0
 40 41  1  0  0  0  0
 41 48  1  0  0  0  0
 42 41  2  0  0  0  0
 42 43  1  0  0  0  0
 43 45  2  0  0  0  0
 44 43  1  0  0  0  0
 45 47  1  0  0  0  0
 45 46  1  0  0  0  0
 48 47  2  0  0  0  0
M  END
>  <minimizedAffinity>
-4.2807889

>  <minimizedRMSD>
1.61506915

$$$$
