
 OpenBabel03252509033D

 48 50  0  0  1  0  0  0  0  0999 V2000
   46.8340   34.2980   43.6380 N   0  0  0  0  0  0  0  0  0  0  0  0
   46.5510   35.1040   42.5140 C   0  0  0  0  0  0  0  0  0  0  0  0
   45.0770   35.2650   42.2050 C   0  0  0  0  0  0  0  0  0  0  0  0
   44.1760   35.2420   43.4200 C   0  0  0  0  0  0  0  0  0  0  0  0
   44.9920   35.2060   44.7030 C   0  0  0  0  0  0  0  0  0  0  0  0
   45.8650   33.9040   44.5250 C   0  0  2  0  0  0  0  0  0  0  0  0
   46.9320   36.1430   42.7400 H   0  0  0  0  0  0  0  0  0  0  0  0
   47.0360   34.8280   41.5750 H   0  0  0  0  0  0  0  0  0  0  0  0
   44.7420   34.5380   41.4150 H   0  0  0  0  0  0  0  0  0  0  0  0
   44.9190   36.2620   41.7270 H   0  0  0  0  0  0  0  0  0  0  0  0
   43.4060   36.0190   43.4070 H   0  0  0  0  0  0  0  0  0  0  0  0
   43.6340   34.2680   43.3810 H   0  0  0  0  0  0  0  0  0  0  0  0
   44.2930   35.0410   45.5440 H   0  0  0  0  0  0  0  0  0  0  0  0
   45.6650   36.0660   44.8150 H   0  0  0  0  0  0  0  0  0  0  0  0
   45.1620   33.0960   44.2230 H   0  0  0  0  0  0  0  0  0  0  0  0
   47.9970   33.4490   43.4710 C   0  0  0  0  0  0  0  0  0  0  0  0
   48.2160   32.9390   44.4340 H   0  0  0  0  0  0  0  0  0  0  0  0
   48.8700   34.0450   43.1900 H   0  0  0  0  0  0  0  0  0  0  0  0
   47.6710   32.3980   42.4620 C   0  0  0  0  0  0  0  0  0  0  0  0
   47.2460   31.4740   42.8900 H   0  0  0  0  0  0  0  0  0  0  0  0
   46.9250   32.7740   41.7160 H   0  0  0  0  0  0  0  0  0  0  0  0
   51.2270   31.5600   41.5720 C   0  0  0  0  0  0  0  0  0  0  0  0
   50.0700   31.8500   42.3160 C   0  0  0  0  0  0  0  0  0  0  0  0
   48.8900   32.0910   41.6640 C   0  0  0  0  0  0  0  0  0  0  0  0
   48.9070   32.0350   40.3260 N   0  0  0  0  0  0  0  0  0  0  0  0
   50.0080   31.7590   39.6190 C   0  0  0  0  0  0  0  0  0  0  0  0
   51.1800   31.5170   40.2260 N   0  0  0  0  0  0  0  0  0  0  0  0
   52.0890   31.3910   42.2010 H   0  0  0  0  0  0  0  0  0  0  0  0
   50.0710   31.8930   43.4090 H   0  0  0  0  0  0  0  0  0  0  0  0
   50.0490   31.7080   38.5430 H   0  0  0  0  0  0  0  0  0  0  0  0
   46.3470   33.7240   45.8110 O   0  0  0  0  0  0  0  0  0  0  0  0
   45.5440   31.2400   45.2980 O   0  0  0  0  0  0  0  0  0  0  0  0
   46.0900   32.1610   46.3950 P   0  0  2  0  0  0  0  0  0  0  0  0
   44.8510   32.2950   47.5490 O   0  0  0  0  0  0  0  0  0  0  0  0
   45.1830   32.8020   48.3210 H   0  0  0  0  0  0  0  0  0  0  0  0
   47.4480   31.5360   47.1440 O   0  0  0  0  0  0  0  0  0  0  0  0
   47.3860   30.1380   47.0430 C   0  0  0  0  0  0  0  0  0  0  0  0
   47.0530   29.6940   48.0070 H   0  0  0  0  0  0  0  0  0  0  0  0
   46.7110   29.7920   46.2520 H   0  0  0  0  0  0  0  0  0  0  0  0
   48.0270   29.7290   44.4130 F   0  0  0  0  0  0  0  0  0  0  0  0
   48.9780   29.4900   45.3600 C   0  0  0  0  0  0  0  0  0  0  0  0
   48.7580   29.6680   46.7320 C   0  0  0  0  0  0  0  0  0  0  0  0
   49.7960   29.3950   47.5940 C   0  0  0  0  0  0  0  0  0  0  0  0
   49.5430   29.5580   48.6230 H   0  0  0  0  0  0  0  0  0  0  0  0
   51.0170   28.9560   47.1280 C   0  0  0  0  0  0  0  0  0  0  0  0
   51.7910   28.7560   47.8300 H   0  0  0  0  0  0  0  0  0  0  0  0
   51.2620   28.7690   45.7710 C   0  0  0  0  0  3  0  0  0  0  0  0
   50.2150   29.0480   44.9250 C   0  0  0  0  0  3  0  0  0  0  0  0
  1  6  1  0  0  0  0
  2  7  1  0  0  0  0
  2  1  1  0  0  0  0
  3  2  1  0  0  0  0
  3  4  1  0  0  0  0
  4  5  1  0  0  0  0
  5 14  1  0  0  0  0
  5 13  1  0  0  0  0
  6 15  1  6  0  0  0
  6  5  1  0  0  0  0
  6 31  1  0  0  0  0
  8  2  1  0  0  0  0
  9  3  1  0  0  0  0
 10  3  1  0  0  0  0
 11  4  1  0  0  0  0
 12  4  1  0  0  0  0
 16  1  1  0  0  0  0
 16 17  1  0  0  0  0
 18 16  1  0  0  0  0
 19 20  1  0  0  0  0
 19 16  1  0  0  0  0
 21 19  1  0  0  0  0
 22 28  1  0  0  0  0
 22 23  1  0  0  0  0
 23 29  1  0  0  0  0
 24 23  2  0  0  0  0
 24 19  1  0  0  0  0
 25 24  1  0  0  0  0
 26 27  1  0  0  0  0
 26 25  2  0  0  0  0
 27 22  2  0  0  0  0
 30 26  1  0  0  0  0
 31 33  1  0  0  0  0
 33 32  2  6  0  0  0
 33 36  1  0  0  0  0
 33 34  1  0  0  0  0
 34 35  1  0  0  0  0
 37 36  1  0  0  0  0
 37 38  1  0  0  0  0
 39 37  1  0  0  0  0
 40 41  1  0  0  0  0
 41 42  1  0  0  0  0
 42 37  1  0  0  0  0
 42 43  2  0  0  0  0
 43 44  1  0  0  0  0
 45 43  1  0  0  0  0
 45 46  1  0  0  0  0
 47 45  2  0  0  0  0
 48 41  2  0  0  0  0
 48 47  1  0  0  0  0
M  END
>  <minimizedAffinity>
-4.41334248

>  <minimizedRMSD>
2.1878612

$$$$
