
 OpenBabel03252509043D

 48 50  0  0  1  0  0  0  0  0999 V2000
   46.7790   34.3540   43.6310 N   0  0  0  0  0  0  0  0  0  0  0  0
   46.4120   35.2680   42.6210 C   0  0  0  0  0  0  0  0  0  0  0  0
   44.9190   35.4460   42.4380 C   0  0  0  0  0  0  0  0  0  0  0  0
   44.1100   35.2900   43.7070 C   0  0  0  0  0  0  0  0  0  0  0  0
   45.0190   35.1300   44.9170 C   0  0  0  0  0  0  0  0  0  0  0  0
   45.8790   33.8610   44.5410 C   0  0  2  0  0  0  0  0  0  0  0  0
   46.8070   36.2820   42.9240 H   0  0  0  0  0  0  0  0  0  0  0  0
   46.8260   35.0950   41.6240 H   0  0  0  0  0  0  0  0  0  0  0  0
   44.5280   34.8010   41.6050 H   0  0  0  0  0  0  0  0  0  0  0  0
   44.7240   36.4850   42.0790 H   0  0  0  0  0  0  0  0  0  0  0  0
   43.3400   36.0560   43.8320 H   0  0  0  0  0  0  0  0  0  0  0  0
   43.5680   34.3200   43.6090 H   0  0  0  0  0  0  0  0  0  0  0  0
   44.3850   34.8720   45.7860 H   0  0  0  0  0  0  0  0  0  0  0  0
   45.6970   35.9800   45.0680 H   0  0  0  0  0  0  0  0  0  0  0  0
   45.1580   33.0820   44.2100 H   0  0  0  0  0  0  0  0  0  0  0  0
   47.9280   33.5370   43.2920 C   0  0  0  0  0  0  0  0  0  0  0  0
   48.3910   33.1550   44.2270 H   0  0  0  0  0  0  0  0  0  0  0  0
   48.6750   34.1300   42.7560 H   0  0  0  0  0  0  0  0  0  0  0  0
   47.4540   32.3620   42.5030 C   0  0  0  0  0  0  0  0  0  0  0  0
   47.5620   31.3940   43.0220 H   0  0  0  0  0  0  0  0  0  0  0  0
   46.3690   32.4620   42.2440 H   0  0  0  0  0  0  0  0  0  0  0  0
   50.0240   31.6310   39.8580 C   0  0  0  0  0  0  0  0  0  0  0  0
   49.3490   31.6620   41.0910 C   0  0  0  0  0  0  0  0  0  0  0  0
   48.1610   32.3350   41.1940 C   0  0  0  0  0  0  0  0  0  0  0  0
   47.7000   32.9370   40.0890 N   0  0  0  0  0  0  0  0  0  0  0  0
   48.3440   32.9070   38.9170 C   0  0  0  0  0  0  0  0  0  0  0  0
   49.5090   32.2570   38.7820 N   0  0  0  0  0  0  0  0  0  0  0  0
   50.9480   31.0710   39.9090 H   0  0  0  0  0  0  0  0  0  0  0  0
   49.7370   31.1660   41.9850 H   0  0  0  0  0  0  0  0  0  0  0  0
   47.9950   33.3830   38.0150 H   0  0  0  0  0  0  0  0  0  0  0  0
   46.4560   33.5550   45.7630 O   0  0  0  0  0  0  0  0  0  0  0  0
   45.5200   31.1480   45.1210 O   0  0  0  0  0  0  0  0  0  0  0  0
   46.1480   31.9680   46.2530 P   0  0  2  0  0  0  0  0  0  0  0  0
   44.9620   32.0770   47.4630 O   0  0  0  0  0  0  0  0  0  0  0  0
   45.3460   32.5170   48.2530 H   0  0  0  0  0  0  0  0  0  0  0  0
   47.5040   31.2350   46.9030 O   0  0  0  0  0  0  0  0  0  0  0  0
   47.9760   30.3040   45.9660 C   0  0  0  0  0  0  0  0  0  0  0  0
   47.1290   29.8700   45.3910 H   0  0  0  0  0  0  0  0  0  0  0  0
   48.6930   30.7310   45.2570 H   0  0  0  0  0  0  0  0  0  0  0  0
   46.4600   28.1780   46.7910 F   0  0  0  0  0  0  0  0  0  0  0  0
   47.7860   28.1930   47.1070 C   0  0  0  0  0  0  0  0  0  0  0  0
   48.6520   29.2290   46.7320 C   0  0  0  0  0  0  0  0  0  0  0  0
   49.9740   29.1350   47.1090 C   0  0  0  0  0  0  0  0  0  0  0  0
   50.5650   29.9660   46.7830 H   0  0  0  0  0  0  0  0  0  0  0  0
   50.4350   28.0560   47.8320 C   0  0  0  0  0  0  0  0  0  0  0  0
   51.4650   28.0230   48.1030 H   0  0  0  0  0  0  0  0  0  0  0  0
   49.5960   27.0140   48.2170 C   0  0  0  0  0  3  0  0  0  0  0  0
   48.2820   27.1260   47.8320 C   0  0  0  0  0  3  0  0  0  0  0  0
  1  6  1  0  0  0  0
  2  7  1  0  0  0  0
  2  1  1  0  0  0  0
  3  2  1  0  0  0  0
  3  4  1  0  0  0  0
  4 11  1  0  0  0  0
  4  5  1  0  0  0  0
  5 14  1  0  0  0  0
  5 13  1  0  0  0  0
  6 15  1  6  0  0  0
  6  5  1  0  0  0  0
  6 31  1  0  0  0  0
  8  2  1  0  0  0  0
  9  3  1  0  0  0  0
 10  3  1  0  0  0  0
 12  4  1  0  0  0  0
 16  1  1  0  0  0  0
 16 17  1  0  0  0  0
 18 16  1  0  0  0  0
 19 20  1  0  0  0  0
 19 16  1  0  0  0  0
 21 19  1  0  0  0  0
 22 28  1  0  0  0  0
 22 23  1  0  0  0  0
 23 24  2  0  0  0  0
 23 29  1  0  0  0  0
 24 19  1  0  0  0  0
 25 24  1  0  0  0  0
 26 25  2  0  0  0  0
 27 26  1  0  0  0  0
 27 22  2  0  0  0  0
 30 26  1  0  0  0  0
 31 33  1  0  0  0  0
 33 32  2  6  0  0  0
 33 36  1  0  0  0  0
 33 34  1  0  0  0  0
 34 35  1  0  0  0  0
 37 42  1  0  0  0  0
 37 36  1  0  0  0  0
 38 37  1  0  0  0  0
 39 37  1  0  0  0  0
 40 41  1  0  0  0  0
 41 48  1  0  0  0  0
 42 41  2  0  0  0  0
 42 43  1  0  0  0  0
 43 45  2  0  0  0  0
 44 43  1  0  0  0  0
 45 46  1  0  0  0  0
 45 47  1  0  0  0  0
 48 47  2  0  0  0  0
M  END
>  <minimizedAffinity>
-4.26655245

>  <minimizedRMSD>
1.52429593

$$$$
