
 OpenBabel03252509043D

 48 50  0  0  1  0  0  0  0  0999 V2000
   46.7520   34.5810   43.3620 N   0  0  0  0  0  0  0  0  0  0  0  0
   46.2300   35.6220   42.5640 C   0  0  0  0  0  0  0  0  0  0  0  0
   44.7200   35.7330   42.5770 C   0  0  0  0  0  0  0  0  0  0  0  0
   44.0730   35.3240   43.8820 C   0  0  0  0  0  0  0  0  0  0  0  0
   45.1230   35.0280   44.9420 C   0  0  0  0  0  0  0  0  0  0  0  0
   45.9870   33.8930   44.2690 C   0  0  2  0  0  0  0  0  0  0  0  0
   46.6130   36.5950   42.9890 H   0  0  0  0  0  0  0  0  0  0  0  0
   46.5320   35.6370   41.5140 H   0  0  0  0  0  0  0  0  0  0  0  0
   44.2620   35.2090   41.6950 H   0  0  0  0  0  0  0  0  0  0  0  0
   44.4390   36.8030   42.4200 H   0  0  0  0  0  0  0  0  0  0  0  0
   43.2890   36.0110   44.2160 H   0  0  0  0  0  0  0  0  0  0  0  0
   43.5660   34.3510   43.6820 H   0  0  0  0  0  0  0  0  0  0  0  0
   44.6070   34.5950   45.8190 H   0  0  0  0  0  0  0  0  0  0  0  0
   45.7770   35.8840   45.1590 H   0  0  0  0  0  0  0  0  0  0  0  0
   45.2670   33.1340   43.8920 H   0  0  0  0  0  0  0  0  0  0  0  0
   47.8880   33.9030   42.7680 C   0  0  0  0  0  0  0  0  0  0  0  0
   48.5110   33.4620   43.5760 H   0  0  0  0  0  0  0  0  0  0  0  0
   48.5060   34.6090   42.2060 H   0  0  0  0  0  0  0  0  0  0  0  0
   47.3790   32.7840   41.9210 C   0  0  0  0  0  0  0  0  0  0  0  0
   47.6100   31.7780   42.3110 H   0  0  0  0  0  0  0  0  0  0  0  0
   46.2650   32.8340   41.8150 H   0  0  0  0  0  0  0  0  0  0  0  0
   49.2610   32.1360   38.7310 C   0  0  0  0  0  0  0  0  0  0  0  0
   48.7600   31.9960   40.0370 C   0  0  0  0  0  0  0  0  0  0  0  0
   47.9030   32.9410   40.5370 C   0  0  0  0  0  0  0  0  0  0  0  0
   47.5860   33.9650   39.7350 N   0  0  0  0  0  0  0  0  0  0  0  0
   48.0630   34.0970   38.4920 C   0  0  0  0  0  0  0  0  0  0  0  0
   48.9030   33.1910   37.9720 N   0  0  0  0  0  0  0  0  0  0  0  0
   49.9250   31.3280   38.4570 H   0  0  0  0  0  0  0  0  0  0  0  0
   49.0280   31.1540   40.6810 H   0  0  0  0  0  0  0  0  0  0  0  0
   47.8240   34.9110   37.8270 H   0  0  0  0  0  0  0  0  0  0  0  0
   46.7160   33.4300   45.3520 O   0  0  0  0  0  0  0  0  0  0  0  0
   47.6060   30.9370   45.0770 O   0  0  0  0  0  0  0  0  0  0  0  0
   46.4680   31.7870   45.6540 P   0  0  2  0  0  0  0  0  0  0  0  0
   45.0770   31.3580   44.7790 O   0  0  0  0  0  0  0  0  0  0  0  0
   44.2980   31.8080   45.1710 H   0  0  0  0  0  0  0  0  0  0  0  0
   46.1920   31.4780   47.2740 O   0  0  0  0  0  0  0  0  0  0  0  0
   46.7300   30.2160   47.5660 C   0  0  0  0  0  0  0  0  0  0  0  0
   46.0390   29.6430   48.2230 H   0  0  0  0  0  0  0  0  0  0  0  0
   46.9350   29.6170   46.6730 H   0  0  0  0  0  0  0  0  0  0  0  0
   48.5640   28.1830   47.5960 F   0  0  0  0  0  0  0  0  0  0  0  0
   48.8710   29.3460   48.2370 C   0  0  0  0  0  0  0  0  0  0  0  0
   48.0080   30.4500   48.2810 C   0  0  0  0  0  0  0  0  0  0  0  0
   48.4290   31.5720   48.9580 C   0  0  0  0  0  0  0  0  0  0  0  0
   47.7120   32.3680   48.9430 H   0  0  0  0  0  0  0  0  0  0  0  0
   49.6610   31.6150   49.5760 C   0  0  0  0  0  0  0  0  0  0  0  0
   49.9460   32.5030   50.0890 H   0  0  0  0  0  0  0  0  0  0  0  0
   50.5360   30.5330   49.5480 C   0  0  0  0  0  3  0  0  0  0  0  0
   50.1000   29.4220   48.8670 C   0  0  0  0  0  3  0  0  0  0  0  0
  1  6  1  0  0  0  0
  2  3  1  0  0  0  0
  2  7  1  0  0  0  0
  2  1  1  0  0  0  0
  3  4  1  0  0  0  0
  4 11  1  0  0  0  0
  4  5  1  0  0  0  0
  5 14  1  0  0  0  0
  5 13  1  0  0  0  0
  6 15  1  6  0  0  0
  6  5  1  0  0  0  0
  6 31  1  0  0  0  0
  8  2  1  0  0  0  0
  9  3  1  0  0  0  0
 10  3  1  0  0  0  0
 12  4  1  0  0  0  0
 16  1  1  0  0  0  0
 16 17  1  0  0  0  0
 18 16  1  0  0  0  0
 19 20  1  0  0  0  0
 19 16  1  0  0  0  0
 21 19  1  0  0  0  0
 22 23  1  0  0  0  0
 23 24  2  0  0  0  0
 23 29  1  0  0  0  0
 24 19  1  0  0  0  0
 25 24  1  0  0  0  0
 26 25  2  0  0  0  0
 27 26  1  0  0  0  0
 27 22  2  0  0  0  0
 28 22  1  0  0  0  0
 30 26  1  0  0  0  0
 31 33  1  0  0  0  0
 33 32  2  6  0  0  0
 33 36  1  0  0  0  0
 34 35  1  0  0  0  0
 34 33  1  0  0  0  0
 36 37  1  0  0  0  0
 37 38  1  0  0  0  0
 37 42  1  0  0  0  0
 39 37  1  0  0  0  0
 40 41  1  0  0  0  0
 41 42  2  0  0  0  0
 41 48  1  0  0  0  0
 42 43  1  0  0  0  0
 43 45  2  0  0  0  0
 44 43  1  0  0  0  0
 45 46  1  0  0  0  0
 47 45  1  0  0  0  0
 48 47  2  0  0  0  0
M  END
>  <minimizedAffinity>
-4.85491419

>  <minimizedRMSD>
2.49139333

$$$$
