
 OpenBabel03252508483D

 45 47  0  0  0  0  0  0  0  0999 V2000
   36.1920   29.7330   41.7260 N   0  0  0  0  0  0  0  0  0  0  0  0
   35.7540   28.9210   41.2800 H   0  0  0  0  0  0  0  0  0  0  0  0
   36.3040   30.8840   40.8760 C   0  0  0  0  0  0  0  0  0  0  0  0
   37.1740   31.5070   41.1850 H   0  0  0  0  0  0  0  0  0  0  0  0
   35.4240   31.5600   40.9930 H   0  0  0  0  0  0  0  0  0  0  0  0
   37.3440   31.2870   38.6370 C   0  0  0  0  0  0  0  0  0  0  0  0
   36.4560   30.5630   39.4270 C   0  0  0  0  0  0  0  0  0  0  0  0
   35.7280   29.5680   38.8460 C   0  0  0  0  0  0  0  0  0  0  0  0
   35.8730   29.2920   37.5120 C   0  0  0  0  0  0  0  0  0  0  0  0
   36.7380   29.9870   36.7070 C   0  0  0  0  0  0  0  0  0  0  0  0
   37.4640   30.9940   37.3360 C   0  0  0  0  0  0  0  0  0  0  0  0
   35.0400   28.9970   39.4410 H   0  0  0  0  0  0  0  0  0  0  0  0
   35.2950   28.4990   37.0490 H   0  0  0  0  0  0  0  0  0  0  0  0
   36.8880   29.7990   35.6330 H   0  0  0  0  0  0  0  0  0  0  0  0
   38.1690   31.5910   36.7690 H   0  0  0  0  0  0  0  0  0  0  0  0
   38.4350   34.5460   40.2320 C   0  0  0  0  0  0  0  0  0  0  0  0
   37.6020   33.6140   39.5560 C   0  0  0  0  0  0  0  0  0  0  0  0
   38.1040   32.3430   39.3200 C   0  0  0  0  0  0  0  0  0  0  0  0
   39.3530   32.0610   39.7470 N   0  0  0  0  0  0  0  0  0  0  0  0
   40.1350   32.9670   40.3930 C   0  0  0  0  0  0  0  0  0  0  0  0
   39.6580   34.1960   40.6230 N   0  0  0  0  0  0  0  0  0  0  0  0
   38.0490   35.5440   40.4220 H   0  0  0  0  0  0  0  0  0  0  0  0
   36.6190   33.8530   39.2280 H   0  0  0  0  0  0  0  0  0  0  0  0
   41.1000   32.5500   40.6520 H   0  0  0  0  0  0  0  0  0  0  0  0
   37.6510   29.3620   42.5340 S   0  0  0  0  0  0  0  0  0  0  0  0
   37.4230   29.1310   43.9990 O   0  0  0  0  0  0  0  0  0  0  0  0
   37.7010   28.3790   44.5530 H   0  0  0  0  0  0  0  0  0  0  0  0
   38.6630   30.4490   42.3250 O   0  0  0  0  0  0  0  0  0  0  0  0
   38.8500   31.1160   43.0450 H   0  0  0  0  0  0  0  0  0  0  0  0
   38.2510   27.9370   41.8680 O   0  0  0  0  0  0  0  0  0  0  0  0
   38.0610   26.9280   42.8030 C   0  0  0  0  0  0  0  0  0  0  0  0
   38.8750   26.2140   42.8950 H   0  0  0  0  0  0  0  0  0  0  0  0
   37.8720   27.4090   43.7960 H   0  0  0  0  0  0  0  0  0  0  0  0
   36.7690   26.1800   42.4880 C   0  0  0  0  0  0  0  0  0  0  0  0
   36.0620   26.8990   42.0180 H   0  0  0  0  0  0  0  0  0  0  0  0
   36.3340   25.7300   43.3980 H   0  0  0  0  0  0  0  0  0  0  0  0
   36.1130   26.5480   39.8580 F   0  0  0  0  0  0  0  0  0  0  0  0
   36.8090   25.4110   40.2020 C   0  0  0  0  0  0  0  0  0  0  0  0
   37.1800   25.1320   41.5040 C   0  0  0  0  0  0  0  0  0  0  0  0
   37.8740   23.9770   41.7850 C   0  0  0  0  0  0  0  0  0  0  0  0
   38.1410   23.8090   42.8380 H   0  0  0  0  0  0  0  0  0  0  0  0
   38.2130   23.0790   40.7930 C   0  0  0  0  0  0  0  0  0  0  0  0
   38.7680   22.1710   41.0470 H   0  0  0  0  0  0  0  0  0  0  0  0
   37.8310   23.3790   39.4950 C   0  0  0  0  0  3  0  0  0  0  0  0
   37.1330   24.5350   39.1880 C   0  0  0  0  0  3  0  0  0  0  0  0
  1 25  1  0  0  0  0
  2  1  1  0  0  0  0
  3  5  1  0  0  0  0
  3  4  1  0  0  0  0
  3  1  1  0  0  0  0
  6 18  1  0  0  0  0
  6  7  1  0  0  0  0
  7  3  1  0  0  0  0
  8  7  2  0  0  0  0
  8 12  1  0  0  0  0
  9  8  1  0  0  0  0
 10 11  1  0  0  0  0
 10  9  2  0  0  0  0
 11  6  2  0  0  0  0
 13  9  1  0  0  0  0
 14 10  1  0  0  0  0
 15 11  1  0  0  0  0
 16 22  1  0  0  0  0
 16 21  1  0  0  0  0
 17 16  2  0  0  0  0
 18 17  1  0  0  0  0
 18 19  2  0  0  0  0
 19 20  1  0  0  0  0
 20 21  2  0  0  0  0
 20 24  1  0  0  0  0
 23 17  1  0  0  0  0
 25 26  1  0  0  0  0
 26 27  1  0  0  0  0
 28 25  1  0  0  0  0
 28 29  1  0  0  0  0
 30 25  1  0  0  0  0
 30 31  1  0  0  0  0
 31 32  1  0  0  0  0
 31 33  1  0  0  0  0
 34 31  1  0  0  0  0
 34 36  1  0  0  0  0
 35 34  1  0  0  0  0
 37 38  1  0  0  0  0
 38 39  1  0  0  0  0
 39 40  2  0  0  0  0
 39 34  1  0  0  0  0
 40 41  1  0  0  0  0
 42 43  1  0  0  0  0
 42 40  1  0  0  0  0
 44 42  2  0  0  0  0
 45 44  1  0  0  0  0
 45 38  2  0  0  0  0
M  END
>  <minimizedAffinity>
-6.44405603

$$$$

 OpenBabel03252508483D

 45 47  0  0  0  0  0  0  0  0999 V2000
   36.5390   28.3020   42.9300 N   0  0  0  0  0  0  0  0  0  0  0  0
   36.8300   28.3900   43.9080 H   0  0  0  0  0  0  0  0  0  0  0  0
   36.8160   27.0210   42.3450 C   0  0  0  0  0  0  0  0  0  0  0  0
   36.7400   27.0810   41.2340 H   0  0  0  0  0  0  0  0  0  0  0  0
   36.0460   26.2690   42.6350 H   0  0  0  0  0  0  0  0  0  0  0  0
   38.7110   25.4430   41.9270 C   0  0  0  0  0  0  0  0  0  0  0  0
   38.1600   26.4700   42.6870 C   0  0  0  0  0  0  0  0  0  0  0  0
   38.8680   26.9490   43.7490 C   0  0  0  0  0  0  0  0  0  0  0  0
   40.0960   26.4250   44.0540 C   0  0  0  0  0  0  0  0  0  0  0  0
   40.6670   25.4130   43.3270 C   0  0  0  0  0  0  0  0  0  0  0  0
   39.9150   24.9510   42.2510 C   0  0  0  0  0  0  0  0  0  0  0  0
   38.4590   27.7430   44.3450 H   0  0  0  0  0  0  0  0  0  0  0  0
   40.6620   26.8060   44.8990 H   0  0  0  0  0  0  0  0  0  0  0  0
   41.6500   24.9640   43.5350 H   0  0  0  0  0  0  0  0  0  0  0  0
   40.2940   24.1520   41.6250 H   0  0  0  0  0  0  0  0  0  0  0  0
   37.1780   24.9440   38.4990 C   0  0  0  0  0  0  0  0  0  0  0  0
   38.0120   25.4890   39.5110 C   0  0  0  0  0  0  0  0  0  0  0  0
   37.9040   24.9720   40.7930 C   0  0  0  0  0  0  0  0  0  0  0  0
   37.0150   23.9790   41.0070 N   0  0  0  0  0  0  0  0  0  0  0  0
   36.2250   23.4690   40.0240 C   0  0  0  0  0  0  0  0  0  0  0  0
   36.3230   23.9640   38.7850 N   0  0  0  0  0  0  0  0  0  0  0  0
   37.2580   25.3430   37.4910 H   0  0  0  0  0  0  0  0  0  0  0  0
   38.7090   26.2710   39.3240 H   0  0  0  0  0  0  0  0  0  0  0  0
   35.5810   22.6830   40.3960 H   0  0  0  0  0  0  0  0  0  0  0  0
   37.0480   29.6040   41.9480 S   0  0  0  0  0  0  0  0  0  0  0  0
   38.2100   30.3300   42.5590 O   0  0  0  0  0  0  0  0  0  0  0  0
   39.0680   30.5630   42.1590 H   0  0  0  0  0  0  0  0  0  0  0  0
   35.9120   30.5510   41.6940 O   0  0  0  0  0  0  0  0  0  0  0  0
   35.8490   31.4150   42.1900 H   0  0  0  0  0  0  0  0  0  0  0  0
   37.5490   28.9620   40.4740 O   0  0  0  0  0  0  0  0  0  0  0  0
   38.8500   29.3940   40.2540 C   0  0  0  0  0  0  0  0  0  0  0  0
   39.2870   29.9940   41.0470 H   0  0  0  0  0  0  0  0  0  0  0  0
   39.4870   28.4920   40.0740 H   0  0  0  0  0  0  0  0  0  0  0  0
   38.9120   30.1730   38.9430 C   0  0  0  0  0  0  0  0  0  0  0  0
   38.0400   29.8680   38.3220 H   0  0  0  0  0  0  0  0  0  0  0  0
   39.8640   29.9890   38.4120 H   0  0  0  0  0  0  0  0  0  0  0  0
   36.5230   31.4340   38.5160 F   0  0  0  0  0  0  0  0  0  0  0  0
   37.5400   32.1500   39.1060 C   0  0  0  0  0  0  0  0  0  0  0  0
   38.7840   31.6030   39.3570 C   0  0  0  0  0  0  0  0  0  0  0  0
   39.7620   32.3710   39.9490 C   0  0  0  0  0  0  0  0  0  0  0  0
   40.7320   31.8820   40.1230 H   0  0  0  0  0  0  0  0  0  0  0  0
   39.5330   33.6850   40.3010 C   0  0  0  0  0  0  0  0  0  0  0  0
   40.3290   34.2690   40.7740 H   0  0  0  0  0  0  0  0  0  0  0  0
   38.2780   34.2130   40.0420 C   0  0  0  0  0  3  0  0  0  0  0  0
   37.2780   33.4600   39.4480 C   0  0  0  0  0  3  0  0  0  0  0  0
  1  2  1  0  0  0  0
  3  5  1  0  0  0  0
  3  7  1  0  0  0  0
  3  1  1  0  0  0  0
  4  3  1  0  0  0  0
  6 11  2  0  0  0  0
  6  7  1  0  0  0  0
  7  8  2  0  0  0  0
  8  9  1  0  0  0  0
  8 12  1  0  0  0  0
  9 13  1  0  0  0  0
 10 14  1  0  0  0  0
 10  9  2  0  0  0  0
 11 10  1  0  0  0  0
 15 11  1  0  0  0  0
 16 21  2  0  0  0  0
 16 17  1  0  0  0  0
 17 18  2  0  0  0  0
 18 19  1  0  0  0  0
 18  6  1  0  0  0  0
 20 24  1  0  0  0  0
 20 19  2  0  0  0  0
 21 20  1  0  0  0  0
 22 16  1  0  0  0  0
 23 17  1  0  0  0  0
 25 26  1  0  0  0  0
 25  1  1  0  0  0  0
 27 26  1  0  0  0  0
 28 25  1  0  0  0  0
 28 29  1  0  0  0  0
 30 25  1  0  0  0  0
 31 30  1  0  0  0  0
 31 32  1  0  0  0  0
 33 31  1  0  0  0  0
 34 39  1  0  0  0  0
 34 31  1  0  0  0  0
 35 34  1  0  0  0  0
 36 34  1  0  0  0  0
 37 38  1  0  0  0  0
 38 39  2  0  0  0  0
 38 45  1  0  0  0  0
 39 40  1  0  0  0  0
 40 41  1  0  0  0  0
 40 42  2  0  0  0  0
 42 43  1  0  0  0  0
 44 42  1  0  0  0  0
 45 44  2  0  0  0  0
M  END
>  <minimizedAffinity>
-5.92720127

$$$$

 OpenBabel03252508483D

 45 47  0  0  0  0  0  0  0  0999 V2000
   38.7120   29.6690   36.9340 N   0  0  0  0  0  0  0  0  0  0  0  0
   38.7000   29.7410   35.9120 H   0  0  0  0  0  0  0  0  0  0  0  0
   37.9900   30.7110   37.6070 C   0  0  0  0  0  0  0  0  0  0  0  0
   37.4790   31.3660   36.8650 H   0  0  0  0  0  0  0  0  0  0  0  0
   38.6820   31.3960   38.1520 H   0  0  0  0  0  0  0  0  0  0  0  0
   36.7910   30.8560   39.7980 C   0  0  0  0  0  0  0  0  0  0  0  0
   36.9650   30.2190   38.5740 C   0  0  0  0  0  0  0  0  0  0  0  0
   36.1880   29.1360   38.2850 C   0  0  0  0  0  0  0  0  0  0  0  0
   35.2570   28.6930   39.1860 C   0  0  0  0  0  0  0  0  0  0  0  0
   35.0620   29.2970   40.4010 C   0  0  0  0  0  0  0  0  0  0  0  0
   35.8730   30.3980   40.6590 C   0  0  0  0  0  0  0  0  0  0  0  0
   36.3060   28.6340   37.3430 H   0  0  0  0  0  0  0  0  0  0  0  0
   34.6370   27.8320   38.9580 H   0  0  0  0  0  0  0  0  0  0  0  0
   34.3270   28.9760   41.1540 H   0  0  0  0  0  0  0  0  0  0  0  0
   35.7830   30.9330   41.5980 H   0  0  0  0  0  0  0  0  0  0  0  0
   38.2370   34.3530   39.9880 C   0  0  0  0  0  0  0  0  0  0  0  0
   37.3180   33.3130   39.6820 C   0  0  0  0  0  0  0  0  0  0  0  0
   37.6540   32.0190   40.0500 C   0  0  0  0  0  0  0  0  0  0  0  0
   38.8320   31.8190   40.6780 N   0  0  0  0  0  0  0  0  0  0  0  0
   39.6980   32.8290   40.9630 C   0  0  0  0  0  0  0  0  0  0  0  0
   39.3820   34.0800   40.6100 N   0  0  0  0  0  0  0  0  0  0  0  0
   37.9800   35.3700   39.7040 H   0  0  0  0  0  0  0  0  0  0  0  0
   36.3930   33.4880   39.1880 H   0  0  0  0  0  0  0  0  0  0  0  0
   40.5840   32.4660   41.4670 H   0  0  0  0  0  0  0  0  0  0  0  0
   40.2730   29.4200   37.5800 S   0  0  0  0  0  0  0  0  0  0  0  0
   40.6220   30.4680   38.5950 O   0  0  0  0  0  0  0  0  0  0  0  0
   40.9530   30.3570   39.5050 H   0  0  0  0  0  0  0  0  0  0  0  0
   41.3000   29.3870   36.4860 O   0  0  0  0  0  0  0  0  0  0  0  0
   41.8860   30.1770   36.3140 H   0  0  0  0  0  0  0  0  0  0  0  0
   40.2690   27.9250   38.3550 O   0  0  0  0  0  0  0  0  0  0  0  0
   39.8590   28.1360   39.6640 C   0  0  0  0  0  0  0  0  0  0  0  0
   40.6460   28.1060   40.4130 H   0  0  0  0  0  0  0  0  0  0  0  0
   39.3400   29.1270   39.7080 H   0  0  0  0  0  0  0  0  0  0  0  0
   38.7800   27.1220   40.0300 C   0  0  0  0  0  0  0  0  0  0  0  0
   39.2640   26.1240   40.1220 H   0  0  0  0  0  0  0  0  0  0  0  0
   37.9720   27.1050   39.2750 H   0  0  0  0  0  0  0  0  0  0  0  0
   36.7000   25.7570   41.1680 F   0  0  0  0  0  0  0  0  0  0  0  0
   37.2300   26.8280   41.8550 C   0  0  0  0  0  0  0  0  0  0  0  0
   38.2760   27.5830   41.3600 C   0  0  0  0  0  0  0  0  0  0  0  0
   38.7600   28.6430   42.0920 C   0  0  0  0  0  0  0  0  0  0  0  0
   39.5930   29.2070   41.6470 H   0  0  0  0  0  0  0  0  0  0  0  0
   38.2250   28.9760   43.3200 C   0  0  0  0  0  0  0  0  0  0  0  0
   38.6350   29.8220   43.8800 H   0  0  0  0  0  0  0  0  0  0  0  0
   37.1780   28.2050   43.7970 C   0  0  0  0  0  3  0  0  0  0  0  0
   36.6740   27.1340   43.0790 C   0  0  0  0  0  3  0  0  0  0  0  0
  1 25  1  0  0  0  0
  1  3  1  0  0  0  0
  2  1  1  0  0  0  0
  3  5  1  0  0  0  0
  3  7  1  0  0  0  0
  4  3  1  0  0  0  0
  6 18  1  0  0  0  0
  6 11  1  0  0  0  0
  7  6  2  0  0  0  0
  8  7  1  0  0  0  0
  8  9  2  0  0  0  0
  9 10  1  0  0  0  0
 10 11  2  0  0  0  0
 10 14  1  0  0  0  0
 11 15  1  0  0  0  0
 12  8  1  0  0  0  0
 13  9  1  0  0  0  0
 16 21  1  0  0  0  0
 17 16  2  0  0  0  0
 17 18  1  0  0  0  0
 18 19  2  0  0  0  0
 19 20  1  0  0  0  0
 20 24  1  0  0  0  0
 21 20  2  0  0  0  0
 22 16  1  0  0  0  0
 23 17  1  0  0  0  0
 25 30  1  0  0  0  0
 25 26  1  0  0  0  0
 26 27  1  0  0  0  0
 28 25  1  0  0  0  0
 29 28  1  0  0  0  0
 30 31  1  0  0  0  0
 31 33  1  0  0  0  0
 31 34  1  0  0  0  0
 31 32  1  0  0  0  0
 34 35  1  0  0  0  0
 34 39  1  0  0  0  0
 36 34  1  0  0  0  0
 37 38  1  0  0  0  0
 38 45  1  0  0  0  0
 39 38  2  0  0  0  0
 39 40  1  0  0  0  0
 40 42  2  0  0  0  0
 41 40  1  0  0  0  0
 42 44  1  0  0  0  0
 42 43  1  0  0  0  0
 45 44  2  0  0  0  0
M  END
>  <minimizedAffinity>
-5.90453911

$$$$

 OpenBabel03252508483D

 45 47  0  0  0  0  0  0  0  0999 V2000
   39.0170   30.4310   37.3070 N   0  0  0  0  0  0  0  0  0  0  0  0
   39.0880   29.9570   36.4010 H   0  0  0  0  0  0  0  0  0  0  0  0
   37.7930   31.1540   37.5000 C   0  0  0  0  0  0  0  0  0  0  0  0
   37.2670   31.2870   36.5260 H   0  0  0  0  0  0  0  0  0  0  0  0
   37.9890   32.1940   37.8530 H   0  0  0  0  0  0  0  0  0  0  0  0
   36.6570   31.0400   39.7260 C   0  0  0  0  0  0  0  0  0  0  0  0
   36.8440   30.5090   38.4540 C   0  0  0  0  0  0  0  0  0  0  0  0
   36.1520   29.3860   38.1060 C   0  0  0  0  0  0  0  0  0  0  0  0
   35.2910   28.8010   38.9970 C   0  0  0  0  0  0  0  0  0  0  0  0
   35.0850   29.2990   40.2570 C   0  0  0  0  0  0  0  0  0  0  0  0
   35.8080   30.4450   40.5740 C   0  0  0  0  0  0  0  0  0  0  0  0
   36.2820   28.9640   37.1270 H   0  0  0  0  0  0  0  0  0  0  0  0
   34.7390   27.9080   38.7210 H   0  0  0  0  0  0  0  0  0  0  0  0
   34.4040   28.8630   41.0040 H   0  0  0  0  0  0  0  0  0  0  0  0
   35.7030   30.9010   41.5520 H   0  0  0  0  0  0  0  0  0  0  0  0
   39.1440   33.5120   41.1600 C   0  0  0  0  0  0  0  0  0  0  0  0
   38.4740   32.2770   40.9470 C   0  0  0  0  0  0  0  0  0  0  0  0
   37.4260   32.2520   40.0400 C   0  0  0  0  0  0  0  0  0  0  0  0
   37.1010   33.4000   39.4090 N   0  0  0  0  0  0  0  0  0  0  0  0
   37.7550   34.5730   39.6260 C   0  0  0  0  0  0  0  0  0  0  0  0
   38.7660   34.6050   40.5000 N   0  0  0  0  0  0  0  0  0  0  0  0
   39.9670   33.5400   41.8680 H   0  0  0  0  0  0  0  0  0  0  0  0
   38.7450   31.3810   41.4520 H   0  0  0  0  0  0  0  0  0  0  0  0
   37.3450   35.3760   39.0260 H   0  0  0  0  0  0  0  0  0  0  0  0
   40.4000   31.3510   37.7040 S   0  0  0  0  0  0  0  0  0  0  0  0
   40.0540   32.7930   37.9300 O   0  0  0  0  0  0  0  0  0  0  0  0
   40.2750   33.3670   38.6870 H   0  0  0  0  0  0  0  0  0  0  0  0
   41.4460   31.2230   36.6350 O   0  0  0  0  0  0  0  0  0  0  0  0
   41.5880   31.9560   35.9720 H   0  0  0  0  0  0  0  0  0  0  0  0
   41.0250   30.7330   39.1400 O   0  0  0  0  0  0  0  0  0  0  0  0
   40.2980   29.5930   39.4540 C   0  0  0  0  0  0  0  0  0  0  0  0
   39.2610   29.5930   39.1290 H   0  0  0  0  0  0  0  0  0  0  0  0
   40.8280   28.7120   39.0110 H   0  0  0  0  0  0  0  0  0  0  0  0
   40.3520   29.3530   40.9600 C   0  0  0  0  0  0  0  0  0  0  0  0
   40.1900   30.3300   41.4680 H   0  0  0  0  0  0  0  0  0  0  0  0
   41.3140   28.9020   41.2600 H   0  0  0  0  0  0  0  0  0  0  0  0
   38.9120   29.7100   43.2580 F   0  0  0  0  0  0  0  0  0  0  0  0
   38.5390   28.6920   42.4070 C   0  0  0  0  0  0  0  0  0  0  0  0
   39.2070   28.4290   41.2270 C   0  0  0  0  0  0  0  0  0  0  0  0
   38.7880   27.3960   40.4190 C   0  0  0  0  0  0  0  0  0  0  0  0
   39.3590   27.2340   39.4930 H   0  0  0  0  0  0  0  0  0  0  0  0
   37.7070   26.6080   40.7590 C   0  0  0  0  0  0  0  0  0  0  0  0
   37.3950   25.7960   40.0940 H   0  0  0  0  0  0  0  0  0  0  0  0
   37.0510   26.8900   41.9460 C   0  0  0  0  0  3  0  0  0  0  0  0
   37.4540   27.9240   42.7750 C   0  0  0  0  0  3  0  0  0  0  0  0
  1  3  1  0  0  0  0
  1 25  1  0  0  0  0
  2  1  1  0  0  0  0
  3  5  1  0  0  0  0
  3  7  1  0  0  0  0
  4  3  1  0  0  0  0
  6 18  1  0  0  0  0
  6 11  1  0  0  0  0
  7  6  2  0  0  0  0
  8  7  1  0  0  0  0
  8  9  2  0  0  0  0
  9 10  1  0  0  0  0
 10 11  2  0  0  0  0
 10 14  1  0  0  0  0
 11 15  1  0  0  0  0
 12  8  1  0  0  0  0
 13  9  1  0  0  0  0
 16 22  1  0  0  0  0
 17 16  1  0  0  0  0
 17 23  1  0  0  0  0
 18 17  2  0  0  0  0
 19 20  2  0  0  0  0
 19 18  1  0  0  0  0
 20 21  1  0  0  0  0
 21 16  2  0  0  0  0
 24 20  1  0  0  0  0
 25 26  1  0  0  0  0
 25 30  1  0  0  0  0
 26 27  1  0  0  0  0
 28 25  1  0  0  0  0
 29 28  1  0  0  0  0
 30 31  1  0  0  0  0
 31 34  1  0  0  0  0
 32 31  1  0  0  0  0
 33 31  1  0  0  0  0
 34 39  1  0  0  0  0
 34 36  1  0  0  0  0
 34 35  1  0  0  0  0
 38 45  1  0  0  0  0
 38 37  1  0  0  0  0
 39 38  2  0  0  0  0
 40 42  2  0  0  0  0
 40 39  1  0  0  0  0
 41 40  1  0  0  0  0
 42 44  1  0  0  0  0
 43 42  1  0  0  0  0
 44 45  2  0  0  0  0
M  END
>  <minimizedAffinity>
-5.73586321

$$$$

 OpenBabel03252508483D

 45 47  0  0  0  0  0  0  0  0999 V2000
   35.2490   29.5750   40.8120 N   0  0  0  0  0  0  0  0  0  0  0  0
   34.3690   30.0720   40.9780 H   0  0  0  0  0  0  0  0  0  0  0  0
   36.4080   30.2360   41.3400 C   0  0  0  0  0  0  0  0  0  0  0  0
   36.1040   31.0350   42.0550 H   0  0  0  0  0  0  0  0  0  0  0  0
   36.9640   30.7790   40.5390 H   0  0  0  0  0  0  0  0  0  0  0  0
   38.7000   29.2830   41.6520 C   0  0  0  0  0  0  0  0  0  0  0  0
   37.3650   29.3290   42.0400 C   0  0  0  0  0  0  0  0  0  0  0  0
   36.9530   28.5250   43.0610 C   0  0  0  0  0  0  0  0  0  0  0  0
   37.8420   27.6920   43.6870 C   0  0  0  0  0  0  0  0  0  0  0  0
   39.1630   27.6220   43.3280 C   0  0  0  0  0  0  0  0  0  0  0  0
   39.5450   28.4570   42.2830 C   0  0  0  0  0  0  0  0  0  0  0  0
   35.9260   28.5510   43.3760 H   0  0  0  0  0  0  0  0  0  0  0  0
   37.5160   27.0520   44.5010 H   0  0  0  0  0  0  0  0  0  0  0  0
   39.9110   26.9690   43.8030 H   0  0  0  0  0  0  0  0  0  0  0  0
   40.5720   28.4620   41.9380 H   0  0  0  0  0  0  0  0  0  0  0  0
   39.8720   32.2370   39.5890 C   0  0  0  0  0  0  0  0  0  0  0  0
   39.5230   31.4770   40.7380 C   0  0  0  0  0  0  0  0  0  0  0  0
   39.0850   30.1750   40.5490 C   0  0  0  0  0  0  0  0  0  0  0  0
   39.0140   29.7020   39.2870 N   0  0  0  0  0  0  0  0  0  0  0  0
   39.3520   30.4460   38.1990 C   0  0  0  0  0  0  0  0  0  0  0  0
   39.7760   31.7030   38.3730 N   0  0  0  0  0  0  0  0  0  0  0  0
   40.2180   33.2570   39.7290 H   0  0  0  0  0  0  0  0  0  0  0  0
   39.5880   31.8640   41.7260 H   0  0  0  0  0  0  0  0  0  0  0  0
   39.2260   29.8890   37.2790 H   0  0  0  0  0  0  0  0  0  0  0  0
   35.4520   29.0740   39.1920 S   0  0  0  0  0  0  0  0  0  0  0  0
   36.3520   27.8770   39.0960 O   0  0  0  0  0  0  0  0  0  0  0  0
   36.2000   27.0290   38.6410 H   0  0  0  0  0  0  0  0  0  0  0  0
   35.9840   30.1980   38.3520 O   0  0  0  0  0  0  0  0  0  0  0  0
   36.9470   30.2260   38.0890 H   0  0  0  0  0  0  0  0  0  0  0  0
   33.9370   28.6360   38.6020 O   0  0  0  0  0  0  0  0  0  0  0  0
   33.8440   29.1110   37.3010 C   0  0  0  0  0  0  0  0  0  0  0  0
   33.9260   30.1890   37.1870 H   0  0  0  0  0  0  0  0  0  0  0  0
   34.6390   28.6100   36.6930 H   0  0  0  0  0  0  0  0  0  0  0  0
   32.5330   28.6390   36.6790 C   0  0  0  0  0  0  0  0  0  0  0  0
   32.1630   27.7750   37.2760 H   0  0  0  0  0  0  0  0  0  0  0  0
   32.6680   28.3620   35.6180 H   0  0  0  0  0  0  0  0  0  0  0  0
   32.3060   30.3780   34.5810 F   0  0  0  0  0  0  0  0  0  0  0  0
   31.5620   30.6240   35.7130 C   0  0  0  0  0  0  0  0  0  0  0  0
   31.6130   29.8080   36.8270 C   0  0  0  0  0  0  0  0  0  0  0  0
   30.8460   30.1070   37.9300 C   0  0  0  0  0  0  0  0  0  0  0  0
   30.9290   29.4210   38.7860 H   0  0  0  0  0  0  0  0  0  0  0  0
   30.0190   31.2110   37.9560 C   0  0  0  0  0  0  0  0  0  0  0  0
   29.4180   31.4200   38.8460 H   0  0  0  0  0  0  0  0  0  0  0  0
   29.9820   32.0150   36.8280 C   0  0  0  0  0  3  0  0  0  0  0  0
   30.7440   31.7340   35.7060 C   0  0  0  0  0  3  0  0  0  0  0  0
  1  2  1  0  0  0  0
  1  3  1  0  0  0  0
  3  7  1  0  0  0  0
  3  4  1  0  0  0  0
  5  3  1  0  0  0  0
  6  7  2  0  0  0  0
  6 11  1  0  0  0  0
  7  8  1  0  0  0  0
  8 12  1  0  0  0  0
  8  9  2  0  0  0  0
  9 13  1  0  0  0  0
 10  9  1  0  0  0  0
 10 14  1  0  0  0  0
 11 10  2  0  0  0  0
 15 11  1  0  0  0  0
 16 22  1  0  0  0  0
 16 17  1  0  0  0  0
 17 23  1  0  0  0  0
 18 17  2  0  0  0  0
 18  6  1  0  0  0  0
 19 18  1  0  0  0  0
 20 21  1  0  0  0  0
 20 19  2  0  0  0  0
 21 16  2  0  0  0  0
 24 20  1  0  0  0  0
 25  1  1  0  0  0  0
 26 25  1  0  0  0  0
 27 26  1  0  0  0  0
 28 25  1  0  0  0  0
 29 28  1  0  0  0  0
 30 25  1  0  0  0  0
 31 30  1  0  0  0  0
 32 31  1  0  0  0  0
 33 31  1  0  0  0  0
 34 39  1  0  0  0  0
 34 35  1  0  0  0  0
 34 31  1  0  0  0  0
 36 34  1  0  0  0  0
 37 38  1  0  0  0  0
 38 39  1  0  0  0  0
 39 40  2  0  0  0  0
 40 42  1  0  0  0  0
 40 41  1  0  0  0  0
 42 43  1  0  0  0  0
 44 42  2  0  0  0  0
 45 38  2  0  0  0  0
 45 44  1  0  0  0  0
M  END
>  <minimizedAffinity>
-5.72869253

$$$$

 OpenBabel03252508483D

 45 47  0  0  0  0  0  0  0  0999 V2000
   35.7740   27.0190   38.0100 N   0  0  0  0  0  0  0  0  0  0  0  0
   34.9630   26.9830   38.6350 H   0  0  0  0  0  0  0  0  0  0  0  0
   37.0400   26.9570   38.6840 C   0  0  0  0  0  0  0  0  0  0  0  0
   37.4130   27.9850   38.8970 H   0  0  0  0  0  0  0  0  0  0  0  0
   37.8240   26.5080   38.0300 H   0  0  0  0  0  0  0  0  0  0  0  0
   37.0390   26.8770   41.1840 C   0  0  0  0  0  0  0  0  0  0  0  0
   37.0130   26.1990   39.9690 C   0  0  0  0  0  0  0  0  0  0  0  0
   36.9740   24.8370   39.9820 C   0  0  0  0  0  0  0  0  0  0  0  0
   36.9590   24.1560   41.1700 C   0  0  0  0  0  0  0  0  0  0  0  0
   36.9840   24.7940   42.3840 C   0  0  0  0  0  0  0  0  0  0  0  0
   37.0240   26.1830   42.3300 C   0  0  0  0  0  0  0  0  0  0  0  0
   36.9500   24.2970   39.0530 H   0  0  0  0  0  0  0  0  0  0  0  0
   36.9260   23.0710   41.1830 H   0  0  0  0  0  0  0  0  0  0  0  0
   36.9730   24.2880   43.3620 H   0  0  0  0  0  0  0  0  0  0  0  0
   37.0470   26.7630   43.2450 H   0  0  0  0  0  0  0  0  0  0  0  0
   38.1380   30.5030   41.1870 C   0  0  0  0  0  0  0  0  0  0  0  0
   38.2320   29.0890   41.2940 C   0  0  0  0  0  0  0  0  0  0  0  0
   37.0770   28.3440   41.1060 C   0  0  0  0  0  0  0  0  0  0  0  0
   35.9310   29.0010   40.8310 N   0  0  0  0  0  0  0  0  0  0  0  0
   35.8620   30.3560   40.7320 C   0  0  0  0  0  0  0  0  0  0  0  0
   36.9720   31.0820   40.9130 N   0  0  0  0  0  0  0  0  0  0  0  0
   39.0390   31.0940   41.3310 H   0  0  0  0  0  0  0  0  0  0  0  0
   39.1440   28.5860   41.5090 H   0  0  0  0  0  0  0  0  0  0  0  0
   34.8570   30.6900   40.5070 H   0  0  0  0  0  0  0  0  0  0  0  0
   35.6950   28.2820   36.8630 S   0  0  0  0  0  0  0  0  0  0  0  0
   36.7790   28.1560   35.8330 O   0  0  0  0  0  0  0  0  0  0  0  0
   36.7070   28.1650   34.8610 H   0  0  0  0  0  0  0  0  0  0  0  0
   35.7670   29.6190   37.5400 O   0  0  0  0  0  0  0  0  0  0  0  0
   36.6140   30.1470   37.5340 H   0  0  0  0  0  0  0  0  0  0  0  0
   34.2110   28.1600   36.0760 O   0  0  0  0  0  0  0  0  0  0  0  0
   33.3510   29.0770   36.6660 C   0  0  0  0  0  0  0  0  0  0  0  0
   33.3770   29.1140   37.7520 H   0  0  0  0  0  0  0  0  0  0  0  0
   33.5890   30.0890   36.2520 H   0  0  0  0  0  0  0  0  0  0  0  0
   31.9220   28.8020   36.2080 C   0  0  0  0  0  0  0  0  0  0  0  0
   31.4100   28.2270   37.0110 H   0  0  0  0  0  0  0  0  0  0  0  0
   31.9060   28.2510   35.2510 H   0  0  0  0  0  0  0  0  0  0  0  0
   30.5330   29.8230   38.3320 F   0  0  0  0  0  0  0  0  0  0  0  0
   30.6370   30.5910   37.1930 C   0  0  0  0  0  0  0  0  0  0  0  0
   31.3130   30.1600   36.0670 C   0  0  0  0  0  0  0  0  0  0  0  0
   31.3810   30.9730   34.9580 C   0  0  0  0  0  0  0  0  0  0  0  0
   31.9310   30.5760   34.0920 H   0  0  0  0  0  0  0  0  0  0  0  0
   30.7880   32.2190   34.9390 C   0  0  0  0  0  0  0  0  0  0  0  0
   30.8630   32.8430   34.0440 H   0  0  0  0  0  0  0  0  0  0  0  0
   30.1170   32.6310   36.0790 C   0  0  0  0  0  3  0  0  0  0  0  0
   30.0350   31.8310   37.2070 C   0  0  0  0  0  3  0  0  0  0  0  0
  1  2  1  0  0  0  0
  1  3  1  0  0  0  0
  3  4  1  0  0  0  0
  3  7  1  0  0  0  0
  5  3  1  0  0  0  0
  6 11  1  0  0  0  0
  7  8  1  0  0  0  0
  7  6  2  0  0  0  0
  8  9  2  0  0  0  0
  9 13  1  0  0  0  0
  9 10  1  0  0  0  0
 10 14  1  0  0  0  0
 11 10  2  0  0  0  0
 11 15  1  0  0  0  0
 12  8  1  0  0  0  0
 16 17  1  0  0  0  0
 16 22  1  0  0  0  0
 17 23  1  0  0  0  0
 18  6  1  0  0  0  0
 18 17  2  0  0  0  0
 19 18  1  0  0  0  0
 20 19  2  0  0  0  0
 20 21  1  0  0  0  0
 21 16  2  0  0  0  0
 24 20  1  0  0  0  0
 25 28  1  0  0  0  0
 25  1  1  0  0  0  0
 26 25  1  0  0  0  0
 27 26  1  0  0  0  0
 29 28  1  0  0  0  0
 30 31  1  0  0  0  0
 30 25  1  0  0  0  0
 31 32  1  0  0  0  0
 33 31  1  0  0  0  0
 34 31  1  0  0  0  0
 34 35  1  0  0  0  0
 36 34  1  0  0  0  0
 38 45  1  0  0  0  0
 38 37  1  0  0  0  0
 39 34  1  0  0  0  0
 39 38  2  0  0  0  0
 40 39  1  0  0  0  0
 41 40  1  0  0  0  0
 42 40  2  0  0  0  0
 42 44  1  0  0  0  0
 43 42  1  0  0  0  0
 44 45  2  0  0  0  0
M  END
>  <minimizedAffinity>
-5.56703806

$$$$

 OpenBabel03252508483D

 45 47  0  0  0  0  0  0  0  0999 V2000
   36.0990   29.5100   41.6410 N   0  0  0  0  0  0  0  0  0  0  0  0
   35.7110   28.7150   41.1250 H   0  0  0  0  0  0  0  0  0  0  0  0
   36.2820   30.6940   40.8500 C   0  0  0  0  0  0  0  0  0  0  0  0
   37.1940   31.2410   41.1830 H   0  0  0  0  0  0  0  0  0  0  0  0
   35.4500   31.4190   41.0090 H   0  0  0  0  0  0  0  0  0  0  0  0
   37.2600   31.2130   38.6070 C   0  0  0  0  0  0  0  0  0  0  0  0
   36.4060   30.4380   39.3850 C   0  0  0  0  0  0  0  0  0  0  0  0
   35.6820   29.4550   38.7790 C   0  0  0  0  0  0  0  0  0  0  0  0
   35.8000   29.2390   37.4320 C   0  0  0  0  0  0  0  0  0  0  0  0
   36.6320   29.9850   36.6370 C   0  0  0  0  0  0  0  0  0  0  0  0
   37.3530   30.9790   37.2910 C   0  0  0  0  0  0  0  0  0  0  0  0
   35.0200   28.8450   39.3650 H   0  0  0  0  0  0  0  0  0  0  0  0
   35.2260   28.4550   36.9480 H   0  0  0  0  0  0  0  0  0  0  0  0
   36.7590   29.8470   35.5520 H   0  0  0  0  0  0  0  0  0  0  0  0
   38.0330   31.6140   36.7350 H   0  0  0  0  0  0  0  0  0  0  0  0
   38.3710   34.4600   40.2130 C   0  0  0  0  0  0  0  0  0  0  0  0
   37.5460   33.5460   39.5030 C   0  0  0  0  0  0  0  0  0  0  0  0
   38.0150   32.2540   39.3170 C   0  0  0  0  0  0  0  0  0  0  0  0
   39.2270   31.9370   39.8200 N   0  0  0  0  0  0  0  0  0  0  0  0
   40.0020   32.8270   40.4970 C   0  0  0  0  0  0  0  0  0  0  0  0
   39.5570   34.0750   40.6800 N   0  0  0  0  0  0  0  0  0  0  0  0
   38.0100   35.4740   40.3650 H   0  0  0  0  0  0  0  0  0  0  0  0
   36.5920   33.8120   39.1160 H   0  0  0  0  0  0  0  0  0  0  0  0
   40.9350   32.3810   40.8180 H   0  0  0  0  0  0  0  0  0  0  0  0
   37.4770   29.1130   42.5690 S   0  0  0  0  0  0  0  0  0  0  0  0
   37.1910   29.1980   44.0400 O   0  0  0  0  0  0  0  0  0  0  0  0
   37.3530   28.5350   44.7360 H   0  0  0  0  0  0  0  0  0  0  0  0
   38.6320   29.9980   42.2070 O   0  0  0  0  0  0  0  0  0  0  0  0
   38.8950   30.7600   42.7970 H   0  0  0  0  0  0  0  0  0  0  0  0
   37.8890   27.5210   42.2080 O   0  0  0  0  0  0  0  0  0  0  0  0
   37.1710   27.1500   41.0800 C   0  0  0  0  0  0  0  0  0  0  0  0
   36.1640   26.7840   41.2630 H   0  0  0  0  0  0  0  0  0  0  0  0
   37.1270   28.0330   40.3930 H   0  0  0  0  0  0  0  0  0  0  0  0
   37.9540   26.0980   40.3010 C   0  0  0  0  0  0  0  0  0  0  0  0
   37.2250   25.3620   39.8920 H   0  0  0  0  0  0  0  0  0  0  0  0
   38.7050   25.6010   40.9400 H   0  0  0  0  0  0  0  0  0  0  0  0
   37.5260   25.2640   37.7310 F   0  0  0  0  0  0  0  0  0  0  0  0
   38.3200   26.3710   37.9320 C   0  0  0  0  0  0  0  0  0  0  0  0
   38.6000   26.8650   39.1920 C   0  0  0  0  0  0  0  0  0  0  0  0
   39.4020   27.9750   39.3290 C   0  0  0  0  0  0  0  0  0  0  0  0
   39.5910   28.3210   40.3550 H   0  0  0  0  0  0  0  0  0  0  0  0
   39.9420   28.6150   38.2310 C   0  0  0  0  0  0  0  0  0  0  0  0
   40.5730   29.4980   38.3720 H   0  0  0  0  0  0  0  0  0  0  0  0
   39.6470   28.1030   36.9770 C   0  0  0  0  0  3  0  0  0  0  0  0
   38.8420   26.9880   36.8150 C   0  0  0  0  0  3  0  0  0  0  0  0
  1 25  1  0  0  0  0
  2  1  1  0  0  0  0
  3  5  1  0  0  0  0
  3  4  1  0  0  0  0
  3  1  1  0  0  0  0
  6 18  1  0  0  0  0
  6  7  1  0  0  0  0
  7  3  1  0  0  0  0
  8 12  1  0  0  0  0
  8  7  2  0  0  0  0
  9  8  1  0  0  0  0
 10 11  1  0  0  0  0
 10  9  2  0  0  0  0
 11  6  2  0  0  0  0
 13  9  1  0  0  0  0
 14 10  1  0  0  0  0
 15 11  1  0  0  0  0
 16 22  1  0  0  0  0
 16 21  1  0  0  0  0
 17 16  2  0  0  0  0
 18 17  1  0  0  0  0
 18 19  2  0  0  0  0
 19 20  1  0  0  0  0
 20 21  2  0  0  0  0
 20 24  1  0  0  0  0
 23 17  1  0  0  0  0
 25 26  1  0  0  0  0
 26 27  1  0  0  0  0
 28 25  1  0  0  0  0
 28 29  1  0  0  0  0
 30 25  1  0  0  0  0
 31 32  1  0  0  0  0
 31 30  1  0  0  0  0
 33 31  1  0  0  0  0
 34 36  1  0  0  0  0
 34 31  1  0  0  0  0
 35 34  1  0  0  0  0
 37 38  1  0  0  0  0
 38 39  1  0  0  0  0
 39 40  2  0  0  0  0
 39 34  1  0  0  0  0
 40 41  1  0  0  0  0
 42 43  1  0  0  0  0
 42 40  1  0  0  0  0
 44 42  2  0  0  0  0
 45 44  1  0  0  0  0
 45 38  2  0  0  0  0
M  END
>  <minimizedAffinity>
-5.55514431

$$$$

 OpenBabel03252508483D

 45 47  0  0  0  0  0  0  0  0999 V2000
   38.3300   30.7280   40.6440 N   0  0  0  0  0  0  0  0  0  0  0  0
   38.4320   29.8050   40.2120 H   0  0  0  0  0  0  0  0  0  0  0  0
   38.6950   30.7750   42.0300 C   0  0  0  0  0  0  0  0  0  0  0  0
   37.9420   31.3590   42.6070 H   0  0  0  0  0  0  0  0  0  0  0  0
   39.6510   31.3300   42.1790 H   0  0  0  0  0  0  0  0  0  0  0  0
   40.0680   28.8030   42.7270 C   0  0  0  0  0  0  0  0  0  0  0  0
   38.8300   29.4340   42.6730 C   0  0  0  0  0  0  0  0  0  0  0  0
   37.7490   28.7990   43.2100 C   0  0  0  0  0  0  0  0  0  0  0  0
   37.8880   27.5660   43.7880 C   0  0  0  0  0  0  0  0  0  0  0  0
   39.0940   26.9160   43.8560 C   0  0  0  0  0  0  0  0  0  0  0  0
   40.1730   27.5960   43.2990 C   0  0  0  0  0  0  0  0  0  0  0  0
   36.7860   29.2740   43.1800 H   0  0  0  0  0  0  0  0  0  0  0  0
   37.0290   27.0590   44.2170 H   0  0  0  0  0  0  0  0  0  0  0  0
   39.2520   25.9270   44.3120 H   0  0  0  0  0  0  0  0  0  0  0  0
   41.1610   27.1510   43.3110 H   0  0  0  0  0  0  0  0  0  0  0  0
   43.1350   30.9620   42.1920 C   0  0  0  0  0  0  0  0  0  0  0  0
   42.0810   30.3030   42.8800 C   0  0  0  0  0  0  0  0  0  0  0  0
   41.1950   29.5380   42.1370 C   0  0  0  0  0  0  0  0  0  0  0  0
   41.3840   29.4610   40.8020 N   0  0  0  0  0  0  0  0  0  0  0  0
   42.4000   30.0990   40.1610 C   0  0  0  0  0  0  0  0  0  0  0  0
   43.2580   30.8400   40.8720 N   0  0  0  0  0  0  0  0  0  0  0  0
   43.8340   31.5630   42.7670 H   0  0  0  0  0  0  0  0  0  0  0  0
   41.9490   30.3740   43.9330 H   0  0  0  0  0  0  0  0  0  0  0  0
   42.3790   29.9130   39.0950 H   0  0  0  0  0  0  0  0  0  0  0  0
   36.8210   31.4650   40.3300 S   0  0  0  0  0  0  0  0  0  0  0  0
   36.9320   32.9610   40.3220 O   0  0  0  0  0  0  0  0  0  0  0  0
   36.6310   33.5960   39.6460 H   0  0  0  0  0  0  0  0  0  0  0  0
   35.7970   31.0200   41.3320 O   0  0  0  0  0  0  0  0  0  0  0  0
   35.5290   31.6170   42.0860 H   0  0  0  0  0  0  0  0  0  0  0  0
   36.3230   30.9690   38.8000 O   0  0  0  0  0  0  0  0  0  0  0  0
   35.9210   29.6450   38.9020 C   0  0  0  0  0  0  0  0  0  0  0  0
   35.8950   29.2370   39.9090 H   0  0  0  0  0  0  0  0  0  0  0  0
   34.9070   29.5550   38.4370 H   0  0  0  0  0  0  0  0  0  0  0  0
   36.8190   28.7710   38.0310 C   0  0  0  0  0  0  0  0  0  0  0  0
   37.6810   29.3920   37.6970 H   0  0  0  0  0  0  0  0  0  0  0  0
   36.2660   28.3610   37.1670 H   0  0  0  0  0  0  0  0  0  0  0  0
   39.5100   28.3380   38.2690 F   0  0  0  0  0  0  0  0  0  0  0  0
   38.6560   27.5480   39.0060 C   0  0  0  0  0  0  0  0  0  0  0  0
   37.2820   27.6860   38.9490 C   0  0  0  0  0  0  0  0  0  0  0  0
   36.4800   26.8650   39.7090 C   0  0  0  0  0  0  0  0  0  0  0  0
   35.3950   27.0210   39.6220 H   0  0  0  0  0  0  0  0  0  0  0  0
   37.0150   25.8980   40.5360 C   0  0  0  0  0  0  0  0  0  0  0  0
   36.3520   25.2630   41.1310 H   0  0  0  0  0  0  0  0  0  0  0  0
   38.3950   25.7780   40.5780 C   0  0  0  0  0  3  0  0  0  0  0  0
   39.2220   26.5930   39.8230 C   0  0  0  0  0  3  0  0  0  0  0  0
  1  3  1  0  0  0  0
  2  1  1  0  0  0  0
  3  5  1  0  0  0  0
  3  4  1  0  0  0  0
  3  7  1  0  0  0  0
  6 11  1  0  0  0  0
  7  6  2  0  0  0  0
  7  8  1  0  0  0  0
  8  9  2  0  0  0  0
  9 10  1  0  0  0  0
  9 13  1  0  0  0  0
 10 14  1  0  0  0  0
 11 15  1  0  0  0  0
 11 10  2  0  0  0  0
 12  8  1  0  0  0  0
 16 22  1  0  0  0  0
 16 17  1  0  0  0  0
 17 23  1  0  0  0  0
 18  6  1  0  0  0  0
 18 17  2  0  0  0  0
 19 18  1  0  0  0  0
 20 19  2  0  0  0  0
 20 21  1  0  0  0  0
 21 16  2  0  0  0  0
 24 20  1  0  0  0  0
 25  1  1  0  0  0  0
 25 28  1  0  0  0  0
 26 25  1  0  0  0  0
 27 26  1  0  0  0  0
 28 29  1  0  0  0  0
 30 31  1  0  0  0  0
 30 25  1  0  0  0  0
 31 32  1  0  0  0  0
 33 31  1  0  0  0  0
 34 31  1  0  0  0  0
 34 39  1  0  0  0  0
 35 34  1  0  0  0  0
 36 34  1  0  0  0  0
 37 38  1  0  0  0  0
 38 45  1  0  0  0  0
 39 38  2  0  0  0  0
 39 40  1  0  0  0  0
 40 42  2  0  0  0  0
 41 40  1  0  0  0  0
 42 44  1  0  0  0  0
 42 43  1  0  0  0  0
 45 44  2  0  0  0  0
M  END
>  <minimizedAffinity>
-5.49826384

$$$$

 OpenBabel03252508483D

 45 47  0  0  0  0  0  0  0  0999 V2000
   39.1740   30.1040   41.9700 N   0  0  0  0  0  0  0  0  0  0  0  0
   38.2040   30.1440   42.2980 H   0  0  0  0  0  0  0  0  0  0  0  0
   39.3610   30.5600   40.6220 C   0  0  0  0  0  0  0  0  0  0  0  0
   38.7630   29.9360   39.9180 H   0  0  0  0  0  0  0  0  0  0  0  0
   40.4160   30.4200   40.2900 H   0  0  0  0  0  0  0  0  0  0  0  0
   37.7390   32.3160   39.8850 C   0  0  0  0  0  0  0  0  0  0  0  0
   38.9880   31.9890   40.4010 C   0  0  0  0  0  0  0  0  0  0  0  0
   39.8600   32.9960   40.6890 C   0  0  0  0  0  0  0  0  0  0  0  0
   39.5060   34.3010   40.4730 C   0  0  0  0  0  0  0  0  0  0  0  0
   38.2840   34.6570   39.9640 C   0  0  0  0  0  0  0  0  0  0  0  0
   37.4210   33.6020   39.6840 C   0  0  0  0  0  0  0  0  0  0  0  0
   40.8280   32.7610   41.0910 H   0  0  0  0  0  0  0  0  0  0  0  0
   40.1990   35.1040   40.7020 H   0  0  0  0  0  0  0  0  0  0  0  0
   37.9570   35.6910   39.7750 H   0  0  0  0  0  0  0  0  0  0  0  0
   36.4350   33.7980   39.2780 H   0  0  0  0  0  0  0  0  0  0  0  0
   35.7990   29.5360   38.1930 C   0  0  0  0  0  0  0  0  0  0  0  0
   36.6960   30.6280   38.3390 C   0  0  0  0  0  0  0  0  0  0  0  0
   36.8410   31.1890   39.5990 C   0  0  0  0  0  0  0  0  0  0  0  0
   36.1230   30.6660   40.6160 N   0  0  0  0  0  0  0  0  0  0  0  0
   35.2700   29.6190   40.4560 C   0  0  0  0  0  0  0  0  0  0  0  0
   35.1240   29.0740   39.2430 N   0  0  0  0  0  0  0  0  0  0  0  0
   35.6810   29.0900   37.2090 H   0  0  0  0  0  0  0  0  0  0  0  0
   37.2560   31.0270   37.5260 H   0  0  0  0  0  0  0  0  0  0  0  0
   34.7890   29.3490   41.3880 H   0  0  0  0  0  0  0  0  0  0  0  0
   39.9350   28.6060   42.2740 S   0  0  0  0  0  0  0  0  0  0  0  0
   41.2520   28.7900   42.9690 O   0  0  0  0  0  0  0  0  0  0  0  0
   41.5820   28.3670   43.7830 H   0  0  0  0  0  0  0  0  0  0  0  0
   40.1170   27.8360   40.9990 O   0  0  0  0  0  0  0  0  0  0  0  0
   41.0100   27.7940   40.5530 H   0  0  0  0  0  0  0  0  0  0  0  0
   38.9270   27.7220   43.2920 O   0  0  0  0  0  0  0  0  0  0  0  0
   37.6340   27.8350   42.7990 C   0  0  0  0  0  0  0  0  0  0  0  0
   37.0070   28.5750   43.2890 H   0  0  0  0  0  0  0  0  0  0  0  0
   37.7010   28.0680   41.7060 H   0  0  0  0  0  0  0  0  0  0  0  0
   36.9450   26.4750   42.8580 C   0  0  0  0  0  0  0  0  0  0  0  0
   35.8480   26.6500   42.9230 H   0  0  0  0  0  0  0  0  0  0  0  0
   37.3060   25.8790   43.7160 H   0  0  0  0  0  0  0  0  0  0  0  0
   38.5140   24.2350   42.9090 F   0  0  0  0  0  0  0  0  0  0  0  0
   38.0840   24.7010   41.6860 C   0  0  0  0  0  0  0  0  0  0  0  0
   37.2950   25.8270   41.5570 C   0  0  0  0  0  0  0  0  0  0  0  0
   36.8990   26.2450   40.3060 C   0  0  0  0  0  0  0  0  0  0  0  0
   36.2720   27.1490   40.2660 H   0  0  0  0  0  0  0  0  0  0  0  0
   37.2720   25.5640   39.1660 C   0  0  0  0  0  0  0  0  0  0  0  0
   36.9380   25.9180   38.1860 H   0  0  0  0  0  0  0  0  0  0  0  0
   38.0630   24.4360   39.3190 C   0  0  0  0  0  3  0  0  0  0  0  0
   38.4730   23.9960   40.5660 C   0  0  0  0  0  3  0  0  0  0  0  0
  1 25  1  0  0  0  0
  1  2  1  0  0  0  0
  3  1  1  0  0  0  0
  4  3  1  0  0  0  0
  5  3  1  0  0  0  0
  6  7  1  0  0  0  0
  7  3  1  0  0  0  0
  7  8  2  0  0  0  0
  8 12  1  0  0  0  0
  9  8  1  0  0  0  0
  9 13  1  0  0  0  0
 10  9  2  0  0  0  0
 11  6  2  0  0  0  0
 11 10  1  0  0  0  0
 14 10  1  0  0  0  0
 15 11  1  0  0  0  0
 16 17  2  0  0  0  0
 16 21  1  0  0  0  0
 17 18  1  0  0  0  0
 18  6  1  0  0  0  0
 18 19  2  0  0  0  0
 20 19  1  0  0  0  0
 20 24  1  0  0  0  0
 21 20  2  0  0  0  0
 22 16  1  0  0  0  0
 23 17  1  0  0  0  0
 25 26  1  0  0  0  0
 25 30  1  0  0  0  0
 26 27  1  0  0  0  0
 28 25  1  0  0  0  0
 29 28  1  0  0  0  0
 31 34  1  0  0  0  0
 31 32  1  0  0  0  0
 31 30  1  0  0  0  0
 33 31  1  0  0  0  0
 34 35  1  0  0  0  0
 34 36  1  0  0  0  0
 38 37  1  0  0  0  0
 39 38  1  0  0  0  0
 39 34  1  0  0  0  0
 40 39  2  0  0  0  0
 41 40  1  0  0  0  0
 42 44  2  0  0  0  0
 42 40  1  0  0  0  0
 43 42  1  0  0  0  0
 44 45  1  0  0  0  0
 45 38  2  0  0  0  0
M  END
>  <minimizedAffinity>
-5.39979506

$$$$
