
 OpenBabel03252504543D

 21 22  0  0  0  0  0  0  0  0999 V2000
   37.7090   28.4110   43.6230 C   0  0  0  0  0  0  0  0  0  0  0  0
   36.6380   28.3950   43.9740 H   0  0  0  0  0  0  0  0  0  0  0  0
   38.4130   28.6110   44.4350 H   0  0  0  0  0  0  0  0  0  0  0  0
   39.1370   31.0920   41.4720 C   0  0  0  0  0  0  0  0  0  0  0  0
   39.0340   30.0760   42.4440 C   0  0  0  0  0  0  0  0  0  0  0  0
   37.7810   29.4600   42.6060 C   0  0  0  0  0  0  0  0  0  0  0  0
   36.7480   29.8700   41.8260 N   0  0  0  0  0  0  0  0  0  0  0  0
   36.8890   30.8460   40.9060 C   0  0  0  0  0  0  0  0  0  0  0  0
   38.0830   31.4440   40.7420 N   0  0  0  0  0  0  0  0  0  0  0  0
   40.1130   31.5490   41.3690 H   0  0  0  0  0  0  0  0  0  0  0  0
   39.8920   29.7870   43.0410 H   0  0  0  0  0  0  0  0  0  0  0  0
   36.0440   31.1530   40.2970 H   0  0  0  0  0  0  0  0  0  0  0  0
   40.2190   27.1760   43.6730 F   0  0  0  0  0  0  0  0  0  0  0  0
   39.2160   26.4160   43.1280 C   0  0  0  0  0  0  0  0  0  0  0  0
   37.9720   27.0510   43.1120 C   0  0  0  0  0  0  0  0  0  0  0  0
   36.9350   26.3260   42.5740 C   0  0  0  0  0  0  0  0  0  0  0  0
   35.9220   26.6940   42.4990 H   0  0  0  0  0  0  0  0  0  0  0  0
   37.1120   25.0380   42.0750 C   0  0  0  0  0  0  0  0  0  0  0  0
   36.3070   24.4520   41.6470 H   0  0  0  0  0  0  0  0  0  0  0  0
   38.3390   24.4300   42.0970 C   0  0  0  0  0  3  0  0  0  0  0  0
   39.3950   25.1410   42.6340 C   0  0  0  0  0  3  0  0  0  0  0  0
  1  2  1  0  0  0  0
  1  3  1  0  0  0  0
  4  5  1  0  0  0  0
  5  6  2  0  0  0  0
  5 11  1  0  0  0  0
  6  1  1  0  0  0  0
  7  6  1  0  0  0  0
  8  7  2  0  0  0  0
  9  8  1  0  0  0  0
  9  4  2  0  0  0  0
 10  4  1  0  0  0  0
 12  8  1  0  0  0  0
 14 13  1  0  0  0  0
 15 14  1  0  0  0  0
 15  1  1  0  0  0  0
 16 15  2  0  0  0  0
 17 16  1  0  0  0  0
 18 20  2  0  0  0  0
 18 16  1  0  0  0  0
 19 18  1  0  0  0  0
 20 21  1  0  0  0  0
 21 14  2  0  0  0  0
M  END
>  <minimizedAffinity>
-4.62287188

$$$$

 OpenBabel03252504543D

 21 22  0  0  0  0  0  0  0  0999 V2000
   36.6300   27.6160   42.9760 C   0  0  0  0  0  0  0  0  0  0  0  0
   35.7190   27.0010   42.7220 H   0  0  0  0  0  0  0  0  0  0  0  0
   36.5810   28.0400   43.9820 H   0  0  0  0  0  0  0  0  0  0  0  0
   35.8550   29.5410   39.8870 C   0  0  0  0  0  0  0  0  0  0  0  0
   35.8210   28.5370   40.8750 C   0  0  0  0  0  0  0  0  0  0  0  0
   36.6920   28.6750   41.9690 C   0  0  0  0  0  0  0  0  0  0  0  0
   37.5100   29.7580   42.0170 N   0  0  0  0  0  0  0  0  0  0  0  0
   37.5120   30.6970   41.0500 C   0  0  0  0  0  0  0  0  0  0  0  0
   36.6830   30.5750   39.9970 N   0  0  0  0  0  0  0  0  0  0  0  0
   35.1740   29.4090   39.0550 H   0  0  0  0  0  0  0  0  0  0  0  0
   35.1470   27.6920   40.7880 H   0  0  0  0  0  0  0  0  0  0  0  0
   38.1790   31.5520   41.1150 H   0  0  0  0  0  0  0  0  0  0  0  0
   36.6520   25.2660   41.4580 F   0  0  0  0  0  0  0  0  0  0  0  0
   37.7940   25.4930   42.1810 C   0  0  0  0  0  0  0  0  0  0  0  0
   37.7630   26.6700   42.9320 C   0  0  0  0  0  0  0  0  0  0  0  0
   38.8890   26.9380   43.6750 C   0  0  0  0  0  0  0  0  0  0  0  0
   39.0000   27.8120   44.3000 H   0  0  0  0  0  0  0  0  0  0  0  0
   39.9920   26.0890   43.6800 C   0  0  0  0  0  0  0  0  0  0  0  0
   40.8880   26.2840   44.2590 H   0  0  0  0  0  0  0  0  0  0  0  0
   40.0070   24.9380   42.9380 C   0  0  0  0  0  3  0  0  0  0  0  0
   38.8850   24.6500   42.1840 C   0  0  0  0  0  3  0  0  0  0  0  0
  1  3  1  0  0  0  0
  2  1  1  0  0  0  0
  4  9  2  0  0  0  0
  4  5  1  0  0  0  0
  5  6  2  0  0  0  0
  6  7  1  0  0  0  0
  6  1  1  0  0  0  0
  8 12  1  0  0  0  0
  8  7  2  0  0  0  0
  9  8  1  0  0  0  0
 10  4  1  0  0  0  0
 11  5  1  0  0  0  0
 13 14  1  0  0  0  0
 14 21  2  0  0  0  0
 14 15  1  0  0  0  0
 15  1  1  0  0  0  0
 15 16  2  0  0  0  0
 16 18  1  0  0  0  0
 16 17  1  0  0  0  0
 18 19  1  0  0  0  0
 20 18  2  0  0  0  0
 21 20  1  0  0  0  0
M  END
>  <minimizedAffinity>
-4.56797314

$$$$

 OpenBabel03252504543D

 21 22  0  0  0  0  0  0  0  0999 V2000
   36.6900   27.3830   42.9550 C   0  0  0  0  0  0  0  0  0  0  0  0
   37.1570   27.7830   43.9000 H   0  0  0  0  0  0  0  0  0  0  0  0
   35.6720   27.0180   43.1140 H   0  0  0  0  0  0  0  0  0  0  0  0
   37.7380   24.0400   41.7010 C   0  0  0  0  0  0  0  0  0  0  0  0
   36.9240   25.1030   42.1410 C   0  0  0  0  0  0  0  0  0  0  0  0
   37.5630   26.3010   42.5030 C   0  0  0  0  0  0  0  0  0  0  0  0
   38.9160   26.3710   42.4100 N   0  0  0  0  0  0  0  0  0  0  0  0
   39.6590   25.3300   41.9830 C   0  0  0  0  0  0  0  0  0  0  0  0
   39.0590   24.1770   41.6350 N   0  0  0  0  0  0  0  0  0  0  0  0
   37.2190   23.1290   41.4300 H   0  0  0  0  0  0  0  0  0  0  0  0
   35.8460   24.9940   42.1970 H   0  0  0  0  0  0  0  0  0  0  0  0
   40.7400   25.4150   41.9190 H   0  0  0  0  0  0  0  0  0  0  0  0
   38.3560   29.6230   43.1300 F   0  0  0  0  0  0  0  0  0  0  0  0
   37.4460   29.6630   42.1040 C   0  0  0  0  0  0  0  0  0  0  0  0
   36.6250   28.5360   42.0350 C   0  0  0  0  0  0  0  0  0  0  0  0
   35.6950   28.5330   41.0210 C   0  0  0  0  0  0  0  0  0  0  0  0
   34.9970   27.7260   40.8520 H   0  0  0  0  0  0  0  0  0  0  0  0
   35.5790   29.5870   40.1190 C   0  0  0  0  0  0  0  0  0  0  0  0
   34.8530   29.6010   39.3140 H   0  0  0  0  0  0  0  0  0  0  0  0
   36.3930   30.6850   40.2010 C   0  0  0  0  0  3  0  0  0  0  0  0
   37.3340   30.7090   41.2130 C   0  0  0  0  0  3  0  0  0  0  0  0
  1  3  1  0  0  0  0
  1  2  1  0  0  0  0
  4  5  1  0  0  0  0
  5 11  1  0  0  0  0
  5  6  2  0  0  0  0
  6  1  1  0  0  0  0
  7  6  1  0  0  0  0
  8  7  2  0  0  0  0
  9  4  2  0  0  0  0
  9  8  1  0  0  0  0
 10  4  1  0  0  0  0
 12  8  1  0  0  0  0
 14 13  1  0  0  0  0
 15 14  1  0  0  0  0
 15  1  1  0  0  0  0
 16 15  2  0  0  0  0
 17 16  1  0  0  0  0
 18 20  2  0  0  0  0
 18 16  1  0  0  0  0
 19 18  1  0  0  0  0
 20 21  1  0  0  0  0
 21 14  2  0  0  0  0
M  END
>  <minimizedAffinity>
-4.56072521

$$$$

 OpenBabel03252504543D

 21 22  0  0  0  0  0  0  0  0999 V2000
   35.6160   29.2050   40.8630 C   0  0  0  0  0  0  0  0  0  0  0  0
   35.0790   28.5860   40.0880 H   0  0  0  0  0  0  0  0  0  0  0  0
   34.9380   29.6030   41.6220 H   0  0  0  0  0  0  0  0  0  0  0  0
   37.1520   31.0720   38.0350 C   0  0  0  0  0  0  0  0  0  0  0  0
   36.5250   30.0470   38.7710 C   0  0  0  0  0  0  0  0  0  0  0  0
   36.2670   30.2890   40.1300 C   0  0  0  0  0  0  0  0  0  0  0  0
   36.6310   31.4860   40.6580 N   0  0  0  0  0  0  0  0  0  0  0  0
   37.2300   32.4420   39.9200 C   0  0  0  0  0  0  0  0  0  0  0  0
   37.4820   32.2210   38.6160 N   0  0  0  0  0  0  0  0  0  0  0  0
   37.3390   30.8570   36.9900 H   0  0  0  0  0  0  0  0  0  0  0  0
   36.2550   29.1080   38.2990 H   0  0  0  0  0  0  0  0  0  0  0  0
   37.5100   33.3900   40.3690 H   0  0  0  0  0  0  0  0  0  0  0  0
   36.3190   26.6980   39.8390 F   0  0  0  0  0  0  0  0  0  0  0  0
   36.9140   27.0180   41.0330 C   0  0  0  0  0  0  0  0  0  0  0  0
   36.5490   28.2730   41.5260 C   0  0  0  0  0  0  0  0  0  0  0  0
   37.1220   28.6360   42.7230 C   0  0  0  0  0  0  0  0  0  0  0  0
   36.9290   29.5770   43.2180 H   0  0  0  0  0  0  0  0  0  0  0  0
   38.0100   27.8060   43.4010 C   0  0  0  0  0  0  0  0  0  0  0  0
   38.4710   28.0760   44.3450 H   0  0  0  0  0  0  0  0  0  0  0  0
   38.3570   26.5790   42.9040 C   0  0  0  0  0  3  0  0  0  0  0  0
   37.7930   26.1940   41.7020 C   0  0  0  0  0  3  0  0  0  0  0  0
  1 15  1  0  0  0  0
  1  3  1  0  0  0  0
  2  1  1  0  0  0  0
  4  9  2  0  0  0  0
  4  5  1  0  0  0  0
  5  6  2  0  0  0  0
  6  7  1  0  0  0  0
  6  1  1  0  0  0  0
  8 12  1  0  0  0  0
  8  7  2  0  0  0  0
  9  8  1  0  0  0  0
 10  4  1  0  0  0  0
 11  5  1  0  0  0  0
 13 14  1  0  0  0  0
 14 15  2  0  0  0  0
 14 21  1  0  0  0  0
 15 16  1  0  0  0  0
 16 17  1  0  0  0  0
 16 18  2  0  0  0  0
 18 19  1  0  0  0  0
 20 18  1  0  0  0  0
 21 20  2  0  0  0  0
M  END
>  <minimizedAffinity>
-4.4631443

$$$$

 OpenBabel03252504543D

 21 22  0  0  0  0  0  0  0  0999 V2000
   36.2280   30.5010   41.0370 C   0  0  0  0  0  0  0  0  0  0  0  0
   35.1410   30.1990   41.0710 H   0  0  0  0  0  0  0  0  0  0  0  0
   36.4100   31.4620   41.5240 H   0  0  0  0  0  0  0  0  0  0  0  0
   37.6940   31.7710   37.8610 C   0  0  0  0  0  0  0  0  0  0  0  0
   37.3380   31.6790   39.2220 C   0  0  0  0  0  0  0  0  0  0  0  0
   36.5800   30.5650   39.6190 C   0  0  0  0  0  0  0  0  0  0  0  0
   36.2360   29.6440   38.6820 N   0  0  0  0  0  0  0  0  0  0  0  0
   36.5970   29.7690   37.3890 C   0  0  0  0  0  0  0  0  0  0  0  0
   37.3220   30.8330   36.9960 N   0  0  0  0  0  0  0  0  0  0  0  0
   38.2780   32.6400   37.5840 H   0  0  0  0  0  0  0  0  0  0  0  0
   37.6400   32.4440   39.9290 H   0  0  0  0  0  0  0  0  0  0  0  0
   36.3070   29.0170   36.6620 H   0  0  0  0  0  0  0  0  0  0  0  0
   38.7620   30.8520   42.1680 F   0  0  0  0  0  0  0  0  0  0  0  0
   38.2100   29.6120   42.3680 C   0  0  0  0  0  0  0  0  0  0  0  0
   36.9460   29.4580   41.7950 C   0  0  0  0  0  0  0  0  0  0  0  0
   36.3530   28.2290   41.9710 C   0  0  0  0  0  0  0  0  0  0  0  0
   35.3790   27.9740   41.5820 H   0  0  0  0  0  0  0  0  0  0  0  0
   36.9740   27.2020   42.6750 C   0  0  0  0  0  0  0  0  0  0  0  0
   36.5230   26.2270   42.8240 H   0  0  0  0  0  0  0  0  0  0  0  0
   38.2150   27.3690   43.2300 C   0  0  0  0  0  3  0  0  0  0  0  0
   38.8280   28.5960   43.0660 C   0  0  0  0  0  3  0  0  0  0  0  0
  1  2  1  0  0  0  0
  1  3  1  0  0  0  0
  1 15  1  0  0  0  0
  4  5  1  0  0  0  0
  5  6  2  0  0  0  0
  5 11  1  0  0  0  0
  6  1  1  0  0  0  0
  7  6  1  0  0  0  0
  8  7  2  0  0  0  0
  9  8  1  0  0  0  0
  9  4  2  0  0  0  0
 10  4  1  0  0  0  0
 12  8  1  0  0  0  0
 13 14  1  0  0  0  0
 14 21  1  0  0  0  0
 15 16  1  0  0  0  0
 15 14  2  0  0  0  0
 16 18  2  0  0  0  0
 17 16  1  0  0  0  0
 18 19  1  0  0  0  0
 18 20  1  0  0  0  0
 21 20  2  0  0  0  0
M  END
>  <minimizedAffinity>
-4.44238949

$$$$

 OpenBabel03252504543D

 21 22  0  0  0  0  0  0  0  0999 V2000
   36.6130   30.9450   41.0330 C   0  0  0  0  0  0  0  0  0  0  0  0
   35.5430   30.7840   40.7140 H   0  0  0  0  0  0  0  0  0  0  0  0
   36.7180   31.7730   41.7400 H   0  0  0  0  0  0  0  0  0  0  0  0
   37.4930   30.9580   37.4180 C   0  0  0  0  0  0  0  0  0  0  0  0
   36.7960   30.7170   38.6190 C   0  0  0  0  0  0  0  0  0  0  0  0
   37.3610   31.2140   39.8060 C   0  0  0  0  0  0  0  0  0  0  0  0
   38.5340   31.8940   39.7340 N   0  0  0  0  0  0  0  0  0  0  0  0
   39.1690   32.1030   38.5630 C   0  0  0  0  0  0  0  0  0  0  0  0
   38.6390   31.6320   37.4200 N   0  0  0  0  0  0  0  0  0  0  0  0
   37.0350   30.5630   36.5190 H   0  0  0  0  0  0  0  0  0  0  0  0
   35.8610   30.1670   38.6200 H   0  0  0  0  0  0  0  0  0  0  0  0
   40.1070   32.6510   38.5370 H   0  0  0  0  0  0  0  0  0  0  0  0
   35.2150   28.5310   40.8250 F   0  0  0  0  0  0  0  0  0  0  0  0
   36.3220   28.4860   41.6340 C   0  0  0  0  0  0  0  0  0  0  0  0
   37.0040   29.7000   41.7240 C   0  0  0  0  0  0  0  0  0  0  0  0
   38.1230   29.7030   42.5260 C   0  0  0  0  0  0  0  0  0  0  0  0
   38.7430   30.5720   42.6850 H   0  0  0  0  0  0  0  0  0  0  0  0
   38.5480   28.5650   43.2050 C   0  0  0  0  0  0  0  0  0  0  0  0
   39.4260   28.5480   43.8410 H   0  0  0  0  0  0  0  0  0  0  0  0
   37.8670   27.3810   43.1060 C   0  0  0  0  0  3  0  0  0  0  0  0
   36.7410   27.3570   42.3060 C   0  0  0  0  0  3  0  0  0  0  0  0
  1 15  1  0  0  0  0
  1  3  1  0  0  0  0
  2  1  1  0  0  0  0
  4  9  2  0  0  0  0
  4  5  1  0  0  0  0
  5 11  1  0  0  0  0
  5  6  2  0  0  0  0
  6  1  1  0  0  0  0
  7  6  1  0  0  0  0
  8  7  2  0  0  0  0
  9  8  1  0  0  0  0
 10  4  1  0  0  0  0
 12  8  1  0  0  0  0
 13 14  1  0  0  0  0
 14 15  2  0  0  0  0
 14 21  1  0  0  0  0
 15 16  1  0  0  0  0
 16 17  1  0  0  0  0
 16 18  2  0  0  0  0
 18 19  1  0  0  0  0
 20 18  1  0  0  0  0
 21 20  2  0  0  0  0
M  END
>  <minimizedAffinity>
-4.42943096

$$$$

 OpenBabel03252504543D

 21 22  0  0  0  0  0  0  0  0999 V2000
   35.5260   28.7730   40.4590 C   0  0  0  0  0  0  0  0  0  0  0  0
   34.8330   29.2950   41.1800 H   0  0  0  0  0  0  0  0  0  0  0  0
   34.9910   28.1340   39.7530 H   0  0  0  0  0  0  0  0  0  0  0  0
   37.7650   25.9870   41.4940 C   0  0  0  0  0  0  0  0  0  0  0  0
   36.8840   26.7730   40.7240 C   0  0  0  0  0  0  0  0  0  0  0  0
   36.4390   27.9830   41.2840 C   0  0  0  0  0  0  0  0  0  0  0  0
   36.8780   28.3280   42.5220 N   0  0  0  0  0  0  0  0  0  0  0  0
   37.7220   27.5460   43.2250 C   0  0  0  0  0  0  0  0  0  0  0  0
   38.1540   26.3850   42.7010 N   0  0  0  0  0  0  0  0  0  0  0  0
   38.0910   25.0600   41.0380 H   0  0  0  0  0  0  0  0  0  0  0  0
   36.5640   26.4500   39.7390 H   0  0  0  0  0  0  0  0  0  0  0  0
   38.0550   27.8480   44.2140 H   0  0  0  0  0  0  0  0  0  0  0  0
   36.0630   31.3170   41.4920 F   0  0  0  0  0  0  0  0  0  0  0  0
   36.4560   31.1310   40.1910 C   0  0  0  0  0  0  0  0  0  0  0  0
   36.1790   29.8550   39.6960 C   0  0  0  0  0  0  0  0  0  0  0  0
   36.5560   29.6220   38.3930 C   0  0  0  0  0  0  0  0  0  0  0  0
   36.4020   28.6820   37.8840 H   0  0  0  0  0  0  0  0  0  0  0  0
   37.1760   30.5970   37.6160 C   0  0  0  0  0  0  0  0  0  0  0  0
   37.4800   30.4310   36.5890 H   0  0  0  0  0  0  0  0  0  0  0  0
   37.4400   31.8430   38.1170 C   0  0  0  0  0  3  0  0  0  0  0  0
   37.0690   32.0990   39.4240 C   0  0  0  0  0  3  0  0  0  0  0  0
  1  2  1  0  0  0  0
  1  6  1  0  0  0  0
  3  1  1  0  0  0  0
  4  9  1  0  0  0  0
  5  6  1  0  0  0  0
  5  4  2  0  0  0  0
  6  7  2  0  0  0  0
  7  8  1  0  0  0  0
  8 12  1  0  0  0  0
  9  8  2  0  0  0  0
 10  4  1  0  0  0  0
 11  5  1  0  0  0  0
 14 13  1  0  0  0  0
 15 14  1  0  0  0  0
 15  1  1  0  0  0  0
 16 15  2  0  0  0  0
 17 16  1  0  0  0  0
 18 20  2  0  0  0  0
 18 16  1  0  0  0  0
 19 18  1  0  0  0  0
 20 21  1  0  0  0  0
 21 14  2  0  0  0  0
M  END
>  <minimizedAffinity>
-4.40608501

$$$$

 OpenBabel03252504543D

 21 22  0  0  0  0  0  0  0  0999 V2000
   35.6470   28.8880   40.9570 C   0  0  0  0  0  0  0  0  0  0  0  0
   35.0340   28.3390   40.1860 H   0  0  0  0  0  0  0  0  0  0  0  0
   35.0470   29.2230   41.8070 H   0  0  0  0  0  0  0  0  0  0  0  0
   37.0000   30.9550   38.1750 C   0  0  0  0  0  0  0  0  0  0  0  0
   36.4310   29.8740   38.8770 C   0  0  0  0  0  0  0  0  0  0  0  0
   36.2380   30.0300   40.2600 C   0  0  0  0  0  0  0  0  0  0  0  0
   36.6030   31.2020   40.8400 N   0  0  0  0  0  0  0  0  0  0  0  0
   37.1440   32.2130   40.1320 C   0  0  0  0  0  0  0  0  0  0  0  0
   37.3350   32.0750   38.8070 N   0  0  0  0  0  0  0  0  0  0  0  0
   37.1380   30.8070   37.1110 H   0  0  0  0  0  0  0  0  0  0  0  0
   36.1570   28.9580   38.3640 H   0  0  0  0  0  0  0  0  0  0  0  0
   37.4270   33.1390   40.6230 H   0  0  0  0  0  0  0  0  0  0  0  0
   37.1480   29.2030   43.2960 F   0  0  0  0  0  0  0  0  0  0  0  0
   37.3870   28.0390   42.6130 C   0  0  0  0  0  0  0  0  0  0  0  0
   36.6280   27.9020   41.4490 C   0  0  0  0  0  0  0  0  0  0  0  0
   36.8360   26.7470   40.7300 C   0  0  0  0  0  0  0  0  0  0  0  0
   36.3170   26.5130   39.8120 H   0  0  0  0  0  0  0  0  0  0  0  0
   37.7460   25.7750   41.1360 C   0  0  0  0  0  0  0  0  0  0  0  0
   37.9220   24.8600   40.5830 H   0  0  0  0  0  0  0  0  0  0  0  0
   38.4830   25.9250   42.2800 C   0  0  0  0  0  3  0  0  0  0  0  0
   38.2900   27.0780   43.0180 C   0  0  0  0  0  3  0  0  0  0  0  0
  1 15  1  0  0  0  0
  1  3  1  0  0  0  0
  2  1  1  0  0  0  0
  4  9  2  0  0  0  0
  4  5  1  0  0  0  0
  5  6  2  0  0  0  0
  6  7  1  0  0  0  0
  6  1  1  0  0  0  0
  8 12  1  0  0  0  0
  8  7  2  0  0  0  0
  9  8  1  0  0  0  0
 10  4  1  0  0  0  0
 11  5  1  0  0  0  0
 14 21  1  0  0  0  0
 14 13  1  0  0  0  0
 15 14  2  0  0  0  0
 16 18  2  0  0  0  0
 16 15  1  0  0  0  0
 17 16  1  0  0  0  0
 18 20  1  0  0  0  0
 19 18  1  0  0  0  0
 20 21  2  0  0  0  0
M  END
>  <minimizedAffinity>
-4.38323927

$$$$

 OpenBabel03252504543D

 21 22  0  0  0  0  0  0  0  0999 V2000
   35.4160   29.1370   40.5740 C   0  0  0  0  0  0  0  0  0  0  0  0
   35.0120   29.5600   41.5380 H   0  0  0  0  0  0  0  0  0  0  0  0
   34.6230   28.8520   39.8780 H   0  0  0  0  0  0  0  0  0  0  0  0
   37.3470   26.7760   42.7040 C   0  0  0  0  0  0  0  0  0  0  0  0
   36.5730   27.8840   42.3080 C   0  0  0  0  0  0  0  0  0  0  0  0
   36.2180   27.9740   40.9510 C   0  0  0  0  0  0  0  0  0  0  0  0
   36.6340   26.9990   40.1030 N   0  0  0  0  0  0  0  0  0  0  0  0
   37.3740   25.9530   40.5240 C   0  0  0  0  0  0  0  0  0  0  0  0
   37.7200   25.8560   41.8200 N   0  0  0  0  0  0  0  0  0  0  0  0
   37.6060   26.7320   43.7550 H   0  0  0  0  0  0  0  0  0  0  0  0
   36.2670   28.6370   43.0270 H   0  0  0  0  0  0  0  0  0  0  0  0
   37.6920   25.1870   39.8220 H   0  0  0  0  0  0  0  0  0  0  0  0
   36.0260   29.2960   37.8480 F   0  0  0  0  0  0  0  0  0  0  0  0
   36.5040   30.3350   38.6050 C   0  0  0  0  0  0  0  0  0  0  0  0
   36.1890   30.2360   39.9610 C   0  0  0  0  0  0  0  0  0  0  0  0
   36.6490   31.2580   40.7600 C   0  0  0  0  0  0  0  0  0  0  0  0
   36.4780   31.3080   41.8250 H   0  0  0  0  0  0  0  0  0  0  0  0
   37.3830   32.3240   40.2480 C   0  0  0  0  0  0  0  0  0  0  0  0
   37.7530   33.1380   40.8620 H   0  0  0  0  0  0  0  0  0  0  0  0
   37.6840   32.4050   38.9150 C   0  0  0  0  0  3  0  0  0  0  0  0
   37.2310   31.3890   38.0950 C   0  0  0  0  0  3  0  0  0  0  0  0
  1  6  1  0  0  0  0
  1  2  1  0  0  0  0
  3  1  1  0  0  0  0
  4 10  1  0  0  0  0
  5  4  1  0  0  0  0
  5 11  1  0  0  0  0
  6  5  2  0  0  0  0
  7  8  2  0  0  0  0
  7  6  1  0  0  0  0
  8  9  1  0  0  0  0
  9  4  2  0  0  0  0
 12  8  1  0  0  0  0
 13 14  1  0  0  0  0
 14 15  1  0  0  0  0
 15  1  1  0  0  0  0
 15 16  2  0  0  0  0
 16 17  1  0  0  0  0
 18 16  1  0  0  0  0
 18 19  1  0  0  0  0
 20 18  2  0  0  0  0
 21 14  2  0  0  0  0
 21 20  1  0  0  0  0
M  END
>  <minimizedAffinity>
-4.37957144

$$$$
