
 OpenBabel03242516303D

 46 50  0  0  0  0  0  0  0  0999 V2000
   38.9750   30.2070   42.3300 C   0  0  0  0  0  0  0  0  0  0  0  0
   40.2460   30.3410   42.8250 N   0  0  0  0  0  0  0  0  0  0  0  0
   41.1190   31.2400   42.3800 C   0  0  0  0  0  0  0  0  0  0  0  0
   40.7180   32.0510   41.3910 N   0  0  0  0  0  0  0  0  0  0  0  0
   39.5040   31.9840   40.8570 C   0  0  0  0  0  0  0  0  0  0  0  0
   39.0860   32.8330   39.8400 C   0  0  0  0  0  0  0  0  0  0  0  0
   37.8280   32.7490   39.3150 C   0  0  0  0  0  0  0  0  0  0  0  0
   36.9480   31.8210   39.7800 C   0  0  0  0  0  0  0  0  0  0  0  0
   37.3190   30.9410   40.8030 C   0  0  0  0  0  0  0  0  0  0  0  0
   38.5830   31.0380   41.3240 C   0  0  0  0  0  0  0  0  0  0  0  0
   42.1050   31.2970   42.8120 H   0  0  0  0  0  0  0  0  0  0  0  0
   39.8390   33.5400   39.5230 H   0  0  0  0  0  0  0  0  0  0  0  0
   37.6420   33.4610   38.5430 H   0  0  0  0  0  0  0  0  0  0  0  0
   36.0060   31.8760   39.2680 H   0  0  0  0  0  0  0  0  0  0  0  0
   36.3070   29.9520   41.2050 C   0  0  0  0  0  0  0  0  0  0  0  0
   35.3660   30.4140   41.5710 H   0  0  0  0  0  0  0  0  0  0  0  0
   36.6700   29.0640   41.7200 H   0  0  0  0  0  0  0  0  0  0  0  0
   37.8990   28.2950   39.5320 F   0  0  0  0  0  0  0  0  0  0  0  0
   36.5720   28.4480   39.2040 C   0  0  0  0  0  0  0  0  0  0  0  0
   35.7520   29.2400   39.9790 C   0  0  0  0  0  0  0  0  0  0  0  0
   34.4330   29.3030   39.5290 C   0  0  0  0  0  0  0  0  0  0  0  0
   33.7740   29.9320   40.1400 H   0  0  0  0  0  0  0  0  0  0  0  0
   33.9750   28.6400   38.4170 C   0  0  0  0  0  0  0  0  0  0  0  0
   32.9160   28.7800   38.1810 H   0  0  0  0  0  0  0  0  0  0  0  0
   34.8610   27.8660   37.6940 C   0  0  0  0  0  3  0  0  0  0  0  0
   36.1790   27.7580   38.0800 C   0  0  0  0  0  3  0  0  0  0  0  0
   37.8700   29.0560   42.9820 S   0  0  0  0  0  0  0  0  0  0  0  0
   38.2970   25.2160   41.9390 C   0  0  0  0  0  0  0  0  0  0  0  0
   37.8700   26.5330   42.0240 C   0  0  0  0  0  0  0  0  0  0  0  0
   38.4640   27.4100   42.8940 C   0  0  0  0  0  0  0  0  0  0  0  0
   39.5000   26.9990   43.7000 C   0  0  0  0  0  0  0  0  0  0  0  0
   39.9570   25.7160   43.6550 C   0  0  0  0  0  0  0  0  0  0  0  0
   39.3440   24.8480   42.7720 C   0  0  0  0  0  0  0  0  0  0  0  0
   37.0540   26.8200   41.3740 H   0  0  0  0  0  0  0  0  0  0  0  0
   39.9410   27.7260   44.3740 H   0  0  0  0  0  0  0  0  0  0  0  0
   40.7690   25.3640   44.2770 H   0  0  0  0  0  0  0  0  0  0  0  0
   39.6690   23.8070   42.6920 H   0  0  0  0  0  0  0  0  0  0  0  0
   35.9610   23.9990   39.4130 C   0  0  0  0  0  0  0  0  0  0  0  0
   36.3580   22.6580   39.2150 C   0  0  0  0  0  0  0  0  0  0  0  0
   37.4360   22.1720   39.9530 C   0  0  0  0  0  0  0  0  0  0  0  0
   38.0780   22.9920   40.8460 N   0  0  0  0  0  0  0  0  0  0  0  0
   37.6500   24.2920   41.0020 C   0  0  0  0  0  0  0  0  0  0  0  0
   36.6040   24.7890   40.2930 N   0  0  0  0  0  0  0  0  0  0  0  0
   35.1220   24.3440   38.8250 H   0  0  0  0  0  0  0  0  0  0  0  0
   35.8590   21.9980   38.5130 H   0  0  0  0  0  0  0  0  0  0  0  0
   37.8110   21.1710   39.8740 H   0  0  0  0  0  0  0  0  0  0  0  0
  1  2  1  0  0  0  0
  1 27  1  0  0  0  0
  3 11  1  0  0  0  0
  3  2  2  0  0  0  0
  4  3  1  0  0  0  0
  5 10  1  0  0  0  0
  5  4  2  0  0  0  0
  6  5  1  0  0  0  0
  7  8  1  0  0  0  0
  7  6  2  0  0  0  0
  8  9  2  0  0  0  0
  9 15  1  0  0  0  0
  9 10  1  0  0  0  0
 10  1  2  0  0  0  0
 12  6  1  0  0  0  0
 13  7  1  0  0  0  0
 14  8  1  0  0  0  0
 15 16  1  0  0  0  0
 15 17  1  0  0  0  0
 19 18  1  0  0  0  0
 19 20  1  0  0  0  0
 20 15  1  0  0  0  0
 21 20  2  0  0  0  0
 21 22  1  0  0  0  0
 23 21  1  0  0  0  0
 24 23  1  0  0  0  0
 25 26  1  0  0  0  0
 25 23  2  0  0  0  0
 26 19  2  0  0  0  0
 28 29  2  0  0  0  0
 28 33  1  0  0  0  0
 29 30  1  0  0  0  0
 30 27  1  0  0  0  0
 30 31  2  0  0  0  0
 31 35  1  0  0  0  0
 32 31  1  0  0  0  0
 32 36  1  0  0  0  0
 33 32  2  0  0  0  0
 34 29  1  0  0  0  0
 37 33  1  0  0  0  0
 38 43  1  0  0  0  0
 39 38  2  0  0  0  0
 39 40  1  0  0  0  0
 40 41  2  0  0  0  0
 41 42  1  0  0  0  0
 42 28  1  0  0  0  0
 43 42  2  0  0  0  0
 44 38  1  0  0  0  0
 45 39  1  0  0  0  0
 46 40  1  0  0  0  0
M  END
>  <minimizedAffinity>
-6.92305994

$$$$

 OpenBabel03242516303D

 46 50  0  0  0  0  0  0  0  0999 V2000
   40.8260   32.0710   39.8000 C   0  0  0  0  0  0  0  0  0  0  0  0
   41.9270   32.7150   40.3020 N   0  0  0  0  0  0  0  0  0  0  0  0
   41.9200   33.9820   40.7040 C   0  0  0  0  0  0  0  0  0  0  0  0
   40.7650   34.6530   40.6060 N   0  0  0  0  0  0  0  0  0  0  0  0
   39.6540   34.1030   40.1290 C   0  0  0  0  0  0  0  0  0  0  0  0
   38.4540   34.7960   40.0390 C   0  0  0  0  0  0  0  0  0  0  0  0
   37.3240   34.2020   39.5540 C   0  0  0  0  0  0  0  0  0  0  0  0
   37.3500   32.9050   39.1440 C   0  0  0  0  0  0  0  0  0  0  0  0
   38.5330   32.1610   39.2140 C   0  0  0  0  0  0  0  0  0  0  0  0
   39.6600   32.7680   39.7050 C   0  0  0  0  0  0  0  0  0  0  0  0
   42.8200   34.4330   41.0920 H   0  0  0  0  0  0  0  0  0  0  0  0
   38.5130   35.8190   40.3810 H   0  0  0  0  0  0  0  0  0  0  0  0
   36.4770   34.8490   39.5410 H   0  0  0  0  0  0  0  0  0  0  0  0
   36.3900   32.5830   38.7860 H   0  0  0  0  0  0  0  0  0  0  0  0
   38.4610   30.7810   38.7080 C   0  0  0  0  0  0  0  0  0  0  0  0
   39.0820   30.0700   39.2930 H   0  0  0  0  0  0  0  0  0  0  0  0
   38.4310   30.6590   37.6270 H   0  0  0  0  0  0  0  0  0  0  0  0
   37.5070   30.3280   41.3470 F   0  0  0  0  0  0  0  0  0  0  0  0
   36.6810   29.9880   40.3010 C   0  0  0  0  0  0  0  0  0  0  0  0
   37.0920   30.1850   39.0000 C   0  0  0  0  0  0  0  0  0  0  0  0
   36.1540   29.7950   38.0430 C   0  0  0  0  0  0  0  0  0  0  0  0
   36.4730   29.9470   37.0060 H   0  0  0  0  0  0  0  0  0  0  0  0
   34.9260   29.2630   38.3530 C   0  0  0  0  0  0  0  0  0  0  0  0
   34.2910   29.0020   37.5010 H   0  0  0  0  0  0  0  0  0  0  0  0
   34.5910   29.0980   39.6830 C   0  0  0  0  0  3  0  0  0  0  0  0
   35.4680   29.4610   40.6800 C   0  0  0  0  0  3  0  0  0  0  0  0
   40.8830   30.4110   39.3420 S   0  0  0  0  0  0  0  0  0  0  0  0
   39.5720   27.4050   41.6370 C   0  0  0  0  0  0  0  0  0  0  0  0
   39.7840   28.2800   40.5800 C   0  0  0  0  0  0  0  0  0  0  0  0
   40.6710   29.3190   40.6960 C   0  0  0  0  0  0  0  0  0  0  0  0
   41.3710   29.5130   41.8640 C   0  0  0  0  0  0  0  0  0  0  0  0
   41.1990   28.6820   42.9310 C   0  0  0  0  0  0  0  0  0  0  0  0
   40.3000   27.6420   42.7940 C   0  0  0  0  0  0  0  0  0  0  0  0
   39.2180   28.0960   39.6780 H   0  0  0  0  0  0  0  0  0  0  0  0
   42.0620   30.3480   41.9110 H   0  0  0  0  0  0  0  0  0  0  0  0
   41.7340   28.8100   43.8620 H   0  0  0  0  0  0  0  0  0  0  0  0
   40.1210   26.9430   43.6160 H   0  0  0  0  0  0  0  0  0  0  0  0
   36.8410   25.4080   40.2680 C   0  0  0  0  0  0  0  0  0  0  0  0
   36.7890   24.2880   41.1260 C   0  0  0  0  0  0  0  0  0  0  0  0
   37.7000   24.2190   42.1800 C   0  0  0  0  0  0  0  0  0  0  0  0
   38.6130   25.2280   42.3610 N   0  0  0  0  0  0  0  0  0  0  0  0
   38.6200   26.2990   41.4950 C   0  0  0  0  0  0  0  0  0  0  0  0
   37.7450   26.3880   40.4620 N   0  0  0  0  0  0  0  0  0  0  0  0
   36.1210   25.4300   39.4620 H   0  0  0  0  0  0  0  0  0  0  0  0
   36.0720   23.4840   40.9960 H   0  0  0  0  0  0  0  0  0  0  0  0
   37.7400   23.4120   42.8830 H   0  0  0  0  0  0  0  0  0  0  0  0
  1  2  1  0  0  0  0
  2  3  2  0  0  0  0
  3 11  1  0  0  0  0
  4  3  1  0  0  0  0
  5  4  2  0  0  0  0
  6  5  1  0  0  0  0
  6 12  1  0  0  0  0
  7  6  2  0  0  0  0
  8  9  2  0  0  0  0
  8  7  1  0  0  0  0
  9 10  1  0  0  0  0
 10  1  2  0  0  0  0
 10  5  1  0  0  0  0
 13  7  1  0  0  0  0
 14  8  1  0  0  0  0
 15 20  1  0  0  0  0
 15  9  1  0  0  0  0
 15 16  1  0  0  0  0
 17 15  1  0  0  0  0
 19 26  1  0  0  0  0
 19 18  1  0  0  0  0
 20 19  2  0  0  0  0
 21 23  2  0  0  0  0
 21 20  1  0  0  0  0
 22 21  1  0  0  0  0
 23 25  1  0  0  0  0
 24 23  1  0  0  0  0
 25 26  2  0  0  0  0
 27  1  1  0  0  0  0
 27 30  1  0  0  0  0
 28 33  1  0  0  0  0
 29 30  1  0  0  0  0
 29 28  2  0  0  0  0
 30 31  2  0  0  0  0
 31 35  1  0  0  0  0
 31 32  1  0  0  0  0
 32 36  1  0  0  0  0
 33 32  2  0  0  0  0
 33 37  1  0  0  0  0
 34 29  1  0  0  0  0
 38 43  2  0  0  0  0
 38 39  1  0  0  0  0
 39 40  2  0  0  0  0
 40 41  1  0  0  0  0
 40 46  1  0  0  0  0
 42 28  1  0  0  0  0
 42 41  2  0  0  0  0
 43 42  1  0  0  0  0
 44 38  1  0  0  0  0
 45 39  1  0  0  0  0
M  END
>  <minimizedAffinity>
-6.72538328

$$$$

 OpenBabel03242516303D

 46 50  0  0  0  0  0  0  0  0999 V2000
   38.5990   29.7210   42.0520 C   0  0  0  0  0  0  0  0  0  0  0  0
   39.7810   29.2950   42.6000 N   0  0  0  0  0  0  0  0  0  0  0  0
   40.9290   29.9540   42.4780 C   0  0  0  0  0  0  0  0  0  0  0  0
   40.9130   31.0960   41.7780 N   0  0  0  0  0  0  0  0  0  0  0  0
   39.8100   31.5760   41.2150 C   0  0  0  0  0  0  0  0  0  0  0  0
   39.7910   32.7660   40.4990 C   0  0  0  0  0  0  0  0  0  0  0  0
   38.6410   33.2420   39.9390 C   0  0  0  0  0  0  0  0  0  0  0  0
   37.4750   32.5530   40.0710 C   0  0  0  0  0  0  0  0  0  0  0  0
   37.4380   31.3480   40.7810 C   0  0  0  0  0  0  0  0  0  0  0  0
   38.5990   30.8830   41.3420 C   0  0  0  0  0  0  0  0  0  0  0  0
   41.8270   29.5670   42.9340 H   0  0  0  0  0  0  0  0  0  0  0  0
   40.7530   33.2550   40.4370 H   0  0  0  0  0  0  0  0  0  0  0  0
   38.7710   34.1640   39.4200 H   0  0  0  0  0  0  0  0  0  0  0  0
   36.6620   33.0490   39.5740 H   0  0  0  0  0  0  0  0  0  0  0  0
   36.1360   30.6640   40.8290 C   0  0  0  0  0  0  0  0  0  0  0  0
   35.2770   31.3650   40.8840 H   0  0  0  0  0  0  0  0  0  0  0  0
   36.0870   29.7510   41.4210 H   0  0  0  0  0  0  0  0  0  0  0  0
   33.8640   29.0140   40.3890 F   0  0  0  0  0  0  0  0  0  0  0  0
   34.7100   29.2350   39.3260 C   0  0  0  0  0  0  0  0  0  0  0  0
   35.8280   30.0270   39.4820 C   0  0  0  0  0  0  0  0  0  0  0  0
   36.5920   30.1630   38.3230 C   0  0  0  0  0  0  0  0  0  0  0  0
   37.4840   30.7900   38.4390 H   0  0  0  0  0  0  0  0  0  0  0  0
   36.2730   29.5700   37.1260 C   0  0  0  0  0  0  0  0  0  0  0  0
   36.9630   29.7640   36.2990 H   0  0  0  0  0  0  0  0  0  0  0  0
   35.1340   28.7920   37.0530 C   0  0  0  0  0  3  0  0  0  0  0  0
   34.3330   28.6130   38.1580 C   0  0  0  0  0  3  0  0  0  0  0  0
   37.1310   28.8490   42.2850 S   0  0  0  0  0  0  0  0  0  0  0  0
   37.3900   25.7540   39.7610 C   0  0  0  0  0  0  0  0  0  0  0  0
   37.3540   27.0300   40.3040 C   0  0  0  0  0  0  0  0  0  0  0  0
   37.1960   27.2160   41.6530 C   0  0  0  0  0  0  0  0  0  0  0  0
   37.0710   26.1360   42.4960 C   0  0  0  0  0  0  0  0  0  0  0  0
   37.1000   24.8620   42.0130 C   0  0  0  0  0  0  0  0  0  0  0  0
   37.2590   24.6970   40.6510 C   0  0  0  0  0  0  0  0  0  0  0  0
   37.4560   27.8540   39.6110 H   0  0  0  0  0  0  0  0  0  0  0  0
   36.9480   26.3300   43.5560 H   0  0  0  0  0  0  0  0  0  0  0  0
   37.0040   23.9950   42.6510 H   0  0  0  0  0  0  0  0  0  0  0  0
   37.2910   23.6990   40.2060 H   0  0  0  0  0  0  0  0  0  0  0  0
   37.2590   24.1550   36.4830 C   0  0  0  0  0  0  0  0  0  0  0  0
   37.8250   25.1210   35.6220 C   0  0  0  0  0  0  0  0  0  0  0  0
   38.2530   26.3280   36.1720 C   0  0  0  0  0  0  0  0  0  0  0  0
   38.1190   26.5500   37.5200 N   0  0  0  0  0  0  0  0  0  0  0  0
   37.5600   25.5740   38.3160 C   0  0  0  0  0  0  0  0  0  0  0  0
   37.1360   24.3910   37.8030 N   0  0  0  0  0  0  0  0  0  0  0  0
   36.9380   23.2310   36.0240 H   0  0  0  0  0  0  0  0  0  0  0  0
   37.9380   24.9580   34.5550 H   0  0  0  0  0  0  0  0  0  0  0  0
   38.6940   27.1210   35.6030 H   0  0  0  0  0  0  0  0  0  0  0  0
  1 27  1  0  0  0  0
  1  2  1  0  0  0  0
  3  2  2  0  0  0  0
  3 11  1  0  0  0  0
  4  3  1  0  0  0  0
  5 10  1  0  0  0  0
  5  4  2  0  0  0  0
  6  5  1  0  0  0  0
  7  8  1  0  0  0  0
  7  6  2  0  0  0  0
  8  9  2  0  0  0  0
  9 15  1  0  0  0  0
  9 10  1  0  0  0  0
 10  1  2  0  0  0  0
 12  6  1  0  0  0  0
 13  7  1  0  0  0  0
 14  8  1  0  0  0  0
 15 16  1  0  0  0  0
 15 17  1  0  0  0  0
 19 20  1  0  0  0  0
 19 18  1  0  0  0  0
 20 15  1  0  0  0  0
 21 22  1  0  0  0  0
 21 20  2  0  0  0  0
 23 21  1  0  0  0  0
 24 23  1  0  0  0  0
 25 23  2  0  0  0  0
 25 26  1  0  0  0  0
 26 19  2  0  0  0  0
 28 29  2  0  0  0  0
 28 33  1  0  0  0  0
 29 30  1  0  0  0  0
 30 27  1  0  0  0  0
 30 31  2  0  0  0  0
 31 35  1  0  0  0  0
 32 31  1  0  0  0  0
 32 36  1  0  0  0  0
 33 32  2  0  0  0  0
 34 29  1  0  0  0  0
 37 33  1  0  0  0  0
 38 43  1  0  0  0  0
 39 40  1  0  0  0  0
 39 38  2  0  0  0  0
 40 41  2  0  0  0  0
 41 42  1  0  0  0  0
 42 28  1  0  0  0  0
 43 42  2  0  0  0  0
 44 38  1  0  0  0  0
 45 39  1  0  0  0  0
 46 40  1  0  0  0  0
M  END
>  <minimizedAffinity>
-6.64289713

$$$$

 OpenBabel03242516303D

 46 50  0  0  0  0  0  0  0  0999 V2000
   36.0580   29.1910   39.4700 C   0  0  0  0  0  0  0  0  0  0  0  0
   35.5730   27.9470   39.1610 N   0  0  0  0  0  0  0  0  0  0  0  0
   35.5390   27.4540   37.9270 C   0  0  0  0  0  0  0  0  0  0  0  0
   36.0100   28.2300   36.9410 N   0  0  0  0  0  0  0  0  0  0  0  0
   36.4960   29.4470   37.1560 C   0  0  0  0  0  0  0  0  0  0  0  0
   36.9940   30.2460   36.1350 C   0  0  0  0  0  0  0  0  0  0  0  0
   37.4970   31.4900   36.3860 C   0  0  0  0  0  0  0  0  0  0  0  0
   37.5210   31.9800   37.6550 C   0  0  0  0  0  0  0  0  0  0  0  0
   37.0310   31.2170   38.7210 C   0  0  0  0  0  0  0  0  0  0  0  0
   36.5310   29.9680   38.4560 C   0  0  0  0  0  0  0  0  0  0  0  0
   35.1450   26.4660   37.7480 H   0  0  0  0  0  0  0  0  0  0  0  0
   36.9400   29.7900   35.1570 H   0  0  0  0  0  0  0  0  0  0  0  0
   37.8450   31.9910   35.5120 H   0  0  0  0  0  0  0  0  0  0  0  0
   37.9400   32.9680   37.6910 H   0  0  0  0  0  0  0  0  0  0  0  0
   37.0670   31.8560   40.0460 C   0  0  0  0  0  0  0  0  0  0  0  0
   37.2490   31.1360   40.8710 H   0  0  0  0  0  0  0  0  0  0  0  0
   36.3520   32.6590   40.2190 H   0  0  0  0  0  0  0  0  0  0  0  0
   37.0990   34.6690   39.6380 F   0  0  0  0  0  0  0  0  0  0  0  0
   38.2830   34.0580   39.9800 C   0  0  0  0  0  0  0  0  0  0  0  0
   38.3270   32.6960   40.1900 C   0  0  0  0  0  0  0  0  0  0  0  0
   39.5920   32.2150   40.5310 C   0  0  0  0  0  0  0  0  0  0  0  0
   39.6360   31.1330   40.6980 H   0  0  0  0  0  0  0  0  0  0  0  0
   40.7030   33.0130   40.6530 C   0  0  0  0  0  0  0  0  0  0  0  0
   41.6300   32.5010   40.9260 H   0  0  0  0  0  0  0  0  0  0  0  0
   40.5740   34.3690   40.4260 C   0  0  0  0  0  3  0  0  0  0  0  0
   39.3560   34.9130   40.0850 C   0  0  0  0  0  3  0  0  0  0  0  0
   36.1220   29.7560   41.0960 S   0  0  0  0  0  0  0  0  0  0  0  0
   39.3440   28.2460   42.9290 C   0  0  0  0  0  0  0  0  0  0  0  0
   38.4960   29.0150   42.1450 C   0  0  0  0  0  0  0  0  0  0  0  0
   37.1470   28.7730   42.1230 C   0  0  0  0  0  0  0  0  0  0  0  0
   36.6070   27.7600   42.8820 C   0  0  0  0  0  0  0  0  0  0  0  0
   37.3970   26.9760   43.6680 C   0  0  0  0  0  0  0  0  0  0  0  0
   38.7530   27.2360   43.6760 C   0  0  0  0  0  0  0  0  0  0  0  0
   38.9560   29.8030   41.5640 H   0  0  0  0  0  0  0  0  0  0  0  0
   35.5340   27.6040   42.8330 H   0  0  0  0  0  0  0  0  0  0  0  0
   37.0010   26.1730   44.2740 H   0  0  0  0  0  0  0  0  0  0  0  0
   39.4360   26.6400   44.2880 H   0  0  0  0  0  0  0  0  0  0  0  0
   42.5120   29.8860   42.1570 C   0  0  0  0  0  0  0  0  0  0  0  0
   43.4590   29.1320   42.8840 C   0  0  0  0  0  0  0  0  0  0  0  0
   43.0050   28.0560   43.6440 C   0  0  0  0  0  0  0  0  0  0  0  0
   41.6670   27.7530   43.6690 N   0  0  0  0  0  0  0  0  0  0  0  0
   40.7840   28.5200   42.9410 C   0  0  0  0  0  0  0  0  0  0  0  0
   41.2020   29.5730   42.1940 N   0  0  0  0  0  0  0  0  0  0  0  0
   42.8970   30.7140   41.5780 H   0  0  0  0  0  0  0  0  0  0  0  0
   44.5200   29.3600   42.8720 H   0  0  0  0  0  0  0  0  0  0  0  0
   43.6440   27.4250   44.2290 H   0  0  0  0  0  0  0  0  0  0  0  0
  1 27  1  0  0  0  0
  2  1  1  0  0  0  0
  3  2  2  0  0  0  0
  4  5  2  0  0  0  0
  4  3  1  0  0  0  0
  5 10  1  0  0  0  0
  6  7  2  0  0  0  0
  6  5  1  0  0  0  0
  7  8  1  0  0  0  0
  8 14  1  0  0  0  0
  8  9  2  0  0  0  0
  9 15  1  0  0  0  0
 10  9  1  0  0  0  0
 10  1  2  0  0  0  0
 11  3  1  0  0  0  0
 12  6  1  0  0  0  0
 13  7  1  0  0  0  0
 15 20  1  0  0  0  0
 15 17  1  0  0  0  0
 15 16  1  0  0  0  0
 18 19  1  0  0  0  0
 19 26  2  0  0  0  0
 19 20  1  0  0  0  0
 20 21  2  0  0  0  0
 21 23  1  0  0  0  0
 21 22  1  0  0  0  0
 23 24  1  0  0  0  0
 25 23  2  0  0  0  0
 26 25  1  0  0  0  0
 27 30  1  0  0  0  0
 28 42  1  0  0  0  0
 28 33  1  0  0  0  0
 29 28  2  0  0  0  0
 30 29  1  0  0  0  0
 30 31  2  0  0  0  0
 31 32  1  0  0  0  0
 32 33  2  0  0  0  0
 32 36  1  0  0  0  0
 33 37  1  0  0  0  0
 34 29  1  0  0  0  0
 35 31  1  0  0  0  0
 38 43  2  0  0  0  0
 38 39  1  0  0  0  0
 39 40  2  0  0  0  0
 40 41  1  0  0  0  0
 40 46  1  0  0  0  0
 42 41  2  0  0  0  0
 43 42  1  0  0  0  0
 44 38  1  0  0  0  0
 45 39  1  0  0  0  0
M  END
>  <minimizedAffinity>
-6.59628487

$$$$

 OpenBabel03242516303D

 46 50  0  0  0  0  0  0  0  0999 V2000
   36.0800   29.6190   40.1850 C   0  0  0  0  0  0  0  0  0  0  0  0
   34.8220   29.0740   40.1560 N   0  0  0  0  0  0  0  0  0  0  0  0
   34.1300   28.8800   39.0380 C   0  0  0  0  0  0  0  0  0  0  0  0
   34.7070   29.2430   37.8840 N   0  0  0  0  0  0  0  0  0  0  0  0
   35.9210   29.7780   37.8270 C   0  0  0  0  0  0  0  0  0  0  0  0
   36.5230   30.1440   36.6300 C   0  0  0  0  0  0  0  0  0  0  0  0
   37.7770   30.6830   36.6000 C   0  0  0  0  0  0  0  0  0  0  0  0
   38.4710   30.8780   37.7540 C   0  0  0  0  0  0  0  0  0  0  0  0
   37.9100   30.5280   38.9880 C   0  0  0  0  0  0  0  0  0  0  0  0
   36.6520   29.9840   39.0050 C   0  0  0  0  0  0  0  0  0  0  0  0
   33.1440   28.4450   39.0800 H   0  0  0  0  0  0  0  0  0  0  0  0
   35.9110   29.9600   35.7590 H   0  0  0  0  0  0  0  0  0  0  0  0
   38.1150   30.9150   35.6160 H   0  0  0  0  0  0  0  0  0  0  0  0
   39.4350   31.3120   37.5690 H   0  0  0  0  0  0  0  0  0  0  0  0
   38.7280   30.8170   40.1760 C   0  0  0  0  0  0  0  0  0  0  0  0
   39.7490   30.3830   40.1190 H   0  0  0  0  0  0  0  0  0  0  0  0
   38.2170   30.7910   41.1370 H   0  0  0  0  0  0  0  0  0  0  0  0
   41.4250   31.7170   40.1880 F   0  0  0  0  0  0  0  0  0  0  0  0
   40.4320   32.6690   40.2120 C   0  0  0  0  0  0  0  0  0  0  0  0
   39.1070   32.2910   40.2080 C   0  0  0  0  0  0  0  0  0  0  0  0
   38.2110   33.3600   40.2350 C   0  0  0  0  0  0  0  0  0  0  0  0
   37.1550   33.0680   40.2330 H   0  0  0  0  0  0  0  0  0  0  0  0
   38.5990   34.6780   40.2600 C   0  0  0  0  0  0  0  0  0  0  0  0
   37.7880   35.4130   40.2790 H   0  0  0  0  0  0  0  0  0  0  0  0
   39.9480   34.9730   40.2620 C   0  0  0  0  0  3  0  0  0  0  0  0
   40.8880   33.9670   40.2370 C   0  0  0  0  0  3  0  0  0  0  0  0
   36.9500   29.8000   41.6620 S   0  0  0  0  0  0  0  0  0  0  0  0
   38.0600   25.9620   41.8970 C   0  0  0  0  0  0  0  0  0  0  0  0
   37.4740   27.1570   41.5060 C   0  0  0  0  0  0  0  0  0  0  0  0
   37.7360   28.3220   42.1790 C   0  0  0  0  0  0  0  0  0  0  0  0
   38.5900   28.3270   43.2580 C   0  0  0  0  0  0  0  0  0  0  0  0
   39.1910   27.1810   43.6820 C   0  0  0  0  0  0  0  0  0  0  0  0
   38.9130   26.0180   42.9900 C   0  0  0  0  0  0  0  0  0  0  0  0
   36.8100   27.1150   40.6530 H   0  0  0  0  0  0  0  0  0  0  0  0
   38.7680   29.2720   43.7610 H   0  0  0  0  0  0  0  0  0  0  0  0
   39.8660   27.1540   44.5270 H   0  0  0  0  0  0  0  0  0  0  0  0
   39.3660   25.0670   43.2840 H   0  0  0  0  0  0  0  0  0  0  0  0
   36.1960   23.5300   39.9140 C   0  0  0  0  0  0  0  0  0  0  0  0
   37.1050   22.4590   39.7660 C   0  0  0  0  0  0  0  0  0  0  0  0
   38.3660   22.5760   40.3500 C   0  0  0  0  0  0  0  0  0  0  0  0
   38.6920   23.7110   41.0490 N   0  0  0  0  0  0  0  0  0  0  0  0
   37.7690   24.7260   41.1640 C   0  0  0  0  0  0  0  0  0  0  0  0
   36.5360   24.6360   40.6040 N   0  0  0  0  0  0  0  0  0  0  0  0
   35.2280   23.4070   39.4490 H   0  0  0  0  0  0  0  0  0  0  0  0
   36.8600   21.5560   39.2170 H   0  0  0  0  0  0  0  0  0  0  0  0
   39.1230   21.8200   40.2930 H   0  0  0  0  0  0  0  0  0  0  0  0
  1 27  1  0  0  0  0
  2  1  1  0  0  0  0
  3 11  1  0  0  0  0
  3  2  2  0  0  0  0
  4  3  1  0  0  0  0
  5  4  2  0  0  0  0
  5 10  1  0  0  0  0
  6  5  1  0  0  0  0
  7  6  2  0  0  0  0
  7  8  1  0  0  0  0
  8  9  2  0  0  0  0
  9 10  1  0  0  0  0
  9 15  1  0  0  0  0
 10  1  2  0  0  0  0
 12  6  1  0  0  0  0
 13  7  1  0  0  0  0
 14  8  1  0  0  0  0
 15 20  1  0  0  0  0
 15 17  1  0  0  0  0
 16 15  1  0  0  0  0
 18 19  1  0  0  0  0
 19 26  1  0  0  0  0
 20 19  2  0  0  0  0
 20 21  1  0  0  0  0
 21 23  2  0  0  0  0
 22 21  1  0  0  0  0
 23 25  1  0  0  0  0
 23 24  1  0  0  0  0
 26 25  2  0  0  0  0
 27 30  1  0  0  0  0
 28 33  1  0  0  0  0
 29 28  2  0  0  0  0
 29 30  1  0  0  0  0
 30 31  2  0  0  0  0
 31 32  1  0  0  0  0
 31 35  1  0  0  0  0
 32 36  1  0  0  0  0
 33 37  1  0  0  0  0
 33 32  2  0  0  0  0
 34 29  1  0  0  0  0
 38 43  1  0  0  0  0
 39 38  2  0  0  0  0
 39 40  1  0  0  0  0
 40 41  2  0  0  0  0
 41 42  1  0  0  0  0
 42 28  1  0  0  0  0
 43 42  2  0  0  0  0
 44 38  1  0  0  0  0
 45 39  1  0  0  0  0
 46 40  1  0  0  0  0
M  END
>  <minimizedAffinity>
-6.5933671

$$$$

 OpenBabel03242516303D

 46 50  0  0  0  0  0  0  0  0999 V2000
   36.9680   30.2920   38.9180 C   0  0  0  0  0  0  0  0  0  0  0  0
   37.0280   30.9130   37.6980 N   0  0  0  0  0  0  0  0  0  0  0  0
   36.9510   30.2680   36.5380 C   0  0  0  0  0  0  0  0  0  0  0  0
   36.8060   28.9370   36.5820 N   0  0  0  0  0  0  0  0  0  0  0  0
   36.7410   28.2600   37.7230 C   0  0  0  0  0  0  0  0  0  0  0  0
   36.5800   26.8810   37.7680 C   0  0  0  0  0  0  0  0  0  0  0  0
   36.5060   26.2120   38.9550 C   0  0  0  0  0  0  0  0  0  0  0  0
   36.5900   26.8870   40.1330 C   0  0  0  0  0  0  0  0  0  0  0  0
   36.7540   28.2770   40.1450 C   0  0  0  0  0  0  0  0  0  0  0  0
   36.8230   28.9390   38.9460 C   0  0  0  0  0  0  0  0  0  0  0  0
   37.0040   30.8140   35.6090 H   0  0  0  0  0  0  0  0  0  0  0  0
   36.5230   26.4160   36.7940 H   0  0  0  0  0  0  0  0  0  0  0  0
   36.3810   25.1590   38.8420 H   0  0  0  0  0  0  0  0  0  0  0  0
   36.5200   26.2260   40.9760 H   0  0  0  0  0  0  0  0  0  0  0  0
   36.8730   28.9050   41.4700 C   0  0  0  0  0  0  0  0  0  0  0  0
   36.0970   28.5620   42.1860 H   0  0  0  0  0  0  0  0  0  0  0  0
   37.1530   29.9560   41.4880 H   0  0  0  0  0  0  0  0  0  0  0  0
   36.7140   27.1260   43.6820 F   0  0  0  0  0  0  0  0  0  0  0  0
   37.9650   27.5130   43.2610 C   0  0  0  0  0  0  0  0  0  0  0  0
   38.1030   28.3740   42.1930 C   0  0  0  0  0  0  0  0  0  0  0  0
   39.4280   28.6800   41.8770 C   0  0  0  0  0  0  0  0  0  0  0  0
   39.5460   29.3650   41.0300 H   0  0  0  0  0  0  0  0  0  0  0  0
   40.5090   28.1740   42.5580 C   0  0  0  0  0  0  0  0  0  0  0  0
   41.4910   28.4990   42.2010 H   0  0  0  0  0  0  0  0  0  0  0  0
   40.2850   27.3160   43.6160 C   0  0  0  0  0  3  0  0  0  0  0  0
   39.0030   26.9720   43.9840 C   0  0  0  0  0  3  0  0  0  0  0  0
   37.0240   31.1880   40.3890 S   0  0  0  0  0  0  0  0  0  0  0  0
   40.3990   33.3290   40.6070 C   0  0  0  0  0  0  0  0  0  0  0  0
   39.4760   32.2930   40.6190 C   0  0  0  0  0  0  0  0  0  0  0  0
   38.1550   32.5260   40.3340 C   0  0  0  0  0  0  0  0  0  0  0  0
   37.7200   33.7940   40.0290 C   0  0  0  0  0  0  0  0  0  0  0  0
   38.5860   34.8460   40.0030 C   0  0  0  0  0  0  0  0  0  0  0  0
   39.9120   34.5900   40.2930 C   0  0  0  0  0  0  0  0  0  0  0  0
   39.8540   31.3100   40.8630 H   0  0  0  0  0  0  0  0  0  0  0  0
   36.6660   33.9320   39.8100 H   0  0  0  0  0  0  0  0  0  0  0  0
   38.2730   35.8530   39.7660 H   0  0  0  0  0  0  0  0  0  0  0  0
   40.6530   35.3940   40.2870 H   0  0  0  0  0  0  0  0  0  0  0  0
   44.0090   33.8350   40.7730 C   0  0  0  0  0  0  0  0  0  0  0  0
   44.4750   32.6760   41.4320 C   0  0  0  0  0  0  0  0  0  0  0  0
   43.5410   31.7170   41.8220 C   0  0  0  0  0  0  0  0  0  0  0  0
   42.2090   31.9140   41.5600 N   0  0  0  0  0  0  0  0  0  0  0  0
   41.8070   33.0620   40.9130 C   0  0  0  0  0  0  0  0  0  0  0  0
   42.6980   34.0100   40.5250 N   0  0  0  0  0  0  0  0  0  0  0  0
   44.7590   34.5580   40.4850 H   0  0  0  0  0  0  0  0  0  0  0  0
   45.5250   32.5060   41.6460 H   0  0  0  0  0  0  0  0  0  0  0  0
   43.7950   30.8060   42.3260 H   0  0  0  0  0  0  0  0  0  0  0  0
  1 10  1  0  0  0  0
  1 27  1  0  0  0  0
  2  1  2  0  0  0  0
  3  4  2  0  0  0  0
  3  2  1  0  0  0  0
  4  5  1  0  0  0  0
  5  6  2  0  0  0  0
  5 10  1  0  0  0  0
  6  7  1  0  0  0  0
  7  8  2  0  0  0  0
  8  9  1  0  0  0  0
  8 14  1  0  0  0  0
  9 15  1  0  0  0  0
 10  9  2  0  0  0  0
 11  3  1  0  0  0  0
 12  6  1  0  0  0  0
 13  7  1  0  0  0  0
 15 17  1  0  0  0  0
 15 16  1  0  0  0  0
 15 20  1  0  0  0  0
 19 18  1  0  0  0  0
 19 26  1  0  0  0  0
 20 19  2  0  0  0  0
 21 20  1  0  0  0  0
 21 23  2  0  0  0  0
 22 21  1  0  0  0  0
 23 25  1  0  0  0  0
 24 23  1  0  0  0  0
 25 26  2  0  0  0  0
 28 29  1  0  0  0  0
 28 42  1  0  0  0  0
 29 34  1  0  0  0  0
 30 27  1  0  0  0  0
 30 29  2  0  0  0  0
 31 30  1  0  0  0  0
 32 31  2  0  0  0  0
 32 33  1  0  0  0  0
 33 28  2  0  0  0  0
 35 31  1  0  0  0  0
 36 32  1  0  0  0  0
 37 33  1  0  0  0  0
 38 39  1  0  0  0  0
 39 45  1  0  0  0  0
 39 40  2  0  0  0  0
 40 46  1  0  0  0  0
 41 40  1  0  0  0  0
 42 41  2  0  0  0  0
 43 38  2  0  0  0  0
 43 42  1  0  0  0  0
 44 38  1  0  0  0  0
M  END
>  <minimizedAffinity>
-6.59233522

$$$$

 OpenBabel03242516303D

 46 50  0  0  0  0  0  0  0  0999 V2000
   37.0750   29.2210   41.6190 C   0  0  0  0  0  0  0  0  0  0  0  0
   37.7820   29.1070   42.7870 N   0  0  0  0  0  0  0  0  0  0  0  0
   38.2400   27.9530   43.2620 C   0  0  0  0  0  0  0  0  0  0  0  0
   37.9860   26.8490   42.5460 N   0  0  0  0  0  0  0  0  0  0  0  0
   37.3070   26.8740   41.4050 C   0  0  0  0  0  0  0  0  0  0  0  0
   37.0540   25.7310   40.6580 C   0  0  0  0  0  0  0  0  0  0  0  0
   36.3620   25.7870   39.4830 C   0  0  0  0  0  0  0  0  0  0  0  0
   35.8980   26.9760   39.0130 C   0  0  0  0  0  0  0  0  0  0  0  0
   36.1240   28.1590   39.7270 C   0  0  0  0  0  0  0  0  0  0  0  0
   36.8240   28.0900   40.9040 C   0  0  0  0  0  0  0  0  0  0  0  0
   38.7920   27.9280   44.1880 H   0  0  0  0  0  0  0  0  0  0  0  0
   37.4520   24.8260   41.0950 H   0  0  0  0  0  0  0  0  0  0  0  0
   36.2420   24.8360   39.0150 H   0  0  0  0  0  0  0  0  0  0  0  0
   35.3720   26.8590   38.0850 H   0  0  0  0  0  0  0  0  0  0  0  0
   35.5460   29.3830   39.1520 C   0  0  0  0  0  0  0  0  0  0  0  0
   36.1910   30.2770   39.2900 H   0  0  0  0  0  0  0  0  0  0  0  0
   34.4710   29.5110   39.2590 H   0  0  0  0  0  0  0  0  0  0  0  0
   33.2330   28.8380   37.5920 F   0  0  0  0  0  0  0  0  0  0  0  0
   34.4190   29.0460   36.9270 C   0  0  0  0  0  0  0  0  0  0  0  0
   35.5730   29.3140   37.6320 C   0  0  0  0  0  0  0  0  0  0  0  0
   36.6980   29.5020   36.8280 C   0  0  0  0  0  0  0  0  0  0  0  0
   37.6200   29.7150   37.3810 H   0  0  0  0  0  0  0  0  0  0  0  0
   36.6750   29.4330   35.4560 C   0  0  0  0  0  0  0  0  0  0  0  0
   37.6320   29.6020   34.9540 H   0  0  0  0  0  0  0  0  0  0  0  0
   35.4770   29.1590   34.8260 C   0  0  0  0  0  3  0  0  0  0  0  0
   34.3260   28.9620   35.5560 C   0  0  0  0  0  3  0  0  0  0  0  0
   36.5500   30.7530   41.0280 S   0  0  0  0  0  0  0  0  0  0  0  0
   39.7690   31.7150   38.8530 C   0  0  0  0  0  0  0  0  0  0  0  0
   38.7250   31.0270   39.4530 C   0  0  0  0  0  0  0  0  0  0  0  0
   37.8370   31.6730   40.2730 C   0  0  0  0  0  0  0  0  0  0  0  0
   37.9650   33.0210   40.5160 C   0  0  0  0  0  0  0  0  0  0  0  0
   38.9730   33.7430   39.9510 C   0  0  0  0  0  0  0  0  0  0  0  0
   39.8570   33.0730   39.1290 C   0  0  0  0  0  0  0  0  0  0  0  0
   38.6550   29.9690   39.2380 H   0  0  0  0  0  0  0  0  0  0  0  0
   37.2390   33.4910   41.1720 H   0  0  0  0  0  0  0  0  0  0  0  0
   39.0990   34.8030   40.1240 H   0  0  0  0  0  0  0  0  0  0  0  0
   40.6860   33.5990   38.6470 H   0  0  0  0  0  0  0  0  0  0  0  0
   41.2760   28.9770   36.9680 C   0  0  0  0  0  0  0  0  0  0  0  0
   42.3990   29.5760   36.3560 C   0  0  0  0  0  0  0  0  0  0  0  0
   42.6370   30.9290   36.5920 C   0  0  0  0  0  0  0  0  0  0  0  0
   41.7900   31.6410   37.4050 N   0  0  0  0  0  0  0  0  0  0  0  0
   40.7090   31.0080   37.9780 C   0  0  0  0  0  0  0  0  0  0  0  0
   40.4560   29.6920   37.7620 N   0  0  0  0  0  0  0  0  0  0  0  0
   41.1200   27.9270   36.7640 H   0  0  0  0  0  0  0  0  0  0  0  0
   43.0770   29.0250   35.7130 H   0  0  0  0  0  0  0  0  0  0  0  0
   43.4610   31.4730   36.1750 H   0  0  0  0  0  0  0  0  0  0  0  0
  1  2  1  0  0  0  0
  2  3  2  0  0  0  0
  3 11  1  0  0  0  0
  4  3  1  0  0  0  0
  5  4  2  0  0  0  0
  6 12  1  0  0  0  0
  6  5  1  0  0  0  0
  7  6  2  0  0  0  0
  8  7  1  0  0  0  0
  8  9  2  0  0  0  0
  9 10  1  0  0  0  0
 10  5  1  0  0  0  0
 10  1  2  0  0  0  0
 13  7  1  0  0  0  0
 14  8  1  0  0  0  0
 15 17  1  0  0  0  0
 15 16  1  0  0  0  0
 15  9  1  0  0  0  0
 19 18  1  0  0  0  0
 19 20  1  0  0  0  0
 20 15  1  0  0  0  0
 21 22  1  0  0  0  0
 21 20  2  0  0  0  0
 23 21  1  0  0  0  0
 24 23  1  0  0  0  0
 25 23  2  0  0  0  0
 25 26  1  0  0  0  0
 26 19  2  0  0  0  0
 27  1  1  0  0  0  0
 28 33  2  0  0  0  0
 28 29  1  0  0  0  0
 29 30  2  0  0  0  0
 30 31  1  0  0  0  0
 30 27  1  0  0  0  0
 31 35  1  0  0  0  0
 32 36  1  0  0  0  0
 32 31  2  0  0  0  0
 33 32  1  0  0  0  0
 34 29  1  0  0  0  0
 37 33  1  0  0  0  0
 38 43  1  0  0  0  0
 39 40  1  0  0  0  0
 39 38  2  0  0  0  0
 40 41  2  0  0  0  0
 41 42  1  0  0  0  0
 42 28  1  0  0  0  0
 43 42  2  0  0  0  0
 44 38  1  0  0  0  0
 45 39  1  0  0  0  0
 46 40  1  0  0  0  0
M  END
>  <minimizedAffinity>
-6.57694483

$$$$

 OpenBabel03242516303D

 46 50  0  0  0  0  0  0  0  0999 V2000
   36.9820   29.2610   41.7860 C   0  0  0  0  0  0  0  0  0  0  0  0
   35.8140   28.7210   41.3130 N   0  0  0  0  0  0  0  0  0  0  0  0
   35.2340   29.0980   40.1780 C   0  0  0  0  0  0  0  0  0  0  0  0
   35.8380   30.0610   39.4680 N   0  0  0  0  0  0  0  0  0  0  0  0
   36.9710   30.6360   39.8570 C   0  0  0  0  0  0  0  0  0  0  0  0
   37.6020   31.6250   39.1150 C   0  0  0  0  0  0  0  0  0  0  0  0
   38.7710   32.1920   39.5340 C   0  0  0  0  0  0  0  0  0  0  0  0
   39.3490   31.7960   40.7000 C   0  0  0  0  0  0  0  0  0  0  0  0
   38.7540   30.8030   41.4870 C   0  0  0  0  0  0  0  0  0  0  0  0
   37.5820   30.2400   41.0540 C   0  0  0  0  0  0  0  0  0  0  0  0
   34.3140   28.6340   39.8580 H   0  0  0  0  0  0  0  0  0  0  0  0
   37.0840   31.8870   38.2040 H   0  0  0  0  0  0  0  0  0  0  0  0
   39.1450   32.9360   38.8680 H   0  0  0  0  0  0  0  0  0  0  0  0
   40.2580   32.3340   40.8960 H   0  0  0  0  0  0  0  0  0  0  0  0
   39.4400   30.4780   42.7480 C   0  0  0  0  0  0  0  0  0  0  0  0
   39.2300   29.4470   43.1040 H   0  0  0  0  0  0  0  0  0  0  0  0
   39.4960   31.2720   43.4900 H   0  0  0  0  0  0  0  0  0  0  0  0
   40.5660   28.4100   41.1550 F   0  0  0  0  0  0  0  0  0  0  0  0
   41.4270   29.3170   41.7290 C   0  0  0  0  0  0  0  0  0  0  0  0
   40.9370   30.3400   42.5120 C   0  0  0  0  0  0  0  0  0  0  0  0
   41.9230   31.1820   43.0280 C   0  0  0  0  0  0  0  0  0  0  0  0
   41.5420   31.9980   43.6520 H   0  0  0  0  0  0  0  0  0  0  0  0
   43.2650   31.0200   42.7850 C   0  0  0  0  0  0  0  0  0  0  0  0
   43.9260   31.7560   43.2540 H   0  0  0  0  0  0  0  0  0  0  0  0
   43.6740   29.9680   41.9890 C   0  0  0  0  0  3  0  0  0  0  0  0
   42.7560   29.0980   41.4470 C   0  0  0  0  0  3  0  0  0  0  0  0
   37.7120   28.6960   43.2410 S   0  0  0  0  0  0  0  0  0  0  0  0
   38.3850   24.9310   42.0590 C   0  0  0  0  0  0  0  0  0  0  0  0
   37.8620   26.2080   42.2040 C   0  0  0  0  0  0  0  0  0  0  0  0
   38.4260   27.1040   43.0750 C   0  0  0  0  0  0  0  0  0  0  0  0
   39.5260   26.7520   43.8230 C   0  0  0  0  0  0  0  0  0  0  0  0
   40.0780   25.5110   43.7170 C   0  0  0  0  0  0  0  0  0  0  0  0
   39.4940   24.6230   42.8350 C   0  0  0  0  0  0  0  0  0  0  0  0
   36.9980   26.4490   41.6000 H   0  0  0  0  0  0  0  0  0  0  0  0
   39.9400   27.4930   44.4990 H   0  0  0  0  0  0  0  0  0  0  0  0
   40.9420   25.2060   44.2920 H   0  0  0  0  0  0  0  0  0  0  0  0
   39.8930   23.6130   42.7070 H   0  0  0  0  0  0  0  0  0  0  0  0
   35.8800   23.4640   39.8470 C   0  0  0  0  0  0  0  0  0  0  0  0
   36.5090   22.2940   39.3670 C   0  0  0  0  0  0  0  0  0  0  0  0
   37.8010   22.0100   39.8060 C   0  0  0  0  0  0  0  0  0  0  0  0
   38.4260   22.8580   40.6850 N   0  0  0  0  0  0  0  0  0  0  0  0
   37.7680   23.9870   41.1230 C   0  0  0  0  0  0  0  0  0  0  0  0
   36.5110   24.2850   40.7080 N   0  0  0  0  0  0  0  0  0  0  0  0
   34.8790   23.6540   39.4860 H   0  0  0  0  0  0  0  0  0  0  0  0
   36.0260   21.6130   38.6730 H   0  0  0  0  0  0  0  0  0  0  0  0
   38.3600   21.1480   39.5010 H   0  0  0  0  0  0  0  0  0  0  0  0
  1 27  1  0  0  0  0
  2  1  1  0  0  0  0
  3  2  2  0  0  0  0
  4  5  2  0  0  0  0
  4  3  1  0  0  0  0
  5 10  1  0  0  0  0
  6  7  2  0  0  0  0
  6  5  1  0  0  0  0
  7  8  1  0  0  0  0
  8 14  1  0  0  0  0
  8  9  2  0  0  0  0
  9 15  1  0  0  0  0
 10  9  1  0  0  0  0
 10  1  2  0  0  0  0
 11  3  1  0  0  0  0
 12  6  1  0  0  0  0
 13  7  1  0  0  0  0
 15 16  1  0  0  0  0
 15 17  1  0  0  0  0
 18 19  1  0  0  0  0
 19 20  1  0  0  0  0
 20 15  1  0  0  0  0
 20 21  2  0  0  0  0
 21 22  1  0  0  0  0
 23 21  1  0  0  0  0
 23 24  1  0  0  0  0
 25 23  2  0  0  0  0
 26 19  2  0  0  0  0
 26 25  1  0  0  0  0
 28 29  2  0  0  0  0
 28 33  1  0  0  0  0
 29 30  1  0  0  0  0
 30 27  1  0  0  0  0
 30 31  2  0  0  0  0
 31 35  1  0  0  0  0
 32 31  1  0  0  0  0
 32 36  1  0  0  0  0
 33 32  2  0  0  0  0
 34 29  1  0  0  0  0
 37 33  1  0  0  0  0
 38 43  1  0  0  0  0
 39 40  1  0  0  0  0
 39 38  2  0  0  0  0
 40 41  2  0  0  0  0
 41 42  1  0  0  0  0
 42 28  1  0  0  0  0
 43 42  2  0  0  0  0
 44 38  1  0  0  0  0
 45 39  1  0  0  0  0
 46 40  1  0  0  0  0
M  END
>  <minimizedAffinity>
-6.53693628

$$$$

 OpenBabel03242516303D

 46 50  0  0  0  0  0  0  0  0999 V2000
   37.0610   30.7000   40.5070 C   0  0  0  0  0  0  0  0  0  0  0  0
   36.6780   31.6380   39.5840 N   0  0  0  0  0  0  0  0  0  0  0  0
   37.4230   32.6860   39.2470 C   0  0  0  0  0  0  0  0  0  0  0  0
   38.6100   32.8190   39.8530 N   0  0  0  0  0  0  0  0  0  0  0  0
   39.0530   31.9550   40.7590 C   0  0  0  0  0  0  0  0  0  0  0  0
   40.2890   32.0870   41.3790 C   0  0  0  0  0  0  0  0  0  0  0  0
   40.7240   31.1790   42.3000 C   0  0  0  0  0  0  0  0  0  0  0  0
   39.9480   30.1130   42.6350 C   0  0  0  0  0  0  0  0  0  0  0  0
   38.6940   29.9330   42.0420 C   0  0  0  0  0  0  0  0  0  0  0  0
   38.2700   30.8500   41.1160 C   0  0  0  0  0  0  0  0  0  0  0  0
   37.0660   33.3900   38.5110 H   0  0  0  0  0  0  0  0  0  0  0  0
   40.8460   32.9580   41.0620 H   0  0  0  0  0  0  0  0  0  0  0  0
   41.6900   31.4030   42.6930 H   0  0  0  0  0  0  0  0  0  0  0  0
   40.4220   29.4930   43.3730 H   0  0  0  0  0  0  0  0  0  0  0  0
   37.9190   28.7710   42.5050 C   0  0  0  0  0  0  0  0  0  0  0  0
   37.1960   28.3990   41.7480 H   0  0  0  0  0  0  0  0  0  0  0  0
   37.6050   28.7780   43.5470 H   0  0  0  0  0  0  0  0  0  0  0  0
   38.9900   27.4800   40.2090 F   0  0  0  0  0  0  0  0  0  0  0  0
   39.3050   26.9580   41.4420 C   0  0  0  0  0  0  0  0  0  0  0  0
   38.8140   27.5430   42.5900 C   0  0  0  0  0  0  0  0  0  0  0  0
   39.2150   26.9080   43.7660 C   0  0  0  0  0  0  0  0  0  0  0  0
   38.8270   27.3660   44.6840 H   0  0  0  0  0  0  0  0  0  0  0  0
   40.0270   25.8010   43.7960 C   0  0  0  0  0  0  0  0  0  0  0  0
   40.2610   25.4080   44.7900 H   0  0  0  0  0  0  0  0  0  0  0  0
   40.4780   25.2770   42.6000 C   0  0  0  0  0  3  0  0  0  0  0  0
   40.1210   25.8510   41.4010 C   0  0  0  0  0  3  0  0  0  0  0  0
   36.0740   29.3340   40.8670 S   0  0  0  0  0  0  0  0  0  0  0  0
   33.9940   28.4870   37.5540 C   0  0  0  0  0  0  0  0  0  0  0  0
   34.5010   29.1100   38.6850 C   0  0  0  0  0  0  0  0  0  0  0  0
   35.4860   28.5170   39.4320 C   0  0  0  0  0  0  0  0  0  0  0  0
   35.9910   27.2890   39.0720 C   0  0  0  0  0  0  0  0  0  0  0  0
   35.5270   26.6360   37.9700 C   0  0  0  0  0  0  0  0  0  0  0  0
   34.5350   27.2500   37.2320 C   0  0  0  0  0  0  0  0  0  0  0  0
   34.0810   30.0740   38.9360 H   0  0  0  0  0  0  0  0  0  0  0  0
   36.7690   26.8570   39.6930 H   0  0  0  0  0  0  0  0  0  0  0  0
   35.9050   25.6700   37.6630 H   0  0  0  0  0  0  0  0  0  0  0  0
   34.1240   26.7740   36.3370 H   0  0  0  0  0  0  0  0  0  0  0  0
   30.8220   30.1220   36.7890 C   0  0  0  0  0  0  0  0  0  0  0  0
   30.9020   30.3640   35.4000 C   0  0  0  0  0  0  0  0  0  0  0  0
   32.0540   29.9640   34.7240 C   0  0  0  0  0  0  0  0  0  0  0  0
   33.0710   29.3500   35.4110 N   0  0  0  0  0  0  0  0  0  0  0  0
   32.9420   29.1360   36.7660 C   0  0  0  0  0  0  0  0  0  0  0  0
   31.8310   29.5180   37.4460 N   0  0  0  0  0  0  0  0  0  0  0  0
   29.9160   30.4450   37.2820 H   0  0  0  0  0  0  0  0  0  0  0  0
   30.1060   30.8480   34.8440 H   0  0  0  0  0  0  0  0  0  0  0  0
   32.2090   30.1040   33.6740 H   0  0  0  0  0  0  0  0  0  0  0  0
  1 27  1  0  0  0  0
  1 10  1  0  0  0  0
  2  1  2  0  0  0  0
  3  2  1  0  0  0  0
  3  4  2  0  0  0  0
  4  5  1  0  0  0  0
  5 10  2  0  0  0  0
  5  6  1  0  0  0  0
  6  7  2  0  0  0  0
  7  8  1  0  0  0  0
  7 13  1  0  0  0  0
  8 14  1  0  0  0  0
  9 15  1  0  0  0  0
  9  8  2  0  0  0  0
 10  9  1  0  0  0  0
 11  3  1  0  0  0  0
 12  6  1  0  0  0  0
 15 20  1  0  0  0  0
 15 17  1  0  0  0  0
 16 15  1  0  0  0  0
 18 19  1  0  0  0  0
 19 20  1  0  0  0  0
 20 21  2  0  0  0  0
 21 23  1  0  0  0  0
 21 22  1  0  0  0  0
 23 24  1  0  0  0  0
 25 23  2  0  0  0  0
 26 19  2  0  0  0  0
 26 25  1  0  0  0  0
 28 29  1  0  0  0  0
 29 34  1  0  0  0  0
 29 30  2  0  0  0  0
 30 27  1  0  0  0  0
 31 30  1  0  0  0  0
 31 35  1  0  0  0  0
 32 31  2  0  0  0  0
 33 28  2  0  0  0  0
 33 32  1  0  0  0  0
 36 32  1  0  0  0  0
 37 33  1  0  0  0  0
 38 44  1  0  0  0  0
 38 43  1  0  0  0  0
 39 38  2  0  0  0  0
 40 39  1  0  0  0  0
 40 41  2  0  0  0  0
 41 42  1  0  0  0  0
 42 43  2  0  0  0  0
 42 28  1  0  0  0  0
 45 39  1  0  0  0  0
 46 40  1  0  0  0  0
M  END
>  <minimizedAffinity>
-6.53690052

$$$$
