
 OpenBabel03252503433D

 34 36  0  0  1  0  0  0  0  0999 V2000
   45.2020   34.6700   44.6140 C   0  0  0  0  0  0  0  0  0  0  0  0
   46.1730   34.4040   43.6380 C   0  0  0  0  0  0  0  0  0  0  0  0
   47.0540   33.3520   43.8880 C   0  0  0  0  0  0  0  0  0  0  0  0
   46.9210   32.6640   45.0350 N   0  0  0  0  0  0  0  0  0  0  0  0
   45.9900   32.9370   45.9470 C   0  0  0  0  0  0  0  0  0  0  0  0
   45.0970   33.9570   45.7570 N   0  0  0  0  0  0  0  0  0  0  0  0
   44.4790   35.4730   44.4940 H   0  0  0  0  0  0  0  0  0  0  0  0
   47.7790   33.1770   43.1210 H   0  0  0  0  0  0  0  0  0  0  0  0
   47.3670   31.7680   47.6750 C   0  0  2  0  0  0  0  0  0  0  0  0
   45.9530   32.0870   47.1350 C   0  0  1  0  0  0  0  0  0  0  0  0
   45.3970   32.6530   48.2470 O   0  0  0  0  0  0  0  0  0  0  0  0
   45.7330   31.8850   49.3220 C   0  0  0  0  0  0  0  0  0  0  0  0
   46.9130   31.0120   48.9370 C   0  0  2  0  0  0  0  0  0  0  0  0
   47.9300   31.1190   47.0000 H   0  0  0  0  0  0  0  0  0  0  0  0
   45.5030   31.0810   46.9300 H   0  0  0  0  0  0  0  0  0  0  0  0
   44.9350   31.2390   49.7260 H   0  0  0  0  0  0  0  0  0  0  0  0
   46.1110   32.5320   50.1670 H   0  0  0  0  0  0  0  0  0  0  0  0
   46.5590   30.0170   48.6150 H   0  0  0  0  0  0  0  0  0  0  0  0
   47.9540   32.9190   48.0790 O   0  0  0  0  0  0  0  0  0  0  0  0
   48.1970   32.8930   49.0240 H   0  0  0  0  0  0  0  0  0  0  0  0
   47.9030   30.9600   49.8870 O   0  0  0  0  0  0  0  0  0  0  0  0
   47.9310   30.0430   50.2470 H   0  0  0  0  0  0  0  0  0  0  0  0
   46.1320   35.2810   42.4450 C   0  0  0  0  0  0  0  0  0  0  0  0
   45.7230   36.2640   42.8190 H   0  0  0  0  0  0  0  0  0  0  0  0
   47.1790   35.5060   42.1630 H   0  0  0  0  0  0  0  0  0  0  0  0
   43.3730   35.9110   41.9700 F   0  0  0  0  0  0  0  0  0  0  0  0
   44.0060   35.0500   41.1390 C   0  0  0  0  0  0  0  0  0  0  0  0
   45.3310   34.7380   41.3510 C   0  0  0  0  0  0  0  0  0  0  0  0
   45.9860   33.8600   40.5050 C   0  0  0  0  0  0  0  0  0  0  0  0
   47.0380   33.5930   40.6500 H   0  0  0  0  0  0  0  0  0  0  0  0
   45.3180   33.2880   39.4410 C   0  0  0  0  0  0  0  0  0  0  0  0
   45.8680   32.5980   38.7950 H   0  0  0  0  0  0  0  0  0  0  0  0
   43.9860   33.5750   39.1930 C   0  0  0  0  0  0  0  0  0  0  0  0
   43.3600   34.4660   40.0700 C   0  0  0  0  0  0  0  0  0  0  0  0
  1  6  1  0  0  0  0
  2  3  1  0  0  0  0
  2  1  2  0  0  0  0
  3  4  2  0  0  0  0
  4  5  1  0  0  0  0
  5 10  1  0  0  0  0
  6  5  2  0  0  0  0
  7  1  1  0  0  0  0
  8  3  1  0  0  0  0
  9 14  1  6  0  0  0
  9 19  1  0  0  0  0
  9 13  1  0  0  0  0
 10 15  1  6  0  0  0
 10  9  1  0  0  0  0
 10 11  1  0  0  0  0
 11 12  1  0  0  0  0
 12 16  1  0  0  0  0
 12 17  1  0  0  0  0
 13 18  1  6  0  0  0
 13 12  1  0  0  0  0
 13 21  1  0  0  0  0
 19 20  1  0  0  0  0
 21 22  1  0  0  0  0
 23 24  1  0  0  0  0
 23  2  1  0  0  0  0
 25 23  1  0  0  0  0
 27 28  1  0  0  0  0
 27 26  1  0  0  0  0
 28 23  1  0  0  0  0
 29 30  1  0  0  0  0
 29 28  2  0  0  0  0
 31 29  1  0  0  0  0
 32 31  1  0  0  0  0
 33 31  2  0  0  0  0
 33 34  1  0  0  0  0
 34 27  2  0  0  0  0
M  END
>  <minimizedAffinity>
-6.22138882

>  <minimizedRMSD>
3.56568956

$$$$
