
 OpenBabel03252509033D

 48 50  0  0  1  0  0  0  0  0999 V2000
   46.7300   34.4180   43.3110 N   0  0  0  0  0  0  0  0  0  0  0  0
   46.4800   34.8520   41.9920 C   0  0  0  0  0  0  0  0  0  0  0  0
   45.0310   34.7650   41.5600 C   0  0  0  0  0  0  0  0  0  0  0  0
   44.0310   34.9780   42.6750 C   0  0  0  0  0  0  0  0  0  0  0  0
   44.7300   35.3810   43.9640 C   0  0  0  0  0  0  0  0  0  0  0  0
   45.7230   34.1800   44.2120 C   0  0  2  0  0  0  0  0  0  0  0  0
   46.7500   35.9470   41.9410 H   0  0  0  0  0  0  0  0  0  0  0  0
   47.0680   34.3830   41.1990 H   0  0  0  0  0  0  0  0  0  0  0  0
   44.8300   33.8190   40.9860 H   0  0  0  0  0  0  0  0  0  0  0  0
   44.8320   35.5710   40.8130 H   0  0  0  0  0  0  0  0  0  0  0  0
   43.2020   35.6360   42.3980 H   0  0  0  0  0  0  0  0  0  0  0  0
   43.5790   33.9790   42.8770 H   0  0  0  0  0  0  0  0  0  0  0  0
   43.9760   35.3780   44.7740 H   0  0  0  0  0  0  0  0  0  0  0  0
   45.3160   36.3050   43.8720 H   0  0  0  0  0  0  0  0  0  0  0  0
   45.1220   33.2510   44.1060 H   0  0  0  0  0  0  0  0  0  0  0  0
   47.9710   33.6840   43.4600 C   0  0  0  0  0  0  0  0  0  0  0  0
   48.1770   33.5330   44.5420 H   0  0  0  0  0  0  0  0  0  0  0  0
   48.8040   34.2460   43.0280 H   0  0  0  0  0  0  0  0  0  0  0  0
   47.8010   32.3390   42.8350 C   0  0  0  0  0  0  0  0  0  0  0  0
   47.7370   31.5080   43.5580 H   0  0  0  0  0  0  0  0  0  0  0  0
   46.8660   32.2970   42.2200 H   0  0  0  0  0  0  0  0  0  0  0  0
   51.2520   32.1120   41.3580 C   0  0  0  0  0  0  0  0  0  0  0  0
   50.1990   32.3280   42.2650 C   0  0  0  0  0  0  0  0  0  0  0  0
   48.9080   32.1060   41.8670 C   0  0  0  0  0  0  0  0  0  0  0  0
   48.7180   31.6860   40.6100 N   0  0  0  0  0  0  0  0  0  0  0  0
   49.7200   31.4810   39.7480 C   0  0  0  0  0  0  0  0  0  0  0  0
   50.9960   31.6880   40.1050 N   0  0  0  0  0  0  0  0  0  0  0  0
   52.2190   32.3230   41.7920 H   0  0  0  0  0  0  0  0  0  0  0  0
   50.3700   32.6720   43.2890 H   0  0  0  0  0  0  0  0  0  0  0  0
   49.5940   31.1430   38.7320 H   0  0  0  0  0  0  0  0  0  0  0  0
   46.1040   34.4100   45.5240 O   0  0  0  0  0  0  0  0  0  0  0  0
   45.6010   31.8000   45.6600 O   0  0  0  0  0  0  0  0  0  0  0  0
   46.0080   33.0260   46.4860 P   0  0  2  0  0  0  0  0  0  0  0  0
   44.7310   33.3010   47.5710 O   0  0  0  0  0  0  0  0  0  0  0  0
   44.9820   34.0220   48.1880 H   0  0  0  0  0  0  0  0  0  0  0  0
   47.4070   32.7720   47.3670 O   0  0  0  0  0  0  0  0  0  0  0  0
   47.0790   31.9620   48.4640 C   0  0  0  0  0  0  0  0  0  0  0  0
   46.8610   32.5900   49.3570 H   0  0  0  0  0  0  0  0  0  0  0  0
   46.2180   31.3130   48.2800 H   0  0  0  0  0  0  0  0  0  0  0  0
   47.1800   29.4990   47.2730 F   0  0  0  0  0  0  0  0  0  0  0  0
   48.2110   29.8730   48.0830 C   0  0  0  0  0  0  0  0  0  0  0  0
   48.2630   31.1110   48.7390 C   0  0  0  0  0  0  0  0  0  0  0  0
   49.3570   31.3770   49.5310 C   0  0  0  0  0  0  0  0  0  0  0  0
   49.3170   32.3430   49.9940 H   0  0  0  0  0  0  0  0  0  0  0  0
   50.3740   30.4580   49.6780 C   0  0  0  0  0  0  0  0  0  0  0  0
   51.1990   30.7060   50.3010 H   0  0  0  0  0  0  0  0  0  0  0  0
   50.3470   29.2220   49.0390 C   0  0  0  0  0  0  0  0  0  0  0  0
   49.2480   28.9740   48.2530 C   0  0  0  0  0  0  0  0  0  0  0  0
  1 16  1  0  0  0  0
  1  6  1  0  0  0  0
  2  1  1  0  0  0  0
  3  2  1  0  0  0  0
  3  4  1  0  0  0  0
  4 12  1  0  0  0  0
  4  5  1  0  0  0  0
  5  6  1  0  0  0  0
  5 13  1  0  0  0  0
  6 15  1  6  0  0  0
  6 31  1  0  0  0  0
  7  2  1  0  0  0  0
  8  2  1  0  0  0  0
  9  3  1  0  0  0  0
 10  3  1  0  0  0  0
 11  4  1  0  0  0  0
 14  5  1  0  0  0  0
 16 17  1  0  0  0  0
 18 16  1  0  0  0  0
 19 16  1  0  0  0  0
 19 20  1  0  0  0  0
 21 19  1  0  0  0  0
 22 28  1  0  0  0  0
 22 23  1  0  0  0  0
 23 29  1  0  0  0  0
 24 23  2  0  0  0  0
 24 19  1  0  0  0  0
 25 24  1  0  0  0  0
 26 27  1  0  0  0  0
 26 25  2  0  0  0  0
 27 22  2  0  0  0  0
 30 26  1  0  0  0  0
 31 33  1  0  0  0  0
 33 32  2  6  0  0  0
 33 36  1  0  0  0  0
 33 34  1  0  0  0  0
 34 35  1  0  0  0  0
 36 37  1  0  0  0  0
 37 42  1  0  0  0  0
 37 38  1  0  0  0  0
 39 37  1  0  0  0  0
 40 41  1  0  0  0  0
 41 48  2  0  0  0  0
 41 42  1  0  0  0  0
 42 43  2  0  0  0  0
 43 45  1  0  0  0  0
 43 44  1  0  0  0  0
 45 46  1  0  0  0  0
 47 45  2  0  0  0  0
 48 47  1  0  0  0  0
M  END
>  <minimizedAffinity>
-5.22605038

>  <minimizedRMSD>
3.08404112

$$$$
