
 OpenBabel03252509033D

 48 50  0  0  1  0  0  0  0  0999 V2000
   46.7410   34.4190   43.3040 N   0  0  0  0  0  0  0  0  0  0  0  0
   46.4880   34.8600   41.9880 C   0  0  0  0  0  0  0  0  0  0  0  0
   45.0390   34.7750   41.5580 C   0  0  0  0  0  0  0  0  0  0  0  0
   44.0410   34.9830   42.6760 C   0  0  0  0  0  0  0  0  0  0  0  0
   44.7430   35.3780   43.9670 C   0  0  0  0  0  0  0  0  0  0  0  0
   45.7360   34.1760   44.2060 C   0  0  2  0  0  0  0  0  0  0  0  0
   46.7580   35.9550   41.9420 H   0  0  0  0  0  0  0  0  0  0  0  0
   47.0750   34.3950   41.1910 H   0  0  0  0  0  0  0  0  0  0  0  0
   44.8360   33.8320   40.9800 H   0  0  0  0  0  0  0  0  0  0  0  0
   44.8380   35.5850   40.8160 H   0  0  0  0  0  0  0  0  0  0  0  0
   43.2110   35.6420   42.4050 H   0  0  0  0  0  0  0  0  0  0  0  0
   43.5890   33.9820   42.8740 H   0  0  0  0  0  0  0  0  0  0  0  0
   43.9910   35.3710   44.7780 H   0  0  0  0  0  0  0  0  0  0  0  0
   45.3280   36.3030   43.8790 H   0  0  0  0  0  0  0  0  0  0  0  0
   45.1340   33.2470   44.0960 H   0  0  0  0  0  0  0  0  0  0  0  0
   47.9820   33.6830   43.4470 C   0  0  0  0  0  0  0  0  0  0  0  0
   48.1930   33.5320   44.5270 H   0  0  0  0  0  0  0  0  0  0  0  0
   48.8130   34.2450   43.0110 H   0  0  0  0  0  0  0  0  0  0  0  0
   47.8080   32.3390   42.8220 C   0  0  0  0  0  0  0  0  0  0  0  0
   47.7390   31.5080   43.5450 H   0  0  0  0  0  0  0  0  0  0  0  0
   46.8740   32.3000   42.2050 H   0  0  0  0  0  0  0  0  0  0  0  0
   51.2600   32.1050   41.3500 C   0  0  0  0  0  0  0  0  0  0  0  0
   50.2070   32.3270   42.2550 C   0  0  0  0  0  0  0  0  0  0  0  0
   48.9160   32.1010   41.8570 C   0  0  0  0  0  0  0  0  0  0  0  0
   48.7280   31.6720   40.6020 N   0  0  0  0  0  0  0  0  0  0  0  0
   49.7310   31.4610   39.7430 C   0  0  0  0  0  0  0  0  0  0  0  0
   51.0060   31.6720   40.0990 N   0  0  0  0  0  0  0  0  0  0  0  0
   52.2270   32.3210   41.7840 H   0  0  0  0  0  0  0  0  0  0  0  0
   50.3760   32.6780   43.2760 H   0  0  0  0  0  0  0  0  0  0  0  0
   49.6070   31.1170   38.7290 H   0  0  0  0  0  0  0  0  0  0  0  0
   46.1190   34.3980   45.5180 O   0  0  0  0  0  0  0  0  0  0  0  0
   45.5770   31.7970   45.6510 O   0  0  0  0  0  0  0  0  0  0  0  0
   46.0030   33.0140   46.4780 P   0  0  2  0  0  0  0  0  0  0  0  0
   44.7320   33.3080   47.5650 O   0  0  0  0  0  0  0  0  0  0  0  0
   44.9940   34.0240   48.1830 H   0  0  0  0  0  0  0  0  0  0  0  0
   47.3990   32.7380   47.3580 O   0  0  0  0  0  0  0  0  0  0  0  0
   47.0530   31.9650   48.4760 C   0  0  0  0  0  0  0  0  0  0  0  0
   46.8710   32.6190   49.3570 H   0  0  0  0  0  0  0  0  0  0  0  0
   46.1630   31.3470   48.3150 H   0  0  0  0  0  0  0  0  0  0  0  0
   47.1210   29.5400   47.2080 F   0  0  0  0  0  0  0  0  0  0  0  0
   48.1380   29.8590   48.0560 C   0  0  0  0  0  0  0  0  0  0  0  0
   48.2040   31.0730   48.7540 C   0  0  0  0  0  0  0  0  0  0  0  0
   49.2840   31.2840   49.5830 C   0  0  0  0  0  0  0  0  0  0  0  0
   49.2560   32.2340   50.0770 H   0  0  0  0  0  0  0  0  0  0  0  0
   50.2700   30.3330   49.7280 C   0  0  0  0  0  0  0  0  0  0  0  0
   51.0860   30.5370   50.3810 H   0  0  0  0  0  0  0  0  0  0  0  0
   50.2290   29.1200   49.0480 C   0  0  0  0  0  3  0  0  0  0  0  0
   49.1460   28.9260   48.2250 C   0  0  0  0  0  3  0  0  0  0  0  0
  1 16  1  0  0  0  0
  1  6  1  0  0  0  0
  2  1  1  0  0  0  0
  3  2  1  0  0  0  0
  3  4  1  0  0  0  0
  4 12  1  0  0  0  0
  4  5  1  0  0  0  0
  5  6  1  0  0  0  0
  5 13  1  0  0  0  0
  6 15  1  6  0  0  0
  6 31  1  0  0  0  0
  7  2  1  0  0  0  0
  8  2  1  0  0  0  0
  9  3  1  0  0  0  0
 10  3  1  0  0  0  0
 11  4  1  0  0  0  0
 14  5  1  0  0  0  0
 16 17  1  0  0  0  0
 18 16  1  0  0  0  0
 19 16  1  0  0  0  0
 19 20  1  0  0  0  0
 21 19  1  0  0  0  0
 22 28  1  0  0  0  0
 22 23  1  0  0  0  0
 23 29  1  0  0  0  0
 24 23  2  0  0  0  0
 24 19  1  0  0  0  0
 25 24  1  0  0  0  0
 26 27  1  0  0  0  0
 26 25  2  0  0  0  0
 27 22  2  0  0  0  0
 30 26  1  0  0  0  0
 31 33  1  0  0  0  0
 33 32  2  6  0  0  0
 33 36  1  0  0  0  0
 33 34  1  0  0  0  0
 34 35  1  0  0  0  0
 36 37  1  0  0  0  0
 37 42  1  0  0  0  0
 37 38  1  0  0  0  0
 39 37  1  0  0  0  0
 40 41  1  0  0  0  0
 41 48  2  0  0  0  0
 41 42  1  0  0  0  0
 42 43  2  0  0  0  0
 43 45  1  0  0  0  0
 43 44  1  0  0  0  0
 45 46  1  0  0  0  0
 47 45  2  0  0  0  0
 48 47  1  0  0  0  0
M  END
>  <minimizedAffinity>
-5.2143383

>  <minimizedRMSD>
3.09226012

$$$$
