
 OpenBabel03252509033D

 48 50  0  0  1  0  0  0  0  0999 V2000
   46.7620   34.3700   43.6320 N   0  0  0  0  0  0  0  0  0  0  0  0
   46.3840   35.2960   42.6360 C   0  0  0  0  0  0  0  0  0  0  0  0
   44.8890   35.4830   42.4790 C   0  0  0  0  0  0  0  0  0  0  0  0
   44.1000   35.3190   43.7600 C   0  0  0  0  0  0  0  0  0  0  0  0
   45.0280   35.1430   44.9530 C   0  0  0  0  0  0  0  0  0  0  0  0
   45.8740   33.8730   44.5510 C   0  0  2  0  0  0  0  0  0  0  0  0
   46.7890   36.3040   42.9420 H   0  0  0  0  0  0  0  0  0  0  0  0
   46.7820   35.1300   41.6310 H   0  0  0  0  0  0  0  0  0  0  0  0
   44.4810   34.8490   41.6460 H   0  0  0  0  0  0  0  0  0  0  0  0
   44.6940   36.5270   42.1330 H   0  0  0  0  0  0  0  0  0  0  0  0
   43.3360   36.0880   43.9040 H   0  0  0  0  0  0  0  0  0  0  0  0
   43.5520   34.3530   43.6600 H   0  0  0  0  0  0  0  0  0  0  0  0
   44.4060   34.8800   45.8290 H   0  0  0  0  0  0  0  0  0  0  0  0
   45.7130   35.9880   45.1000 H   0  0  0  0  0  0  0  0  0  0  0  0
   45.1440   33.1010   44.2240 H   0  0  0  0  0  0  0  0  0  0  0  0
   47.9010   33.5510   43.2660 C   0  0  0  0  0  0  0  0  0  0  0  0
   48.3770   33.1570   44.1900 H   0  0  0  0  0  0  0  0  0  0  0  0
   48.6430   34.1450   42.7240 H   0  0  0  0  0  0  0  0  0  0  0  0
   47.4090   32.3860   42.4730 C   0  0  0  0  0  0  0  0  0  0  0  0
   47.5520   31.4090   42.9650 H   0  0  0  0  0  0  0  0  0  0  0  0
   46.3120   32.4770   42.2640 H   0  0  0  0  0  0  0  0  0  0  0  0
   49.8280   31.6820   39.6820 C   0  0  0  0  0  0  0  0  0  0  0  0
   49.2070   31.6780   40.9440 C   0  0  0  0  0  0  0  0  0  0  0  0
   48.0570   32.3970   41.1330 C   0  0  0  0  0  0  0  0  0  0  0  0
   47.5800   33.0770   40.0830 N   0  0  0  0  0  0  0  0  0  0  0  0
   48.1710   33.0800   38.8830 C   0  0  0  0  0  0  0  0  0  0  0  0
   49.2980   32.3870   38.6630 N   0  0  0  0  0  0  0  0  0  0  0  0
   50.7250   31.0790   39.6630 H   0  0  0  0  0  0  0  0  0  0  0  0
   49.6090   31.1180   41.7930 H   0  0  0  0  0  0  0  0  0  0  0  0
   47.8080   33.6190   38.0230 H   0  0  0  0  0  0  0  0  0  0  0  0
   46.4690   33.5520   45.7600 O   0  0  0  0  0  0  0  0  0  0  0  0
   45.5220   31.1520   45.1110 O   0  0  0  0  0  0  0  0  0  0  0  0
   46.1490   31.9670   46.2470 P   0  0  2  0  0  0  0  0  0  0  0  0
   44.9580   32.0820   47.4510 O   0  0  0  0  0  0  0  0  0  0  0  0
   45.3410   32.5180   48.2440 H   0  0  0  0  0  0  0  0  0  0  0  0
   47.4970   31.2250   46.9030 O   0  0  0  0  0  0  0  0  0  0  0  0
   47.9730   30.2980   45.9640 C   0  0  0  0  0  0  0  0  0  0  0  0
   47.1280   29.8630   45.3860 H   0  0  0  0  0  0  0  0  0  0  0  0
   48.6900   30.7280   45.2570 H   0  0  0  0  0  0  0  0  0  0  0  0
   46.4590   28.1700   46.7910 F   0  0  0  0  0  0  0  0  0  0  0  0
   47.7860   28.1860   47.1030 C   0  0  0  0  0  0  0  0  0  0  0  0
   48.6510   29.2220   46.7280 C   0  0  0  0  0  0  0  0  0  0  0  0
   49.9740   29.1280   47.1020 C   0  0  0  0  0  0  0  0  0  0  0  0
   50.5640   29.9590   46.7750 H   0  0  0  0  0  0  0  0  0  0  0  0
   50.4370   28.0480   47.8230 C   0  0  0  0  0  0  0  0  0  0  0  0
   51.4660   28.0150   48.0910 H   0  0  0  0  0  0  0  0  0  0  0  0
   49.5990   27.0060   48.2080 C   0  0  0  0  0  3  0  0  0  0  0  0
   48.2840   27.1180   47.8280 C   0  0  0  0  0  3  0  0  0  0  0  0
  1  6  1  0  0  0  0
  2  7  1  0  0  0  0
  2  1  1  0  0  0  0
  3  2  1  0  0  0  0
  3  4  1  0  0  0  0
  4 11  1  0  0  0  0
  4  5  1  0  0  0  0
  5 14  1  0  0  0  0
  5 13  1  0  0  0  0
  6 15  1  6  0  0  0
  6  5  1  0  0  0  0
  6 31  1  0  0  0  0
  8  2  1  0  0  0  0
  9  3  1  0  0  0  0
 10  3  1  0  0  0  0
 12  4  1  0  0  0  0
 16  1  1  0  0  0  0
 16 17  1  0  0  0  0
 18 16  1  0  0  0  0
 19 20  1  0  0  0  0
 19 16  1  0  0  0  0
 21 19  1  0  0  0  0
 22 23  1  0  0  0  0
 23 24  2  0  0  0  0
 23 29  1  0  0  0  0
 24 19  1  0  0  0  0
 25 24  1  0  0  0  0
 26 25  2  0  0  0  0
 27 26  1  0  0  0  0
 27 22  2  0  0  0  0
 28 22  1  0  0  0  0
 30 26  1  0  0  0  0
 31 33  1  0  0  0  0
 33 32  2  6  0  0  0
 33 36  1  0  0  0  0
 33 34  1  0  0  0  0
 34 35  1  0  0  0  0
 37 42  1  0  0  0  0
 37 36  1  0  0  0  0
 38 37  1  0  0  0  0
 39 37  1  0  0  0  0
 40 41  1  0  0  0  0
 41 48  1  0  0  0  0
 42 43  1  0  0  0  0
 42 41  2  0  0  0  0
 43 45  2  0  0  0  0
 44 43  1  0  0  0  0
 45 46  1  0  0  0  0
 45 47  1  0  0  0  0
 48 47  2  0  0  0  0
M  END
>  <minimizedAffinity>
-4.26007509

>  <minimizedRMSD>
1.43387556

$$$$
