
 OpenBabel03252506463D

 42 45  0  0  1  0  0  0  0  0999 V2000
   49.6460   33.6690   41.4100 N   0  0  1  0  0  0  0  0  0  0  0  0
   50.7100   33.0970   42.1920 C   0  0  0  0  0  0  0  0  0  0  0  0
   51.2350   31.7900   41.6730 C   0  0  0  0  0  0  0  0  0  0  0  0
   50.1470   30.7470   41.7210 C   0  0  0  0  0  0  0  0  0  0  0  0
   48.8010   31.3660   41.4990 C   0  0  0  0  0  0  0  0  0  0  0  0
   48.9710   32.6230   40.6730 C   0  0  2  0  0  0  0  0  0  0  0  0
   51.5510   33.8240   42.2230 H   0  0  0  0  0  0  0  0  0  0  0  0
   50.3660   32.8900   43.2470 H   0  0  0  0  0  0  0  0  0  0  0  0
   51.7470   31.8430   40.7070 H   0  0  0  0  0  0  0  0  0  0  0  0
   51.9910   31.4600   42.4430 H   0  0  0  0  0  0  0  0  0  0  0  0
   50.1510   30.2230   42.6990 H   0  0  0  0  0  0  0  0  0  0  0  0
   50.3680   29.9470   40.9580 H   0  0  0  0  0  0  0  0  0  0  0  0
   48.4430   31.7330   42.5130 H   0  0  0  0  0  0  0  0  0  0  0  0
   48.0220   30.7350   41.1160 H   0  0  0  0  0  0  0  0  0  0  0  0
   47.9370   32.9960   40.4680 H   0  0  0  0  0  0  0  0  0  0  0  0
   47.4080   34.8110   41.9640 C   0  0  1  0  0  0  0  0  0  0  0  0
   48.4880   35.8150   41.8160 C   0  0  0  0  0  0  0  0  0  0  0  0
   48.8220   34.4460   42.2500 C   0  0  2  0  0  0  0  0  0  0  0  0
   46.9540   34.4500   41.0110 H   0  0  0  0  0  0  0  0  0  0  0  0
   48.7550   36.1380   40.7950 H   0  0  0  0  0  0  0  0  0  0  0  0
   48.4970   36.6340   42.5700 H   0  0  0  0  0  0  0  0  0  0  0  0
   49.0340   34.3110   43.3530 H   0  0  0  0  0  0  0  0  0  0  0  0
   45.5600   36.0320   43.1520 C   0  0  0  0  0  0  0  0  0  0  0  0
   46.4550   34.9570   43.0680 C   0  0  0  0  0  0  0  0  0  0  0  0
   46.3940   33.9920   44.1020 C   0  0  0  0  0  0  0  0  0  0  0  0
   45.4870   34.1580   45.1010 N   0  0  0  0  0  0  0  0  0  0  0  0
   44.6440   35.2050   45.1460 C   0  0  0  0  0  0  0  0  0  0  0  0
   44.6720   36.1610   44.1640 N   0  0  0  0  0  0  0  0  0  0  0  0
   45.5880   36.7830   42.3710 H   0  0  0  0  0  0  0  0  0  0  0  0
   47.0600   33.1270   44.1050 H   0  0  0  0  0  0  0  0  0  0  0  0
   43.9610   35.2410   45.9860 H   0  0  0  0  0  0  0  0  0  0  0  0
   49.5500   32.3420   39.3990 N   0  0  0  0  0  0  0  0  0  0  0  0
   50.5600   32.0380   39.5520 H   0  0  0  0  0  0  0  0  0  0  0  0
   48.2620   34.4640   38.0080 F   0  0  0  0  0  0  0  0  0  0  0  0
   48.6610   33.3760   37.3050 C   0  0  0  0  0  0  0  0  0  0  0  0
   49.3050   32.3400   37.9990 C   0  0  0  0  0  0  0  0  0  0  0  0
   49.7230   31.2180   37.3150 C   0  0  0  0  0  0  0  0  0  0  0  0
   50.2120   30.3350   37.6530 H   0  0  0  0  0  0  0  0  0  0  0  0
   49.5300   31.0760   35.9590 C   0  0  0  0  0  0  0  0  0  0  0  0
   49.8020   30.2640   35.2980 H   0  0  0  0  0  0  0  0  0  0  0  0
   48.8980   32.0960   35.2760 C   0  0  0  0  0  0  0  0  0  0  0  0
   48.4790   33.2150   35.9570 C   0  0  0  0  0  0  0  0  0  0  0  0
  1  2  1  1  0  0  0
  1 18  1  0  0  0  0
  2  7  1  0  0  0  0
  2  8  1  0  0  0  0
  3  4  1  0  0  0  0
  3  2  1  0  0  0  0
  3 10  1  0  0  0  0
  4 11  1  0  0  0  0
  5  4  1  0  0  0  0
  5 13  1  0  0  0  0
  6 15  1  6  0  0  0
  6  1  1  0  0  0  0
  6  5  1  0  0  0  0
  9  3  1  0  0  0  0
 12  4  1  0  0  0  0
 14  5  1  0  0  0  0
 16 19  1  6  0  0  0
 16 18  1  0  0  0  0
 16 24  1  0  0  0  0
 17 16  1  0  0  0  0
 17 18  1  0  0  0  0
 17 21  1  0  0  0  0
 18 22  1  1  0  0  0
 20 17  1  0  0  0  0
 23 28  1  0  0  0  0
 24 23  2  0  0  0  0
 24 25  1  0  0  0  0
 25 30  1  0  0  0  0
 25 26  2  0  0  0  0
 26 27  1  0  0  0  0
 27 31  1  0  0  0  0
 28 27  2  0  0  0  0
 29 23  1  0  0  0  0
 32 33  1  0  0  0  0
 32  6  1  0  0  0  0
 35 36  1  0  0  0  0
 35 34  1  0  0  0  0
 36 32  1  0  0  0  0
 37 38  1  0  0  0  0
 37 36  2  0  0  0  0
 39 37  1  0  0  0  0
 40 39  1  0  0  0  0
 41 42  1  0  0  0  0
 41 39  2  0  0  0  0
 42 35  2  0  0  0  0
M  END
>  <minimizedAffinity>
-5.56350374

>  <minimizedRMSD>
2.44031501

$$$$
