
 OpenBabel03252503193D

 39 42  0  0  0  0  0  0  0  0999 V2000
   44.7740   34.4230   41.8970 C   0  0  0  0  0  0  0  0  0  0  0  0
   43.6310   33.6680   41.8900 C   0  0  0  0  0  0  0  0  0  0  0  0
   43.4800   33.2220   40.6320 N   0  0  0  0  0  0  0  0  0  0  0  0
   44.5030   33.6910   39.8880 C   0  0  0  0  0  0  0  0  0  0  0  0
   45.3120   34.4390   40.6680 N   0  0  0  0  0  0  0  0  0  0  0  0
   44.8050   33.5110   38.5120 N   0  0  0  0  0  0  0  0  0  0  0  0
   42.9820   33.4660   42.7140 H   0  0  0  0  0  0  0  0  0  0  0  0
   44.7740   32.5610   38.0670 H   0  0  0  0  0  0  0  0  0  0  0  0
   45.0740   34.2780   37.8440 H   0  0  0  0  0  0  0  0  0  0  0  0
   42.4540   32.3870   40.0540 C   0  0  0  0  0  0  0  0  0  0  0  0
   42.2030   31.5950   40.8050 H   0  0  0  0  0  0  0  0  0  0  0  0
   42.8900   31.8100   39.1870 H   0  0  0  0  0  0  0  0  0  0  0  0
   40.2270   32.8020   41.8260 F   0  0  0  0  0  0  0  0  0  0  0  0
   40.2620   33.2850   40.5760 C   0  0  0  0  0  0  0  0  0  0  0  0
   41.2590   33.1570   39.6340 C   0  0  0  0  0  0  0  0  0  0  0  0
   41.0810   33.7460   38.3830 C   0  0  0  0  0  0  0  0  0  0  0  0
   41.9010   33.6150   37.6740 H   0  0  0  0  0  0  0  0  0  0  0  0
   39.9460   34.4540   38.0490 C   0  0  0  0  0  0  0  0  0  0  0  0
   39.8650   34.8910   37.0600 H   0  0  0  0  0  0  0  0  0  0  0  0
   38.9610   34.5700   39.0090 C   0  0  0  0  0  0  0  0  0  0  0  0
   39.0950   33.9950   40.2780 C   0  0  0  0  0  0  0  0  0  0  0  0
   45.3710   35.1440   43.0780 C   0  0  0  0  0  0  0  0  0  0  0  0
   45.6110   36.3790   43.1060 O   0  0  0  0  0  0  0  0  0  0  0  0
   44.8800   34.5560   45.4050 C   0  0  0  0  0  0  0  0  0  0  0  0
   45.6980   34.4220   44.2550 C   0  0  0  0  0  0  0  0  0  0  0  0
   46.7720   33.5660   44.4080 C   0  0  0  0  0  0  0  0  0  0  0  0
   47.0370   32.9120   45.5310 N   0  0  0  0  0  0  0  0  0  0  0  0
   46.2120   33.0770   46.6160 C   0  0  0  0  0  0  0  0  0  0  0  0
   45.1580   33.8880   46.5360 N   0  0  0  0  0  0  0  0  0  0  0  0
   44.0060   35.1970   45.4130 H   0  0  0  0  0  0  0  0  0  0  0  0
   46.4200   32.5430   47.5500 H   0  0  0  0  0  0  0  0  0  0  0  0
   47.6390   33.3860   43.2890 C   0  0  0  0  0  0  0  0  0  0  0  0
   48.6410   34.1030   42.7270 C   0  0  0  0  0  0  0  0  0  0  0  0
   49.3010   33.6940   41.6620 C   0  0  0  0  0  0  0  0  0  0  0  0
   48.9300   32.5120   41.1480 C   0  0  0  0  0  0  0  0  0  0  0  0
   47.5720   31.9490   42.2320 S   0  0  0  0  0  0  0  0  0  0  0  0
   48.8610   35.0640   43.2370 H   0  0  0  0  0  0  0  0  0  0  0  0
   50.1090   34.1950   41.1470 H   0  0  0  0  0  0  0  0  0  0  0  0
   49.2490   31.8810   40.2920 H   0  0  0  0  0  0  0  0  0  0  0  0
  1 22  1  0  0  0  0
  2  1  2  0  0  0  0
  2  7  1  0  0  0  0
  3  2  1  0  0  0  0
  4  3  1  0  0  0  0
  4  5  2  0  0  0  0
  5  1  1  0  0  0  0
  6  4  1  0  0  0  0
  8  6  1  0  0  0  0
  9  6  1  0  0  0  0
 10  3  1  0  0  0  0
 10 11  1  0  0  0  0
 12 10  1  0  0  0  0
 14 13  1  0  0  0  0
 15 10  1  0  0  0  0
 15 14  2  0  0  0  0
 16 15  1  0  0  0  0
 17 16  1  0  0  0  0
 18 16  2  0  0  0  0
 18 20  1  0  0  0  0
 19 18  1  0  0  0  0
 20 21  2  0  0  0  0
 21 14  1  0  0  0  0
 22 23  2  0  0  0  0
 22 25  1  0  0  0  0
 24 30  1  0  0  0  0
 24 29  1  0  0  0  0
 25 26  1  0  0  0  0
 25 24  2  0  0  0  0
 26 27  2  0  0  0  0
 27 28  1  0  0  0  0
 28 31  1  0  0  0  0
 29 28  2  0  0  0  0
 32 26  1  0  0  0  0
 33 37  1  0  0  0  0
 33 32  2  0  0  0  0
 34 33  1  0  0  0  0
 35 34  2  0  0  0  0
 35 36  1  0  0  0  0
 36 32  1  0  0  0  0
 38 34  1  0  0  0  0
 39 35  1  0  0  0  0
M  END
>  <minimizedAffinity>
-6.12836599

>  <minimizedRMSD>
2.87324476

$$$$
