
 OpenBabel03252505313D

 27 28  0  0  0  0  0  0  0  0999 V2000
   37.8830   30.0430   42.5580 O   0  0  0  0  0  0  0  0  0  0  0  0
   37.0130   29.9730   41.2910 P   0  0  1  0  0  0  0  0  0  0  0  0
   35.6050   30.8570   41.4380 O   0  0  0  0  0  0  0  0  0  0  0  0
   35.8140   31.8140   41.5290 H   0  0  0  0  0  0  0  0  0  0  0  0
   37.9720   30.5430   40.0150 O   0  0  0  0  0  0  0  0  0  0  0  0
   40.5000   32.9190   39.3110 C   0  0  0  0  0  0  0  0  0  0  0  0
   39.9700   34.1610   39.7740 C   0  0  0  0  0  0  0  0  0  0  0  0
   38.6680   34.1100   40.3480 C   0  0  0  0  0  0  0  0  0  0  0  0
   38.0380   32.8890   40.4090 N   0  0  0  0  0  0  0  0  0  0  0  0
   38.6020   31.7700   39.9550 C   0  0  0  0  0  0  0  0  0  0  0  0
   39.8170   31.7860   39.4140 N   0  0  0  0  0  0  0  0  0  0  0  0
   41.4950   32.9680   38.8750 H   0  0  0  0  0  0  0  0  0  0  0  0
   40.4940   35.1010   39.7080 H   0  0  0  0  0  0  0  0  0  0  0  0
   38.1920   35.0160   40.7250 H   0  0  0  0  0  0  0  0  0  0  0  0
   36.6130   28.3580   41.0910 O   0  0  0  0  0  0  0  0  0  0  0  0
   36.7260   27.7070   42.2850 C   0  0  0  0  0  0  0  0  0  0  0  0
   35.7140   27.5820   42.7700 H   0  0  0  0  0  0  0  0  0  0  0  0
   37.2650   28.4070   42.9890 H   0  0  0  0  0  0  0  0  0  0  0  0
   39.2060   27.5390   43.4680 F   0  0  0  0  0  0  0  0  0  0  0  0
   38.6640   26.4610   42.8880 C   0  0  0  0  0  0  0  0  0  0  0  0
   37.4310   26.4250   42.2640 C   0  0  0  0  0  0  0  0  0  0  0  0
   37.0270   25.2260   41.7170 C   0  0  0  0  0  0  0  0  0  0  0  0
   36.0740   25.2360   41.2470 H   0  0  0  0  0  0  0  0  0  0  0  0
   37.7710   24.0750   41.7560 C   0  0  0  0  0  0  0  0  0  0  0  0
   37.3690   23.1900   41.3010 H   0  0  0  0  0  0  0  0  0  0  0  0
   39.0000   24.1360   42.3860 C   0  0  0  0  0  3  0  0  0  0  0  0
   39.4500   25.3130   42.9480 C   0  0  0  0  0  3  0  0  0  0  0  0
  2  3  1  0  0  0  0
  2  1  2  1  0  0  0
  3  4  1  0  0  0  0
  5  2  1  0  0  0  0
  6 11  2  0  0  0  0
  6  7  1  0  0  0  0
  7  8  2  0  0  0  0
  8  9  1  0  0  0  0
  8 14  1  0  0  0  0
 10  5  1  0  0  0  0
 10  9  2  0  0  0  0
 11 10  1  0  0  0  0
 12  6  1  0  0  0  0
 13  7  1  0  0  0  0
 15  2  1  0  0  0  0
 15 16  1  0  0  0  0
 16 17  1  0  0  0  0
 16 18  1  0  0  0  0
 20 27  1  0  0  0  0
 20 19  1  0  0  0  0
 21 16  1  0  0  0  0
 21 20  2  0  0  0  0
 22 24  2  0  0  0  0
 22 21  1  0  0  0  0
 23 22  1  0  0  0  0
 24 26  1  0  0  0  0
 25 24  1  0  0  0  0
 26 27  2  0  0  0  0
M  END
>  <minimizedAffinity>
-5.33382034

$$$$

 OpenBabel03252505313D

 27 28  0  0  0  0  0  0  0  0999 V2000
   37.6500   32.5860   40.6170 O   0  0  0  0  0  0  0  0  0  0  0  0
   37.1400   31.1340   40.6280 P   0  0  1  0  0  0  0  0  0  0  0  0
   35.6290   30.9960   41.3240 O   0  0  0  0  0  0  0  0  0  0  0  0
   34.9620   31.4760   40.7820 H   0  0  0  0  0  0  0  0  0  0  0  0
   37.1310   30.6120   39.0160 O   0  0  0  0  0  0  0  0  0  0  0  0
   35.3230   29.0490   36.4040 C   0  0  0  0  0  0  0  0  0  0  0  0
   34.1830   28.4760   37.0440 C   0  0  0  0  0  0  0  0  0  0  0  0
   34.0910   28.6730   38.4510 C   0  0  0  0  0  0  0  0  0  0  0  0
   35.0910   29.3890   39.0680 N   0  0  0  0  0  0  0  0  0  0  0  0
   36.1260   29.8940   38.3980 C   0  0  0  0  0  0  0  0  0  0  0  0
   36.2400   29.7260   37.0840 N   0  0  0  0  0  0  0  0  0  0  0  0
   35.3850   28.8940   35.3290 H   0  0  0  0  0  0  0  0  0  0  0  0
   33.4180   27.9200   36.5260 H   0  0  0  0  0  0  0  0  0  0  0  0
   33.2500   28.2660   39.0140 H   0  0  0  0  0  0  0  0  0  0  0  0
   38.2360   30.2650   41.5520 O   0  0  0  0  0  0  0  0  0  0  0  0
   37.5630   29.5060   42.4670 C   0  0  0  0  0  0  0  0  0  0  0  0
   36.4610   29.7560   42.4600 H   0  0  0  0  0  0  0  0  0  0  0  0
   37.9000   29.8500   43.4880 H   0  0  0  0  0  0  0  0  0  0  0  0
   39.8750   28.3970   43.4670 F   0  0  0  0  0  0  0  0  0  0  0  0
   38.9420   27.6160   42.9080 C   0  0  0  0  0  0  0  0  0  0  0  0
   37.7460   28.0580   42.3730 C   0  0  0  0  0  0  0  0  0  0  0  0
   36.8990   27.1130   41.8350 C   0  0  0  0  0  0  0  0  0  0  0  0
   35.9900   27.4890   41.4350 H   0  0  0  0  0  0  0  0  0  0  0  0
   37.1710   25.7700   41.8010 C   0  0  0  0  0  0  0  0  0  0  0  0
   36.4470   25.1120   41.3610 H   0  0  0  0  0  0  0  0  0  0  0  0
   38.3730   25.3520   42.3430 C   0  0  0  0  0  3  0  0  0  0  0  0
   39.2550   26.2590   42.8920 C   0  0  0  0  0  3  0  0  0  0  0  0
  2  1  2  1  0  0  0
  2  3  1  0  0  0  0
  2 15  1  0  0  0  0
  4  3  1  0  0  0  0
  5  2  1  0  0  0  0
  6  7  2  0  0  0  0
  6 11  1  0  0  0  0
  7  8  1  0  0  0  0
  8 14  1  0  0  0  0
  8  9  2  0  0  0  0
 10  5  1  0  0  0  0
 10  9  1  0  0  0  0
 11 10  2  0  0  0  0
 12  6  1  0  0  0  0
 13  7  1  0  0  0  0
 15 16  1  0  0  0  0
 16 18  1  0  0  0  0
 17 16  1  0  0  0  0
 20 19  1  0  0  0  0
 21 16  1  0  0  0  0
 21 20  2  0  0  0  0
 22 21  1  0  0  0  0
 23 22  1  0  0  0  0
 24 22  2  0  0  0  0
 24 26  1  0  0  0  0
 25 24  1  0  0  0  0
 26 27  2  0  0  0  0
 27 20  1  0  0  0  0
M  END
>  <minimizedAffinity>
-5.00120163

$$$$

 OpenBabel03252505313D

 27 28  0  0  0  0  0  0  0  0999 V2000
   38.1210   31.2670   41.0710 O   0  0  0  0  0  0  0  0  0  0  0  0
   37.1070   30.1230   41.2490 P   0  0  1  0  0  0  0  0  0  0  0  0
   35.5340   30.6750   41.3240 O   0  0  0  0  0  0  0  0  0  0  0  0
   35.2780   31.0860   40.4670 H   0  0  0  0  0  0  0  0  0  0  0  0
   37.3320   29.0690   39.9410 O   0  0  0  0  0  0  0  0  0  0  0  0
   34.6590   29.0710   37.6200 C   0  0  0  0  0  0  0  0  0  0  0  0
   35.2820   29.2530   36.3490 C   0  0  0  0  0  0  0  0  0  0  0  0
   36.7000   29.3740   36.3590 C   0  0  0  0  0  0  0  0  0  0  0  0
   37.3440   29.3080   37.5730 N   0  0  0  0  0  0  0  0  0  0  0  0
   36.6880   29.1360   38.7210 C   0  0  0  0  0  0  0  0  0  0  0  0
   35.3640   29.0190   38.7430 N   0  0  0  0  0  0  0  0  0  0  0  0
   33.5750   28.9790   37.6020 H   0  0  0  0  0  0  0  0  0  0  0  0
   34.7430   29.3000   35.4160 H   0  0  0  0  0  0  0  0  0  0  0  0
   37.2520   29.5150   35.4290 H   0  0  0  0  0  0  0  0  0  0  0  0
   37.4870   29.3890   42.7070 O   0  0  0  0  0  0  0  0  0  0  0  0
   36.9950   28.1150   42.7200 C   0  0  0  0  0  0  0  0  0  0  0  0
   36.3490   27.9270   41.8120 H   0  0  0  0  0  0  0  0  0  0  0  0
   36.2610   28.0570   43.5760 H   0  0  0  0  0  0  0  0  0  0  0  0
   36.5890   25.7590   41.3560 F   0  0  0  0  0  0  0  0  0  0  0  0
   37.6670   25.9070   42.1330 C   0  0  0  0  0  0  0  0  0  0  0  0
   37.9760   27.0390   42.8650 C   0  0  0  0  0  0  0  0  0  0  0  0
   39.1310   27.0200   43.6170 C   0  0  0  0  0  0  0  0  0  0  0  0
   39.3350   27.9070   44.1640 H   0  0  0  0  0  0  0  0  0  0  0  0
   39.9870   25.9510   43.6800 C   0  0  0  0  0  0  0  0  0  0  0  0
   40.8630   26.0330   44.2930 H   0  0  0  0  0  0  0  0  0  0  0  0
   39.6580   24.8310   42.9390 C   0  0  0  0  0  3  0  0  0  0  0  0
   38.5130   24.8010   42.1720 C   0  0  0  0  0  3  0  0  0  0  0  0
  2  1  2  6  0  0  0
  2  3  1  0  0  0  0
  2 15  1  0  0  0  0
  4  3  1  0  0  0  0
  5  2  1  0  0  0  0
  6 11  1  0  0  0  0
  7  8  1  0  0  0  0
  7  6  2  0  0  0  0
  8  9  2  0  0  0  0
  9 10  1  0  0  0  0
 10 11  2  0  0  0  0
 10  5  1  0  0  0  0
 12  6  1  0  0  0  0
 13  7  1  0  0  0  0
 14  8  1  0  0  0  0
 15 16  1  0  0  0  0
 16 21  1  0  0  0  0
 16 18  1  0  0  0  0
 17 16  1  0  0  0  0
 19 20  1  0  0  0  0
 20 27  2  0  0  0  0
 20 21  1  0  0  0  0
 21 22  2  0  0  0  0
 22 24  1  0  0  0  0
 22 23  1  0  0  0  0
 24 25  1  0  0  0  0
 26 24  2  0  0  0  0
 27 26  1  0  0  0  0
M  END
>  <minimizedAffinity>
-4.98742342

$$$$

 OpenBabel03252505313D

 27 28  0  0  0  0  0  0  0  0999 V2000
   40.0370   31.5580   39.8380 O   0  0  0  0  0  0  0  0  0  0  0  0
   39.1920   32.2830   40.9010 P   0  0  1  0  0  0  0  0  0  0  0  0
   39.7590   33.8190   41.2240 O   0  0  0  0  0  0  0  0  0  0  0  0
   39.6710   34.3870   40.4250 H   0  0  0  0  0  0  0  0  0  0  0  0
   37.6040   32.3180   40.3130 O   0  0  0  0  0  0  0  0  0  0  0  0
   36.2780   29.6990   38.3330 C   0  0  0  0  0  0  0  0  0  0  0  0
   35.3520   29.0310   39.1880 C   0  0  0  0  0  0  0  0  0  0  0  0
   35.2230   29.5580   40.5040 C   0  0  0  0  0  0  0  0  0  0  0  0
   35.9890   30.6510   40.8380 N   0  0  0  0  0  0  0  0  0  0  0  0
   36.8340   31.2210   39.9790 C   0  0  0  0  0  0  0  0  0  0  0  0
   36.9760   30.7510   38.7440 N   0  0  0  0  0  0  0  0  0  0  0  0
   36.3700   29.2900   37.3290 H   0  0  0  0  0  0  0  0  0  0  0  0
   34.7680   28.1740   38.8900 H   0  0  0  0  0  0  0  0  0  0  0  0
   34.5360   29.1030   41.2190 H   0  0  0  0  0  0  0  0  0  0  0  0
   39.3140   31.3630   42.2970 O   0  0  0  0  0  0  0  0  0  0  0  0
   39.6860   30.0890   41.9740 C   0  0  0  0  0  0  0  0  0  0  0  0
   40.6890   29.8380   42.4270 H   0  0  0  0  0  0  0  0  0  0  0  0
   39.8930   30.0800   40.8640 H   0  0  0  0  0  0  0  0  0  0  0  0
   39.2190   28.1330   40.0950 F   0  0  0  0  0  0  0  0  0  0  0  0
   38.5720   28.1070   41.2650 C   0  0  0  0  0  0  0  0  0  0  0  0
   38.7220   29.0320   42.2820 C   0  0  0  0  0  0  0  0  0  0  0  0
   37.9720   28.8530   43.4250 C   0  0  0  0  0  0  0  0  0  0  0  0
   38.1140   29.5820   44.1840 H   0  0  0  0  0  0  0  0  0  0  0  0
   37.0930   27.8180   43.6110 C   0  0  0  0  0  0  0  0  0  0  0  0
   36.5550   27.7630   44.5380 H   0  0  0  0  0  0  0  0  0  0  0  0
   36.9610   26.9050   42.5810 C   0  0  0  0  0  3  0  0  0  0  0  0
   37.6880   27.0410   41.4170 C   0  0  0  0  0  3  0  0  0  0  0  0
  2  1  2  6  0  0  0
  2  3  1  0  0  0  0
  2 15  1  0  0  0  0
  4  3  1  0  0  0  0
  5  2  1  0  0  0  0
  6 11  2  0  0  0  0
  6  7  1  0  0  0  0
  7  8  2  0  0  0  0
  8  9  1  0  0  0  0
  8 14  1  0  0  0  0
 10  5  1  0  0  0  0
 10  9  2  0  0  0  0
 11 10  1  0  0  0  0
 12  6  1  0  0  0  0
 13  7  1  0  0  0  0
 16 21  1  0  0  0  0
 16 15  1  0  0  0  0
 16 17  1  0  0  0  0
 18 16  1  0  0  0  0
 19 20  1  0  0  0  0
 20 27  2  0  0  0  0
 20 21  1  0  0  0  0
 21 22  2  0  0  0  0
 22 24  1  0  0  0  0
 22 23  1  0  0  0  0
 24 25  1  0  0  0  0
 26 24  2  0  0  0  0
 27 26  1  0  0  0  0
M  END
>  <minimizedAffinity>
-4.7808423

$$$$

 OpenBabel03252505313D

 27 28  0  0  0  0  0  0  0  0999 V2000
   35.6800   29.4350   36.9050 O   0  0  0  0  0  0  0  0  0  0  0  0
   36.9510   29.7480   37.7160 P   0  0  1  0  0  0  0  0  0  0  0  0
   38.3060   29.8710   36.7500 O   0  0  0  0  0  0  0  0  0  0  0  0
   38.2200   30.6390   36.1400 H   0  0  0  0  0  0  0  0  0  0  0  0
   36.6490   31.1930   38.5470 O   0  0  0  0  0  0  0  0  0  0  0  0
   39.8540   32.4830   39.3240 C   0  0  0  0  0  0  0  0  0  0  0  0
   39.6000   33.7690   39.8890 C   0  0  0  0  0  0  0  0  0  0  0  0
   38.2330   34.1540   39.9800 C   0  0  0  0  0  0  0  0  0  0  0  0
   37.2830   33.2690   39.5230 N   0  0  0  0  0  0  0  0  0  0  0  0
   37.6010   32.0820   39.0070 C   0  0  0  0  0  0  0  0  0  0  0  0
   38.8690   31.6950   38.9090 N   0  0  0  0  0  0  0  0  0  0  0  0
   40.9010   32.1980   39.2600 H   0  0  0  0  0  0  0  0  0  0  0  0
   40.3720   34.4360   40.2370 H   0  0  0  0  0  0  0  0  0  0  0  0
   37.9550   35.1210   40.4000 H   0  0  0  0  0  0  0  0  0  0  0  0
   37.1590   28.4610   38.7690 O   0  0  0  0  0  0  0  0  0  0  0  0
   36.3190   28.6030   39.8360 C   0  0  0  0  0  0  0  0  0  0  0  0
   35.3200   28.1200   39.6260 H   0  0  0  0  0  0  0  0  0  0  0  0
   36.0660   29.7010   39.9090 H   0  0  0  0  0  0  0  0  0  0  0  0
   36.9860   30.4860   41.7290 F   0  0  0  0  0  0  0  0  0  0  0  0
   37.1280   29.1830   41.9990 C   0  0  0  0  0  0  0  0  0  0  0  0
   36.8290   28.1500   41.1310 C   0  0  0  0  0  0  0  0  0  0  0  0
   37.0380   26.8610   41.5740 C   0  0  0  0  0  0  0  0  0  0  0  0
   36.7960   26.0940   40.8800 H   0  0  0  0  0  0  0  0  0  0  0  0
   37.5210   26.5470   42.8170 C   0  0  0  0  0  0  0  0  0  0  0  0
   37.6490   25.5120   43.0700 H   0  0  0  0  0  0  0  0  0  0  0  0
   37.8130   27.5970   43.6680 C   0  0  0  0  0  3  0  0  0  0  0  0
   37.6220   28.9040   43.2710 C   0  0  0  0  0  3  0  0  0  0  0  0
  2  1  2  6  0  0  0
  2  5  1  0  0  0  0
  2 15  1  0  0  0  0
  3  2  1  0  0  0  0
  4  3  1  0  0  0  0
  5 10  1  0  0  0  0
  6  7  1  0  0  0  0
  7  8  2  0  0  0  0
  7 13  1  0  0  0  0
  8 14  1  0  0  0  0
  9  8  1  0  0  0  0
 10  9  2  0  0  0  0
 11 10  1  0  0  0  0
 11  6  2  0  0  0  0
 12  6  1  0  0  0  0
 15 16  1  0  0  0  0
 16 18  1  0  0  0  0
 16 21  1  0  0  0  0
 17 16  1  0  0  0  0
 19 20  1  0  0  0  0
 20 27  1  0  0  0  0
 21 22  1  0  0  0  0
 21 20  2  0  0  0  0
 22 24  2  0  0  0  0
 23 22  1  0  0  0  0
 24 25  1  0  0  0  0
 24 26  1  0  0  0  0
 27 26  2  0  0  0  0
M  END
>  <minimizedAffinity>
-4.77404499

$$$$

 OpenBabel03252505313D

 27 28  0  0  0  0  0  0  0  0999 V2000
   37.3350   29.6190   42.5850 O   0  0  0  0  0  0  0  0  0  0  0  0
   36.8440   30.0050   41.1780 P   0  0  1  0  0  0  0  0  0  0  0  0
   35.1950   29.8130   41.0050 O   0  0  0  0  0  0  0  0  0  0  0  0
   34.7180   30.4350   41.6010 H   0  0  0  0  0  0  0  0  0  0  0  0
   37.3100   31.6150   40.9280 O   0  0  0  0  0  0  0  0  0  0  0  0
   39.9740   33.5710   39.6580 C   0  0  0  0  0  0  0  0  0  0  0  0
   41.1370   33.0750   40.3200 C   0  0  0  0  0  0  0  0  0  0  0  0
   40.9260   32.0110   41.2410 C   0  0  0  0  0  0  0  0  0  0  0  0
   39.6390   31.5540   41.4140 N   0  0  0  0  0  0  0  0  0  0  0  0
   38.6020   32.0710   40.7550 C   0  0  0  0  0  0  0  0  0  0  0  0
   38.7690   33.0660   39.8890 N   0  0  0  0  0  0  0  0  0  0  0  0
   40.1450   34.3840   38.9560 H   0  0  0  0  0  0  0  0  0  0  0  0
   42.1310   33.4590   40.1590 H   0  0  0  0  0  0  0  0  0  0  0  0
   41.7630   31.5760   41.7890 H   0  0  0  0  0  0  0  0  0  0  0  0
   37.6180   28.9650   40.1150 O   0  0  0  0  0  0  0  0  0  0  0  0
   38.2360   27.9710   40.8170 C   0  0  0  0  0  0  0  0  0  0  0  0
   38.4060   28.2830   41.8890 H   0  0  0  0  0  0  0  0  0  0  0  0
   39.2830   27.8820   40.4040 H   0  0  0  0  0  0  0  0  0  0  0  0
   38.0890   26.4990   43.1380 F   0  0  0  0  0  0  0  0  0  0  0  0
   37.5840   26.0100   42.0010 C   0  0  0  0  0  0  0  0  0  0  0  0
   37.6000   26.6530   40.7770 C   0  0  0  0  0  0  0  0  0  0  0  0
   37.0330   26.0010   39.7030 C   0  0  0  0  0  0  0  0  0  0  0  0
   37.0630   26.5260   38.7810 H   0  0  0  0  0  0  0  0  0  0  0  0
   36.4570   24.7590   39.7780 C   0  0  0  0  0  0  0  0  0  0  0  0
   36.0400   24.3330   38.8860 H   0  0  0  0  0  0  0  0  0  0  0  0
   36.4520   24.1350   41.0130 C   0  0  0  0  0  3  0  0  0  0  0  0
   37.0080   24.7470   42.1160 C   0  0  0  0  0  3  0  0  0  0  0  0
  2  1  2  1  0  0  0
  3  2  1  0  0  0  0
  3  4  1  0  0  0  0
  5  2  1  0  0  0  0
  6 11  2  0  0  0  0
  6  7  1  0  0  0  0
  7  8  2  0  0  0  0
  8  9  1  0  0  0  0
  8 14  1  0  0  0  0
 10  5  1  0  0  0  0
 10  9  2  0  0  0  0
 11 10  1  0  0  0  0
 12  6  1  0  0  0  0
 13  7  1  0  0  0  0
 15 16  1  0  0  0  0
 15  2  1  0  0  0  0
 16 17  1  0  0  0  0
 18 16  1  0  0  0  0
 20 27  1  0  0  0  0
 20 19  1  0  0  0  0
 21 16  1  0  0  0  0
 21 20  2  0  0  0  0
 22 24  2  0  0  0  0
 22 21  1  0  0  0  0
 23 22  1  0  0  0  0
 24 26  1  0  0  0  0
 25 24  1  0  0  0  0
 26 27  2  0  0  0  0
M  END
>  <minimizedAffinity>
-4.76236868

$$$$

 OpenBabel03252505313D

 27 28  0  0  0  0  0  0  0  0999 V2000
   35.2310   28.7310   40.3170 O   0  0  0  0  0  0  0  0  0  0  0  0
   36.2800   29.6280   40.9970 P   0  0  1  0  0  0  0  0  0  0  0  0
   35.6790   31.1390   41.3700 O   0  0  0  0  0  0  0  0  0  0  0  0
   34.9630   31.0630   42.0410 H   0  0  0  0  0  0  0  0  0  0  0  0
   36.7910   28.8040   42.3870 O   0  0  0  0  0  0  0  0  0  0  0  0
   39.0680   26.1070   42.6670 C   0  0  0  0  0  0  0  0  0  0  0  0
   40.3400   26.7250   42.8620 C   0  0  0  0  0  0  0  0  0  0  0  0
   40.3460   28.1480   42.8890 C   0  0  0  0  0  0  0  0  0  0  0  0
   39.1460   28.8010   42.7280 N   0  0  0  0  0  0  0  0  0  0  0  0
   37.9960   28.1500   42.5500 C   0  0  0  0  0  0  0  0  0  0  0  0
   37.9590   26.8220   42.5200 N   0  0  0  0  0  0  0  0  0  0  0  0
   39.0730   25.0200   42.6480 H   0  0  0  0  0  0  0  0  0  0  0  0
   41.2620   26.1790   42.9850 H   0  0  0  0  0  0  0  0  0  0  0  0
   41.2780   28.6970   43.0340 H   0  0  0  0  0  0  0  0  0  0  0  0
   37.5260   29.8050   39.8910 O   0  0  0  0  0  0  0  0  0  0  0  0
   37.5380   31.0850   39.4170 C   0  0  0  0  0  0  0  0  0  0  0  0
   36.5880   31.6250   39.7000 H   0  0  0  0  0  0  0  0  0  0  0  0
   37.4720   31.0170   38.2920 H   0  0  0  0  0  0  0  0  0  0  0  0
   37.2560   33.8210   39.5130 F   0  0  0  0  0  0  0  0  0  0  0  0
   38.4380   33.2580   39.7890 C   0  0  0  0  0  0  0  0  0  0  0  0
   38.7000   31.9010   39.7720 C   0  0  0  0  0  0  0  0  0  0  0  0
   39.9790   31.4930   40.0830 C   0  0  0  0  0  0  0  0  0  0  0  0
   40.1420   30.4430   40.0610 H   0  0  0  0  0  0  0  0  0  0  0  0
   41.0000   32.3480   40.4070 C   0  0  0  0  0  0  0  0  0  0  0  0
   41.9630   31.9340   40.6350 H   0  0  0  0  0  0  0  0  0  0  0  0
   40.7130   33.7020   40.4180 C   0  0  0  0  0  3  0  0  0  0  0  0
   39.4490   34.1600   40.1130 C   0  0  0  0  0  3  0  0  0  0  0  0
  2  1  2  6  0  0  0
  2  3  1  0  0  0  0
  2  5  1  0  0  0  0
  3  4  1  0  0  0  0
  5 10  1  0  0  0  0
  6  7  1  0  0  0  0
  7  8  2  0  0  0  0
  7 13  1  0  0  0  0
  8 14  1  0  0  0  0
  9  8  1  0  0  0  0
 10  9  2  0  0  0  0
 11 10  1  0  0  0  0
 11  6  2  0  0  0  0
 12  6  1  0  0  0  0
 15  2  1  0  0  0  0
 16 17  1  0  0  0  0
 16 21  1  0  0  0  0
 16 15  1  0  0  0  0
 18 16  1  0  0  0  0
 19 20  1  0  0  0  0
 20 27  1  0  0  0  0
 21 20  2  0  0  0  0
 21 22  1  0  0  0  0
 22 24  2  0  0  0  0
 23 22  1  0  0  0  0
 24 26  1  0  0  0  0
 24 25  1  0  0  0  0
 27 26  2  0  0  0  0
M  END
>  <minimizedAffinity>
-4.72852707

$$$$

 OpenBabel03252505313D

 27 28  0  0  0  0  0  0  0  0999 V2000
   37.3850   32.4540   40.2810 O   0  0  0  0  0  0  0  0  0  0  0  0
   37.0550   30.9940   40.6350 P   0  0  1  0  0  0  0  0  0  0  0  0
   35.6170   30.8510   41.4690 O   0  0  0  0  0  0  0  0  0  0  0  0
   34.8650   31.1300   40.8990 H   0  0  0  0  0  0  0  0  0  0  0  0
   37.0110   30.1400   39.1720 O   0  0  0  0  0  0  0  0  0  0  0  0
   38.4950   26.9440   38.8300 C   0  0  0  0  0  0  0  0  0  0  0  0
   37.3940   26.0410   38.7360 C   0  0  0  0  0  0  0  0  0  0  0  0
   36.0980   26.6260   38.8000 C   0  0  0  0  0  0  0  0  0  0  0  0
   36.0140   27.9910   38.9450 N   0  0  0  0  0  0  0  0  0  0  0  0
   37.0930   28.7690   39.0250 C   0  0  0  0  0  0  0  0  0  0  0  0
   38.3160   28.2520   38.9680 N   0  0  0  0  0  0  0  0  0  0  0  0
   39.4810   26.4880   38.7790 H   0  0  0  0  0  0  0  0  0  0  0  0
   37.4990   24.9740   38.6220 H   0  0  0  0  0  0  0  0  0  0  0  0
   35.2050   26.0040   38.7350 H   0  0  0  0  0  0  0  0  0  0  0  0
   38.3020   30.4630   41.6220 O   0  0  0  0  0  0  0  0  0  0  0  0
   37.7940   29.6780   42.6180 C   0  0  0  0  0  0  0  0  0  0  0  0
   36.6740   29.7990   42.6900 H   0  0  0  0  0  0  0  0  0  0  0  0
   38.1650   30.1090   43.5930 H   0  0  0  0  0  0  0  0  0  0  0  0
   35.7730   27.8320   42.3330 F   0  0  0  0  0  0  0  0  0  0  0  0
   37.0450   27.4270   42.4210 C   0  0  0  0  0  0  0  0  0  0  0  0
   38.1410   28.2580   42.5680 C   0  0  0  0  0  0  0  0  0  0  0  0
   39.3840   27.6680   42.6440 C   0  0  0  0  0  0  0  0  0  0  0  0
   40.2010   28.3380   42.7550 H   0  0  0  0  0  0  0  0  0  0  0  0
   39.5970   26.3160   42.5830 C   0  0  0  0  0  0  0  0  0  0  0  0
   40.6040   25.9520   42.6510 H   0  0  0  0  0  0  0  0  0  0  0  0
   38.4860   25.5050   42.4360 C   0  0  0  0  0  3  0  0  0  0  0  0
   37.2210   26.0460   42.3560 C   0  0  0  0  0  3  0  0  0  0  0  0
  2  1  2  6  0  0  0
  2  3  1  0  0  0  0
  2 15  1  0  0  0  0
  4  3  1  0  0  0  0
  5  2  1  0  0  0  0
  6 11  1  0  0  0  0
  7  8  1  0  0  0  0
  7  6  2  0  0  0  0
  8  9  2  0  0  0  0
  9 10  1  0  0  0  0
 10  5  1  0  0  0  0
 11 10  2  0  0  0  0
 12  6  1  0  0  0  0
 13  7  1  0  0  0  0
 14  8  1  0  0  0  0
 15 16  1  0  0  0  0
 16 17  1  0  0  0  0
 16 18  1  0  0  0  0
 19 20  1  0  0  0  0
 20 21  1  0  0  0  0
 21 16  1  0  0  0  0
 21 22  2  0  0  0  0
 22 23  1  0  0  0  0
 24 22  1  0  0  0  0
 24 25  1  0  0  0  0
 26 24  2  0  0  0  0
 27 20  2  0  0  0  0
 27 26  1  0  0  0  0
M  END
>  <minimizedAffinity>
-4.63614607

$$$$

 OpenBabel03252505313D

 27 28  0  0  0  0  0  0  0  0999 V2000
   36.1370   31.1750   41.0790 O   0  0  0  0  0  0  0  0  0  0  0  0
   35.9670   29.7300   40.5790 P   0  0  1  0  0  0  0  0  0  0  0  0
   34.3810   29.3690   40.2040 O   0  0  0  0  0  0  0  0  0  0  0  0
   34.0800   29.9180   39.4450 H   0  0  0  0  0  0  0  0  0  0  0  0
   36.9770   29.5640   39.2290 O   0  0  0  0  0  0  0  0  0  0  0  0
   39.4210   32.0820   38.7580 C   0  0  0  0  0  0  0  0  0  0  0  0
   40.6650   31.3820   38.7510 C   0  0  0  0  0  0  0  0  0  0  0  0
   40.5910   29.9710   38.9220 C   0  0  0  0  0  0  0  0  0  0  0  0
   39.3460   29.4060   39.0780 N   0  0  0  0  0  0  0  0  0  0  0  0
   38.2270   30.1290   39.0720 C   0  0  0  0  0  0  0  0  0  0  0  0
   38.2650   31.4490   38.9140 N   0  0  0  0  0  0  0  0  0  0  0  0
   39.4880   33.1590   38.6260 H   0  0  0  0  0  0  0  0  0  0  0  0
   41.6240   31.8610   38.6260 H   0  0  0  0  0  0  0  0  0  0  0  0
   41.4970   29.3650   38.9280 H   0  0  0  0  0  0  0  0  0  0  0  0
   36.4560   28.7420   41.8420 O   0  0  0  0  0  0  0  0  0  0  0  0
   37.3820   29.3960   42.6030 C   0  0  0  0  0  0  0  0  0  0  0  0
   36.9280   29.7360   43.5800 H   0  0  0  0  0  0  0  0  0  0  0  0
   37.6120   30.3670   42.0740 H   0  0  0  0  0  0  0  0  0  0  0  0
   37.2770   26.8560   43.6550 F   0  0  0  0  0  0  0  0  0  0  0  0
   38.4580   27.4210   43.3820 C   0  0  0  0  0  0  0  0  0  0  0  0
   38.6360   28.6870   42.8550 C   0  0  0  0  0  0  0  0  0  0  0  0
   39.9290   29.1120   42.6360 C   0  0  0  0  0  0  0  0  0  0  0  0
   40.0260   30.0890   42.2300 H   0  0  0  0  0  0  0  0  0  0  0  0
   41.0410   28.3590   42.9080 C   0  0  0  0  0  0  0  0  0  0  0  0
   42.0070   28.7780   42.7020 H   0  0  0  0  0  0  0  0  0  0  0  0
   40.8380   27.0960   43.4340 C   0  0  0  0  0  3  0  0  0  0  0  0
   39.5640   26.6250   43.6720 C   0  0  0  0  0  3  0  0  0  0  0  0
  2  1  2  1  0  0  0
  2 15  1  0  0  0  0
  3  2  1  0  0  0  0
  4  3  1  0  0  0  0
  5  2  1  0  0  0  0
  6 11  1  0  0  0  0
  7  6  2  0  0  0  0
  7  8  1  0  0  0  0
  8 14  1  0  0  0  0
  8  9  2  0  0  0  0
 10  9  1  0  0  0  0
 10  5  1  0  0  0  0
 11 10  2  0  0  0  0
 12  6  1  0  0  0  0
 13  7  1  0  0  0  0
 15 16  1  0  0  0  0
 16 21  1  0  0  0  0
 16 17  1  0  0  0  0
 18 16  1  0  0  0  0
 20 19  1  0  0  0  0
 20 27  1  0  0  0  0
 21 20  2  0  0  0  0
 22 21  1  0  0  0  0
 22 24  2  0  0  0  0
 23 22  1  0  0  0  0
 24 26  1  0  0  0  0
 25 24  1  0  0  0  0
 26 27  2  0  0  0  0
M  END
>  <minimizedAffinity>
-4.63368607

$$$$
