
 OpenBabel03242515413D

 36 39  0  0  0  0  0  0  0  0999 V2000
   37.2500   29.1200   41.7470 C   0  0  0  0  0  0  0  0  0  0  0  0
   36.4280   28.6690   40.7460 C   0  0  0  0  0  0  0  0  0  0  0  0
   36.0750   29.5650   39.7430 C   0  0  0  0  0  0  0  0  0  0  0  0
   36.5620   30.8260   39.8150 N   0  0  0  0  0  0  0  0  0  0  0  0
   37.3710   31.2400   40.8150 C   0  0  0  0  0  0  0  0  0  0  0  0
   37.6920   30.3720   41.7550 N   0  0  0  0  0  0  0  0  0  0  0  0
   36.0700   27.6750   40.7290 H   0  0  0  0  0  0  0  0  0  0  0  0
   33.1970   29.2040   39.7520 F   0  0  0  0  0  0  0  0  0  0  0  0
   33.8660   29.1040   38.5950 C   0  0  0  0  0  0  0  0  0  0  0  0
   35.2230   29.2780   38.6100 C   0  0  0  0  0  0  0  0  0  0  0  0
   35.7940   29.1550   37.3660 C   0  0  0  0  0  0  0  0  0  0  0  0
   36.8700   29.2630   37.1860 H   0  0  0  0  0  0  0  0  0  0  0  0
   35.0730   28.8840   36.2210 C   0  0  0  0  0  0  0  0  0  0  0  0
   35.5440   28.7920   35.2540 H   0  0  0  0  0  0  0  0  0  0  0  0
   33.7140   28.7190   36.2630 C   0  0  0  0  0  3  0  0  0  0  0  0
   33.0980   28.8340   37.4890 C   0  0  0  0  0  3  0  0  0  0  0  0
   37.6730   27.9070   43.0250 S   0  0  0  0  0  0  0  0  0  0  0  0
   39.2270   25.7890   42.4440 C   0  0  0  0  0  0  0  0  0  0  0  0
   37.9330   26.3000   42.3120 C   0  0  0  0  0  0  0  0  0  0  0  0
   36.9600   25.5880   41.6740 C   0  0  0  0  0  0  0  0  0  0  0  0
   37.1980   24.3360   41.1290 C   0  0  0  0  0  0  0  0  0  0  0  0
   38.5030   23.8190   41.2620 C   0  0  0  0  0  0  0  0  0  0  0  0
   39.5130   24.5260   41.9080 C   0  0  0  0  0  0  0  0  0  0  0  0
   38.4980   22.5520   40.6380 O   0  0  0  0  0  0  0  0  0  0  0  0
   37.3310   22.4840   39.8720 C   0  0  0  0  0  0  0  0  0  0  0  0
   36.4200   23.4060   40.4420 O   0  0  0  0  0  0  0  0  0  0  0  0
   40.0500   26.2930   42.9360 H   0  0  0  0  0  0  0  0  0  0  0  0
   35.9680   26.0360   41.6010 H   0  0  0  0  0  0  0  0  0  0  0  0
   40.5080   24.0920   41.9890 H   0  0  0  0  0  0  0  0  0  0  0  0
   37.4730   22.6040   38.7860 H   0  0  0  0  0  0  0  0  0  0  0  0
   36.8860   21.4680   40.0330 H   0  0  0  0  0  0  0  0  0  0  0  0
   37.8800   32.5050   40.9170 O   0  0  0  0  0  0  0  0  0  0  0  0
   38.2040   33.2270   39.7550 C   0  0  0  0  0  0  0  0  0  0  0  0
   37.0980   33.7720   39.1640 F   0  0  0  0  0  0  0  0  0  0  0  0
   39.1510   34.1610   40.1520 F   0  0  0  0  0  0  0  0  0  0  0  0
   38.7630   32.3170   38.8540 F   0  0  0  0  0  0  0  0  0  0  0  0
  1  6  1  0  0  0  0
  1 17  1  0  0  0  0
  2  1  2  0  0  0  0
  3  4  2  0  0  0  0
  3  2  1  0  0  0  0
  4  5  1  0  0  0  0
  5 32  1  0  0  0  0
  5  6  2  0  0  0  0
  7  2  1  0  0  0  0
  9 10  1  0  0  0  0
  9  8  1  0  0  0  0
 10  3  1  0  0  0  0
 11 10  2  0  0  0  0
 12 11  1  0  0  0  0
 13 15  2  0  0  0  0
 13 11  1  0  0  0  0
 14 13  1  0  0  0  0
 15 16  1  0  0  0  0
 16  9  2  0  0  0  0
 18 27  1  0  0  0  0
 19 18  1  0  0  0  0
 19 17  1  0  0  0  0
 20 19  2  0  0  0  0
 21 22  2  0  0  0  0
 21 20  1  0  0  0  0
 22 23  1  0  0  0  0
 23 29  1  0  0  0  0
 23 18  2  0  0  0  0
 24 22  1  0  0  0  0
 25 31  1  0  0  0  0
 25 26  1  0  0  0  0
 25 24  1  0  0  0  0
 26 21  1  0  0  0  0
 28 20  1  0  0  0  0
 30 25  1  0  0  0  0
 33 35  1  0  0  0  0
 33 32  1  0  0  0  0
 34 33  1  0  0  0  0
 36 33  1  0  0  0  0
M  END
>  <minimizedAffinity>
-6.33006907

$$$$

 OpenBabel03242515413D

 36 39  0  0  0  0  0  0  0  0999 V2000
   37.3650   31.1760   40.5750 C   0  0  0  0  0  0  0  0  0  0  0  0
   38.1730   30.3010   41.2570 C   0  0  0  0  0  0  0  0  0  0  0  0
   37.7040   29.0080   41.4580 C   0  0  0  0  0  0  0  0  0  0  0  0
   36.4820   28.6900   40.9690 N   0  0  0  0  0  0  0  0  0  0  0  0
   35.7110   29.5750   40.3010 C   0  0  0  0  0  0  0  0  0  0  0  0
   36.1760   30.7960   40.1220 N   0  0  0  0  0  0  0  0  0  0  0  0
   39.1210   30.5910   41.6220 H   0  0  0  0  0  0  0  0  0  0  0  0
   39.9240   29.2800   43.3040 F   0  0  0  0  0  0  0  0  0  0  0  0
   39.4530   28.0570   43.0220 C   0  0  0  0  0  0  0  0  0  0  0  0
   38.4050   27.9490   42.1490 C   0  0  0  0  0  0  0  0  0  0  0  0
   38.0110   26.6480   41.9430 C   0  0  0  0  0  0  0  0  0  0  0  0
   37.1880   26.3690   41.2750 H   0  0  0  0  0  0  0  0  0  0  0  0
   38.6110   25.5650   42.5530 C   0  0  0  0  0  0  0  0  0  0  0  0
   38.2840   24.5520   42.3750 H   0  0  0  0  0  0  0  0  0  0  0  0
   39.6590   25.7320   43.4200 C   0  0  0  0  0  3  0  0  0  0  0  0
   40.0870   27.0180   43.6580 C   0  0  0  0  0  3  0  0  0  0  0  0
   38.0300   32.8460   40.3460 S   0  0  0  0  0  0  0  0  0  0  0  0
   39.4100   31.9540   38.2170 C   0  0  0  0  0  0  0  0  0  0  0  0
   39.4760   32.8170   39.3140 C   0  0  0  0  0  0  0  0  0  0  0  0
   40.5880   33.5720   39.5460 C   0  0  0  0  0  0  0  0  0  0  0  0
   41.6990   33.5230   38.7190 C   0  0  0  0  0  0  0  0  0  0  0  0
   41.6350   32.6530   37.6110 C   0  0  0  0  0  0  0  0  0  0  0  0
   40.5110   31.8730   37.3530 C   0  0  0  0  0  0  0  0  0  0  0  0
   42.8660   32.7780   36.9300 O   0  0  0  0  0  0  0  0  0  0  0  0
   43.7420   33.4350   37.7980 C   0  0  0  0  0  0  0  0  0  0  0  0
   42.9380   34.1610   38.7090 O   0  0  0  0  0  0  0  0  0  0  0  0
   38.5650   31.3250   37.9670 H   0  0  0  0  0  0  0  0  0  0  0  0
   40.5840   34.2280   40.4170 H   0  0  0  0  0  0  0  0  0  0  0  0
   40.5010   31.2130   36.4870 H   0  0  0  0  0  0  0  0  0  0  0  0
   44.4990   32.7930   38.2770 H   0  0  0  0  0  0  0  0  0  0  0  0
   44.2960   34.2000   37.1950 H   0  0  0  0  0  0  0  0  0  0  0  0
   34.4730   29.2860   39.7950 O   0  0  0  0  0  0  0  0  0  0  0  0
   34.3390   28.8960   38.4510 C   0  0  0  0  0  0  0  0  0  0  0  0
   35.1050   29.6600   37.6140 F   0  0  0  0  0  0  0  0  0  0  0  0
   34.6520   27.5430   38.4260 F   0  0  0  0  0  0  0  0  0  0  0  0
   33.0010   29.0930   38.1020 F   0  0  0  0  0  0  0  0  0  0  0  0
  1  2  1  0  0  0  0
  2  3  2  0  0  0  0
  2  7  1  0  0  0  0
  3 10  1  0  0  0  0
  4  3  1  0  0  0  0
  5  4  2  0  0  0  0
  6  5  1  0  0  0  0
  6  1  2  0  0  0  0
  9  8  1  0  0  0  0
  9 16  1  0  0  0  0
 10  9  2  0  0  0  0
 11 10  1  0  0  0  0
 11 13  2  0  0  0  0
 12 11  1  0  0  0  0
 13 15  1  0  0  0  0
 14 13  1  0  0  0  0
 15 16  2  0  0  0  0
 17  1  1  0  0  0  0
 18 19  1  0  0  0  0
 19 20  2  0  0  0  0
 19 17  1  0  0  0  0
 20 28  1  0  0  0  0
 21 20  1  0  0  0  0
 22 21  2  0  0  0  0
 23 22  1  0  0  0  0
 23 18  2  0  0  0  0
 24 22  1  0  0  0  0
 24 25  1  0  0  0  0
 25 30  1  0  0  0  0
 25 26  1  0  0  0  0
 26 21  1  0  0  0  0
 27 18  1  0  0  0  0
 29 23  1  0  0  0  0
 31 25  1  0  0  0  0
 32  5  1  0  0  0  0
 33 32  1  0  0  0  0
 34 33  1  0  0  0  0
 35 33  1  0  0  0  0
 36 33  1  0  0  0  0
M  END
>  <minimizedAffinity>
-6.1606884

$$$$

 OpenBabel03242515413D

 36 39  0  0  0  0  0  0  0  0999 V2000
   36.5290   28.8870   41.5740 C   0  0  0  0  0  0  0  0  0  0  0  0
   35.8560   28.4970   40.4430 C   0  0  0  0  0  0  0  0  0  0  0  0
   35.7520   29.4120   39.4020 C   0  0  0  0  0  0  0  0  0  0  0  0
   36.3210   30.6300   39.5650 N   0  0  0  0  0  0  0  0  0  0  0  0
   36.9780   30.9830   40.6910 C   0  0  0  0  0  0  0  0  0  0  0  0
   37.0640   30.0980   41.6660 N   0  0  0  0  0  0  0  0  0  0  0  0
   35.4260   27.5360   40.3580 H   0  0  0  0  0  0  0  0  0  0  0  0
   36.9330   29.4770   36.7530 F   0  0  0  0  0  0  0  0  0  0  0  0
   35.6240   29.2150   36.8810 C   0  0  0  0  0  0  0  0  0  0  0  0
   35.0860   29.1880   38.1390 C   0  0  0  0  0  0  0  0  0  0  0  0
   33.7400   28.9060   38.1400 C   0  0  0  0  0  0  0  0  0  0  0  0
   33.1410   28.8440   39.0560 H   0  0  0  0  0  0  0  0  0  0  0  0
   33.0090   28.6760   36.9920 C   0  0  0  0  0  0  0  0  0  0  0  0
   31.9520   28.4570   37.0180 H   0  0  0  0  0  0  0  0  0  0  0  0
   33.6000   28.7160   35.7570 C   0  0  0  0  0  3  0  0  0  0  0  0
   34.9470   28.9930   35.7070 C   0  0  0  0  0  3  0  0  0  0  0  0
   36.6280   27.6520   42.8960 S   0  0  0  0  0  0  0  0  0  0  0  0
   38.1730   25.5250   42.3230 C   0  0  0  0  0  0  0  0  0  0  0  0
   38.1940   26.8130   42.8640 C   0  0  0  0  0  0  0  0  0  0  0  0
   39.3560   27.3600   43.3260 C   0  0  0  0  0  0  0  0  0  0  0  0
   40.5600   26.6760   43.2860 C   0  0  0  0  0  0  0  0  0  0  0  0
   40.5400   25.3760   42.7410 C   0  0  0  0  0  0  0  0  0  0  0  0
   39.3690   24.7970   42.2620 C   0  0  0  0  0  0  0  0  0  0  0  0
   41.8660   24.8910   42.8070 O   0  0  0  0  0  0  0  0  0  0  0  0
   42.5620   25.7410   43.6720 C   0  0  0  0  0  0  0  0  0  0  0  0
   41.8660   26.9730   43.6740 O   0  0  0  0  0  0  0  0  0  0  0  0
   37.2930   25.0250   41.9370 H   0  0  0  0  0  0  0  0  0  0  0  0
   39.3140   28.3690   43.7370 H   0  0  0  0  0  0  0  0  0  0  0  0
   39.3940   23.7900   41.8490 H   0  0  0  0  0  0  0  0  0  0  0  0
   42.7590   25.3330   44.6760 H   0  0  0  0  0  0  0  0  0  0  0  0
   43.5590   25.9480   43.2020 H   0  0  0  0  0  0  0  0  0  0  0  0
   37.5640   32.2030   40.8880 O   0  0  0  0  0  0  0  0  0  0  0  0
   38.9330   32.3760   40.6170 C   0  0  0  0  0  0  0  0  0  0  0  0
   39.3910   31.4800   39.6900 F   0  0  0  0  0  0  0  0  0  0  0  0
   39.0700   33.7040   40.2360 F   0  0  0  0  0  0  0  0  0  0  0  0
   39.6160   32.1380   41.8130 F   0  0  0  0  0  0  0  0  0  0  0  0
  1  6  1  0  0  0  0
  1 17  1  0  0  0  0
  2  1  2  0  0  0  0
  3  4  2  0  0  0  0
  3  2  1  0  0  0  0
  4  5  1  0  0  0  0
  5 32  1  0  0  0  0
  5  6  2  0  0  0  0
  7  2  1  0  0  0  0
  8  9  1  0  0  0  0
  9 10  1  0  0  0  0
 10 11  2  0  0  0  0
 10  3  1  0  0  0  0
 11 12  1  0  0  0  0
 13 14  1  0  0  0  0
 13 11  1  0  0  0  0
 15 13  2  0  0  0  0
 16 15  1  0  0  0  0
 16  9  2  0  0  0  0
 18 19  1  0  0  0  0
 19 17  1  0  0  0  0
 19 20  2  0  0  0  0
 20 28  1  0  0  0  0
 21 20  1  0  0  0  0
 21 26  1  0  0  0  0
 22 24  1  0  0  0  0
 22 21  2  0  0  0  0
 23 18  2  0  0  0  0
 23 22  1  0  0  0  0
 24 25  1  0  0  0  0
 25 26  1  0  0  0  0
 25 30  1  0  0  0  0
 27 18  1  0  0  0  0
 29 23  1  0  0  0  0
 31 25  1  0  0  0  0
 33 32  1  0  0  0  0
 33 36  1  0  0  0  0
 34 33  1  0  0  0  0
 35 33  1  0  0  0  0
M  END
>  <minimizedAffinity>
-6.15327072

$$$$

 OpenBabel03242515413D

 36 39  0  0  0  0  0  0  0  0999 V2000
   35.3890   28.9090   37.3540 C   0  0  0  0  0  0  0  0  0  0  0  0
   35.5210   27.8550   38.2240 C   0  0  0  0  0  0  0  0  0  0  0  0
   36.3860   28.0090   39.3010 C   0  0  0  0  0  0  0  0  0  0  0  0
   37.0440   29.1860   39.4280 N   0  0  0  0  0  0  0  0  0  0  0  0
   36.8910   30.2050   38.5540 C   0  0  0  0  0  0  0  0  0  0  0  0
   36.0650   30.0360   37.5390 N   0  0  0  0  0  0  0  0  0  0  0  0
   34.9890   26.9530   38.0870 H   0  0  0  0  0  0  0  0  0  0  0  0
   36.4940   28.4180   42.1710 F   0  0  0  0  0  0  0  0  0  0  0  0
   36.7140   27.1920   41.6750 C   0  0  0  0  0  0  0  0  0  0  0  0
   36.6580   27.0190   40.3190 C   0  0  0  0  0  0  0  0  0  0  0  0
   36.8970   25.7210   39.9340 C   0  0  0  0  0  0  0  0  0  0  0  0
   36.8940   25.3950   38.8870 H   0  0  0  0  0  0  0  0  0  0  0  0
   37.1660   24.7000   40.8230 C   0  0  0  0  0  0  0  0  0  0  0  0
   37.3510   23.6870   40.4970 H   0  0  0  0  0  0  0  0  0  0  0  0
   37.2100   24.9310   42.1720 C   0  0  0  0  0  3  0  0  0  0  0  0
   36.9760   26.2160   42.6050 C   0  0  0  0  0  3  0  0  0  0  0  0
   34.2490   28.6470   35.9700 S   0  0  0  0  0  0  0  0  0  0  0  0
   32.1150   30.0840   35.1840 C   0  0  0  0  0  0  0  0  0  0  0  0
   32.6850   29.4310   36.2800 C   0  0  0  0  0  0  0  0  0  0  0  0
   32.0560   29.4140   37.4900 C   0  0  0  0  0  0  0  0  0  0  0  0
   30.8350   30.0370   37.6960 C   0  0  0  0  0  0  0  0  0  0  0  0
   30.2590   30.6970   36.5910 C   0  0  0  0  0  0  0  0  0  0  0  0
   30.8810   30.7270   35.3470 C   0  0  0  0  0  0  0  0  0  0  0  0
   29.0380   31.2450   37.0420 O   0  0  0  0  0  0  0  0  0  0  0  0
   29.0680   31.2010   38.4390 C   0  0  0  0  0  0  0  0  0  0  0  0
   29.9840   30.1810   38.7910 O   0  0  0  0  0  0  0  0  0  0  0  0
   32.5520   30.1400   34.1950 H   0  0  0  0  0  0  0  0  0  0  0  0
   32.5460   28.8890   38.3100 H   0  0  0  0  0  0  0  0  0  0  0  0
   30.4030   31.2480   34.5180 H   0  0  0  0  0  0  0  0  0  0  0  0
   29.2540   32.1660   38.9370 H   0  0  0  0  0  0  0  0  0  0  0  0
   28.0610   30.8450   38.7820 H   0  0  0  0  0  0  0  0  0  0  0  0
   37.5390   31.4050   38.6520 O   0  0  0  0  0  0  0  0  0  0  0  0
   37.2880   32.2500   39.7470 C   0  0  0  0  0  0  0  0  0  0  0  0
   38.3470   32.2990   40.6120 F   0  0  0  0  0  0  0  0  0  0  0  0
   36.9500   33.4780   39.1970 F   0  0  0  0  0  0  0  0  0  0  0  0
   36.2000   31.7080   40.4370 F   0  0  0  0  0  0  0  0  0  0  0  0
  1  6  2  0  0  0  0
  1  2  1  0  0  0  0
  2  3  2  0  0  0  0
  3  4  1  0  0  0  0
  3 10  1  0  0  0  0
  5 32  1  0  0  0  0
  5  4  2  0  0  0  0
  6  5  1  0  0  0  0
  7  2  1  0  0  0  0
  9  8  1  0  0  0  0
  9 16  1  0  0  0  0
 10  9  2  0  0  0  0
 11 10  1  0  0  0  0
 11 13  2  0  0  0  0
 12 11  1  0  0  0  0
 13 15  1  0  0  0  0
 14 13  1  0  0  0  0
 15 16  2  0  0  0  0
 17 19  1  0  0  0  0
 17  1  1  0  0  0  0
 18 23  2  0  0  0  0
 18 19  1  0  0  0  0
 19 20  2  0  0  0  0
 20 21  1  0  0  0  0
 20 28  1  0  0  0  0
 21 26  1  0  0  0  0
 22 24  1  0  0  0  0
 22 21  2  0  0  0  0
 23 22  1  0  0  0  0
 24 25  1  0  0  0  0
 25 31  1  0  0  0  0
 25 26  1  0  0  0  0
 25 30  1  0  0  0  0
 27 18  1  0  0  0  0
 29 23  1  0  0  0  0
 32 33  1  0  0  0  0
 33 36  1  0  0  0  0
 33 34  1  0  0  0  0
 35 33  1  0  0  0  0
M  END
>  <minimizedAffinity>
-6.1276865

$$$$

 OpenBabel03242515413D

 36 39  0  0  0  0  0  0  0  0999 V2000
   37.2940   30.8310   40.5340 C   0  0  0  0  0  0  0  0  0  0  0  0
   36.5970   30.7000   39.3590 C   0  0  0  0  0  0  0  0  0  0  0  0
   35.7790   29.5860   39.2110 C   0  0  0  0  0  0  0  0  0  0  0  0
   35.7200   28.6980   40.2330 N   0  0  0  0  0  0  0  0  0  0  0  0
   36.4200   28.8560   41.3780 C   0  0  0  0  0  0  0  0  0  0  0  0
   37.1890   29.9220   41.4950 N   0  0  0  0  0  0  0  0  0  0  0  0
   36.6720   31.4170   38.5870 H   0  0  0  0  0  0  0  0  0  0  0  0
   32.9010   29.2380   39.1170 F   0  0  0  0  0  0  0  0  0  0  0  0
   33.6140   29.1060   37.9900 C   0  0  0  0  0  0  0  0  0  0  0  0
   34.9710   29.2740   38.0540 C   0  0  0  0  0  0  0  0  0  0  0  0
   35.5890   29.1170   36.8360 C   0  0  0  0  0  0  0  0  0  0  0  0
   36.6720   29.2140   36.6960 H   0  0  0  0  0  0  0  0  0  0  0  0
   34.9120   28.8190   35.6710 C   0  0  0  0  0  0  0  0  0  0  0  0
   35.4200   28.7010   34.7250 H   0  0  0  0  0  0  0  0  0  0  0  0
   33.5510   28.6620   35.6640 C   0  0  0  0  0  3  0  0  0  0  0  0
   32.8880   28.8110   36.8610 C   0  0  0  0  0  3  0  0  0  0  0  0
   38.3430   32.3030   40.6660 S   0  0  0  0  0  0  0  0  0  0  0  0
   40.3190   33.4340   39.2340 C   0  0  0  0  0  0  0  0  0  0  0  0
   39.7060   32.2140   39.5300 C   0  0  0  0  0  0  0  0  0  0  0  0
   40.1490   31.0520   38.9680 C   0  0  0  0  0  0  0  0  0  0  0  0
   41.2170   31.0200   38.0850 C   0  0  0  0  0  0  0  0  0  0  0  0
   41.8360   32.2500   37.7850 C   0  0  0  0  0  0  0  0  0  0  0  0
   41.4030   33.4480   38.3450 C   0  0  0  0  0  0  0  0  0  0  0  0
   42.8800   31.9640   36.8770 O   0  0  0  0  0  0  0  0  0  0  0  0
   42.6570   30.6680   36.4020 C   0  0  0  0  0  0  0  0  0  0  0  0
   41.8690   30.0110   37.3770 O   0  0  0  0  0  0  0  0  0  0  0  0
   40.0250   34.3940   39.6390 H   0  0  0  0  0  0  0  0  0  0  0  0
   39.6340   30.1290   39.2360 H   0  0  0  0  0  0  0  0  0  0  0  0
   41.9080   34.3780   38.0870 H   0  0  0  0  0  0  0  0  0  0  0  0
   42.2540   30.6050   35.3790 H   0  0  0  0  0  0  0  0  0  0  0  0
   43.6470   30.1410   36.3960 H   0  0  0  0  0  0  0  0  0  0  0  0
   36.3820   27.9810   42.4280 O   0  0  0  0  0  0  0  0  0  0  0  0
   37.3490   26.9660   42.5290 C   0  0  0  0  0  0  0  0  0  0  0  0
   38.0570   26.8120   41.3690 F   0  0  0  0  0  0  0  0  0  0  0  0
   38.1290   27.3070   43.6260 F   0  0  0  0  0  0  0  0  0  0  0  0
   36.6630   25.7730   42.7710 F   0  0  0  0  0  0  0  0  0  0  0  0
  1 17  1  0  0  0  0
  1  6  1  0  0  0  0
  2  1  2  0  0  0  0
  3  2  1  0  0  0  0
  3  4  2  0  0  0  0
  4  5  1  0  0  0  0
  5  6  2  0  0  0  0
  5 32  1  0  0  0  0
  7  2  1  0  0  0  0
  9 10  1  0  0  0  0
  9  8  1  0  0  0  0
 10  3  1  0  0  0  0
 11 10  2  0  0  0  0
 12 11  1  0  0  0  0
 13 11  1  0  0  0  0
 14 13  1  0  0  0  0
 15 13  2  0  0  0  0
 15 16  1  0  0  0  0
 16  9  2  0  0  0  0
 18 19  1  0  0  0  0
 18 27  1  0  0  0  0
 19 17  1  0  0  0  0
 20 28  1  0  0  0  0
 20 19  2  0  0  0  0
 21 20  1  0  0  0  0
 22 21  2  0  0  0  0
 22 23  1  0  0  0  0
 23 18  2  0  0  0  0
 24 22  1  0  0  0  0
 25 24  1  0  0  0  0
 25 26  1  0  0  0  0
 26 21  1  0  0  0  0
 29 23  1  0  0  0  0
 30 25  1  0  0  0  0
 31 25  1  0  0  0  0
 32 33  1  0  0  0  0
 33 36  1  0  0  0  0
 33 35  1  0  0  0  0
 34 33  1  0  0  0  0
M  END
>  <minimizedAffinity>
-6.08005476

$$$$

 OpenBabel03242515413D

 36 39  0  0  0  0  0  0  0  0999 V2000
   36.4770   28.4300   37.9980 C   0  0  0  0  0  0  0  0  0  0  0  0
   36.8830   29.7390   38.0760 C   0  0  0  0  0  0  0  0  0  0  0  0
   37.5560   30.1410   39.2240 C   0  0  0  0  0  0  0  0  0  0  0  0
   37.7700   29.2200   40.1930 N   0  0  0  0  0  0  0  0  0  0  0  0
   37.3570   27.9390   40.0860 C   0  0  0  0  0  0  0  0  0  0  0  0
   36.7210   27.5800   38.9870 N   0  0  0  0  0  0  0  0  0  0  0  0
   36.6940   30.4250   37.2960 H   0  0  0  0  0  0  0  0  0  0  0  0
   40.3020   30.9080   39.7590 F   0  0  0  0  0  0  0  0  0  0  0  0
   39.3490   31.8510   39.7450 C   0  0  0  0  0  0  0  0  0  0  0  0
   38.0600   31.4700   39.4900 C   0  0  0  0  0  0  0  0  0  0  0  0
   37.1770   32.5240   39.5000 C   0  0  0  0  0  0  0  0  0  0  0  0
   36.1020   32.4080   39.3170 H   0  0  0  0  0  0  0  0  0  0  0  0
   37.5520   33.8300   39.7430 C   0  0  0  0  0  0  0  0  0  0  0  0
   36.8400   34.6420   39.7450 H   0  0  0  0  0  0  0  0  0  0  0  0
   38.8590   34.1550   39.9920 C   0  0  0  0  0  3  0  0  0  0  0  0
   39.7800   33.1320   39.9920 C   0  0  0  0  0  3  0  0  0  0  0  0
   35.6030   27.9670   36.4800 S   0  0  0  0  0  0  0  0  0  0  0  0
   33.6420   29.2000   35.1120 C   0  0  0  0  0  0  0  0  0  0  0  0
   34.0220   28.7730   36.3870 C   0  0  0  0  0  0  0  0  0  0  0  0
   33.2110   28.9760   37.4650 C   0  0  0  0  0  0  0  0  0  0  0  0
   31.9830   29.6090   37.3550 C   0  0  0  0  0  0  0  0  0  0  0  0
   31.5980   30.0410   36.0700 C   0  0  0  0  0  0  0  0  0  0  0  0
   32.4070   29.8440   34.9550 C   0  0  0  0  0  0  0  0  0  0  0  0
   30.3300   30.6460   36.2120 O   0  0  0  0  0  0  0  0  0  0  0  0
   30.1400   30.8670   37.5790 C   0  0  0  0  0  0  0  0  0  0  0  0
   30.9740   29.9450   38.2560 O   0  0  0  0  0  0  0  0  0  0  0  0
   34.2300   29.0740   34.2110 H   0  0  0  0  0  0  0  0  0  0  0  0
   33.5580   28.6220   38.4360 H   0  0  0  0  0  0  0  0  0  0  0  0
   32.0740   30.1930   33.9780 H   0  0  0  0  0  0  0  0  0  0  0  0
   30.2610   31.9110   37.9090 H   0  0  0  0  0  0  0  0  0  0  0  0
   29.0870   30.5680   37.8210 H   0  0  0  0  0  0  0  0  0  0  0  0
   37.5580   26.9840   41.0440 O   0  0  0  0  0  0  0  0  0  0  0  0
   36.9860   27.1390   42.3190 C   0  0  0  0  0  0  0  0  0  0  0  0
   35.8930   27.9620   42.2950 F   0  0  0  0  0  0  0  0  0  0  0  0
   36.7140   25.8510   42.7610 F   0  0  0  0  0  0  0  0  0  0  0  0
   37.9540   27.7390   43.1290 F   0  0  0  0  0  0  0  0  0  0  0  0
  1  2  2  0  0  0  0
  1  6  1  0  0  0  0
  2  3  1  0  0  0  0
  3 10  1  0  0  0  0
  3  4  2  0  0  0  0
  5  4  1  0  0  0  0
  5 32  1  0  0  0  0
  6  5  2  0  0  0  0
  7  2  1  0  0  0  0
  9  8  1  0  0  0  0
  9 16  1  0  0  0  0
 10 11  1  0  0  0  0
 10  9  2  0  0  0  0
 11 13  2  0  0  0  0
 12 11  1  0  0  0  0
 13 14  1  0  0  0  0
 13 15  1  0  0  0  0
 15 16  2  0  0  0  0
 17  1  1  0  0  0  0
 18 19  1  0  0  0  0
 19 17  1  0  0  0  0
 19 20  2  0  0  0  0
 20 28  1  0  0  0  0
 21 20  1  0  0  0  0
 21 26  1  0  0  0  0
 22 24  1  0  0  0  0
 22 21  2  0  0  0  0
 23 18  2  0  0  0  0
 23 22  1  0  0  0  0
 24 25  1  0  0  0  0
 25 31  1  0  0  0  0
 25 30  1  0  0  0  0
 25 26  1  0  0  0  0
 27 18  1  0  0  0  0
 29 23  1  0  0  0  0
 32 33  1  0  0  0  0
 33 35  1  0  0  0  0
 33 36  1  0  0  0  0
 34 33  1  0  0  0  0
M  END
>  <minimizedAffinity>
-6.00436497

$$$$

 OpenBabel03242515413D

 36 39  0  0  0  0  0  0  0  0999 V2000
   36.2900   27.4560   35.9970 C   0  0  0  0  0  0  0  0  0  0  0  0
   36.4450   28.1850   37.1500 C   0  0  0  0  0  0  0  0  0  0  0  0
   36.6440   29.5560   37.0280 C   0  0  0  0  0  0  0  0  0  0  0  0
   36.6720   30.0870   35.7830 N   0  0  0  0  0  0  0  0  0  0  0  0
   36.5160   29.3420   34.6670 C   0  0  0  0  0  0  0  0  0  0  0  0
   36.3290   28.0430   34.8080 N   0  0  0  0  0  0  0  0  0  0  0  0
   36.4170   27.7290   38.1020 H   0  0  0  0  0  0  0  0  0  0  0  0
   35.6560   29.3000   39.7440 F   0  0  0  0  0  0  0  0  0  0  0  0
   36.3680   30.3840   39.4040 C   0  0  0  0  0  0  0  0  0  0  0  0
   36.8260   30.4870   38.1190 C   0  0  0  0  0  0  0  0  0  0  0  0
   37.5430   31.6380   37.8950 C   0  0  0  0  0  0  0  0  0  0  0  0
   37.9860   31.8900   36.9240 H   0  0  0  0  0  0  0  0  0  0  0  0
   37.7760   32.5910   38.8660 C   0  0  0  0  0  0  0  0  0  0  0  0
   38.3420   33.4880   38.6660 H   0  0  0  0  0  0  0  0  0  0  0  0
   37.2930   32.4370   40.1380 C   0  0  0  0  0  3  0  0  0  0  0  0
   36.5690   31.2980   40.4100 C   0  0  0  0  0  3  0  0  0  0  0  0
   36.0370   25.6760   36.2210 S   0  0  0  0  0  0  0  0  0  0  0  0
   37.9940   24.3400   37.4940 C   0  0  0  0  0  0  0  0  0  0  0  0
   36.8410   25.1020   37.6980 C   0  0  0  0  0  0  0  0  0  0  0  0
   36.3920   25.3690   38.9580 C   0  0  0  0  0  0  0  0  0  0  0  0
   37.0450   24.9040   40.0890 C   0  0  0  0  0  0  0  0  0  0  0  0
   38.2090   24.1350   39.8840 C   0  0  0  0  0  0  0  0  0  0  0  0
   38.6870   23.8490   38.6090 C   0  0  0  0  0  0  0  0  0  0  0  0
   38.6880   23.7820   41.1660 O   0  0  0  0  0  0  0  0  0  0  0  0
   37.6530   24.0440   42.0680 C   0  0  0  0  0  0  0  0  0  0  0  0
   36.8230   25.0160   41.4600 O   0  0  0  0  0  0  0  0  0  0  0  0
   38.4120   24.0860   36.5270 H   0  0  0  0  0  0  0  0  0  0  0  0
   35.4870   25.9690   39.0580 H   0  0  0  0  0  0  0  0  0  0  0  0
   39.5900   23.2510   38.4930 H   0  0  0  0  0  0  0  0  0  0  0  0
   37.1140   23.1570   42.4370 H   0  0  0  0  0  0  0  0  0  0  0  0
   38.1110   24.5430   42.9630 H   0  0  0  0  0  0  0  0  0  0  0  0
   36.5390   29.8460   33.3960 O   0  0  0  0  0  0  0  0  0  0  0  0
   36.2410   31.2020   33.1750 C   0  0  0  0  0  0  0  0  0  0  0  0
   37.0470   32.0310   33.9060 F   0  0  0  0  0  0  0  0  0  0  0  0
   36.3420   31.3830   31.8020 F   0  0  0  0  0  0  0  0  0  0  0  0
   34.9260   31.4040   33.5990 F   0  0  0  0  0  0  0  0  0  0  0  0
  1 17  1  0  0  0  0
  1  2  1  0  0  0  0
  2  7  1  0  0  0  0
  3  2  2  0  0  0  0
  3 10  1  0  0  0  0
  4  3  1  0  0  0  0
  5  6  1  0  0  0  0
  5  4  2  0  0  0  0
  6  1  2  0  0  0  0
  9  8  1  0  0  0  0
  9 16  1  0  0  0  0
 10  9  2  0  0  0  0
 11 10  1  0  0  0  0
 11 13  2  0  0  0  0
 12 11  1  0  0  0  0
 13 15  1  0  0  0  0
 14 13  1  0  0  0  0
 15 16  2  0  0  0  0
 17 19  1  0  0  0  0
 18 19  2  0  0  0  0
 18 23  1  0  0  0  0
 19 20  1  0  0  0  0
 20 28  1  0  0  0  0
 20 21  2  0  0  0  0
 21 26  1  0  0  0  0
 22 21  1  0  0  0  0
 22 24  1  0  0  0  0
 23 22  2  0  0  0  0
 24 25  1  0  0  0  0
 25 30  1  0  0  0  0
 25 31  1  0  0  0  0
 26 25  1  0  0  0  0
 27 18  1  0  0  0  0
 29 23  1  0  0  0  0
 32  5  1  0  0  0  0
 33 32  1  0  0  0  0
 33 36  1  0  0  0  0
 33 34  1  0  0  0  0
 35 33  1  0  0  0  0
M  END
>  <minimizedAffinity>
-5.8128705

$$$$

 OpenBabel03242515413D

 36 39  0  0  0  0  0  0  0  0999 V2000
   34.9890   28.4890   37.3060 C   0  0  0  0  0  0  0  0  0  0  0  0
   35.2680   27.4820   38.1960 C   0  0  0  0  0  0  0  0  0  0  0  0
   36.1940   27.7420   39.2000 C   0  0  0  0  0  0  0  0  0  0  0  0
   36.7630   28.9710   39.2400 N   0  0  0  0  0  0  0  0  0  0  0  0
   36.4660   29.9410   38.3480 C   0  0  0  0  0  0  0  0  0  0  0  0
   35.5850   29.6710   37.4040 N   0  0  0  0  0  0  0  0  0  0  0  0
   34.8010   26.5370   38.1280 H   0  0  0  0  0  0  0  0  0  0  0  0
   36.4120   28.2470   42.0480 F   0  0  0  0  0  0  0  0  0  0  0  0
   36.7260   27.0340   41.5720 C   0  0  0  0  0  0  0  0  0  0  0  0
   36.6160   26.8150   40.2260 C   0  0  0  0  0  0  0  0  0  0  0  0
   36.9630   25.5360   39.8610 C   0  0  0  0  0  0  0  0  0  0  0  0
   36.9370   25.1800   38.8240 H   0  0  0  0  0  0  0  0  0  0  0  0
   37.3790   24.5740   40.7580 C   0  0  0  0  0  0  0  0  0  0  0  0
   37.6460   23.5750   40.4470 H   0  0  0  0  0  0  0  0  0  0  0  0
   37.4710   24.8480   42.0970 C   0  0  0  0  0  3  0  0  0  0  0  0
   37.1330   26.1170   42.5100 C   0  0  0  0  0  3  0  0  0  0  0  0
   33.7780   28.0880   36.0200 S   0  0  0  0  0  0  0  0  0  0  0  0
   31.7950   29.5670   37.0780 C   0  0  0  0  0  0  0  0  0  0  0  0
   32.5300   29.3480   35.9100 C   0  0  0  0  0  0  0  0  0  0  0  0
   32.2810   30.0710   34.7800 C   0  0  0  0  0  0  0  0  0  0  0  0
   31.2980   31.0470   34.7300 C   0  0  0  0  0  0  0  0  0  0  0  0
   30.5560   31.2690   35.9080 C   0  0  0  0  0  0  0  0  0  0  0  0
   30.7920   30.5450   37.0730 C   0  0  0  0  0  0  0  0  0  0  0  0
   29.6300   32.2950   35.6130 O   0  0  0  0  0  0  0  0  0  0  0  0
   29.6020   32.4240   34.2220 C   0  0  0  0  0  0  0  0  0  0  0  0
   30.8350   31.9170   33.7440 O   0  0  0  0  0  0  0  0  0  0  0  0
   31.9350   29.0350   38.0110 H   0  0  0  0  0  0  0  0  0  0  0  0
   32.8850   29.8590   33.8980 H   0  0  0  0  0  0  0  0  0  0  0  0
   30.1960   30.7460   37.9630 H   0  0  0  0  0  0  0  0  0  0  0  0
   28.7160   31.9940   33.7270 H   0  0  0  0  0  0  0  0  0  0  0  0
   29.6070   33.5200   33.9890 H   0  0  0  0  0  0  0  0  0  0  0  0
   37.0210   31.1910   38.3600 O   0  0  0  0  0  0  0  0  0  0  0  0
   38.1480   31.4660   37.5650 C   0  0  0  0  0  0  0  0  0  0  0  0
   38.9010   30.3470   37.3370 F   0  0  0  0  0  0  0  0  0  0  0  0
   37.6510   32.0580   36.4120 F   0  0  0  0  0  0  0  0  0  0  0  0
   38.9370   32.3710   38.2780 F   0  0  0  0  0  0  0  0  0  0  0  0
  1  6  2  0  0  0  0
  1  2  1  0  0  0  0
  2  3  2  0  0  0  0
  3  4  1  0  0  0  0
  3 10  1  0  0  0  0
  5 32  1  0  0  0  0
  5  4  2  0  0  0  0
  6  5  1  0  0  0  0
  7  2  1  0  0  0  0
  9  8  1  0  0  0  0
  9 16  1  0  0  0  0
 10  9  2  0  0  0  0
 11 10  1  0  0  0  0
 11 13  2  0  0  0  0
 12 11  1  0  0  0  0
 13 15  1  0  0  0  0
 14 13  1  0  0  0  0
 15 16  2  0  0  0  0
 17  1  1  0  0  0  0
 18 27  1  0  0  0  0
 19 17  1  0  0  0  0
 19 18  2  0  0  0  0
 20 19  1  0  0  0  0
 21 20  2  0  0  0  0
 21 22  1  0  0  0  0
 22 23  2  0  0  0  0
 23 18  1  0  0  0  0
 23 29  1  0  0  0  0
 24 22  1  0  0  0  0
 25 24  1  0  0  0  0
 26 25  1  0  0  0  0
 26 21  1  0  0  0  0
 28 20  1  0  0  0  0
 30 25  1  0  0  0  0
 31 25  1  0  0  0  0
 33 36  1  0  0  0  0
 33 32  1  0  0  0  0
 34 33  1  0  0  0  0
 35 33  1  0  0  0  0
M  END
>  <minimizedAffinity>
-5.81142282

$$$$

 OpenBabel03242515413D

 36 39  0  0  0  0  0  0  0  0999 V2000
   40.3650   30.2600   41.0680 C   0  0  0  0  0  0  0  0  0  0  0  0
   41.2490   29.9170   40.0750 C   0  0  0  0  0  0  0  0  0  0  0  0
   41.2830   30.7110   38.9350 C   0  0  0  0  0  0  0  0  0  0  0  0
   40.4440   31.7730   38.8730 N   0  0  0  0  0  0  0  0  0  0  0  0
   39.5860   32.0840   39.8680 C   0  0  0  0  0  0  0  0  0  0  0  0
   39.5710   31.3160   40.9410 N   0  0  0  0  0  0  0  0  0  0  0  0
   41.8850   29.0790   40.1650 H   0  0  0  0  0  0  0  0  0  0  0  0
   40.9450   28.7790   36.7990 F   0  0  0  0  0  0  0  0  0  0  0  0
   41.9980   29.6080   36.7720 C   0  0  0  0  0  0  0  0  0  0  0  0
   42.1400   30.5130   37.7880 C   0  0  0  0  0  0  0  0  0  0  0  0
   43.2540   31.3070   37.6470 C   0  0  0  0  0  0  0  0  0  0  0  0
   43.5290   32.0870   38.3660 H   0  0  0  0  0  0  0  0  0  0  0  0
   44.1360   31.2000   36.5920 C   0  0  0  0  0  0  0  0  0  0  0  0
   45.0050   31.8360   36.5030 H   0  0  0  0  0  0  0  0  0  0  0  0
   43.9450   30.2750   35.6000 C   0  0  0  0  0  3  0  0  0  0  0  0
   42.8410   29.4580   35.6980 C   0  0  0  0  0  3  0  0  0  0  0  0
   40.3670   29.1850   42.5270 S   0  0  0  0  0  0  0  0  0  0  0  0
   38.0370   27.9090   42.9520 C   0  0  0  0  0  0  0  0  0  0  0  0
   39.2690   27.8070   42.3000 C   0  0  0  0  0  0  0  0  0  0  0  0
   39.5750   26.7100   41.5480 C   0  0  0  0  0  0  0  0  0  0  0  0
   38.6940   25.6520   41.3930 C   0  0  0  0  0  0  0  0  0  0  0  0
   37.4510   25.7530   42.0500 C   0  0  0  0  0  0  0  0  0  0  0  0
   37.1150   26.8610   42.8220 C   0  0  0  0  0  0  0  0  0  0  0  0
   36.7380   24.5720   41.7460 O   0  0  0  0  0  0  0  0  0  0  0  0
   37.6630   23.6680   41.2170 C   0  0  0  0  0  0  0  0  0  0  0  0
   38.7350   24.4400   40.7060 O   0  0  0  0  0  0  0  0  0  0  0  0
   37.7230   28.7450   43.5640 H   0  0  0  0  0  0  0  0  0  0  0  0
   40.5510   26.6840   41.0620 H   0  0  0  0  0  0  0  0  0  0  0  0
   36.1440   26.9010   43.3150 H   0  0  0  0  0  0  0  0  0  0  0  0
   37.9740   22.8600   41.8980 H   0  0  0  0  0  0  0  0  0  0  0  0
   37.1820   23.1810   40.3290 H   0  0  0  0  0  0  0  0  0  0  0  0
   38.7270   33.1490   39.8380 O   0  0  0  0  0  0  0  0  0  0  0  0
   37.4040   32.9700   39.4010 C   0  0  0  0  0  0  0  0  0  0  0  0
   36.7710   34.1610   39.1750 F   0  0  0  0  0  0  0  0  0  0  0  0
   37.4920   32.1550   38.2790 F   0  0  0  0  0  0  0  0  0  0  0  0
   36.7210   32.3130   40.4280 F   0  0  0  0  0  0  0  0  0  0  0  0
  1 17  1  0  0  0  0
  2  7  1  0  0  0  0
  2  1  2  0  0  0  0
  3  2  1  0  0  0  0
  4  3  2  0  0  0  0
  4  5  1  0  0  0  0
  5  6  2  0  0  0  0
  6  1  1  0  0  0  0
  9  8  1  0  0  0  0
  9 10  1  0  0  0  0
 10  3  1  0  0  0  0
 11 10  2  0  0  0  0
 11 12  1  0  0  0  0
 13 11  1  0  0  0  0
 14 13  1  0  0  0  0
 15 16  1  0  0  0  0
 15 13  2  0  0  0  0
 16  9  2  0  0  0  0
 18 27  1  0  0  0  0
 19 17  1  0  0  0  0
 19 18  2  0  0  0  0
 20 19  1  0  0  0  0
 21 20  2  0  0  0  0
 21 22  1  0  0  0  0
 22 23  2  0  0  0  0
 23 18  1  0  0  0  0
 23 29  1  0  0  0  0
 24 22  1  0  0  0  0
 25 24  1  0  0  0  0
 25 30  1  0  0  0  0
 26 25  1  0  0  0  0
 26 21  1  0  0  0  0
 28 20  1  0  0  0  0
 31 25  1  0  0  0  0
 32  5  1  0  0  0  0
 33 32  1  0  0  0  0
 33 36  1  0  0  0  0
 34 33  1  0  0  0  0
 35 33  1  0  0  0  0
M  END
>  <minimizedAffinity>
-5.79979467

$$$$
