
 OpenBabel03252507413D

 25 26  0  0  0  0  0  0  0  0999 V2000
   46.8720   34.1920   42.4280 C   0  0  0  0  0  0  0  0  0  0  0  0
   47.2290   33.1430   42.5400 H   0  0  0  0  0  0  0  0  0  0  0  0
   47.7620   34.8910   42.4310 H   0  0  0  0  0  0  0  0  0  0  0  0
   46.0620   34.5500   43.6100 C   0  0  0  0  0  0  0  0  0  0  0  0
   46.1400   33.6820   44.6960 C   0  0  0  0  0  0  0  0  0  0  0  0
   45.3850   33.9880   45.8390 C   0  0  0  0  0  0  0  0  0  0  0  0
   44.6130   35.1160   45.8370 N   0  0  0  0  0  0  0  0  0  0  0  0
   44.5710   35.9170   44.7690 C   0  0  0  0  0  0  0  0  0  0  0  0
   45.2720   35.6600   43.6670 N   0  0  0  0  0  0  0  0  0  0  0  0
   45.4330   33.3210   46.7030 H   0  0  0  0  0  0  0  0  0  0  0  0
   43.9510   36.8150   44.7730 H   0  0  0  0  0  0  0  0  0  0  0  0
   47.1640   32.2340   44.6410 S   0  0  0  0  0  0  0  0  0  0  0  0
   46.4660   31.0500   44.8250 H   0  0  0  0  0  0  0  0  0  0  0  0
   46.1730   34.4640   41.1320 C   0  0  0  0  0  0  0  0  0  0  0  0
   45.0700   34.2200   41.2000 H   0  0  0  0  0  0  0  0  0  0  0  0
   46.1690   35.5700   41.0070 H   0  0  0  0  0  0  0  0  0  0  0  0
   48.5550   35.3890   39.8470 F   0  0  0  0  0  0  0  0  0  0  0  0
   47.9550   34.3130   39.3330 C   0  0  0  0  0  0  0  0  0  0  0  0
   46.8020   33.8650   39.9560 C   0  0  0  0  0  0  0  0  0  0  0  0
   46.2220   32.7340   39.3640 C   0  0  0  0  0  0  0  0  0  0  0  0
   45.3220   32.3560   39.8220 H   0  0  0  0  0  0  0  0  0  0  0  0
   46.7480   32.1090   38.2540 C   0  0  0  0  0  0  0  0  0  0  0  0
   46.2370   31.2350   37.8530 H   0  0  0  0  0  0  0  0  0  0  0  0
   47.8980   32.6230   37.6980 C   0  0  0  0  0  0  0  0  0  0  0  0
   48.5330   33.7360   38.2210 C   0  0  0  0  0  0  0  0  0  0  0  0
  1  3  1  0  0  0  0
  1  2  1  0  0  0  0
  1  4  1  0  0  0  0
  4  9  2  0  0  0  0
  4  5  1  0  0  0  0
  5  6  2  0  0  0  0
  6 10  1  0  0  0  0
  7  6  1  0  0  0  0
  8 11  1  0  0  0  0
  8  7  2  0  0  0  0
  9  8  1  0  0  0  0
 12  5  1  0  0  0  0
 12 13  1  0  0  0  0
 14 15  1  0  0  0  0
 14  1  1  0  0  0  0
 16 14  1  0  0  0  0
 18 17  1  0  0  0  0
 18 19  1  0  0  0  0
 19 14  1  0  0  0  0
 20 21  1  0  0  0  0
 20 19  2  0  0  0  0
 22 20  1  0  0  0  0
 23 22  1  0  0  0  0
 24 25  1  0  0  0  0
 24 22  2  0  0  0  0
 25 18  2  0  0  0  0
M  END
>  <minimizedAffinity>
-4.56581974

>  <minimizedRMSD>
3.08230758

$$$$
