
 OpenBabel03252507223D

 47 50  0  0  1  0  0  0  0  0999 V2000
   46.1630   32.8710   42.7870 C   0  0  0  0  0  0  0  0  0  0  0  0
   47.4230   32.6770   42.8000 O   0  0  0  0  0  0  0  0  0  0  0  0
   45.2870   32.1970   41.8950 N   0  0  0  0  0  0  0  0  0  0  0  0
   43.9820   31.5650   42.1460 C   0  0  0  0  0  0  0  0  0  0  0  0
   42.9710   32.1080   41.1380 C   0  0  0  0  0  0  0  0  0  0  0  0
   43.3500   31.6690   39.7600 C   0  0  0  0  0  0  0  0  0  0  0  0
   44.7910   31.1850   39.7440 C   0  0  0  0  0  0  0  0  0  0  0  0
   45.6910   32.0780   40.5210 C   0  0  2  0  0  0  0  0  0  0  0  0
   44.1250   30.4860   42.0880 H   0  0  0  0  0  0  0  0  0  0  0  0
   43.6380   31.8900   43.1670 H   0  0  0  0  0  0  0  0  0  0  0  0
   41.9510   31.8370   41.4320 H   0  0  0  0  0  0  0  0  0  0  0  0
   43.1180   33.2280   41.1780 H   0  0  0  0  0  0  0  0  0  0  0  0
   42.6910   30.8150   39.4420 H   0  0  0  0  0  0  0  0  0  0  0  0
   43.2140   32.4660   39.0000 H   0  0  0  0  0  0  0  0  0  0  0  0
   45.1050   31.2920   38.6630 H   0  0  0  0  0  0  0  0  0  0  0  0
   44.8840   30.1200   39.9940 H   0  0  0  0  0  0  0  0  0  0  0  0
   45.6150   33.1050   40.0490 H   0  0  0  0  0  0  0  0  0  0  0  0
   45.1400   35.0420   43.2180 C   0  0  0  0  0  0  0  0  0  0  0  0
   45.6110   33.8190   43.7250 C   0  0  0  0  0  0  0  0  0  0  0  0
   45.5450   33.5420   45.0840 C   0  0  0  0  0  0  0  0  0  0  0  0
   45.0070   34.5040   45.8780 N   0  0  0  0  0  0  0  0  0  0  0  0
   44.5480   35.6850   45.4130 C   0  0  0  0  0  0  0  0  0  0  0  0
   44.6210   35.9400   44.0800 N   0  0  0  0  0  0  0  0  0  0  0  0
   45.1900   35.2620   42.1600 H   0  0  0  0  0  0  0  0  0  0  0  0
   44.1240   36.4360   46.0650 H   0  0  0  0  0  0  0  0  0  0  0  0
   46.0400   32.2830   45.5670 C   0  0  0  0  0  0  0  0  0  0  0  0
   45.3770   31.1320   45.3060 C   0  0  0  0  0  0  0  0  0  0  0  0
   45.8790   29.9400   45.7850 C   0  0  0  0  0  0  0  0  0  0  0  0
   47.0500   29.8620   46.5330 C   0  0  0  0  0  0  0  0  0  0  0  0
   47.6880   31.0660   46.7700 C   0  0  0  0  0  0  0  0  0  0  0  0
   47.1810   32.2230   46.2930 N   0  0  0  0  0  0  0  0  0  0  0  0
   44.4660   31.0420   44.7490 H   0  0  0  0  0  0  0  0  0  0  0  0
   45.3830   28.9960   45.6030 H   0  0  0  0  0  0  0  0  0  0  0  0
   47.4530   28.9530   46.9100 H   0  0  0  0  0  0  0  0  0  0  0  0
   48.5970   31.1610   47.3290 H   0  0  0  0  0  0  0  0  0  0  0  0
   47.1230   31.6700   40.3310 C   0  0  0  0  0  0  0  0  0  0  0  0
   47.2620   30.6310   40.0380 H   0  0  0  0  0  0  0  0  0  0  0  0
   47.7900   31.9630   41.1990 H   0  0  0  0  0  0  0  0  0  0  0  0
   47.3760   30.9020   37.6130 F   0  0  0  0  0  0  0  0  0  0  0  0
   47.7460   32.1860   37.9340 C   0  0  0  0  0  0  0  0  0  0  0  0
   47.6350   32.5920   39.2460 C   0  0  0  0  0  0  0  0  0  0  0  0
   48.0050   33.8620   39.5450 C   0  0  0  0  0  0  0  0  0  0  0  0
   47.9100   34.1610   40.5800 H   0  0  0  0  0  0  0  0  0  0  0  0
   48.4890   34.8020   38.6390 C   0  0  0  0  0  0  0  0  0  0  0  0
   48.7820   35.8120   38.8850 H   0  0  0  0  0  0  0  0  0  0  0  0
   48.5660   34.3000   37.3410 C   0  0  0  0  0  3  0  0  0  0  0  0
   48.2130   33.0280   36.9480 C   0  0  0  0  0  3  0  0  0  0  0  0
  1  2  2  0  0  0  0
  1 19  1  0  0  0  0
  3  4  1  0  0  0  0
  3  1  1  0  0  0  0
  4 10  1  0  0  0  0
  5 12  1  0  0  0  0
  5 11  1  0  0  0  0
  5  4  1  0  0  0  0
  6  5  1  0  0  0  0
  7  6  1  0  0  0  0
  7 16  1  0  0  0  0
  7  8  1  0  0  0  0
  8 17  1  6  0  0  0
  8  3  1  0  0  0  0
  9  4  1  0  0  0  0
 13  6  1  0  0  0  0
 14  6  1  0  0  0  0
 15  7  1  0  0  0  0
 18 19  2  0  0  0  0
 18 23  1  0  0  0  0
 19 20  1  0  0  0  0
 20 26  1  0  0  0  0
 20 21  2  0  0  0  0
 22 21  1  0  0  0  0
 22 25  1  0  0  0  0
 23 22  2  0  0  0  0
 24 18  1  0  0  0  0
 26 31  1  0  0  0  0
 27 26  2  0  0  0  0
 27 28  1  0  0  0  0
 28 29  2  0  0  0  0
 29 30  1  0  0  0  0
 29 34  1  0  0  0  0
 30 35  1  0  0  0  0
 31 30  2  0  0  0  0
 32 27  1  0  0  0  0
 33 28  1  0  0  0  0
 36  8  1  0  0  0  0
 36 38  1  0  0  0  0
 37 36  1  0  0  0  0
 39 40  1  0  0  0  0
 40 41  1  0  0  0  0
 41 42  2  0  0  0  0
 41 36  1  0  0  0  0
 42 43  1  0  0  0  0
 44 45  1  0  0  0  0
 44 42  1  0  0  0  0
 46 44  2  0  0  0  0
 47 46  1  0  0  0  0
 47 40  2  0  0  0  0
M  END
>  <minimizedAffinity>
-4.65766287

>  <minimizedRMSD>
2.3841958

$$$$
