
 OpenBabel03242518033D

 37 39  0  0  0  0  0  0  0  0999 V2000
   33.5510   28.7780   36.5940 C   0  0  0  0  0  0  0  0  0  0  0  0
   33.6570   27.8640   35.9850 H   0  0  0  0  0  0  0  0  0  0  0  0
   33.9820   29.5970   35.9510 H   0  0  0  0  0  0  0  0  0  0  0  0
   35.6490   28.2440   37.8160 C   0  0  0  0  0  0  0  0  0  0  0  0
   34.3340   28.7420   37.8160 C   0  0  0  0  0  0  0  0  0  0  0  0
   33.8420   29.1870   39.0410 C   0  0  0  0  0  0  0  0  0  0  0  0
   34.6220   29.1240   40.1390 N   0  0  0  0  0  0  0  0  0  0  0  0
   35.8740   28.6450   40.1120 C   0  0  0  0  0  0  0  0  0  0  0  0
   36.3700   28.2140   38.9620 N   0  0  0  0  0  0  0  0  0  0  0  0
   36.1230   27.8730   36.9160 H   0  0  0  0  0  0  0  0  0  0  0  0
   32.8430   29.5800   39.1090 H   0  0  0  0  0  0  0  0  0  0  0  0
   37.9020   30.5380   40.7090 F   0  0  0  0  0  0  0  0  0  0  0  0
   37.5970   29.5790   41.6090 C   0  0  0  0  0  0  0  0  0  0  0  0
   36.6170   28.6300   41.3710 C   0  0  0  0  0  0  0  0  0  0  0  0
   36.3180   27.6560   42.3030 C   0  0  0  0  0  0  0  0  0  0  0  0
   35.5440   26.8970   42.1310 H   0  0  0  0  0  0  0  0  0  0  0  0
   36.9940   27.5900   43.5260 C   0  0  0  0  0  0  0  0  0  0  0  0
   36.8080   26.8560   44.2980 H   0  0  0  0  0  0  0  0  0  0  0  0
   37.9470   28.5590   43.6910 C   0  0  0  0  0  3  0  0  0  0  0  0
   38.3050   29.5610   42.8150 C   0  0  0  0  0  3  0  0  0  0  0  0
   32.1190   29.0910   36.9730 C   0  0  0  0  0  0  0  0  0  0  0  0
   32.1020   29.2240   38.0750 H   0  0  0  0  0  0  0  0  0  0  0  0
   31.4400   28.2040   36.8010 H   0  0  0  0  0  0  0  0  0  0  0  0
   30.4890   30.9230   36.8150 C   0  0  0  0  0  0  0  0  0  0  0  0
   31.5180   30.2040   36.2390 C   0  0  0  0  0  0  0  0  0  0  0  0
   32.0180   30.4880   34.9980 C   0  0  0  0  0  0  0  0  0  0  0  0
   31.4740   31.5360   34.2850 C   0  0  0  0  0  0  0  0  0  0  0  0
   30.4540   32.2980   34.7790 C   0  0  0  0  0  0  0  0  0  0  0  0
   29.9880   31.9590   36.0500 C   0  0  0  0  0  0  0  0  0  0  0  0
   32.8070   29.9930   34.4620 H   0  0  0  0  0  0  0  0  0  0  0  0
   31.8080   31.8350   33.2910 H   0  0  0  0  0  0  0  0  0  0  0  0
   29.9800   33.1340   34.2780 H   0  0  0  0  0  0  0  0  0  0  0  0
   29.1730   32.5550   36.4670 H   0  0  0  0  0  0  0  0  0  0  0  0
   29.8130   30.5940   38.3950 S   0  0  0  0  0  0  0  0  0  0  0  0
   28.9500   29.3500   38.4000 O   0  0  0  0  0  0  0  0  0  0  0  0
   28.8650   31.7070   38.7590 O   0  0  0  0  0  0  0  0  0  0  0  0
   30.7410   30.5510   39.3850 H   0  0  0  0  0  0  0  0  0  0  0  0
  1 21  1  0  0  0  0
  1  5  1  0  0  0  0
  2  1  1  0  0  0  0
  3  1  1  0  0  0  0
  4  9  1  0  0  0  0
  5  4  2  0  0  0  0
  5  6  1  0  0  0  0
  6 11  1  0  0  0  0
  6  7  2  0  0  0  0
  8  7  1  0  0  0  0
  8 14  1  0  0  0  0
  9  8  2  0  0  0  0
 10  4  1  0  0  0  0
 12 13  1  0  0  0  0
 13 20  1  0  0  0  0
 14 13  2  0  0  0  0
 14 15  1  0  0  0  0
 15 17  2  0  0  0  0
 16 15  1  0  0  0  0
 17 19  1  0  0  0  0
 17 18  1  0  0  0  0
 20 19  2  0  0  0  0
 21 22  1  0  0  0  0
 23 21  1  0  0  0  0
 24 34  1  0  0  0  0
 25 24  1  0  0  0  0
 25 21  1  0  0  0  0
 26 25  2  0  0  0  0
 27 28  2  0  0  0  0
 27 26  1  0  0  0  0
 28 29  1  0  0  0  0
 29 33  1  0  0  0  0
 29 24  2  0  0  0  0
 30 26  1  0  0  0  0
 31 27  1  0  0  0  0
 32 28  1  0  0  0  0
 34 35  2  0  0  0  0
 34 36  2  0  0  0  0
 34 37  1  0  0  0  0
M  END
>  <minimizedAffinity>
-6.11976814

$$$$

 OpenBabel03242518033D

 37 39  0  0  0  0  0  0  0  0999 V2000
   36.6420   27.8990   42.8660 C   0  0  0  0  0  0  0  0  0  0  0  0
   35.9060   27.4500   42.1770 H   0  0  0  0  0  0  0  0  0  0  0  0
   36.0230   28.2940   43.7210 H   0  0  0  0  0  0  0  0  0  0  0  0
   38.5390   29.5060   42.8630 C   0  0  0  0  0  0  0  0  0  0  0  0
   37.3450   29.0310   42.2910 C   0  0  0  0  0  0  0  0  0  0  0  0
   36.8900   29.7070   41.1610 C   0  0  0  0  0  0  0  0  0  0  0  0
   37.5900   30.7530   40.6790 N   0  0  0  0  0  0  0  0  0  0  0  0
   38.7270   31.1860   41.2420 C   0  0  0  0  0  0  0  0  0  0  0  0
   39.1850   30.5640   42.3190 N   0  0  0  0  0  0  0  0  0  0  0  0
   38.9760   29.0500   43.7420 H   0  0  0  0  0  0  0  0  0  0  0  0
   35.9820   29.3940   40.6760 H   0  0  0  0  0  0  0  0  0  0  0  0
   41.0810   30.9210   39.6800 F   0  0  0  0  0  0  0  0  0  0  0  0
   40.5400   32.1430   39.8720 C   0  0  0  0  0  0  0  0  0  0  0  0
   39.3930   32.3310   40.6240 C   0  0  0  0  0  0  0  0  0  0  0  0
   38.8520   33.5890   40.8090 C   0  0  0  0  0  0  0  0  0  0  0  0
   37.9440   33.7560   41.4030 H   0  0  0  0  0  0  0  0  0  0  0  0
   39.4440   34.7230   40.2430 C   0  0  0  0  0  0  0  0  0  0  0  0
   39.0720   35.7340   40.3490 H   0  0  0  0  0  0  0  0  0  0  0  0
   40.5720   34.4610   39.5140 C   0  0  0  0  0  3  0  0  0  0  0  0
   41.1730   33.2420   39.2810 C   0  0  0  0  0  3  0  0  0  0  0  0
   37.6810   26.9160   43.3660 C   0  0  0  0  0  0  0  0  0  0  0  0
   37.4200   26.6860   44.4200 H   0  0  0  0  0  0  0  0  0  0  0  0
   38.7020   27.3950   43.4420 H   0  0  0  0  0  0  0  0  0  0  0  0
   39.1190   25.1990   42.3570 C   0  0  0  0  0  0  0  0  0  0  0  0
   37.8560   25.7290   42.5310 C   0  0  0  0  0  0  0  0  0  0  0  0
   36.7380   25.1860   41.9590 C   0  0  0  0  0  0  0  0  0  0  0  0
   36.8730   24.0620   41.1720 C   0  0  0  0  0  0  0  0  0  0  0  0
   38.0850   23.4740   40.9450 C   0  0  0  0  0  0  0  0  0  0  0  0
   39.1870   24.0740   41.5580 C   0  0  0  0  0  0  0  0  0  0  0  0
   35.7190   25.5200   42.0270 H   0  0  0  0  0  0  0  0  0  0  0  0
   36.0400   23.5610   40.6760 H   0  0  0  0  0  0  0  0  0  0  0  0
   38.2650   22.5930   40.3420 H   0  0  0  0  0  0  0  0  0  0  0  0
   40.1660   23.6220   41.3920 H   0  0  0  0  0  0  0  0  0  0  0  0
   40.5770   25.8610   43.0630 S   0  0  0  0  0  0  0  0  0  0  0  0
   41.0410   27.1130   42.3490 O   0  0  0  0  0  0  0  0  0  0  0  0
   41.7020   24.8790   42.8630 O   0  0  0  0  0  0  0  0  0  0  0  0
   40.4890   26.0640   44.4020 H   0  0  0  0  0  0  0  0  0  0  0  0
  1 21  1  0  0  0  0
  1  3  1  0  0  0  0
  2  1  1  0  0  0  0
  4 10  1  0  0  0  0
  5  4  2  0  0  0  0
  5  1  1  0  0  0  0
  6  5  1  0  0  0  0
  7  6  2  0  0  0  0
  7  8  1  0  0  0  0
  8  9  2  0  0  0  0
  9  4  1  0  0  0  0
 11  6  1  0  0  0  0
 12 13  1  0  0  0  0
 13 14  1  0  0  0  0
 14 15  2  0  0  0  0
 14  8  1  0  0  0  0
 15 16  1  0  0  0  0
 17 18  1  0  0  0  0
 17 15  1  0  0  0  0
 19 17  2  0  0  0  0
 20 19  1  0  0  0  0
 20 13  2  0  0  0  0
 21 23  1  0  0  0  0
 21 22  1  0  0  0  0
 24 25  1  0  0  0  0
 24 34  1  0  0  0  0
 25 21  1  0  0  0  0
 26 30  1  0  0  0  0
 26 25  2  0  0  0  0
 27 26  1  0  0  0  0
 28 27  2  0  0  0  0
 28 29  1  0  0  0  0
 29 24  2  0  0  0  0
 31 27  1  0  0  0  0
 32 28  1  0  0  0  0
 33 29  1  0  0  0  0
 34 37  1  0  0  0  0
 35 34  2  0  0  0  0
 36 34  2  0  0  0  0
M  END
>  <minimizedAffinity>
-5.68241549

$$$$

 OpenBabel03242518033D

 37 39  0  0  0  0  0  0  0  0999 V2000
   35.3190   26.1030   37.5940 C   0  0  0  0  0  0  0  0  0  0  0  0
   35.6930   25.6450   36.6620 H   0  0  0  0  0  0  0  0  0  0  0  0
   34.7940   25.2610   38.1300 H   0  0  0  0  0  0  0  0  0  0  0  0
   33.2760   26.9450   36.4550 C   0  0  0  0  0  0  0  0  0  0  0  0
   34.3310   27.1410   37.3640 C   0  0  0  0  0  0  0  0  0  0  0  0
   34.3660   28.3730   38.0130 C   0  0  0  0  0  0  0  0  0  0  0  0
   33.4180   29.2950   37.7520 N   0  0  0  0  0  0  0  0  0  0  0  0
   32.4210   29.0830   36.8810 C   0  0  0  0  0  0  0  0  0  0  0  0
   32.3620   27.9210   36.2470 N   0  0  0  0  0  0  0  0  0  0  0  0
   33.1610   26.0230   35.9000 H   0  0  0  0  0  0  0  0  0  0  0  0
   35.1470   28.5870   38.7210 H   0  0  0  0  0  0  0  0  0  0  0  0
   30.6460   29.9310   38.9260 F   0  0  0  0  0  0  0  0  0  0  0  0
   30.6130   30.5350   37.7190 C   0  0  0  0  0  0  0  0  0  0  0  0
   31.4550   30.1620   36.6850 C   0  0  0  0  0  0  0  0  0  0  0  0
   31.4080   30.7920   35.4570 C   0  0  0  0  0  0  0  0  0  0  0  0
   32.0680   30.5100   34.6270 H   0  0  0  0  0  0  0  0  0  0  0  0
   30.5050   31.8320   35.2090 C   0  0  0  0  0  0  0  0  0  0  0  0
   30.4170   32.3660   34.2720 H   0  0  0  0  0  0  0  0  0  0  0  0
   29.7060   32.1450   36.2750 C   0  0  0  0  0  3  0  0  0  0  0  0
   29.6900   31.5690   37.5270 C   0  0  0  0  0  3  0  0  0  0  0  0
   36.4130   26.6900   38.4610 C   0  0  0  0  0  0  0  0  0  0  0  0
   36.1890   27.7720   38.5660 H   0  0  0  0  0  0  0  0  0  0  0  0
   37.4140   26.6750   37.9360 H   0  0  0  0  0  0  0  0  0  0  0  0
   36.9640   26.7420   40.8560 C   0  0  0  0  0  0  0  0  0  0  0  0
   36.6190   26.0070   39.7370 C   0  0  0  0  0  0  0  0  0  0  0  0
   36.4520   24.6500   39.7640 C   0  0  0  0  0  0  0  0  0  0  0  0
   36.6350   23.9810   40.9560 C   0  0  0  0  0  0  0  0  0  0  0  0
   36.9770   24.6290   42.1090 C   0  0  0  0  0  0  0  0  0  0  0  0
   37.1330   26.0130   42.0170 C   0  0  0  0  0  0  0  0  0  0  0  0
   36.1910   23.9890   38.9580 H   0  0  0  0  0  0  0  0  0  0  0  0
   36.5230   22.9020   41.0730 H   0  0  0  0  0  0  0  0  0  0  0  0
   37.1360   24.1700   43.0770 H   0  0  0  0  0  0  0  0  0  0  0  0
   37.4060   26.5530   42.9250 H   0  0  0  0  0  0  0  0  0  0  0  0
   37.1950   28.4770   40.8680 S   0  0  0  0  0  0  0  0  0  0  0  0
   38.0130   28.9360   42.0560 O   0  0  0  0  0  0  0  0  0  0  0  0
   35.8570   29.1430   41.0560 O   0  0  0  0  0  0  0  0  0  0  0  0
   37.6990   28.9660   39.7070 H   0  0  0  0  0  0  0  0  0  0  0  0
  1  3  1  0  0  0  0
  1 21  1  0  0  0  0
  2  1  1  0  0  0  0
  4  5  1  0  0  0  0
  5  1  1  0  0  0  0
  5  6  2  0  0  0  0
  6 11  1  0  0  0  0
  7  6  1  0  0  0  0
  8  7  2  0  0  0  0
  9  4  2  0  0  0  0
  9  8  1  0  0  0  0
 10  4  1  0  0  0  0
 13 12  1  0  0  0  0
 14  8  1  0  0  0  0
 14 13  2  0  0  0  0
 15 14  1  0  0  0  0
 16 15  1  0  0  0  0
 17 15  2  0  0  0  0
 17 19  1  0  0  0  0
 18 17  1  0  0  0  0
 19 20  2  0  0  0  0
 20 13  1  0  0  0  0
 21 22  1  0  0  0  0
 21 25  1  0  0  0  0
 23 21  1  0  0  0  0
 24 34  1  0  0  0  0
 24 29  1  0  0  0  0
 25 26  1  0  0  0  0
 25 24  2  0  0  0  0
 26 27  2  0  0  0  0
 27 31  1  0  0  0  0
 27 28  1  0  0  0  0
 28 32  1  0  0  0  0
 29 28  2  0  0  0  0
 29 33  1  0  0  0  0
 30 26  1  0  0  0  0
 34 36  2  0  0  0  0
 34 35  2  0  0  0  0
 37 34  1  0  0  0  0
M  END
>  <minimizedAffinity>
-5.65688848

$$$$

 OpenBabel03242518033D

 37 39  0  0  0  0  0  0  0  0999 V2000
   36.3170   30.1730   38.2090 C   0  0  0  0  0  0  0  0  0  0  0  0
   35.5270   30.7880   38.6730 H   0  0  0  0  0  0  0  0  0  0  0  0
   35.7790   29.5680   37.4240 H   0  0  0  0  0  0  0  0  0  0  0  0
   36.4490   29.1050   40.4500 C   0  0  0  0  0  0  0  0  0  0  0  0
   36.9210   29.2290   39.1310 C   0  0  0  0  0  0  0  0  0  0  0  0
   37.9860   28.4040   38.7770 C   0  0  0  0  0  0  0  0  0  0  0  0
   38.5020   27.5490   39.6830 N   0  0  0  0  0  0  0  0  0  0  0  0
   38.0330   27.4500   40.9350 C   0  0  0  0  0  0  0  0  0  0  0  0
   37.0210   28.2220   41.3020 N   0  0  0  0  0  0  0  0  0  0  0  0
   35.6260   29.7020   40.8240 H   0  0  0  0  0  0  0  0  0  0  0  0
   38.3940   28.4480   37.7820 H   0  0  0  0  0  0  0  0  0  0  0  0
   39.5040   28.2350   43.2310 F   0  0  0  0  0  0  0  0  0  0  0  0
   39.3840   26.9250   42.9300 C   0  0  0  0  0  0  0  0  0  0  0  0
   38.6790   26.4850   41.8220 C   0  0  0  0  0  0  0  0  0  0  0  0
   38.5660   25.1400   41.5300 C   0  0  0  0  0  0  0  0  0  0  0  0
   38.0100   24.7730   40.6560 H   0  0  0  0  0  0  0  0  0  0  0  0
   39.1610   24.1680   42.3420 C   0  0  0  0  0  0  0  0  0  0  0  0
   39.1100   23.1010   42.1690 H   0  0  0  0  0  0  0  0  0  0  0  0
   39.8400   24.6760   43.4160 C   0  0  0  0  0  3  0  0  0  0  0  0
   39.9990   25.9970   43.7770 C   0  0  0  0  0  3  0  0  0  0  0  0
   37.4320   30.9880   37.5870 C   0  0  0  0  0  0  0  0  0  0  0  0
   37.0400   31.3820   36.6260 H   0  0  0  0  0  0  0  0  0  0  0  0
   38.2990   30.3340   37.2720 H   0  0  0  0  0  0  0  0  0  0  0  0
   39.3700   32.0910   38.6190 C   0  0  0  0  0  0  0  0  0  0  0  0
   38.0000   32.0170   38.4550 C   0  0  0  0  0  0  0  0  0  0  0  0
   37.1320   32.8760   39.0710 C   0  0  0  0  0  0  0  0  0  0  0  0
   37.6400   33.8600   39.8920 C   0  0  0  0  0  0  0  0  0  0  0  0
   38.9810   34.0050   40.1100 C   0  0  0  0  0  0  0  0  0  0  0  0
   39.8150   33.0980   39.4530 C   0  0  0  0  0  0  0  0  0  0  0  0
   36.0590   32.9020   39.0160 H   0  0  0  0  0  0  0  0  0  0  0  0
   37.0270   34.5890   40.4230 H   0  0  0  0  0  0  0  0  0  0  0  0
   39.4500   34.7520   40.7380 H   0  0  0  0  0  0  0  0  0  0  0  0
   40.8910   33.1940   39.6100 H   0  0  0  0  0  0  0  0  0  0  0  0
   40.5180   31.0120   37.8570 S   0  0  0  0  0  0  0  0  0  0  0  0
   41.4470   30.3640   38.8610 O   0  0  0  0  0  0  0  0  0  0  0  0
   41.4300   31.8200   36.9710 O   0  0  0  0  0  0  0  0  0  0  0  0
   39.9400   30.0830   37.0530 H   0  0  0  0  0  0  0  0  0  0  0  0
  1  2  1  0  0  0  0
  1  5  1  0  0  0  0
  3  1  1  0  0  0  0
  4 10  1  0  0  0  0
  4  9  1  0  0  0  0
  5  4  2  0  0  0  0
  6  5  1  0  0  0  0
  6  7  2  0  0  0  0
  7  8  1  0  0  0  0
  8  9  2  0  0  0  0
  8 14  1  0  0  0  0
 11  6  1  0  0  0  0
 13 12  1  0  0  0  0
 13 20  1  0  0  0  0
 14 13  2  0  0  0  0
 15 14  1  0  0  0  0
 15 17  2  0  0  0  0
 16 15  1  0  0  0  0
 17 19  1  0  0  0  0
 18 17  1  0  0  0  0
 19 20  2  0  0  0  0
 21  1  1  0  0  0  0
 21 25  1  0  0  0  0
 22 21  1  0  0  0  0
 23 21  1  0  0  0  0
 24 29  1  0  0  0  0
 25 24  2  0  0  0  0
 25 26  1  0  0  0  0
 26 27  2  0  0  0  0
 27 28  1  0  0  0  0
 27 31  1  0  0  0  0
 28 32  1  0  0  0  0
 29 33  1  0  0  0  0
 29 28  2  0  0  0  0
 30 26  1  0  0  0  0
 34 24  1  0  0  0  0
 34 35  2  0  0  0  0
 36 34  2  0  0  0  0
 37 34  1  0  0  0  0
M  END
>  <minimizedAffinity>
-5.49932528

$$$$

 OpenBabel03242518033D

 37 39  0  0  0  0  0  0  0  0999 V2000
   36.5490   27.5740   42.7390 C   0  0  0  0  0  0  0  0  0  0  0  0
   36.8740   26.5260   42.8620 H   0  0  0  0  0  0  0  0  0  0  0  0
   35.5520   27.6220   43.2630 H   0  0  0  0  0  0  0  0  0  0  0  0
   35.6890   29.1540   41.0230 C   0  0  0  0  0  0  0  0  0  0  0  0
   36.3200   27.9410   41.3540 C   0  0  0  0  0  0  0  0  0  0  0  0
   36.6990   27.1320   40.2860 C   0  0  0  0  0  0  0  0  0  0  0  0
   36.4550   27.5330   39.0220 N   0  0  0  0  0  0  0  0  0  0  0  0
   35.8520   28.6940   38.7330 C   0  0  0  0  0  0  0  0  0  0  0  0
   35.4780   29.4860   39.7280 N   0  0  0  0  0  0  0  0  0  0  0  0
   35.3550   29.8530   41.7800 H   0  0  0  0  0  0  0  0  0  0  0  0
   37.1870   26.1910   40.4700 H   0  0  0  0  0  0  0  0  0  0  0  0
   37.8930   29.8040   37.1030 F   0  0  0  0  0  0  0  0  0  0  0  0
   36.6770   29.5540   36.5740 C   0  0  0  0  0  0  0  0  0  0  0  0
   35.6440   29.0140   37.3220 C   0  0  0  0  0  0  0  0  0  0  0  0
   34.4060   28.7650   36.7640 C   0  0  0  0  0  0  0  0  0  0  0  0
   33.5770   28.3370   37.3420 H   0  0  0  0  0  0  0  0  0  0  0  0
   34.1450   29.0490   35.4190 C   0  0  0  0  0  0  0  0  0  0  0  0
   33.2000   28.8780   34.9220 H   0  0  0  0  0  0  0  0  0  0  0  0
   35.2100   29.5800   34.7430 C   0  0  0  0  0  3  0  0  0  0  0  0
   36.4730   29.8580   35.2240 C   0  0  0  0  0  3  0  0  0  0  0  0
   37.5140   28.5800   43.3300 C   0  0  0  0  0  0  0  0  0  0  0  0
   37.1490   28.8090   44.3530 H   0  0  0  0  0  0  0  0  0  0  0  0
   37.4540   29.5760   42.7970 H   0  0  0  0  0  0  0  0  0  0  0  0
   39.8300   28.9780   42.6110 C   0  0  0  0  0  0  0  0  0  0  0  0
   38.9200   28.1850   43.2830 C   0  0  0  0  0  0  0  0  0  0  0  0
   39.2750   27.0300   43.9250 C   0  0  0  0  0  0  0  0  0  0  0  0
   40.5960   26.6360   43.9020 C   0  0  0  0  0  0  0  0  0  0  0  0
   41.5610   27.3600   43.2600 C   0  0  0  0  0  0  0  0  0  0  0  0
   41.1350   28.5280   42.6250 C   0  0  0  0  0  0  0  0  0  0  0  0
   38.6520   26.3440   44.4690 H   0  0  0  0  0  0  0  0  0  0  0  0
   40.9720   25.7330   44.3850 H   0  0  0  0  0  0  0  0  0  0  0  0
   42.6130   27.1120   43.2020 H   0  0  0  0  0  0  0  0  0  0  0  0
   41.8880   29.1240   42.1050 H   0  0  0  0  0  0  0  0  0  0  0  0
   39.4220   30.4580   41.7710 S   0  0  0  0  0  0  0  0  0  0  0  0
   39.0180   30.2080   40.3340 O   0  0  0  0  0  0  0  0  0  0  0  0
   40.6580   31.3140   41.6680 O   0  0  0  0  0  0  0  0  0  0  0  0
   38.4960   31.2120   42.4160 H   0  0  0  0  0  0  0  0  0  0  0  0
  1  2  1  0  0  0  0
  1  3  1  0  0  0  0
  1 21  1  0  0  0  0
  4  5  1  0  0  0  0
  4 10  1  0  0  0  0
  5  1  1  0  0  0  0
  6 11  1  0  0  0  0
  6  5  2  0  0  0  0
  7  6  1  0  0  0  0
  8  7  2  0  0  0  0
  8  9  1  0  0  0  0
  9  4  2  0  0  0  0
 13 12  1  0  0  0  0
 13 14  1  0  0  0  0
 14  8  1  0  0  0  0
 15 14  2  0  0  0  0
 15 16  1  0  0  0  0
 17 15  1  0  0  0  0
 18 17  1  0  0  0  0
 19 20  1  0  0  0  0
 19 17  2  0  0  0  0
 20 13  2  0  0  0  0
 21 22  1  0  0  0  0
 23 21  1  0  0  0  0
 24 29  2  0  0  0  0
 24 25  1  0  0  0  0
 25 21  1  0  0  0  0
 25 26  2  0  0  0  0
 26 30  1  0  0  0  0
 27 26  1  0  0  0  0
 27 31  1  0  0  0  0
 28 27  2  0  0  0  0
 29 28  1  0  0  0  0
 32 28  1  0  0  0  0
 33 29  1  0  0  0  0
 34 37  1  0  0  0  0
 34 24  1  0  0  0  0
 35 34  2  0  0  0  0
 36 34  2  0  0  0  0
M  END
>  <minimizedAffinity>
-5.43514061

$$$$

 OpenBabel03242518033D

 37 39  0  0  0  0  0  0  0  0999 V2000
   36.0290   30.4020   40.6840 C   0  0  0  0  0  0  0  0  0  0  0  0
   35.1280   31.0210   40.5320 H   0  0  0  0  0  0  0  0  0  0  0  0
   36.0900   30.2630   41.8010 H   0  0  0  0  0  0  0  0  0  0  0  0
   37.3550   32.4680   40.2940 C   0  0  0  0  0  0  0  0  0  0  0  0
   37.2520   31.0660   40.2720 C   0  0  0  0  0  0  0  0  0  0  0  0
   38.3780   30.3710   39.8360 C   0  0  0  0  0  0  0  0  0  0  0  0
   39.4820   31.0500   39.4660 N   0  0  0  0  0  0  0  0  0  0  0  0
   39.5550   32.3870   39.4960 C   0  0  0  0  0  0  0  0  0  0  0  0
   38.5010   33.0770   39.9060 N   0  0  0  0  0  0  0  0  0  0  0  0
   36.5370   33.0990   40.6160 H   0  0  0  0  0  0  0  0  0  0  0  0
   38.3650   29.2960   39.7950 H   0  0  0  0  0  0  0  0  0  0  0  0
   40.4510   32.3180   36.8050 F   0  0  0  0  0  0  0  0  0  0  0  0
   41.1970   32.9400   37.7420 C   0  0  0  0  0  0  0  0  0  0  0  0
   40.8100   33.0050   39.0690 C   0  0  0  0  0  0  0  0  0  0  0  0
   41.5860   33.6460   40.0150 C   0  0  0  0  0  0  0  0  0  0  0  0
   41.2930   33.7080   41.0710 H   0  0  0  0  0  0  0  0  0  0  0  0
   42.7960   34.2570   39.6670 C   0  0  0  0  0  0  0  0  0  0  0  0
   43.4480   34.7750   40.3570 H   0  0  0  0  0  0  0  0  0  0  0  0
   43.1140   34.1530   38.3410 C   0  0  0  0  0  3  0  0  0  0  0  0
   42.3990   33.5330   37.3380 C   0  0  0  0  0  3  0  0  0  0  0  0
   35.9710   29.0630   39.9800 C   0  0  0  0  0  0  0  0  0  0  0  0
   36.5520   29.1710   39.0400 H   0  0  0  0  0  0  0  0  0  0  0  0
   34.9250   28.8270   39.6200 H   0  0  0  0  0  0  0  0  0  0  0  0
   36.7020   26.7260   40.1810 C   0  0  0  0  0  0  0  0  0  0  0  0
   36.3810   27.9210   40.7950 C   0  0  0  0  0  0  0  0  0  0  0  0
   36.4340   28.0960   42.1500 C   0  0  0  0  0  0  0  0  0  0  0  0
   36.8230   27.0370   42.9430 C   0  0  0  0  0  0  0  0  0  0  0  0
   37.1570   25.8210   42.4190 C   0  0  0  0  0  0  0  0  0  0  0  0
   37.0840   25.7050   41.0300 C   0  0  0  0  0  0  0  0  0  0  0  0
   36.2020   28.9740   42.7240 H   0  0  0  0  0  0  0  0  0  0  0  0
   36.8950   27.0830   44.0300 H   0  0  0  0  0  0  0  0  0  0  0  0
   37.4710   24.9480   42.9780 H   0  0  0  0  0  0  0  0  0  0  0  0
   37.3470   24.7430   40.5870 H   0  0  0  0  0  0  0  0  0  0  0  0
   36.6440   26.4530   38.4530 S   0  0  0  0  0  0  0  0  0  0  0  0
   35.9920   25.1320   38.1040 O   0  0  0  0  0  0  0  0  0  0  0  0
   38.0530   26.3230   37.9350 O   0  0  0  0  0  0  0  0  0  0  0  0
   36.0810   27.4750   37.7600 H   0  0  0  0  0  0  0  0  0  0  0  0
  1  3  1  0  0  0  0
  2  1  1  0  0  0  0
  4 10  1  0  0  0  0
  5  4  1  0  0  0  0
  5  1  1  0  0  0  0
  6  5  2  0  0  0  0
  7  8  2  0  0  0  0
  7  6  1  0  0  0  0
  8  9  1  0  0  0  0
  9  4  2  0  0  0  0
 11  6  1  0  0  0  0
 12 13  1  0  0  0  0
 13 14  1  0  0  0  0
 14  8  1  0  0  0  0
 14 15  2  0  0  0  0
 15 16  1  0  0  0  0
 17 15  1  0  0  0  0
 17 18  1  0  0  0  0
 19 17  2  0  0  0  0
 20 13  2  0  0  0  0
 20 19  1  0  0  0  0
 21  1  1  0  0  0  0
 21 25  1  0  0  0  0
 22 21  1  0  0  0  0
 23 21  1  0  0  0  0
 24 25  2  0  0  0  0
 24 29  1  0  0  0  0
 25 26  1  0  0  0  0
 26 30  1  0  0  0  0
 26 27  2  0  0  0  0
 27 31  1  0  0  0  0
 28 27  1  0  0  0  0
 28 32  1  0  0  0  0
 29 28  2  0  0  0  0
 33 29  1  0  0  0  0
 34 24  1  0  0  0  0
 35 34  2  0  0  0  0
 36 34  2  0  0  0  0
 37 34  1  0  0  0  0
M  END
>  <minimizedAffinity>
-5.42630053

$$$$

 OpenBabel03242518033D

 37 39  0  0  0  0  0  0  0  0999 V2000
   39.7760   30.5450   41.0440 C   0  0  0  0  0  0  0  0  0  0  0  0
   40.1450   31.5790   40.9300 H   0  0  0  0  0  0  0  0  0  0  0  0
   40.6460   29.9000   40.7300 H   0  0  0  0  0  0  0  0  0  0  0  0
   38.6790   29.0560   39.3830 C   0  0  0  0  0  0  0  0  0  0  0  0
   38.6730   30.2320   40.1540 C   0  0  0  0  0  0  0  0  0  0  0  0
   37.5620   31.0600   40.0100 C   0  0  0  0  0  0  0  0  0  0  0  0
   36.5710   30.7100   39.1650 N   0  0  0  0  0  0  0  0  0  0  0  0
   36.6010   29.5830   38.4400 C   0  0  0  0  0  0  0  0  0  0  0  0
   37.6450   28.7750   38.5560 N   0  0  0  0  0  0  0  0  0  0  0  0
   39.4960   28.3470   39.4230 H   0  0  0  0  0  0  0  0  0  0  0  0
   37.4950   31.9750   40.5720 H   0  0  0  0  0  0  0  0  0  0  0  0
   33.9910   29.0700   39.4290 F   0  0  0  0  0  0  0  0  0  0  0  0
   34.2130   29.0730   38.0980 C   0  0  0  0  0  0  0  0  0  0  0  0
   35.4650   29.3170   37.5600 C   0  0  0  0  0  0  0  0  0  0  0  0
   35.6730   29.3170   36.1940 C   0  0  0  0  0  0  0  0  0  0  0  0
   36.6590   29.5090   35.7510 H   0  0  0  0  0  0  0  0  0  0  0  0
   34.6260   29.0690   35.3000 C   0  0  0  0  0  0  0  0  0  0  0  0
   34.7220   29.0550   34.2230 H   0  0  0  0  0  0  0  0  0  0  0  0
   33.4190   28.8370   35.9030 C   0  0  0  0  0  3  0  0  0  0  0  0
   33.1280   28.8200   37.2500 C   0  0  0  0  0  3  0  0  0  0  0  0
   39.3410   30.2100   42.4550 C   0  0  0  0  0  0  0  0  0  0  0  0
   38.2530   30.4190   42.5110 H   0  0  0  0  0  0  0  0  0  0  0  0
   39.7890   30.9230   43.2090 H   0  0  0  0  0  0  0  0  0  0  0  0
   38.7110   27.9740   43.2570 C   0  0  0  0  0  0  0  0  0  0  0  0
   39.7040   28.8680   42.9080 C   0  0  0  0  0  0  0  0  0  0  0  0
   41.0350   28.5550   42.9580 C   0  0  0  0  0  0  0  0  0  0  0  0
   41.4060   27.2940   43.3760 C   0  0  0  0  0  0  0  0  0  0  0  0
   40.4890   26.3500   43.7410 C   0  0  0  0  0  0  0  0  0  0  0  0
   39.1480   26.7300   43.6670 C   0  0  0  0  0  0  0  0  0  0  0  0
   41.8800   29.1720   42.7150 H   0  0  0  0  0  0  0  0  0  0  0  0
   42.4400   26.9550   43.4480 H   0  0  0  0  0  0  0  0  0  0  0  0
   40.7070   25.3430   44.0770 H   0  0  0  0  0  0  0  0  0  0  0  0
   38.3960   25.9920   43.9520 H   0  0  0  0  0  0  0  0  0  0  0  0
   36.9980   28.3310   43.2140 S   0  0  0  0  0  0  0  0  0  0  0  0
   36.1910   27.3650   44.0550 O   0  0  0  0  0  0  0  0  0  0  0  0
   36.4930   28.1170   41.8110 O   0  0  0  0  0  0  0  0  0  0  0  0
   36.7030   29.6190   43.5270 H   0  0  0  0  0  0  0  0  0  0  0  0
  1 21  1  0  0  0  0
  2  1  1  0  0  0  0
  3  1  1  0  0  0  0
  4 10  1  0  0  0  0
  4  5  1  0  0  0  0
  5  1  1  0  0  0  0
  6  5  2  0  0  0  0
  6 11  1  0  0  0  0
  7  6  1  0  0  0  0
  8  9  1  0  0  0  0
  8  7  2  0  0  0  0
  9  4  2  0  0  0  0
 13 12  1  0  0  0  0
 14 13  1  0  0  0  0
 14  8  1  0  0  0  0
 15 14  2  0  0  0  0
 16 15  1  0  0  0  0
 17 19  2  0  0  0  0
 17 15  1  0  0  0  0
 18 17  1  0  0  0  0
 19 20  1  0  0  0  0
 20 13  2  0  0  0  0
 21 22  1  0  0  0  0
 21 25  1  0  0  0  0
 21 23  1  0  0  0  0
 24 29  1  0  0  0  0
 25 26  1  0  0  0  0
 25 24  2  0  0  0  0
 26 27  2  0  0  0  0
 27 31  1  0  0  0  0
 27 28  1  0  0  0  0
 28 32  1  0  0  0  0
 29 28  2  0  0  0  0
 29 33  1  0  0  0  0
 30 26  1  0  0  0  0
 34 24  1  0  0  0  0
 34 37  1  0  0  0  0
 34 35  2  0  0  0  0
 36 34  2  0  0  0  0
M  END
>  <minimizedAffinity>
-5.41298771

$$$$

 OpenBabel03242518033D

 37 39  0  0  0  0  0  0  0  0999 V2000
   36.0140   30.1770   39.1730 C   0  0  0  0  0  0  0  0  0  0  0  0
   36.0980   29.6470   38.2080 H   0  0  0  0  0  0  0  0  0  0  0  0
   35.2520   30.9860   38.9840 H   0  0  0  0  0  0  0  0  0  0  0  0
   38.4810   30.4480   39.0260 C   0  0  0  0  0  0  0  0  0  0  0  0
   37.2440   30.8370   39.5700 C   0  0  0  0  0  0  0  0  0  0  0  0
   37.2770   31.8750   40.4980 C   0  0  0  0  0  0  0  0  0  0  0  0
   38.4550   32.4450   40.8240 N   0  0  0  0  0  0  0  0  0  0  0  0
   39.6210   32.0560   40.2900 C   0  0  0  0  0  0  0  0  0  0  0  0
   39.6220   31.0700   39.4050 N   0  0  0  0  0  0  0  0  0  0  0  0
   38.5620   29.6510   38.2970 H   0  0  0  0  0  0  0  0  0  0  0  0
   36.3650   32.2220   40.9520 H   0  0  0  0  0  0  0  0  0  0  0  0
   40.2250   34.7090   39.4870 F   0  0  0  0  0  0  0  0  0  0  0  0
   41.0730   34.0480   40.3030 C   0  0  0  0  0  0  0  0  0  0  0  0
   40.8290   32.7530   40.7270 C   0  0  0  0  0  0  0  0  0  0  0  0
   41.7080   32.0920   41.5630 C   0  0  0  0  0  0  0  0  0  0  0  0
   41.5290   31.0650   41.9080 H   0  0  0  0  0  0  0  0  0  0  0  0
   42.8810   32.7060   42.0150 C   0  0  0  0  0  0  0  0  0  0  0  0
   43.6080   32.2460   42.6690 H   0  0  0  0  0  0  0  0  0  0  0  0
   43.0550   33.9840   41.5560 C   0  0  0  0  0  3  0  0  0  0  0  0
   42.2310   34.7120   40.7250 C   0  0  0  0  0  3  0  0  0  0  0  0
   35.5770   29.2870   40.3170 C   0  0  0  0  0  0  0  0  0  0  0  0
   34.4670   29.2680   40.3010 H   0  0  0  0  0  0  0  0  0  0  0  0
   35.8210   29.7480   41.3200 H   0  0  0  0  0  0  0  0  0  0  0  0
   36.9090   27.5490   41.4330 C   0  0  0  0  0  0  0  0  0  0  0  0
   36.1860   27.9570   40.3290 C   0  0  0  0  0  0  0  0  0  0  0  0
   36.0020   27.1660   39.2280 C   0  0  0  0  0  0  0  0  0  0  0  0
   36.5600   25.9060   39.2150 C   0  0  0  0  0  0  0  0  0  0  0  0
   37.2900   25.4220   40.2630 C   0  0  0  0  0  0  0  0  0  0  0  0
   37.4420   26.2770   41.3570 C   0  0  0  0  0  0  0  0  0  0  0  0
   35.4660   27.3870   38.3240 H   0  0  0  0  0  0  0  0  0  0  0  0
   36.4660   25.2060   38.3830 H   0  0  0  0  0  0  0  0  0  0  0  0
   37.7550   24.4460   40.3220 H   0  0  0  0  0  0  0  0  0  0  0  0
   38.0210   25.9130   42.2070 H   0  0  0  0  0  0  0  0  0  0  0  0
   37.1760   28.5270   42.8590 S   0  0  0  0  0  0  0  0  0  0  0  0
   38.3720   29.4430   42.7090 O   0  0  0  0  0  0  0  0  0  0  0  0
   37.5410   27.6220   44.0070 O   0  0  0  0  0  0  0  0  0  0  0  0
   36.0780   29.2170   43.2590 H   0  0  0  0  0  0  0  0  0  0  0  0
  1  5  1  0  0  0  0
  1 21  1  0  0  0  0
  2  1  1  0  0  0  0
  3  1  1  0  0  0  0
  4  9  2  0  0  0  0
  4  5  1  0  0  0  0
  5  6  2  0  0  0  0
  6  7  1  0  0  0  0
  6 11  1  0  0  0  0
  8 14  1  0  0  0  0
  8  7  2  0  0  0  0
  9  8  1  0  0  0  0
 10  4  1  0  0  0  0
 12 13  1  0  0  0  0
 13 20  2  0  0  0  0
 13 14  1  0  0  0  0
 14 15  2  0  0  0  0
 15 16  1  0  0  0  0
 15 17  1  0  0  0  0
 17 18  1  0  0  0  0
 19 17  2  0  0  0  0
 20 19  1  0  0  0  0
 21 25  1  0  0  0  0
 21 23  1  0  0  0  0
 22 21  1  0  0  0  0
 24 34  1  0  0  0  0
 25 24  2  0  0  0  0
 26 25  1  0  0  0  0
 27 26  2  0  0  0  0
 27 28  1  0  0  0  0
 28 32  1  0  0  0  0
 28 29  2  0  0  0  0
 29 24  1  0  0  0  0
 29 33  1  0  0  0  0
 30 26  1  0  0  0  0
 31 27  1  0  0  0  0
 34 37  1  0  0  0  0
 34 36  2  0  0  0  0
 35 34  2  0  0  0  0
M  END
>  <minimizedAffinity>
-5.3613534

$$$$

 OpenBabel03242518033D

 37 39  0  0  0  0  0  0  0  0999 V2000
   36.9670   26.0520   42.5340 C   0  0  0  0  0  0  0  0  0  0  0  0
   36.2030   25.5410   41.9220 H   0  0  0  0  0  0  0  0  0  0  0  0
   36.5110   26.1090   43.5630 H   0  0  0  0  0  0  0  0  0  0  0  0
   37.7390   28.3680   43.0010 C   0  0  0  0  0  0  0  0  0  0  0  0
   37.2210   27.4160   42.1060 C   0  0  0  0  0  0  0  0  0  0  0  0
   36.9700   27.8590   40.8100 C   0  0  0  0  0  0  0  0  0  0  0  0
   37.2280   29.1400   40.4780 N   0  0  0  0  0  0  0  0  0  0  0  0
   37.7230   30.0290   41.3500 C   0  0  0  0  0  0  0  0  0  0  0  0
   37.9710   29.6380   42.5920 N   0  0  0  0  0  0  0  0  0  0  0  0
   37.9680   28.1240   44.0310 H   0  0  0  0  0  0  0  0  0  0  0  0
   36.5730   27.1800   40.0760 H   0  0  0  0  0  0  0  0  0  0  0  0
   40.0160   31.5310   42.0810 F   0  0  0  0  0  0  0  0  0  0  0  0
   39.0960   32.0750   41.2570 C   0  0  0  0  0  0  0  0  0  0  0  0
   37.9580   31.3890   40.8680 C   0  0  0  0  0  0  0  0  0  0  0  0
   37.0270   31.9610   40.0240 C   0  0  0  0  0  0  0  0  0  0  0  0
   36.1200   31.4310   39.7050 H   0  0  0  0  0  0  0  0  0  0  0  0
   37.1960   33.2580   39.5280 C   0  0  0  0  0  0  0  0  0  0  0  0
   36.5070   33.7630   38.8650 H   0  0  0  0  0  0  0  0  0  0  0  0
   38.3410   33.8740   39.9550 C   0  0  0  0  0  3  0  0  0  0  0  0
   39.3170   33.3760   40.7920 C   0  0  0  0  0  3  0  0  0  0  0  0
   38.2950   25.3270   42.5760 C   0  0  0  0  0  0  0  0  0  0  0  0
   38.2900   24.7050   43.4960 H   0  0  0  0  0  0  0  0  0  0  0  0
   39.1550   26.0420   42.7420 H   0  0  0  0  0  0  0  0  0  0  0  0
   39.6770   24.9950   40.5710 C   0  0  0  0  0  0  0  0  0  0  0  0
   38.6250   24.5780   41.3640 C   0  0  0  0  0  0  0  0  0  0  0  0
   37.8670   23.4780   41.0730 C   0  0  0  0  0  0  0  0  0  0  0  0
   38.1600   22.7490   39.9390 C   0  0  0  0  0  0  0  0  0  0  0  0
   39.1810   23.0910   39.0990 C   0  0  0  0  0  0  0  0  0  0  0  0
   39.9180   24.2240   39.4510 C   0  0  0  0  0  0  0  0  0  0  0  0
   37.0320   23.0740   41.6150 H   0  0  0  0  0  0  0  0  0  0  0  0
   37.6120   21.8590   39.6270 H   0  0  0  0  0  0  0  0  0  0  0  0
   39.4680   22.5680   38.1950 H   0  0  0  0  0  0  0  0  0  0  0  0
   40.7410   24.5170   38.7950 H   0  0  0  0  0  0  0  0  0  0  0  0
   40.6700   26.3980   40.9000 S   0  0  0  0  0  0  0  0  0  0  0  0
   40.3630   27.5480   39.9650 O   0  0  0  0  0  0  0  0  0  0  0  0
   42.1070   26.0540   40.6090 O   0  0  0  0  0  0  0  0  0  0  0  0
   40.6340   26.7980   42.1970 H   0  0  0  0  0  0  0  0  0  0  0  0
  1 21  1  0  0  0  0
  1  3  1  0  0  0  0
  2  1  1  0  0  0  0
  4 10  1  0  0  0  0
  5  1  1  0  0  0  0
  5  4  2  0  0  0  0
  6  5  1  0  0  0  0
  7  6  2  0  0  0  0
  7  8  1  0  0  0  0
  8  9  2  0  0  0  0
  9  4  1  0  0  0  0
 11  6  1  0  0  0  0
 13 12  1  0  0  0  0
 14 13  1  0  0  0  0
 14  8  1  0  0  0  0
 15 14  2  0  0  0  0
 16 15  1  0  0  0  0
 17 19  2  0  0  0  0
 17 15  1  0  0  0  0
 18 17  1  0  0  0  0
 19 20  1  0  0  0  0
 20 13  2  0  0  0  0
 21 23  1  0  0  0  0
 21 22  1  0  0  0  0
 24 34  1  0  0  0  0
 24 25  1  0  0  0  0
 25 21  1  0  0  0  0
 26 25  2  0  0  0  0
 26 30  1  0  0  0  0
 27 26  1  0  0  0  0
 28 29  1  0  0  0  0
 28 27  2  0  0  0  0
 29 24  2  0  0  0  0
 31 27  1  0  0  0  0
 32 28  1  0  0  0  0
 33 29  1  0  0  0  0
 34 37  1  0  0  0  0
 35 34  2  0  0  0  0
 36 34  2  0  0  0  0
M  END
>  <minimizedAffinity>
-5.27902555

$$$$
