
 OpenBabel03252506593D

 24 25  0  0  0  0  0  0  0  0999 V2000
   39.0480   29.2920   42.7190 C   0  0  0  0  0  0  0  0  0  0  0  0
   39.8010   28.7050   42.1690 H   0  0  0  0  0  0  0  0  0  0  0  0
   39.5440   29.9610   43.4850 H   0  0  0  0  0  0  0  0  0  0  0  0
   38.2620   30.1680   41.8600 C   0  0  0  0  0  0  0  0  0  0  0  0
   36.9500   29.8870   41.5030 C   0  0  0  0  0  0  0  0  0  0  0  0
   36.2680   30.8100   40.6770 C   0  0  0  0  0  0  0  0  0  0  0  0
   36.9440   31.9260   40.2780 N   0  0  0  0  0  0  0  0  0  0  0  0
   38.2120   32.1490   40.6520 C   0  0  0  0  0  0  0  0  0  0  0  0
   38.8710   31.2950   41.4280 N   0  0  0  0  0  0  0  0  0  0  0  0
   36.4670   28.9860   41.8500 H   0  0  0  0  0  0  0  0  0  0  0  0
   35.2510   30.5780   40.4080 H   0  0  0  0  0  0  0  0  0  0  0  0
   38.6750   33.0640   40.2880 H   0  0  0  0  0  0  0  0  0  0  0  0
   38.1070   28.3650   43.4430 C   0  0  0  0  0  0  0  0  0  0  0  0
   38.0310   28.5930   44.5140 H   0  0  0  0  0  0  0  0  0  0  0  0
   37.0770   28.4370   43.0380 H   0  0  0  0  0  0  0  0  0  0  0  0
   36.5740   26.5990   42.0110 F   0  0  0  0  0  0  0  0  0  0  0  0
   37.7700   26.1810   42.4800 C   0  0  0  0  0  0  0  0  0  0  0  0
   38.6280   26.9730   43.2110 C   0  0  0  0  0  0  0  0  0  0  0  0
   39.8470   26.5200   43.6800 C   0  0  0  0  0  0  0  0  0  0  0  0
   40.4630   27.2060   44.2480 H   0  0  0  0  0  0  0  0  0  0  0  0
   40.1870   25.2160   43.3850 C   0  0  0  0  0  0  0  0  0  0  0  0
   41.1510   24.8330   43.7470 H   0  0  0  0  0  0  0  0  0  0  0  0
   39.3520   24.4000   42.6580 C   0  0  0  0  0  3  0  0  0  0  0  0
   38.1290   24.8640   42.1910 C   0  0  0  0  0  3  0  0  0  0  0  0
  1 13  1  0  0  0  0
  1  3  1  0  0  0  0
  2  1  1  0  0  0  0
  4  1  1  0  0  0  0
  5 10  1  0  0  0  0
  5  4  1  0  0  0  0
  6  5  2  0  0  0  0
  7  8  2  0  0  0  0
  7  6  1  0  0  0  0
  8  9  1  0  0  0  0
  9  4  2  0  0  0  0
 11  6  1  0  0  0  0
 12  8  1  0  0  0  0
 13 14  1  0  0  0  0
 15 13  1  0  0  0  0
 16 17  1  0  0  0  0
 17 18  1  0  0  0  0
 18 13  1  0  0  0  0
 18 19  2  0  0  0  0
 19 20  1  0  0  0  0
 21 19  1  0  0  0  0
 21 22  1  0  0  0  0
 23 21  2  0  0  0  0
 24 17  2  0  0  0  0
 24 23  1  0  0  0  0
M  END
>  <minimizedAffinity>
-4.75518847

$$$$

 OpenBabel03252506593D

 24 25  0  0  0  0  0  0  0  0999 V2000
   36.2280   27.7360   40.1170 C   0  0  0  0  0  0  0  0  0  0  0  0
   36.8010   27.7110   39.1760 H   0  0  0  0  0  0  0  0  0  0  0  0
   35.5570   26.8290   40.2010 H   0  0  0  0  0  0  0  0  0  0  0  0
   37.0730   27.7310   41.3050 C   0  0  0  0  0  0  0  0  0  0  0  0
   36.5580   27.8260   42.5900 C   0  0  0  0  0  0  0  0  0  0  0  0
   37.4630   27.7960   43.6780 C   0  0  0  0  0  0  0  0  0  0  0  0
   38.7920   27.6750   43.3950 N   0  0  0  0  0  0  0  0  0  0  0  0
   39.2360   27.5860   42.1330 C   0  0  0  0  0  0  0  0  0  0  0  0
   38.4040   27.6120   41.0980 N   0  0  0  0  0  0  0  0  0  0  0  0
   35.4950   27.9210   42.7520 H   0  0  0  0  0  0  0  0  0  0  0  0
   37.0500   27.8720   44.6690 H   0  0  0  0  0  0  0  0  0  0  0  0
   40.3120   27.4920   41.9990 H   0  0  0  0  0  0  0  0  0  0  0  0
   35.3620   28.9690   40.1550 C   0  0  0  0  0  0  0  0  0  0  0  0
   34.3920   28.8160   39.6630 H   0  0  0  0  0  0  0  0  0  0  0  0
   35.1360   29.2730   41.1970 H   0  0  0  0  0  0  0  0  0  0  0  0
   36.0850   31.1690   41.6220 F   0  0  0  0  0  0  0  0  0  0  0  0
   36.4570   31.1090   40.3250 C   0  0  0  0  0  0  0  0  0  0  0  0
   36.1540   30.0590   39.4860 C   0  0  0  0  0  0  0  0  0  0  0  0
   36.5460   30.0220   38.1610 C   0  0  0  0  0  0  0  0  0  0  0  0
   36.2670   29.1600   37.5690 H   0  0  0  0  0  0  0  0  0  0  0  0
   37.2700   31.1000   37.6920 C   0  0  0  0  0  0  0  0  0  0  0  0
   37.5930   31.0940   36.6410 H   0  0  0  0  0  0  0  0  0  0  0  0
   37.5870   32.1640   38.5040 C   0  0  0  0  0  3  0  0  0  0  0  0
   37.1890   32.1910   39.8340 C   0  0  0  0  0  3  0  0  0  0  0  0
  1 13  1  0  0  0  0
  1  3  1  0  0  0  0
  1  4  1  0  0  0  0
  2  1  1  0  0  0  0
  4  5  1  0  0  0  0
  5 10  1  0  0  0  0
  5  6  2  0  0  0  0
  6 11  1  0  0  0  0
  7  6  1  0  0  0  0
  8  7  2  0  0  0  0
  9  4  2  0  0  0  0
  9  8  1  0  0  0  0
 12  8  1  0  0  0  0
 13 15  1  0  0  0  0
 14 13  1  0  0  0  0
 17 16  1  0  0  0  0
 18 13  1  0  0  0  0
 18 17  2  0  0  0  0
 19 18  1  0  0  0  0
 20 19  1  0  0  0  0
 21 19  2  0  0  0  0
 21 23  1  0  0  0  0
 22 21  1  0  0  0  0
 23 24  2  0  0  0  0
 24 17  1  0  0  0  0
M  END
>  <minimizedAffinity>
-4.63603067

$$$$

 OpenBabel03252506593D

 24 25  0  0  0  0  0  0  0  0999 V2000
   36.4700   28.0910   41.0420 C   0  0  0  0  0  0  0  0  0  0  0  0
   35.4130   28.0300   40.7370 H   0  0  0  0  0  0  0  0  0  0  0  0
   37.0990   27.3560   40.4550 H   0  0  0  0  0  0  0  0  0  0  0  0
   37.0590   29.4050   40.8170 C   0  0  0  0  0  0  0  0  0  0  0  0
   36.3010   30.5660   40.7660 C   0  0  0  0  0  0  0  0  0  0  0  0
   36.9700   31.7950   40.5580 C   0  0  0  0  0  0  0  0  0  0  0  0
   38.3270   31.7630   40.4190 N   0  0  0  0  0  0  0  0  0  0  0  0
   39.0110   30.6120   40.4760 C   0  0  0  0  0  0  0  0  0  0  0  0
   38.4030   29.4470   40.6710 N   0  0  0  0  0  0  0  0  0  0  0  0
   35.2280   30.5280   40.8830 H   0  0  0  0  0  0  0  0  0  0  0  0
   36.3690   32.6870   40.5210 H   0  0  0  0  0  0  0  0  0  0  0  0
   40.0910   30.6780   40.3550 H   0  0  0  0  0  0  0  0  0  0  0  0
   36.5990   27.7570   42.5060 C   0  0  0  0  0  0  0  0  0  0  0  0
   37.0000   28.5930   43.0950 H   0  0  0  0  0  0  0  0  0  0  0  0
   35.6150   27.5080   42.9520 H   0  0  0  0  0  0  0  0  0  0  0  0
   39.0870   28.0210   43.6280 F   0  0  0  0  0  0  0  0  0  0  0  0
   38.7130   26.8070   43.1670 C   0  0  0  0  0  0  0  0  0  0  0  0
   37.4920   26.5480   42.5840 C   0  0  0  0  0  0  0  0  0  0  0  0
   37.1340   25.2970   42.1200 C   0  0  0  0  0  0  0  0  0  0  0  0
   36.1550   25.1770   41.6730 H   0  0  0  0  0  0  0  0  0  0  0  0
   38.0630   24.2860   42.2620 C   0  0  0  0  0  0  0  0  0  0  0  0
   37.8020   23.2820   41.9000 H   0  0  0  0  0  0  0  0  0  0  0  0
   39.2910   24.5130   42.8400 C   0  0  0  0  0  3  0  0  0  0  0  0
   39.6410   25.7740   43.3030 C   0  0  0  0  0  3  0  0  0  0  0  0
  1 13  1  0  0  0  0
  2  1  1  0  0  0  0
  3  1  1  0  0  0  0
  4  1  1  0  0  0  0
  5  4  1  0  0  0  0
  5 10  1  0  0  0  0
  6  5  2  0  0  0  0
  7  8  2  0  0  0  0
  7  6  1  0  0  0  0
  8  9  1  0  0  0  0
  9  4  2  0  0  0  0
 11  6  1  0  0  0  0
 12  8  1  0  0  0  0
 13 18  1  0  0  0  0
 13 15  1  0  0  0  0
 13 14  1  0  0  0  0
 17 24  1  0  0  0  0
 17 16  1  0  0  0  0
 18 17  2  0  0  0  0
 19 21  2  0  0  0  0
 19 18  1  0  0  0  0
 20 19  1  0  0  0  0
 21 23  1  0  0  0  0
 22 21  1  0  0  0  0
 23 24  2  0  0  0  0
M  END
>  <minimizedAffinity>
-4.61929274

$$$$

 OpenBabel03252506593D

 24 25  0  0  0  0  0  0  0  0999 V2000
   37.7810   28.3920   43.4480 C   0  0  0  0  0  0  0  0  0  0  0  0
   36.7940   28.5840   42.9960 H   0  0  0  0  0  0  0  0  0  0  0  0
   37.7340   28.5050   44.5730 H   0  0  0  0  0  0  0  0  0  0  0  0
   38.2770   27.0460   43.1930 C   0  0  0  0  0  0  0  0  0  0  0  0
   39.4950   26.5920   43.6800 C   0  0  0  0  0  0  0  0  0  0  0  0
   39.8780   25.2610   43.3880 C   0  0  0  0  0  0  0  0  0  0  0  0
   39.0240   24.5030   42.6430 N   0  0  0  0  0  0  0  0  0  0  0  0
   37.8580   24.9920   42.1970 C   0  0  0  0  0  0  0  0  0  0  0  0
   37.4780   26.2380   42.4590 N   0  0  0  0  0  0  0  0  0  0  0  0
   40.1290   27.2400   44.2650 H   0  0  0  0  0  0  0  0  0  0  0  0
   40.8260   24.9230   43.7720 H   0  0  0  0  0  0  0  0  0  0  0  0
   37.2380   24.3180   41.6100 H   0  0  0  0  0  0  0  0  0  0  0  0
   38.7880   29.3790   42.9170 C   0  0  0  0  0  0  0  0  0  0  0  0
   39.2270   30.0000   43.7090 H   0  0  0  0  0  0  0  0  0  0  0  0
   39.6350   28.8650   42.4200 H   0  0  0  0  0  0  0  0  0  0  0  0
   40.0460   31.5760   41.8630 F   0  0  0  0  0  0  0  0  0  0  0  0
   38.7940   31.2890   41.4460 C   0  0  0  0  0  0  0  0  0  0  0  0
   38.0590   30.2160   41.9000 C   0  0  0  0  0  0  0  0  0  0  0  0
   36.7780   29.9440   41.4570 C   0  0  0  0  0  0  0  0  0  0  0  0
   36.2680   29.0810   41.8650 H   0  0  0  0  0  0  0  0  0  0  0  0
   36.2430   30.8060   40.5210 C   0  0  0  0  0  0  0  0  0  0  0  0
   35.2260   30.6110   40.1540 H   0  0  0  0  0  0  0  0  0  0  0  0
   36.9510   31.8860   40.0480 C   0  0  0  0  0  3  0  0  0  0  0  0
   38.2380   32.1500   40.4990 C   0  0  0  0  0  3  0  0  0  0  0  0
  1  3  1  0  0  0  0
  2  1  1  0  0  0  0
  4  1  1  0  0  0  0
  4  5  1  0  0  0  0
  5 10  1  0  0  0  0
  6  5  2  0  0  0  0
  6 11  1  0  0  0  0
  7  6  1  0  0  0  0
  8  9  1  0  0  0  0
  8  7  2  0  0  0  0
  9  4  2  0  0  0  0
 12  8  1  0  0  0  0
 13  1  1  0  0  0  0
 13 14  1  0  0  0  0
 15 13  1  0  0  0  0
 17 16  1  0  0  0  0
 17 18  1  0  0  0  0
 18 13  1  0  0  0  0
 19 20  1  0  0  0  0
 19 18  2  0  0  0  0
 21 19  1  0  0  0  0
 22 21  1  0  0  0  0
 23 24  1  0  0  0  0
 23 21  2  0  0  0  0
 24 17  2  0  0  0  0
M  END
>  <minimizedAffinity>
-4.49710798

$$$$

 OpenBabel03252506593D

 24 25  0  0  0  0  0  0  0  0999 V2000
   37.7350   30.6710   39.6200 C   0  0  0  0  0  0  0  0  0  0  0  0
   37.1730   30.5310   38.6820 H   0  0  0  0  0  0  0  0  0  0  0  0
   38.4550   29.8140   39.7860 H   0  0  0  0  0  0  0  0  0  0  0  0
   38.5380   31.8870   39.6320 C   0  0  0  0  0  0  0  0  0  0  0  0
   38.1440   33.0380   40.3010 C   0  0  0  0  0  0  0  0  0  0  0  0
   39.0030   34.1610   40.2650 C   0  0  0  0  0  0  0  0  0  0  0  0
   40.1720   34.0440   39.5710 N   0  0  0  0  0  0  0  0  0  0  0  0
   40.5050   32.9080   38.9420 C   0  0  0  0  0  0  0  0  0  0  0  0
   39.7130   31.8410   38.9630 N   0  0  0  0  0  0  0  0  0  0  0  0
   37.2060   33.0700   40.8340 H   0  0  0  0  0  0  0  0  0  0  0  0
   38.6850   35.0460   40.7880 H   0  0  0  0  0  0  0  0  0  0  0  0
   41.4550   32.9020   38.4130 H   0  0  0  0  0  0  0  0  0  0  0  0
   36.7810   30.7190   40.7850 C   0  0  0  0  0  0  0  0  0  0  0  0
   36.7660   31.7010   41.2770 H   0  0  0  0  0  0  0  0  0  0  0  0
   35.7390   30.5180   40.4630 H   0  0  0  0  0  0  0  0  0  0  0  0
   35.2090   28.4890   41.0610 F   0  0  0  0  0  0  0  0  0  0  0  0
   36.3490   28.5680   41.7820 C   0  0  0  0  0  0  0  0  0  0  0  0
   37.2190   29.6340   41.7310 C   0  0  0  0  0  0  0  0  0  0  0  0
   38.3790   29.6900   42.4810 C   0  0  0  0  0  0  0  0  0  0  0  0
   39.0090   30.5650   42.3830 H   0  0  0  0  0  0  0  0  0  0  0  0
   38.6450   28.6160   43.3050 C   0  0  0  0  0  0  0  0  0  0  0  0
   39.5610   28.6370   43.9110 H   0  0  0  0  0  0  0  0  0  0  0  0
   37.7960   27.5360   43.3790 C   0  0  0  0  0  3  0  0  0  0  0  0
   36.6320   27.4890   42.6210 C   0  0  0  0  0  3  0  0  0  0  0  0
  1  4  1  0  0  0  0
  1  3  1  0  0  0  0
  1 13  1  0  0  0  0
  2  1  1  0  0  0  0
  4  5  1  0  0  0  0
  5 10  1  0  0  0  0
  6  5  2  0  0  0  0
  6 11  1  0  0  0  0
  7  6  1  0  0  0  0
  8  9  1  0  0  0  0
  8  7  2  0  0  0  0
  9  4  2  0  0  0  0
 12  8  1  0  0  0  0
 13 14  1  0  0  0  0
 13 18  1  0  0  0  0
 15 13  1  0  0  0  0
 16 17  1  0  0  0  0
 17 24  1  0  0  0  0
 18 17  2  0  0  0  0
 18 19  1  0  0  0  0
 19 21  2  0  0  0  0
 20 19  1  0  0  0  0
 21 23  1  0  0  0  0
 21 22  1  0  0  0  0
 24 23  2  0  0  0  0
M  END
>  <minimizedAffinity>
-4.48241186

$$$$

 OpenBabel03252506593D

 24 25  0  0  0  0  0  0  0  0999 V2000
   36.0210   29.1280   40.8360 C   0  0  0  0  0  0  0  0  0  0  0  0
   35.3360   29.4440   41.6390 H   0  0  0  0  0  0  0  0  0  0  0  0
   35.5010   28.4210   40.1210 H   0  0  0  0  0  0  0  0  0  0  0  0
   36.5130   30.2380   40.0300 C   0  0  0  0  0  0  0  0  0  0  0  0
   36.7360   30.1310   38.6650 C   0  0  0  0  0  0  0  0  0  0  0  0
   37.1990   31.2730   37.9700 C   0  0  0  0  0  0  0  0  0  0  0  0
   37.4000   32.4150   38.6880 N   0  0  0  0  0  0  0  0  0  0  0  0
   37.1690   32.4640   40.0080 C   0  0  0  0  0  0  0  0  0  0  0  0
   36.7330   31.4040   40.6800 N   0  0  0  0  0  0  0  0  0  0  0  0
   36.5580   29.1990   38.1500 H   0  0  0  0  0  0  0  0  0  0  0  0
   37.3670   31.1750   36.9110 H   0  0  0  0  0  0  0  0  0  0  0  0
   37.3550   33.4150   40.5020 H   0  0  0  0  0  0  0  0  0  0  0  0
   37.2060   28.4100   41.4300 C   0  0  0  0  0  0  0  0  0  0  0  0
   38.1610   28.7640   41.0210 H   0  0  0  0  0  0  0  0  0  0  0  0
   37.2630   28.5620   42.5260 H   0  0  0  0  0  0  0  0  0  0  0  0
   37.5010   26.6120   43.4790 F   0  0  0  0  0  0  0  0  0  0  0  0
   37.1700   26.1460   42.2550 C   0  0  0  0  0  0  0  0  0  0  0  0
   36.9940   26.9470   41.1480 C   0  0  0  0  0  0  0  0  0  0  0  0
   36.6560   26.4440   39.9060 C   0  0  0  0  0  0  0  0  0  0  0  0
   36.5370   27.1420   39.0870 H   0  0  0  0  0  0  0  0  0  0  0  0
   36.4960   25.0770   39.8060 C   0  0  0  0  0  0  0  0  0  0  0  0
   36.2270   24.6530   38.8290 H   0  0  0  0  0  0  0  0  0  0  0  0
   36.6650   24.2500   40.8930 C   0  0  0  0  0  3  0  0  0  0  0  0
   37.0050   24.7650   42.1370 C   0  0  0  0  0  3  0  0  0  0  0  0
  1 13  1  0  0  0  0
  1  2  1  0  0  0  0
  3  1  1  0  0  0  0
  4  9  1  0  0  0  0
  4  1  1  0  0  0  0
  5  4  2  0  0  0  0
  6  5  1  0  0  0  0
  6  7  2  0  0  0  0
  7  8  1  0  0  0  0
  8 12  1  0  0  0  0
  8  9  2  0  0  0  0
 10  5  1  0  0  0  0
 11  6  1  0  0  0  0
 13 15  1  0  0  0  0
 14 13  1  0  0  0  0
 17 16  1  0  0  0  0
 18 13  1  0  0  0  0
 18 17  2  0  0  0  0
 19 18  1  0  0  0  0
 20 19  1  0  0  0  0
 21 19  2  0  0  0  0
 21 23  1  0  0  0  0
 22 21  1  0  0  0  0
 23 24  2  0  0  0  0
 24 17  1  0  0  0  0
M  END
>  <minimizedAffinity>
-4.44701242

$$$$

 OpenBabel03252506593D

 24 25  0  0  0  0  0  0  0  0999 V2000
   37.3530   30.4660   40.1410 C   0  0  0  0  0  0  0  0  0  0  0  0
   36.5980   30.4560   39.3380 H   0  0  0  0  0  0  0  0  0  0  0  0
   38.1310   29.6630   39.9680 H   0  0  0  0  0  0  0  0  0  0  0  0
   38.0780   31.7260   40.2320 C   0  0  0  0  0  0  0  0  0  0  0  0
   39.4190   31.7950   40.5830 C   0  0  0  0  0  0  0  0  0  0  0  0
   40.0360   33.0680   40.6280 C   0  0  0  0  0  0  0  0  0  0  0  0
   39.2710   34.1550   40.3210 N   0  0  0  0  0  0  0  0  0  0  0  0
   37.9780   34.0320   39.9880 C   0  0  0  0  0  0  0  0  0  0  0  0
   37.3790   32.8470   39.9400 N   0  0  0  0  0  0  0  0  0  0  0  0
   39.9740   30.8980   40.8150 H   0  0  0  0  0  0  0  0  0  0  0  0
   41.0760   33.1050   40.9020 H   0  0  0  0  0  0  0  0  0  0  0  0
   37.4430   34.9510   39.7590 H   0  0  0  0  0  0  0  0  0  0  0  0
   36.6900   30.2010   41.4680 C   0  0  0  0  0  0  0  0  0  0  0  0
   36.9180   30.9740   42.2140 H   0  0  0  0  0  0  0  0  0  0  0  0
   35.5850   30.1820   41.3710 H   0  0  0  0  0  0  0  0  0  0  0  0
   38.6790   30.0510   43.3490 F   0  0  0  0  0  0  0  0  0  0  0  0
   38.1660   28.9010   42.8590 C   0  0  0  0  0  0  0  0  0  0  0  0
   37.1670   28.8450   41.9130 C   0  0  0  0  0  0  0  0  0  0  0  0
   36.6600   27.6550   41.4270 C   0  0  0  0  0  0  0  0  0  0  0  0
   35.8750   27.6980   40.6830 H   0  0  0  0  0  0  0  0  0  0  0  0
   37.2020   26.4910   41.9340 C   0  0  0  0  0  0  0  0  0  0  0  0
   36.8150   25.5310   41.5640 H   0  0  0  0  0  0  0  0  0  0  0  0
   38.2010   26.5120   42.8790 C   0  0  0  0  0  3  0  0  0  0  0  0
   38.7030   27.7140   43.3610 C   0  0  0  0  0  3  0  0  0  0  0  0
  1  4  1  0  0  0  0
  1 13  1  0  0  0  0
  2  1  1  0  0  0  0
  3  1  1  0  0  0  0
  4  5  1  0  0  0  0
  5  6  2  0  0  0  0
  5 10  1  0  0  0  0
  6 11  1  0  0  0  0
  7  6  1  0  0  0  0
  8  7  2  0  0  0  0
  9  8  1  0  0  0  0
  9  4  2  0  0  0  0
 12  8  1  0  0  0  0
 13 18  1  0  0  0  0
 13 14  1  0  0  0  0
 15 13  1  0  0  0  0
 17 16  1  0  0  0  0
 17 24  1  0  0  0  0
 18 17  2  0  0  0  0
 19 18  1  0  0  0  0
 19 21  2  0  0  0  0
 20 19  1  0  0  0  0
 21 23  1  0  0  0  0
 22 21  1  0  0  0  0
 23 24  2  0  0  0  0
M  END
>  <minimizedAffinity>
-4.41772366

$$$$

 OpenBabel03252506593D

 24 25  0  0  0  0  0  0  0  0999 V2000
   39.9180   30.5940   41.1750 C   0  0  0  0  0  0  0  0  0  0  0  0
   40.1410   29.5720   40.8290 H   0  0  0  0  0  0  0  0  0  0  0  0
   40.8610   31.2180   41.2140 H   0  0  0  0  0  0  0  0  0  0  0  0
   38.9920   31.3070   40.3030 C   0  0  0  0  0  0  0  0  0  0  0  0
   38.5570   30.7900   39.0910 C   0  0  0  0  0  0  0  0  0  0  0  0
   37.6450   31.5550   38.3260 C   0  0  0  0  0  0  0  0  0  0  0  0
   37.2470   32.7590   38.8290 N   0  0  0  0  0  0  0  0  0  0  0  0
   37.6990   33.2110   40.0080 C   0  0  0  0  0  0  0  0  0  0  0  0
   38.5550   32.5100   40.7420 N   0  0  0  0  0  0  0  0  0  0  0  0
   38.9070   29.8300   38.7450 H   0  0  0  0  0  0  0  0  0  0  0  0
   37.3160   31.1420   37.3880 H   0  0  0  0  0  0  0  0  0  0  0  0
   37.3300   34.1820   40.3330 H   0  0  0  0  0  0  0  0  0  0  0  0
   39.3260   30.5460   42.5600 C   0  0  0  0  0  0  0  0  0  0  0  0
   40.0660   30.7640   43.3420 H   0  0  0  0  0  0  0  0  0  0  0  0
   38.5180   31.2960   42.6810 H   0  0  0  0  0  0  0  0  0  0  0  0
   36.6500   30.1780   42.0890 F   0  0  0  0  0  0  0  0  0  0  0  0
   37.3930   29.1110   42.4560 C   0  0  0  0  0  0  0  0  0  0  0  0
   38.7430   29.1680   42.7200 C   0  0  0  0  0  0  0  0  0  0  0  0
   39.4810   28.0610   43.0950 C   0  0  0  0  0  0  0  0  0  0  0  0
   40.5380   28.1910   43.2850 H   0  0  0  0  0  0  0  0  0  0  0  0
   38.8030   26.8630   43.1990 C   0  0  0  0  0  0  0  0  0  0  0  0
   39.3680   25.9680   43.4950 H   0  0  0  0  0  0  0  0  0  0  0  0
   37.4540   26.7730   42.9430 C   0  0  0  0  0  3  0  0  0  0  0  0
   36.7220   27.8920   42.5670 C   0  0  0  0  0  3  0  0  0  0  0  0
  1  3  1  0  0  0  0
  1 13  1  0  0  0  0
  2  1  1  0  0  0  0
  4  9  1  0  0  0  0
  4  1  1  0  0  0  0
  5  4  2  0  0  0  0
  6  7  2  0  0  0  0
  6  5  1  0  0  0  0
  7  8  1  0  0  0  0
  8 12  1  0  0  0  0
  8  9  2  0  0  0  0
 10  5  1  0  0  0  0
 11  6  1  0  0  0  0
 13 15  1  0  0  0  0
 13 18  1  0  0  0  0
 13 14  1  0  0  0  0
 16 17  1  0  0  0  0
 17 24  2  0  0  0  0
 17 18  1  0  0  0  0
 18 19  2  0  0  0  0
 19 21  1  0  0  0  0
 19 20  1  0  0  0  0
 21 22  1  0  0  0  0
 23 21  2  0  0  0  0
 24 23  1  0  0  0  0
M  END
>  <minimizedAffinity>
-4.39485884

$$$$

 OpenBabel03252506593D

 24 25  0  0  0  0  0  0  0  0999 V2000
   36.6050   27.6410   42.9330 C   0  0  0  0  0  0  0  0  0  0  0  0
   35.6600   27.5000   42.3820 H   0  0  0  0  0  0  0  0  0  0  0  0
   36.4070   27.7670   44.0400 H   0  0  0  0  0  0  0  0  0  0  0  0
   37.5180   26.5130   42.8060 C   0  0  0  0  0  0  0  0  0  0  0  0
   37.1620   25.3290   42.1750 C   0  0  0  0  0  0  0  0  0  0  0  0
   38.1280   24.2980   42.0910 C   0  0  0  0  0  0  0  0  0  0  0  0
   39.3560   24.5330   42.6370 N   0  0  0  0  0  0  0  0  0  0  0  0
   39.6470   25.6960   43.2360 C   0  0  0  0  0  0  0  0  0  0  0  0
   38.7560   26.6770   43.3260 N   0  0  0  0  0  0  0  0  0  0  0  0
   36.1740   25.2020   41.7610 H   0  0  0  0  0  0  0  0  0  0  0  0
   37.8380   23.3860   41.5990 H   0  0  0  0  0  0  0  0  0  0  0  0
   40.6510   25.7980   43.6450 H   0  0  0  0  0  0  0  0  0  0  0  0
   37.3060   28.8790   42.4350 C   0  0  0  0  0  0  0  0  0  0  0  0
   37.1860   29.7330   43.1160 H   0  0  0  0  0  0  0  0  0  0  0  0
   38.3980   28.7130   42.3360 H   0  0  0  0  0  0  0  0  0  0  0  0
   38.8940   30.0870   40.5550 F   0  0  0  0  0  0  0  0  0  0  0  0
   37.6220   29.7770   40.2210 C   0  0  0  0  0  0  0  0  0  0  0  0
   36.7290   29.1710   41.0770 C   0  0  0  0  0  0  0  0  0  0  0  0
   35.4310   28.8650   40.7110 C   0  0  0  0  0  0  0  0  0  0  0  0
   34.7920   28.3890   41.4430 H   0  0  0  0  0  0  0  0  0  0  0  0
   35.0480   29.1960   39.4270 C   0  0  0  0  0  0  0  0  0  0  0  0
   34.0210   28.9630   39.1130 H   0  0  0  0  0  0  0  0  0  0  0  0
   35.9160   29.8030   38.5490 C   0  0  0  0  0  3  0  0  0  0  0  0
   37.2180   30.1060   38.9260 C   0  0  0  0  0  3  0  0  0  0  0  0
  1  3  1  0  0  0  0
  2  1  1  0  0  0  0
  4  1  1  0  0  0  0
  4  9  1  0  0  0  0
  5  4  2  0  0  0  0
  6  5  1  0  0  0  0
  6  7  2  0  0  0  0
  7  8  1  0  0  0  0
  8  9  2  0  0  0  0
  8 12  1  0  0  0  0
 10  5  1  0  0  0  0
 11  6  1  0  0  0  0
 13  1  1  0  0  0  0
 13 14  1  0  0  0  0
 15 13  1  0  0  0  0
 17 16  1  0  0  0  0
 17 18  1  0  0  0  0
 18 13  1  0  0  0  0
 19 18  2  0  0  0  0
 19 20  1  0  0  0  0
 21 19  1  0  0  0  0
 22 21  1  0  0  0  0
 23 24  1  0  0  0  0
 23 21  2  0  0  0  0
 24 17  2  0  0  0  0
M  END
>  <minimizedAffinity>
-4.34256649

$$$$
