
 OpenBabel03252507223D

 47 50  0  0  1  0  0  0  0  0999 V2000
   45.9930   32.7340   42.7630 C   0  0  0  0  0  0  0  0  0  0  0  0
   47.2380   32.4600   42.7280 O   0  0  0  0  0  0  0  0  0  0  0  0
   45.0550   32.1830   41.8510 N   0  0  0  0  0  0  0  0  0  0  0  0
   43.7170   31.6190   42.0930 C   0  0  0  0  0  0  0  0  0  0  0  0
   42.7210   32.2970   41.1560 C   0  0  0  0  0  0  0  0  0  0  0  0
   43.0370   31.9360   39.7400 C   0  0  0  0  0  0  0  0  0  0  0  0
   44.4430   31.3640   39.6480 C   0  0  0  0  0  0  0  0  0  0  0  0
   45.4170   32.1390   40.4610 C   0  0  2  0  0  0  0  0  0  0  0  0
   43.7890   30.5400   41.9550 H   0  0  0  0  0  0  0  0  0  0  0  0
   43.4200   31.8900   43.1440 H   0  0  0  0  0  0  0  0  0  0  0  0
   41.6920   32.0700   41.4580 H   0  0  0  0  0  0  0  0  0  0  0  0
   42.9410   33.3990   41.2710 H   0  0  0  0  0  0  0  0  0  0  0  0
   42.3160   31.1500   39.3800 H   0  0  0  0  0  0  0  0  0  0  0  0
   42.9350   32.7920   39.0420 H   0  0  0  0  0  0  0  0  0  0  0  0
   44.7380   31.5290   38.5690 H   0  0  0  0  0  0  0  0  0  0  0  0
   44.4720   30.2790   39.8200 H   0  0  0  0  0  0  0  0  0  0  0  0
   45.3970   33.2000   40.0660 H   0  0  0  0  0  0  0  0  0  0  0  0
   45.0360   34.8940   43.3670 C   0  0  0  0  0  0  0  0  0  0  0  0
   45.5270   33.6450   43.7820 C   0  0  0  0  0  0  0  0  0  0  0  0
   45.5590   33.3080   45.1280 C   0  0  0  0  0  0  0  0  0  0  0  0
   45.0960   34.2380   46.0030 N   0  0  0  0  0  0  0  0  0  0  0  0
   44.6190   35.4440   45.6260 C   0  0  0  0  0  0  0  0  0  0  0  0
   44.5960   35.7580   44.3040 N   0  0  0  0  0  0  0  0  0  0  0  0
   45.0090   35.1620   42.3180 H   0  0  0  0  0  0  0  0  0  0  0  0
   44.2560   36.1690   46.3410 H   0  0  0  0  0  0  0  0  0  0  0  0
   46.0720   32.0220   45.5160 C   0  0  0  0  0  0  0  0  0  0  0  0
   45.3620   30.8940   45.2790 C   0  0  0  0  0  0  0  0  0  0  0  0
   45.8820   29.6760   45.6650 C   0  0  0  0  0  0  0  0  0  0  0  0
   47.1180   29.5500   46.2930 C   0  0  0  0  0  0  0  0  0  0  0  0
   47.8000   30.7320   46.5110 C   0  0  0  0  0  0  0  0  0  0  0  0
   47.2750   31.9150   46.1260 N   0  0  0  0  0  0  0  0  0  0  0  0
   44.4010   30.8400   44.8090 H   0  0  0  0  0  0  0  0  0  0  0  0
   45.3520   28.7480   45.4970 H   0  0  0  0  0  0  0  0  0  0  0  0
   47.5360   28.6200   46.5980 H   0  0  0  0  0  0  0  0  0  0  0  0
   48.7600   30.7900   46.9830 H   0  0  0  0  0  0  0  0  0  0  0  0
   46.8140   31.6570   40.2030 C   0  0  0  0  0  0  0  0  0  0  0  0
   46.8760   30.6520   39.7870 H   0  0  0  0  0  0  0  0  0  0  0  0
   47.5070   31.7970   41.0880 H   0  0  0  0  0  0  0  0  0  0  0  0
   46.8640   31.2570   37.3960 F   0  0  0  0  0  0  0  0  0  0  0  0
   47.3930   32.4350   37.8650 C   0  0  0  0  0  0  0  0  0  0  0  0
   47.3840   32.6610   39.2240 C   0  0  0  0  0  0  0  0  0  0  0  0
   47.9090   33.8290   39.6710 C   0  0  0  0  0  0  0  0  0  0  0  0
   47.8930   33.9890   40.7400 H   0  0  0  0  0  0  0  0  0  0  0  0
   48.4610   34.8290   38.8740 C   0  0  0  0  0  0  0  0  0  0  0  0
   48.8790   35.7570   39.2390 H   0  0  0  0  0  0  0  0  0  0  0  0
   48.4240   34.5100   37.5180 C   0  0  0  0  0  3  0  0  0  0  0  0
   47.9120   33.3520   36.9770 C   0  0  0  0  0  3  0  0  0  0  0  0
  1 19  1  0  0  0  0
  2  1  2  0  0  0  0
  3  4  1  0  0  0  0
  3  1  1  0  0  0  0
  4 10  1  0  0  0  0
  5 12  1  0  0  0  0
  5 11  1  0  0  0  0
  5  4  1  0  0  0  0
  6  5  1  0  0  0  0
  7  6  1  0  0  0  0
  7 16  1  0  0  0  0
  7  8  1  0  0  0  0
  8 17  1  6  0  0  0
  8  3  1  0  0  0  0
  9  4  1  0  0  0  0
 13  6  1  0  0  0  0
 14  6  1  0  0  0  0
 15  7  1  0  0  0  0
 18 19  2  0  0  0  0
 18 23  1  0  0  0  0
 19 20  1  0  0  0  0
 20 26  1  0  0  0  0
 20 21  2  0  0  0  0
 22 21  1  0  0  0  0
 22 25  1  0  0  0  0
 23 22  2  0  0  0  0
 24 18  1  0  0  0  0
 26 31  1  0  0  0  0
 27 26  2  0  0  0  0
 27 28  1  0  0  0  0
 28 29  2  0  0  0  0
 29 30  1  0  0  0  0
 29 34  1  0  0  0  0
 30 35  1  0  0  0  0
 31 30  2  0  0  0  0
 32 27  1  0  0  0  0
 33 28  1  0  0  0  0
 36  8  1  0  0  0  0
 36 38  1  0  0  0  0
 37 36  1  0  0  0  0
 39 40  1  0  0  0  0
 40 41  1  0  0  0  0
 41 42  2  0  0  0  0
 41 36  1  0  0  0  0
 42 43  1  0  0  0  0
 44 45  1  0  0  0  0
 44 42  1  0  0  0  0
 46 44  2  0  0  0  0
 47 46  1  0  0  0  0
 47 40  2  0  0  0  0
M  END
>  <minimizedAffinity>
-4.71801233

>  <minimizedRMSD>
2.70472908

$$$$
