
 OpenBabel03252506593D

 24 25  0  0  0  0  0  0  0  0999 V2000
   45.5500   33.8400   40.3810 C   0  0  0  0  0  0  0  0  0  0  0  0
   45.6710   33.2310   39.4700 H   0  0  0  0  0  0  0  0  0  0  0  0
   46.0170   34.8620   40.2440 H   0  0  0  0  0  0  0  0  0  0  0  0
   44.1560   34.0720   40.7370 C   0  0  0  0  0  0  0  0  0  0  0  0
   43.6890   35.3030   41.1760 C   0  0  0  0  0  0  0  0  0  0  0  0
   42.3130   35.4270   41.4800 C   0  0  0  0  0  0  0  0  0  0  0  0
   41.5260   34.3250   41.3240 N   0  0  0  0  0  0  0  0  0  0  0  0
   42.0280   33.1580   40.8950 C   0  0  0  0  0  0  0  0  0  0  0  0
   43.3170   33.0190   40.6030 N   0  0  0  0  0  0  0  0  0  0  0  0
   44.3620   36.1400   41.2800 H   0  0  0  0  0  0  0  0  0  0  0  0
   41.9660   36.3880   41.8200 H   0  0  0  0  0  0  0  0  0  0  0  0
   41.3290   32.3300   40.7990 H   0  0  0  0  0  0  0  0  0  0  0  0
   46.2310   33.1630   41.5420 C   0  0  0  0  0  0  0  0  0  0  0  0
   45.6040   33.1410   42.4440 H   0  0  0  0  0  0  0  0  0  0  0  0
   46.4740   32.1070   41.3090 H   0  0  0  0  0  0  0  0  0  0  0  0
   48.2460   31.9490   42.9510 F   0  0  0  0  0  0  0  0  0  0  0  0
   48.4440   33.2050   42.4960 C   0  0  0  0  0  0  0  0  0  0  0  0
   47.5100   33.9200   41.7780 C   0  0  0  0  0  0  0  0  0  0  0  0
   47.7380   35.2050   41.3250 C   0  0  0  0  0  0  0  0  0  0  0  0
   46.9510   35.6980   40.7670 H   0  0  0  0  0  0  0  0  0  0  0  0
   48.9630   35.7670   41.6220 C   0  0  0  0  0  0  0  0  0  0  0  0
   49.1680   36.7880   41.2720 H   0  0  0  0  0  0  0  0  0  0  0  0
   49.9180   35.0800   42.3370 C   0  0  0  0  0  3  0  0  0  0  0  0
   49.6780   33.7870   42.7880 C   0  0  0  0  0  3  0  0  0  0  0  0
  1  4  1  0  0  0  0
  1 13  1  0  0  0  0
  2  1  1  0  0  0  0
  3  1  1  0  0  0  0
  4  5  1  0  0  0  0
  5 10  1  0  0  0  0
  5  6  2  0  0  0  0
  6 11  1  0  0  0  0
  7  6  1  0  0  0  0
  8  7  2  0  0  0  0
  9  4  2  0  0  0  0
  9  8  1  0  0  0  0
 12  8  1  0  0  0  0
 13 18  1  0  0  0  0
 13 14  1  0  0  0  0
 15 13  1  0  0  0  0
 17 24  1  0  0  0  0
 17 16  1  0  0  0  0
 18 17  2  0  0  0  0
 19 21  2  0  0  0  0
 19 18  1  0  0  0  0
 20 19  1  0  0  0  0
 21 23  1  0  0  0  0
 22 21  1  0  0  0  0
 23 24  2  0  0  0  0
M  END
>  <minimizedAffinity>
-4.18166542

>  <minimizedRMSD>
4.01862574

$$$$
