
 OpenBabel03252506313D

 32 34  0  0  1  0  0  0  0  0999 V2000
   44.5840   35.7910   44.7230 C   0  0  0  0  0  0  0  0  0  0  0  0
   44.5390   35.4160   43.3740 C   0  0  0  0  0  0  0  0  0  0  0  0
   44.8780   34.1110   43.0170 C   0  0  0  0  0  0  0  0  0  0  0  0
   45.2400   33.2600   44.0250 N   0  0  0  0  0  0  0  0  0  0  0  0
   45.2720   33.6480   45.2990 C   0  0  0  0  0  0  0  0  0  0  0  0
   44.9510   34.9000   45.6710 N   0  0  0  0  0  0  0  0  0  0  0  0
   45.6640   32.6880   46.2730 N   0  0  0  0  0  0  0  0  0  0  0  0
   45.4570   32.8470   47.7200 C   0  0  0  0  0  0  0  0  0  0  0  0
   46.6990   32.2060   48.2710 C   0  0  0  0  0  0  0  0  0  0  0  0
   47.3750   31.4850   47.1390 C   0  0  0  0  0  0  0  0  0  0  0  0
   46.3080   31.4250   46.0990 C   0  0  2  0  0  0  0  0  0  0  0  0
   44.3190   36.8050   44.9900 H   0  0  0  0  0  0  0  0  0  0  0  0
   44.8360   33.8410   41.9700 H   0  0  0  0  0  0  0  0  0  0  0  0
   45.5300   33.9280   47.9270 H   0  0  0  0  0  0  0  0  0  0  0  0
   44.5280   32.3730   48.0680 H   0  0  0  0  0  0  0  0  0  0  0  0
   47.3750   32.9310   48.7670 H   0  0  0  0  0  0  0  0  0  0  0  0
   46.3780   31.4830   49.0480 H   0  0  0  0  0  0  0  0  0  0  0  0
   47.6410   30.4530   47.4650 H   0  0  0  0  0  0  0  0  0  0  0  0
   48.2750   32.0650   46.8310 H   0  0  0  0  0  0  0  0  0  0  0  0
   45.5870   30.6250   46.4550 H   0  0  0  0  0  0  0  0  0  0  0  0
   44.8540   29.7570   44.3950 F   0  0  0  0  0  0  0  0  0  0  0  0
   46.0540   30.2330   43.9440 C   0  0  0  0  0  0  0  0  0  0  0  0
   46.7970   31.0840   44.7720 C   0  0  0  0  0  0  0  0  0  0  0  0
   47.9700   31.4780   44.1910 C   0  0  0  0  0  0  0  0  0  0  0  0
   48.6260   32.1300   44.7570 H   0  0  0  0  0  0  0  0  0  0  0  0
   48.4170   31.1110   42.9390 C   0  0  0  0  0  0  0  0  0  0  0  0
   49.3600   31.4720   42.5580 H   0  0  0  0  0  0  0  0  0  0  0  0
   47.6360   30.2770   42.1880 C   0  0  0  0  0  3  0  0  0  0  0  0
   46.4390   29.8260   42.6850 C   0  0  0  0  0  3  0  0  0  0  0  0
   44.1380   36.4220   42.4290 N   0  0  0  0  0  0  0  0  0  0  0  0
   43.4950   36.0140   41.7090 H   0  0  0  0  0  0  0  0  0  0  0  0
   44.5310   37.3760   42.5920 H   0  0  0  0  0  0  0  0  0  0  0  0
  1 12  1  0  0  0  0
  1  6  1  0  0  0  0
  2  1  2  0  0  0  0
  3  2  1  0  0  0  0
  3  4  2  0  0  0  0
  4  5  1  0  0  0  0
  5  6  2  0  0  0  0
  5  7  1  0  0  0  0
  7  8  1  0  0  0  0
  8 14  1  0  0  0  0
  8 15  1  0  0  0  0
  8  9  1  0  0  0  0
  9 16  1  0  0  0  0
  9 17  1  0  0  0  0
 10 18  1  0  0  0  0
 10  9  1  0  0  0  0
 11  7  1  0  0  0  0
 11 20  1  1  0  0  0
 11 10  1  0  0  0  0
 13  3  1  0  0  0  0
 19 10  1  0  0  0  0
 22 21  1  0  0  0  0
 22 23  1  0  0  0  0
 23 11  1  0  0  0  0
 24 25  1  0  0  0  0
 24 23  2  0  0  0  0
 26 24  1  0  0  0  0
 27 26  1  0  0  0  0
 28 29  1  0  0  0  0
 28 26  2  0  0  0  0
 29 22  2  0  0  0  0
 30 32  1  0  0  0  0
 30  2  1  0  0  0  0
 31 30  1  0  0  0  0
M  END
>  <minimizedAffinity>
-4.55635405

>  <minimizedRMSD>
1.89264572

$$$$
