
 OpenBabel03252502353D

 40 42  0  0  1  0  0  0  0  0999 V2000
   38.3570   31.6720   40.9450 C   0  0  2  0  0  0  0  0  0  0  0  0
   37.7210   32.7480   40.0660 C   0  0  0  0  0  0  0  0  0  0  0  0
   38.4510   34.0290   40.4840 C   0  0  0  0  0  0  0  0  0  0  0  0
   39.8200   33.8620   39.8540 C   0  0  0  0  0  0  0  0  0  0  0  0
   40.5440   32.7220   40.4460 C   0  0  0  0  0  0  0  0  0  0  0  0
   39.7900   31.4460   40.6840 C   0  0  2  0  0  0  0  0  0  0  0  0
   38.2070   32.0840   41.9890 H   0  0  0  0  0  0  0  0  0  0  0  0
   37.8390   32.5410   39.0020 H   0  0  0  0  0  0  0  0  0  0  0  0
   36.6570   32.7890   40.3110 H   0  0  0  0  0  0  0  0  0  0  0  0
   38.5460   34.0280   41.5780 H   0  0  0  0  0  0  0  0  0  0  0  0
   37.9370   34.9100   40.0650 H   0  0  0  0  0  0  0  0  0  0  0  0
   40.4400   34.7540   39.9360 H   0  0  0  0  0  0  0  0  0  0  0  0
   39.6450   33.7070   38.7730 H   0  0  0  0  0  0  0  0  0  0  0  0
   41.3740   32.4470   39.7350 H   0  0  0  0  0  0  0  0  0  0  0  0
   41.0840   33.1120   41.3350 H   0  0  0  0  0  0  0  0  0  0  0  0
   40.1940   31.1000   41.6940 H   0  0  0  0  0  0  0  0  0  0  0  0
   40.7550   29.0000   41.5880 F   0  0  0  0  0  0  0  0  0  0  0  0
   40.6690   29.1260   40.2260 C   0  0  0  0  0  0  0  0  0  0  0  0
   40.1680   30.3570   39.7790 C   0  0  0  0  0  0  0  0  0  0  0  0
   40.0890   30.4620   38.3990 C   0  0  0  0  0  0  0  0  0  0  0  0
   39.7210   31.3550   37.9520 H   0  0  0  0  0  0  0  0  0  0  0  0
   40.4670   29.4490   37.5100 C   0  0  0  0  0  0  0  0  0  0  0  0
   40.3850   29.5830   36.4480 H   0  0  0  0  0  0  0  0  0  0  0  0
   40.9520   28.2650   38.0210 C   0  0  0  0  0  3  0  0  0  0  0  0
   41.0490   28.1100   39.3830 C   0  0  0  0  0  3  0  0  0  0  0  0
   35.8480   29.1100   39.8000 C   0  0  0  0  0  0  0  0  0  0  0  0
   36.6120   30.2950   39.7720 C   0  0  0  0  0  0  0  0  0  0  0  0
   37.5150   30.4900   40.8540 C   0  0  0  0  0  0  0  0  0  0  0  0
   37.5820   29.5420   41.8250 N   0  0  0  0  0  0  0  0  0  0  0  0
   36.8360   28.4400   41.8020 C   0  0  0  0  0  0  0  0  0  0  0  0
   35.9690   28.2230   40.7920 N   0  0  0  0  0  0  0  0  0  0  0  0
   36.5520   31.0460   38.9930 H   0  0  0  0  0  0  0  0  0  0  0  0
   34.9000   28.9120   38.6580 C   0  0  0  0  0  0  0  0  0  0  0  0
   34.9540   27.6210   38.1800 F   0  0  0  0  0  0  0  0  0  0  0  0
   33.6160   29.2600   39.0920 F   0  0  0  0  0  0  0  0  0  0  0  0
   35.1960   29.8150   37.6430 F   0  0  0  0  0  0  0  0  0  0  0  0
   36.9440   27.4300   42.8910 C   0  0  0  0  0  0  0  0  0  0  0  0
   38.0310   27.6590   43.6800 F   0  0  0  0  0  0  0  0  0  0  0  0
   36.9910   26.1290   42.3390 F   0  0  0  0  0  0  0  0  0  0  0  0
   35.8210   27.4220   43.6760 F   0  0  0  0  0  0  0  0  0  0  0  0
  1  7  1  1  0  0  0
  2  9  1  0  0  0  0
  2  3  1  0  0  0  0
  2  1  1  0  0  0  0
  3 10  1  0  0  0  0
  4 12  1  0  0  0  0
  4  5  1  0  0  0  0
  4  3  1  0  0  0  0
  5  6  1  0  0  0  0
  5 15  1  0  0  0  0
  6  1  1  0  0  0  0
  6 16  1  1  0  0  0
  8  2  1  0  0  0  0
 11  3  1  0  0  0  0
 13  4  1  0  0  0  0
 14  5  1  0  0  0  0
 18 17  1  0  0  0  0
 19 18  1  0  0  0  0
 19  6  1  0  0  0  0
 20 19  2  0  0  0  0
 21 20  1  0  0  0  0
 22 24  2  0  0  0  0
 22 20  1  0  0  0  0
 23 22  1  0  0  0  0
 24 25  1  0  0  0  0
 25 18  2  0  0  0  0
 26 31  1  0  0  0  0
 27 26  2  0  0  0  0
 27 28  1  0  0  0  0
 28  1  1  0  0  0  0
 28 29  2  0  0  0  0
 30 29  1  0  0  0  0
 30 37  1  0  0  0  0
 31 30  2  0  0  0  0
 32 27  1  0  0  0  0
 33 35  1  0  0  0  0
 33 26  1  0  0  0  0
 34 33  1  0  0  0  0
 36 33  1  0  0  0  0
 37 40  1  0  0  0  0
 37 38  1  0  0  0  0
 39 37  1  0  0  0  0
M  END
>  <minimizedAffinity>
-6.10774374

$$$$

 OpenBabel03252502353D

 40 42  0  0  1  0  0  0  0  0999 V2000
   38.5130   28.9610   42.1350 C   0  0  2  0  0  0  0  0  0  0  0  0
   39.5030   27.8010   42.2210 C   0  0  0  0  0  0  0  0  0  0  0  0
   39.1990   27.1720   43.5850 C   0  0  0  0  0  0  0  0  0  0  0  0
   37.8820   26.4590   43.3450 C   0  0  0  0  0  0  0  0  0  0  0  0
   36.8030   27.4180   43.0460 C   0  0  0  0  0  0  0  0  0  0  0  0
   37.0980   28.5490   42.1040 C   0  0  2  0  0  0  0  0  0  0  0  0
   38.7330   29.5450   43.0800 H   0  0  0  0  0  0  0  0  0  0  0  0
   39.3790   27.0860   41.4060 H   0  0  0  0  0  0  0  0  0  0  0  0
   40.5100   28.2220   42.1830 H   0  0  0  0  0  0  0  0  0  0  0  0
   39.0520   27.9830   44.3110 H   0  0  0  0  0  0  0  0  0  0  0  0
   39.9870   26.4480   43.8510 H   0  0  0  0  0  0  0  0  0  0  0  0
   37.5750   25.8350   44.1840 H   0  0  0  0  0  0  0  0  0  0  0  0
   38.0540   25.7720   42.4960 H   0  0  0  0  0  0  0  0  0  0  0  0
   35.9660   26.8410   42.5610 H   0  0  0  0  0  0  0  0  0  0  0  0
   36.3710   27.7300   44.0200 H   0  0  0  0  0  0  0  0  0  0  0  0
   36.5530   29.4280   42.5890 H   0  0  0  0  0  0  0  0  0  0  0  0
   35.4540   30.5270   41.0460 F   0  0  0  0  0  0  0  0  0  0  0  0
   35.5980   29.4090   40.2660 C   0  0  0  0  0  0  0  0  0  0  0  0
   36.4390   28.4230   40.8010 C   0  0  0  0  0  0  0  0  0  0  0  0
   36.5700   27.3010   39.9970 C   0  0  0  0  0  0  0  0  0  0  0  0
   37.1870   26.4920   40.3060 H   0  0  0  0  0  0  0  0  0  0  0  0
   35.9330   27.1420   38.7600 C   0  0  0  0  0  0  0  0  0  0  0  0
   36.0690   26.2510   38.1760 H   0  0  0  0  0  0  0  0  0  0  0  0
   35.1190   28.1530   38.2980 C   0  0  0  0  0  3  0  0  0  0  0  0
   34.9570   29.2870   39.0580 C   0  0  0  0  0  3  0  0  0  0  0  0
   40.0100   30.2060   38.9130 C   0  0  0  0  0  0  0  0  0  0  0  0
   39.6510   29.2830   39.9170 C   0  0  0  0  0  0  0  0  0  0  0  0
   38.9380   29.8070   41.0310 C   0  0  0  0  0  0  0  0  0  0  0  0
   38.6550   31.1370   41.0560 N   0  0  0  0  0  0  0  0  0  0  0  0
   39.0180   31.9640   40.0800 C   0  0  0  0  0  0  0  0  0  0  0  0
   39.6960   31.5010   39.0090 N   0  0  0  0  0  0  0  0  0  0  0  0
   39.8810   28.2250   39.8890 H   0  0  0  0  0  0  0  0  0  0  0  0
   40.7600   29.6470   37.7440 C   0  0  0  0  0  0  0  0  0  0  0  0
   39.9450   28.8720   36.9490 F   0  0  0  0  0  0  0  0  0  0  0  0
   41.3250   30.7150   37.0380 F   0  0  0  0  0  0  0  0  0  0  0  0
   41.8420   28.9010   38.1970 F   0  0  0  0  0  0  0  0  0  0  0  0
   38.6860   33.4140   40.1520 C   0  0  0  0  0  0  0  0  0  0  0  0
   37.4160   33.6580   39.7210 F   0  0  0  0  0  0  0  0  0  0  0  0
   39.6220   34.1610   39.4010 F   0  0  0  0  0  0  0  0  0  0  0  0
   38.8200   33.8910   41.4300 F   0  0  0  0  0  0  0  0  0  0  0  0
  1  2  1  0  0  0  0
  1  7  1  1  0  0  0
  2  3  1  0  0  0  0
  3 11  1  0  0  0  0
  3 10  1  0  0  0  0
  4  3  1  0  0  0  0
  4 12  1  0  0  0  0
  5  4  1  0  0  0  0
  5 15  1  0  0  0  0
  6  1  1  0  0  0  0
  6 16  1  1  0  0  0
  6  5  1  0  0  0  0
  8  2  1  0  0  0  0
  9  2  1  0  0  0  0
 13  4  1  0  0  0  0
 14  5  1  0  0  0  0
 18 19  1  0  0  0  0
 18 17  1  0  0  0  0
 19  6  1  0  0  0  0
 20 21  1  0  0  0  0
 20 19  2  0  0  0  0
 22 20  1  0  0  0  0
 23 22  1  0  0  0  0
 24 22  2  0  0  0  0
 24 25  1  0  0  0  0
 25 18  2  0  0  0  0
 26 31  2  0  0  0  0
 26 27  1  0  0  0  0
 27 28  2  0  0  0  0
 28 29  1  0  0  0  0
 28  1  1  0  0  0  0
 30 37  1  0  0  0  0
 30 29  2  0  0  0  0
 31 30  1  0  0  0  0
 32 27  1  0  0  0  0
 33 36  1  0  0  0  0
 33 26  1  0  0  0  0
 34 33  1  0  0  0  0
 35 33  1  0  0  0  0
 37 40  1  0  0  0  0
 38 37  1  0  0  0  0
 39 37  1  0  0  0  0
M  END
>  <minimizedAffinity>
-6.0892477

$$$$

 OpenBabel03252502353D

 40 42  0  0  1  0  0  0  0  0999 V2000
   39.7450   28.1080   39.5800 C   0  0  2  0  0  0  0  0  0  0  0  0
   39.5120   27.0020   38.5510 C   0  0  0  0  0  0  0  0  0  0  0  0
   40.8370   26.2310   38.5480 C   0  0  0  0  0  0  0  0  0  0  0  0
   40.7900   25.4700   39.8600 C   0  0  0  0  0  0  0  0  0  0  0  0
   40.8120   26.3910   41.0120 C   0  0  0  0  0  0  0  0  0  0  0  0
   39.9530   27.6210   40.9550 C   0  0  2  0  0  0  0  0  0  0  0  0
   40.6830   28.6110   39.1940 H   0  0  0  0  0  0  0  0  0  0  0  0
   38.6680   26.3620   38.8110 H   0  0  0  0  0  0  0  0  0  0  0  0
   39.3200   27.4810   37.5880 H   0  0  0  0  0  0  0  0  0  0  0  0
   41.6580   26.9600   38.5750 H   0  0  0  0  0  0  0  0  0  0  0  0
   40.8650   25.5310   37.6970 H   0  0  0  0  0  0  0  0  0  0  0  0
   41.6030   24.7530   39.9670 H   0  0  0  0  0  0  0  0  0  0  0  0
   39.8570   24.8770   39.8390 H   0  0  0  0  0  0  0  0  0  0  0  0
   40.4450   25.8150   41.9070 H   0  0  0  0  0  0  0  0  0  0  0  0
   41.8800   26.5840   41.2480 H   0  0  0  0  0  0  0  0  0  0  0  0
   40.6250   28.4170   41.4220 H   0  0  0  0  0  0  0  0  0  0  0  0
   39.4280   29.6170   42.8190 F   0  0  0  0  0  0  0  0  0  0  0  0
   38.5360   28.5750   42.8110 C   0  0  0  0  0  0  0  0  0  0  0  0
   38.8000   27.5810   41.8590 C   0  0  0  0  0  0  0  0  0  0  0  0
   37.8870   26.5380   41.8700 C   0  0  0  0  0  0  0  0  0  0  0  0
   37.9930   25.7300   41.1860 H   0  0  0  0  0  0  0  0  0  0  0  0
   36.7910   26.4610   42.7380 C   0  0  0  0  0  0  0  0  0  0  0  0
   36.1130   25.6290   42.7040 H   0  0  0  0  0  0  0  0  0  0  0  0
   36.5950   27.4750   43.6490 C   0  0  0  0  0  3  0  0  0  0  0  0
   37.4720   28.5320   43.6790 C   0  0  0  0  0  3  0  0  0  0  0  0
   37.7620   31.3050   39.4510 C   0  0  0  0  0  0  0  0  0  0  0  0
   38.8810   30.4670   39.6360 C   0  0  0  0  0  0  0  0  0  0  0  0
   38.6730   29.0770   39.4190 C   0  0  0  0  0  0  0  0  0  0  0  0
   37.4340   28.6530   39.0550 N   0  0  0  0  0  0  0  0  0  0  0  0
   36.4110   29.4880   38.8940 C   0  0  0  0  0  0  0  0  0  0  0  0
   36.5720   30.8130   39.0930 N   0  0  0  0  0  0  0  0  0  0  0  0
   39.8660   30.8140   39.9260 H   0  0  0  0  0  0  0  0  0  0  0  0
   37.9890   32.7660   39.6820 C   0  0  0  0  0  0  0  0  0  0  0  0
   36.9500   33.5200   39.1810 F   0  0  0  0  0  0  0  0  0  0  0  0
   38.1730   32.9680   41.0540 F   0  0  0  0  0  0  0  0  0  0  0  0
   39.1890   33.1510   39.0960 F   0  0  0  0  0  0  0  0  0  0  0  0
   35.0700   28.9760   38.4960 C   0  0  0  0  0  0  0  0  0  0  0  0
   34.6820   29.4770   37.2890 F   0  0  0  0  0  0  0  0  0  0  0  0
   34.1190   29.2860   39.4950 F   0  0  0  0  0  0  0  0  0  0  0  0
   35.0590   27.6080   38.4320 F   0  0  0  0  0  0  0  0  0  0  0  0
  1  7  1  6  0  0  0
  1  6  1  0  0  0  0
  2  8  1  0  0  0  0
  2  1  1  0  0  0  0
  3  2  1  0  0  0  0
  3 10  1  0  0  0  0
  3  4  1  0  0  0  0
  4 12  1  0  0  0  0
  4  5  1  0  0  0  0
  5 15  1  0  0  0  0
  5 14  1  0  0  0  0
  6  5  1  0  0  0  0
  6 16  1  1  0  0  0
  6 19  1  0  0  0  0
  9  2  1  0  0  0  0
 11  3  1  0  0  0  0
 13  4  1  0  0  0  0
 18 17  1  0  0  0  0
 18 25  1  0  0  0  0
 19 20  1  0  0  0  0
 19 18  2  0  0  0  0
 20 22  2  0  0  0  0
 21 20  1  0  0  0  0
 22 24  1  0  0  0  0
 23 22  1  0  0  0  0
 24 25  2  0  0  0  0
 26 27  1  0  0  0  0
 26 33  1  0  0  0  0
 27 32  1  0  0  0  0
 28  1  1  0  0  0  0
 28 27  2  0  0  0  0
 29 28  1  0  0  0  0
 30 29  2  0  0  0  0
 30 31  1  0  0  0  0
 31 26  2  0  0  0  0
 33 35  1  0  0  0  0
 34 33  1  0  0  0  0
 36 33  1  0  0  0  0
 37 30  1  0  0  0  0
 37 39  1  0  0  0  0
 38 37  1  0  0  0  0
 40 37  1  0  0  0  0
M  END
>  <minimizedAffinity>
-5.99227667

$$$$

 OpenBabel03252502353D

 40 42  0  0  1  0  0  0  0  0999 V2000
   35.6450   29.5850   38.6920 C   0  0  2  0  0  0  0  0  0  0  0  0
   34.4910   28.5940   38.8310 C   0  0  0  0  0  0  0  0  0  0  0  0
   33.5180   29.0190   37.7250 C   0  0  0  0  0  0  0  0  0  0  0  0
   34.2090   28.5400   36.4630 C   0  0  0  0  0  0  0  0  0  0  0  0
   35.4780   29.2590   36.2430 C   0  0  0  0  0  0  0  0  0  0  0  0
   36.3820   29.4820   37.4200 C   0  0  2  0  0  0  0  0  0  0  0  0
   35.1210   30.5860   38.7650 H   0  0  0  0  0  0  0  0  0  0  0  0
   34.8140   27.5580   38.7140 H   0  0  0  0  0  0  0  0  0  0  0  0
   34.0580   28.7270   39.8250 H   0  0  0  0  0  0  0  0  0  0  0  0
   33.4630   30.1160   37.7210 H   0  0  0  0  0  0  0  0  0  0  0  0
   32.5510   28.5070   37.8550 H   0  0  0  0  0  0  0  0  0  0  0  0
   33.5890   28.6400   35.5720 H   0  0  0  0  0  0  0  0  0  0  0  0
   34.3810   27.4560   36.5980 H   0  0  0  0  0  0  0  0  0  0  0  0
   36.0850   28.6510   35.5150 H   0  0  0  0  0  0  0  0  0  0  0  0
   35.2300   30.1780   35.6700 H   0  0  0  0  0  0  0  0  0  0  0  0
   36.7630   30.5440   37.2450 H   0  0  0  0  0  0  0  0  0  0  0  0
   38.9250   30.6030   37.3310 F   0  0  0  0  0  0  0  0  0  0  0  0
   38.8910   29.2320   37.3290 C   0  0  0  0  0  0  0  0  0  0  0  0
   37.6050   28.6750   37.3890 C   0  0  0  0  0  0  0  0  0  0  0  0
   37.5940   27.2900   37.3860 C   0  0  0  0  0  0  0  0  0  0  0  0
   36.6700   26.7640   37.4300 H   0  0  0  0  0  0  0  0  0  0  0  0
   38.7440   26.4940   37.3310 C   0  0  0  0  0  0  0  0  0  0  0  0
   38.6790   25.4220   37.3320 H   0  0  0  0  0  0  0  0  0  0  0  0
   39.9750   27.1110   37.2740 C   0  0  0  0  0  3  0  0  0  0  0  0
   40.0410   28.4830   37.2740 C   0  0  0  0  0  3  0  0  0  0  0  0
   37.1420   28.3890   41.9330 C   0  0  0  0  0  0  0  0  0  0  0  0
   36.2960   28.3880   40.8040 C   0  0  0  0  0  0  0  0  0  0  0  0
   36.4580   29.4680   39.8920 C   0  0  0  0  0  0  0  0  0  0  0  0
   37.3980   30.4120   40.1610 N   0  0  0  0  0  0  0  0  0  0  0  0
   38.1710   30.3640   41.2430 C   0  0  0  0  0  0  0  0  0  0  0  0
   38.0440   29.3550   42.1290 N   0  0  0  0  0  0  0  0  0  0  0  0
   35.5490   27.6310   40.5990 H   0  0  0  0  0  0  0  0  0  0  0  0
   36.9660   27.2510   42.8880 C   0  0  0  0  0  0  0  0  0  0  0  0
   35.8520   27.4280   43.6800 F   0  0  0  0  0  0  0  0  0  0  0  0
   36.9030   26.0650   42.1470 F   0  0  0  0  0  0  0  0  0  0  0  0
   38.1030   27.1230   43.6780 F   0  0  0  0  0  0  0  0  0  0  0  0
   39.1870   31.4240   41.4950 C   0  0  0  0  0  0  0  0  0  0  0  0
   40.2290   31.3360   40.6210 F   0  0  0  0  0  0  0  0  0  0  0  0
   39.6460   31.3430   42.8300 F   0  0  0  0  0  0  0  0  0  0  0  0
   38.6350   32.6750   41.4030 F   0  0  0  0  0  0  0  0  0  0  0  0
  1  7  1  1  0  0  0
  1  2  1  0  0  0  0
  1 28  1  0  0  0  0
  2  9  1  0  0  0  0
  3 11  1  0  0  0  0
  3  2  1  0  0  0  0
  4 13  1  0  0  0  0
  4  3  1  0  0  0  0
  5  4  1  0  0  0  0
  5  6  1  0  0  0  0
  6 16  1  6  0  0  0
  6  1  1  0  0  0  0
  8  2  1  0  0  0  0
 10  3  1  0  0  0  0
 12  4  1  0  0  0  0
 14  5  1  0  0  0  0
 15  5  1  0  0  0  0
 18 17  1  0  0  0  0
 18 19  1  0  0  0  0
 19  6  1  0  0  0  0
 20 19  2  0  0  0  0
 20 21  1  0  0  0  0
 22 23  1  0  0  0  0
 22 20  1  0  0  0  0
 24 25  1  0  0  0  0
 24 22  2  0  0  0  0
 25 18  2  0  0  0  0
 26 31  1  0  0  0  0
 26 33  1  0  0  0  0
 27 26  2  0  0  0  0
 28 29  2  0  0  0  0
 28 27  1  0  0  0  0
 29 30  1  0  0  0  0
 30 37  1  0  0  0  0
 30 31  2  0  0  0  0
 32 27  1  0  0  0  0
 33 36  1  0  0  0  0
 33 34  1  0  0  0  0
 35 33  1  0  0  0  0
 37 39  1  0  0  0  0
 38 37  1  0  0  0  0
 40 37  1  0  0  0  0
M  END
>  <minimizedAffinity>
-5.97089863

$$$$

 OpenBabel03252502353D

 40 42  0  0  1  0  0  0  0  0999 V2000
   40.0040   28.3850   39.8110 C   0  0  2  0  0  0  0  0  0  0  0  0
   39.9760   27.2790   38.7580 C   0  0  0  0  0  0  0  0  0  0  0  0
   41.3670   26.6450   38.8660 C   0  0  0  0  0  0  0  0  0  0  0  0
   41.2840   25.8620   40.1630 C   0  0  0  0  0  0  0  0  0  0  0  0
   41.1110   26.7610   41.3190 C   0  0  0  0  0  0  0  0  0  0  0  0
   40.1400   27.8990   41.1960 C   0  0  2  0  0  0  0  0  0  0  0  0
   40.9160   28.9860   39.5140 H   0  0  0  0  0  0  0  0  0  0  0  0
   39.1820   26.5520   38.9380 H   0  0  0  0  0  0  0  0  0  0  0  0
   39.8200   27.7510   37.7850 H   0  0  0  0  0  0  0  0  0  0  0  0
   42.1040   27.4520   38.9700 H   0  0  0  0  0  0  0  0  0  0  0  0
   41.5400   25.9660   38.0150 H   0  0  0  0  0  0  0  0  0  0  0  0
   42.1540   25.2290   40.3360 H   0  0  0  0  0  0  0  0  0  0  0  0
   40.4210   25.1780   40.0550 H   0  0  0  0  0  0  0  0  0  0  0  0
   40.7290   26.1360   42.1740 H   0  0  0  0  0  0  0  0  0  0  0  0
   42.1300   27.0570   41.6500 H   0  0  0  0  0  0  0  0  0  0  0  0
   40.6850   28.7510   41.7260 H   0  0  0  0  0  0  0  0  0  0  0  0
   39.2270   29.8230   42.9840 F   0  0  0  0  0  0  0  0  0  0  0  0
   38.4630   28.6860   42.9090 C   0  0  0  0  0  0  0  0  0  0  0  0
   38.9230   27.7280   41.9950 C   0  0  0  0  0  0  0  0  0  0  0  0
   38.1370   26.5880   41.9350 C   0  0  0  0  0  0  0  0  0  0  0  0
   38.3950   25.7960   41.2730 H   0  0  0  0  0  0  0  0  0  0  0  0
   36.9850   26.3860   42.7040 C   0  0  0  0  0  0  0  0  0  0  0  0
   36.4110   25.4820   42.6190 H   0  0  0  0  0  0  0  0  0  0  0  0
   36.5930   27.3720   43.5830 C   0  0  0  0  0  3  0  0  0  0  0  0
   37.3380   28.5230   43.6790 C   0  0  0  0  0  3  0  0  0  0  0  0
   36.5910   29.6610   38.8690 C   0  0  0  0  0  0  0  0  0  0  0  0
   37.6270   28.7260   39.0720 C   0  0  0  0  0  0  0  0  0  0  0  0
   38.8570   29.2430   39.5640 C   0  0  0  0  0  0  0  0  0  0  0  0
   38.9540   30.5780   39.8020 N   0  0  0  0  0  0  0  0  0  0  0  0
   37.9430   31.4170   39.5930 C   0  0  0  0  0  0  0  0  0  0  0  0
   36.7620   30.9610   39.1260 N   0  0  0  0  0  0  0  0  0  0  0  0
   37.5410   27.6640   38.8790 H   0  0  0  0  0  0  0  0  0  0  0  0
   35.2990   29.1100   38.3510 C   0  0  0  0  0  0  0  0  0  0  0  0
   34.9950   29.6260   37.1100 F   0  0  0  0  0  0  0  0  0  0  0  0
   35.3980   27.7140   38.3310 F   0  0  0  0  0  0  0  0  0  0  0  0
   34.2780   29.3880   39.2520 F   0  0  0  0  0  0  0  0  0  0  0  0
   38.0970   32.8730   39.8680 C   0  0  0  0  0  0  0  0  0  0  0  0
   36.9620   33.5620   39.5610 F   0  0  0  0  0  0  0  0  0  0  0  0
   39.2020   33.3840   39.1500 F   0  0  0  0  0  0  0  0  0  0  0  0
   38.4130   33.1000   41.1810 F   0  0  0  0  0  0  0  0  0  0  0  0
  1  7  1  6  0  0  0
  1  6  1  0  0  0  0
  2  3  1  0  0  0  0
  2  8  1  0  0  0  0
  2  1  1  0  0  0  0
  3 10  1  0  0  0  0
  3  4  1  0  0  0  0
  4 12  1  0  0  0  0
  4  5  1  0  0  0  0
  5 15  1  0  0  0  0
  5 14  1  0  0  0  0
  6  5  1  0  0  0  0
  6 16  1  1  0  0  0
  6 19  1  0  0  0  0
  9  2  1  0  0  0  0
 11  3  1  0  0  0  0
 13  4  1  0  0  0  0
 18 17  1  0  0  0  0
 18 25  1  0  0  0  0
 19 18  2  0  0  0  0
 20 19  1  0  0  0  0
 20 22  2  0  0  0  0
 21 20  1  0  0  0  0
 22 24  1  0  0  0  0
 23 22  1  0  0  0  0
 24 25  2  0  0  0  0
 26 27  2  0  0  0  0
 26 31  1  0  0  0  0
 27 28  1  0  0  0  0
 28 29  2  0  0  0  0
 28  1  1  0  0  0  0
 30 29  1  0  0  0  0
 30 37  1  0  0  0  0
 31 30  2  0  0  0  0
 32 27  1  0  0  0  0
 33 26  1  0  0  0  0
 33 36  1  0  0  0  0
 34 33  1  0  0  0  0
 35 33  1  0  0  0  0
 37 40  1  0  0  0  0
 38 37  1  0  0  0  0
 39 37  1  0  0  0  0
M  END
>  <minimizedAffinity>
-5.93932533

$$$$

 OpenBabel03252502353D

 40 42  0  0  1  0  0  0  0  0999 V2000
   37.8630   25.6750   39.3760 C   0  0  2  0  0  0  0  0  0  0  0  0
   36.7160   24.6720   39.2660 C   0  0  0  0  0  0  0  0  0  0  0  0
   37.4150   23.3130   39.3890 C   0  0  0  0  0  0  0  0  0  0  0  0
   37.7670   23.2450   40.8630 C   0  0  0  0  0  0  0  0  0  0  0  0
   38.7460   24.2850   41.2270 C   0  0  0  0  0  0  0  0  0  0  0  0
   38.5480   25.6700   40.6810 C   0  0  2  0  0  0  0  0  0  0  0  0
   38.5690   25.3340   38.5590 H   0  0  0  0  0  0  0  0  0  0  0  0
   35.9620   24.8140   40.0410 H   0  0  0  0  0  0  0  0  0  0  0  0
   36.2540   24.8030   38.2840 H   0  0  0  0  0  0  0  0  0  0  0  0
   38.3360   23.3470   38.7920 H   0  0  0  0  0  0  0  0  0  0  0  0
   36.7170   22.5040   39.1210 H   0  0  0  0  0  0  0  0  0  0  0  0
   38.1580   22.2730   41.1640 H   0  0  0  0  0  0  0  0  0  0  0  0
   36.8170   23.3790   41.4130 H   0  0  0  0  0  0  0  0  0  0  0  0
   38.7110   24.4010   42.3470 H   0  0  0  0  0  0  0  0  0  0  0  0
   39.7540   23.8560   41.0430 H   0  0  0  0  0  0  0  0  0  0  0  0
   39.6130   25.9920   40.4250 H   0  0  0  0  0  0  0  0  0  0  0  0
   40.0490   27.9280   41.2970 F   0  0  0  0  0  0  0  0  0  0  0  0
   38.8900   27.7840   42.0150 C   0  0  0  0  0  0  0  0  0  0  0  0
   38.1330   26.6500   41.6880 C   0  0  0  0  0  0  0  0  0  0  0  0
   36.9660   26.5240   42.4260 C   0  0  0  0  0  0  0  0  0  0  0  0
   36.3150   25.6990   42.2570 H   0  0  0  0  0  0  0  0  0  0  0  0
   36.5560   27.4300   43.4110 C   0  0  0  0  0  0  0  0  0  0  0  0
   35.6410   27.2840   43.9540 H   0  0  0  0  0  0  0  0  0  0  0  0
   37.3520   28.5220   43.6790 C   0  0  0  0  0  3  0  0  0  0  0  0
   38.5200   28.6930   42.9750 C   0  0  0  0  0  3  0  0  0  0  0  0
   35.5810   28.4820   38.3330 C   0  0  0  0  0  0  0  0  0  0  0  0
   35.9560   27.1880   38.7500 C   0  0  0  0  0  0  0  0  0  0  0  0
   37.3470   26.9660   38.9510 C   0  0  0  0  0  0  0  0  0  0  0  0
   38.2080   27.9950   38.7320 N   0  0  0  0  0  0  0  0  0  0  0  0
   37.8000   29.1980   38.3380 C   0  0  0  0  0  0  0  0  0  0  0  0
   36.4890   29.4430   38.1380 N   0  0  0  0  0  0  0  0  0  0  0  0
   35.2620   26.3740   38.9220 H   0  0  0  0  0  0  0  0  0  0  0  0
   34.1170   28.7070   38.1240 C   0  0  0  0  0  0  0  0  0  0  0  0
   33.5130   29.1770   39.2700 F   0  0  0  0  0  0  0  0  0  0  0  0
   33.9600   29.5880   37.0480 F   0  0  0  0  0  0  0  0  0  0  0  0
   33.5160   27.5230   37.7130 F   0  0  0  0  0  0  0  0  0  0  0  0
   38.7830   30.2940   38.1100 C   0  0  0  0  0  0  0  0  0  0  0  0
   38.1910   31.3860   37.5480 F   0  0  0  0  0  0  0  0  0  0  0  0
   39.8440   29.8280   37.3000 F   0  0  0  0  0  0  0  0  0  0  0  0
   39.3890   30.6700   39.2790 F   0  0  0  0  0  0  0  0  0  0  0  0
  1  7  1  6  0  0  0
  1  6  1  0  0  0  0
  2  1  1  0  0  0  0
  2  3  1  0  0  0  0
  2  8  1  0  0  0  0
  3  4  1  0  0  0  0
  4 12  1  0  0  0  0
  4  5  1  0  0  0  0
  4 13  1  0  0  0  0
  5 14  1  0  0  0  0
  6 16  1  6  0  0  0
  6  5  1  0  0  0  0
  6 19  1  0  0  0  0
  9  2  1  0  0  0  0
 10  3  1  0  0  0  0
 11  3  1  0  0  0  0
 15  5  1  0  0  0  0
 17 18  1  0  0  0  0
 18 25  1  0  0  0  0
 19 18  2  0  0  0  0
 19 20  1  0  0  0  0
 20 22  2  0  0  0  0
 21 20  1  0  0  0  0
 22 24  1  0  0  0  0
 22 23  1  0  0  0  0
 25 24  2  0  0  0  0
 26 27  1  0  0  0  0
 27 32  1  0  0  0  0
 27 28  2  0  0  0  0
 28  1  1  0  0  0  0
 29 28  1  0  0  0  0
 30 29  2  0  0  0  0
 31 26  2  0  0  0  0
 31 30  1  0  0  0  0
 33 26  1  0  0  0  0
 33 34  1  0  0  0  0
 35 33  1  0  0  0  0
 36 33  1  0  0  0  0
 37 30  1  0  0  0  0
 37 40  1  0  0  0  0
 38 37  1  0  0  0  0
 39 37  1  0  0  0  0
M  END
>  <minimizedAffinity>
-5.91969204

$$$$

 OpenBabel03252502353D

 40 42  0  0  1  0  0  0  0  0999 V2000
   37.2960   24.8510   39.2910 C   0  0  2  0  0  0  0  0  0  0  0  0
   36.0860   24.1020   39.8470 C   0  0  0  0  0  0  0  0  0  0  0  0
   36.0570   22.8080   39.0260 C   0  0  0  0  0  0  0  0  0  0  0  0
   37.2190   22.0180   39.5970 C   0  0  0  0  0  0  0  0  0  0  0  0
   38.5040   22.6890   39.3280 C   0  0  0  0  0  0  0  0  0  0  0  0
   38.5850   24.1750   39.5230 C   0  0  2  0  0  0  0  0  0  0  0  0
   37.0690   24.8980   38.1830 H   0  0  0  0  0  0  0  0  0  0  0  0
   36.1730   23.9040   40.9160 H   0  0  0  0  0  0  0  0  0  0  0  0
   35.2020   24.7180   39.6640 H   0  0  0  0  0  0  0  0  0  0  0  0
   36.2640   23.0630   37.9780 H   0  0  0  0  0  0  0  0  0  0  0  0
   35.1070   22.2740   39.1950 H   0  0  0  0  0  0  0  0  0  0  0  0
   37.2690   20.9970   39.2180 H   0  0  0  0  0  0  0  0  0  0  0  0
   37.0310   21.9340   40.6830 H   0  0  0  0  0  0  0  0  0  0  0  0
   39.2630   22.2560   40.0380 H   0  0  0  0  0  0  0  0  0  0  0  0
   38.8490   22.3350   38.3330 H   0  0  0  0  0  0  0  0  0  0  0  0
   39.2250   24.5100   38.6390 H   0  0  0  0  0  0  0  0  0  0  0  0
   40.7070   25.9650   39.3540 F   0  0  0  0  0  0  0  0  0  0  0  0
   40.4610   25.4680   40.6080 C   0  0  0  0  0  0  0  0  0  0  0  0
   39.3800   24.5770   40.6870 C   0  0  0  0  0  0  0  0  0  0  0  0
   39.1500   24.0880   41.9630 C   0  0  0  0  0  0  0  0  0  0  0  0
   38.3520   23.4050   42.1360 H   0  0  0  0  0  0  0  0  0  0  0  0
   39.9080   24.4340   43.0870 C   0  0  0  0  0  0  0  0  0  0  0  0
   39.6870   24.0240   44.0550 H   0  0  0  0  0  0  0  0  0  0  0  0
   40.9570   25.3150   42.9340 C   0  0  0  0  0  3  0  0  0  0  0  0
   41.2270   25.8300   41.6890 C   0  0  0  0  0  3  0  0  0  0  0  0
   37.0560   28.6030   39.4820 C   0  0  0  0  0  0  0  0  0  0  0  0
   37.1250   27.3260   38.8880 C   0  0  0  0  0  0  0  0  0  0  0  0
   37.2150   26.2190   39.7770 C   0  0  0  0  0  0  0  0  0  0  0  0
   37.2280   26.4580   41.1150 N   0  0  0  0  0  0  0  0  0  0  0  0
   37.1600   27.6860   41.6230 C   0  0  0  0  0  0  0  0  0  0  0  0
   37.0750   28.7580   40.8100 N   0  0  0  0  0  0  0  0  0  0  0  0
   37.1150   27.1450   37.8200 H   0  0  0  0  0  0  0  0  0  0  0  0
   36.9630   29.7620   38.5410 C   0  0  0  0  0  0  0  0  0  0  0  0
   36.7880   30.9480   39.2210 F   0  0  0  0  0  0  0  0  0  0  0  0
   38.1160   29.7740   37.7480 F   0  0  0  0  0  0  0  0  0  0  0  0
   35.9140   29.5580   37.6510 F   0  0  0  0  0  0  0  0  0  0  0  0
   37.1790   27.8980   43.0980 C   0  0  0  0  0  0  0  0  0  0  0  0
   38.2440   27.2760   43.6780 F   0  0  0  0  0  0  0  0  0  0  0  0
   35.9660   27.4450   43.6650 F   0  0  0  0  0  0  0  0  0  0  0  0
   37.2200   29.2310   43.4080 F   0  0  0  0  0  0  0  0  0  0  0  0
  1  7  1  6  0  0  0
  1  6  1  0  0  0  0
  1 28  1  0  0  0  0
  1  2  1  0  0  0  0
  2  8  1  0  0  0  0
  3 11  1  0  0  0  0
  3  4  1  0  0  0  0
  3  2  1  0  0  0  0
  4 13  1  0  0  0  0
  5  6  1  0  0  0  0
  5  4  1  0  0  0  0
  5 14  1  0  0  0  0
  6 16  1  6  0  0  0
  6 19  1  0  0  0  0
  9  2  1  0  0  0  0
 10  3  1  0  0  0  0
 12  4  1  0  0  0  0
 15  5  1  0  0  0  0
 17 18  1  0  0  0  0
 18 19  2  0  0  0  0
 18 25  1  0  0  0  0
 19 20  1  0  0  0  0
 20 21  1  0  0  0  0
 20 22  2  0  0  0  0
 22 23  1  0  0  0  0
 24 22  1  0  0  0  0
 25 24  2  0  0  0  0
 26 31  1  0  0  0  0
 27 26  2  0  0  0  0
 27 28  1  0  0  0  0
 28 29  2  0  0  0  0
 29 30  1  0  0  0  0
 30 37  1  0  0  0  0
 31 30  2  0  0  0  0
 32 27  1  0  0  0  0
 33 34  1  0  0  0  0
 33 26  1  0  0  0  0
 35 33  1  0  0  0  0
 36 33  1  0  0  0  0
 37 40  1  0  0  0  0
 37 39  1  0  0  0  0
 37 38  1  0  0  0  0
M  END
>  <minimizedAffinity>
-5.90078354

$$$$

 OpenBabel03252502353D

 40 42  0  0  1  0  0  0  0  0999 V2000
   39.7610   29.1990   38.7170 C   0  0  2  0  0  0  0  0  0  0  0  0
   40.9520   28.8020   39.5870 C   0  0  0  0  0  0  0  0  0  0  0  0
   42.1350   28.8370   38.6130 C   0  0  0  0  0  0  0  0  0  0  0  0
   42.3620   30.3230   38.4080 C   0  0  0  0  0  0  0  0  0  0  0  0
   41.2100   30.9510   37.7350 C   0  0  0  0  0  0  0  0  0  0  0  0
   39.8290   30.5720   38.1870 C   0  0  2  0  0  0  0  0  0  0  0  0
   39.8100   28.4470   37.8720 H   0  0  0  0  0  0  0  0  0  0  0  0
   41.0980   29.4800   40.4290 H   0  0  0  0  0  0  0  0  0  0  0  0
   40.7660   27.7930   39.9630 H   0  0  0  0  0  0  0  0  0  0  0  0
   41.8130   28.3800   37.6670 H   0  0  0  0  0  0  0  0  0  0  0  0
   43.0200   28.3710   39.0760 H   0  0  0  0  0  0  0  0  0  0  0  0
   43.2650   30.5420   37.8380 H   0  0  0  0  0  0  0  0  0  0  0  0
   42.5210   30.7520   39.4140 H   0  0  0  0  0  0  0  0  0  0  0  0
   41.2850   32.0610   37.9100 H   0  0  0  0  0  0  0  0  0  0  0  0
   41.3820   30.8490   36.6420 H   0  0  0  0  0  0  0  0  0  0  0  0
   39.2530   30.5080   37.2030 H   0  0  0  0  0  0  0  0  0  0  0  0
   37.3840   31.6110   37.3670 F   0  0  0  0  0  0  0  0  0  0  0  0
   37.9060   32.1740   38.5030 C   0  0  0  0  0  0  0  0  0  0  0  0
   39.1330   31.6350   38.9170 C   0  0  0  0  0  0  0  0  0  0  0  0
   39.6430   32.2190   40.0660 C   0  0  0  0  0  0  0  0  0  0  0  0
   40.5690   31.8840   40.4680 H   0  0  0  0  0  0  0  0  0  0  0  0
   39.0120   33.2520   40.7690 C   0  0  0  0  0  0  0  0  0  0  0  0
   39.4520   33.6700   41.6550 H   0  0  0  0  0  0  0  0  0  0  0  0
   37.8080   33.7330   40.3030 C   0  0  0  0  0  3  0  0  0  0  0  0
   37.2590   33.1870   39.1670 C   0  0  0  0  0  3  0  0  0  0  0  0
   37.3650   28.2690   41.4680 C   0  0  0  0  0  0  0  0  0  0  0  0
   38.6000   28.5600   40.8530 C   0  0  0  0  0  0  0  0  0  0  0  0
   38.5560   28.8830   39.4680 C   0  0  0  0  0  0  0  0  0  0  0  0
   37.3510   28.8890   38.8390 N   0  0  0  0  0  0  0  0  0  0  0  0
   36.2140   28.6050   39.4680 C   0  0  0  0  0  0  0  0  0  0  0  0
   36.2190   28.2940   40.7810 N   0  0  0  0  0  0  0  0  0  0  0  0
   39.5560   28.5530   41.3630 H   0  0  0  0  0  0  0  0  0  0  0  0
   37.4190   27.9300   42.9250 C   0  0  0  0  0  0  0  0  0  0  0  0
   38.3370   26.9340   43.1750 F   0  0  0  0  0  0  0  0  0  0  0  0
   37.7060   29.1020   43.6340 F   0  0  0  0  0  0  0  0  0  0  0  0
   36.1570   27.5430   43.3610 F   0  0  0  0  0  0  0  0  0  0  0  0
   34.9180   28.6230   38.7350 C   0  0  0  0  0  0  0  0  0  0  0  0
   34.6500   27.4150   38.1640 F   0  0  0  0  0  0  0  0  0  0  0  0
   34.9300   29.6460   37.7590 F   0  0  0  0  0  0  0  0  0  0  0  0
   33.8820   28.9610   39.5650 F   0  0  0  0  0  0  0  0  0  0  0  0
  1  7  1  6  0  0  0
  1 28  1  0  0  0  0
  1  2  1  0  0  0  0
  2  9  1  0  0  0  0
  2  8  1  0  0  0  0
  3 11  1  0  0  0  0
  3  2  1  0  0  0  0
  4  3  1  0  0  0  0
  4 13  1  0  0  0  0
  5 14  1  0  0  0  0
  5  6  1  0  0  0  0
  5  4  1  0  0  0  0
  6 16  1  6  0  0  0
  6  1  1  0  0  0  0
  6 19  1  0  0  0  0
 10  3  1  0  0  0  0
 12  4  1  0  0  0  0
 15  5  1  0  0  0  0
 17 18  1  0  0  0  0
 18 19  2  0  0  0  0
 18 25  1  0  0  0  0
 19 20  1  0  0  0  0
 20 21  1  0  0  0  0
 20 22  2  0  0  0  0
 22 23  1  0  0  0  0
 24 22  1  0  0  0  0
 25 24  2  0  0  0  0
 26 33  1  0  0  0  0
 27 32  1  0  0  0  0
 27 26  1  0  0  0  0
 28 27  2  0  0  0  0
 29 30  2  0  0  0  0
 29 28  1  0  0  0  0
 30 31  1  0  0  0  0
 31 26  2  0  0  0  0
 33 34  1  0  0  0  0
 33 36  1  0  0  0  0
 33 35  1  0  0  0  0
 37 30  1  0  0  0  0
 37 40  1  0  0  0  0
 38 37  1  0  0  0  0
 39 37  1  0  0  0  0
M  END
>  <minimizedAffinity>
-5.87401867

$$$$

 OpenBabel03252502353D

 40 42  0  0  1  0  0  0  0  0999 V2000
   37.9360   25.5870   39.3900 C   0  0  2  0  0  0  0  0  0  0  0  0
   36.7330   24.6550   39.2540 C   0  0  0  0  0  0  0  0  0  0  0  0
   37.3450   23.2560   39.3940 C   0  0  0  0  0  0  0  0  0  0  0  0
   37.6590   23.1700   40.8760 C   0  0  0  0  0  0  0  0  0  0  0  0
   38.6910   24.1500   41.2610 C   0  0  0  0  0  0  0  0  0  0  0  0
   38.5900   25.5430   40.7100 C   0  0  2  0  0  0  0  0  0  0  0  0
   38.6370   25.2020   38.5890 H   0  0  0  0  0  0  0  0  0  0  0  0
   35.9710   24.8430   40.0130 H   0  0  0  0  0  0  0  0  0  0  0  0
   36.3020   24.8110   38.2630 H   0  0  0  0  0  0  0  0  0  0  0  0
   38.2800   23.2330   38.8180 H   0  0  0  0  0  0  0  0  0  0  0  0
   36.6060   22.4900   39.1110 H   0  0  0  0  0  0  0  0  0  0  0  0
   37.9840   22.1770   41.1860 H   0  0  0  0  0  0  0  0  0  0  0  0
   36.7070   23.3620   41.4040 H   0  0  0  0  0  0  0  0  0  0  0  0
   38.6380   24.2700   42.3800 H   0  0  0  0  0  0  0  0  0  0  0  0
   39.6750   23.6600   41.0990 H   0  0  0  0  0  0  0  0  0  0  0  0
   39.6780   25.8000   40.4770 H   0  0  0  0  0  0  0  0  0  0  0  0
   40.2950   27.5890   41.5100 F   0  0  0  0  0  0  0  0  0  0  0  0
   39.0700   27.5750   42.1260 C   0  0  0  0  0  0  0  0  0  0  0  0
   38.2120   26.5480   41.7070 C   0  0  0  0  0  0  0  0  0  0  0  0
   36.9800   26.5530   42.3420 C   0  0  0  0  0  0  0  0  0  0  0  0
   36.2510   25.8170   42.0980 H   0  0  0  0  0  0  0  0  0  0  0  0
   36.6010   27.4850   43.3160 C   0  0  0  0  0  0  0  0  0  0  0  0
   35.6330   27.4420   43.7780 H   0  0  0  0  0  0  0  0  0  0  0  0
   37.4970   28.4660   43.6790 C   0  0  0  0  0  3  0  0  0  0  0  0
   38.7320   28.5050   43.0780 C   0  0  0  0  0  3  0  0  0  0  0  0
   37.8970   29.1990   38.3320 C   0  0  0  0  0  0  0  0  0  0  0  0
   38.4360   27.9660   38.7550 C   0  0  0  0  0  0  0  0  0  0  0  0
   37.5080   26.9050   38.9520 C   0  0  0  0  0  0  0  0  0  0  0  0
   36.1890   27.1440   38.7260 N   0  0  0  0  0  0  0  0  0  0  0  0
   35.7340   28.3290   38.3270 C   0  0  0  0  0  0  0  0  0  0  0  0
   36.5850   29.3570   38.1310 N   0  0  0  0  0  0  0  0  0  0  0  0
   39.4890   27.7860   38.9330 H   0  0  0  0  0  0  0  0  0  0  0  0
   38.8790   30.3100   38.1270 C   0  0  0  0  0  0  0  0  0  0  0  0
   39.9680   29.8880   37.3970 F   0  0  0  0  0  0  0  0  0  0  0  0
   38.2110   31.3740   37.5100 F   0  0  0  0  0  0  0  0  0  0  0  0
   39.2880   30.8060   39.3600 F   0  0  0  0  0  0  0  0  0  0  0  0
   34.2790   28.5410   38.0930 C   0  0  0  0  0  0  0  0  0  0  0  0
   33.6620   27.3910   37.7010 F   0  0  0  0  0  0  0  0  0  0  0  0
   34.0890   29.5630   37.1350 F   0  0  0  0  0  0  0  0  0  0  0  0
   33.6580   29.0150   39.2190 F   0  0  0  0  0  0  0  0  0  0  0  0
  1  7  1  6  0  0  0
  1  6  1  0  0  0  0
  2  1  1  0  0  0  0
  2  3  1  0  0  0  0
  2  8  1  0  0  0  0
  3  4  1  0  0  0  0
  4 12  1  0  0  0  0
  4  5  1  0  0  0  0
  4 13  1  0  0  0  0
  5 14  1  0  0  0  0
  6 16  1  6  0  0  0
  6  5  1  0  0  0  0
  6 19  1  0  0  0  0
  9  2  1  0  0  0  0
 10  3  1  0  0  0  0
 11  3  1  0  0  0  0
 15  5  1  0  0  0  0
 17 18  1  0  0  0  0
 18 25  1  0  0  0  0
 19 18  2  0  0  0  0
 19 20  1  0  0  0  0
 20 22  2  0  0  0  0
 21 20  1  0  0  0  0
 22 24  1  0  0  0  0
 22 23  1  0  0  0  0
 25 24  2  0  0  0  0
 26 27  1  0  0  0  0
 27 32  1  0  0  0  0
 27 28  2  0  0  0  0
 28  1  1  0  0  0  0
 29 28  1  0  0  0  0
 30 29  2  0  0  0  0
 31 30  1  0  0  0  0
 31 26  2  0  0  0  0
 33 26  1  0  0  0  0
 33 36  1  0  0  0  0
 34 33  1  0  0  0  0
 35 33  1  0  0  0  0
 37 30  1  0  0  0  0
 37 40  1  0  0  0  0
 38 37  1  0  0  0  0
 39 37  1  0  0  0  0
M  END
>  <minimizedAffinity>
-5.86764717

$$$$
