
 OpenBabel03252502343D

 40 42  0  0  1  0  0  0  0  0999 V2000
   46.1960   31.4820   42.5650 C   0  0  2  0  0  0  0  0  0  0  0  0
   46.8310   30.1920   43.0810 C   0  0  0  0  0  0  0  0  0  0  0  0
   46.6990   29.2290   41.8950 C   0  0  0  0  0  0  0  0  0  0  0  0
   47.7460   29.7420   40.9230 C   0  0  0  0  0  0  0  0  0  0  0  0
   47.4090   31.0940   40.4410 C   0  0  0  0  0  0  0  0  0  0  0  0
   46.9140   32.1020   41.4370 C   0  0  2  0  0  0  0  0  0  0  0  0
   45.1680   31.1380   42.2380 H   0  0  0  0  0  0  0  0  0  0  0  0
   47.8710   30.3290   43.3800 H   0  0  0  0  0  0  0  0  0  0  0  0
   46.2490   29.8560   43.9420 H   0  0  0  0  0  0  0  0  0  0  0  0
   45.6990   29.3570   41.4600 H   0  0  0  0  0  0  0  0  0  0  0  0
   46.9390   28.2010   42.2140 H   0  0  0  0  0  0  0  0  0  0  0  0
   47.8870   29.0860   40.0640 H   0  0  0  0  0  0  0  0  0  0  0  0
   48.7040   29.7400   41.4740 H   0  0  0  0  0  0  0  0  0  0  0  0
   48.3490   31.5400   40.0110 H   0  0  0  0  0  0  0  0  0  0  0  0
   46.7550   30.9640   39.5520 H   0  0  0  0  0  0  0  0  0  0  0  0
   46.0900   32.6410   40.8600 H   0  0  0  0  0  0  0  0  0  0  0  0
   46.5020   34.7470   40.6880 F   0  0  0  0  0  0  0  0  0  0  0  0
   47.6820   34.5030   41.3410 C   0  0  0  0  0  0  0  0  0  0  0  0
   47.8760   33.1690   41.7280 C   0  0  0  0  0  0  0  0  0  0  0  0
   49.0750   32.9440   42.3850 C   0  0  0  0  0  0  0  0  0  0  0  0
   49.3220   31.9660   42.7240 H   0  0  0  0  0  0  0  0  0  0  0  0
   50.0230   33.9380   42.6540 C   0  0  0  0  0  0  0  0  0  0  0  0
   50.9380   33.7090   43.1680 H   0  0  0  0  0  0  0  0  0  0  0  0
   49.7660   35.2280   42.2430 C   0  0  0  0  0  0  0  0  0  0  0  0
   48.5900   35.5040   41.5870 C   0  0  0  0  0  0  0  0  0  0  0  0
   46.0520   32.8530   46.0690 C   0  0  0  0  0  0  0  0  0  0  0  0
   46.3090   31.9270   45.0370 C   0  0  0  0  0  0  0  0  0  0  0  0
   45.9840   32.3450   43.7160 C   0  0  0  0  0  0  0  0  0  0  0  0
   45.4590   33.5860   43.5370 N   0  0  0  0  0  0  0  0  0  0  0  0
   45.2370   34.4220   44.5480 C   0  0  0  0  0  0  0  0  0  0  0  0
   45.5320   34.0570   45.8130 N   0  0  0  0  0  0  0  0  0  0  0  0
   46.7280   30.9390   45.1890 H   0  0  0  0  0  0  0  0  0  0  0  0
   46.3960   32.4060   47.4550 C   0  0  0  0  0  0  0  0  0  0  0  0
   47.6500   32.8400   47.8250 F   0  0  0  0  0  0  0  0  0  0  0  0
   45.4000   32.8690   48.3220 F   0  0  0  0  0  0  0  0  0  0  0  0
   46.3250   31.0190   47.5290 F   0  0  0  0  0  0  0  0  0  0  0  0
   44.6580   35.7710   44.3020 C   0  0  0  0  0  0  0  0  0  0  0  0
   45.3900   36.4710   43.3900 F   0  0  0  0  0  0  0  0  0  0  0  0
   44.5620   36.4840   45.5190 F   0  0  0  0  0  0  0  0  0  0  0  0
   43.3640   35.6850   43.8590 F   0  0  0  0  0  0  0  0  0  0  0  0
  1  7  1  6  0  0  0
  1  2  1  0  0  0  0
  1 28  1  0  0  0  0
  2  8  1  0  0  0  0
  2  9  1  0  0  0  0
  3 11  1  0  0  0  0
  3  2  1  0  0  0  0
  4 13  1  0  0  0  0
  4  3  1  0  0  0  0
  5  4  1  0  0  0  0
  5  6  1  0  0  0  0
  6 16  1  6  0  0  0
  6 19  1  0  0  0  0
  6  1  1  0  0  0  0
 10  3  1  0  0  0  0
 12  4  1  0  0  0  0
 14  5  1  0  0  0  0
 15  5  1  0  0  0  0
 17 18  1  0  0  0  0
 18 25  2  0  0  0  0
 18 19  1  0  0  0  0
 19 20  2  0  0  0  0
 20 22  1  0  0  0  0
 20 21  1  0  0  0  0
 22 23  1  0  0  0  0
 24 22  2  0  0  0  0
 25 24  1  0  0  0  0
 26 33  1  0  0  0  0
 27 32  1  0  0  0  0
 27 26  2  0  0  0  0
 28 27  1  0  0  0  0
 29 28  2  0  0  0  0
 29 30  1  0  0  0  0
 30 31  2  0  0  0  0
 31 26  1  0  0  0  0
 33 36  1  0  0  0  0
 33 34  1  0  0  0  0
 33 35  1  0  0  0  0
 37 30  1  0  0  0  0
 37 39  1  0  0  0  0
 38 37  1  0  0  0  0
 40 37  1  0  0  0  0
M  END
>  <minimizedAffinity>
-6.60174084

>  <minimizedRMSD>
5.39240742

$$$$
