
 OpenBabel03242515193D

 37 39  0  0  0  0  0  0  0  0999 V2000
   38.1250   29.8730   41.7920 C   0  0  0  0  0  0  0  0  0  0  0  0
   37.3480   29.2450   40.8460 C   0  0  0  0  0  0  0  0  0  0  0  0
   37.1540   30.1510   39.8250 C   0  0  0  0  0  0  0  0  0  0  0  0
   37.7880   31.2690   40.1500 N   0  0  0  0  0  0  0  0  0  0  0  0
   38.3730   31.0940   41.3420 N   0  0  0  0  0  0  0  0  0  0  0  0
   37.0030   28.2290   40.9720 H   0  0  0  0  0  0  0  0  0  0  0  0
   34.5890   29.3320   40.2010 F   0  0  0  0  0  0  0  0  0  0  0  0
   35.0590   29.3350   38.9080 C   0  0  0  0  0  0  0  0  0  0  0  0
   36.3810   29.7440   38.6690 C   0  0  0  0  0  0  0  0  0  0  0  0
   36.7010   29.6930   37.3340 C   0  0  0  0  0  0  0  0  0  0  0  0
   37.7000   30.0050   37.0820 H   0  0  0  0  0  0  0  0  0  0  0  0
   35.8390   29.2910   36.3420 C   0  0  0  0  0  0  0  0  0  0  0  0
   36.2120   29.2960   35.3290 H   0  0  0  0  0  0  0  0  0  0  0  0
   34.5560   28.9040   36.6510 C   0  0  0  0  0  3  0  0  0  0  0  0
   34.1500   28.9230   37.9580 C   0  0  0  0  0  3  0  0  0  0  0  0
   37.8620   32.5010   39.3500 C   0  0  0  0  0  0  0  0  0  0  0  0
   38.6580   33.4490   40.0380 F   0  0  0  0  0  0  0  0  0  0  0  0
   36.6320   32.9780   39.0780 F   0  0  0  0  0  0  0  0  0  0  0  0
   38.5550   32.2340   38.1900 F   0  0  0  0  0  0  0  0  0  0  0  0
   38.6370   29.3610   43.0770 C   0  0  0  0  0  0  0  0  0  0  0  0
   39.6890   29.0220   42.8570 H   0  0  0  0  0  0  0  0  0  0  0  0
   38.7220   30.1440   43.8310 H   0  0  0  0  0  0  0  0  0  0  0  0
   37.8430   28.1850   43.5620 C   0  0  0  0  0  0  0  0  0  0  0  0
   37.7770   28.2190   44.6900 H   0  0  0  0  0  0  0  0  0  0  0  0
   36.8380   28.2890   43.1890 H   0  0  0  0  0  0  0  0  0  0  0  0
   40.0860   25.2270   43.3110 C   0  0  0  0  0  0  0  0  0  0  0  0
   39.3160   24.3910   42.4650 C   0  0  0  0  0  0  0  0  0  0  0  0
   38.0980   24.8760   42.0360 C   0  0  0  0  0  0  0  0  0  0  0  0
   37.7600   26.0990   42.4640 N   0  0  0  0  0  0  0  0  0  0  0  0
   38.4830   26.8850   43.2590 C   0  0  0  0  0  0  0  0  0  0  0  0
   39.6500   26.4350   43.6780 N   0  0  0  0  0  0  0  0  0  0  0  0
   41.0590   24.8470   43.6550 H   0  0  0  0  0  0  0  0  0  0  0  0
   39.6760   23.4140   42.1710 H   0  0  0  0  0  0  0  0  0  0  0  0
   37.3040   24.0070   41.1640 C   0  0  0  0  0  0  0  0  0  0  0  0
   37.2000   24.5860   39.9070 F   0  0  0  0  0  0  0  0  0  0  0  0
   36.0020   24.0550   41.6690 F   0  0  0  0  0  0  0  0  0  0  0  0
   37.8030   22.7440   41.0770 F   0  0  0  0  0  0  0  0  0  0  0  0
  1 20  1  0  0  0  0
  2  6  1  0  0  0  0
  2  1  1  0  0  0  0
  3  4  1  0  0  0  0
  3  2  2  0  0  0  0
  4  5  1  0  0  0  0
  5  1  2  0  0  0  0
  8  7  1  0  0  0  0
  9  8  1  0  0  0  0
  9  3  1  0  0  0  0
 10  9  2  0  0  0  0
 11 10  1  0  0  0  0
 12 14  2  0  0  0  0
 12 10  1  0  0  0  0
 13 12  1  0  0  0  0
 14 15  1  0  0  0  0
 15  8  2  0  0  0  0
 16 17  1  0  0  0  0
 16  4  1  0  0  0  0
 18 16  1  0  0  0  0
 19 16  1  0  0  0  0
 20 23  1  0  0  0  0
 20 22  1  0  0  0  0
 21 20  1  0  0  0  0
 23 24  1  0  0  0  0
 25 23  1  0  0  0  0
 26 32  1  0  0  0  0
 26 31  1  0  0  0  0
 27 26  2  0  0  0  0
 28 29  2  0  0  0  0
 28 27  1  0  0  0  0
 29 30  1  0  0  0  0
 30 23  1  0  0  0  0
 30 31  2  0  0  0  0
 33 27  1  0  0  0  0
 34 36  1  0  0  0  0
 34 28  1  0  0  0  0
 35 34  1  0  0  0  0
 37 34  1  0  0  0  0
M  END
>  <minimizedAffinity>
-6.39381456

$$$$

 OpenBabel03242515193D

 37 39  0  0  0  0  0  0  0  0999 V2000
   33.3380   29.0210   36.4070 C   0  0  0  0  0  0  0  0  0  0  0  0
   32.8310   29.3900   35.1820 C   0  0  0  0  0  0  0  0  0  0  0  0
   31.6160   29.9950   35.4200 C   0  0  0  0  0  0  0  0  0  0  0  0
   31.4080   29.9870   36.7290 N   0  0  0  0  0  0  0  0  0  0  0  0
   32.4540   29.3950   37.3210 N   0  0  0  0  0  0  0  0  0  0  0  0
   33.3630   29.1960   34.2610 H   0  0  0  0  0  0  0  0  0  0  0  0
   31.4810   32.6880   35.0720 F   0  0  0  0  0  0  0  0  0  0  0  0
   30.8240   31.9070   34.1490 C   0  0  0  0  0  0  0  0  0  0  0  0
   30.8620   30.5110   34.2950 C   0  0  0  0  0  0  0  0  0  0  0  0
   30.1640   29.8710   33.3000 C   0  0  0  0  0  0  0  0  0  0  0  0
   30.1620   28.7960   33.3480 H   0  0  0  0  0  0  0  0  0  0  0  0
   29.5020   30.5120   32.2780 C   0  0  0  0  0  0  0  0  0  0  0  0
   28.9900   29.8940   31.5560 H   0  0  0  0  0  0  0  0  0  0  0  0
   29.5090   31.8840   32.1990 C   0  0  0  0  0  3  0  0  0  0  0  0
   30.1810   32.6040   33.1500 C   0  0  0  0  0  3  0  0  0  0  0  0
   30.2430   30.5380   37.4370 C   0  0  0  0  0  0  0  0  0  0  0  0
   30.3060   30.1500   38.7970 F   0  0  0  0  0  0  0  0  0  0  0  0
   29.0930   30.1500   36.8540 F   0  0  0  0  0  0  0  0  0  0  0  0
   30.3470   31.9110   37.4580 F   0  0  0  0  0  0  0  0  0  0  0  0
   34.6090   28.3480   36.7340 C   0  0  0  0  0  0  0  0  0  0  0  0
   34.4220   27.8360   37.7200 H   0  0  0  0  0  0  0  0  0  0  0  0
   34.8540   27.5570   36.0230 H   0  0  0  0  0  0  0  0  0  0  0  0
   35.7290   29.3300   36.9040 C   0  0  0  0  0  0  0  0  0  0  0  0
   36.7070   28.8320   36.6340 H   0  0  0  0  0  0  0  0  0  0  0  0
   35.5810   30.1260   36.1940 H   0  0  0  0  0  0  0  0  0  0  0  0
   35.7190   29.7280   40.6030 C   0  0  0  0  0  0  0  0  0  0  0  0
   36.4500   30.9340   40.7340 C   0  0  0  0  0  0  0  0  0  0  0  0
   36.8970   31.5330   39.5740 C   0  0  0  0  0  0  0  0  0  0  0  0
   36.5920   30.9100   38.4280 N   0  0  0  0  0  0  0  0  0  0  0  0
   35.9050   29.7760   38.3050 C   0  0  0  0  0  0  0  0  0  0  0  0
   35.4720   29.1920   39.4050 N   0  0  0  0  0  0  0  0  0  0  0  0
   35.3590   29.2470   41.5240 H   0  0  0  0  0  0  0  0  0  0  0  0
   36.6460   31.3630   41.7080 H   0  0  0  0  0  0  0  0  0  0  0  0
   37.6550   32.7780   39.7140 C   0  0  0  0  0  0  0  0  0  0  0  0
   36.8710   33.8440   39.2960 F   0  0  0  0  0  0  0  0  0  0  0  0
   38.6720   32.7090   38.7600 F   0  0  0  0  0  0  0  0  0  0  0  0
   38.1140   32.9790   40.9800 F   0  0  0  0  0  0  0  0  0  0  0  0
  1 20  1  0  0  0  0
  1  5  2  0  0  0  0
  2  3  2  0  0  0  0
  2  1  1  0  0  0  0
  3  4  1  0  0  0  0
  4  5  1  0  0  0  0
  4 16  1  0  0  0  0
  6  2  1  0  0  0  0
  8  9  1  0  0  0  0
  8  7  1  0  0  0  0
  9  3  1  0  0  0  0
 10 11  1  0  0  0  0
 10  9  2  0  0  0  0
 12 10  1  0  0  0  0
 13 12  1  0  0  0  0
 14 12  2  0  0  0  0
 14 15  1  0  0  0  0
 15  8  2  0  0  0  0
 16 19  1  0  0  0  0
 16 17  1  0  0  0  0
 18 16  1  0  0  0  0
 20 23  1  0  0  0  0
 20 21  1  0  0  0  0
 22 20  1  0  0  0  0
 23 30  1  0  0  0  0
 24 23  1  0  0  0  0
 25 23  1  0  0  0  0
 26 27  1  0  0  0  0
 26 32  1  0  0  0  0
 27 33  1  0  0  0  0
 28 34  1  0  0  0  0
 28 27  2  0  0  0  0
 29 28  1  0  0  0  0
 30 29  2  0  0  0  0
 30 31  1  0  0  0  0
 31 26  2  0  0  0  0
 34 37  1  0  0  0  0
 35 34  1  0  0  0  0
 36 34  1  0  0  0  0
M  END
>  <minimizedAffinity>
-6.24935579

$$$$

 OpenBabel03242515193D

 37 39  0  0  0  0  0  0  0  0999 V2000
   35.9200   28.7890   37.8560 C   0  0  0  0  0  0  0  0  0  0  0  0
   36.2940   28.0240   38.9360 C   0  0  0  0  0  0  0  0  0  0  0  0
   36.6980   28.8980   39.9220 C   0  0  0  0  0  0  0  0  0  0  0  0
   36.5700   30.1290   39.4500 N   0  0  0  0  0  0  0  0  0  0  0  0
   36.1000   30.0570   38.1970 N   0  0  0  0  0  0  0  0  0  0  0  0
   36.2440   26.9440   38.9170 H   0  0  0  0  0  0  0  0  0  0  0  0
   39.3630   28.6270   40.3880 F   0  0  0  0  0  0  0  0  0  0  0  0
   38.5110   28.2440   41.3980 C   0  0  0  0  0  0  0  0  0  0  0  0
   37.1270   28.3600   41.1980 C   0  0  0  0  0  0  0  0  0  0  0  0
   36.4120   27.9400   42.2930 C   0  0  0  0  0  0  0  0  0  0  0  0
   35.3410   28.0140   42.2080 H   0  0  0  0  0  0  0  0  0  0  0  0
   36.9750   27.4610   43.4520 C   0  0  0  0  0  0  0  0  0  0  0  0
   36.3020   27.1630   44.2430 H   0  0  0  0  0  0  0  0  0  0  0  0
   38.3410   27.3760   43.5790 C   0  0  0  0  0  3  0  0  0  0  0  0
   39.1330   27.7730   42.5350 C   0  0  0  0  0  3  0  0  0  0  0  0
   36.8740   31.3800   40.1610 C   0  0  0  0  0  0  0  0  0  0  0  0
   38.2610   31.4210   40.4470 F   0  0  0  0  0  0  0  0  0  0  0  0
   36.1260   31.5000   41.2740 F   0  0  0  0  0  0  0  0  0  0  0  0
   36.6600   32.4380   39.3060 F   0  0  0  0  0  0  0  0  0  0  0  0
   35.4010   28.3680   36.5400 C   0  0  0  0  0  0  0  0  0  0  0  0
   35.4140   29.3020   35.9100 H   0  0  0  0  0  0  0  0  0  0  0  0
   36.0610   27.6560   36.0430 H   0  0  0  0  0  0  0  0  0  0  0  0
   33.9910   27.8690   36.6350 C   0  0  0  0  0  0  0  0  0  0  0  0
   33.8500   27.0090   35.9160 H   0  0  0  0  0  0  0  0  0  0  0  0
   33.8470   27.4710   37.6250 H   0  0  0  0  0  0  0  0  0  0  0  0
   31.8780   30.3430   34.8300 C   0  0  0  0  0  0  0  0  0  0  0  0
   30.9780   30.7120   35.8590 C   0  0  0  0  0  0  0  0  0  0  0  0
   31.1400   30.1070   37.0890 C   0  0  0  0  0  0  0  0  0  0  0  0
   32.1410   29.2230   37.1900 N   0  0  0  0  0  0  0  0  0  0  0  0
   32.9870   28.8770   36.2220 C   0  0  0  0  0  0  0  0  0  0  0  0
   32.8450   29.4460   35.0410 N   0  0  0  0  0  0  0  0  0  0  0  0
   31.7540   30.8230   33.8480 H   0  0  0  0  0  0  0  0  0  0  0  0
   30.1970   31.4410   35.6820 H   0  0  0  0  0  0  0  0  0  0  0  0
   30.2050   30.4900   38.1490 C   0  0  0  0  0  0  0  0  0  0  0  0
   28.9100   30.1890   37.7530 F   0  0  0  0  0  0  0  0  0  0  0  0
   30.2320   31.8860   38.1900 F   0  0  0  0  0  0  0  0  0  0  0  0
   30.4940   29.9100   39.3460 F   0  0  0  0  0  0  0  0  0  0  0  0
  1  5  2  0  0  0  0
  1  2  1  0  0  0  0
  2  3  2  0  0  0  0
  3  9  1  0  0  0  0
  4  3  1  0  0  0  0
  4 16  1  0  0  0  0
  5  4  1  0  0  0  0
  6  2  1  0  0  0  0
  7  8  1  0  0  0  0
  8 15  1  0  0  0  0
  9  8  2  0  0  0  0
  9 10  1  0  0  0  0
 10 12  2  0  0  0  0
 11 10  1  0  0  0  0
 12 14  1  0  0  0  0
 12 13  1  0  0  0  0
 15 14  2  0  0  0  0
 16 17  1  0  0  0  0
 16 18  1  0  0  0  0
 19 16  1  0  0  0  0
 20 23  1  0  0  0  0
 20  1  1  0  0  0  0
 21 20  1  0  0  0  0
 22 20  1  0  0  0  0
 23 25  1  0  0  0  0
 24 23  1  0  0  0  0
 26 31  2  0  0  0  0
 26 27  1  0  0  0  0
 27 28  2  0  0  0  0
 28 29  1  0  0  0  0
 28 34  1  0  0  0  0
 30 23  1  0  0  0  0
 30 29  2  0  0  0  0
 31 30  1  0  0  0  0
 32 26  1  0  0  0  0
 33 27  1  0  0  0  0
 34 36  1  0  0  0  0
 34 37  1  0  0  0  0
 35 34  1  0  0  0  0
M  END
>  <minimizedAffinity>
-6.1560936

$$$$

 OpenBabel03242515193D

 37 39  0  0  0  0  0  0  0  0999 V2000
   39.5630   29.4810   40.0610 C   0  0  0  0  0  0  0  0  0  0  0  0
   38.4820   28.8760   39.4620 C   0  0  0  0  0  0  0  0  0  0  0  0
   37.6200   29.8850   39.0860 C   0  0  0  0  0  0  0  0  0  0  0  0
   38.1640   31.0380   39.4470 N   0  0  0  0  0  0  0  0  0  0  0  0
   39.3400   30.7870   40.0380 N   0  0  0  0  0  0  0  0  0  0  0  0
   38.4140   27.8030   39.3530 H   0  0  0  0  0  0  0  0  0  0  0  0
   35.3790   29.4650   40.5670 F   0  0  0  0  0  0  0  0  0  0  0  0
   35.2590   29.3330   39.2030 C   0  0  0  0  0  0  0  0  0  0  0  0
   36.3930   29.5330   38.4010 C   0  0  0  0  0  0  0  0  0  0  0  0
   36.1140   29.3670   37.0660 C   0  0  0  0  0  0  0  0  0  0  0  0
   36.9420   29.5170   36.3940 H   0  0  0  0  0  0  0  0  0  0  0  0
   34.8760   29.0420   36.5640 C   0  0  0  0  0  0  0  0  0  0  0  0
   34.7870   28.9400   35.4930 H   0  0  0  0  0  0  0  0  0  0  0  0
   33.8080   28.8610   37.4110 C   0  0  0  0  0  3  0  0  0  0  0  0
   33.9950   29.0070   38.7600 C   0  0  0  0  0  3  0  0  0  0  0  0
   37.6000   32.3790   39.2360 C   0  0  0  0  0  0  0  0  0  0  0  0
   38.6270   33.3410   39.3970 F   0  0  0  0  0  0  0  0  0  0  0  0
   36.5630   32.6060   40.0640 F   0  0  0  0  0  0  0  0  0  0  0  0
   37.2140   32.4950   37.9190 F   0  0  0  0  0  0  0  0  0  0  0  0
   40.7790   28.8740   40.6360 C   0  0  0  0  0  0  0  0  0  0  0  0
   40.8210   27.8370   40.1980 H   0  0  0  0  0  0  0  0  0  0  0  0
   41.6890   29.3800   40.3100 H   0  0  0  0  0  0  0  0  0  0  0  0
   40.6910   28.7640   42.1290 C   0  0  0  0  0  0  0  0  0  0  0  0
   41.4170   27.9750   42.4880 H   0  0  0  0  0  0  0  0  0  0  0  0
   41.0190   29.7000   42.5490 H   0  0  0  0  0  0  0  0  0  0  0  0
   37.3100   28.4150   43.6400 C   0  0  0  0  0  0  0  0  0  0  0  0
   37.0070   27.0770   43.2890 C   0  0  0  0  0  0  0  0  0  0  0  0
   37.9580   26.3810   42.5700 C   0  0  0  0  0  0  0  0  0  0  0  0
   39.0820   27.0450   42.2720 N   0  0  0  0  0  0  0  0  0  0  0  0
   39.3660   28.3040   42.6020 C   0  0  0  0  0  0  0  0  0  0  0  0
   38.4670   28.9810   43.2900 N   0  0  0  0  0  0  0  0  0  0  0  0
   36.5560   28.9740   44.2150 H   0  0  0  0  0  0  0  0  0  0  0  0
   36.0670   26.6240   43.5780 H   0  0  0  0  0  0  0  0  0  0  0  0
   37.6400   24.9980   42.2060 C   0  0  0  0  0  0  0  0  0  0  0  0
   38.5790   24.1460   42.7680 F   0  0  0  0  0  0  0  0  0  0  0  0
   37.8760   24.9070   40.8330 F   0  0  0  0  0  0  0  0  0  0  0  0
   36.3780   24.6330   42.5630 F   0  0  0  0  0  0  0  0  0  0  0  0
  1 20  1  0  0  0  0
  2  1  1  0  0  0  0
  3  4  1  0  0  0  0
  3  2  2  0  0  0  0
  4  5  1  0  0  0  0
  5  1  2  0  0  0  0
  6  2  1  0  0  0  0
  8  7  1  0  0  0  0
  9  3  1  0  0  0  0
  9  8  2  0  0  0  0
 10  9  1  0  0  0  0
 11 10  1  0  0  0  0
 12 10  2  0  0  0  0
 12 14  1  0  0  0  0
 13 12  1  0  0  0  0
 14 15  2  0  0  0  0
 15  8  1  0  0  0  0
 16 17  1  0  0  0  0
 16  4  1  0  0  0  0
 16 18  1  0  0  0  0
 19 16  1  0  0  0  0
 20 23  1  0  0  0  0
 21 20  1  0  0  0  0
 22 20  1  0  0  0  0
 23 24  1  0  0  0  0
 23 25  1  0  0  0  0
 23 30  1  0  0  0  0
 26 32  1  0  0  0  0
 27 33  1  0  0  0  0
 27 26  2  0  0  0  0
 28 27  1  0  0  0  0
 29 28  2  0  0  0  0
 29 30  1  0  0  0  0
 30 31  2  0  0  0  0
 31 26  1  0  0  0  0
 34 37  1  0  0  0  0
 34 28  1  0  0  0  0
 34 35  1  0  0  0  0
 36 34  1  0  0  0  0
M  END
>  <minimizedAffinity>
-6.11189079

$$$$

 OpenBabel03242515193D

 37 39  0  0  0  0  0  0  0  0999 V2000
   37.9210   29.6370   42.3440 C   0  0  0  0  0  0  0  0  0  0  0  0
   39.0110   30.3930   41.9800 C   0  0  0  0  0  0  0  0  0  0  0  0
   38.7340   30.9190   40.7370 C   0  0  0  0  0  0  0  0  0  0  0  0
   37.5320   30.4940   40.3760 N   0  0  0  0  0  0  0  0  0  0  0  0
   37.0440   29.7180   41.3530 N   0  0  0  0  0  0  0  0  0  0  0  0
   39.8760   30.4940   42.6200 H   0  0  0  0  0  0  0  0  0  0  0  0
   38.5330   33.6000   41.1410 F   0  0  0  0  0  0  0  0  0  0  0  0
   39.5740   33.1640   40.3540 C   0  0  0  0  0  0  0  0  0  0  0  0
   39.7120   31.7880   40.1140 C   0  0  0  0  0  0  0  0  0  0  0  0
   40.7950   31.5120   39.3150 C   0  0  0  0  0  0  0  0  0  0  0  0
   40.9630   30.4700   39.1010 H   0  0  0  0  0  0  0  0  0  0  0  0
   41.6490   32.4620   38.8070 C   0  0  0  0  0  0  0  0  0  0  0  0
   42.4650   32.1150   38.1910 H   0  0  0  0  0  0  0  0  0  0  0  0
   41.4530   33.7940   39.0850 C   0  0  0  0  0  3  0  0  0  0  0  0
   40.3960   34.1610   39.8740 C   0  0  0  0  0  3  0  0  0  0  0  0
   36.8240   30.8150   39.1270 C   0  0  0  0  0  0  0  0  0  0  0  0
   36.6720   32.2200   39.0320 F   0  0  0  0  0  0  0  0  0  0  0  0
   35.6420   30.1740   39.0600 F   0  0  0  0  0  0  0  0  0  0  0  0
   37.6300   30.4760   38.0630 F   0  0  0  0  0  0  0  0  0  0  0  0
   37.6830   28.8630   43.5770 C   0  0  0  0  0  0  0  0  0  0  0  0
   38.7100   28.6000   43.9580 H   0  0  0  0  0  0  0  0  0  0  0  0
   37.2130   29.4630   44.3580 H   0  0  0  0  0  0  0  0  0  0  0  0
   36.9320   27.5950   43.3010 C   0  0  0  0  0  0  0  0  0  0  0  0
   36.4390   27.2380   44.2530 H   0  0  0  0  0  0  0  0  0  0  0  0
   36.1380   27.8260   42.6100 H   0  0  0  0  0  0  0  0  0  0  0  0
   39.7150   25.1840   42.7710 C   0  0  0  0  0  0  0  0  0  0  0  0
   39.0970   24.2670   41.8860 C   0  0  0  0  0  0  0  0  0  0  0  0
   37.7890   24.5200   41.5250 C   0  0  0  0  0  0  0  0  0  0  0  0
   37.2280   25.6160   42.0520 N   0  0  0  0  0  0  0  0  0  0  0  0
   37.8090   26.4770   42.8850 C   0  0  0  0  0  0  0  0  0  0  0  0
   39.0590   26.2490   43.2390 N   0  0  0  0  0  0  0  0  0  0  0  0
   40.7580   24.9880   43.0610 H   0  0  0  0  0  0  0  0  0  0  0  0
   39.6350   23.4070   41.5100 H   0  0  0  0  0  0  0  0  0  0  0  0
   37.1520   23.5680   40.6120 C   0  0  0  0  0  0  0  0  0  0  0  0
   37.3360   23.9920   39.3040 F   0  0  0  0  0  0  0  0  0  0  0  0
   35.7780   23.7040   40.8240 F   0  0  0  0  0  0  0  0  0  0  0  0
   37.6010   22.2940   40.7770 F   0  0  0  0  0  0  0  0  0  0  0  0
  1 20  1  0  0  0  0
  2  1  1  0  0  0  0
  2  6  1  0  0  0  0
  3  2  2  0  0  0  0
  4  3  1  0  0  0  0
  4  5  1  0  0  0  0
  5  1  2  0  0  0  0
  8  7  1  0  0  0  0
  9  8  1  0  0  0  0
  9  3  1  0  0  0  0
 10  9  2  0  0  0  0
 11 10  1  0  0  0  0
 12 14  2  0  0  0  0
 12 10  1  0  0  0  0
 13 12  1  0  0  0  0
 14 15  1  0  0  0  0
 15  8  2  0  0  0  0
 16  4  1  0  0  0  0
 17 16  1  0  0  0  0
 18 16  1  0  0  0  0
 19 16  1  0  0  0  0
 20 21  1  0  0  0  0
 20 22  1  0  0  0  0
 23 20  1  0  0  0  0
 23 24  1  0  0  0  0
 25 23  1  0  0  0  0
 26 32  1  0  0  0  0
 26 31  1  0  0  0  0
 27 26  2  0  0  0  0
 28 27  1  0  0  0  0
 28 29  2  0  0  0  0
 29 30  1  0  0  0  0
 30 31  2  0  0  0  0
 30 23  1  0  0  0  0
 33 27  1  0  0  0  0
 34 37  1  0  0  0  0
 34 36  1  0  0  0  0
 34 28  1  0  0  0  0
 35 34  1  0  0  0  0
M  END
>  <minimizedAffinity>
-6.08403587

$$$$

 OpenBabel03242515193D

 37 39  0  0  0  0  0  0  0  0999 V2000
   36.5170   29.0790   39.7370 C   0  0  0  0  0  0  0  0  0  0  0  0
   36.8150   27.7720   39.4300 C   0  0  0  0  0  0  0  0  0  0  0  0
   37.0910   27.1360   40.6220 C   0  0  0  0  0  0  0  0  0  0  0  0
   36.9630   28.0270   41.5950 N   0  0  0  0  0  0  0  0  0  0  0  0
   36.6170   29.2020   41.0530 N   0  0  0  0  0  0  0  0  0  0  0  0
   36.8070   27.4070   38.4130 H   0  0  0  0  0  0  0  0  0  0  0  0
   39.7010   26.4080   40.3920 F   0  0  0  0  0  0  0  0  0  0  0  0
   38.7760   25.3940   40.4870 C   0  0  0  0  0  0  0  0  0  0  0  0
   37.4170   25.7250   40.6000 C   0  0  0  0  0  0  0  0  0  0  0  0
   36.6210   24.6070   40.6860 C   0  0  0  0  0  0  0  0  0  0  0  0
   35.5660   24.7930   40.7850 H   0  0  0  0  0  0  0  0  0  0  0  0
   37.0910   23.3150   40.6640 C   0  0  0  0  0  0  0  0  0  0  0  0
   36.3620   22.5230   40.7400 H   0  0  0  0  0  0  0  0  0  0  0  0
   38.4380   23.0660   40.5520 C   0  0  0  0  0  3  0  0  0  0  0  0
   39.3050   24.1220   40.4600 C   0  0  0  0  0  3  0  0  0  0  0  0
   37.1520   27.7890   43.0330 C   0  0  0  0  0  0  0  0  0  0  0  0
   38.4240   27.2010   43.2400 F   0  0  0  0  0  0  0  0  0  0  0  0
   36.1580   27.0320   43.5360 F   0  0  0  0  0  0  0  0  0  0  0  0
   37.2190   29.0050   43.6770 F   0  0  0  0  0  0  0  0  0  0  0  0
   36.1410   30.1920   38.8430 C   0  0  0  0  0  0  0  0  0  0  0  0
   35.4410   29.7340   38.0880 H   0  0  0  0  0  0  0  0  0  0  0  0
   35.5680   30.9630   39.3600 H   0  0  0  0  0  0  0  0  0  0  0  0
   37.3310   30.7500   38.1220 C   0  0  0  0  0  0  0  0  0  0  0  0
   38.1460   29.9690   38.0860 H   0  0  0  0  0  0  0  0  0  0  0  0
   37.0390   30.9400   37.1030 H   0  0  0  0  0  0  0  0  0  0  0  0
   38.0690   33.7510   40.1940 C   0  0  0  0  0  0  0  0  0  0  0  0
   39.4440   33.9320   39.9040 C   0  0  0  0  0  0  0  0  0  0  0  0
   40.0300   33.0360   39.0330 C   0  0  0  0  0  0  0  0  0  0  0  0
   39.2350   32.0760   38.5430 N   0  0  0  0  0  0  0  0  0  0  0  0
   37.9430   31.9060   38.8160 C   0  0  0  0  0  0  0  0  0  0  0  0
   37.3690   32.7540   39.6470 N   0  0  0  0  0  0  0  0  0  0  0  0
   37.5960   34.4620   40.8860 H   0  0  0  0  0  0  0  0  0  0  0  0
   40.0050   34.7430   40.3500 H   0  0  0  0  0  0  0  0  0  0  0  0
   41.4520   33.2250   38.7380 C   0  0  0  0  0  0  0  0  0  0  0  0
   42.0910   31.9930   38.7360 F   0  0  0  0  0  0  0  0  0  0  0  0
   41.9830   33.8820   39.8510 F   0  0  0  0  0  0  0  0  0  0  0  0
   41.6680   33.8860   37.5680 F   0  0  0  0  0  0  0  0  0  0  0  0
  1  5  2  0  0  0  0
  2  1  1  0  0  0  0
  2  3  2  0  0  0  0
  3  4  1  0  0  0  0
  4 16  1  0  0  0  0
  5  4  1  0  0  0  0
  6  2  1  0  0  0  0
  7  8  1  0  0  0  0
  8  9  1  0  0  0  0
  9  3  1  0  0  0  0
  9 10  2  0  0  0  0
 10 11  1  0  0  0  0
 12 10  1  0  0  0  0
 12 13  1  0  0  0  0
 14 12  2  0  0  0  0
 15  8  2  0  0  0  0
 15 14  1  0  0  0  0
 16 17  1  0  0  0  0
 16 18  1  0  0  0  0
 16 19  1  0  0  0  0
 20 22  1  0  0  0  0
 20  1  1  0  0  0  0
 21 20  1  0  0  0  0
 23 30  1  0  0  0  0
 23 20  1  0  0  0  0
 24 23  1  0  0  0  0
 25 23  1  0  0  0  0
 26 32  1  0  0  0  0
 27 26  1  0  0  0  0
 27 33  1  0  0  0  0
 28 27  2  0  0  0  0
 29 30  2  0  0  0  0
 29 28  1  0  0  0  0
 30 31  1  0  0  0  0
 31 26  2  0  0  0  0
 34 28  1  0  0  0  0
 34 36  1  0  0  0  0
 35 34  1  0  0  0  0
 37 34  1  0  0  0  0
M  END
>  <minimizedAffinity>
-5.99928761

$$$$

 OpenBabel03242515193D

 37 39  0  0  0  0  0  0  0  0999 V2000
   34.1530   28.4360   36.9420 C   0  0  0  0  0  0  0  0  0  0  0  0
   34.5080   27.7080   38.0540 C   0  0  0  0  0  0  0  0  0  0  0  0
   35.6570   28.2820   38.5550 C   0  0  0  0  0  0  0  0  0  0  0  0
   35.9720   29.3060   37.7750 N   0  0  0  0  0  0  0  0  0  0  0  0
   35.0580   29.3940   36.8000 N   0  0  0  0  0  0  0  0  0  0  0  0
   33.9290   26.8610   38.3920 H   0  0  0  0  0  0  0  0  0  0  0  0
   35.2570   29.5700   40.9160 F   0  0  0  0  0  0  0  0  0  0  0  0
   36.0100   28.4190   40.9530 C   0  0  0  0  0  0  0  0  0  0  0  0
   36.2480   27.7260   39.7560 C   0  0  0  0  0  0  0  0  0  0  0  0
   37.0120   26.6020   39.9550 C   0  0  0  0  0  0  0  0  0  0  0  0
   37.2220   26.0190   39.0760 H   0  0  0  0  0  0  0  0  0  0  0  0
   37.4920   26.1950   41.1780 C   0  0  0  0  0  0  0  0  0  0  0  0
   38.0820   25.2910   41.2020 H   0  0  0  0  0  0  0  0  0  0  0  0
   37.2180   26.9250   42.3100 C   0  0  0  0  0  3  0  0  0  0  0  0
   36.4630   28.0610   42.2050 C   0  0  0  0  0  3  0  0  0  0  0  0
   37.1170   30.2150   37.9370 C   0  0  0  0  0  0  0  0  0  0  0  0
   38.3000   29.4470   38.0590 F   0  0  0  0  0  0  0  0  0  0  0  0
   36.9390   31.0380   38.9880 F   0  0  0  0  0  0  0  0  0  0  0  0
   37.2810   30.9320   36.7720 F   0  0  0  0  0  0  0  0  0  0  0  0
   33.0030   28.2640   36.0340 C   0  0  0  0  0  0  0  0  0  0  0  0
   33.2820   27.3940   35.3740 H   0  0  0  0  0  0  0  0  0  0  0  0
   32.0970   27.9650   36.5640 H   0  0  0  0  0  0  0  0  0  0  0  0
   32.7900   29.4720   35.1730 C   0  0  0  0  0  0  0  0  0  0  0  0
   33.7150   30.1210   35.2050 H   0  0  0  0  0  0  0  0  0  0  0  0
   32.6810   29.1380   34.1550 H   0  0  0  0  0  0  0  0  0  0  0  0
   30.2280   32.1240   35.6700 C   0  0  0  0  0  0  0  0  0  0  0  0
   29.6390   31.6900   36.8810 C   0  0  0  0  0  0  0  0  0  0  0  0
   30.1400   30.5370   37.4510 C   0  0  0  0  0  0  0  0  0  0  0  0
   31.1430   29.9380   36.7970 N   0  0  0  0  0  0  0  0  0  0  0  0
   31.6970   30.3470   35.6570 C   0  0  0  0  0  0  0  0  0  0  0  0
   31.2280   31.4470   35.1010 N   0  0  0  0  0  0  0  0  0  0  0  0
   29.8340   33.0430   35.2110 H   0  0  0  0  0  0  0  0  0  0  0  0
   28.8290   32.2440   37.3380 H   0  0  0  0  0  0  0  0  0  0  0  0
   29.5260   30.0890   38.7030 C   0  0  0  0  0  0  0  0  0  0  0  0
   28.8500   31.1500   39.2900 F   0  0  0  0  0  0  0  0  0  0  0  0
   30.5880   29.8380   39.5750 F   0  0  0  0  0  0  0  0  0  0  0  0
   28.7000   29.0200   38.5360 F   0  0  0  0  0  0  0  0  0  0  0  0
  1  2  1  0  0  0  0
  2  6  1  0  0  0  0
  2  3  2  0  0  0  0
  3  9  1  0  0  0  0
  4 16  1  0  0  0  0
  4  3  1  0  0  0  0
  5  1  2  0  0  0  0
  5  4  1  0  0  0  0
  7  8  1  0  0  0  0
  8 15  1  0  0  0  0
  9 10  1  0  0  0  0
  9  8  2  0  0  0  0
 10 12  2  0  0  0  0
 11 10  1  0  0  0  0
 12 13  1  0  0  0  0
 12 14  1  0  0  0  0
 15 14  2  0  0  0  0
 16 17  1  0  0  0  0
 16 18  1  0  0  0  0
 19 16  1  0  0  0  0
 20 22  1  0  0  0  0
 20  1  1  0  0  0  0
 21 20  1  0  0  0  0
 23 24  1  0  0  0  0
 23 30  1  0  0  0  0
 23 20  1  0  0  0  0
 25 23  1  0  0  0  0
 26 27  1  0  0  0  0
 27 33  1  0  0  0  0
 27 28  2  0  0  0  0
 28 34  1  0  0  0  0
 29 28  1  0  0  0  0
 30 29  2  0  0  0  0
 31 30  1  0  0  0  0
 31 26  2  0  0  0  0
 32 26  1  0  0  0  0
 34 35  1  0  0  0  0
 34 36  1  0  0  0  0
 37 34  1  0  0  0  0
M  END
>  <minimizedAffinity>
-5.91138744

$$$$

 OpenBabel03242515193D

 37 39  0  0  0  0  0  0  0  0999 V2000
   35.0640   29.0590   37.5540 C   0  0  0  0  0  0  0  0  0  0  0  0
   35.2460   28.1950   38.6090 C   0  0  0  0  0  0  0  0  0  0  0  0
   36.2660   28.7140   39.3770 C   0  0  0  0  0  0  0  0  0  0  0  0
   36.6730   29.8380   38.8050 N   0  0  0  0  0  0  0  0  0  0  0  0
   35.9420   30.0410   37.7010 N   0  0  0  0  0  0  0  0  0  0  0  0
   34.6490   27.3010   38.7250 H   0  0  0  0  0  0  0  0  0  0  0  0
   38.1590   26.7710   39.1930 F   0  0  0  0  0  0  0  0  0  0  0  0
   37.6420   27.0220   40.4430 C   0  0  0  0  0  0  0  0  0  0  0  0
   36.6570   28.0120   40.5830 C   0  0  0  0  0  0  0  0  0  0  0  0
   36.2430   28.1450   41.8860 C   0  0  0  0  0  0  0  0  0  0  0  0
   35.4930   28.8970   42.0630 H   0  0  0  0  0  0  0  0  0  0  0  0
   36.7280   27.4010   42.9360 C   0  0  0  0  0  0  0  0  0  0  0  0
   36.3200   27.6020   43.9150 H   0  0  0  0  0  0  0  0  0  0  0  0
   37.6950   26.4470   42.7240 C   0  0  0  0  0  3  0  0  0  0  0  0
   38.1670   26.2470   41.4550 C   0  0  0  0  0  3  0  0  0  0  0  0
   37.7360   30.7330   39.2850 C   0  0  0  0  0  0  0  0  0  0  0  0
   38.9540   30.0140   39.3430 F   0  0  0  0  0  0  0  0  0  0  0  0
   37.4130   31.2760   40.4740 F   0  0  0  0  0  0  0  0  0  0  0  0
   37.9500   31.7120   38.3390 F   0  0  0  0  0  0  0  0  0  0  0  0
   34.1000   28.9920   36.4390 C   0  0  0  0  0  0  0  0  0  0  0  0
   34.0260   30.0480   36.0550 H   0  0  0  0  0  0  0  0  0  0  0  0
   34.4690   28.3900   35.6070 H   0  0  0  0  0  0  0  0  0  0  0  0
   32.7440   28.5510   36.9050 C   0  0  0  0  0  0  0  0  0  0  0  0
   32.3090   27.8270   36.1540 H   0  0  0  0  0  0  0  0  0  0  0  0
   32.8720   28.0050   37.8240 H   0  0  0  0  0  0  0  0  0  0  0  0
   30.1830   31.0590   37.9010 C   0  0  0  0  0  0  0  0  0  0  0  0
   30.0540   31.7890   36.6940 C   0  0  0  0  0  0  0  0  0  0  0  0
   30.8340   31.3910   35.6270 C   0  0  0  0  0  0  0  0  0  0  0  0
   31.6430   30.3450   35.8400 N   0  0  0  0  0  0  0  0  0  0  0  0
   31.7640   29.6590   36.9750 C   0  0  0  0  0  0  0  0  0  0  0  0
   31.0250   30.0280   38.0030 N   0  0  0  0  0  0  0  0  0  0  0  0
   29.5630   31.3710   38.7540 H   0  0  0  0  0  0  0  0  0  0  0  0
   29.3690   32.6230   36.6180 H   0  0  0  0  0  0  0  0  0  0  0  0
   30.7000   32.1510   34.3820 C   0  0  0  0  0  0  0  0  0  0  0  0
   30.8760   31.2990   33.3020 F   0  0  0  0  0  0  0  0  0  0  0  0
   31.8120   32.9950   34.3350 F   0  0  0  0  0  0  0  0  0  0  0  0
   29.5150   32.8130   34.2910 F   0  0  0  0  0  0  0  0  0  0  0  0
  1  5  2  0  0  0  0
  1  2  1  0  0  0  0
  2  6  1  0  0  0  0
  2  3  2  0  0  0  0
  3  9  1  0  0  0  0
  4 16  1  0  0  0  0
  4  3  1  0  0  0  0
  5  4  1  0  0  0  0
  7  8  1  0  0  0  0
  8  9  2  0  0  0  0
  8 15  1  0  0  0  0
  9 10  1  0  0  0  0
 10 11  1  0  0  0  0
 10 12  2  0  0  0  0
 12 13  1  0  0  0  0
 14 12  1  0  0  0  0
 15 14  2  0  0  0  0
 16 17  1  0  0  0  0
 16 18  1  0  0  0  0
 19 16  1  0  0  0  0
 20 23  1  0  0  0  0
 20  1  1  0  0  0  0
 21 20  1  0  0  0  0
 22 20  1  0  0  0  0
 23 30  1  0  0  0  0
 23 25  1  0  0  0  0
 24 23  1  0  0  0  0
 26 31  1  0  0  0  0
 26 32  1  0  0  0  0
 27 26  2  0  0  0  0
 28 29  2  0  0  0  0
 28 27  1  0  0  0  0
 29 30  1  0  0  0  0
 30 31  2  0  0  0  0
 33 27  1  0  0  0  0
 34 28  1  0  0  0  0
 35 34  1  0  0  0  0
 36 34  1  0  0  0  0
 37 34  1  0  0  0  0
M  END
>  <minimizedAffinity>
-5.90585947

$$$$

 OpenBabel03242515193D

 37 39  0  0  0  0  0  0  0  0999 V2000
   37.3250   29.6290   41.1790 C   0  0  0  0  0  0  0  0  0  0  0  0
   36.7550   29.0110   40.0890 C   0  0  0  0  0  0  0  0  0  0  0  0
   37.0450   29.7940   38.9920 C   0  0  0  0  0  0  0  0  0  0  0  0
   37.7550   30.8320   39.4100 N   0  0  0  0  0  0  0  0  0  0  0  0
   37.9200   30.7270   40.7350 N   0  0  0  0  0  0  0  0  0  0  0  0
   36.2030   28.0860   40.1790 H   0  0  0  0  0  0  0  0  0  0  0  0
   38.8590   28.7790   37.2400 F   0  0  0  0  0  0  0  0  0  0  0  0
   37.5510   28.8400   36.8170 C   0  0  0  0  0  0  0  0  0  0  0  0
   36.5820   29.3640   37.6870 C   0  0  0  0  0  0  0  0  0  0  0  0
   35.3290   29.3580   37.1240 C   0  0  0  0  0  0  0  0  0  0  0  0
   34.5370   29.7390   37.7460 H   0  0  0  0  0  0  0  0  0  0  0  0
   35.0470   28.8970   35.8600 C   0  0  0  0  0  0  0  0  0  0  0  0
   34.0190   28.9460   35.5330 H   0  0  0  0  0  0  0  0  0  0  0  0
   36.0480   28.3960   35.0630 C   0  0  0  0  0  3  0  0  0  0  0  0
   37.3300   28.3640   35.5430 C   0  0  0  0  0  3  0  0  0  0  0  0
   38.2910   31.9210   38.5810 C   0  0  0  0  0  0  0  0  0  0  0  0
   37.3010   32.3250   37.6530 F   0  0  0  0  0  0  0  0  0  0  0  0
   39.4330   31.5500   37.9710 F   0  0  0  0  0  0  0  0  0  0  0  0
   38.4960   33.0250   39.3790 F   0  0  0  0  0  0  0  0  0  0  0  0
   37.3310   29.2170   42.5950 C   0  0  0  0  0  0  0  0  0  0  0  0
   36.8900   30.0900   43.1540 H   0  0  0  0  0  0  0  0  0  0  0  0
   36.6690   28.3700   42.7830 H   0  0  0  0  0  0  0  0  0  0  0  0
   38.7230   28.9770   43.0970 C   0  0  0  0  0  0  0  0  0  0  0  0
   39.4620   29.4670   42.3960 H   0  0  0  0  0  0  0  0  0  0  0  0
   38.8220   29.4750   44.0470 H   0  0  0  0  0  0  0  0  0  0  0  0
   40.3440   25.6660   43.5950 C   0  0  0  0  0  0  0  0  0  0  0  0
   39.4430   24.8290   42.8920 C   0  0  0  0  0  0  0  0  0  0  0  0
   38.3530   25.4320   42.2980 C   0  0  0  0  0  0  0  0  0  0  0  0
   38.2540   26.7590   42.4450 N   0  0  0  0  0  0  0  0  0  0  0  0
   39.1010   27.5450   43.1060 C   0  0  0  0  0  0  0  0  0  0  0  0
   40.1470   26.9840   43.6800 N   0  0  0  0  0  0  0  0  0  0  0  0
   41.2160   25.1910   44.0700 H   0  0  0  0  0  0  0  0  0  0  0  0
   39.6100   23.7620   42.8260 H   0  0  0  0  0  0  0  0  0  0  0  0
   37.4220   24.5630   41.5740 C   0  0  0  0  0  0  0  0  0  0  0  0
   36.2670   24.3990   42.3250 F   0  0  0  0  0  0  0  0  0  0  0  0
   38.0110   23.2960   41.5760 F   0  0  0  0  0  0  0  0  0  0  0  0
   37.1300   25.0210   40.3260 F   0  0  0  0  0  0  0  0  0  0  0  0
  1 20  1  0  0  0  0
  2  6  1  0  0  0  0
  2  1  1  0  0  0  0
  3  4  1  0  0  0  0
  3  2  2  0  0  0  0
  4  5  1  0  0  0  0
  5  1  2  0  0  0  0
  8  7  1  0  0  0  0
  8  9  1  0  0  0  0
  9  3  1  0  0  0  0
 10  9  2  0  0  0  0
 10 11  1  0  0  0  0
 12 10  1  0  0  0  0
 13 12  1  0  0  0  0
 14 15  1  0  0  0  0
 14 12  2  0  0  0  0
 15  8  2  0  0  0  0
 16 19  1  0  0  0  0
 16  4  1  0  0  0  0
 17 16  1  0  0  0  0
 18 16  1  0  0  0  0
 20 22  1  0  0  0  0
 20 23  1  0  0  0  0
 20 21  1  0  0  0  0
 23 30  1  0  0  0  0
 23 25  1  0  0  0  0
 24 23  1  0  0  0  0
 26 31  1  0  0  0  0
 26 32  1  0  0  0  0
 27 26  2  0  0  0  0
 28 29  2  0  0  0  0
 28 27  1  0  0  0  0
 29 30  1  0  0  0  0
 30 31  2  0  0  0  0
 33 27  1  0  0  0  0
 34 36  1  0  0  0  0
 34 28  1  0  0  0  0
 34 35  1  0  0  0  0
 37 34  1  0  0  0  0
M  END
>  <minimizedAffinity>
-5.8672781

$$$$
