
 OpenBabel03252503523D

 21 22  0  0  0  0  0  0  0  0999 V2000
   36.8020   28.5240   41.8690 C   0  0  0  0  0  0  0  0  0  0  0  0
   36.1210   28.2920   40.6590 C   0  0  0  0  0  0  0  0  0  0  0  0
   35.9880   29.3390   39.7480 C   0  0  0  0  0  0  0  0  0  0  0  0
   36.5330   30.5370   40.0900 N   0  0  0  0  0  0  0  0  0  0  0  0
   37.1770   30.7340   41.2480 C   0  0  0  0  0  0  0  0  0  0  0  0
   37.3130   29.7360   42.1350 N   0  0  0  0  0  0  0  0  0  0  0  0
   35.7220   27.3320   40.4600 H   0  0  0  0  0  0  0  0  0  0  0  0
   37.5930   31.7040   41.4770 H   0  0  0  0  0  0  0  0  0  0  0  0
   33.1890   29.1850   39.6450 F   0  0  0  0  0  0  0  0  0  0  0  0
   33.9170   29.0970   38.4850 C   0  0  0  0  0  0  0  0  0  0  0  0
   35.2950   29.1670   38.4770 C   0  0  0  0  0  0  0  0  0  0  0  0
   35.9070   29.0670   37.2470 C   0  0  0  0  0  0  0  0  0  0  0  0
   36.9770   29.1170   37.2040 H   0  0  0  0  0  0  0  0  0  0  0  0
   35.2040   28.9040   36.0720 C   0  0  0  0  0  0  0  0  0  0  0  0
   35.7260   28.8290   35.1280 H   0  0  0  0  0  0  0  0  0  0  0  0
   33.8380   28.8390   36.1190 C   0  0  0  0  0  3  0  0  0  0  0  0
   33.1690   28.9350   37.3280 C   0  0  0  0  0  3  0  0  0  0  0  0
   36.9190   27.3730   42.8140 C   0  0  0  0  0  0  0  0  0  0  0  0
   37.0200   26.1800   42.1620 F   0  0  0  0  0  0  0  0  0  0  0  0
   38.0140   27.6220   43.6460 F   0  0  0  0  0  0  0  0  0  0  0  0
   35.8190   27.3740   43.6800 F   0  0  0  0  0  0  0  0  0  0  0  0
  1  6  1  0  0  0  0
  1 18  1  0  0  0  0
  2  1  2  0  0  0  0
  3  4  2  0  0  0  0
  3  2  1  0  0  0  0
  4  5  1  0  0  0  0
  5  8  1  0  0  0  0
  5  6  2  0  0  0  0
  7  2  1  0  0  0  0
 10  9  1  0  0  0  0
 11 10  1  0  0  0  0
 11  3  1  0  0  0  0
 12 11  2  0  0  0  0
 13 12  1  0  0  0  0
 14 16  2  0  0  0  0
 14 12  1  0  0  0  0
 15 14  1  0  0  0  0
 16 17  1  0  0  0  0
 17 10  2  0  0  0  0
 18 20  1  0  0  0  0
 18 21  1  0  0  0  0
 19 18  1  0  0  0  0
M  END
>  <minimizedAffinity>
-5.22613764

$$$$

 OpenBabel03252503523D

 21 22  0  0  0  0  0  0  0  0999 V2000
   36.8120   28.4750   41.9330 C   0  0  0  0  0  0  0  0  0  0  0  0
   36.0970   28.2620   40.7390 C   0  0  0  0  0  0  0  0  0  0  0  0
   35.9330   29.3250   39.8520 C   0  0  0  0  0  0  0  0  0  0  0  0
   36.4820   30.5190   40.2010 N   0  0  0  0  0  0  0  0  0  0  0  0
   37.1580   30.6980   41.3430 C   0  0  0  0  0  0  0  0  0  0  0  0
   37.3250   29.6850   42.2080 N   0  0  0  0  0  0  0  0  0  0  0  0
   35.6970   27.3030   40.5340 H   0  0  0  0  0  0  0  0  0  0  0  0
   37.5770   31.6650   41.5780 H   0  0  0  0  0  0  0  0  0  0  0  0
   37.2730   29.4070   37.3890 F   0  0  0  0  0  0  0  0  0  0  0  0
   35.9130   29.2220   37.4170 C   0  0  0  0  0  0  0  0  0  0  0  0
   35.2040   29.1730   38.5990 C   0  0  0  0  0  0  0  0  0  0  0  0
   33.8440   28.9810   38.4910 C   0  0  0  0  0  0  0  0  0  0  0  0
   33.2620   28.9380   39.3910 H   0  0  0  0  0  0  0  0  0  0  0  0
   33.2010   28.8420   37.2790 C   0  0  0  0  0  0  0  0  0  0  0  0
   32.1310   28.6940   37.2410 H   0  0  0  0  0  0  0  0  0  0  0  0
   33.9380   28.8960   36.1270 C   0  0  0  0  0  3  0  0  0  0  0  0
   35.3080   29.0870   36.1760 C   0  0  0  0  0  3  0  0  0  0  0  0
   36.9620   27.3070   42.8530 C   0  0  0  0  0  0  0  0  0  0  0  0
   38.1250   27.3570   43.5620 F   0  0  0  0  0  0  0  0  0  0  0  0
   35.8340   27.2750   43.6780 F   0  0  0  0  0  0  0  0  0  0  0  0
   36.8820   26.1230   42.1110 F   0  0  0  0  0  0  0  0  0  0  0  0
  1  6  1  0  0  0  0
  1 18  1  0  0  0  0
  2  1  2  0  0  0  0
  3  4  2  0  0  0  0
  3  2  1  0  0  0  0
  4  5  1  0  0  0  0
  5  8  1  0  0  0  0
  5  6  2  0  0  0  0
  7  2  1  0  0  0  0
  9 10  1  0  0  0  0
 10 11  1  0  0  0  0
 11  3  1  0  0  0  0
 12 11  2  0  0  0  0
 12 13  1  0  0  0  0
 14 12  1  0  0  0  0
 15 14  1  0  0  0  0
 16 17  1  0  0  0  0
 16 14  2  0  0  0  0
 17 10  2  0  0  0  0
 18 19  1  0  0  0  0
 18 20  1  0  0  0  0
 21 18  1  0  0  0  0
M  END
>  <minimizedAffinity>
-5.09646463

$$$$

 OpenBabel03252503523D

 21 22  0  0  0  0  0  0  0  0999 V2000
   37.1780   30.7600   38.2420 C   0  0  0  0  0  0  0  0  0  0  0  0
   37.3900   29.7790   39.2290 C   0  0  0  0  0  0  0  0  0  0  0  0
   37.5410   30.1790   40.5570 C   0  0  0  0  0  0  0  0  0  0  0  0
   37.4720   31.5110   40.8180 N   0  0  0  0  0  0  0  0  0  0  0  0
   37.2700   32.4270   39.8620 C   0  0  0  0  0  0  0  0  0  0  0  0
   37.1230   32.0580   38.5790 N   0  0  0  0  0  0  0  0  0  0  0  0
   37.4320   28.7590   38.9510 H   0  0  0  0  0  0  0  0  0  0  0  0
   37.2230   33.4750   40.1170 H   0  0  0  0  0  0  0  0  0  0  0  0
   35.4650   28.5190   41.4530 F   0  0  0  0  0  0  0  0  0  0  0  0
   36.7070   28.4250   42.0290 C   0  0  0  0  0  0  0  0  0  0  0  0
   37.7630   29.2160   41.6270 C   0  0  0  0  0  0  0  0  0  0  0  0
   38.9590   29.0220   42.2850 C   0  0  0  0  0  0  0  0  0  0  0  0
   39.8010   29.6210   41.9980 H   0  0  0  0  0  0  0  0  0  0  0  0
   39.1170   28.0960   43.2940 C   0  0  0  0  0  0  0  0  0  0  0  0
   40.0740   27.9780   43.7830 H   0  0  0  0  0  0  0  0  0  0  0  0
   38.0460   27.3290   43.6650 C   0  0  0  0  0  3  0  0  0  0  0  0
   36.8210   27.4800   43.0380 C   0  0  0  0  0  3  0  0  0  0  0  0
   37.0230   30.2850   36.8340 C   0  0  0  0  0  0  0  0  0  0  0  0
   37.1660   31.2960   35.9310 F   0  0  0  0  0  0  0  0  0  0  0  0
   37.9460   29.2550   36.6350 F   0  0  0  0  0  0  0  0  0  0  0  0
   35.7760   29.6650   36.6920 F   0  0  0  0  0  0  0  0  0  0  0  0
  1  6  2  0  0  0  0
  1  2  1  0  0  0  0
  2  3  2  0  0  0  0
  3  4  1  0  0  0  0
  3 11  1  0  0  0  0
  5  8  1  0  0  0  0
  5  4  2  0  0  0  0
  6  5  1  0  0  0  0
  7  2  1  0  0  0  0
  9 10  1  0  0  0  0
 10 17  1  0  0  0  0
 11 10  2  0  0  0  0
 11 12  1  0  0  0  0
 12 14  2  0  0  0  0
 13 12  1  0  0  0  0
 14 16  1  0  0  0  0
 14 15  1  0  0  0  0
 17 16  2  0  0  0  0
 18  1  1  0  0  0  0
 19 18  1  0  0  0  0
 20 18  1  0  0  0  0
 21 18  1  0  0  0  0
M  END
>  <minimizedAffinity>
-4.88998127

$$$$

 OpenBabel03252503523D

 21 22  0  0  0  0  0  0  0  0999 V2000
   36.8240   29.0520   41.4260 C   0  0  0  0  0  0  0  0  0  0  0  0
   37.0590   27.7900   40.8470 C   0  0  0  0  0  0  0  0  0  0  0  0
   37.8740   26.8800   41.5200 C   0  0  0  0  0  0  0  0  0  0  0  0
   38.3980   27.2750   42.7110 N   0  0  0  0  0  0  0  0  0  0  0  0
   38.1610   28.4810   43.2420 C   0  0  0  0  0  0  0  0  0  0  0  0
   37.3780   29.3680   42.6070 N   0  0  0  0  0  0  0  0  0  0  0  0
   36.6170   27.5530   39.9150 H   0  0  0  0  0  0  0  0  0  0  0  0
   38.5990   28.7500   44.1910 H   0  0  0  0  0  0  0  0  0  0  0  0
   36.4590   24.6260   42.4060 F   0  0  0  0  0  0  0  0  0  0  0  0
   37.4330   24.4850   41.4490 C   0  0  0  0  0  0  0  0  0  0  0  0
   38.1590   25.5580   40.9770 C   0  0  0  0  0  0  0  0  0  0  0  0
   39.1070   25.2820   40.0150 C   0  0  0  0  0  0  0  0  0  0  0  0
   39.6890   26.0940   39.6260 H   0  0  0  0  0  0  0  0  0  0  0  0
   39.3370   24.0110   39.5340 C   0  0  0  0  0  0  0  0  0  0  0  0
   40.0920   23.8400   38.7790 H   0  0  0  0  0  0  0  0  0  0  0  0
   38.5970   22.9700   40.0260 C   0  0  0  0  0  3  0  0  0  0  0  0
   37.6310   23.1890   40.9930 C   0  0  0  0  0  3  0  0  0  0  0  0
   35.9450   29.9940   40.6690 C   0  0  0  0  0  0  0  0  0  0  0  0
   34.7000   29.4800   40.4610 F   0  0  0  0  0  0  0  0  0  0  0  0
   35.9160   31.2000   41.3750 F   0  0  0  0  0  0  0  0  0  0  0  0
   36.5580   30.3180   39.4530 F   0  0  0  0  0  0  0  0  0  0  0  0
  1  6  1  0  0  0  0
  2  1  2  0  0  0  0
  2  3  1  0  0  0  0
  3  4  2  0  0  0  0
  4  5  1  0  0  0  0
  5  8  1  0  0  0  0
  6  5  2  0  0  0  0
  7  2  1  0  0  0  0
 10  9  1  0  0  0  0
 11 10  2  0  0  0  0
 11  3  1  0  0  0  0
 12 11  1  0  0  0  0
 13 12  1  0  0  0  0
 14 12  2  0  0  0  0
 14 16  1  0  0  0  0
 15 14  1  0  0  0  0
 16 17  2  0  0  0  0
 17 10  1  0  0  0  0
 18 20  1  0  0  0  0
 18  1  1  0  0  0  0
 19 18  1  0  0  0  0
 21 18  1  0  0  0  0
M  END
>  <minimizedAffinity>
-4.87089157

$$$$

 OpenBabel03252503523D

 21 22  0  0  0  0  0  0  0  0999 V2000
   37.0210   27.7640   41.6030 C   0  0  0  0  0  0  0  0  0  0  0  0
   37.4860   29.0910   41.5470 C   0  0  0  0  0  0  0  0  0  0  0  0
   37.5410   29.7350   40.3110 C   0  0  0  0  0  0  0  0  0  0  0  0
   37.1360   29.0290   39.2220 N   0  0  0  0  0  0  0  0  0  0  0  0
   36.6970   27.7670   39.3000 C   0  0  0  0  0  0  0  0  0  0  0  0
   36.6380   27.1330   40.4820 N   0  0  0  0  0  0  0  0  0  0  0  0
   37.7860   29.5780   42.4380 H   0  0  0  0  0  0  0  0  0  0  0  0
   36.3860   27.2450   38.4070 H   0  0  0  0  0  0  0  0  0  0  0  0
   40.2850   30.3160   40.2670 F   0  0  0  0  0  0  0  0  0  0  0  0
   39.3720   31.3370   40.1660 C   0  0  0  0  0  0  0  0  0  0  0  0
   38.0120   31.1080   40.1820 C   0  0  0  0  0  0  0  0  0  0  0  0
   37.2030   32.2180   40.0720 C   0  0  0  0  0  0  0  0  0  0  0  0
   36.1400   32.0760   40.0810 H   0  0  0  0  0  0  0  0  0  0  0  0
   37.6990   33.4980   39.9520 C   0  0  0  0  0  0  0  0  0  0  0  0
   37.0270   34.3400   39.8690 H   0  0  0  0  0  0  0  0  0  0  0  0
   39.0550   33.6860   39.9400 C   0  0  0  0  0  3  0  0  0  0  0  0
   39.9160   32.6070   40.0460 C   0  0  0  0  0  3  0  0  0  0  0  0
   36.9800   27.1150   42.9490 C   0  0  0  0  0  0  0  0  0  0  0  0
   35.8380   27.4140   43.6300 F   0  0  0  0  0  0  0  0  0  0  0  0
   37.1440   25.7400   42.7570 F   0  0  0  0  0  0  0  0  0  0  0  0
   38.1100   27.5000   43.6800 F   0  0  0  0  0  0  0  0  0  0  0  0
  1 18  1  0  0  0  0
  2  1  1  0  0  0  0
  2  7  1  0  0  0  0
  3  2  2  0  0  0  0
  4  5  2  0  0  0  0
  4  3  1  0  0  0  0
  5  6  1  0  0  0  0
  6  1  2  0  0  0  0
  8  5  1  0  0  0  0
 10 11  1  0  0  0  0
 10  9  1  0  0  0  0
 11  3  1  0  0  0  0
 12 13  1  0  0  0  0
 12 11  2  0  0  0  0
 14 12  1  0  0  0  0
 15 14  1  0  0  0  0
 16 14  2  0  0  0  0
 16 17  1  0  0  0  0
 17 10  2  0  0  0  0
 18 19  1  0  0  0  0
 18 21  1  0  0  0  0
 20 18  1  0  0  0  0
M  END
>  <minimizedAffinity>
-4.82730675

$$$$

 OpenBabel03252503523D

 21 22  0  0  0  0  0  0  0  0999 V2000
   37.2050   26.7580   41.5830 C   0  0  0  0  0  0  0  0  0  0  0  0
   37.5060   28.0000   40.9920 C   0  0  0  0  0  0  0  0  0  0  0  0
   37.6000   29.1290   41.8050 C   0  0  0  0  0  0  0  0  0  0  0  0
   37.3940   28.9570   43.1380 N   0  0  0  0  0  0  0  0  0  0  0  0
   37.1080   27.7650   43.6770 C   0  0  0  0  0  0  0  0  0  0  0  0
   37.0140   26.6690   42.9080 N   0  0  0  0  0  0  0  0  0  0  0  0
   37.6540   28.0580   39.9450 H   0  0  0  0  0  0  0  0  0  0  0  0
   36.9520   27.6770   44.7420 H   0  0  0  0  0  0  0  0  0  0  0  0
   35.6740   30.5780   40.3700 F   0  0  0  0  0  0  0  0  0  0  0  0
   36.9240   31.1120   40.5610 C   0  0  0  0  0  0  0  0  0  0  0  0
   37.9080   30.4450   41.2580 C   0  0  0  0  0  0  0  0  0  0  0  0
   39.1190   31.0910   41.3790 C   0  0  0  0  0  0  0  0  0  0  0  0
   39.9070   30.6000   41.9160 H   0  0  0  0  0  0  0  0  0  0  0  0
   39.3600   32.3380   40.8420 C   0  0  0  0  0  0  0  0  0  0  0  0
   40.3270   32.8070   40.9610 H   0  0  0  0  0  0  0  0  0  0  0  0
   38.3590   32.9700   40.1560 C   0  0  0  0  0  3  0  0  0  0  0  0
   37.1210   32.3680   40.0030 C   0  0  0  0  0  3  0  0  0  0  0  0
   37.1130   25.5770   40.6720 C   0  0  0  0  0  0  0  0  0  0  0  0
   38.3320   25.1990   40.1960 F   0  0  0  0  0  0  0  0  0  0  0  0
   36.4730   24.5530   41.3760 F   0  0  0  0  0  0  0  0  0  0  0  0
   36.2380   25.8740   39.6200 F   0  0  0  0  0  0  0  0  0  0  0  0
  1  6  1  0  0  0  0
  2  1  2  0  0  0  0
  2  3  1  0  0  0  0
  3  4  2  0  0  0  0
  4  5  1  0  0  0  0
  5  8  1  0  0  0  0
  6  5  2  0  0  0  0
  7  2  1  0  0  0  0
  9 10  1  0  0  0  0
 10 11  1  0  0  0  0
 11 12  2  0  0  0  0
 11  3  1  0  0  0  0
 12 13  1  0  0  0  0
 14 15  1  0  0  0  0
 14 12  1  0  0  0  0
 16 14  2  0  0  0  0
 17 16  1  0  0  0  0
 17 10  2  0  0  0  0
 18 20  1  0  0  0  0
 18  1  1  0  0  0  0
 19 18  1  0  0  0  0
 21 18  1  0  0  0  0
M  END
>  <minimizedAffinity>
-4.80378628

$$$$

 OpenBabel03252503523D

 21 22  0  0  0  0  0  0  0  0999 V2000
   37.2310   27.3370   41.4530 C   0  0  0  0  0  0  0  0  0  0  0  0
   37.6130   28.6910   41.3980 C   0  0  0  0  0  0  0  0  0  0  0  0
   37.8450   29.2760   40.1530 C   0  0  0  0  0  0  0  0  0  0  0  0
   37.6860   28.4910   39.0550 N   0  0  0  0  0  0  0  0  0  0  0  0
   37.3220   27.2050   39.1320 C   0  0  0  0  0  0  0  0  0  0  0  0
   37.0940   26.6260   40.3230 N   0  0  0  0  0  0  0  0  0  0  0  0
   37.7170   29.2420   42.2960 H   0  0  0  0  0  0  0  0  0  0  0  0
   37.2080   26.6190   38.2320 H   0  0  0  0  0  0  0  0  0  0  0  0
   35.9490   31.3350   40.3370 F   0  0  0  0  0  0  0  0  0  0  0  0
   37.2690   31.6440   40.1230 C   0  0  0  0  0  0  0  0  0  0  0  0
   38.2430   30.6720   40.0250 C   0  0  0  0  0  0  0  0  0  0  0  0
   39.5310   31.1140   39.8090 C   0  0  0  0  0  0  0  0  0  0  0  0
   40.3130   30.3850   39.7280 H   0  0  0  0  0  0  0  0  0  0  0  0
   39.8550   32.4490   39.6950 C   0  0  0  0  0  0  0  0  0  0  0  0
   40.8790   32.7510   39.5260 H   0  0  0  0  0  0  0  0  0  0  0  0
   38.8620   33.3850   39.7980 C   0  0  0  0  0  3  0  0  0  0  0  0
   37.5500   32.9990   40.0150 C   0  0  0  0  0  3  0  0  0  0  0  0
   36.9930   26.7530   42.8080 C   0  0  0  0  0  0  0  0  0  0  0  0
   36.0130   27.4130   43.4870 F   0  0  0  0  0  0  0  0  0  0  0  0
   36.7040   25.3970   42.6350 F   0  0  0  0  0  0  0  0  0  0  0  0
   38.1920   26.7630   43.5300 F   0  0  0  0  0  0  0  0  0  0  0  0
  1 18  1  0  0  0  0
  2  1  1  0  0  0  0
  2  7  1  0  0  0  0
  3  2  2  0  0  0  0
  4  5  2  0  0  0  0
  4  3  1  0  0  0  0
  5  6  1  0  0  0  0
  6  1  2  0  0  0  0
  8  5  1  0  0  0  0
 10  9  1  0  0  0  0
 11 10  1  0  0  0  0
 11  3  1  0  0  0  0
 12 11  2  0  0  0  0
 13 12  1  0  0  0  0
 14 16  2  0  0  0  0
 14 12  1  0  0  0  0
 15 14  1  0  0  0  0
 16 17  1  0  0  0  0
 17 10  2  0  0  0  0
 18 19  1  0  0  0  0
 18 21  1  0  0  0  0
 20 18  1  0  0  0  0
M  END
>  <minimizedAffinity>
-4.75411272

$$$$

 OpenBabel03252503523D

 21 22  0  0  0  0  0  0  0  0999 V2000
   37.8330   31.8050   39.5970 C   0  0  0  0  0  0  0  0  0  0  0  0
   38.1140   30.9490   40.6790 C   0  0  0  0  0  0  0  0  0  0  0  0
   37.9300   29.5760   40.5190 C   0  0  0  0  0  0  0  0  0  0  0  0
   37.4840   29.1440   39.3100 N   0  0  0  0  0  0  0  0  0  0  0  0
   37.2230   29.9770   38.2950 C   0  0  0  0  0  0  0  0  0  0  0  0
   37.3950   31.3010   38.4320 N   0  0  0  0  0  0  0  0  0  0  0  0
   38.4580   31.3580   41.5930 H   0  0  0  0  0  0  0  0  0  0  0  0
   36.8700   29.5870   37.3510 H   0  0  0  0  0  0  0  0  0  0  0  0
   35.8340   28.2950   41.8730 F   0  0  0  0  0  0  0  0  0  0  0  0
   37.1340   28.0340   42.2300 C   0  0  0  0  0  0  0  0  0  0  0  0
   38.2020   28.6350   41.5980 C   0  0  0  0  0  0  0  0  0  0  0  0
   39.4570   28.2870   42.0500 C   0  0  0  0  0  0  0  0  0  0  0  0
   40.3100   28.7360   41.5810 H   0  0  0  0  0  0  0  0  0  0  0  0
   39.6610   27.3900   43.0770 C   0  0  0  0  0  0  0  0  0  0  0  0
   40.6630   27.1470   43.4000 H   0  0  0  0  0  0  0  0  0  0  0  0
   38.5750   26.8130   43.6800 C   0  0  0  0  0  3  0  0  0  0  0  0
   37.2920   27.1250   43.2660 C   0  0  0  0  0  3  0  0  0  0  0  0
   38.0440   33.2680   39.8150 C   0  0  0  0  0  0  0  0  0  0  0  0
   36.9610   34.0060   39.4410 F   0  0  0  0  0  0  0  0  0  0  0  0
   38.3750   33.4480   41.1610 F   0  0  0  0  0  0  0  0  0  0  0  0
   39.1880   33.6770   39.1200 F   0  0  0  0  0  0  0  0  0  0  0  0
  1 18  1  0  0  0  0
  1  2  1  0  0  0  0
  2  7  1  0  0  0  0
  3  2  2  0  0  0  0
  3 11  1  0  0  0  0
  4  3  1  0  0  0  0
  5  6  1  0  0  0  0
  5  4  2  0  0  0  0
  6  1  2  0  0  0  0
  8  5  1  0  0  0  0
  9 10  1  0  0  0  0
 10 17  1  0  0  0  0
 11 12  1  0  0  0  0
 11 10  2  0  0  0  0
 12 14  2  0  0  0  0
 13 12  1  0  0  0  0
 14 15  1  0  0  0  0
 14 16  1  0  0  0  0
 17 16  2  0  0  0  0
 18 20  1  0  0  0  0
 19 18  1  0  0  0  0
 21 18  1  0  0  0  0
M  END
>  <minimizedAffinity>
-4.71549749

$$$$

 OpenBabel03252503523D

 21 22  0  0  0  0  0  0  0  0999 V2000
   37.0220   30.5250   38.0380 C   0  0  0  0  0  0  0  0  0  0  0  0
   37.1250   29.5820   39.0790 C   0  0  0  0  0  0  0  0  0  0  0  0
   37.3060   30.0360   40.3850 C   0  0  0  0  0  0  0  0  0  0  0  0
   37.3700   31.3810   40.5740 N   0  0  0  0  0  0  0  0  0  0  0  0
   37.2690   32.2590   39.5690 C   0  0  0  0  0  0  0  0  0  0  0  0
   37.0950   31.8380   38.3050 N   0  0  0  0  0  0  0  0  0  0  0  0
   37.0660   28.5490   38.8550 H   0  0  0  0  0  0  0  0  0  0  0  0
   37.3270   33.3190   39.7670 H   0  0  0  0  0  0  0  0  0  0  0  0
   39.6750   29.8770   41.8780 F   0  0  0  0  0  0  0  0  0  0  0  0
   38.6090   29.0770   42.2070 C   0  0  0  0  0  0  0  0  0  0  0  0
   37.4210   29.1140   41.5080 C   0  0  0  0  0  0  0  0  0  0  0  0
   36.4280   28.2610   41.9390 C   0  0  0  0  0  0  0  0  0  0  0  0
   35.4910   28.2650   41.4180 H   0  0  0  0  0  0  0  0  0  0  0  0
   36.5880   27.4070   43.0100 C   0  0  0  0  0  0  0  0  0  0  0  0
   35.7820   26.7540   43.3130 H   0  0  0  0  0  0  0  0  0  0  0  0
   37.7810   27.3980   43.6800 C   0  0  0  0  0  3  0  0  0  0  0  0
   38.8140   28.2340   43.2900 C   0  0  0  0  0  3  0  0  0  0  0  0
   36.8300   29.9920   36.6550 C   0  0  0  0  0  0  0  0  0  0  0  0
   36.9490   30.9650   35.7080 F   0  0  0  0  0  0  0  0  0  0  0  0
   37.7480   28.9540   36.4740 F   0  0  0  0  0  0  0  0  0  0  0  0
   35.5800   29.3680   36.5720 F   0  0  0  0  0  0  0  0  0  0  0  0
  1  6  2  0  0  0  0
  1  2  1  0  0  0  0
  2  3  2  0  0  0  0
  3  4  1  0  0  0  0
  3 11  1  0  0  0  0
  5  8  1  0  0  0  0
  5  4  2  0  0  0  0
  6  5  1  0  0  0  0
  7  2  1  0  0  0  0
  9 10  1  0  0  0  0
 10 17  1  0  0  0  0
 11 12  1  0  0  0  0
 11 10  2  0  0  0  0
 12 14  2  0  0  0  0
 13 12  1  0  0  0  0
 14 15  1  0  0  0  0
 14 16  1  0  0  0  0
 17 16  2  0  0  0  0
 18  1  1  0  0  0  0
 19 18  1  0  0  0  0
 20 18  1  0  0  0  0
 21 18  1  0  0  0  0
M  END
>  <minimizedAffinity>
-4.65757656

$$$$
