
 OpenBabel03252509233D

 27 29  0  0  1  0  0  0  0  0999 V2000
   46.6130   35.0610   41.9930 C   0  0  1  0  0  0  0  0  0  0  0  0
   48.1300   35.3700   42.0330 C   0  0  0  0  0  0  0  0  0  0  0  0
   47.4780   34.0860   41.4330 C   0  0  2  0  0  0  0  0  0  0  0  0
   46.0300   35.7970   41.4230 H   0  0  0  0  0  0  0  0  0  0  0  0
   48.6840   35.2170   42.9550 H   0  0  0  0  0  0  0  0  0  0  0  0
   48.4380   36.1300   41.3140 H   0  0  0  0  0  0  0  0  0  0  0  0
   47.7170   33.1430   41.9870 H   0  0  0  0  0  0  0  0  0  0  0  0
   48.9550   35.6620   39.5040 F   0  0  0  0  0  0  0  0  0  0  0  0
   48.2430   34.6310   39.0180 C   0  0  0  0  0  0  0  0  0  0  0  0
   47.5560   33.9180   39.9790 C   0  0  0  0  0  0  0  0  0  0  0  0
   46.8090   32.8420   39.4840 C   0  0  0  0  0  0  0  0  0  0  0  0
   46.2210   32.1950   40.1170 H   0  0  0  0  0  0  0  0  0  0  0  0
   46.7440   32.5000   38.1500 C   0  0  0  0  0  0  0  0  0  0  0  0
   46.1770   31.6850   37.7720 H   0  0  0  0  0  0  0  0  0  0  0  0
   47.4470   33.2450   37.2300 C   0  0  0  0  0  0  0  0  0  0  0  0
   48.1920   34.3090   37.6950 C   0  0  0  0  0  0  0  0  0  0  0  0
   44.6210   35.3970   45.1620 C   0  0  0  0  0  0  0  0  0  0  0  0
   45.1200   35.7050   43.8490 C   0  0  0  0  0  0  0  0  0  0  0  0
   46.0880   34.8430   43.4060 C   0  0  0  0  0  0  0  0  0  0  0  0
   46.5450   33.7690   44.1600 N   0  0  0  0  0  0  0  0  0  0  0  0
   46.0370   33.5390   45.3760 C   0  0  0  0  0  0  0  0  0  0  0  0
   45.0720   34.3560   45.8780 N   0  0  0  0  0  0  0  0  0  0  0  0
   43.8620   36.0360   45.5600 H   0  0  0  0  0  0  0  0  0  0  0  0
   46.5020   32.6730   45.8170 H   0  0  0  0  0  0  0  0  0  0  0  0
   44.6610   36.8210   43.0980 N   0  0  0  0  0  0  0  0  0  0  0  0
   44.1580   36.6380   42.1970 H   0  0  0  0  0  0  0  0  0  0  0  0
   44.8600   37.7660   43.5030 H   0  0  0  0  0  0  0  0  0  0  0  0
  1  4  1  6  0  0  0
  1  2  1  0  0  0  0
  1 19  1  0  0  0  0
  2  5  1  0  0  0  0
  3  7  1  1  0  0  0
  3  1  1  0  0  0  0
  3  2  1  0  0  0  0
  6  2  1  0  0  0  0
  9  8  1  0  0  0  0
  9 10  1  0  0  0  0
 10  3  1  0  0  0  0
 11 10  2  0  0  0  0
 11 12  1  0  0  0  0
 13 11  1  0  0  0  0
 14 13  1  0  0  0  0
 15 16  1  0  0  0  0
 15 13  2  0  0  0  0
 16  9  2  0  0  0  0
 17 23  1  0  0  0  0
 17 22  1  0  0  0  0
 18 17  2  0  0  0  0
 19 18  1  0  0  0  0
 19 20  2  0  0  0  0
 20 21  1  0  0  0  0
 21 24  1  0  0  0  0
 21 22  2  0  0  0  0
 25 27  1  0  0  0  0
 25 18  1  0  0  0  0
 26 25  1  0  0  0  0
M  END
>  <minimizedAffinity>
-5.58782339

>  <minimizedRMSD>
0.243209586

$$$$
