
 OpenBabel03242522233D

 28 30  0  0  0  0  0  0  0  0999 V2000
   44.5150   35.9000   44.6920 C   0  0  0  0  0  0  0  0  0  0  0  0
   45.1700   35.8050   43.4560 C   0  0  0  0  0  0  0  0  0  0  0  0
   46.0980   34.7820   43.2140 C   0  0  0  0  0  0  0  0  0  0  0  0
   46.3250   33.9090   44.2170 N   0  0  0  0  0  0  0  0  0  0  0  0
   45.6890   34.0100   45.4030 C   0  0  0  0  0  0  0  0  0  0  0  0
   44.8000   34.9870   45.6400 N   0  0  0  0  0  0  0  0  0  0  0  0
   43.8030   36.6820   44.8820 H   0  0  0  0  0  0  0  0  0  0  0  0
   44.9770   36.5060   42.6690 H   0  0  0  0  0  0  0  0  0  0  0  0
   44.6520   33.1140   41.2860 Cl  0  0  0  0  0  0  0  0  0  0  0  0
   46.1930   33.9060   40.9490 C   0  0  0  0  0  0  0  0  0  0  0  0
   46.7900   34.6680   41.9290 C   0  0  0  0  0  0  0  0  0  0  0  0
   47.9970   35.2680   41.6250 C   0  0  0  0  0  0  0  0  0  0  0  0
   48.5860   35.1140   40.3900 C   0  0  0  0  0  0  0  0  0  0  0  0
   47.9400   34.3340   39.4400 C   0  0  0  0  0  0  0  0  0  0  0  0
   48.6770   34.1310   37.8700 Cl  0  0  0  0  0  0  0  0  0  0  0  0
   46.7380   33.7150   39.6920 C   0  0  0  0  0  0  0  0  0  0  0  0
   48.4590   35.8650   42.4000 H   0  0  0  0  0  0  0  0  0  0  0  0
   49.5380   35.6010   40.1830 H   0  0  0  0  0  0  0  0  0  0  0  0
   46.2690   33.1170   38.9240 H   0  0  0  0  0  0  0  0  0  0  0  0
   44.2740   33.8330   47.8490 F   0  0  0  0  0  0  0  0  0  0  0  0
   45.2840   32.9640   47.6110 C   0  0  0  0  0  0  0  0  0  0  0  0
   46.0030   33.0180   46.4260 C   0  0  0  0  0  0  0  0  0  0  0  0
   47.0350   32.1250   46.1920 C   0  0  0  0  0  0  0  0  0  0  0  0
   47.6150   32.1370   45.2820 H   0  0  0  0  0  0  0  0  0  0  0  0
   47.2820   31.2100   47.1990 C   0  0  0  0  0  0  0  0  0  0  0  0
   48.0810   30.5070   47.0360 H   0  0  0  0  0  0  0  0  0  0  0  0
   46.5780   31.1380   48.3880 C   0  0  0  0  0  0  0  0  0  0  0  0
   45.5550   32.0380   48.5960 C   0  0  0  0  0  0  0  0  0  0  0  0
  1  7  1  0  0  0  0
  1  6  1  0  0  0  0
  2  1  2  0  0  0  0
  3  2  1  0  0  0  0
  3  4  2  0  0  0  0
  4  5  1  0  0  0  0
  5  6  2  0  0  0  0
  5 22  1  0  0  0  0
  8  2  1  0  0  0  0
 10  9  1  0  0  0  0
 10 11  1  0  0  0  0
 11  3  1  0  0  0  0
 12 11  2  0  0  0  0
 12 17  1  0  0  0  0
 13 12  1  0  0  0  0
 14 16  1  0  0  0  0
 14 13  2  0  0  0  0
 15 14  1  0  0  0  0
 16 10  2  0  0  0  0
 18 13  1  0  0  0  0
 19 16  1  0  0  0  0
 21 20  1  0  0  0  0
 21 28  1  0  0  0  0
 22 21  2  0  0  0  0
 23 22  1  0  0  0  0
 23 25  2  0  0  0  0
 24 23  1  0  0  0  0
 25 27  1  0  0  0  0
 26 25  1  0  0  0  0
 27 28  2  0  0  0  0
M  END
>  <minimizedAffinity>
-6.98804855

>  <minimizedRMSD>
0.172173381

$$$$
