
 OpenBabel03242515173D

 37 39  0  0  0  0  0  0  0  0999 V2000
   45.4370   30.5700   47.2380 C   0  0  0  0  0  0  0  0  0  0  0  0
   45.2420   29.9690   46.0160 C   0  0  0  0  0  0  0  0  0  0  0  0
   44.9430   28.6470   46.2660 C   0  0  0  0  0  0  0  0  0  0  0  0
   44.9590   28.4690   47.5790 N   0  0  0  0  0  0  0  0  0  0  0  0
   45.2600   29.6370   48.1630 N   0  0  0  0  0  0  0  0  0  0  0  0
   45.3290   30.5180   45.0890 H   0  0  0  0  0  0  0  0  0  0  0  0
   42.3920   28.5040   45.3360 F   0  0  0  0  0  0  0  0  0  0  0  0
   43.3340   27.7340   44.6940 C   0  0  0  0  0  0  0  0  0  0  0  0
   44.6620   27.7720   45.1460 C   0  0  0  0  0  0  0  0  0  0  0  0
   45.4800   26.9530   44.4060 C   0  0  0  0  0  0  0  0  0  0  0  0
   46.5170   26.9440   44.6960 H   0  0  0  0  0  0  0  0  0  0  0  0
   45.0590   26.1840   43.3470 C   0  0  0  0  0  0  0  0  0  0  0  0
   45.8010   25.5820   42.8460 H   0  0  0  0  0  0  0  0  0  0  0  0
   43.7400   26.1980   42.9590 C   0  0  0  0  0  0  0  0  0  0  0  0
   42.8520   26.9860   43.6420 C   0  0  0  0  0  0  0  0  0  0  0  0
   44.6870   27.2170   48.3000 C   0  0  0  0  0  0  0  0  0  0  0  0
   44.3150   27.5230   49.6320 F   0  0  0  0  0  0  0  0  0  0  0  0
   45.7460   26.3870   48.2500 F   0  0  0  0  0  0  0  0  0  0  0  0
   43.5710   26.6240   47.7510 F   0  0  0  0  0  0  0  0  0  0  0  0
   45.7690   31.9730   47.5530 C   0  0  0  0  0  0  0  0  0  0  0  0
   44.7840   32.5190   47.5220 H   0  0  0  0  0  0  0  0  0  0  0  0
   46.1500   32.0910   48.5690 H   0  0  0  0  0  0  0  0  0  0  0  0
   46.6850   32.5700   46.5270 C   0  0  0  0  0  0  0  0  0  0  0  0
   47.5360   33.0990   47.0490 H   0  0  0  0  0  0  0  0  0  0  0  0
   47.1220   31.7610   45.9650 H   0  0  0  0  0  0  0  0  0  0  0  0
   44.5940   35.3390   45.1850 C   0  0  0  0  0  0  0  0  0  0  0  0
   45.0990   35.4270   43.8650 C   0  0  0  0  0  0  0  0  0  0  0  0
   46.1060   34.5510   43.5130 C   0  0  0  0  0  0  0  0  0  0  0  0
   46.5100   33.6970   44.4630 N   0  0  0  0  0  0  0  0  0  0  0  0
   46.0350   33.6150   45.7040 C   0  0  0  0  0  0  0  0  0  0  0  0
   45.0730   34.4450   46.0550 N   0  0  0  0  0  0  0  0  0  0  0  0
   43.7900   36.0330   45.4710 H   0  0  0  0  0  0  0  0  0  0  0  0
   44.7060   36.1520   43.1650 H   0  0  0  0  0  0  0  0  0  0  0  0
   46.6280   34.6470   42.1480 C   0  0  0  0  0  0  0  0  0  0  0  0
   47.4120   33.5360   41.8750 F   0  0  0  0  0  0  0  0  0  0  0  0
   47.5360   35.7080   42.1660 F   0  0  0  0  0  0  0  0  0  0  0  0
   45.6480   34.7910   41.2150 F   0  0  0  0  0  0  0  0  0  0  0  0
  1 20  1  0  0  0  0
  1  5  2  0  0  0  0
  2  3  2  0  0  0  0
  2  1  1  0  0  0  0
  3  4  1  0  0  0  0
  4  5  1  0  0  0  0
  4 16  1  0  0  0  0
  6  2  1  0  0  0  0
  8  9  1  0  0  0  0
  8  7  1  0  0  0  0
  9  3  1  0  0  0  0
 10 11  1  0  0  0  0
 10  9  2  0  0  0  0
 12 10  1  0  0  0  0
 13 12  1  0  0  0  0
 14 12  2  0  0  0  0
 14 15  1  0  0  0  0
 15  8  2  0  0  0  0
 16 17  1  0  0  0  0
 18 16  1  0  0  0  0
 19 16  1  0  0  0  0
 20 22  1  0  0  0  0
 21 20  1  0  0  0  0
 23 24  1  0  0  0  0
 23 20  1  0  0  0  0
 25 23  1  0  0  0  0
 26 32  1  0  0  0  0
 26 31  1  0  0  0  0
 27 26  2  0  0  0  0
 28 27  1  0  0  0  0
 28 29  2  0  0  0  0
 29 30  1  0  0  0  0
 30 31  2  0  0  0  0
 30 23  1  0  0  0  0
 33 27  1  0  0  0  0
 34 36  1  0  0  0  0
 34 28  1  0  0  0  0
 35 34  1  0  0  0  0
 37 34  1  0  0  0  0
M  END
>  <minimizedAffinity>
-5.40429544

>  <minimizedRMSD>
1.03221679

$$$$
