
 OpenBabel03242513503D

 31 33  0  0  1  0  0  0  0  0999 V2000
   37.3750   29.8100   41.9560 C   0  0  2  0  0  0  0  0  0  0  0  0
   38.2940   29.3260   43.0410 C   0  0  0  0  0  0  0  0  0  0  0  0
   37.4310   28.2480   43.6790 C   0  0  0  0  0  0  0  0  0  0  0  0
   36.5750   27.6960   42.5380 C   0  0  0  0  0  0  0  0  0  0  0  0
   37.0200   28.4750   41.3390 C   0  0  1  0  0  0  0  0  0  0  0  0
   36.5090   30.2720   42.4710 H   0  0  0  0  0  0  0  0  0  0  0  0
   39.2090   28.8560   42.6300 H   0  0  0  0  0  0  0  0  0  0  0  0
   38.4980   30.1260   43.7780 H   0  0  0  0  0  0  0  0  0  0  0  0
   38.0420   27.4370   44.1040 H   0  0  0  0  0  0  0  0  0  0  0  0
   36.7320   28.6910   44.4160 H   0  0  0  0  0  0  0  0  0  0  0  0
   36.8220   26.6110   42.3880 H   0  0  0  0  0  0  0  0  0  0  0  0
   35.5070   27.7840   42.7630 H   0  0  0  0  0  0  0  0  0  0  0  0
   38.0070   28.0290   41.0420 H   0  0  0  0  0  0  0  0  0  0  0  0
   39.6090   31.5480   39.4800 C   0  0  0  0  0  0  0  0  0  0  0  0
   39.1830   30.5680   40.3800 C   0  0  0  0  0  0  0  0  0  0  0  0
   37.9550   30.7540   41.0000 C   0  0  0  0  0  0  0  0  0  0  0  0
   37.2340   31.8810   40.6970 N   0  0  0  0  0  0  0  0  0  0  0  0
   37.6660   32.8090   39.8260 C   0  0  0  0  0  0  0  0  0  0  0  0
   38.8570   32.6470   39.2120 N   0  0  0  0  0  0  0  0  0  0  0  0
   40.5730   31.3360   39.0360 H   0  0  0  0  0  0  0  0  0  0  0  0
   39.7480   29.6900   40.6150 H   0  0  0  0  0  0  0  0  0  0  0  0
   37.0860   33.6920   39.5960 H   0  0  0  0  0  0  0  0  0  0  0  0
   37.5860   27.4090   38.6680 F   0  0  0  0  0  0  0  0  0  0  0  0
   36.3970   28.0070   38.9230 C   0  0  0  0  0  0  0  0  0  0  0  0
   36.1750   28.4820   40.1780 C   0  0  0  0  0  0  0  0  0  0  0  0
   34.8940   29.0620   40.2670 C   0  0  0  0  0  0  0  0  0  0  0  0
   34.5710   29.4910   41.2300 H   0  0  0  0  0  0  0  0  0  0  0  0
   33.9780   29.1490   39.2530 C   0  0  0  0  0  0  0  0  0  0  0  0
   33.0160   29.6110   39.4110 H   0  0  0  0  0  0  0  0  0  0  0  0
   34.3050   28.6380   38.0270 C   0  0  0  0  0  3  0  0  0  0  0  0
   35.5400   28.0500   37.8440 C   0  0  0  0  0  3  0  0  0  0  0  0
  1  6  1  1  0  0  0
  1  2  1  0  0  0  0
  2  3  1  0  0  0  0
  2  8  1  0  0  0  0
  3  9  1  0  0  0  0
  3 10  1  0  0  0  0
  4 12  1  0  0  0  0
  4  3  1  0  0  0  0
  5 13  1  6  0  0  0
  5  1  1  0  0  0  0
  5  4  1  0  0  0  0
  7  2  1  0  0  0  0
 11  4  1  0  0  0  0
 14 15  1  0  0  0  0
 15 21  1  0  0  0  0
 15 16  2  0  0  0  0
 16  1  1  0  0  0  0
 17 16  1  0  0  0  0
 18 17  2  0  0  0  0
 19 14  2  0  0  0  0
 19 18  1  0  0  0  0
 20 14  1  0  0  0  0
 22 18  1  0  0  0  0
 23 24  1  0  0  0  0
 24 25  1  0  0  0  0
 25 26  2  0  0  0  0
 25  5  1  0  0  0  0
 26 27  1  0  0  0  0
 28 29  1  0  0  0  0
 28 26  1  0  0  0  0
 30 28  2  0  0  0  0
 31 30  1  0  0  0  0
 31 24  2  0  0  0  0
M  END
>  <minimizedAffinity>
-5.30369234

$$$$

 OpenBabel03242513503D

 31 33  0  0  1  0  0  0  0  0999 V2000
   38.8330   31.5890   40.3320 C   0  0  2  0  0  0  0  0  0  0  0  0
   39.1880   32.8520   41.0640 C   0  0  0  0  0  0  0  0  0  0  0  0
   38.5430   33.8910   40.1600 C   0  0  0  0  0  0  0  0  0  0  0  0
   37.3240   33.1920   39.5550 C   0  0  0  0  0  0  0  0  0  0  0  0
   37.3480   31.8250   40.1670 C   0  0  1  0  0  0  0  0  0  0  0  0
   39.3710   31.6360   39.3640 H   0  0  0  0  0  0  0  0  0  0  0  0
   38.7100   32.9000   42.0630 H   0  0  0  0  0  0  0  0  0  0  0  0
   40.2830   33.0060   41.0880 H   0  0  0  0  0  0  0  0  0  0  0  0
   38.2140   34.7760   40.7260 H   0  0  0  0  0  0  0  0  0  0  0  0
   39.2140   34.1470   39.3160 H   0  0  0  0  0  0  0  0  0  0  0  0
   36.3940   33.7290   39.8820 H   0  0  0  0  0  0  0  0  0  0  0  0
   37.3650   33.1970   38.4610 H   0  0  0  0  0  0  0  0  0  0  0  0
   36.9640   31.9600   41.2130 H   0  0  0  0  0  0  0  0  0  0  0  0
   39.1860   28.8480   42.8810 C   0  0  0  0  0  0  0  0  0  0  0  0
   38.8350   30.0930   42.3530 C   0  0  0  0  0  0  0  0  0  0  0  0
   39.1480   30.3390   41.0240 C   0  0  0  0  0  0  0  0  0  0  0  0
   39.7800   29.3550   40.3080 N   0  0  0  0  0  0  0  0  0  0  0  0
   40.1070   28.1640   40.8390 C   0  0  0  0  0  0  0  0  0  0  0  0
   39.8110   27.9040   42.1300 N   0  0  0  0  0  0  0  0  0  0  0  0
   38.9110   28.7270   43.9210 H   0  0  0  0  0  0  0  0  0  0  0  0
   38.3420   30.8590   42.9140 H   0  0  0  0  0  0  0  0  0  0  0  0
   40.6050   27.3970   40.2620 H   0  0  0  0  0  0  0  0  0  0  0  0
   37.4270   30.9150   37.3830 F   0  0  0  0  0  0  0  0  0  0  0  0
   36.5740   30.3370   38.2620 C   0  0  0  0  0  0  0  0  0  0  0  0
   36.5740   30.7870   39.5460 C   0  0  0  0  0  0  0  0  0  0  0  0
   35.6380   30.0730   40.3190 C   0  0  0  0  0  0  0  0  0  0  0  0
   35.5260   30.3290   41.3860 H   0  0  0  0  0  0  0  0  0  0  0  0
   34.8270   29.0640   39.8730 C   0  0  0  0  0  0  0  0  0  0  0  0
   34.1360   28.5710   40.5380 H   0  0  0  0  0  0  0  0  0  0  0  0
   34.9080   28.6900   38.5600 C   0  0  0  0  0  3  0  0  0  0  0  0
   35.7970   29.3320   37.7240 C   0  0  0  0  0  3  0  0  0  0  0  0
  1  6  1  6  0  0  0
  1 16  1  0  0  0  0
  1  2  1  0  0  0  0
  2  8  1  0  0  0  0
  2  7  1  0  0  0  0
  3  9  1  0  0  0  0
  3  2  1  0  0  0  0
  4 11  1  0  0  0  0
  4  3  1  0  0  0  0
  4  5  1  0  0  0  0
  5  1  1  0  0  0  0
  5 13  1  1  0  0  0
 10  3  1  0  0  0  0
 12  4  1  0  0  0  0
 14 20  1  0  0  0  0
 15 14  1  0  0  0  0
 15 21  1  0  0  0  0
 16 15  2  0  0  0  0
 17 18  2  0  0  0  0
 17 16  1  0  0  0  0
 18 19  1  0  0  0  0
 19 14  2  0  0  0  0
 22 18  1  0  0  0  0
 23 24  1  0  0  0  0
 24 25  1  0  0  0  0
 25  5  1  0  0  0  0
 25 26  2  0  0  0  0
 26 27  1  0  0  0  0
 28 26  1  0  0  0  0
 28 29  1  0  0  0  0
 30 28  2  0  0  0  0
 31 24  2  0  0  0  0
 31 30  1  0  0  0  0
M  END
>  <minimizedAffinity>
-5.19646454

$$$$

 OpenBabel03242513503D

 31 33  0  0  1  0  0  0  0  0999 V2000
   38.1880   29.0340   42.8210 C   0  0  2  0  0  0  0  0  0  0  0  0
   38.0550   27.7260   43.5470 C   0  0  0  0  0  0  0  0  0  0  0  0
   36.5820   27.4260   43.3180 C   0  0  0  0  0  0  0  0  0  0  0  0
   36.2540   28.0500   41.9600 C   0  0  0  0  0  0  0  0  0  0  0  0
   37.5560   28.6360   41.5060 C   0  0  1  0  0  0  0  0  0  0  0  0
   37.5630   29.7590   43.3800 H   0  0  0  0  0  0  0  0  0  0  0  0
   38.6610   26.9260   43.0740 H   0  0  0  0  0  0  0  0  0  0  0  0
   38.2480   27.8470   44.6290 H   0  0  0  0  0  0  0  0  0  0  0  0
   36.3870   26.3430   43.2790 H   0  0  0  0  0  0  0  0  0  0  0  0
   35.9550   27.9490   44.0670 H   0  0  0  0  0  0  0  0  0  0  0  0
   35.9450   27.2380   41.2490 H   0  0  0  0  0  0  0  0  0  0  0  0
   35.4370   28.7750   42.0410 H   0  0  0  0  0  0  0  0  0  0  0  0
   38.1670   27.7650   41.1490 H   0  0  0  0  0  0  0  0  0  0  0  0
   41.2160   31.2490   42.5760 C   0  0  0  0  0  0  0  0  0  0  0  0
   39.8710   30.9000   42.7160 C   0  0  0  0  0  0  0  0  0  0  0  0
   39.5500   29.5500   42.6770 C   0  0  0  0  0  0  0  0  0  0  0  0
   40.5630   28.6420   42.5040 N   0  0  0  0  0  0  0  0  0  0  0  0
   41.8500   29.0030   42.3710 C   0  0  0  0  0  0  0  0  0  0  0  0
   42.1840   30.3110   42.4070 N   0  0  0  0  0  0  0  0  0  0  0  0
   41.3920   32.3170   42.6160 H   0  0  0  0  0  0  0  0  0  0  0  0
   39.0830   31.6110   42.8510 H   0  0  0  0  0  0  0  0  0  0  0  0
   42.6380   28.2760   42.2360 H   0  0  0  0  0  0  0  0  0  0  0  0
   36.1150   31.1870   41.4280 F   0  0  0  0  0  0  0  0  0  0  0  0
   36.8770   30.8050   40.3750 C   0  0  0  0  0  0  0  0  0  0  0  0
   37.5330   29.6160   40.4560 C   0  0  0  0  0  0  0  0  0  0  0  0
   38.2780   29.3820   39.2840 C   0  0  0  0  0  0  0  0  0  0  0  0
   38.8650   28.4530   39.2050 H   0  0  0  0  0  0  0  0  0  0  0  0
   38.3540   30.2150   38.1980 C   0  0  0  0  0  0  0  0  0  0  0  0
   38.9520   29.9550   37.3400 H   0  0  0  0  0  0  0  0  0  0  0  0
   37.6520   31.3880   38.2210 C   0  0  0  0  0  3  0  0  0  0  0  0
   36.8920   31.7040   39.3290 C   0  0  0  0  0  3  0  0  0  0  0  0
  1  6  1  1  0  0  0
  1  2  1  0  0  0  0
  2  8  1  0  0  0  0
  3  2  1  0  0  0  0
  3 10  1  0  0  0  0
  4 12  1  0  0  0  0
  4  3  1  0  0  0  0
  5 13  1  6  0  0  0
  5  4  1  0  0  0  0
  5  1  1  0  0  0  0
  7  2  1  0  0  0  0
  9  3  1  0  0  0  0
 11  4  1  0  0  0  0
 14 20  1  0  0  0  0
 14 15  1  0  0  0  0
 15 21  1  0  0  0  0
 16 15  2  0  0  0  0
 16  1  1  0  0  0  0
 17 16  1  0  0  0  0
 18 19  1  0  0  0  0
 18 17  2  0  0  0  0
 19 14  2  0  0  0  0
 22 18  1  0  0  0  0
 24 25  1  0  0  0  0
 24 23  1  0  0  0  0
 25  5  1  0  0  0  0
 26 25  2  0  0  0  0
 27 26  1  0  0  0  0
 28 30  2  0  0  0  0
 28 26  1  0  0  0  0
 29 28  1  0  0  0  0
 30 31  1  0  0  0  0
 31 24  2  0  0  0  0
M  END
>  <minimizedAffinity>
-5.10636711

$$$$

 OpenBabel03242513503D

 31 33  0  0  1  0  0  0  0  0999 V2000
   37.2620   29.7490   41.8510 C   0  0  2  0  0  0  0  0  0  0  0  0
   38.1040   29.3350   43.0240 C   0  0  0  0  0  0  0  0  0  0  0  0
   37.3350   28.1150   43.5050 C   0  0  0  0  0  0  0  0  0  0  0  0
   36.7080   27.5160   42.2450 C   0  0  0  0  0  0  0  0  0  0  0  0
   37.1770   28.4150   41.1430 C   0  0  1  0  0  0  0  0  0  0  0  0
   36.2840   30.0590   42.2710 H   0  0  0  0  0  0  0  0  0  0  0  0
   39.1200   29.0190   42.7130 H   0  0  0  0  0  0  0  0  0  0  0  0
   38.1030   30.1130   43.8110 H   0  0  0  0  0  0  0  0  0  0  0  0
   38.0000   27.3720   43.9720 H   0  0  0  0  0  0  0  0  0  0  0  0
   36.4970   28.4160   44.1650 H   0  0  0  0  0  0  0  0  0  0  0  0
   37.1230   26.4850   42.0850 H   0  0  0  0  0  0  0  0  0  0  0  0
   35.6190   27.4450   42.3370 H   0  0  0  0  0  0  0  0  0  0  0  0
   38.2460   28.1250   40.9550 H   0  0  0  0  0  0  0  0  0  0  0  0
   37.7130   32.8170   39.7240 C   0  0  0  0  0  0  0  0  0  0  0  0
   37.0540   31.8610   40.5000 C   0  0  0  0  0  0  0  0  0  0  0  0
   37.8110   30.8160   41.0140 C   0  0  0  0  0  0  0  0  0  0  0  0
   39.1530   30.7820   40.7320 N   0  0  0  0  0  0  0  0  0  0  0  0
   39.7640   31.7140   39.9820 C   0  0  0  0  0  0  0  0  0  0  0  0
   39.0460   32.7390   39.4740 N   0  0  0  0  0  0  0  0  0  0  0  0
   37.0610   33.6000   39.3580 H   0  0  0  0  0  0  0  0  0  0  0  0
   36.0070   31.8900   40.7180 H   0  0  0  0  0  0  0  0  0  0  0  0
   40.8230   31.6750   39.7690 H   0  0  0  0  0  0  0  0  0  0  0  0
   34.3950   29.1360   40.5750 F   0  0  0  0  0  0  0  0  0  0  0  0
   35.1970   28.6900   39.5790 C   0  0  0  0  0  0  0  0  0  0  0  0
   36.4830   28.3720   39.8860 C   0  0  0  0  0  0  0  0  0  0  0  0
   37.1730   27.9360   38.7370 C   0  0  0  0  0  0  0  0  0  0  0  0
   38.2310   27.6440   38.8320 H   0  0  0  0  0  0  0  0  0  0  0  0
   36.6500   27.8360   37.4750 C   0  0  0  0  0  0  0  0  0  0  0  0
   37.2530   27.4920   36.6500 H   0  0  0  0  0  0  0  0  0  0  0  0
   35.3420   28.1820   37.2770 C   0  0  0  0  0  3  0  0  0  0  0  0
   34.5860   28.6210   38.3440 C   0  0  0  0  0  3  0  0  0  0  0  0
  1  6  1  1  0  0  0
  1  2  1  0  0  0  0
  2  3  1  0  0  0  0
  2  8  1  0  0  0  0
  3  9  1  0  0  0  0
  3 10  1  0  0  0  0
  4 12  1  0  0  0  0
  4  3  1  0  0  0  0
  5 13  1  6  0  0  0
  5  1  1  0  0  0  0
  5  4  1  0  0  0  0
  7  2  1  0  0  0  0
 11  4  1  0  0  0  0
 14 15  1  0  0  0  0
 15 21  1  0  0  0  0
 15 16  2  0  0  0  0
 16  1  1  0  0  0  0
 17 16  1  0  0  0  0
 18 17  2  0  0  0  0
 19 14  2  0  0  0  0
 19 18  1  0  0  0  0
 20 14  1  0  0  0  0
 22 18  1  0  0  0  0
 24 25  1  0  0  0  0
 24 23  1  0  0  0  0
 25  5  1  0  0  0  0
 26 27  1  0  0  0  0
 26 25  2  0  0  0  0
 28 26  1  0  0  0  0
 29 28  1  0  0  0  0
 30 28  2  0  0  0  0
 30 31  1  0  0  0  0
 31 24  2  0  0  0  0
M  END
>  <minimizedAffinity>
-5.08519411

$$$$

 OpenBabel03242513503D

 31 33  0  0  1  0  0  0  0  0999 V2000
   38.5130   31.2440   40.2980 C   0  0  2  0  0  0  0  0  0  0  0  0
   38.7620   32.5220   41.0460 C   0  0  0  0  0  0  0  0  0  0  0  0
   38.3330   33.5440   40.0050 C   0  0  0  0  0  0  0  0  0  0  0  0
   37.2290   32.8550   39.2000 C   0  0  0  0  0  0  0  0  0  0  0  0
   37.0940   31.5100   39.8470 C   0  0  1  0  0  0  0  0  0  0  0  0
   39.2250   31.2420   39.4490 H   0  0  0  0  0  0  0  0  0  0  0  0
   38.1050   32.6170   41.9340 H   0  0  0  0  0  0  0  0  0  0  0  0
   39.8370   32.6500   41.2740 H   0  0  0  0  0  0  0  0  0  0  0  0
   37.9290   34.4560   40.4720 H   0  0  0  0  0  0  0  0  0  0  0  0
   39.1590   33.7530   39.2970 H   0  0  0  0  0  0  0  0  0  0  0  0
   36.2710   33.4260   39.3290 H   0  0  0  0  0  0  0  0  0  0  0  0
   37.4760   32.8200   38.1340 H   0  0  0  0  0  0  0  0  0  0  0  0
   36.5230   31.6910   40.7960 H   0  0  0  0  0  0  0  0  0  0  0  0
   39.3960   27.7840   41.4770 C   0  0  0  0  0  0  0  0  0  0  0  0
   39.3340   28.8890   40.6240 C   0  0  0  0  0  0  0  0  0  0  0  0
   38.6520   30.0110   41.0740 C   0  0  0  0  0  0  0  0  0  0  0  0
   38.0830   29.9730   42.3220 N   0  0  0  0  0  0  0  0  0  0  0  0
   38.1580   28.8980   43.1240 C   0  0  0  0  0  0  0  0  0  0  0  0
   38.8160   27.7960   42.7050 N   0  0  0  0  0  0  0  0  0  0  0  0
   39.9420   26.9470   41.0590 H   0  0  0  0  0  0  0  0  0  0  0  0
   39.7780   28.9150   39.6510 H   0  0  0  0  0  0  0  0  0  0  0  0
   37.7050   28.8820   44.1050 H   0  0  0  0  0  0  0  0  0  0  0  0
   35.1630   29.5480   40.8510 F   0  0  0  0  0  0  0  0  0  0  0  0
   35.5250   29.5370   39.5460 C   0  0  0  0  0  0  0  0  0  0  0  0
   36.4200   30.4700   39.1210 C   0  0  0  0  0  0  0  0  0  0  0  0
   36.6750   30.3190   37.7440 C   0  0  0  0  0  0  0  0  0  0  0  0
   37.3840   31.0080   37.2570 H   0  0  0  0  0  0  0  0  0  0  0  0
   36.1180   29.3770   36.9210 C   0  0  0  0  0  0  0  0  0  0  0  0
   36.3720   29.3350   35.8730 H   0  0  0  0  0  0  0  0  0  0  0  0
   35.2280   28.4850   37.4520 C   0  0  0  0  0  3  0  0  0  0  0  0
   34.9150   28.5550   38.7940 C   0  0  0  0  0  3  0  0  0  0  0  0
  1  6  1  6  0  0  0
  1  2  1  0  0  0  0
  1 16  1  0  0  0  0
  2  8  1  0  0  0  0
  2  7  1  0  0  0  0
  3  9  1  0  0  0  0
  3  2  1  0  0  0  0
  4 11  1  0  0  0  0
  4  5  1  0  0  0  0
  4  3  1  0  0  0  0
  5  1  1  0  0  0  0
  5 13  1  1  0  0  0
 10  3  1  0  0  0  0
 12  4  1  0  0  0  0
 14 19  1  0  0  0  0
 15 16  1  0  0  0  0
 15 14  2  0  0  0  0
 16 17  2  0  0  0  0
 17 18  1  0  0  0  0
 18 22  1  0  0  0  0
 19 18  2  0  0  0  0
 20 14  1  0  0  0  0
 21 15  1  0  0  0  0
 24 23  1  0  0  0  0
 25 24  1  0  0  0  0
 25  5  1  0  0  0  0
 26 25  2  0  0  0  0
 27 26  1  0  0  0  0
 28 30  2  0  0  0  0
 28 26  1  0  0  0  0
 29 28  1  0  0  0  0
 30 31  1  0  0  0  0
 31 24  2  0  0  0  0
M  END
>  <minimizedAffinity>
-4.95863247

$$$$

 OpenBabel03242513503D

 31 33  0  0  1  0  0  0  0  0999 V2000
   37.4900   29.3470   41.5500 C   0  0  2  0  0  0  0  0  0  0  0  0
   38.4410   30.5100   41.5800 C   0  0  0  0  0  0  0  0  0  0  0  0
   39.3100   30.1310   42.7690 C   0  0  0  0  0  0  0  0  0  0  0  0
   39.3310   28.6020   42.7770 C   0  0  0  0  0  0  0  0  0  0  0  0
   38.4990   28.2200   41.5910 C   0  0  1  0  0  0  0  0  0  0  0  0
   36.9000   29.4100   42.4870 H   0  0  0  0  0  0  0  0  0  0  0  0
   39.0740   30.5510   40.6720 H   0  0  0  0  0  0  0  0  0  0  0  0
   37.9080   31.4560   41.7930 H   0  0  0  0  0  0  0  0  0  0  0  0
   40.3380   30.5100   42.6600 H   0  0  0  0  0  0  0  0  0  0  0  0
   38.8340   30.4460   43.7190 H   0  0  0  0  0  0  0  0  0  0  0  0
   40.3850   28.2490   42.6180 H   0  0  0  0  0  0  0  0  0  0  0  0
   38.9680   28.2020   43.7300 H   0  0  0  0  0  0  0  0  0  0  0  0
   39.1550   28.3950   40.6970 H   0  0  0  0  0  0  0  0  0  0  0  0
   34.4960   29.0160   39.3010 C   0  0  0  0  0  0  0  0  0  0  0  0
   35.2310   29.0400   40.4880 C   0  0  0  0  0  0  0  0  0  0  0  0
   36.5950   29.2830   40.3950 C   0  0  0  0  0  0  0  0  0  0  0  0
   37.1390   29.4840   39.1520 N   0  0  0  0  0  0  0  0  0  0  0  0
   36.4090   29.4570   38.0240 C   0  0  0  0  0  0  0  0  0  0  0  0
   35.0810   29.2230   38.0930 N   0  0  0  0  0  0  0  0  0  0  0  0
   33.4410   28.8220   39.4510 H   0  0  0  0  0  0  0  0  0  0  0  0
   34.8040   28.8820   41.4560 H   0  0  0  0  0  0  0  0  0  0  0  0
   36.8520   29.6190   37.0510 H   0  0  0  0  0  0  0  0  0  0  0  0
   36.6340   26.8650   43.3990 F   0  0  0  0  0  0  0  0  0  0  0  0
   37.1400   26.2070   42.3290 C   0  0  0  0  0  0  0  0  0  0  0  0
   37.9980   26.8770   41.5120 C   0  0  0  0  0  0  0  0  0  0  0  0
   38.4190   26.0490   40.4530 C   0  0  0  0  0  0  0  0  0  0  0  0
   39.1200   26.4570   39.7070 H   0  0  0  0  0  0  0  0  0  0  0  0
   38.0360   24.7500   40.2450 C   0  0  0  0  0  0  0  0  0  0  0  0
   38.4100   24.1890   39.4030 H   0  0  0  0  0  0  0  0  0  0  0  0
   37.1670   24.1730   41.1300 C   0  0  0  0  0  3  0  0  0  0  0  0
   36.7010   24.9060   42.2010 C   0  0  0  0  0  3  0  0  0  0  0  0
  1  2  1  0  0  0  0
  1  5  1  0  0  0  0
  1  6  1  1  0  0  0
  2  8  1  0  0  0  0
  2  3  1  0  0  0  0
  3  4  1  0  0  0  0
  3 10  1  0  0  0  0
  4 12  1  0  0  0  0
  5 13  1  6  0  0  0
  5  4  1  0  0  0  0
  7  2  1  0  0  0  0
  9  3  1  0  0  0  0
 11  4  1  0  0  0  0
 14 20  1  0  0  0  0
 14 15  1  0  0  0  0
 15 21  1  0  0  0  0
 16 15  2  0  0  0  0
 16  1  1  0  0  0  0
 17 16  1  0  0  0  0
 18 19  1  0  0  0  0
 18 17  2  0  0  0  0
 19 14  2  0  0  0  0
 22 18  1  0  0  0  0
 24 23  1  0  0  0  0
 25  5  1  0  0  0  0
 25 24  2  0  0  0  0
 26 25  1  0  0  0  0
 27 26  1  0  0  0  0
 28 26  2  0  0  0  0
 28 30  1  0  0  0  0
 29 28  1  0  0  0  0
 30 31  2  0  0  0  0
 31 24  1  0  0  0  0
M  END
>  <minimizedAffinity>
-4.94922829

$$$$

 OpenBabel03242513503D

 31 33  0  0  1  0  0  0  0  0999 V2000
   36.7890   28.9820   38.7210 C   0  0  2  0  0  0  0  0  0  0  0  0
   35.8740   29.6600   37.7420 C   0  0  0  0  0  0  0  0  0  0  0  0
   34.5200   29.1950   38.2530 C   0  0  0  0  0  0  0  0  0  0  0  0
   34.7000   29.0260   39.7630 C   0  0  0  0  0  0  0  0  0  0  0  0
   36.1240   29.4240   40.0060 C   0  0  1  0  0  0  0  0  0  0  0  0
   36.6710   27.8930   38.5460 H   0  0  0  0  0  0  0  0  0  0  0  0
   35.9270   30.7640   37.8220 H   0  0  0  0  0  0  0  0  0  0  0  0
   36.0360   29.2820   36.7150 H   0  0  0  0  0  0  0  0  0  0  0  0
   33.7330   29.9400   38.0600 H   0  0  0  0  0  0  0  0  0  0  0  0
   34.2720   28.1930   37.8490 H   0  0  0  0  0  0  0  0  0  0  0  0
   34.0190   29.7420   40.2950 H   0  0  0  0  0  0  0  0  0  0  0  0
   34.4550   28.0080   40.0820 H   0  0  0  0  0  0  0  0  0  0  0  0
   36.1320   30.5460   39.9580 H   0  0  0  0  0  0  0  0  0  0  0  0
   40.5480   28.9440   38.6530 C   0  0  0  0  0  0  0  0  0  0  0  0
   39.2460   28.4480   38.7600 C   0  0  0  0  0  0  0  0  0  0  0  0
   38.2010   29.3550   38.6420 C   0  0  0  0  0  0  0  0  0  0  0  0
   38.5030   30.6750   38.4280 N   0  0  0  0  0  0  0  0  0  0  0  0
   39.7650   31.1270   38.3290 C   0  0  0  0  0  0  0  0  0  0  0  0
   40.7950   30.2620   38.4400 N   0  0  0  0  0  0  0  0  0  0  0  0
   41.3100   28.1810   38.7550 H   0  0  0  0  0  0  0  0  0  0  0  0
   39.0140   27.4170   38.9270 H   0  0  0  0  0  0  0  0  0  0  0  0
   39.9870   32.1710   38.1600 H   0  0  0  0  0  0  0  0  0  0  0  0
   38.0760   30.9020   41.6160 F   0  0  0  0  0  0  0  0  0  0  0  0
   37.6500   29.6810   42.0180 C   0  0  0  0  0  0  0  0  0  0  0  0
   36.7390   29.0320   41.2430 C   0  0  0  0  0  0  0  0  0  0  0  0
   36.4040   27.7870   41.8110 C   0  0  0  0  0  0  0  0  0  0  0  0
   35.6730   27.1470   41.2920 H   0  0  0  0  0  0  0  0  0  0  0  0
   36.9070   27.2740   42.9770 C   0  0  0  0  0  0  0  0  0  0  0  0
   36.5920   26.3070   43.3390 H   0  0  0  0  0  0  0  0  0  0  0  0
   37.8210   28.0100   43.6790 C   0  0  0  0  0  3  0  0  0  0  0  0
   38.2100   29.2440   43.2000 C   0  0  0  0  0  3  0  0  0  0  0  0
  1  6  1  6  0  0  0
  1  5  1  0  0  0  0
  2  7  1  0  0  0  0
  2  3  1  0  0  0  0
  2  1  1  0  0  0  0
  3  4  1  0  0  0  0
  4  5  1  0  0  0  0
  4 12  1  0  0  0  0
  4 11  1  0  0  0  0
  5 13  1  6  0  0  0
  5 25  1  0  0  0  0
  8  2  1  0  0  0  0
  9  3  1  0  0  0  0
 10  3  1  0  0  0  0
 14 20  1  0  0  0  0
 14 15  1  0  0  0  0
 15 21  1  0  0  0  0
 16  1  1  0  0  0  0
 16 15  2  0  0  0  0
 17 16  1  0  0  0  0
 18 17  2  0  0  0  0
 18 19  1  0  0  0  0
 19 14  2  0  0  0  0
 22 18  1  0  0  0  0
 23 24  1  0  0  0  0
 24 31  1  0  0  0  0
 25 26  1  0  0  0  0
 25 24  2  0  0  0  0
 26 28  2  0  0  0  0
 27 26  1  0  0  0  0
 28 29  1  0  0  0  0
 28 30  1  0  0  0  0
 31 30  2  0  0  0  0
M  END
>  <minimizedAffinity>
-4.92381382

$$$$

 OpenBabel03242513503D

 31 33  0  0  1  0  0  0  0  0999 V2000
   37.1760   28.1550   41.4540 C   0  0  2  0  0  0  0  0  0  0  0  0
   36.5910   27.5540   42.7000 C   0  0  0  0  0  0  0  0  0  0  0  0
   37.7340   27.7690   43.6800 C   0  0  0  0  0  0  0  0  0  0  0  0
   38.4230   29.0520   43.2120 C   0  0  0  0  0  0  0  0  0  0  0  0
   37.6200   29.4850   42.0240 C   0  0  1  0  0  0  0  0  0  0  0  0
   38.0370   27.5130   41.1800 H   0  0  0  0  0  0  0  0  0  0  0  0
   35.7040   28.1160   43.0550 H   0  0  0  0  0  0  0  0  0  0  0  0
   36.4070   26.4700   42.5730 H   0  0  0  0  0  0  0  0  0  0  0  0
   37.3680   27.9050   44.7090 H   0  0  0  0  0  0  0  0  0  0  0  0
   38.4820   26.9560   43.5930 H   0  0  0  0  0  0  0  0  0  0  0  0
   38.3390   29.8280   44.0190 H   0  0  0  0  0  0  0  0  0  0  0  0
   39.4840   28.8800   43.0010 H   0  0  0  0  0  0  0  0  0  0  0  0
   36.6840   29.9390   42.4460 H   0  0  0  0  0  0  0  0  0  0  0  0
   35.5550   27.9590   38.0680 C   0  0  0  0  0  0  0  0  0  0  0  0
   36.5210   27.7660   39.0570 C   0  0  0  0  0  0  0  0  0  0  0  0
   36.2640   28.2870   40.3180 C   0  0  0  0  0  0  0  0  0  0  0  0
   35.0840   28.9560   40.5200 N   0  0  0  0  0  0  0  0  0  0  0  0
   34.1690   29.1280   39.5500 C   0  0  0  0  0  0  0  0  0  0  0  0
   34.4000   28.6290   38.3170 N   0  0  0  0  0  0  0  0  0  0  0  0
   35.8230   27.5260   37.1120 H   0  0  0  0  0  0  0  0  0  0  0  0
   37.4410   27.2440   38.8970 H   0  0  0  0  0  0  0  0  0  0  0  0
   33.2430   29.6570   39.7240 H   0  0  0  0  0  0  0  0  0  0  0  0
   36.3910   31.8800   40.8670 F   0  0  0  0  0  0  0  0  0  0  0  0
   37.6670   31.5530   40.5540 C   0  0  0  0  0  0  0  0  0  0  0  0
   38.2000   30.4360   41.1180 C   0  0  0  0  0  0  0  0  0  0  0  0
   39.5300   30.2530   40.6920 C   0  0  0  0  0  0  0  0  0  0  0  0
   40.0940   29.3840   41.0690 H   0  0  0  0  0  0  0  0  0  0  0  0
   40.2190   31.0660   39.8310 C   0  0  0  0  0  0  0  0  0  0  0  0
   41.2390   30.8490   39.5580 H   0  0  0  0  0  0  0  0  0  0  0  0
   39.5860   32.1660   39.3200 C   0  0  0  0  0  3  0  0  0  0  0  0
   38.2810   32.4280   39.6810 C   0  0  0  0  0  3  0  0  0  0  0  0
  1  6  1  6  0  0  0
  1  5  1  0  0  0  0
  1  2  1  0  0  0  0
  2  7  1  0  0  0  0
  2  3  1  0  0  0  0
  3  9  1  0  0  0  0
  4  3  1  0  0  0  0
  4 11  1  0  0  0  0
  5 13  1  1  0  0  0
  5  4  1  0  0  0  0
  8  2  1  0  0  0  0
 10  3  1  0  0  0  0
 12  4  1  0  0  0  0
 14 19  2  0  0  0  0
 14 15  1  0  0  0  0
 15 16  2  0  0  0  0
 16 17  1  0  0  0  0
 16  1  1  0  0  0  0
 18 22  1  0  0  0  0
 18 17  2  0  0  0  0
 19 18  1  0  0  0  0
 20 14  1  0  0  0  0
 21 15  1  0  0  0  0
 24 23  1  0  0  0  0
 24 25  1  0  0  0  0
 25  5  1  0  0  0  0
 26 27  1  0  0  0  0
 26 25  2  0  0  0  0
 28 26  1  0  0  0  0
 29 28  1  0  0  0  0
 30 31  1  0  0  0  0
 30 28  2  0  0  0  0
 31 24  2  0  0  0  0
M  END
>  <minimizedAffinity>
-4.90916872

$$$$

 OpenBabel03242513503D

 31 33  0  0  1  0  0  0  0  0999 V2000
   37.6810   28.4780   41.4170 C   0  0  2  0  0  0  0  0  0  0  0  0
   36.2830   28.1790   41.8760 C   0  0  0  0  0  0  0  0  0  0  0  0
   36.5670   27.3760   43.1360 C   0  0  0  0  0  0  0  0  0  0  0  0
   37.8820   27.9380   43.6790 C   0  0  0  0  0  0  0  0  0  0  0  0
   38.2400   29.0250   42.7120 C   0  0  1  0  0  0  0  0  0  0  0  0
   38.1310   27.5000   41.1510 H   0  0  0  0  0  0  0  0  0  0  0  0
   35.7330   29.1000   42.1550 H   0  0  0  0  0  0  0  0  0  0  0  0
   35.7470   27.5460   41.1430 H   0  0  0  0  0  0  0  0  0  0  0  0
   35.7750   27.5070   43.8900 H   0  0  0  0  0  0  0  0  0  0  0  0
   36.7540   26.3120   42.8900 H   0  0  0  0  0  0  0  0  0  0  0  0
   37.6980   28.3890   44.6910 H   0  0  0  0  0  0  0  0  0  0  0  0
   38.6400   27.1540   43.7770 H   0  0  0  0  0  0  0  0  0  0  0  0
   37.5690   29.8870   42.9690 H   0  0  0  0  0  0  0  0  0  0  0  0
   38.6940   30.2080   38.2360 C   0  0  0  0  0  0  0  0  0  0  0  0
   38.6960   29.2450   39.2470 C   0  0  0  0  0  0  0  0  0  0  0  0
   37.8000   29.4090   40.2950 C   0  0  0  0  0  0  0  0  0  0  0  0
   36.9690   30.5000   40.2780 N   0  0  0  0  0  0  0  0  0  0  0  0
   36.9860   31.4130   39.2930 C   0  0  0  0  0  0  0  0  0  0  0  0
   37.8490   31.2720   38.2640 N   0  0  0  0  0  0  0  0  0  0  0  0
   39.4170   30.0150   37.4540 H   0  0  0  0  0  0  0  0  0  0  0  0
   39.3460   28.3950   39.2570 H   0  0  0  0  0  0  0  0  0  0  0  0
   36.3240   32.2680   39.2930 H   0  0  0  0  0  0  0  0  0  0  0  0
   39.1890   31.7610   42.2620 F   0  0  0  0  0  0  0  0  0  0  0  0
   40.0760   30.7640   42.4910 C   0  0  0  0  0  0  0  0  0  0  0  0
   39.5920   29.5100   42.7010 C   0  0  0  0  0  0  0  0  0  0  0  0
   40.6470   28.6040   42.9290 C   0  0  0  0  0  0  0  0  0  0  0  0
   40.4060   27.5450   43.1160 H   0  0  0  0  0  0  0  0  0  0  0  0
   41.9820   28.9110   42.9450 C   0  0  0  0  0  0  0  0  0  0  0  0
   42.7240   28.1500   43.1290 H   0  0  0  0  0  0  0  0  0  0  0  0
   42.3600   30.2060   42.7220 C   0  0  0  0  0  3  0  0  0  0  0  0
   41.3960   31.1650   42.4880 C   0  0  0  0  0  3  0  0  0  0  0  0
  1  6  1  6  0  0  0
  1  2  1  0  0  0  0
  1  5  1  0  0  0  0
  2  7  1  0  0  0  0
  2  3  1  0  0  0  0
  3  4  1  0  0  0  0
  3  9  1  0  0  0  0
  4 12  1  0  0  0  0
  4 11  1  0  0  0  0
  5 13  1  1  0  0  0
  5  4  1  0  0  0  0
  8  2  1  0  0  0  0
 10  3  1  0  0  0  0
 14 19  2  0  0  0  0
 14 15  1  0  0  0  0
 15 21  1  0  0  0  0
 15 16  2  0  0  0  0
 16  1  1  0  0  0  0
 17 16  1  0  0  0  0
 18 17  2  0  0  0  0
 19 18  1  0  0  0  0
 20 14  1  0  0  0  0
 22 18  1  0  0  0  0
 23 24  1  0  0  0  0
 24 25  1  0  0  0  0
 25  5  1  0  0  0  0
 25 26  2  0  0  0  0
 26 28  1  0  0  0  0
 26 27  1  0  0  0  0
 28 29  1  0  0  0  0
 30 28  2  0  0  0  0
 31 24  2  0  0  0  0
 31 30  1  0  0  0  0
M  END
>  <minimizedAffinity>
-4.85562706

$$$$
