
 OpenBabel03252504163D

 35 37  0  0  0  0  0  0  0  0999 V2000
   38.8700   27.4460   40.2860 F   0  0  0  0  0  0  0  0  0  0  0  0
   38.2280   27.6040   41.4970 C   0  0  0  0  0  0  0  0  0  0  0  0
   38.3280   28.7980   42.1680 C   0  0  0  0  0  0  0  0  0  0  0  0
   37.6490   28.8830   43.3880 C   0  0  0  0  0  0  0  0  0  0  0  0
   36.9270   27.8110   43.8670 C   0  0  0  0  0  0  0  0  0  0  0  0
   36.8640   26.6320   43.1430 C   0  0  0  0  0  0  0  0  0  0  0  0
   37.5180   26.5050   41.9360 C   0  0  0  0  0  0  0  0  0  0  0  0
   37.6900   29.8020   43.9670 H   0  0  0  0  0  0  0  0  0  0  0  0
   36.4030   27.8770   44.8100 H   0  0  0  0  0  0  0  0  0  0  0  0
   36.2960   25.7920   43.5250 H   0  0  0  0  0  0  0  0  0  0  0  0
   39.3050   24.5380   42.5490 F   0  0  0  0  0  0  0  0  0  0  0  0
   38.4210   24.3450   41.5420 C   0  0  0  0  0  0  0  0  0  0  0  0
   37.4720   25.2630   41.1400 C   0  0  0  0  0  0  0  0  0  0  0  0
   36.5880   25.0250   40.1070 C   0  0  0  0  0  0  0  0  0  0  0  0
   35.8820   25.8110   39.8700 H   0  0  0  0  0  0  0  0  0  0  0  0
   36.6500   23.8050   39.4320 C   0  0  0  0  0  0  0  0  0  0  0  0
   35.9560   23.6250   38.6230 H   0  0  0  0  0  0  0  0  0  0  0  0
   37.5940   22.8460   39.8030 C   0  0  0  0  0  3  0  0  0  0  0  0
   38.4680   23.1310   40.8560 C   0  0  0  0  0  3  0  0  0  0  0  0
   39.0650   32.0280   40.6490 C   0  0  0  0  0  0  0  0  0  0  0  0
   40.4430   32.0860   40.6090 C   0  0  0  0  0  0  0  0  0  0  0  0
   41.1470   30.9660   41.1270 C   0  0  0  0  0  0  0  0  0  0  0  0
   40.4470   29.9180   41.6240 N   0  0  0  0  0  0  0  0  0  0  0  0
   39.1010   29.9210   41.6350 C   0  0  0  0  0  0  0  0  0  0  0  0
   38.4090   30.9800   41.1470 N   0  0  0  0  0  0  0  0  0  0  0  0
   42.2200   30.9980   41.1020 H   0  0  0  0  0  0  0  0  0  0  0  0
   41.1360   33.2610   40.0530 C   0  0  0  0  0  0  0  0  0  0  0  0
   40.8740   34.3730   40.8370 F   0  0  0  0  0  0  0  0  0  0  0  0
   42.5130   33.0210   40.1560 F   0  0  0  0  0  0  0  0  0  0  0  0
   40.8410   33.5600   38.7650 F   0  0  0  0  0  0  0  0  0  0  0  0
   38.3870   33.1080   40.1510 O   0  0  0  0  0  0  0  0  0  0  0  0
   37.2870   33.0910   39.2810 C   0  0  0  0  0  0  0  0  0  0  0  0
   36.3700   32.1760   39.8000 F   0  0  0  0  0  0  0  0  0  0  0  0
   36.7640   34.3640   39.1610 F   0  0  0  0  0  0  0  0  0  0  0  0
   37.6560   32.5560   38.0670 F   0  0  0  0  0  0  0  0  0  0  0  0
  1  2  1  0  0  0  0
  2  7  2  0  0  0  0
  2  3  1  0  0  0  0
  3  4  2  0  0  0  0
  4  5  1  0  0  0  0
  4  8  1  0  0  0  0
  5  9  1  0  0  0  0
  6 10  1  0  0  0  0
  6  5  2  0  0  0  0
  7  6  1  0  0  0  0
 12 11  1  0  0  0  0
 13 12  1  0  0  0  0
 13  7  1  0  0  0  0
 14 13  2  0  0  0  0
 15 14  1  0  0  0  0
 16 18  2  0  0  0  0
 16 14  1  0  0  0  0
 17 16  1  0  0  0  0
 18 19  1  0  0  0  0
 19 12  2  0  0  0  0
 20 25  1  0  0  0  0
 21 20  2  0  0  0  0
 21 22  1  0  0  0  0
 22 23  2  0  0  0  0
 23 24  1  0  0  0  0
 24  3  1  0  0  0  0
 25 24  2  0  0  0  0
 26 22  1  0  0  0  0
 27 29  1  0  0  0  0
 27 21  1  0  0  0  0
 27 28  1  0  0  0  0
 30 27  1  0  0  0  0
 31 20  1  0  0  0  0
 32 33  1  0  0  0  0
 32 31  1  0  0  0  0
 34 32  1  0  0  0  0
 35 32  1  0  0  0  0
M  END
>  <minimizedAffinity>
-6.61345577

$$$$

 OpenBabel03252504163D

 35 37  0  0  0  0  0  0  0  0999 V2000
   38.5560   27.5130   40.2100 F   0  0  0  0  0  0  0  0  0  0  0  0
   37.9500   27.6270   41.4450 C   0  0  0  0  0  0  0  0  0  0  0  0
   37.9440   28.8400   42.0880 C   0  0  0  0  0  0  0  0  0  0  0  0
   37.3100   28.8780   43.3350 C   0  0  0  0  0  0  0  0  0  0  0  0
   36.7320   27.7440   43.8630 C   0  0  0  0  0  0  0  0  0  0  0  0
   36.7700   26.5490   43.1650 C   0  0  0  0  0  0  0  0  0  0  0  0
   37.3850   26.4670   41.9340 C   0  0  0  0  0  0  0  0  0  0  0  0
   37.2730   29.8090   43.8940 H   0  0  0  0  0  0  0  0  0  0  0  0
   36.2420   27.7740   44.8270 H   0  0  0  0  0  0  0  0  0  0  0  0
   36.3150   25.6610   43.5850 H   0  0  0  0  0  0  0  0  0  0  0  0
   39.4240   24.7400   42.4790 F   0  0  0  0  0  0  0  0  0  0  0  0
   38.5160   24.4200   41.5270 C   0  0  0  0  0  0  0  0  0  0  0  0
   37.4440   25.2090   41.1620 C   0  0  0  0  0  0  0  0  0  0  0  0
   36.5410   24.8450   40.1850 C   0  0  0  0  0  0  0  0  0  0  0  0
   35.7350   25.5360   39.9740 H   0  0  0  0  0  0  0  0  0  0  0  0
   36.7110   23.6250   39.5290 C   0  0  0  0  0  0  0  0  0  0  0  0
   36.0010   23.3440   38.7630 H   0  0  0  0  0  0  0  0  0  0  0  0
   37.7820   22.7920   39.8640 C   0  0  0  0  0  3  0  0  0  0  0  0
   38.6700   23.2040   40.8600 C   0  0  0  0  0  3  0  0  0  0  0  0
   38.5580   31.5930   39.7800 C   0  0  0  0  0  0  0  0  0  0  0  0
   39.6480   32.2530   40.3100 C   0  0  0  0  0  0  0  0  0  0  0  0
   40.1930   31.7280   41.5120 C   0  0  0  0  0  0  0  0  0  0  0  0
   39.6300   30.6290   42.0690 N   0  0  0  0  0  0  0  0  0  0  0  0
   38.5660   30.0290   41.5020 C   0  0  0  0  0  0  0  0  0  0  0  0
   38.0300   30.5130   40.3550 N   0  0  0  0  0  0  0  0  0  0  0  0
   41.0410   32.2330   41.9360 H   0  0  0  0  0  0  0  0  0  0  0  0
   40.2070   33.4450   39.6490 C   0  0  0  0  0  0  0  0  0  0  0  0
   39.2670   34.4620   39.6450 F   0  0  0  0  0  0  0  0  0  0  0  0
   41.2750   33.8960   40.4350 F   0  0  0  0  0  0  0  0  0  0  0  0
   40.6480   33.2580   38.3810 F   0  0  0  0  0  0  0  0  0  0  0  0
   38.0340   32.0990   38.6220 O   0  0  0  0  0  0  0  0  0  0  0  0
   37.8190   31.4140   37.4170 C   0  0  0  0  0  0  0  0  0  0  0  0
   38.9150   30.5710   37.2260 F   0  0  0  0  0  0  0  0  0  0  0  0
   36.6200   30.7290   37.4740 F   0  0  0  0  0  0  0  0  0  0  0  0
   37.8750   32.2940   36.3600 F   0  0  0  0  0  0  0  0  0  0  0  0
  1  2  1  0  0  0  0
  2  7  2  0  0  0  0
  2  3  1  0  0  0  0
  3  4  2  0  0  0  0
  4  5  1  0  0  0  0
  4  8  1  0  0  0  0
  5  9  1  0  0  0  0
  6 10  1  0  0  0  0
  6  5  2  0  0  0  0
  7  6  1  0  0  0  0
 12 11  1  0  0  0  0
 13 12  1  0  0  0  0
 13  7  1  0  0  0  0
 14 13  2  0  0  0  0
 15 14  1  0  0  0  0
 16 18  2  0  0  0  0
 16 14  1  0  0  0  0
 17 16  1  0  0  0  0
 18 19  1  0  0  0  0
 19 12  2  0  0  0  0
 20 21  2  0  0  0  0
 20 25  1  0  0  0  0
 21 22  1  0  0  0  0
 22 26  1  0  0  0  0
 22 23  2  0  0  0  0
 24 23  1  0  0  0  0
 24  3  1  0  0  0  0
 25 24  2  0  0  0  0
 27 21  1  0  0  0  0
 27 29  1  0  0  0  0
 28 27  1  0  0  0  0
 30 27  1  0  0  0  0
 31 20  1  0  0  0  0
 32 34  1  0  0  0  0
 32 31  1  0  0  0  0
 33 32  1  0  0  0  0
 35 32  1  0  0  0  0
M  END
>  <minimizedAffinity>
-6.2896781

$$$$

 OpenBabel03252504163D

 35 37  0  0  0  0  0  0  0  0999 V2000
   37.8800   27.2170   40.2150 F   0  0  0  0  0  0  0  0  0  0  0  0
   38.5030   26.9520   41.4180 C   0  0  0  0  0  0  0  0  0  0  0  0
   39.0090   27.9880   42.1630 C   0  0  0  0  0  0  0  0  0  0  0  0
   39.6250   27.6410   43.3700 C   0  0  0  0  0  0  0  0  0  0  0  0
   39.7040   26.3240   43.7650 C   0  0  0  0  0  0  0  0  0  0  0  0
   39.1730   25.3220   42.9700 C   0  0  0  0  0  0  0  0  0  0  0  0
   38.5580   25.6190   41.7720 C   0  0  0  0  0  0  0  0  0  0  0  0
   40.0470   28.4170   44.0040 H   0  0  0  0  0  0  0  0  0  0  0  0
   40.1810   26.0560   44.6990 H   0  0  0  0  0  0  0  0  0  0  0  0
   39.2390   24.2880   43.2850 H   0  0  0  0  0  0  0  0  0  0  0  0
   40.2410   24.3240   40.0610 F   0  0  0  0  0  0  0  0  0  0  0  0
   38.9280   23.9950   40.0820 C   0  0  0  0  0  0  0  0  0  0  0  0
   37.9810   24.5770   40.9000 C   0  0  0  0  0  0  0  0  0  0  0  0
   36.6510   24.2110   40.8890 C   0  0  0  0  0  0  0  0  0  0  0  0
   35.9890   24.7300   41.5710 H   0  0  0  0  0  0  0  0  0  0  0  0
   36.2340   23.2070   40.0130 C   0  0  0  0  0  0  0  0  0  0  0  0
   35.1900   22.9240   40.0080 H   0  0  0  0  0  0  0  0  0  0  0  0
   37.1560   22.5890   39.1650 C   0  0  0  0  0  3  0  0  0  0  0  0
   38.4930   22.9940   39.2130 C   0  0  0  0  0  3  0  0  0  0  0  0
   37.9270   30.9020   40.2600 C   0  0  0  0  0  0  0  0  0  0  0  0
   38.6400   31.9530   40.7990 C   0  0  0  0  0  0  0  0  0  0  0  0
   39.5310   31.6440   41.8620 C   0  0  0  0  0  0  0  0  0  0  0  0
   39.6350   30.3620   42.2860 N   0  0  0  0  0  0  0  0  0  0  0  0
   38.9100   29.3800   41.7190 C   0  0  0  0  0  0  0  0  0  0  0  0
   38.0540   29.6510   40.7030 N   0  0  0  0  0  0  0  0  0  0  0  0
   40.0920   32.4530   42.2910 H   0  0  0  0  0  0  0  0  0  0  0  0
   38.4750   33.3240   40.2850 C   0  0  0  0  0  0  0  0  0  0  0  0
   38.9600   34.2320   41.2120 F   0  0  0  0  0  0  0  0  0  0  0  0
   39.2870   33.4450   39.1500 F   0  0  0  0  0  0  0  0  0  0  0  0
   37.2080   33.6770   39.9560 F   0  0  0  0  0  0  0  0  0  0  0  0
   37.0690   31.2000   39.2370 O   0  0  0  0  0  0  0  0  0  0  0  0
   37.2750   30.9810   37.8660 C   0  0  0  0  0  0  0  0  0  0  0  0
   38.5420   30.4140   37.7290 F   0  0  0  0  0  0  0  0  0  0  0  0
   36.2700   30.1770   37.3630 F   0  0  0  0  0  0  0  0  0  0  0  0
   37.3650   32.1870   37.2070 F   0  0  0  0  0  0  0  0  0  0  0  0
  1  2  1  0  0  0  0
  2  7  2  0  0  0  0
  2  3  1  0  0  0  0
  3  4  2  0  0  0  0
  4  5  1  0  0  0  0
  4  8  1  0  0  0  0
  5  9  1  0  0  0  0
  6 10  1  0  0  0  0
  6  5  2  0  0  0  0
  7  6  1  0  0  0  0
 11 12  1  0  0  0  0
 12 13  1  0  0  0  0
 13  7  1  0  0  0  0
 14 13  2  0  0  0  0
 14 15  1  0  0  0  0
 16 14  1  0  0  0  0
 17 16  1  0  0  0  0
 18 19  1  0  0  0  0
 18 16  2  0  0  0  0
 19 12  2  0  0  0  0
 20 25  2  0  0  0  0
 20 21  1  0  0  0  0
 21 22  2  0  0  0  0
 22 23  1  0  0  0  0
 22 26  1  0  0  0  0
 24  3  1  0  0  0  0
 24 23  2  0  0  0  0
 25 24  1  0  0  0  0
 27 21  1  0  0  0  0
 27 28  1  0  0  0  0
 29 27  1  0  0  0  0
 30 27  1  0  0  0  0
 31 20  1  0  0  0  0
 32 31  1  0  0  0  0
 33 32  1  0  0  0  0
 34 32  1  0  0  0  0
 35 32  1  0  0  0  0
M  END
>  <minimizedAffinity>
-6.23282814

$$$$

 OpenBabel03252504163D

 35 37  0  0  0  0  0  0  0  0999 V2000
   39.9940   29.8390   39.4110 F   0  0  0  0  0  0  0  0  0  0  0  0
   38.9450   30.7220   39.5710 C   0  0  0  0  0  0  0  0  0  0  0  0
   37.7310   30.2590   40.0150 C   0  0  0  0  0  0  0  0  0  0  0  0
   36.7170   31.2120   40.1540 C   0  0  0  0  0  0  0  0  0  0  0  0
   36.9510   32.5360   39.8540 C   0  0  0  0  0  0  0  0  0  0  0  0
   38.1990   32.9420   39.4100 C   0  0  0  0  0  0  0  0  0  0  0  0
   39.2270   32.0360   39.2590 C   0  0  0  0  0  0  0  0  0  0  0  0
   35.7320   30.9080   40.5000 H   0  0  0  0  0  0  0  0  0  0  0  0
   36.1670   33.2730   39.9600 H   0  0  0  0  0  0  0  0  0  0  0  0
   38.3780   33.9840   39.1750 H   0  0  0  0  0  0  0  0  0  0  0  0
   41.0080   32.9340   41.1200 F   0  0  0  0  0  0  0  0  0  0  0  0
   41.3780   32.8690   39.8190 C   0  0  0  0  0  0  0  0  0  0  0  0
   40.5690   32.4340   38.7890 C   0  0  0  0  0  0  0  0  0  0  0  0
   40.9870   32.3840   37.4750 C   0  0  0  0  0  0  0  0  0  0  0  0
   40.2740   32.0270   36.7430 H   0  0  0  0  0  0  0  0  0  0  0  0
   42.2850   32.7910   37.1630 C   0  0  0  0  0  0  0  0  0  0  0  0
   42.6070   32.7500   36.1310 H   0  0  0  0  0  0  0  0  0  0  0  0
   43.1400   33.2390   38.1720 C   0  0  0  0  0  3  0  0  0  0  0  0
   42.6720   33.2720   39.4880 C   0  0  0  0  0  3  0  0  0  0  0  0
   37.9020   27.0810   41.7920 C   0  0  0  0  0  0  0  0  0  0  0  0
   37.1640   26.2100   41.0170 C   0  0  0  0  0  0  0  0  0  0  0  0
   36.5850   26.7400   39.8330 C   0  0  0  0  0  0  0  0  0  0  0  0
   36.7790   28.0450   39.5290 N   0  0  0  0  0  0  0  0  0  0  0  0
   37.5100   28.8450   40.3270 C   0  0  0  0  0  0  0  0  0  0  0  0
   38.0720   28.3610   41.4620 N   0  0  0  0  0  0  0  0  0  0  0  0
   36.0080   26.0730   39.2210 H   0  0  0  0  0  0  0  0  0  0  0  0
   36.9960   24.8010   41.4120 C   0  0  0  0  0  0  0  0  0  0  0  0
   36.3870   24.7330   42.6540 F   0  0  0  0  0  0  0  0  0  0  0  0
   36.1050   24.2160   40.5020 F   0  0  0  0  0  0  0  0  0  0  0  0
   38.1320   24.0620   41.4450 F   0  0  0  0  0  0  0  0  0  0  0  0
   38.4600   26.5710   42.9330 O   0  0  0  0  0  0  0  0  0  0  0  0
   39.8090   26.2470   43.1460 C   0  0  0  0  0  0  0  0  0  0  0  0
   40.3850   26.0510   41.8900 F   0  0  0  0  0  0  0  0  0  0  0  0
   40.4240   27.2520   43.8670 F   0  0  0  0  0  0  0  0  0  0  0  0
   39.9040   25.0190   43.7630 F   0  0  0  0  0  0  0  0  0  0  0  0
  1  2  1  0  0  0  0
  2  3  1  0  0  0  0
  3  4  2  0  0  0  0
  3 24  1  0  0  0  0
  4  8  1  0  0  0  0
  5  9  1  0  0  0  0
  5  4  1  0  0  0  0
  6  5  2  0  0  0  0
  7  6  1  0  0  0  0
  7  2  2  0  0  0  0
 10  6  1  0  0  0  0
 12 11  1  0  0  0  0
 13  7  1  0  0  0  0
 13 12  2  0  0  0  0
 14 13  1  0  0  0  0
 15 14  1  0  0  0  0
 16 14  2  0  0  0  0
 16 18  1  0  0  0  0
 17 16  1  0  0  0  0
 18 19  2  0  0  0  0
 19 12  1  0  0  0  0
 20 31  1  0  0  0  0
 21 27  1  0  0  0  0
 21 20  2  0  0  0  0
 22 21  1  0  0  0  0
 23 22  2  0  0  0  0
 23 24  1  0  0  0  0
 24 25  2  0  0  0  0
 25 20  1  0  0  0  0
 26 22  1  0  0  0  0
 27 30  1  0  0  0  0
 27 28  1  0  0  0  0
 29 27  1  0  0  0  0
 31 32  1  0  0  0  0
 32 35  1  0  0  0  0
 32 34  1  0  0  0  0
 33 32  1  0  0  0  0
M  END
>  <minimizedAffinity>
-6.17603683

$$$$

 OpenBabel03252504163D

 35 37  0  0  0  0  0  0  0  0999 V2000
   37.7520   27.6500   39.7180 F   0  0  0  0  0  0  0  0  0  0  0  0
   37.3960   27.4610   41.0380 C   0  0  0  0  0  0  0  0  0  0  0  0
   37.3010   28.5450   41.8760 C   0  0  0  0  0  0  0  0  0  0  0  0
   36.9340   28.2750   43.1990 C   0  0  0  0  0  0  0  0  0  0  0  0
   36.6880   26.9840   43.6100 C   0  0  0  0  0  0  0  0  0  0  0  0
   36.8000   25.9320   42.7170 C   0  0  0  0  0  0  0  0  0  0  0  0
   37.1590   26.1520   41.4040 C   0  0  0  0  0  0  0  0  0  0  0  0
   36.8430   29.0910   43.9110 H   0  0  0  0  0  0  0  0  0  0  0  0
   36.4050   26.7760   44.6330 H   0  0  0  0  0  0  0  0  0  0  0  0
   36.6060   24.9180   43.0450 H   0  0  0  0  0  0  0  0  0  0  0  0
   39.5500   24.8460   41.2700 F   0  0  0  0  0  0  0  0  0  0  0  0
   38.5390   24.4720   40.4510 C   0  0  0  0  0  0  0  0  0  0  0  0
   37.2880   25.0540   40.4250 C   0  0  0  0  0  0  0  0  0  0  0  0
   36.2850   24.6410   39.5730 C   0  0  0  0  0  0  0  0  0  0  0  0
   35.3380   25.1650   39.6320 H   0  0  0  0  0  0  0  0  0  0  0  0
   36.5370   23.5880   38.6930 C   0  0  0  0  0  0  0  0  0  0  0  0
   35.7470   23.2680   38.0260 H   0  0  0  0  0  0  0  0  0  0  0  0
   37.7880   22.9680   38.6820 C   0  0  0  0  0  3  0  0  0  0  0  0
   38.7730   23.4210   39.5640 C   0  0  0  0  0  3  0  0  0  0  0  0
   39.0990   31.6510   41.2440 C   0  0  0  0  0  0  0  0  0  0  0  0
   38.1870   32.4520   40.5870 C   0  0  0  0  0  0  0  0  0  0  0  0
   36.9000   31.8990   40.3520 C   0  0  0  0  0  0  0  0  0  0  0  0
   36.6350   30.6390   40.7750 N   0  0  0  0  0  0  0  0  0  0  0  0
   37.5680   29.9070   41.4110 C   0  0  0  0  0  0  0  0  0  0  0  0
   38.8030   30.4150   41.6460 N   0  0  0  0  0  0  0  0  0  0  0  0
   36.1820   32.5110   39.8410 H   0  0  0  0  0  0  0  0  0  0  0  0
   38.5480   33.8140   40.1560 C   0  0  0  0  0  0  0  0  0  0  0  0
   37.4360   34.4450   39.6220 F   0  0  0  0  0  0  0  0  0  0  0  0
   38.8980   34.5360   41.3050 F   0  0  0  0  0  0  0  0  0  0  0  0
   39.5630   33.8960   39.2630 F   0  0  0  0  0  0  0  0  0  0  0  0
   40.3390   32.1850   41.4700 O   0  0  0  0  0  0  0  0  0  0  0  0
   41.5350   31.8590   40.8140 C   0  0  0  0  0  0  0  0  0  0  0  0
   42.1970   33.0590   40.5500 F   0  0  0  0  0  0  0  0  0  0  0  0
   42.2800   30.9970   41.5970 F   0  0  0  0  0  0  0  0  0  0  0  0
   41.2610   31.3360   39.5690 F   0  0  0  0  0  0  0  0  0  0  0  0
  1  2  1  0  0  0  0
  2  7  2  0  0  0  0
  2  3  1  0  0  0  0
  3  4  2  0  0  0  0
  4  5  1  0  0  0  0
  4  8  1  0  0  0  0
  5  9  1  0  0  0  0
  6 10  1  0  0  0  0
  6  5  2  0  0  0  0
  7  6  1  0  0  0  0
 12 11  1  0  0  0  0
 13 12  1  0  0  0  0
 13  7  1  0  0  0  0
 14 15  1  0  0  0  0
 14 13  2  0  0  0  0
 16 14  1  0  0  0  0
 17 16  1  0  0  0  0
 18 16  2  0  0  0  0
 18 19  1  0  0  0  0
 19 12  2  0  0  0  0
 20 31  1  0  0  0  0
 20 25  1  0  0  0  0
 21 20  2  0  0  0  0
 22 21  1  0  0  0  0
 22 23  2  0  0  0  0
 23 24  1  0  0  0  0
 24 25  2  0  0  0  0
 24  3  1  0  0  0  0
 26 22  1  0  0  0  0
 27 21  1  0  0  0  0
 27 29  1  0  0  0  0
 28 27  1  0  0  0  0
 30 27  1  0  0  0  0
 32 31  1  0  0  0  0
 32 34  1  0  0  0  0
 33 32  1  0  0  0  0
 35 32  1  0  0  0  0
M  END
>  <minimizedAffinity>
-6.03830385

$$$$

 OpenBabel03252504163D

 35 37  0  0  0  0  0  0  0  0999 V2000
   38.4150   27.7440   40.0790 F   0  0  0  0  0  0  0  0  0  0  0  0
   37.9050   27.7710   41.3610 C   0  0  0  0  0  0  0  0  0  0  0  0
   37.9810   28.9280   42.0970 C   0  0  0  0  0  0  0  0  0  0  0  0
   37.4420   28.8790   43.3870 C   0  0  0  0  0  0  0  0  0  0  0  0
   36.8720   27.7200   43.8670 C   0  0  0  0  0  0  0  0  0  0  0  0
   36.8240   26.5850   43.0750 C   0  0  0  0  0  0  0  0  0  0  0  0
   37.3430   26.5890   41.7980 C   0  0  0  0  0  0  0  0  0  0  0  0
   37.4740   29.7630   44.0200 H   0  0  0  0  0  0  0  0  0  0  0  0
   36.4560   27.6830   44.8640 H   0  0  0  0  0  0  0  0  0  0  0  0
   36.3750   25.6760   43.4570 H   0  0  0  0  0  0  0  0  0  0  0  0
   39.1030   24.5750   42.3350 F   0  0  0  0  0  0  0  0  0  0  0  0
   38.2420   24.4500   41.2970 C   0  0  0  0  0  0  0  0  0  0  0  0
   37.3090   25.3970   40.9280 C   0  0  0  0  0  0  0  0  0  0  0  0
   36.4500   25.2280   39.8620 C   0  0  0  0  0  0  0  0  0  0  0  0
   35.7540   26.0320   39.6550 H   0  0  0  0  0  0  0  0  0  0  0  0
   36.5200   24.0500   39.1170 C   0  0  0  0  0  0  0  0  0  0  0  0
   35.8450   23.9230   38.2810 H   0  0  0  0  0  0  0  0  0  0  0  0
   37.4490   23.0630   39.4520 C   0  0  0  0  0  3  0  0  0  0  0  0
   38.2990   23.2780   40.5410 C   0  0  0  0  0  3  0  0  0  0  0  0
   40.5430   31.3690   41.2270 C   0  0  0  0  0  0  0  0  0  0  0  0
   39.8540   32.3860   40.5980 C   0  0  0  0  0  0  0  0  0  0  0  0
   38.4490   32.2230   40.4690 C   0  0  0  0  0  0  0  0  0  0  0  0
   37.8650   31.1030   40.9580 N   0  0  0  0  0  0  0  0  0  0  0  0
   38.5930   30.1460   41.5620 C   0  0  0  0  0  0  0  0  0  0  0  0
   39.9360   30.2800   41.6960 N   0  0  0  0  0  0  0  0  0  0  0  0
   37.9010   33.0070   39.9810 H   0  0  0  0  0  0  0  0  0  0  0  0
   40.5570   33.5770   40.0900 C   0  0  0  0  0  0  0  0  0  0  0  0
   41.3710   33.2220   39.0270 F   0  0  0  0  0  0  0  0  0  0  0  0
   39.5870   34.4450   39.5730 F   0  0  0  0  0  0  0  0  0  0  0  0
   41.3030   34.2490   41.0000 F   0  0  0  0  0  0  0  0  0  0  0  0
   41.8970   31.5260   41.3500 O   0  0  0  0  0  0  0  0  0  0  0  0
   42.6370   31.6070   42.5400 C   0  0  0  0  0  0  0  0  0  0  0  0
   43.4290   30.4600   42.6070 F   0  0  0  0  0  0  0  0  0  0  0  0
   43.3790   32.7720   42.5530 F   0  0  0  0  0  0  0  0  0  0  0  0
   41.7940   31.5060   43.6250 F   0  0  0  0  0  0  0  0  0  0  0  0
  1  2  1  0  0  0  0
  2  7  2  0  0  0  0
  2  3  1  0  0  0  0
  3  4  2  0  0  0  0
  4  5  1  0  0  0  0
  4  8  1  0  0  0  0
  5  9  1  0  0  0  0
  6 10  1  0  0  0  0
  6  5  2  0  0  0  0
  7  6  1  0  0  0  0
 12 11  1  0  0  0  0
 13 12  1  0  0  0  0
 13  7  1  0  0  0  0
 14 13  2  0  0  0  0
 15 14  1  0  0  0  0
 16 18  2  0  0  0  0
 16 14  1  0  0  0  0
 17 16  1  0  0  0  0
 18 19  1  0  0  0  0
 19 12  2  0  0  0  0
 20 31  1  0  0  0  0
 20 25  1  0  0  0  0
 21 20  2  0  0  0  0
 22 21  1  0  0  0  0
 22 23  2  0  0  0  0
 23 24  1  0  0  0  0
 24 25  2  0  0  0  0
 24  3  1  0  0  0  0
 26 22  1  0  0  0  0
 27 21  1  0  0  0  0
 27 30  1  0  0  0  0
 28 27  1  0  0  0  0
 29 27  1  0  0  0  0
 31 32  1  0  0  0  0
 32 34  1  0  0  0  0
 32 33  1  0  0  0  0
 32 35  1  0  0  0  0
M  END
>  <minimizedAffinity>
-6.03810978

$$$$

 OpenBabel03252504163D

 35 37  0  0  0  0  0  0  0  0999 V2000
   37.7190   27.4140   40.1130 F   0  0  0  0  0  0  0  0  0  0  0  0
   38.3050   27.2140   41.3460 C   0  0  0  0  0  0  0  0  0  0  0  0
   38.7290   28.2960   42.0780 C   0  0  0  0  0  0  0  0  0  0  0  0
   39.3130   28.0150   43.3180 C   0  0  0  0  0  0  0  0  0  0  0  0
   39.4430   26.7140   43.7550 C   0  0  0  0  0  0  0  0  0  0  0  0
   38.9950   25.6650   42.9700 C   0  0  0  0  0  0  0  0  0  0  0  0
   38.4140   25.8970   41.7410 C   0  0  0  0  0  0  0  0  0  0  0  0
   39.6690   28.8290   43.9440 H   0  0  0  0  0  0  0  0  0  0  0  0
   39.8950   26.4980   44.7130 H   0  0  0  0  0  0  0  0  0  0  0  0
   39.1000   24.6450   43.3180 H   0  0  0  0  0  0  0  0  0  0  0  0
   40.2170   24.6750   40.0990 F   0  0  0  0  0  0  0  0  0  0  0  0
   38.9270   24.2640   40.0970 C   0  0  0  0  0  0  0  0  0  0  0  0
   37.9260   24.8020   40.8790 C   0  0  0  0  0  0  0  0  0  0  0  0
   36.6220   24.3520   40.8450 C   0  0  0  0  0  0  0  0  0  0  0  0
   35.9120   24.8420   41.5000 H   0  0  0  0  0  0  0  0  0  0  0  0
   36.2900   23.3060   39.9820 C   0  0  0  0  0  0  0  0  0  0  0  0
   35.2670   22.9580   39.9590 H   0  0  0  0  0  0  0  0  0  0  0  0
   37.2700   22.7300   39.1700 C   0  0  0  0  0  3  0  0  0  0  0  0
   38.5770   23.2200   39.2400 C   0  0  0  0  0  3  0  0  0  0  0  0
   39.6020   31.7080   41.1410 C   0  0  0  0  0  0  0  0  0  0  0  0
   38.4190   32.2590   40.6940 C   0  0  0  0  0  0  0  0  0  0  0  0
   37.2730   31.4190   40.7170 C   0  0  0  0  0  0  0  0  0  0  0  0
   37.3940   30.1470   41.1660 N   0  0  0  0  0  0  0  0  0  0  0  0
   38.5780   29.6680   41.5890 C   0  0  0  0  0  0  0  0  0  0  0  0
   39.6850   30.4510   41.5770 N   0  0  0  0  0  0  0  0  0  0  0  0
   36.3460   31.8350   40.3710 H   0  0  0  0  0  0  0  0  0  0  0  0
   38.3630   33.6520   40.2190 C   0  0  0  0  0  0  0  0  0  0  0  0
   38.7850   34.5060   41.2250 F   0  0  0  0  0  0  0  0  0  0  0  0
   39.2940   33.7760   39.1800 F   0  0  0  0  0  0  0  0  0  0  0  0
   37.1540   34.0710   39.7750 F   0  0  0  0  0  0  0  0  0  0  0  0
   40.7060   32.5160   41.1190 O   0  0  0  0  0  0  0  0  0  0  0  0
   41.8790   32.3310   40.3710 C   0  0  0  0  0  0  0  0  0  0  0  0
   42.2800   33.5910   39.9230 F   0  0  0  0  0  0  0  0  0  0  0  0
   42.8370   31.7090   41.1480 F   0  0  0  0  0  0  0  0  0  0  0  0
   41.5950   31.6310   39.2200 F   0  0  0  0  0  0  0  0  0  0  0  0
  1  2  1  0  0  0  0
  2  7  2  0  0  0  0
  2  3  1  0  0  0  0
  3  4  2  0  0  0  0
  4  5  1  0  0  0  0
  4  8  1  0  0  0  0
  5  9  1  0  0  0  0
  6 10  1  0  0  0  0
  6  5  2  0  0  0  0
  7  6  1  0  0  0  0
 12 11  1  0  0  0  0
 12 13  1  0  0  0  0
 13  7  1  0  0  0  0
 14 13  2  0  0  0  0
 14 15  1  0  0  0  0
 16 14  1  0  0  0  0
 17 16  1  0  0  0  0
 18 19  1  0  0  0  0
 18 16  2  0  0  0  0
 19 12  2  0  0  0  0
 20 25  1  0  0  0  0
 21 22  1  0  0  0  0
 21 20  2  0  0  0  0
 22 23  2  0  0  0  0
 23 24  1  0  0  0  0
 24  3  1  0  0  0  0
 25 24  2  0  0  0  0
 26 22  1  0  0  0  0
 27 21  1  0  0  0  0
 27 28  1  0  0  0  0
 29 27  1  0  0  0  0
 30 27  1  0  0  0  0
 31 20  1  0  0  0  0
 32 31  1  0  0  0  0
 32 34  1  0  0  0  0
 33 32  1  0  0  0  0
 35 32  1  0  0  0  0
M  END
>  <minimizedAffinity>
-6.00322104

$$$$

 OpenBabel03252504163D

 35 37  0  0  0  0  0  0  0  0999 V2000
   39.2290   27.3350   40.5820 F   0  0  0  0  0  0  0  0  0  0  0  0
   38.4410   27.5470   41.6950 C   0  0  0  0  0  0  0  0  0  0  0  0
   38.5430   28.7330   42.3820 C   0  0  0  0  0  0  0  0  0  0  0  0
   37.7120   28.8760   43.4990 C   0  0  0  0  0  0  0  0  0  0  0  0
   36.8490   27.8670   43.8670 C   0  0  0  0  0  0  0  0  0  0  0  0
   36.7920   26.6940   43.1330 C   0  0  0  0  0  0  0  0  0  0  0  0
   37.5930   26.5100   42.0250 C   0  0  0  0  0  0  0  0  0  0  0  0
   37.7480   29.7910   44.0840 H   0  0  0  0  0  0  0  0  0  0  0  0
   36.2080   27.9780   44.7300 H   0  0  0  0  0  0  0  0  0  0  0  0
   36.1120   25.9030   43.4270 H   0  0  0  0  0  0  0  0  0  0  0  0
   36.0730   26.5130   39.7610 F   0  0  0  0  0  0  0  0  0  0  0  0
   36.7580   25.3960   40.1030 C   0  0  0  0  0  0  0  0  0  0  0  0
   37.5570   25.2730   41.2210 C   0  0  0  0  0  0  0  0  0  0  0  0
   38.2390   24.1150   41.5320 C   0  0  0  0  0  0  0  0  0  0  0  0
   38.8400   24.1210   42.4330 H   0  0  0  0  0  0  0  0  0  0  0  0
   38.1200   23.0120   40.6850 C   0  0  0  0  0  0  0  0  0  0  0  0
   38.6560   22.1060   40.9350 H   0  0  0  0  0  0  0  0  0  0  0  0
   37.3210   23.0890   39.5420 C   0  0  0  0  0  3  0  0  0  0  0  0
   36.6510   24.2840   39.2680 C   0  0  0  0  0  3  0  0  0  0  0  0
   40.0030   31.4140   40.3920 C   0  0  0  0  0  0  0  0  0  0  0  0
   41.1340   31.7880   41.0900 C   0  0  0  0  0  0  0  0  0  0  0  0
   41.4040   31.0860   42.2950 C   0  0  0  0  0  0  0  0  0  0  0  0
   40.5580   30.1060   42.6930 N   0  0  0  0  0  0  0  0  0  0  0  0
   39.4690   29.7880   41.9680 C   0  0  0  0  0  0  0  0  0  0  0  0
   39.1920   30.4450   40.8140 N   0  0  0  0  0  0  0  0  0  0  0  0
   42.2800   31.3670   42.8470 H   0  0  0  0  0  0  0  0  0  0  0  0
   42.0090   32.8640   40.5940 C   0  0  0  0  0  0  0  0  0  0  0  0
   41.3110   34.0610   40.5730 F   0  0  0  0  0  0  0  0  0  0  0  0
   43.0410   33.0250   41.5270 F   0  0  0  0  0  0  0  0  0  0  0  0
   42.5540   32.6590   39.3700 F   0  0  0  0  0  0  0  0  0  0  0  0
   39.7430   32.0910   39.2310 O   0  0  0  0  0  0  0  0  0  0  0  0
   39.8030   31.5860   37.9230 C   0  0  0  0  0  0  0  0  0  0  0  0
   40.4430   32.5490   37.1430 F   0  0  0  0  0  0  0  0  0  0  0  0
   40.4590   30.3700   37.9200 F   0  0  0  0  0  0  0  0  0  0  0  0
   38.5340   31.5020   37.3940 F   0  0  0  0  0  0  0  0  0  0  0  0
  1  2  1  0  0  0  0
  2  7  2  0  0  0  0
  2  3  1  0  0  0  0
  3  4  2  0  0  0  0
  4  5  1  0  0  0  0
  4  8  1  0  0  0  0
  5  9  1  0  0  0  0
  6 10  1  0  0  0  0
  6  5  2  0  0  0  0
  7  6  1  0  0  0  0
 11 12  1  0  0  0  0
 12 13  1  0  0  0  0
 13 14  2  0  0  0  0
 13  7  1  0  0  0  0
 14 15  1  0  0  0  0
 16 17  1  0  0  0  0
 16 14  1  0  0  0  0
 18 16  2  0  0  0  0
 19 18  1  0  0  0  0
 19 12  2  0  0  0  0
 20 25  2  0  0  0  0
 20 21  1  0  0  0  0
 21 22  2  0  0  0  0
 22 23  1  0  0  0  0
 22 26  1  0  0  0  0
 24  3  1  0  0  0  0
 24 23  2  0  0  0  0
 25 24  1  0  0  0  0
 27 21  1  0  0  0  0
 27 29  1  0  0  0  0
 28 27  1  0  0  0  0
 30 27  1  0  0  0  0
 31 20  1  0  0  0  0
 32 31  1  0  0  0  0
 33 32  1  0  0  0  0
 34 32  1  0  0  0  0
 35 32  1  0  0  0  0
M  END
>  <minimizedAffinity>
-5.99346685

$$$$

 OpenBabel03252504163D

 35 37  0  0  0  0  0  0  0  0999 V2000
   38.8440   27.2230   40.2320 F   0  0  0  0  0  0  0  0  0  0  0  0
   39.3890   26.9160   41.4610 C   0  0  0  0  0  0  0  0  0  0  0  0
   40.0630   27.8840   42.1660 C   0  0  0  0  0  0  0  0  0  0  0  0
   40.5870   27.4980   43.4040 C   0  0  0  0  0  0  0  0  0  0  0  0
   40.4210   26.2110   43.8670 C   0  0  0  0  0  0  0  0  0  0  0  0
   39.7310   25.2790   43.1100 C   0  0  0  0  0  0  0  0  0  0  0  0
   39.1980   25.6160   41.8840 C   0  0  0  0  0  0  0  0  0  0  0  0
   41.1320   28.2190   44.0090 H   0  0  0  0  0  0  0  0  0  0  0  0
   40.8270   25.9130   44.8240 H   0  0  0  0  0  0  0  0  0  0  0  0
   39.6040   24.2680   43.4780 H   0  0  0  0  0  0  0  0  0  0  0  0
   36.5170   25.3650   42.3140 F   0  0  0  0  0  0  0  0  0  0  0  0
   37.1130   24.6110   41.3600 C   0  0  0  0  0  0  0  0  0  0  0  0
   38.4570   24.6480   41.0510 C   0  0  0  0  0  0  0  0  0  0  0  0
   39.0240   23.8610   40.0700 C   0  0  0  0  0  0  0  0  0  0  0  0
   40.0890   23.9660   39.9050 H   0  0  0  0  0  0  0  0  0  0  0  0
   38.2090   22.9840   39.3520 C   0  0  0  0  0  0  0  0  0  0  0  0
   38.6590   22.3690   38.5850 H   0  0  0  0  0  0  0  0  0  0  0  0
   36.8420   22.9110   39.6300 C   0  0  0  0  0  3  0  0  0  0  0  0
   36.3140   23.7280   40.6330 C   0  0  0  0  0  3  0  0  0  0  0  0
   39.1920   31.2370   41.0330 C   0  0  0  0  0  0  0  0  0  0  0  0
   40.3990   31.8110   40.6890 C   0  0  0  0  0  0  0  0  0  0  0  0
   41.5600   31.0090   40.8550 C   0  0  0  0  0  0  0  0  0  0  0  0
   41.4310   29.7480   41.3320 N   0  0  0  0  0  0  0  0  0  0  0  0
   40.2240   29.2440   41.6500 C   0  0  0  0  0  0  0  0  0  0  0  0
   39.1020   29.9910   41.5000 N   0  0  0  0  0  0  0  0  0  0  0  0
   42.5060   31.4440   40.5920 H   0  0  0  0  0  0  0  0  0  0  0  0
   40.4630   33.1910   40.1770 C   0  0  0  0  0  0  0  0  0  0  0  0
   41.7840   33.6040   40.1120 F   0  0  0  0  0  0  0  0  0  0  0  0
   39.9910   33.1680   38.8580 F   0  0  0  0  0  0  0  0  0  0  0  0
   39.7560   34.1090   40.8780 F   0  0  0  0  0  0  0  0  0  0  0  0
   38.0740   32.0090   40.8740 O   0  0  0  0  0  0  0  0  0  0  0  0
   37.0950   31.8890   39.8750 C   0  0  0  0  0  0  0  0  0  0  0  0
   36.0040   31.2360   40.4500 F   0  0  0  0  0  0  0  0  0  0  0  0
   36.7730   33.1390   39.3830 F   0  0  0  0  0  0  0  0  0  0  0  0
   37.5310   31.0300   38.8910 F   0  0  0  0  0  0  0  0  0  0  0  0
  1  2  1  0  0  0  0
  2  7  2  0  0  0  0
  2  3  1  0  0  0  0
  3  4  2  0  0  0  0
  4  5  1  0  0  0  0
  4  8  1  0  0  0  0
  5  9  1  0  0  0  0
  6 10  1  0  0  0  0
  6  5  2  0  0  0  0
  7  6  1  0  0  0  0
 12 11  1  0  0  0  0
 13 12  1  0  0  0  0
 13  7  1  0  0  0  0
 14 13  2  0  0  0  0
 15 14  1  0  0  0  0
 16 18  2  0  0  0  0
 16 14  1  0  0  0  0
 17 16  1  0  0  0  0
 18 19  1  0  0  0  0
 19 12  2  0  0  0  0
 20 25  1  0  0  0  0
 21 22  1  0  0  0  0
 21 20  2  0  0  0  0
 22 23  2  0  0  0  0
 23 24  1  0  0  0  0
 24  3  1  0  0  0  0
 25 24  2  0  0  0  0
 26 22  1  0  0  0  0
 27 21  1  0  0  0  0
 27 30  1  0  0  0  0
 28 27  1  0  0  0  0
 29 27  1  0  0  0  0
 31 20  1  0  0  0  0
 32 33  1  0  0  0  0
 32 31  1  0  0  0  0
 34 32  1  0  0  0  0
 35 32  1  0  0  0  0
M  END
>  <minimizedAffinity>
-5.978055

$$$$
