
 OpenBabel03252509233D

 27 29  0  0  1  0  0  0  0  0999 V2000
   46.4610   35.0090   41.9140 C   0  0  1  0  0  0  0  0  0  0  0  0
   47.9890   35.2600   41.8540 C   0  0  0  0  0  0  0  0  0  0  0  0
   47.2490   34.0100   41.2860 C   0  0  2  0  0  0  0  0  0  0  0  0
   45.8690   35.7740   41.3940 H   0  0  0  0  0  0  0  0  0  0  0  0
   48.5980   35.0740   42.7330 H   0  0  0  0  0  0  0  0  0  0  0  0
   48.2760   36.0180   41.1230 H   0  0  0  0  0  0  0  0  0  0  0  0
   47.4880   33.0510   41.8130 H   0  0  0  0  0  0  0  0  0  0  0  0
   45.3070   32.6210   39.6470 F   0  0  0  0  0  0  0  0  0  0  0  0
   46.3250   33.2140   39.0010 C   0  0  0  0  0  0  0  0  0  0  0  0
   47.2210   33.8570   39.8290 C   0  0  0  0  0  0  0  0  0  0  0  0
   48.2880   34.4760   39.1660 C   0  0  0  0  0  0  0  0  0  0  0  0
   49.0660   35.0160   39.6830 H   0  0  0  0  0  0  0  0  0  0  0  0
   48.4550   34.4600   37.7970 C   0  0  0  0  0  0  0  0  0  0  0  0
   49.2640   34.9290   37.2920 H   0  0  0  0  0  0  0  0  0  0  0  0
   47.5320   33.8050   37.0140 C   0  0  0  0  0  3  0  0  0  0  0  0
   46.4730   33.1880   37.6460 C   0  0  0  0  0  3  0  0  0  0  0  0
   44.6910   35.3650   45.2110 C   0  0  0  0  0  0  0  0  0  0  0  0
   45.1090   35.6720   43.8690 C   0  0  0  0  0  0  0  0  0  0  0  0
   46.0270   34.7930   43.3580 C   0  0  0  0  0  0  0  0  0  0  0  0
   46.5100   33.7030   44.0750 N   0  0  0  0  0  0  0  0  0  0  0  0
   46.0780   33.4770   45.3200 C   0  0  0  0  0  0  0  0  0  0  0  0
   45.1650   34.3100   45.8900 N   0  0  0  0  0  0  0  0  0  0  0  0
   43.9740   36.0170   45.6610 H   0  0  0  0  0  0  0  0  0  0  0  0
   46.5520   32.5980   45.7240 H   0  0  0  0  0  0  0  0  0  0  0  0
   44.6250   36.8020   43.1560 N   0  0  0  0  0  0  0  0  0  0  0  0
   44.0600   36.6360   42.2900 H   0  0  0  0  0  0  0  0  0  0  0  0
   44.8700   37.7400   43.5520 H   0  0  0  0  0  0  0  0  0  0  0  0
  1  4  1  6  0  0  0
  1 19  1  0  0  0  0
  2  1  1  0  0  0  0
  2  5  1  0  0  0  0
  3  7  1  1  0  0  0
  3  2  1  0  0  0  0
  3  1  1  0  0  0  0
  6  2  1  0  0  0  0
  9  8  1  0  0  0  0
  9 10  1  0  0  0  0
 10  3  1  0  0  0  0
 11 12  1  0  0  0  0
 11 10  2  0  0  0  0
 13 11  1  0  0  0  0
 14 13  1  0  0  0  0
 15 16  1  0  0  0  0
 15 13  2  0  0  0  0
 16  9  2  0  0  0  0
 17 23  1  0  0  0  0
 17 22  1  0  0  0  0
 18 17  2  0  0  0  0
 19 18  1  0  0  0  0
 19 20  2  0  0  0  0
 20 21  1  0  0  0  0
 21 24  1  0  0  0  0
 21 22  2  0  0  0  0
 25 27  1  0  0  0  0
 25 18  1  0  0  0  0
 26 25  1  0  0  0  0
M  END
>  <minimizedAffinity>
-5.57157516

>  <minimizedRMSD>
0.243409067

$$$$
