
 OpenBabel03252506493D

 29 31  0  0  0  0  0  0  0  0999 V2000
   36.7010   29.0470   41.6940 C   0  0  0  0  0  0  0  0  0  0  0  0
   35.6760   28.9780   40.7450 C   0  0  0  0  0  0  0  0  0  0  0  0
   35.6470   29.9330   39.7180 C   0  0  0  0  0  0  0  0  0  0  0  0
   36.6250   30.8820   39.6990 N   0  0  0  0  0  0  0  0  0  0  0  0
   37.5940   30.9130   40.6320 C   0  0  0  0  0  0  0  0  0  0  0  0
   37.6600   30.0100   41.6420 N   0  0  0  0  0  0  0  0  0  0  0  0
   34.9170   28.2210   40.7810 H   0  0  0  0  0  0  0  0  0  0  0  0
   34.8830   29.9180   38.9710 H   0  0  0  0  0  0  0  0  0  0  0  0
   37.0060   33.5550   39.9170 F   0  0  0  0  0  0  0  0  0  0  0  0
   38.2790   33.2490   40.1960 C   0  0  0  0  0  0  0  0  0  0  0  0
   38.6120   31.9580   40.5530 C   0  0  0  0  0  0  0  0  0  0  0  0
   39.9260   31.6450   40.8400 C   0  0  0  0  0  0  0  0  0  0  0  0
   40.2100   30.6230   41.1260 H   0  0  0  0  0  0  0  0  0  0  0  0
   40.9570   32.5570   40.7940 C   0  0  0  0  0  0  0  0  0  0  0  0
   41.9690   32.2610   41.0290 H   0  0  0  0  0  0  0  0  0  0  0  0
   40.6290   33.8670   40.4340 C   0  0  0  0  0  3  0  0  0  0  0  0
   39.3120   34.1610   40.1510 C   0  0  0  0  0  3  0  0  0  0  0  0
   36.6570   27.7860   42.9700 S   0  0  0  0  0  0  0  0  0  0  0  0
   39.8350   27.7090   43.3510 Cl  0  0  0  0  0  0  0  0  0  0  0  0
   39.0250   26.2750   42.7340 C   0  0  0  0  0  0  0  0  0  0  0  0
   37.6720   26.3960   42.6030 C   0  0  0  0  0  0  0  0  0  0  0  0
   36.9690   25.2930   42.1180 C   0  0  0  0  0  0  0  0  0  0  0  0
   37.6700   24.1280   41.7910 C   0  0  0  0  0  0  0  0  0  0  0  0
   39.0450   24.0070   41.9240 C   0  0  0  0  0  0  0  0  0  0  0  0
   39.7110   25.1260   42.4100 C   0  0  0  0  0  0  0  0  0  0  0  0
   41.4490   25.1070   42.6280 Cl  0  0  0  0  0  0  0  0  0  0  0  0
   35.9210   25.2570   41.9690 H   0  0  0  0  0  0  0  0  0  0  0  0
   37.1380   23.2640   41.4130 H   0  0  0  0  0  0  0  0  0  0  0  0
   39.5830   23.1190   41.6750 H   0  0  0  0  0  0  0  0  0  0  0  0
  1 18  1  0  0  0  0
  2  7  1  0  0  0  0
  2  1  2  0  0  0  0
  3  2  1  0  0  0  0
  4  3  2  0  0  0  0
  4  5  1  0  0  0  0
  5  6  2  0  0  0  0
  6  1  1  0  0  0  0
  8  3  1  0  0  0  0
  9 10  1  0  0  0  0
 10 11  1  0  0  0  0
 11  5  1  0  0  0  0
 11 12  2  0  0  0  0
 12 13  1  0  0  0  0
 14 12  1  0  0  0  0
 14 15  1  0  0  0  0
 16 14  2  0  0  0  0
 17 10  2  0  0  0  0
 17 16  1  0  0  0  0
 20 19  1  0  0  0  0
 21 20  1  0  0  0  0
 21 18  1  0  0  0  0
 22 21  2  0  0  0  0
 23 24  2  0  0  0  0
 23 22  1  0  0  0  0
 24 25  1  0  0  0  0
 25 26  1  0  0  0  0
 25 20  2  0  0  0  0
 27 22  1  0  0  0  0
 28 23  1  0  0  0  0
 29 24  1  0  0  0  0
M  END
>  <minimizedAffinity>
-5.94268274

$$$$

 OpenBabel03252506493D

 29 31  0  0  0  0  0  0  0  0999 V2000
   36.5260   28.7910   41.6390 C   0  0  0  0  0  0  0  0  0  0  0  0
   37.1690   30.0180   41.8340 C   0  0  0  0  0  0  0  0  0  0  0  0
   37.0910   30.9850   40.8210 C   0  0  0  0  0  0  0  0  0  0  0  0
   36.3870   30.6760   39.6950 N   0  0  0  0  0  0  0  0  0  0  0  0
   35.7830   29.4840   39.5470 C   0  0  0  0  0  0  0  0  0  0  0  0
   35.8330   28.5200   40.5020 N   0  0  0  0  0  0  0  0  0  0  0  0
   37.7180   30.2380   42.7290 H   0  0  0  0  0  0  0  0  0  0  0  0
   37.5670   31.9360   40.9260 H   0  0  0  0  0  0  0  0  0  0  0  0
   32.9950   29.2560   39.4660 F   0  0  0  0  0  0  0  0  0  0  0  0
   33.6690   29.1130   38.3190 C   0  0  0  0  0  0  0  0  0  0  0  0
   35.0450   29.2180   38.3150 C   0  0  0  0  0  0  0  0  0  0  0  0
   35.7390   29.0700   37.1300 C   0  0  0  0  0  0  0  0  0  0  0  0
   36.8350   29.1500   37.1070 H   0  0  0  0  0  0  0  0  0  0  0  0
   35.1370   28.8170   35.9170 C   0  0  0  0  0  0  0  0  0  0  0  0
   35.7250   28.7110   35.0180 H   0  0  0  0  0  0  0  0  0  0  0  0
   33.7440   28.7110   35.9120 C   0  0  0  0  0  3  0  0  0  0  0  0
   33.0680   28.8610   37.1040 C   0  0  0  0  0  3  0  0  0  0  0  0
   36.6810   27.6180   42.9870 S   0  0  0  0  0  0  0  0  0  0  0  0
   39.8470   27.5550   43.4650 Cl  0  0  0  0  0  0  0  0  0  0  0  0
   39.0710   26.1380   42.7670 C   0  0  0  0  0  0  0  0  0  0  0  0
   37.7220   26.2520   42.5990 C   0  0  0  0  0  0  0  0  0  0  0  0
   37.0460   25.1630   42.0490 C   0  0  0  0  0  0  0  0  0  0  0  0
   37.7690   24.0170   41.6990 C   0  0  0  0  0  0  0  0  0  0  0  0
   39.1400   23.9050   41.8720 C   0  0  0  0  0  0  0  0  0  0  0  0
   39.7790   25.0100   42.4220 C   0  0  0  0  0  0  0  0  0  0  0  0
   41.5100   24.9990   42.6930 Cl  0  0  0  0  0  0  0  0  0  0  0  0
   36.0040   25.1230   41.8660 H   0  0  0  0  0  0  0  0  0  0  0  0
   37.2580   23.1640   41.2710 H   0  0  0  0  0  0  0  0  0  0  0  0
   39.6960   23.0320   41.6050 H   0  0  0  0  0  0  0  0  0  0  0  0
  1  2  1  0  0  0  0
  1 18  1  0  0  0  0
  2  7  1  0  0  0  0
  3  8  1  0  0  0  0
  3  2  2  0  0  0  0
  4  3  1  0  0  0  0
  5  4  2  0  0  0  0
  5  6  1  0  0  0  0
  6  1  2  0  0  0  0
 10  9  1  0  0  0  0
 11 10  1  0  0  0  0
 11  5  1  0  0  0  0
 12 11  2  0  0  0  0
 13 12  1  0  0  0  0
 14 12  1  0  0  0  0
 15 14  1  0  0  0  0
 16 14  2  0  0  0  0
 16 17  1  0  0  0  0
 17 10  2  0  0  0  0
 20 19  1  0  0  0  0
 21 20  1  0  0  0  0
 21 18  1  0  0  0  0
 22 21  2  0  0  0  0
 23 24  2  0  0  0  0
 23 22  1  0  0  0  0
 24 25  1  0  0  0  0
 25 26  1  0  0  0  0
 25 20  2  0  0  0  0
 27 22  1  0  0  0  0
 28 23  1  0  0  0  0
 29 24  1  0  0  0  0
M  END
>  <minimizedAffinity>
-5.84016991

$$$$

 OpenBabel03252506493D

 29 31  0  0  0  0  0  0  0  0999 V2000
   33.6000   27.7960   36.8790 C   0  0  0  0  0  0  0  0  0  0  0  0
   34.1680   26.5170   36.8990 C   0  0  0  0  0  0  0  0  0  0  0  0
   35.3360   26.3130   37.6470 C   0  0  0  0  0  0  0  0  0  0  0  0
   35.8590   27.3770   38.3200 N   0  0  0  0  0  0  0  0  0  0  0  0
   35.2810   28.5920   38.2750 C   0  0  0  0  0  0  0  0  0  0  0  0
   34.1510   28.8330   37.5640 N   0  0  0  0  0  0  0  0  0  0  0  0
   33.7390   25.6950   36.3600 H   0  0  0  0  0  0  0  0  0  0  0  0
   35.8040   25.3540   37.6910 H   0  0  0  0  0  0  0  0  0  0  0  0
   34.9580   28.9190   41.0360 F   0  0  0  0  0  0  0  0  0  0  0  0
   35.7080   29.8130   40.3820 C   0  0  0  0  0  0  0  0  0  0  0  0
   35.8940   29.6890   39.0210 C   0  0  0  0  0  0  0  0  0  0  0  0
   36.6680   30.6130   38.3480 C   0  0  0  0  0  0  0  0  0  0  0  0
   36.8270   30.5310   37.2630 H   0  0  0  0  0  0  0  0  0  0  0  0
   37.2870   31.6820   38.9580 C   0  0  0  0  0  0  0  0  0  0  0  0
   37.8830   32.3770   38.3860 H   0  0  0  0  0  0  0  0  0  0  0  0
   37.1060   31.8150   40.3370 C   0  0  0  0  0  3  0  0  0  0  0  0
   36.3290   30.8830   40.9920 C   0  0  0  0  0  3  0  0  0  0  0  0
   32.1090   27.9620   35.8950 S   0  0  0  0  0  0  0  0  0  0  0  0
   30.8040   29.6560   38.2790 Cl  0  0  0  0  0  0  0  0  0  0  0  0
   30.9950   30.4210   36.7060 C   0  0  0  0  0  0  0  0  0  0  0  0
   31.5590   29.6280   35.7500 C   0  0  0  0  0  0  0  0  0  0  0  0
   31.7370   30.1750   34.4790 C   0  0  0  0  0  0  0  0  0  0  0  0
   31.3360   31.4940   34.2430 C   0  0  0  0  0  0  0  0  0  0  0  0
   30.7630   32.2980   35.2160 C   0  0  0  0  0  0  0  0  0  0  0  0
   30.6010   31.7190   36.4690 C   0  0  0  0  0  0  0  0  0  0  0  0
   29.8910   32.6260   37.7880 Cl  0  0  0  0  0  0  0  0  0  0  0  0
   32.1600   29.6670   33.6520 H   0  0  0  0  0  0  0  0  0  0  0  0
   31.4680   31.9320   33.2620 H   0  0  0  0  0  0  0  0  0  0  0  0
   30.4560   33.3060   35.0390 H   0  0  0  0  0  0  0  0  0  0  0  0
  1  2  2  0  0  0  0
  1  6  1  0  0  0  0
  2  3  1  0  0  0  0
  3  8  1  0  0  0  0
  3  4  2  0  0  0  0
  5  4  1  0  0  0  0
  5 11  1  0  0  0  0
  6  5  2  0  0  0  0
  7  2  1  0  0  0  0
 10 17  1  0  0  0  0
 10  9  1  0  0  0  0
 11 10  2  0  0  0  0
 12 14  2  0  0  0  0
 12 11  1  0  0  0  0
 13 12  1  0  0  0  0
 14 16  1  0  0  0  0
 15 14  1  0  0  0  0
 16 17  2  0  0  0  0
 18  1  1  0  0  0  0
 20 19  1  0  0  0  0
 21 18  1  0  0  0  0
 21 20  2  0  0  0  0
 22 21  1  0  0  0  0
 23 22  2  0  0  0  0
 23 24  1  0  0  0  0
 24 25  2  0  0  0  0
 25 20  1  0  0  0  0
 25 26  1  0  0  0  0
 27 22  1  0  0  0  0
 28 23  1  0  0  0  0
 29 24  1  0  0  0  0
M  END
>  <minimizedAffinity>
-5.66906977

$$$$

 OpenBabel03252506493D

 29 31  0  0  0  0  0  0  0  0999 V2000
   33.9700   27.7070   37.1410 C   0  0  0  0  0  0  0  0  0  0  0  0
   33.4610   26.5380   36.5640 C   0  0  0  0  0  0  0  0  0  0  0  0
   32.2310   26.6020   35.8940 C   0  0  0  0  0  0  0  0  0  0  0  0
   31.5940   27.8050   35.8380 N   0  0  0  0  0  0  0  0  0  0  0  0
   32.1180   28.9060   36.4070 C   0  0  0  0  0  0  0  0  0  0  0  0
   33.3050   28.8900   37.0650 N   0  0  0  0  0  0  0  0  0  0  0  0
   33.9810   25.6020   36.6220 H   0  0  0  0  0  0  0  0  0  0  0  0
   31.8050   25.7340   35.4390 H   0  0  0  0  0  0  0  0  0  0  0  0
   30.6460   29.9720   38.5350 F   0  0  0  0  0  0  0  0  0  0  0  0
   30.6690   30.6550   37.3840 C   0  0  0  0  0  0  0  0  0  0  0  0
   31.3820   30.1650   36.3100 C   0  0  0  0  0  0  0  0  0  0  0  0
   31.4050   30.8710   35.1230 C   0  0  0  0  0  0  0  0  0  0  0  0
   31.9680   30.4970   34.2570 H   0  0  0  0  0  0  0  0  0  0  0  0
   30.7450   32.0650   34.9310 C   0  0  0  0  0  0  0  0  0  0  0  0
   30.7950   32.5790   33.9830 H   0  0  0  0  0  0  0  0  0  0  0  0
   30.0200   32.5690   36.0140 C   0  0  0  0  0  3  0  0  0  0  0  0
   30.0100   31.8500   37.1910 C   0  0  0  0  0  3  0  0  0  0  0  0
   35.5470   27.5300   37.9780 S   0  0  0  0  0  0  0  0  0  0  0  0
   36.7980   30.2410   36.8220 Cl  0  0  0  0  0  0  0  0  0  0  0  0
   36.5050   30.1180   38.5520 C   0  0  0  0  0  0  0  0  0  0  0  0
   35.9710   28.9300   38.9580 C   0  0  0  0  0  0  0  0  0  0  0  0
   35.7160   28.7680   40.3190 C   0  0  0  0  0  0  0  0  0  0  0  0
   36.0120   29.8150   41.1980 C   0  0  0  0  0  0  0  0  0  0  0  0
   36.5550   31.0220   40.7830 C   0  0  0  0  0  0  0  0  0  0  0  0
   36.7960   31.1460   39.4200 C   0  0  0  0  0  0  0  0  0  0  0  0
   37.4800   32.6200   38.7650 Cl  0  0  0  0  0  0  0  0  0  0  0  0
   35.3050   27.8980   40.7610 H   0  0  0  0  0  0  0  0  0  0  0  0
   35.8190   29.7040   42.2570 H   0  0  0  0  0  0  0  0  0  0  0  0
   36.7830   31.8230   41.4520 H   0  0  0  0  0  0  0  0  0  0  0  0
  1 18  1  0  0  0  0
  2  7  1  0  0  0  0
  2  1  2  0  0  0  0
  3  2  1  0  0  0  0
  4  3  2  0  0  0  0
  4  5  1  0  0  0  0
  5  6  2  0  0  0  0
  6  1  1  0  0  0  0
  8  3  1  0  0  0  0
 10  9  1  0  0  0  0
 11  5  1  0  0  0  0
 11 10  2  0  0  0  0
 12 11  1  0  0  0  0
 13 12  1  0  0  0  0
 14 12  2  0  0  0  0
 14 16  1  0  0  0  0
 15 14  1  0  0  0  0
 16 17  2  0  0  0  0
 17 10  1  0  0  0  0
 18 21  1  0  0  0  0
 19 20  1  0  0  0  0
 20 21  2  0  0  0  0
 20 25  1  0  0  0  0
 21 22  1  0  0  0  0
 22 27  1  0  0  0  0
 22 23  2  0  0  0  0
 23 28  1  0  0  0  0
 24 23  1  0  0  0  0
 24 29  1  0  0  0  0
 25 24  2  0  0  0  0
 26 25  1  0  0  0  0
M  END
>  <minimizedAffinity>
-5.6478858

$$$$

 OpenBabel03252506493D

 29 31  0  0  0  0  0  0  0  0999 V2000
   34.5340   28.4730   36.9740 C   0  0  0  0  0  0  0  0  0  0  0  0
   35.4700   29.2300   36.2610 C   0  0  0  0  0  0  0  0  0  0  0  0
   36.7210   29.4730   36.8450 C   0  0  0  0  0  0  0  0  0  0  0  0
   36.9600   28.9550   38.0830 N   0  0  0  0  0  0  0  0  0  0  0  0
   36.0320   28.2320   38.7360 C   0  0  0  0  0  0  0  0  0  0  0  0
   34.8100   27.9730   38.2070 N   0  0  0  0  0  0  0  0  0  0  0  0
   35.2580   29.6280   35.2880 H   0  0  0  0  0  0  0  0  0  0  0  0
   37.4660   30.0460   36.3380 H   0  0  0  0  0  0  0  0  0  0  0  0
   35.6760   29.7100   41.0850 F   0  0  0  0  0  0  0  0  0  0  0  0
   36.1640   28.4690   41.1930 C   0  0  0  0  0  0  0  0  0  0  0  0
   36.3550   27.7060   40.0600 C   0  0  0  0  0  0  0  0  0  0  0  0
   36.8580   26.4250   40.1740 C   0  0  0  0  0  0  0  0  0  0  0  0
   37.0180   25.8020   39.2830 H   0  0  0  0  0  0  0  0  0  0  0  0
   37.1930   25.8390   41.3750 C   0  0  0  0  0  0  0  0  0  0  0  0
   37.5830   24.8330   41.4100 H   0  0  0  0  0  0  0  0  0  0  0  0
   37.0020   26.6040   42.5280 C   0  0  0  0  0  3  0  0  0  0  0  0
   36.4980   27.8810   42.3940 C   0  0  0  0  0  3  0  0  0  0  0  0
   32.9620   28.2140   36.1480 S   0  0  0  0  0  0  0  0  0  0  0  0
   31.3300   29.6940   38.4720 Cl  0  0  0  0  0  0  0  0  0  0  0  0
   31.3220   30.3950   36.8590 C   0  0  0  0  0  0  0  0  0  0  0  0
   32.0420   29.7000   35.9310 C   0  0  0  0  0  0  0  0  0  0  0  0
   32.0750   30.2020   34.6310 C   0  0  0  0  0  0  0  0  0  0  0  0
   31.3800   31.3800   34.3370 C   0  0  0  0  0  0  0  0  0  0  0  0
   30.6480   32.0840   35.2810 C   0  0  0  0  0  0  0  0  0  0  0  0
   30.6380   31.5530   36.5660 C   0  0  0  0  0  0  0  0  0  0  0  0
   29.7530   32.3440   37.8530 Cl  0  0  0  0  0  0  0  0  0  0  0  0
   32.5940   29.7600   33.8210 H   0  0  0  0  0  0  0  0  0  0  0  0
   31.3960   31.7820   33.3320 H   0  0  0  0  0  0  0  0  0  0  0  0
   30.1160   32.9830   35.0600 H   0  0  0  0  0  0  0  0  0  0  0  0
  1  6  1  0  0  0  0
  2  3  1  0  0  0  0
  2  1  2  0  0  0  0
  3  4  2  0  0  0  0
  4  5  1  0  0  0  0
  5 11  1  0  0  0  0
  6  5  2  0  0  0  0
  7  2  1  0  0  0  0
  8  3  1  0  0  0  0
  9 10  1  0  0  0  0
 10 17  1  0  0  0  0
 11 12  1  0  0  0  0
 11 10  2  0  0  0  0
 12 14  2  0  0  0  0
 13 12  1  0  0  0  0
 14 15  1  0  0  0  0
 14 16  1  0  0  0  0
 17 16  2  0  0  0  0
 18  1  1  0  0  0  0
 20 19  1  0  0  0  0
 21 18  1  0  0  0  0
 21 20  2  0  0  0  0
 22 21  1  0  0  0  0
 23 22  2  0  0  0  0
 23 24  1  0  0  0  0
 24 25  2  0  0  0  0
 25 20  1  0  0  0  0
 25 26  1  0  0  0  0
 27 22  1  0  0  0  0
 28 23  1  0  0  0  0
 29 24  1  0  0  0  0
M  END
>  <minimizedAffinity>
-5.60298395

$$$$

 OpenBabel03252506493D

 29 31  0  0  0  0  0  0  0  0999 V2000
   38.1110   31.4430   39.5060 C   0  0  0  0  0  0  0  0  0  0  0  0
   37.1870   32.4550   39.7890 C   0  0  0  0  0  0  0  0  0  0  0  0
   37.6510   33.7710   39.9210 C   0  0  0  0  0  0  0  0  0  0  0  0
   38.9860   33.9970   39.7630 N   0  0  0  0  0  0  0  0  0  0  0  0
   39.8430   32.9960   39.4900 C   0  0  0  0  0  0  0  0  0  0  0  0
   39.4360   31.7080   39.3550 N   0  0  0  0  0  0  0  0  0  0  0  0
   36.1400   32.2520   39.9090 H   0  0  0  0  0  0  0  0  0  0  0  0
   36.9820   34.5750   40.1360 H   0  0  0  0  0  0  0  0  0  0  0  0
   41.7230   32.5730   41.5200 F   0  0  0  0  0  0  0  0  0  0  0  0
   42.1550   33.0840   40.3600 C   0  0  0  0  0  0  0  0  0  0  0  0
   41.2610   33.3070   39.3340 C   0  0  0  0  0  0  0  0  0  0  0  0
   41.7100   33.8340   38.1380 C   0  0  0  0  0  0  0  0  0  0  0  0
   41.0120   34.0190   37.3090 H   0  0  0  0  0  0  0  0  0  0  0  0
   43.0240   34.1610   37.8920 C   0  0  0  0  0  0  0  0  0  0  0  0
   43.3240   34.5700   36.9380 H   0  0  0  0  0  0  0  0  0  0  0  0
   43.9380   33.9370   38.9260 C   0  0  0  0  0  3  0  0  0  0  0  0
   43.4710   33.4110   40.1120 C   0  0  0  0  0  3  0  0  0  0  0  0
   37.4250   29.7920   39.3560 S   0  0  0  0  0  0  0  0  0  0  0  0
   36.6990   26.6850   39.6240 Cl  0  0  0  0  0  0  0  0  0  0  0  0
   37.1980   27.5610   41.0650 C   0  0  0  0  0  0  0  0  0  0  0  0
   37.4880   28.8790   40.8600 C   0  0  0  0  0  0  0  0  0  0  0  0
   37.8900   29.6310   41.9640 C   0  0  0  0  0  0  0  0  0  0  0  0
   37.9780   29.0120   43.2150 C   0  0  0  0  0  0  0  0  0  0  0  0
   37.6820   27.6730   43.4210 C   0  0  0  0  0  0  0  0  0  0  0  0
   37.2850   26.9560   42.2980 C   0  0  0  0  0  0  0  0  0  0  0  0
   36.8830   25.2550   42.4200 Cl  0  0  0  0  0  0  0  0  0  0  0  0
   38.1420   30.6590   41.9400 H   0  0  0  0  0  0  0  0  0  0  0  0
   38.2880   29.5830   44.0810 H   0  0  0  0  0  0  0  0  0  0  0  0
   37.7480   27.1970   44.3750 H   0  0  0  0  0  0  0  0  0  0  0  0
  1  2  1  0  0  0  0
  2  7  1  0  0  0  0
  2  3  2  0  0  0  0
  3  8  1  0  0  0  0
  4  3  1  0  0  0  0
  5  4  2  0  0  0  0
  6  5  1  0  0  0  0
  6  1  2  0  0  0  0
 10  9  1  0  0  0  0
 11  5  1  0  0  0  0
 11 10  2  0  0  0  0
 12 11  1  0  0  0  0
 13 12  1  0  0  0  0
 14 12  2  0  0  0  0
 14 16  1  0  0  0  0
 15 14  1  0  0  0  0
 16 17  2  0  0  0  0
 17 10  1  0  0  0  0
 18  1  1  0  0  0  0
 18 21  1  0  0  0  0
 19 20  1  0  0  0  0
 20 25  1  0  0  0  0
 21 20  2  0  0  0  0
 21 22  1  0  0  0  0
 22 23  2  0  0  0  0
 23 24  1  0  0  0  0
 23 28  1  0  0  0  0
 24 29  1  0  0  0  0
 25 26  1  0  0  0  0
 25 24  2  0  0  0  0
 27 22  1  0  0  0  0
M  END
>  <minimizedAffinity>
-5.59748745

$$$$

 OpenBabel03252506493D

 29 31  0  0  0  0  0  0  0  0999 V2000
   37.1250   28.6640   41.6990 C   0  0  0  0  0  0  0  0  0  0  0  0
   37.5830   28.9010   42.9990 C   0  0  0  0  0  0  0  0  0  0  0  0
   38.2710   27.8770   43.6650 C   0  0  0  0  0  0  0  0  0  0  0  0
   38.4580   26.6980   43.0060 N   0  0  0  0  0  0  0  0  0  0  0  0
   38.0010   26.5110   41.7550 C   0  0  0  0  0  0  0  0  0  0  0  0
   37.3310   27.4750   41.0740 N   0  0  0  0  0  0  0  0  0  0  0  0
   37.4240   29.8380   43.4970 H   0  0  0  0  0  0  0  0  0  0  0  0
   38.6390   28.0130   44.6590 H   0  0  0  0  0  0  0  0  0  0  0  0
   36.3850   24.2700   42.2010 F   0  0  0  0  0  0  0  0  0  0  0  0
   37.4140   24.1430   41.3550 C   0  0  0  0  0  0  0  0  0  0  0  0
   38.2360   25.2230   41.1070 C   0  0  0  0  0  0  0  0  0  0  0  0
   39.2970   25.0890   40.2330 C   0  0  0  0  0  0  0  0  0  0  0  0
   39.9630   25.9390   40.0240 H   0  0  0  0  0  0  0  0  0  0  0  0
   39.6030   23.9200   39.5740 C   0  0  0  0  0  0  0  0  0  0  0  0
   40.4450   23.8670   38.9000 H   0  0  0  0  0  0  0  0  0  0  0  0
   38.7750   22.8200   39.8180 C   0  0  0  0  0  3  0  0  0  0  0  0
   37.7200   22.9720   40.6930 C   0  0  0  0  0  3  0  0  0  0  0  0
   36.2560   30.0310   40.9270 S   0  0  0  0  0  0  0  0  0  0  0  0
   37.8940   30.2510   38.1840 Cl  0  0  0  0  0  0  0  0  0  0  0  0
   36.2270   29.6920   38.1280 C   0  0  0  0  0  0  0  0  0  0  0  0
   35.6050   29.6290   39.3410 C   0  0  0  0  0  0  0  0  0  0  0  0
   34.2800   29.1950   39.3660 C   0  0  0  0  0  0  0  0  0  0  0  0
   33.6540   28.8460   38.1640 C   0  0  0  0  0  0  0  0  0  0  0  0
   34.2880   28.9120   36.9320 C   0  0  0  0  0  0  0  0  0  0  0  0
   35.6080   29.3500   36.9480 C   0  0  0  0  0  0  0  0  0  0  0  0
   36.5240   29.4770   35.4600 Cl  0  0  0  0  0  0  0  0  0  0  0  0
   33.6870   29.1010   40.2370 H   0  0  0  0  0  0  0  0  0  0  0  0
   32.6260   28.5070   38.1670 H   0  0  0  0  0  0  0  0  0  0  0  0
   33.8130   28.6470   36.0130 H   0  0  0  0  0  0  0  0  0  0  0  0
  1  2  1  0  0  0  0
  2  7  1  0  0  0  0
  2  3  2  0  0  0  0
  3  8  1  0  0  0  0
  4  3  1  0  0  0  0
  5  4  2  0  0  0  0
  6  1  2  0  0  0  0
  6  5  1  0  0  0  0
 10  9  1  0  0  0  0
 11 10  1  0  0  0  0
 11  5  1  0  0  0  0
 12 11  2  0  0  0  0
 13 12  1  0  0  0  0
 14 16  2  0  0  0  0
 14 12  1  0  0  0  0
 15 14  1  0  0  0  0
 16 17  1  0  0  0  0
 17 10  2  0  0  0  0
 18  1  1  0  0  0  0
 20 19  1  0  0  0  0
 20 21  1  0  0  0  0
 21 22  2  0  0  0  0
 21 18  1  0  0  0  0
 22 27  1  0  0  0  0
 23 28  1  0  0  0  0
 23 22  1  0  0  0  0
 24 25  1  0  0  0  0
 24 23  2  0  0  0  0
 25 20  2  0  0  0  0
 26 25  1  0  0  0  0
 29 24  1  0  0  0  0
M  END
>  <minimizedAffinity>
-5.49223948

$$$$

 OpenBabel03252506493D

 29 31  0  0  0  0  0  0  0  0999 V2000
   38.1790   30.4940   41.1500 C   0  0  0  0  0  0  0  0  0  0  0  0
   38.3740   31.8760   41.0580 C   0  0  0  0  0  0  0  0  0  0  0  0
   37.7450   32.5750   40.0180 C   0  0  0  0  0  0  0  0  0  0  0  0
   36.9720   31.8660   39.1470 N   0  0  0  0  0  0  0  0  0  0  0  0
   36.8100   30.5370   39.2700 C   0  0  0  0  0  0  0  0  0  0  0  0
   37.3990   29.8220   40.2620 N   0  0  0  0  0  0  0  0  0  0  0  0
   38.9880   32.4120   41.7560 H   0  0  0  0  0  0  0  0  0  0  0  0
   37.8660   33.6310   39.9090 H   0  0  0  0  0  0  0  0  0  0  0  0
   34.3770   29.3380   39.9600 F   0  0  0  0  0  0  0  0  0  0  0  0
   34.7740   29.2610   38.6850 C   0  0  0  0  0  0  0  0  0  0  0  0
   35.9670   29.8390   38.3020 C   0  0  0  0  0  0  0  0  0  0  0  0
   36.3750   29.7580   36.9850 C   0  0  0  0  0  0  0  0  0  0  0  0
   37.3230   30.2120   36.6620 H   0  0  0  0  0  0  0  0  0  0  0  0
   35.6550   29.1230   35.9980 C   0  0  0  0  0  0  0  0  0  0  0  0
   36.0180   29.0890   34.9820 H   0  0  0  0  0  0  0  0  0  0  0  0
   34.4440   28.5360   36.3760 C   0  0  0  0  0  3  0  0  0  0  0  0
   34.0530   28.6270   37.6960 C   0  0  0  0  0  3  0  0  0  0  0  0
   39.0220   29.6850   42.5110 S   0  0  0  0  0  0  0  0  0  0  0  0
   36.5710   27.6410   42.7770 Cl  0  0  0  0  0  0  0  0  0  0  0  0
   38.1660   27.0010   42.4010 C   0  0  0  0  0  0  0  0  0  0  0  0
   39.1500   27.9410   42.3070 C   0  0  0  0  0  0  0  0  0  0  0  0
   40.4400   27.4980   42.0110 C   0  0  0  0  0  0  0  0  0  0  0  0
   40.6650   26.1300   41.8270 C   0  0  0  0  0  0  0  0  0  0  0  0
   39.6630   25.1770   41.9230 C   0  0  0  0  0  0  0  0  0  0  0  0
   38.3920   25.6550   42.2190 C   0  0  0  0  0  0  0  0  0  0  0  0
   37.0360   24.5570   42.3690 Cl  0  0  0  0  0  0  0  0  0  0  0  0
   41.2890   28.1220   41.9110 H   0  0  0  0  0  0  0  0  0  0  0  0
   41.6610   25.7710   41.5970 H   0  0  0  0  0  0  0  0  0  0  0  0
   39.8320   24.1310   41.7840 H   0  0  0  0  0  0  0  0  0  0  0  0
  1 18  1  0  0  0  0
  2  1  1  0  0  0  0
  2  7  1  0  0  0  0
  3  2  2  0  0  0  0
  4  5  2  0  0  0  0
  4  3  1  0  0  0  0
  5  6  1  0  0  0  0
  6  1  2  0  0  0  0
  8  3  1  0  0  0  0
 10  9  1  0  0  0  0
 11 10  1  0  0  0  0
 11  5  1  0  0  0  0
 12 11  2  0  0  0  0
 13 12  1  0  0  0  0
 14 16  2  0  0  0  0
 14 12  1  0  0  0  0
 15 14  1  0  0  0  0
 16 17  1  0  0  0  0
 17 10  2  0  0  0  0
 20 19  1  0  0  0  0
 21 20  1  0  0  0  0
 21 18  1  0  0  0  0
 22 21  2  0  0  0  0
 23 24  2  0  0  0  0
 23 22  1  0  0  0  0
 24 25  1  0  0  0  0
 25 26  1  0  0  0  0
 25 20  2  0  0  0  0
 27 22  1  0  0  0  0
 28 23  1  0  0  0  0
 29 24  1  0  0  0  0
M  END
>  <minimizedAffinity>
-5.47610235

$$$$

 OpenBabel03252506493D

 29 31  0  0  0  0  0  0  0  0999 V2000
   33.9770   28.0170   37.3610 C   0  0  0  0  0  0  0  0  0  0  0  0
   33.5900   26.8170   36.7540 C   0  0  0  0  0  0  0  0  0  0  0  0
   32.4060   26.7960   36.0040 C   0  0  0  0  0  0  0  0  0  0  0  0
   31.6920   27.9530   35.9030 N   0  0  0  0  0  0  0  0  0  0  0  0
   32.0990   29.0860   36.5020 C   0  0  0  0  0  0  0  0  0  0  0  0
   33.2370   29.1510   37.2380 N   0  0  0  0  0  0  0  0  0  0  0  0
   34.1700   25.9190   36.8480 H   0  0  0  0  0  0  0  0  0  0  0  0
   32.0720   25.9020   35.5230 H   0  0  0  0  0  0  0  0  0  0  0  0
   30.4520   30.0660   38.5420 F   0  0  0  0  0  0  0  0  0  0  0  0
   30.4860   30.7390   37.3850 C   0  0  0  0  0  0  0  0  0  0  0  0
   31.2850   30.2910   36.3540 C   0  0  0  0  0  0  0  0  0  0  0  0
   31.3190   30.9870   35.1620 C   0  0  0  0  0  0  0  0  0  0  0  0
   31.9490   30.6450   34.3290 H   0  0  0  0  0  0  0  0  0  0  0  0
   30.5910   32.1310   34.9230 C   0  0  0  0  0  0  0  0  0  0  0  0
   30.6530   32.6390   33.9730 H   0  0  0  0  0  0  0  0  0  0  0  0
   29.7790   32.5940   35.9630 C   0  0  0  0  0  3  0  0  0  0  0  0
   29.7580   31.8850   37.1460 C   0  0  0  0  0  3  0  0  0  0  0  0
   35.5040   27.9490   38.3010 S   0  0  0  0  0  0  0  0  0  0  0  0
   35.9480   29.7830   40.8880 Cl  0  0  0  0  0  0  0  0  0  0  0  0
   36.6200   30.3150   39.3520 C   0  0  0  0  0  0  0  0  0  0  0  0
   36.3830   29.4740   38.3040 C   0  0  0  0  0  0  0  0  0  0  0  0
   36.8890   29.8390   37.0560 C   0  0  0  0  0  0  0  0  0  0  0  0
   37.6070   31.0330   36.9350 C   0  0  0  0  0  0  0  0  0  0  0  0
   37.8460   31.8860   38.0010 C   0  0  0  0  0  0  0  0  0  0  0  0
   37.3260   31.4890   39.2280 C   0  0  0  0  0  0  0  0  0  0  0  0
   37.5570   32.4760   40.6570 Cl  0  0  0  0  0  0  0  0  0  0  0  0
   36.7760   29.2770   36.1660 H   0  0  0  0  0  0  0  0  0  0  0  0
   38.0060   31.3300   35.9730 H   0  0  0  0  0  0  0  0  0  0  0  0
   38.3930   32.7990   37.9120 H   0  0  0  0  0  0  0  0  0  0  0  0
  1 18  1  0  0  0  0
  2  7  1  0  0  0  0
  2  1  2  0  0  0  0
  3  2  1  0  0  0  0
  4  3  2  0  0  0  0
  4  5  1  0  0  0  0
  5  6  2  0  0  0  0
  6  1  1  0  0  0  0
  8  3  1  0  0  0  0
 10  9  1  0  0  0  0
 11  5  1  0  0  0  0
 11 10  2  0  0  0  0
 12 11  1  0  0  0  0
 13 12  1  0  0  0  0
 14 12  2  0  0  0  0
 14 16  1  0  0  0  0
 15 14  1  0  0  0  0
 16 17  2  0  0  0  0
 17 10  1  0  0  0  0
 18 21  1  0  0  0  0
 20 19  1  0  0  0  0
 21 20  2  0  0  0  0
 22 21  1  0  0  0  0
 23 22  2  0  0  0  0
 23 24  1  0  0  0  0
 24 25  2  0  0  0  0
 25 20  1  0  0  0  0
 25 26  1  0  0  0  0
 27 22  1  0  0  0  0
 28 23  1  0  0  0  0
 29 24  1  0  0  0  0
M  END
>  <minimizedAffinity>
-5.47274637

$$$$
