
 OpenBabel03252509233D

 27 29  0  0  1  0  0  0  0  0999 V2000
   46.4950   34.7580   42.0150 C   0  0  1  0  0  0  0  0  0  0  0  0
   47.9650   35.2490   42.0200 C   0  0  0  0  0  0  0  0  0  0  0  0
   47.4900   33.7990   41.6950 C   0  0  2  0  0  0  0  0  0  0  0  0
   45.8590   35.2820   41.2900 H   0  0  0  0  0  0  0  0  0  0  0  0
   48.4900   35.3610   42.9630 H   0  0  0  0  0  0  0  0  0  0  0  0
   48.2170   35.8730   41.1600 H   0  0  0  0  0  0  0  0  0  0  0  0
   47.8090   33.0290   42.4430 H   0  0  0  0  0  0  0  0  0  0  0  0
   49.8190   32.6210   40.4420 F   0  0  0  0  0  0  0  0  0  0  0  0
   48.7310   32.7700   39.6680 C   0  0  0  0  0  0  0  0  0  0  0  0
   47.6530   33.3390   40.3130 C   0  0  0  0  0  0  0  0  0  0  0  0
   46.5150   33.5010   39.5140 C   0  0  0  0  0  0  0  0  0  0  0  0
   45.5960   33.9320   39.8830 H   0  0  0  0  0  0  0  0  0  0  0  0
   46.4470   33.1330   38.1870 C   0  0  0  0  0  0  0  0  0  0  0  0
   45.5840   33.2550   37.5800 H   0  0  0  0  0  0  0  0  0  0  0  0
   47.5500   32.5690   37.5890 C   0  0  0  0  0  3  0  0  0  0  0  0
   48.6830   32.3990   38.3570 C   0  0  0  0  0  3  0  0  0  0  0  0
   44.4950   35.6900   45.0580 C   0  0  0  0  0  0  0  0  0  0  0  0
   45.0360   35.7720   43.7280 C   0  0  0  0  0  0  0  0  0  0  0  0
   45.9350   34.7820   43.4320 C   0  0  0  0  0  0  0  0  0  0  0  0
   46.2920   33.7890   44.3370 N   0  0  0  0  0  0  0  0  0  0  0  0
   45.7500   33.7720   45.5600 C   0  0  0  0  0  0  0  0  0  0  0  0
   44.8480   34.7260   45.9210 N   0  0  0  0  0  0  0  0  0  0  0  0
   43.7860   36.4360   45.3450 H   0  0  0  0  0  0  0  0  0  0  0  0
   46.1350   32.9410   46.1270 H   0  0  0  0  0  0  0  0  0  0  0  0
   44.6810   36.8060   42.8200 N   0  0  0  0  0  0  0  0  0  0  0  0
   44.1770   36.5410   41.9400 H   0  0  0  0  0  0  0  0  0  0  0  0
   44.9520   37.7780   43.0960 H   0  0  0  0  0  0  0  0  0  0  0  0
  1  4  1  6  0  0  0
  1  2  1  0  0  0  0
  1 19  1  0  0  0  0
  2  5  1  0  0  0  0
  3  1  1  0  0  0  0
  3  2  1  0  0  0  0
  3  7  1  1  0  0  0
  6  2  1  0  0  0  0
  9 10  1  0  0  0  0
  9  8  1  0  0  0  0
 10  3  1  0  0  0  0
 11 12  1  0  0  0  0
 11 10  2  0  0  0  0
 13 11  1  0  0  0  0
 14 13  1  0  0  0  0
 15 13  2  0  0  0  0
 15 16  1  0  0  0  0
 16  9  2  0  0  0  0
 17 23  1  0  0  0  0
 17 22  1  0  0  0  0
 18 17  2  0  0  0  0
 19 18  1  0  0  0  0
 19 20  2  0  0  0  0
 20 21  1  0  0  0  0
 21 22  2  0  0  0  0
 21 24  1  0  0  0  0
 25 27  1  0  0  0  0
 25 18  1  0  0  0  0
 26 25  1  0  0  0  0
M  END
>  <minimizedAffinity>
-4.94681215

>  <minimizedRMSD>
0.599527121

$$$$
