
 OpenBabel03242521203D

 26 28  0  0  0  0  0  0  0  0999 V2000
   37.4500   30.5450   40.8040 C   0  0  0  0  0  0  0  0  0  0  0  0
   36.1340   30.3780   40.5200 C   0  0  0  0  0  0  0  0  0  0  0  0
   35.4430   29.2060   40.7090 C   0  0  0  0  0  0  0  0  0  0  0  0
   36.1490   28.1660   41.2140 N   0  0  0  0  0  0  0  0  0  0  0  0
   37.4510   28.3130   41.5000 C   0  0  0  0  0  0  0  0  0  0  0  0
   38.1150   29.4770   41.3060 N   0  0  0  0  0  0  0  0  0  0  0  0
   35.6420   31.2680   40.1160 H   0  0  0  0  0  0  0  0  0  0  0  0
   34.3820   29.1150   40.4660 H   0  0  0  0  0  0  0  0  0  0  0  0
   38.1260   34.0290   39.9320 C   0  0  0  0  0  0  0  0  0  0  0  0
   39.4930   34.1500   40.1960 C   0  0  0  0  0  0  0  0  0  0  0  0
   40.1810   33.0370   40.6730 C   0  0  0  0  0  0  0  0  0  0  0  0
   39.4770   31.8700   40.8600 N   0  0  0  0  0  0  0  0  0  0  0  0
   38.1550   31.8020   40.5910 C   0  0  0  0  0  0  0  0  0  0  0  0
   37.4710   32.8550   40.1320 N   0  0  0  0  0  0  0  0  0  0  0  0
   37.6620   34.9280   39.5670 H   0  0  0  0  0  0  0  0  0  0  0  0
   40.0250   35.0680   40.0440 H   0  0  0  0  0  0  0  0  0  0  0  0
   41.2440   33.0590   40.9000 H   0  0  0  0  0  0  0  0  0  0  0  0
   37.4060   25.7250   40.3230 F   0  0  0  0  0  0  0  0  0  0  0  0
   38.1600   25.9450   41.4250 C   0  0  0  0  0  0  0  0  0  0  0  0
   38.2240   27.1920   42.0480 C   0  0  0  0  0  0  0  0  0  0  0  0
   39.0280   27.3290   43.1820 C   0  0  0  0  0  0  0  0  0  0  0  0
   39.0730   28.3140   43.6670 H   0  0  0  0  0  0  0  0  0  0  0  0
   39.7490   26.2440   43.6780 C   0  0  0  0  0  0  0  0  0  0  0  0
   40.3630   26.4220   44.5740 H   0  0  0  0  0  0  0  0  0  0  0  0
   39.6820   25.0020   43.0530 C   0  0  0  0  0  3  0  0  0  0  0  0
   38.8780   24.8720   41.9210 C   0  0  0  0  0  3  0  0  0  0  0  0
  1  6  1  0  0  0  0
  2  3  1  0  0  0  0
  2  1  2  0  0  0  0
  3  4  2  0  0  0  0
  4  5  1  0  0  0  0
  5 20  1  0  0  0  0
  6  5  2  0  0  0  0
  7  2  1  0  0  0  0
  8  3  1  0  0  0  0
  9 14  2  0  0  0  0
  9 10  1  0  0  0  0
 10 11  2  0  0  0  0
 11 12  1  0  0  0  0
 11 17  1  0  0  0  0
 13  1  1  0  0  0  0
 13 12  2  0  0  0  0
 14 13  1  0  0  0  0
 15  9  1  0  0  0  0
 16 10  1  0  0  0  0
 18 19  1  0  0  0  0
 19 26  2  0  0  0  0
 19 20  1  0  0  0  0
 20 21  2  0  0  0  0
 21 22  1  0  0  0  0
 21 23  1  0  0  0  0
 23 24  1  0  0  0  0
 25 23  2  0  0  0  0
 26 25  1  0  0  0  0
M  END
>  <minimizedAffinity>
-5.39374065

$$$$

 OpenBabel03242521203D

 26 28  0  0  0  0  0  0  0  0999 V2000
   38.4900   31.2880   38.7750 C   0  0  0  0  0  0  0  0  0  0  0  0
   37.4980   31.1530   37.8590 C   0  0  0  0  0  0  0  0  0  0  0  0
   36.4310   30.3000   37.9930 C   0  0  0  0  0  0  0  0  0  0  0  0
   36.3920   29.5570   39.1250 N   0  0  0  0  0  0  0  0  0  0  0  0
   37.3650   29.6780   40.0420 C   0  0  0  0  0  0  0  0  0  0  0  0
   38.4100   30.5260   39.8910 N   0  0  0  0  0  0  0  0  0  0  0  0
   37.6080   31.7900   36.9750 H   0  0  0  0  0  0  0  0  0  0  0  0
   35.6530   30.2220   37.2300 H   0  0  0  0  0  0  0  0  0  0  0  0
   41.4540   32.9050   37.3750 C   0  0  0  0  0  0  0  0  0  0  0  0
   41.7080   33.9260   38.2960 C   0  0  0  0  0  0  0  0  0  0  0  0
   40.8620   34.0590   39.3950 C   0  0  0  0  0  0  0  0  0  0  0  0
   39.8160   33.1750   39.5180 N   0  0  0  0  0  0  0  0  0  0  0  0
   39.6110   32.2040   38.6020 C   0  0  0  0  0  0  0  0  0  0  0  0
   40.4060   32.0540   37.5390 N   0  0  0  0  0  0  0  0  0  0  0  0
   42.1470   32.8630   36.5540 H   0  0  0  0  0  0  0  0  0  0  0  0
   42.5290   34.6060   38.1820 H   0  0  0  0  0  0  0  0  0  0  0  0
   41.0000   34.8290   40.1490 H   0  0  0  0  0  0  0  0  0  0  0  0
   36.7160   26.9100   40.0310 F   0  0  0  0  0  0  0  0  0  0  0  0
   37.0060   27.5230   41.2020 C   0  0  0  0  0  0  0  0  0  0  0  0
   37.3320   28.8780   41.2720 C   0  0  0  0  0  0  0  0  0  0  0  0
   37.6160   29.4300   42.5230 C   0  0  0  0  0  0  0  0  0  0  0  0
   37.8720   30.4980   42.5710 H   0  0  0  0  0  0  0  0  0  0  0  0
   37.5750   28.6430   43.6740 C   0  0  0  0  0  0  0  0  0  0  0  0
   37.8100   29.1410   44.6270 H   0  0  0  0  0  0  0  0  0  0  0  0
   37.2490   27.2920   43.5980 C   0  0  0  0  0  3  0  0  0  0  0  0
   36.9660   26.7470   42.3450 C   0  0  0  0  0  3  0  0  0  0  0  0
  1  6  1  0  0  0  0
  2  3  1  0  0  0  0
  2  1  2  0  0  0  0
  3  4  2  0  0  0  0
  4  5  1  0  0  0  0
  5 20  1  0  0  0  0
  6  5  2  0  0  0  0
  7  2  1  0  0  0  0
  8  3  1  0  0  0  0
  9 14  2  0  0  0  0
  9 10  1  0  0  0  0
 10 11  2  0  0  0  0
 11 12  1  0  0  0  0
 11 17  1  0  0  0  0
 13  1  1  0  0  0  0
 13 12  2  0  0  0  0
 14 13  1  0  0  0  0
 15  9  1  0  0  0  0
 16 10  1  0  0  0  0
 18 19  1  0  0  0  0
 19 20  2  0  0  0  0
 19 26  1  0  0  0  0
 20 21  1  0  0  0  0
 21 22  1  0  0  0  0
 21 23  2  0  0  0  0
 23 24  1  0  0  0  0
 25 23  1  0  0  0  0
 26 25  2  0  0  0  0
M  END
>  <minimizedAffinity>
-5.23902416

$$$$

 OpenBabel03242521203D

 26 28  0  0  0  0  0  0  0  0999 V2000
   39.8820   32.6990   40.5330 C   0  0  0  0  0  0  0  0  0  0  0  0
   38.9910   33.5500   39.9680 C   0  0  0  0  0  0  0  0  0  0  0  0
   37.6420   33.3110   39.8750 C   0  0  0  0  0  0  0  0  0  0  0  0
   37.2020   32.1390   40.3900 N   0  0  0  0  0  0  0  0  0  0  0  0
   38.0690   31.2840   40.9530 C   0  0  0  0  0  0  0  0  0  0  0  0
   39.3960   31.5380   41.0350 N   0  0  0  0  0  0  0  0  0  0  0  0
   39.4310   34.4730   39.5770 H   0  0  0  0  0  0  0  0  0  0  0  0
   36.9580   34.0260   39.4100 H   0  0  0  0  0  0  0  0  0  0  0  0
   43.1770   34.1090   39.8210 C   0  0  0  0  0  0  0  0  0  0  0  0
   43.9850   33.5000   40.7850 C   0  0  0  0  0  0  0  0  0  0  0  0
   43.3990   32.6060   41.6780 C   0  0  0  0  0  0  0  0  0  0  0  0
   42.0490   32.3680   41.5650 N   0  0  0  0  0  0  0  0  0  0  0  0
   41.3090   32.9820   40.6160 C   0  0  0  0  0  0  0  0  0  0  0  0
   41.8460   33.8440   39.7470 N   0  0  0  0  0  0  0  0  0  0  0  0
   43.6980   34.7870   39.1670 H   0  0  0  0  0  0  0  0  0  0  0  0
   45.0360   33.6980   40.8570 H   0  0  0  0  0  0  0  0  0  0  0  0
   43.9650   32.0960   42.4520 H   0  0  0  0  0  0  0  0  0  0  0  0
   39.0840   30.2440   43.3970 F   0  0  0  0  0  0  0  0  0  0  0  0
   38.1390   29.5540   42.7190 C   0  0  0  0  0  0  0  0  0  0  0  0
   37.6010   30.0110   41.5150 C   0  0  0  0  0  0  0  0  0  0  0  0
   36.6300   29.2330   40.8820 C   0  0  0  0  0  0  0  0  0  0  0  0
   36.2110   29.6000   39.9340 H   0  0  0  0  0  0  0  0  0  0  0  0
   36.2080   28.0280   41.4410 C   0  0  0  0  0  0  0  0  0  0  0  0
   35.4390   27.4650   40.8900 H   0  0  0  0  0  0  0  0  0  0  0  0
   36.7470   27.5750   42.6420 C   0  0  0  0  0  3  0  0  0  0  0  0
   37.7170   28.3570   43.2700 C   0  0  0  0  0  3  0  0  0  0  0  0
  1 13  1  0  0  0  0
  1  6  1  0  0  0  0
  2  1  2  0  0  0  0
  3  2  1  0  0  0  0
  3  4  2  0  0  0  0
  4  5  1  0  0  0  0
  5  6  2  0  0  0  0
  5 20  1  0  0  0  0
  7  2  1  0  0  0  0
  8  3  1  0  0  0  0
  9 10  1  0  0  0  0
 10 16  1  0  0  0  0
 10 11  2  0  0  0  0
 11 17  1  0  0  0  0
 12 11  1  0  0  0  0
 13 12  2  0  0  0  0
 14  9  2  0  0  0  0
 14 13  1  0  0  0  0
 15  9  1  0  0  0  0
 19 26  1  0  0  0  0
 19 18  1  0  0  0  0
 20 19  2  0  0  0  0
 21 23  2  0  0  0  0
 21 20  1  0  0  0  0
 22 21  1  0  0  0  0
 23 25  1  0  0  0  0
 24 23  1  0  0  0  0
 25 26  2  0  0  0  0
M  END
>  <minimizedAffinity>
-5.2061739

$$$$

 OpenBabel03242521203D

 26 28  0  0  0  0  0  0  0  0999 V2000
   37.2340   27.1920   41.4730 C   0  0  0  0  0  0  0  0  0  0  0  0
   37.3340   27.0540   42.8190 C   0  0  0  0  0  0  0  0  0  0  0  0
   37.6680   28.0700   43.6790 C   0  0  0  0  0  0  0  0  0  0  0  0
   37.9070   29.2800   43.1180 N   0  0  0  0  0  0  0  0  0  0  0  0
   37.8130   29.4340   41.7880 C   0  0  0  0  0  0  0  0  0  0  0  0
   37.4820   28.4190   40.9570 N   0  0  0  0  0  0  0  0  0  0  0  0
   37.1250   26.0450   43.1870 H   0  0  0  0  0  0  0  0  0  0  0  0
   37.7380   27.9160   44.7590 H   0  0  0  0  0  0  0  0  0  0  0  0
   36.1910   25.3440   38.4980 C   0  0  0  0  0  0  0  0  0  0  0  0
   36.2120   24.0180   38.9380 C   0  0  0  0  0  0  0  0  0  0  0  0
   36.5840   23.7590   40.2550 C   0  0  0  0  0  0  0  0  0  0  0  0
   36.9130   24.8260   41.0580 N   0  0  0  0  0  0  0  0  0  0  0  0
   36.8780   26.0910   40.5860 C   0  0  0  0  0  0  0  0  0  0  0  0
   36.5250   26.3680   39.3270 N   0  0  0  0  0  0  0  0  0  0  0  0
   35.8940   25.4680   37.4710 H   0  0  0  0  0  0  0  0  0  0  0  0
   35.9520   23.1990   38.2970 H   0  0  0  0  0  0  0  0  0  0  0  0
   36.6240   22.7530   40.6650 H   0  0  0  0  0  0  0  0  0  0  0  0
   35.7460   30.9740   40.5880 F   0  0  0  0  0  0  0  0  0  0  0  0
   37.0130   31.4490   40.5980 C   0  0  0  0  0  0  0  0  0  0  0  0
   38.0700   30.7410   41.1710 C   0  0  0  0  0  0  0  0  0  0  0  0
   39.3470   31.3050   41.1340 C   0  0  0  0  0  0  0  0  0  0  0  0
   40.1740   30.7420   41.5880 H   0  0  0  0  0  0  0  0  0  0  0  0
   39.5580   32.5480   40.5390 C   0  0  0  0  0  0  0  0  0  0  0  0
   40.5890   32.9350   40.5460 H   0  0  0  0  0  0  0  0  0  0  0  0
   38.5010   33.2510   39.9690 C   0  0  0  0  0  3  0  0  0  0  0  0
   37.2280   32.6820   40.0080 C   0  0  0  0  0  3  0  0  0  0  0  0
  1  2  1  0  0  0  0
  2  7  1  0  0  0  0
  2  3  2  0  0  0  0
  3  8  1  0  0  0  0
  4  3  1  0  0  0  0
  5  4  2  0  0  0  0
  6  1  2  0  0  0  0
  6  5  1  0  0  0  0
  9 10  2  0  0  0  0
  9 14  1  0  0  0  0
 10 11  1  0  0  0  0
 11 17  1  0  0  0  0
 11 12  2  0  0  0  0
 13 12  1  0  0  0  0
 13  1  1  0  0  0  0
 14 13  2  0  0  0  0
 15  9  1  0  0  0  0
 16 10  1  0  0  0  0
 18 19  1  0  0  0  0
 19 20  1  0  0  0  0
 20  5  1  0  0  0  0
 21 20  2  0  0  0  0
 21 22  1  0  0  0  0
 23 24  1  0  0  0  0
 23 21  1  0  0  0  0
 25 26  1  0  0  0  0
 25 23  2  0  0  0  0
 26 19  2  0  0  0  0
M  END
>  <minimizedAffinity>
-5.12791443

$$$$

 OpenBabel03242521203D

 26 28  0  0  0  0  0  0  0  0999 V2000
   37.7420   29.1540   41.3550 C   0  0  0  0  0  0  0  0  0  0  0  0
   37.7330   29.3000   42.7030 C   0  0  0  0  0  0  0  0  0  0  0  0
   37.8870   28.2680   43.5950 C   0  0  0  0  0  0  0  0  0  0  0  0
   38.0590   27.0340   43.0650 N   0  0  0  0  0  0  0  0  0  0  0  0
   38.0710   26.8700   41.7330 C   0  0  0  0  0  0  0  0  0  0  0  0
   37.9170   27.9010   40.8690 N   0  0  0  0  0  0  0  0  0  0  0  0
   37.5890   30.3290   43.0460 H   0  0  0  0  0  0  0  0  0  0  0  0
   37.8730   28.4300   44.6760 H   0  0  0  0  0  0  0  0  0  0  0  0
   37.3840   32.5560   40.0700 C   0  0  0  0  0  0  0  0  0  0  0  0
   37.2580   32.3510   38.6930 C   0  0  0  0  0  0  0  0  0  0  0  0
   37.2960   31.0460   38.2070 C   0  0  0  0  0  0  0  0  0  0  0  0
   37.4570   30.0220   39.1110 N   0  0  0  0  0  0  0  0  0  0  0  0
   37.5740   30.2710   40.4330 C   0  0  0  0  0  0  0  0  0  0  0  0
   37.5410   31.5120   40.9260 N   0  0  0  0  0  0  0  0  0  0  0  0
   37.3460   33.5880   40.3720 H   0  0  0  0  0  0  0  0  0  0  0  0
   37.1340   33.1620   38.0030 H   0  0  0  0  0  0  0  0  0  0  0  0
   37.2050   30.8120   37.1500 H   0  0  0  0  0  0  0  0  0  0  0  0
   36.4060   24.6710   42.4200 F   0  0  0  0  0  0  0  0  0  0  0  0
   37.4060   24.4970   41.5260 C   0  0  0  0  0  0  0  0  0  0  0  0
   38.2570   25.5370   41.1480 C   0  0  0  0  0  0  0  0  0  0  0  0
   39.2650   25.2690   40.2190 C   0  0  0  0  0  0  0  0  0  0  0  0
   39.9300   26.0930   39.9270 H   0  0  0  0  0  0  0  0  0  0  0  0
   39.4150   23.9910   39.6830 C   0  0  0  0  0  0  0  0  0  0  0  0
   40.2290   23.8480   38.9560 H   0  0  0  0  0  0  0  0  0  0  0  0
   38.5650   22.9560   40.0630 C   0  0  0  0  0  3  0  0  0  0  0  0
   37.5600   23.2310   40.9910 C   0  0  0  0  0  3  0  0  0  0  0  0
  1  2  1  0  0  0  0
  2  7  1  0  0  0  0
  2  3  2  0  0  0  0
  3  8  1  0  0  0  0
  4  3  1  0  0  0  0
  5  4  2  0  0  0  0
  6  1  2  0  0  0  0
  6  5  1  0  0  0  0
  9 15  1  0  0  0  0
  9 14  1  0  0  0  0
 10  9  2  0  0  0  0
 11 10  1  0  0  0  0
 11 12  2  0  0  0  0
 12 13  1  0  0  0  0
 13 14  2  0  0  0  0
 13  1  1  0  0  0  0
 16 10  1  0  0  0  0
 17 11  1  0  0  0  0
 19 18  1  0  0  0  0
 20 19  1  0  0  0  0
 20  5  1  0  0  0  0
 21 20  2  0  0  0  0
 22 21  1  0  0  0  0
 23 25  2  0  0  0  0
 23 21  1  0  0  0  0
 24 23  1  0  0  0  0
 25 26  1  0  0  0  0
 26 19  2  0  0  0  0
M  END
>  <minimizedAffinity>
-5.116539

$$$$

 OpenBabel03242521203D

 26 28  0  0  0  0  0  0  0  0999 V2000
   38.4320   31.0430   38.4270 C   0  0  0  0  0  0  0  0  0  0  0  0
   37.5390   30.9570   37.4100 C   0  0  0  0  0  0  0  0  0  0  0  0
   36.5170   30.0420   37.3510 C   0  0  0  0  0  0  0  0  0  0  0  0
   36.4190   29.1810   38.3920 N   0  0  0  0  0  0  0  0  0  0  0  0
   37.2940   29.2510   39.4070 C   0  0  0  0  0  0  0  0  0  0  0  0
   38.2950   30.1610   39.4460 N   0  0  0  0  0  0  0  0  0  0  0  0
   37.6900   31.6900   36.6110 H   0  0  0  0  0  0  0  0  0  0  0  0
   35.8180   30.0080   36.5110 H   0  0  0  0  0  0  0  0  0  0  0  0
   41.4180   32.9380   37.5050 C   0  0  0  0  0  0  0  0  0  0  0  0
   41.5150   33.8750   38.5380 C   0  0  0  0  0  0  0  0  0  0  0  0
   40.5570   33.8570   39.5480 C   0  0  0  0  0  0  0  0  0  0  0  0
   39.5590   32.9120   39.4780 N   0  0  0  0  0  0  0  0  0  0  0  0
   39.5070   32.0270   38.4600 C   0  0  0  0  0  0  0  0  0  0  0  0
   40.4130   32.0230   37.4770 N   0  0  0  0  0  0  0  0  0  0  0  0
   42.1910   33.0130   36.7610 H   0  0  0  0  0  0  0  0  0  0  0  0
   42.3000   34.6040   38.5750 H   0  0  0  0  0  0  0  0  0  0  0  0
   40.5700   34.5550   40.3800 H   0  0  0  0  0  0  0  0  0  0  0  0
   36.7520   30.1420   42.0520 F   0  0  0  0  0  0  0  0  0  0  0  0
   36.9280   28.8220   41.8150 C   0  0  0  0  0  0  0  0  0  0  0  0
   37.1960   28.3230   40.5400 C   0  0  0  0  0  0  0  0  0  0  0  0
   37.3660   26.9450   40.3860 C   0  0  0  0  0  0  0  0  0  0  0  0
   37.5760   26.5600   39.3780 H   0  0  0  0  0  0  0  0  0  0  0  0
   37.2670   26.0900   41.4820 C   0  0  0  0  0  0  0  0  0  0  0  0
   37.4110   25.0150   41.2910 H   0  0  0  0  0  0  0  0  0  0  0  0
   37.0000   26.5920   42.7530 C   0  0  0  0  0  3  0  0  0  0  0  0
   36.8320   27.9690   42.9000 C   0  0  0  0  0  3  0  0  0  0  0  0
  1 13  1  0  0  0  0
  1  6  1  0  0  0  0
  2  1  2  0  0  0  0
  3  2  1  0  0  0  0
  3  4  2  0  0  0  0
  4  5  1  0  0  0  0
  5  6  2  0  0  0  0
  5 20  1  0  0  0  0
  7  2  1  0  0  0  0
  8  3  1  0  0  0  0
  9 10  1  0  0  0  0
 10 16  1  0  0  0  0
 10 11  2  0  0  0  0
 11 17  1  0  0  0  0
 12 11  1  0  0  0  0
 13 12  2  0  0  0  0
 14  9  2  0  0  0  0
 14 13  1  0  0  0  0
 15  9  1  0  0  0  0
 19 18  1  0  0  0  0
 19 26  1  0  0  0  0
 20 19  2  0  0  0  0
 21 20  1  0  0  0  0
 21 23  2  0  0  0  0
 22 21  1  0  0  0  0
 23 25  1  0  0  0  0
 24 23  1  0  0  0  0
 25 26  2  0  0  0  0
M  END
>  <minimizedAffinity>
-5.07836342

$$$$

 OpenBabel03242521203D

 26 28  0  0  0  0  0  0  0  0999 V2000
   36.7990   30.3410   38.6800 C   0  0  0  0  0  0  0  0  0  0  0  0
   36.9680   31.6600   38.9460 C   0  0  0  0  0  0  0  0  0  0  0  0
   37.5150   32.1520   40.1040 C   0  0  0  0  0  0  0  0  0  0  0  0
   37.9020   31.2370   41.0240 N   0  0  0  0  0  0  0  0  0  0  0  0
   37.7420   29.9280   40.7790 C   0  0  0  0  0  0  0  0  0  0  0  0
   37.2010   29.4610   39.6290 N   0  0  0  0  0  0  0  0  0  0  0  0
   36.6280   32.3290   38.1490 H   0  0  0  0  0  0  0  0  0  0  0  0
   37.6330   33.2250   40.2780 H   0  0  0  0  0  0  0  0  0  0  0  0
   36.3380   29.5750   35.1360 C   0  0  0  0  0  0  0  0  0  0  0  0
   35.1020   28.9210   35.1230 C   0  0  0  0  0  0  0  0  0  0  0  0
   34.4290   28.7440   36.3300 C   0  0  0  0  0  0  0  0  0  0  0  0
   35.0170   29.2230   37.4770 N   0  0  0  0  0  0  0  0  0  0  0  0
   36.2140   29.8480   37.4390 C   0  0  0  0  0  0  0  0  0  0  0  0
   36.8810   30.0310   36.2960 N   0  0  0  0  0  0  0  0  0  0  0  0
   36.7990   29.6750   34.1700 H   0  0  0  0  0  0  0  0  0  0  0  0
   34.6590   28.5540   34.2190 H   0  0  0  0  0  0  0  0  0  0  0  0
   33.4660   28.2450   36.3950 H   0  0  0  0  0  0  0  0  0  0  0  0
   35.8820   28.2070   42.0670 F   0  0  0  0  0  0  0  0  0  0  0  0
   37.1980   28.1130   42.3670 C   0  0  0  0  0  0  0  0  0  0  0  0
   38.1590   28.9280   41.7700 C   0  0  0  0  0  0  0  0  0  0  0  0
   39.4960   28.7640   42.1400 C   0  0  0  0  0  0  0  0  0  0  0  0
   40.2470   29.4090   41.6640 H   0  0  0  0  0  0  0  0  0  0  0  0
   39.8590   27.8050   43.0850 C   0  0  0  0  0  0  0  0  0  0  0  0
   40.9290   27.7270   43.3300 H   0  0  0  0  0  0  0  0  0  0  0  0
   38.8960   26.9930   43.6790 C   0  0  0  0  0  3  0  0  0  0  0  0
   37.5630   27.1630   43.3050 C   0  0  0  0  0  3  0  0  0  0  0  0
  1  2  2  0  0  0  0
  1  6  1  0  0  0  0
  2  3  1  0  0  0  0
  3  8  1  0  0  0  0
  3  4  2  0  0  0  0
  5  4  1  0  0  0  0
  5 20  1  0  0  0  0
  6  5  2  0  0  0  0
  7  2  1  0  0  0  0
  9 14  1  0  0  0  0
 10  9  2  0  0  0  0
 10 11  1  0  0  0  0
 11 17  1  0  0  0  0
 11 12  2  0  0  0  0
 13 12  1  0  0  0  0
 13  1  1  0  0  0  0
 14 13  2  0  0  0  0
 15  9  1  0  0  0  0
 16 10  1  0  0  0  0
 18 19  1  0  0  0  0
 19 26  1  0  0  0  0
 20 21  1  0  0  0  0
 20 19  2  0  0  0  0
 21 23  2  0  0  0  0
 22 21  1  0  0  0  0
 23 24  1  0  0  0  0
 23 25  1  0  0  0  0
 26 25  2  0  0  0  0
M  END
>  <minimizedAffinity>
-5.06437016

$$$$

 OpenBabel03242521203D

 26 28  0  0  0  0  0  0  0  0999 V2000
   37.1760   27.0710   41.5000 C   0  0  0  0  0  0  0  0  0  0  0  0
   37.2310   26.9950   42.8530 C   0  0  0  0  0  0  0  0  0  0  0  0
   37.4670   28.0650   43.6800 C   0  0  0  0  0  0  0  0  0  0  0  0
   37.6520   29.2630   43.0760 N   0  0  0  0  0  0  0  0  0  0  0  0
   37.6010   29.3570   41.7380 C   0  0  0  0  0  0  0  0  0  0  0  0
   37.3680   28.2890   40.9400 N   0  0  0  0  0  0  0  0  0  0  0  0
   37.0700   25.9900   43.2560 H   0  0  0  0  0  0  0  0  0  0  0  0
   37.5030   27.9590   44.7670 H   0  0  0  0  0  0  0  0  0  0  0  0
   36.7260   23.6140   40.4010 C   0  0  0  0  0  0  0  0  0  0  0  0
   36.4510   23.7600   39.0390 C   0  0  0  0  0  0  0  0  0  0  0  0
   36.4190   25.0440   38.4980 C   0  0  0  0  0  0  0  0  0  0  0  0
   36.6610   26.1060   39.3370 N   0  0  0  0  0  0  0  0  0  0  0  0
   36.9240   25.9150   40.6480 C   0  0  0  0  0  0  0  0  0  0  0  0
   36.9600   24.6950   41.1920 N   0  0  0  0  0  0  0  0  0  0  0  0
   36.7340   22.5960   40.7480 H   0  0  0  0  0  0  0  0  0  0  0  0
   36.2640   22.9190   38.4000 H   0  0  0  0  0  0  0  0  0  0  0  0
   36.2100   25.2320   37.4490 H   0  0  0  0  0  0  0  0  0  0  0  0
   40.0230   30.8260   41.9840 F   0  0  0  0  0  0  0  0  0  0  0  0
   39.0130   31.3240   41.2340 C   0  0  0  0  0  0  0  0  0  0  0  0
   37.8010   30.6510   41.0750 C   0  0  0  0  0  0  0  0  0  0  0  0
   36.8120   31.2390   40.2830 C   0  0  0  0  0  0  0  0  0  0  0  0
   35.8610   30.7020   40.1620 H   0  0  0  0  0  0  0  0  0  0  0  0
   37.0330   32.4700   39.6670 C   0  0  0  0  0  0  0  0  0  0  0  0
   36.2120   32.8760   39.0570 H   0  0  0  0  0  0  0  0  0  0  0  0
   38.2430   33.1380   39.8290 C   0  0  0  0  0  3  0  0  0  0  0  0
   39.2270   32.5450   40.6210 C   0  0  0  0  0  3  0  0  0  0  0  0
  1  2  1  0  0  0  0
  2  7  1  0  0  0  0
  2  3  2  0  0  0  0
  3  8  1  0  0  0  0
  4  3  1  0  0  0  0
  5  4  2  0  0  0  0
  6  1  2  0  0  0  0
  6  5  1  0  0  0  0
  9 15  1  0  0  0  0
  9 14  1  0  0  0  0
 10  9  2  0  0  0  0
 11 10  1  0  0  0  0
 11 12  2  0  0  0  0
 12 13  1  0  0  0  0
 13 14  2  0  0  0  0
 13  1  1  0  0  0  0
 16 10  1  0  0  0  0
 17 11  1  0  0  0  0
 19 18  1  0  0  0  0
 20 19  1  0  0  0  0
 20  5  1  0  0  0  0
 21 20  2  0  0  0  0
 22 21  1  0  0  0  0
 23 25  2  0  0  0  0
 23 21  1  0  0  0  0
 24 23  1  0  0  0  0
 25 26  1  0  0  0  0
 26 19  2  0  0  0  0
M  END
>  <minimizedAffinity>
-4.9922142

$$$$

 OpenBabel03242521203D

 26 28  0  0  0  0  0  0  0  0999 V2000
   36.9950   27.9450   41.1610 C   0  0  0  0  0  0  0  0  0  0  0  0
   37.1120   29.1180   41.8310 C   0  0  0  0  0  0  0  0  0  0  0  0
   36.5650   30.3060   41.4140 C   0  0  0  0  0  0  0  0  0  0  0  0
   35.8690   30.2740   40.2530 N   0  0  0  0  0  0  0  0  0  0  0  0
   35.7430   29.1220   39.5760 C   0  0  0  0  0  0  0  0  0  0  0  0
   36.2900   27.9600   40.0040 N   0  0  0  0  0  0  0  0  0  0  0  0
   37.6900   29.0540   42.7590 H   0  0  0  0  0  0  0  0  0  0  0  0
   36.6840   31.2300   41.9860 H   0  0  0  0  0  0  0  0  0  0  0  0
   39.2430   25.5940   42.8270 C   0  0  0  0  0  0  0  0  0  0  0  0
   38.6860   24.3550   42.5000 C   0  0  0  0  0  0  0  0  0  0  0  0
   37.5400   24.3270   41.7090 C   0  0  0  0  0  0  0  0  0  0  0  0
   37.0130   25.5250   41.2890 N   0  0  0  0  0  0  0  0  0  0  0  0
   37.5880   26.6990   41.6310 C   0  0  0  0  0  0  0  0  0  0  0  0
   38.6870   26.7550   42.3880 N   0  0  0  0  0  0  0  0  0  0  0  0
   40.1260   25.5390   43.4400 H   0  0  0  0  0  0  0  0  0  0  0  0
   39.1120   23.4310   42.8380 H   0  0  0  0  0  0  0  0  0  0  0  0
   37.0530   23.4000   41.4170 H   0  0  0  0  0  0  0  0  0  0  0  0
   32.9040   29.2540   39.5050 F   0  0  0  0  0  0  0  0  0  0  0  0
   33.5970   29.1460   38.3470 C   0  0  0  0  0  0  0  0  0  0  0  0
   34.9900   29.0770   38.3170 C   0  0  0  0  0  0  0  0  0  0  0  0
   35.6240   28.9650   37.0780 C   0  0  0  0  0  0  0  0  0  0  0  0
   36.7220   28.9120   37.0620 H   0  0  0  0  0  0  0  0  0  0  0  0
   34.8800   28.9230   35.8990 C   0  0  0  0  0  0  0  0  0  0  0  0
   35.4430   28.8350   34.9570 H   0  0  0  0  0  0  0  0  0  0  0  0
   33.4900   28.9920   35.9350 C   0  0  0  0  0  3  0  0  0  0  0  0
   32.8630   29.1040   37.1760 C   0  0  0  0  0  3  0  0  0  0  0  0
  1 13  1  0  0  0  0
  1  2  1  0  0  0  0
  2  7  1  0  0  0  0
  3  2  2  0  0  0  0
  3  8  1  0  0  0  0
  4  3  1  0  0  0  0
  5  6  1  0  0  0  0
  5  4  2  0  0  0  0
  6  1  2  0  0  0  0
  9 15  1  0  0  0  0
 10  9  1  0  0  0  0
 10 16  1  0  0  0  0
 11 10  2  0  0  0  0
 12 13  2  0  0  0  0
 12 11  1  0  0  0  0
 13 14  1  0  0  0  0
 14  9  2  0  0  0  0
 17 11  1  0  0  0  0
 19 18  1  0  0  0  0
 20 19  1  0  0  0  0
 20  5  1  0  0  0  0
 21 20  2  0  0  0  0
 22 21  1  0  0  0  0
 23 25  2  0  0  0  0
 23 21  1  0  0  0  0
 24 23  1  0  0  0  0
 25 26  1  0  0  0  0
 26 19  2  0  0  0  0
M  END
>  <minimizedAffinity>
-4.93314552

$$$$
