
 OpenBabel03242522243D

 28 30  0  0  0  0  0  0  0  0999 V2000
   37.9080   32.2570   40.3030 C   0  0  0  0  0  0  0  0  0  0  0  0
   37.1700   31.7540   39.2210 C   0  0  0  0  0  0  0  0  0  0  0  0
   37.0140   30.3730   39.0410 C   0  0  0  0  0  0  0  0  0  0  0  0
   37.6020   29.5650   39.9470 N   0  0  0  0  0  0  0  0  0  0  0  0
   38.3110   30.0590   40.9840 C   0  0  0  0  0  0  0  0  0  0  0  0
   38.4630   31.3810   41.1610 N   0  0  0  0  0  0  0  0  0  0  0  0
   38.0300   33.3140   40.4450 H   0  0  0  0  0  0  0  0  0  0  0  0
   36.7080   32.4100   38.5110 H   0  0  0  0  0  0  0  0  0  0  0  0
   34.4350   29.2470   39.8610 Cl  0  0  0  0  0  0  0  0  0  0  0  0
   35.0150   29.2800   38.1940 C   0  0  0  0  0  0  0  0  0  0  0  0
   36.2460   29.8320   37.9180 C   0  0  0  0  0  0  0  0  0  0  0  0
   36.6630   29.8360   36.6000 C   0  0  0  0  0  0  0  0  0  0  0  0
   35.8820   29.3070   35.5970 C   0  0  0  0  0  0  0  0  0  0  0  0
   34.6500   28.7620   35.9330 C   0  0  0  0  0  0  0  0  0  0  0  0
   33.6500   28.0900   34.6700 Cl  0  0  0  0  0  0  0  0  0  0  0  0
   34.1880   28.7340   37.2290 C   0  0  0  0  0  0  0  0  0  0  0  0
   37.6310   30.2710   36.3910 H   0  0  0  0  0  0  0  0  0  0  0  0
   36.2410   29.3260   34.5680 H   0  0  0  0  0  0  0  0  0  0  0  0
   33.2230   28.3010   37.4460 H   0  0  0  0  0  0  0  0  0  0  0  0
   36.7690   28.2910   42.5700 F   0  0  0  0  0  0  0  0  0  0  0  0
   38.1180   28.2550   42.6680 C   0  0  0  0  0  0  0  0  0  0  0  0
   38.9100   29.1040   41.9100 C   0  0  0  0  0  0  0  0  0  0  0  0
   40.2890   29.0590   42.0200 C   0  0  0  0  0  0  0  0  0  0  0  0
   40.9360   29.7040   41.4450 H   0  0  0  0  0  0  0  0  0  0  0  0
   40.7950   28.1330   42.9140 C   0  0  0  0  0  0  0  0  0  0  0  0
   41.8650   28.0830   43.0130 H   0  0  0  0  0  0  0  0  0  0  0  0
   40.0240   27.2770   43.6800 C   0  0  0  0  0  3  0  0  0  0  0  0
   38.6530   27.3410   43.5520 C   0  0  0  0  0  3  0  0  0  0  0  0
  1  7  1  0  0  0  0
  1  6  1  0  0  0  0
  2  1  2  0  0  0  0
  3  2  1  0  0  0  0
  3  4  2  0  0  0  0
  4  5  1  0  0  0  0
  5  6  2  0  0  0  0
  5 22  1  0  0  0  0
  8  2  1  0  0  0  0
 10  9  1  0  0  0  0
 11 10  1  0  0  0  0
 11  3  1  0  0  0  0
 12 11  2  0  0  0  0
 13 14  2  0  0  0  0
 13 12  1  0  0  0  0
 14 16  1  0  0  0  0
 15 14  1  0  0  0  0
 16 19  1  0  0  0  0
 16 10  2  0  0  0  0
 17 12  1  0  0  0  0
 18 13  1  0  0  0  0
 20 21  1  0  0  0  0
 21 28  1  0  0  0  0
 22 23  1  0  0  0  0
 22 21  2  0  0  0  0
 23 25  2  0  0  0  0
 24 23  1  0  0  0  0
 25 26  1  0  0  0  0
 25 27  1  0  0  0  0
 28 27  2  0  0  0  0
M  END
>  <minimizedAffinity>
-5.56000328

$$$$

 OpenBabel03242522243D

 28 30  0  0  0  0  0  0  0  0999 V2000
   39.0650   26.9340   43.6800 C   0  0  0  0  0  0  0  0  0  0  0  0
   38.8240   28.2020   43.1310 C   0  0  0  0  0  0  0  0  0  0  0  0
   38.4650   28.3420   41.7830 C   0  0  0  0  0  0  0  0  0  0  0  0
   38.3650   27.2120   41.0530 N   0  0  0  0  0  0  0  0  0  0  0  0
   38.5990   25.9970   41.5910 C   0  0  0  0  0  0  0  0  0  0  0  0
   38.9430   25.8570   42.8820 N   0  0  0  0  0  0  0  0  0  0  0  0
   39.3400   26.8220   44.7120 H   0  0  0  0  0  0  0  0  0  0  0  0
   38.9070   29.0900   43.7250 H   0  0  0  0  0  0  0  0  0  0  0  0
   35.6390   28.7720   41.1340 Cl  0  0  0  0  0  0  0  0  0  0  0  0
   36.9110   29.9630   40.8540 C   0  0  0  0  0  0  0  0  0  0  0  0
   38.2100   29.6580   41.1940 C   0  0  0  0  0  0  0  0  0  0  0  0
   39.1750   30.6180   40.9550 C   0  0  0  0  0  0  0  0  0  0  0  0
   38.8570   31.8360   40.3980 C   0  0  0  0  0  0  0  0  0  0  0  0
   37.5300   32.0900   40.0730 C   0  0  0  0  0  0  0  0  0  0  0  0
   37.1130   33.6300   39.3660 Cl  0  0  0  0  0  0  0  0  0  0  0  0
   36.5310   31.1690   40.2910 C   0  0  0  0  0  0  0  0  0  0  0  0
   40.1930   30.3710   41.2260 H   0  0  0  0  0  0  0  0  0  0  0  0
   39.6410   32.5710   40.2220 H   0  0  0  0  0  0  0  0  0  0  0  0
   35.5120   31.4080   40.0240 H   0  0  0  0  0  0  0  0  0  0  0  0
   36.3620   24.2630   41.6840 F   0  0  0  0  0  0  0  0  0  0  0  0
   37.3530   24.0100   40.7980 C   0  0  0  0  0  0  0  0  0  0  0  0
   38.4660   24.8340   40.7200 C   0  0  0  0  0  0  0  0  0  0  0  0
   39.4740   24.5650   39.8110 C   0  0  0  0  0  0  0  0  0  0  0  0
   40.3530   25.1850   39.7220 H   0  0  0  0  0  0  0  0  0  0  0  0
   39.2880   23.4500   39.0140 C   0  0  0  0  0  0  0  0  0  0  0  0
   40.0610   23.2240   38.3000 H   0  0  0  0  0  0  0  0  0  0  0  0
   38.1870   22.6150   39.0740 C   0  0  0  0  0  3  0  0  0  0  0  0
   37.1970   22.9040   39.9890 C   0  0  0  0  0  3  0  0  0  0  0  0
  1  7  1  0  0  0  0
  2  1  1  0  0  0  0
  2  8  1  0  0  0  0
  3  2  2  0  0  0  0
  4  5  2  0  0  0  0
  4  3  1  0  0  0  0
  5  6  1  0  0  0  0
  6  1  2  0  0  0  0
 10  9  1  0  0  0  0
 10 11  1  0  0  0  0
 11  3  1  0  0  0  0
 12 11  2  0  0  0  0
 12 17  1  0  0  0  0
 13 12  1  0  0  0  0
 14 16  1  0  0  0  0
 14 13  2  0  0  0  0
 15 14  1  0  0  0  0
 16 10  2  0  0  0  0
 18 13  1  0  0  0  0
 19 16  1  0  0  0  0
 21 20  1  0  0  0  0
 22 21  1  0  0  0  0
 22  5  1  0  0  0  0
 23 22  2  0  0  0  0
 24 23  1  0  0  0  0
 25 27  2  0  0  0  0
 25 23  1  0  0  0  0
 26 25  1  0  0  0  0
 27 28  1  0  0  0  0
 28 21  2  0  0  0  0
M  END
>  <minimizedAffinity>
-5.51010656

$$$$

 OpenBabel03242522243D

 28 30  0  0  0  0  0  0  0  0999 V2000
   37.4070   32.8850   39.8750 C   0  0  0  0  0  0  0  0  0  0  0  0
   38.6560   32.8730   39.2360 C   0  0  0  0  0  0  0  0  0  0  0  0
   39.5270   31.7860   39.3900 C   0  0  0  0  0  0  0  0  0  0  0  0
   39.1110   30.7700   40.1730 N   0  0  0  0  0  0  0  0  0  0  0  0
   37.9080   30.7930   40.7840 C   0  0  0  0  0  0  0  0  0  0  0  0
   37.0690   31.8310   40.6400 N   0  0  0  0  0  0  0  0  0  0  0  0
   36.7360   33.7160   39.7590 H   0  0  0  0  0  0  0  0  0  0  0  0
   38.9710   33.6880   38.6160 H   0  0  0  0  0  0  0  0  0  0  0  0
   41.7050   32.6910   41.1300 Cl  0  0  0  0  0  0  0  0  0  0  0  0
   41.9280   32.1610   39.4620 C   0  0  0  0  0  0  0  0  0  0  0  0
   40.8340   31.7570   38.7290 C   0  0  0  0  0  0  0  0  0  0  0  0
   41.0520   31.3510   37.4260 C   0  0  0  0  0  0  0  0  0  0  0  0
   42.3140   31.3500   36.8750 C   0  0  0  0  0  0  0  0  0  0  0  0
   43.3810   31.7690   37.6590 C   0  0  0  0  0  0  0  0  0  0  0  0
   44.9850   31.7720   36.9720 Cl  0  0  0  0  0  0  0  0  0  0  0  0
   43.2180   32.1820   38.9620 C   0  0  0  0  0  0  0  0  0  0  0  0
   40.1880   31.0350   36.8580 H   0  0  0  0  0  0  0  0  0  0  0  0
   42.4520   31.0250   35.8440 H   0  0  0  0  0  0  0  0  0  0  0  0
   44.0750   32.4990   39.5360 H   0  0  0  0  0  0  0  0  0  0  0  0
   39.0660   30.3140   43.3240 F   0  0  0  0  0  0  0  0  0  0  0  0
   38.1380   29.4490   42.8510 C   0  0  0  0  0  0  0  0  0  0  0  0
   37.5470   29.6470   41.6120 C   0  0  0  0  0  0  0  0  0  0  0  0
   36.6010   28.7550   41.1370 C   0  0  0  0  0  0  0  0  0  0  0  0
   36.1200   28.8780   40.1780 H   0  0  0  0  0  0  0  0  0  0  0  0
   36.3020   27.6910   41.9680 C   0  0  0  0  0  0  0  0  0  0  0  0
   35.5680   26.9870   41.6170 H   0  0  0  0  0  0  0  0  0  0  0  0
   36.8790   27.4740   43.2070 C   0  0  0  0  0  3  0  0  0  0  0  0
   37.8190   28.3760   43.6570 C   0  0  0  0  0  3  0  0  0  0  0  0
  1  6  1  0  0  0  0
  2  3  1  0  0  0  0
  2  1  2  0  0  0  0
  3  4  2  0  0  0  0
  4  5  1  0  0  0  0
  5 22  1  0  0  0  0
  6  5  2  0  0  0  0
  7  1  1  0  0  0  0
  8  2  1  0  0  0  0
 10  9  1  0  0  0  0
 11  3  1  0  0  0  0
 11 10  2  0  0  0  0
 12 11  1  0  0  0  0
 13 12  2  0  0  0  0
 13 14  1  0  0  0  0
 14 16  2  0  0  0  0
 15 14  1  0  0  0  0
 16 10  1  0  0  0  0
 16 19  1  0  0  0  0
 17 12  1  0  0  0  0
 18 13  1  0  0  0  0
 21 20  1  0  0  0  0
 21 28  1  0  0  0  0
 22 21  2  0  0  0  0
 23 22  1  0  0  0  0
 23 25  2  0  0  0  0
 24 23  1  0  0  0  0
 25 27  1  0  0  0  0
 26 25  1  0  0  0  0
 27 28  2  0  0  0  0
M  END
>  <minimizedAffinity>
-5.46136141

$$$$

 OpenBabel03242522243D

 28 30  0  0  0  0  0  0  0  0999 V2000
   35.8440   30.5730   40.9900 C   0  0  0  0  0  0  0  0  0  0  0  0
   36.9760   31.1860   40.4350 C   0  0  0  0  0  0  0  0  0  0  0  0
   38.0620   30.4180   39.9930 C   0  0  0  0  0  0  0  0  0  0  0  0
   37.9640   29.0800   40.1280 N   0  0  0  0  0  0  0  0  0  0  0  0
   36.8690   28.5000   40.6640 C   0  0  0  0  0  0  0  0  0  0  0  0
   35.8260   29.2300   41.0890 N   0  0  0  0  0  0  0  0  0  0  0  0
   35.0090   31.1570   41.3300 H   0  0  0  0  0  0  0  0  0  0  0  0
   37.0380   32.2510   40.3340 H   0  0  0  0  0  0  0  0  0  0  0  0
   37.7370   31.0620   37.1520 Cl  0  0  0  0  0  0  0  0  0  0  0  0
   39.2030   31.3880   38.0790 C   0  0  0  0  0  0  0  0  0  0  0  0
   39.2520   31.0430   39.4110 C   0  0  0  0  0  0  0  0  0  0  0  0
   40.4190   31.3140   40.0990 C   0  0  0  0  0  0  0  0  0  0  0  0
   41.4980   31.9060   39.4810 C   0  0  0  0  0  0  0  0  0  0  0  0
   41.3940   32.2320   38.1340 C   0  0  0  0  0  0  0  0  0  0  0  0
   42.7530   32.9830   37.3390 Cl  0  0  0  0  0  0  0  0  0  0  0  0
   40.2540   31.9840   37.4050 C   0  0  0  0  0  0  0  0  0  0  0  0
   40.4490   31.0400   41.1450 H   0  0  0  0  0  0  0  0  0  0  0  0
   42.4040   32.1050   40.0510 H   0  0  0  0  0  0  0  0  0  0  0  0
   40.2150   32.2540   36.3590 H   0  0  0  0  0  0  0  0  0  0  0  0
   37.4390   27.1320   43.0770 F   0  0  0  0  0  0  0  0  0  0  0  0
   37.1420   26.4140   41.9700 C   0  0  0  0  0  0  0  0  0  0  0  0
   36.8570   27.0440   40.7680 C   0  0  0  0  0  0  0  0  0  0  0  0
   36.5550   26.3000   39.6410 C   0  0  0  0  0  0  0  0  0  0  0  0
   36.3280   26.7570   38.6890 H   0  0  0  0  0  0  0  0  0  0  0  0
   36.5600   24.9260   39.8040 C   0  0  0  0  0  0  0  0  0  0  0  0
   36.3270   24.3300   38.9390 H   0  0  0  0  0  0  0  0  0  0  0  0
   36.8400   24.2760   40.9920 C   0  0  0  0  0  3  0  0  0  0  0  0
   37.1380   25.0410   42.1000 C   0  0  0  0  0  3  0  0  0  0  0  0
  1  6  1  0  0  0  0
  1  7  1  0  0  0  0
  2  1  2  0  0  0  0
  3  4  2  0  0  0  0
  3  2  1  0  0  0  0
  4  5  1  0  0  0  0
  5 22  1  0  0  0  0
  5  6  2  0  0  0  0
  8  2  1  0  0  0  0
  9 10  1  0  0  0  0
 10 11  1  0  0  0  0
 11  3  1  0  0  0  0
 11 12  2  0  0  0  0
 12 17  1  0  0  0  0
 13 18  1  0  0  0  0
 13 12  1  0  0  0  0
 14 13  2  0  0  0  0
 15 14  1  0  0  0  0
 16 10  2  0  0  0  0
 16 14  1  0  0  0  0
 19 16  1  0  0  0  0
 21 28  1  0  0  0  0
 21 20  1  0  0  0  0
 22 21  2  0  0  0  0
 23 25  2  0  0  0  0
 23 22  1  0  0  0  0
 24 23  1  0  0  0  0
 25 27  1  0  0  0  0
 26 25  1  0  0  0  0
 27 28  2  0  0  0  0
M  END
>  <minimizedAffinity>
-5.42021656

$$$$

 OpenBabel03242522243D

 28 30  0  0  0  0  0  0  0  0999 V2000
   36.1950   29.9310   41.2760 C   0  0  0  0  0  0  0  0  0  0  0  0
   37.0690   30.8290   40.6460 C   0  0  0  0  0  0  0  0  0  0  0  0
   38.4370   30.5400   40.5380 C   0  0  0  0  0  0  0  0  0  0  0  0
   38.8620   29.3720   41.0630 N   0  0  0  0  0  0  0  0  0  0  0  0
   38.0120   28.5160   41.6680 C   0  0  0  0  0  0  0  0  0  0  0  0
   36.7010   28.7870   41.7740 N   0  0  0  0  0  0  0  0  0  0  0  0
   35.1470   30.1480   41.3610 H   0  0  0  0  0  0  0  0  0  0  0  0
   36.7150   31.7510   40.2330 H   0  0  0  0  0  0  0  0  0  0  0  0
   38.7620   29.9940   37.6760 Cl  0  0  0  0  0  0  0  0  0  0  0  0
   39.5850   31.2980   38.5340 C   0  0  0  0  0  0  0  0  0  0  0  0
   39.3630   31.4660   39.8830 C   0  0  0  0  0  0  0  0  0  0  0  0
   40.0290   32.4970   40.5160 C   0  0  0  0  0  0  0  0  0  0  0  0
   40.8860   33.3290   39.8310 C   0  0  0  0  0  0  0  0  0  0  0  0
   41.0730   33.1130   38.4710 C   0  0  0  0  0  0  0  0  0  0  0  0
   42.1560   34.1610   37.5910 Cl  0  0  0  0  0  0  0  0  0  0  0  0
   40.4340   32.1010   37.7940 C   0  0  0  0  0  0  0  0  0  0  0  0
   39.8490   32.6230   41.5760 H   0  0  0  0  0  0  0  0  0  0  0  0
   41.3960   34.1330   40.3600 H   0  0  0  0  0  0  0  0  0  0  0  0
   40.6080   31.9680   36.7360 H   0  0  0  0  0  0  0  0  0  0  0  0
   37.2350   25.9570   40.7360 F   0  0  0  0  0  0  0  0  0  0  0  0
   38.1600   26.0450   41.7200 C   0  0  0  0  0  0  0  0  0  0  0  0
   38.5670   27.2780   42.2050 C   0  0  0  0  0  0  0  0  0  0  0  0
   39.5130   27.3560   43.2130 C   0  0  0  0  0  0  0  0  0  0  0  0
   39.8540   28.2990   43.6140 H   0  0  0  0  0  0  0  0  0  0  0  0
   40.0010   26.1490   43.6800 C   0  0  0  0  0  0  0  0  0  0  0  0
   40.7380   26.1890   44.4630 H   0  0  0  0  0  0  0  0  0  0  0  0
   39.6090   24.9080   43.2110 C   0  0  0  0  0  3  0  0  0  0  0  0
   38.6660   24.8580   42.2070 C   0  0  0  0  0  3  0  0  0  0  0  0
  1  7  1  0  0  0  0
  1  6  1  0  0  0  0
  2  1  2  0  0  0  0
  3  2  1  0  0  0  0
  3  4  2  0  0  0  0
  4  5  1  0  0  0  0
  5  6  2  0  0  0  0
  5 22  1  0  0  0  0
  8  2  1  0  0  0  0
  9 10  1  0  0  0  0
 10 11  1  0  0  0  0
 11 12  2  0  0  0  0
 11  3  1  0  0  0  0
 12 17  1  0  0  0  0
 13 18  1  0  0  0  0
 13 12  1  0  0  0  0
 14 13  2  0  0  0  0
 15 14  1  0  0  0  0
 16 14  1  0  0  0  0
 16 10  2  0  0  0  0
 19 16  1  0  0  0  0
 20 21  1  0  0  0  0
 21 22  2  0  0  0  0
 21 28  1  0  0  0  0
 22 23  1  0  0  0  0
 23 24  1  0  0  0  0
 23 25  2  0  0  0  0
 25 26  1  0  0  0  0
 27 25  1  0  0  0  0
 28 27  2  0  0  0  0
M  END
>  <minimizedAffinity>
-5.37416887

$$$$

 OpenBabel03242522243D

 28 30  0  0  0  0  0  0  0  0999 V2000
   36.5960   31.4970   40.6750 C   0  0  0  0  0  0  0  0  0  0  0  0
   36.9200   30.2670   41.2640 C   0  0  0  0  0  0  0  0  0  0  0  0
   38.2120   29.7360   41.1490 C   0  0  0  0  0  0  0  0  0  0  0  0
   39.1130   30.4590   40.4520 N   0  0  0  0  0  0  0  0  0  0  0  0
   38.7910   31.6420   39.8890 C   0  0  0  0  0  0  0  0  0  0  0  0
   37.5550   32.1550   39.9970 N   0  0  0  0  0  0  0  0  0  0  0  0
   35.6070   31.9080   40.7610 H   0  0  0  0  0  0  0  0  0  0  0  0
   36.1920   29.7060   41.8150 H   0  0  0  0  0  0  0  0  0  0  0  0
   37.9490   27.4830   39.2940 Cl  0  0  0  0  0  0  0  0  0  0  0  0
   38.4810   27.3270   40.9690 C   0  0  0  0  0  0  0  0  0  0  0  0
   38.5670   28.4530   41.7580 C   0  0  0  0  0  0  0  0  0  0  0  0
   38.9860   28.2860   43.0650 C   0  0  0  0  0  0  0  0  0  0  0  0
   39.3040   27.0440   43.5660 C   0  0  0  0  0  0  0  0  0  0  0  0
   39.1970   25.9430   42.7250 C   0  0  0  0  0  0  0  0  0  0  0  0
   39.5980   24.3630   43.3480 Cl  0  0  0  0  0  0  0  0  0  0  0  0
   38.7860   26.0550   41.4170 C   0  0  0  0  0  0  0  0  0  0  0  0
   39.0510   29.1760   43.6780 H   0  0  0  0  0  0  0  0  0  0  0  0
   39.6300   26.9470   44.6010 H   0  0  0  0  0  0  0  0  0  0  0  0
   38.7170   25.1720   40.7990 H   0  0  0  0  0  0  0  0  0  0  0  0
   40.0940   33.9390   40.9110 F   0  0  0  0  0  0  0  0  0  0  0  0
   40.4480   33.4710   39.6920 C   0  0  0  0  0  0  0  0  0  0  0  0
   39.8350   32.3490   39.1550 C   0  0  0  0  0  0  0  0  0  0  0  0
   40.2050   31.8790   37.9070 C   0  0  0  0  0  0  0  0  0  0  0  0
   39.7490   31.0090   37.4580 H   0  0  0  0  0  0  0  0  0  0  0  0
   41.1990   32.5920   37.2630 C   0  0  0  0  0  0  0  0  0  0  0  0
   41.5010   32.2420   36.2900 H   0  0  0  0  0  0  0  0  0  0  0  0
   41.8250   33.7120   37.7790 C   0  0  0  0  0  3  0  0  0  0  0  0
   41.4380   34.1600   39.0240 C   0  0  0  0  0  3  0  0  0  0  0  0
  1  7  1  0  0  0  0
  1  2  1  0  0  0  0
  2  8  1  0  0  0  0
  3  2  2  0  0  0  0
  3 11  1  0  0  0  0
  4  3  1  0  0  0  0
  5  6  1  0  0  0  0
  5  4  2  0  0  0  0
  6  1  2  0  0  0  0
  9 10  1  0  0  0  0
 10 16  2  0  0  0  0
 10 11  1  0  0  0  0
 11 12  2  0  0  0  0
 12 13  1  0  0  0  0
 12 17  1  0  0  0  0
 13 18  1  0  0  0  0
 14 15  1  0  0  0  0
 14 13  2  0  0  0  0
 16 14  1  0  0  0  0
 19 16  1  0  0  0  0
 21 20  1  0  0  0  0
 22 21  1  0  0  0  0
 22  5  1  0  0  0  0
 23 22  2  0  0  0  0
 24 23  1  0  0  0  0
 25 27  2  0  0  0  0
 25 23  1  0  0  0  0
 26 25  1  0  0  0  0
 27 28  1  0  0  0  0
 28 21  2  0  0  0  0
M  END
>  <minimizedAffinity>
-5.34796

$$$$

 OpenBabel03242522243D

 28 30  0  0  0  0  0  0  0  0999 V2000
   37.3440   28.0840   43.6800 C   0  0  0  0  0  0  0  0  0  0  0  0
   37.3610   26.9590   42.8420 C   0  0  0  0  0  0  0  0  0  0  0  0
   37.6120   27.0930   41.4690 C   0  0  0  0  0  0  0  0  0  0  0  0
   37.8320   28.3400   41.0030 N   0  0  0  0  0  0  0  0  0  0  0  0
   37.8130   29.4150   41.8190 C   0  0  0  0  0  0  0  0  0  0  0  0
   37.5730   29.2930   43.1340 N   0  0  0  0  0  0  0  0  0  0  0  0
   37.1520   27.9860   44.7320 H   0  0  0  0  0  0  0  0  0  0  0  0
   37.1850   25.9760   43.2280 H   0  0  0  0  0  0  0  0  0  0  0  0
   40.2460   25.8140   41.3330 Cl  0  0  0  0  0  0  0  0  0  0  0  0
   38.8260   25.2530   40.4470 C   0  0  0  0  0  0  0  0  0  0  0  0
   37.6350   25.9300   40.5800 C   0  0  0  0  0  0  0  0  0  0  0  0
   36.5490   25.4590   39.8670 C   0  0  0  0  0  0  0  0  0  0  0  0
   36.6480   24.3550   39.0500 C   0  0  0  0  0  0  0  0  0  0  0  0
   37.8750   23.7110   38.9520 C   0  0  0  0  0  0  0  0  0  0  0  0
   38.0140   22.3100   37.9210 Cl  0  0  0  0  0  0  0  0  0  0  0  0
   38.9860   24.1390   39.6410 C   0  0  0  0  0  0  0  0  0  0  0  0
   35.6160   25.9960   39.9780 H   0  0  0  0  0  0  0  0  0  0  0  0
   35.7730   24.0090   38.5010 H   0  0  0  0  0  0  0  0  0  0  0  0
   39.9210   23.6090   39.5360 H   0  0  0  0  0  0  0  0  0  0  0  0
   35.8100   30.8820   40.4560 F   0  0  0  0  0  0  0  0  0  0  0  0
   37.0520   31.4080   40.5620 C   0  0  0  0  0  0  0  0  0  0  0  0
   38.0620   30.7230   41.2210 C   0  0  0  0  0  0  0  0  0  0  0  0
   39.3290   31.2700   41.3220 C   0  0  0  0  0  0  0  0  0  0  0  0
   40.1380   30.7650   41.8280 H   0  0  0  0  0  0  0  0  0  0  0  0
   39.5010   32.5100   40.7360 C   0  0  0  0  0  0  0  0  0  0  0  0
   40.4800   32.9530   40.8040 H   0  0  0  0  0  0  0  0  0  0  0  0
   38.5090   33.2120   40.0750 C   0  0  0  0  0  3  0  0  0  0  0  0
   37.2560   32.6450   39.9870 C   0  0  0  0  0  3  0  0  0  0  0  0
  1  7  1  0  0  0  0
  2  8  1  0  0  0  0
  2  1  2  0  0  0  0
  3  2  1  0  0  0  0
  4  3  2  0  0  0  0
  4  5  1  0  0  0  0
  5  6  2  0  0  0  0
  6  1  1  0  0  0  0
 10 11  1  0  0  0  0
 10  9  1  0  0  0  0
 11  3  1  0  0  0  0
 12 17  1  0  0  0  0
 12 11  2  0  0  0  0
 13 12  1  0  0  0  0
 14 13  2  0  0  0  0
 14 16  1  0  0  0  0
 15 14  1  0  0  0  0
 16 10  2  0  0  0  0
 18 13  1  0  0  0  0
 19 16  1  0  0  0  0
 20 21  1  0  0  0  0
 21 22  1  0  0  0  0
 22 23  2  0  0  0  0
 22  5  1  0  0  0  0
 23 24  1  0  0  0  0
 25 26  1  0  0  0  0
 25 23  1  0  0  0  0
 27 25  2  0  0  0  0
 28 27  1  0  0  0  0
 28 21  2  0  0  0  0
M  END
>  <minimizedAffinity>
-5.29894304

$$$$

 OpenBabel03242522243D

 28 30  0  0  0  0  0  0  0  0999 V2000
   37.2470   32.7190   39.9520 C   0  0  0  0  0  0  0  0  0  0  0  0
   36.9530   31.4040   40.3410 C   0  0  0  0  0  0  0  0  0  0  0  0
   37.9260   30.3980   40.2590 C   0  0  0  0  0  0  0  0  0  0  0  0
   39.1410   30.7550   39.7930 N   0  0  0  0  0  0  0  0  0  0  0  0
   39.4130   32.0230   39.4210 C   0  0  0  0  0  0  0  0  0  0  0  0
   38.4850   32.9910   39.4980 N   0  0  0  0  0  0  0  0  0  0  0  0
   36.5040   33.4920   40.0140 H   0  0  0  0  0  0  0  0  0  0  0  0
   35.9830   31.1370   40.7100 H   0  0  0  0  0  0  0  0  0  0  0  0
   38.8080   29.7980   42.9890 Cl  0  0  0  0  0  0  0  0  0  0  0  0
   38.0080   28.6350   41.9300 C   0  0  0  0  0  0  0  0  0  0  0  0
   37.6360   29.0200   40.6610 C   0  0  0  0  0  0  0  0  0  0  0  0
   37.0140   28.0780   39.8640 C   0  0  0  0  0  0  0  0  0  0  0  0
   36.7740   26.7990   40.3140 C   0  0  0  0  0  0  0  0  0  0  0  0
   37.1720   26.4650   41.6030 C   0  0  0  0  0  0  0  0  0  0  0  0
   36.8730   24.8480   42.1860 Cl  0  0  0  0  0  0  0  0  0  0  0  0
   37.7930   27.3660   42.4370 C   0  0  0  0  0  0  0  0  0  0  0  0
   36.7250   28.3890   38.8690 H   0  0  0  0  0  0  0  0  0  0  0  0
   36.2830   26.0810   39.6600 H   0  0  0  0  0  0  0  0  0  0  0  0
   38.0860   27.0640   43.4310 H   0  0  0  0  0  0  0  0  0  0  0  0
   41.6050   32.5050   41.1490 F   0  0  0  0  0  0  0  0  0  0  0  0
   41.8030   32.5410   39.8110 C   0  0  0  0  0  0  0  0  0  0  0  0
   40.7560   32.3110   38.9300 C   0  0  0  0  0  0  0  0  0  0  0  0
   40.9700   32.3510   37.5630 C   0  0  0  0  0  0  0  0  0  0  0  0
   40.1800   32.1760   36.8490 H   0  0  0  0  0  0  0  0  0  0  0  0
   42.2640   32.6280   37.1610 C   0  0  0  0  0  0  0  0  0  0  0  0
   42.4510   32.6630   36.1020 H   0  0  0  0  0  0  0  0  0  0  0  0
   43.3220   32.8600   38.0210 C   0  0  0  0  0  3  0  0  0  0  0  0
   43.0830   32.8140   39.3780 C   0  0  0  0  0  3  0  0  0  0  0  0
  1  7  1  0  0  0  0
  1  2  1  0  0  0  0
  2  8  1  0  0  0  0
  3  2  2  0  0  0  0
  3 11  1  0  0  0  0
  4  3  1  0  0  0  0
  5  6  1  0  0  0  0
  5  4  2  0  0  0  0
  6  1  2  0  0  0  0
 10 16  1  0  0  0  0
 10  9  1  0  0  0  0
 11 10  2  0  0  0  0
 12 13  2  0  0  0  0
 12 11  1  0  0  0  0
 13 14  1  0  0  0  0
 14 15  1  0  0  0  0
 14 16  2  0  0  0  0
 16 19  1  0  0  0  0
 17 12  1  0  0  0  0
 18 13  1  0  0  0  0
 21 20  1  0  0  0  0
 22  5  1  0  0  0  0
 22 21  2  0  0  0  0
 23 22  1  0  0  0  0
 24 23  1  0  0  0  0
 25 23  2  0  0  0  0
 25 27  1  0  0  0  0
 26 25  1  0  0  0  0
 27 28  2  0  0  0  0
 28 21  1  0  0  0  0
M  END
>  <minimizedAffinity>
-5.25424767

$$$$

 OpenBabel03242522243D

 28 30  0  0  0  0  0  0  0  0999 V2000
   34.6230   26.8260   37.1140 C   0  0  0  0  0  0  0  0  0  0  0  0
   35.0300   28.1380   37.3960 C   0  0  0  0  0  0  0  0  0  0  0  0
   36.0860   28.3840   38.2860 C   0  0  0  0  0  0  0  0  0  0  0  0
   36.6790   27.3110   38.8470 N   0  0  0  0  0  0  0  0  0  0  0  0
   36.2790   26.0530   38.5680 C   0  0  0  0  0  0  0  0  0  0  0  0
   35.2690   25.8110   37.7170 N   0  0  0  0  0  0  0  0  0  0  0  0
   33.8150   26.6330   36.4330 H   0  0  0  0  0  0  0  0  0  0  0  0
   34.5490   28.9800   36.9410 H   0  0  0  0  0  0  0  0  0  0  0  0
   35.5450   29.1600   41.0600 Cl  0  0  0  0  0  0  0  0  0  0  0  0
   36.3180   30.2110   39.8720 C   0  0  0  0  0  0  0  0  0  0  0  0
   36.5240   29.7480   38.5920 C   0  0  0  0  0  0  0  0  0  0  0  0
   37.1310   30.6040   37.6920 C   0  0  0  0  0  0  0  0  0  0  0  0
   37.5170   31.8740   38.0560 C   0  0  0  0  0  0  0  0  0  0  0  0
   37.2830   32.2900   39.3610 C   0  0  0  0  0  0  0  0  0  0  0  0
   37.7680   33.8980   39.8350 Cl  0  0  0  0  0  0  0  0  0  0  0  0
   36.6840   31.4760   40.2950 C   0  0  0  0  0  0  0  0  0  0  0  0
   37.2890   30.2320   36.6890 H   0  0  0  0  0  0  0  0  0  0  0  0
   37.9920   32.5240   37.3230 H   0  0  0  0  0  0  0  0  0  0  0  0
   36.5220   31.8400   41.2990 H   0  0  0  0  0  0  0  0  0  0  0  0
   36.6350   25.9270   41.3750 F   0  0  0  0  0  0  0  0  0  0  0  0
   37.1350   24.9330   40.6040 C   0  0  0  0  0  0  0  0  0  0  0  0
   36.9830   24.9570   39.2260 C   0  0  0  0  0  0  0  0  0  0  0  0
   37.5000   23.9360   38.4470 C   0  0  0  0  0  0  0  0  0  0  0  0
   37.3990   23.9210   37.3720 H   0  0  0  0  0  0  0  0  0  0  0  0
   38.1550   22.9270   39.1300 C   0  0  0  0  0  0  0  0  0  0  0  0
   38.5640   22.1240   38.5420 H   0  0  0  0  0  0  0  0  0  0  0  0
   38.3180   22.8830   40.5030 C   0  0  0  0  0  3  0  0  0  0  0  0
   37.7940   23.9120   41.2560 C   0  0  0  0  0  3  0  0  0  0  0  0
  1  2  2  0  0  0  0
  1  6  1  0  0  0  0
  2  3  1  0  0  0  0
  3 11  1  0  0  0  0
  3  4  2  0  0  0  0
  5  4  1  0  0  0  0
  5 22  1  0  0  0  0
  6  5  2  0  0  0  0
  7  1  1  0  0  0  0
  8  2  1  0  0  0  0
 10 16  1  0  0  0  0
 10  9  1  0  0  0  0
 11 10  2  0  0  0  0
 12 13  2  0  0  0  0
 12 11  1  0  0  0  0
 13 14  1  0  0  0  0
 14 15  1  0  0  0  0
 14 16  2  0  0  0  0
 16 19  1  0  0  0  0
 17 12  1  0  0  0  0
 18 13  1  0  0  0  0
 21 28  1  0  0  0  0
 21 20  1  0  0  0  0
 22 21  2  0  0  0  0
 23 25  2  0  0  0  0
 23 22  1  0  0  0  0
 24 23  1  0  0  0  0
 25 27  1  0  0  0  0
 26 25  1  0  0  0  0
 27 28  2  0  0  0  0
M  END
>  <minimizedAffinity>
-5.23956251

$$$$
