
 OpenBabel03252503303D

 37 39  0  0  1  0  0  0  0  0999 V2000
   36.4890   29.2440   36.4940 C   0  0  0  0  0  0  0  0  0  0  0  0
   36.8150   30.1290   35.4200 C   0  0  0  0  0  0  0  0  0  0  0  0
   35.8640   30.2090   34.3960 C   0  0  0  0  0  0  0  0  0  0  0  0
   34.7480   29.4750   34.4930 N   0  0  0  0  0  0  0  0  0  0  0  0
   34.4830   28.6490   35.5320 C   0  0  0  0  0  0  0  0  0  0  0  0
   35.3680   28.5380   36.5400 N   0  0  0  0  0  0  0  0  0  0  0  0
   37.3560   30.2070   38.4580 C   0  0  0  0  0  0  0  0  0  0  0  0
   36.5940   31.1520   38.1750 O   0  0  0  0  0  0  0  0  0  0  0  0
   37.3840   29.0820   37.5940 N   0  0  0  0  0  0  0  0  0  0  0  0
   38.1530   30.3180   39.6340 N   0  0  0  0  0  0  0  0  0  0  0  0
   38.3170   31.6020   40.2650 C   0  0  0  0  0  0  0  0  0  0  0  0
   39.6680   31.4840   40.9100 C   0  0  0  0  0  0  0  0  0  0  0  0
   40.1540   30.0710   40.6730 C   0  0  0  0  0  0  0  0  0  0  0  0
   38.8960   29.3290   40.3560 C   0  0  1  0  0  0  0  0  0  0  0  0
   37.7600   30.6370   35.5160 H   0  0  0  0  0  0  0  0  0  0  0  0
   33.5570   28.0860   35.5380 H   0  0  0  0  0  0  0  0  0  0  0  0
   38.0150   28.2990   37.8350 H   0  0  0  0  0  0  0  0  0  0  0  0
   38.4510   32.3980   39.4700 H   0  0  0  0  0  0  0  0  0  0  0  0
   37.5070   31.9550   40.8830 H   0  0  0  0  0  0  0  0  0  0  0  0
   39.5400   31.6980   41.9880 H   0  0  0  0  0  0  0  0  0  0  0  0
   40.4180   32.2080   40.5370 H   0  0  0  0  0  0  0  0  0  0  0  0
   40.8570   30.0840   39.8220 H   0  0  0  0  0  0  0  0  0  0  0  0
   40.6510   29.6760   41.5780 H   0  0  0  0  0  0  0  0  0  0  0  0
   39.2040   28.5830   39.5580 H   0  0  0  0  0  0  0  0  0  0  0  0
   38.0130   26.7710   39.9070 F   0  0  0  0  0  0  0  0  0  0  0  0
   37.8000   27.2930   41.1590 C   0  0  0  0  0  0  0  0  0  0  0  0
   38.2470   28.6020   41.4070 C   0  0  0  0  0  0  0  0  0  0  0  0
   37.9710   29.0040   42.6970 C   0  0  0  0  0  0  0  0  0  0  0  0
   38.2790   29.9940   42.9740 H   0  0  0  0  0  0  0  0  0  0  0  0
   37.3420   28.2690   43.6780 C   0  0  0  0  0  0  0  0  0  0  0  0
   37.1770   28.6870   44.6640 H   0  0  0  0  0  0  0  0  0  0  0  0
   36.9330   26.9920   43.3560 C   0  0  0  0  0  3  0  0  0  0  0  0
   37.1660   26.5030   42.0880 C   0  0  0  0  0  3  0  0  0  0  0  0
   36.2220   31.1220   33.3100 C   0  0  0  0  0  0  0  0  0  0  0  0
   37.2760   31.9280   33.7330 F   0  0  0  0  0  0  0  0  0  0  0  0
   35.1470   31.9840   33.1250 F   0  0  0  0  0  0  0  0  0  0  0  0
   36.6210   30.4870   32.1570 F   0  0  0  0  0  0  0  0  0  0  0  0
  1  6  1  0  0  0  0
  1  9  1  0  0  0  0
  2 15  1  0  0  0  0
  2  1  2  0  0  0  0
  3  4  2  0  0  0  0
  3  2  1  0  0  0  0
  4  5  1  0  0  0  0
  5 16  1  0  0  0  0
  5  6  2  0  0  0  0
  7 10  1  0  0  0  0
  8  7  2  0  0  0  0
  9 17  1  0  0  0  0
  9  7  1  0  0  0  0
 10 11  1  0  0  0  0
 10 14  1  0  0  0  0
 11 19  1  0  0  0  0
 11 12  1  0  0  0  0
 12 20  1  0  0  0  0
 13 12  1  0  0  0  0
 13 23  1  0  0  0  0
 14 24  1  6  0  0  0
 14 13  1  0  0  0  0
 14 27  1  0  0  0  0
 18 11  1  0  0  0  0
 21 12  1  0  0  0  0
 22 13  1  0  0  0  0
 25 26  1  0  0  0  0
 26 27  2  0  0  0  0
 26 33  1  0  0  0  0
 27 28  1  0  0  0  0
 28 29  1  0  0  0  0
 28 30  2  0  0  0  0
 30 31  1  0  0  0  0
 32 30  1  0  0  0  0
 33 32  2  0  0  0  0
 34 35  1  0  0  0  0
 34  3  1  0  0  0  0
 36 34  1  0  0  0  0
 37 34  1  0  0  0  0
M  END
>  <minimizedAffinity>
-5.90018654

$$$$

 OpenBabel03252503303D

 37 39  0  0  1  0  0  0  0  0999 V2000
   36.8220   28.6310   36.0690 C   0  0  0  0  0  0  0  0  0  0  0  0
   36.8030   29.8980   35.4070 C   0  0  0  0  0  0  0  0  0  0  0  0
   36.2240   29.9030   34.1330 C   0  0  0  0  0  0  0  0  0  0  0  0
   35.7420   28.7550   33.6380 N   0  0  0  0  0  0  0  0  0  0  0  0
   35.7830   27.5770   34.3040 C   0  0  0  0  0  0  0  0  0  0  0  0
   36.3300   27.5230   35.5320 N   0  0  0  0  0  0  0  0  0  0  0  0
   36.5350   29.0570   38.3650 C   0  0  0  0  0  0  0  0  0  0  0  0
   35.4510   29.5560   38.0030 O   0  0  0  0  0  0  0  0  0  0  0  0
   37.3870   28.5060   37.3740 N   0  0  0  0  0  0  0  0  0  0  0  0
   36.8490   29.0740   39.7550 N   0  0  0  0  0  0  0  0  0  0  0  0
   36.1080   29.9310   40.6430 C   0  0  0  0  0  0  0  0  0  0  0  0
   37.1060   30.2290   41.7250 C   0  0  0  0  0  0  0  0  0  0  0  0
   38.3510   29.4260   41.4180 C   0  0  0  0  0  0  0  0  0  0  0  0
   37.8490   28.3630   40.4950 C   0  0  1  0  0  0  0  0  0  0  0  0
   37.2390   30.7120   35.9620 H   0  0  0  0  0  0  0  0  0  0  0  0
   35.3720   26.6900   33.8370 H   0  0  0  0  0  0  0  0  0  0  0  0
   38.2830   28.0900   37.6790 H   0  0  0  0  0  0  0  0  0  0  0  0
   35.9280   30.9300   40.1390 H   0  0  0  0  0  0  0  0  0  0  0  0
   35.1330   29.5930   40.9550 H   0  0  0  0  0  0  0  0  0  0  0  0
   36.6510   29.9280   42.6870 H   0  0  0  0  0  0  0  0  0  0  0  0
   37.3640   31.3010   41.8260 H   0  0  0  0  0  0  0  0  0  0  0  0
   39.0820   30.0940   40.9280 H   0  0  0  0  0  0  0  0  0  0  0  0
   38.7760   29.0030   42.3450 H   0  0  0  0  0  0  0  0  0  0  0  0
   38.6920   28.2200   39.7480 H   0  0  0  0  0  0  0  0  0  0  0  0
   38.2410   26.1010   38.9940 F   0  0  0  0  0  0  0  0  0  0  0  0
   37.7330   25.9300   40.2590 C   0  0  0  0  0  0  0  0  0  0  0  0
   37.5280   27.0790   41.0420 C   0  0  0  0  0  0  0  0  0  0  0  0
   37.0150   26.7690   42.2840 C   0  0  0  0  0  0  0  0  0  0  0  0
   36.8260   27.5890   42.9500 H   0  0  0  0  0  0  0  0  0  0  0  0
   36.7190   25.5140   42.7690 C   0  0  0  0  0  0  0  0  0  0  0  0
   36.3180   25.3860   43.7680 H   0  0  0  0  0  0  0  0  0  0  0  0
   36.9500   24.4370   41.9400 C   0  0  0  0  0  3  0  0  0  0  0  0
   37.4610   24.6500   40.6770 C   0  0  0  0  0  3  0  0  0  0  0  0
   36.2170   31.2120   33.4770 C   0  0  0  0  0  0  0  0  0  0  0  0
   34.9140   31.7020   33.4760 F   0  0  0  0  0  0  0  0  0  0  0  0
   36.5370   31.0040   32.1410 F   0  0  0  0  0  0  0  0  0  0  0  0
   37.0130   32.1480   34.0940 F   0  0  0  0  0  0  0  0  0  0  0  0
  1  9  1  0  0  0  0
  2 15  1  0  0  0  0
  2  1  2  0  0  0  0
  3  2  1  0  0  0  0
  4  3  2  0  0  0  0
  4  5  1  0  0  0  0
  5  6  2  0  0  0  0
  6  1  1  0  0  0  0
  7 10  1  0  0  0  0
  8  7  2  0  0  0  0
  9 17  1  0  0  0  0
  9  7  1  0  0  0  0
 10 14  1  0  0  0  0
 10 11  1  0  0  0  0
 11 19  1  0  0  0  0
 11 12  1  0  0  0  0
 12 21  1  0  0  0  0
 12 20  1  0  0  0  0
 13 12  1  0  0  0  0
 13 23  1  0  0  0  0
 14 24  1  6  0  0  0
 14 27  1  0  0  0  0
 14 13  1  0  0  0  0
 16  5  1  0  0  0  0
 18 11  1  0  0  0  0
 22 13  1  0  0  0  0
 25 26  1  0  0  0  0
 26 33  2  0  0  0  0
 26 27  1  0  0  0  0
 27 28  2  0  0  0  0
 28 30  1  0  0  0  0
 28 29  1  0  0  0  0
 30 31  1  0  0  0  0
 32 30  2  0  0  0  0
 33 32  1  0  0  0  0
 34 37  1  0  0  0  0
 34  3  1  0  0  0  0
 35 34  1  0  0  0  0
 36 34  1  0  0  0  0
M  END
>  <minimizedAffinity>
-5.73252487

$$$$

 OpenBabel03252503303D

 37 39  0  0  1  0  0  0  0  0999 V2000
   39.3480   27.1740   40.4970 C   0  0  0  0  0  0  0  0  0  0  0  0
   38.1860   26.3460   40.5780 C   0  0  0  0  0  0  0  0  0  0  0  0
   38.3420   25.1600   41.3060 C   0  0  0  0  0  0  0  0  0  0  0  0
   39.5320   24.8950   41.8610 N   0  0  0  0  0  0  0  0  0  0  0  0
   40.6050   25.7130   41.7560 C   0  0  0  0  0  0  0  0  0  0  0  0
   40.5040   26.8630   41.0660 N   0  0  0  0  0  0  0  0  0  0  0  0
   38.5950   29.4040   40.5000 C   0  0  0  0  0  0  0  0  0  0  0  0
   38.1180   29.1040   41.6120 O   0  0  0  0  0  0  0  0  0  0  0  0
   39.3060   28.4090   39.7810 N   0  0  0  0  0  0  0  0  0  0  0  0
   38.3940   30.7310   40.0200 N   0  0  0  0  0  0  0  0  0  0  0  0
   37.3980   31.5670   40.6360 C   0  0  0  0  0  0  0  0  0  0  0  0
   36.9820   32.4710   39.5120 C   0  0  0  0  0  0  0  0  0  0  0  0
   37.8580   32.1380   38.3240 C   0  0  0  0  0  0  0  0  0  0  0  0
   39.0240   31.4420   38.9480 C   0  0  1  0  0  0  0  0  0  0  0  0
   37.3160   26.7240   40.0670 H   0  0  0  0  0  0  0  0  0  0  0  0
   41.5360   25.4290   42.2330 H   0  0  0  0  0  0  0  0  0  0  0  0
   39.7030   28.6630   38.8610 H   0  0  0  0  0  0  0  0  0  0  0  0
   36.4740   30.9510   40.8620 H   0  0  0  0  0  0  0  0  0  0  0  0
   37.6590   32.0370   41.5720 H   0  0  0  0  0  0  0  0  0  0  0  0
   37.1310   33.5140   39.8520 H   0  0  0  0  0  0  0  0  0  0  0  0
   35.9150   32.3880   39.2280 H   0  0  0  0  0  0  0  0  0  0  0  0
   37.2890   31.4760   37.6480 H   0  0  0  0  0  0  0  0  0  0  0  0
   38.1610   33.0600   37.7960 H   0  0  0  0  0  0  0  0  0  0  0  0
   39.2970   30.6300   38.2040 H   0  0  0  0  0  0  0  0  0  0  0  0
   40.6360   32.2490   36.8810 F   0  0  0  0  0  0  0  0  0  0  0  0
   41.0240   32.6050   38.1490 C   0  0  0  0  0  0  0  0  0  0  0  0
   40.2090   32.2010   39.2200 C   0  0  0  0  0  0  0  0  0  0  0  0
   40.7100   32.6200   40.4350 C   0  0  0  0  0  0  0  0  0  0  0  0
   40.1490   32.3540   41.3100 H   0  0  0  0  0  0  0  0  0  0  0  0
   41.8590   33.3500   40.6500 C   0  0  0  0  0  0  0  0  0  0  0  0
   42.1590   33.6280   41.6530 H   0  0  0  0  0  0  0  0  0  0  0  0
   42.6040   33.7100   39.5460 C   0  0  0  0  0  3  0  0  0  0  0  0
   42.1810   33.3340   38.2890 C   0  0  0  0  0  3  0  0  0  0  0  0
   37.1380   24.3300   41.3740 C   0  0  0  0  0  0  0  0  0  0  0  0
   36.2610   24.7340   40.3700 F   0  0  0  0  0  0  0  0  0  0  0  0
   36.4980   24.6310   42.5700 F   0  0  0  0  0  0  0  0  0  0  0  0
   37.3770   22.9870   41.2010 F   0  0  0  0  0  0  0  0  0  0  0  0
  1  2  2  0  0  0  0
  1  6  1  0  0  0  0
  2  3  1  0  0  0  0
  3 34  1  0  0  0  0
  3  4  2  0  0  0  0
  5  4  1  0  0  0  0
  5 16  1  0  0  0  0
  6  5  2  0  0  0  0
  7  8  2  0  0  0  0
  9  1  1  0  0  0  0
  9  7  1  0  0  0  0
 10  7  1  0  0  0  0
 10 11  1  0  0  0  0
 11 18  1  0  0  0  0
 11 19  1  0  0  0  0
 12 20  1  0  0  0  0
 12 11  1  0  0  0  0
 13 14  1  0  0  0  0
 13 12  1  0  0  0  0
 14 24  1  6  0  0  0
 14 27  1  0  0  0  0
 14 10  1  0  0  0  0
 15  2  1  0  0  0  0
 17  9  1  0  0  0  0
 21 12  1  0  0  0  0
 22 13  1  0  0  0  0
 23 13  1  0  0  0  0
 25 26  1  0  0  0  0
 26 33  2  0  0  0  0
 26 27  1  0  0  0  0
 27 28  2  0  0  0  0
 28 30  1  0  0  0  0
 28 29  1  0  0  0  0
 30 31  1  0  0  0  0
 32 30  2  0  0  0  0
 33 32  1  0  0  0  0
 34 36  1  0  0  0  0
 35 34  1  0  0  0  0
 37 34  1  0  0  0  0
M  END
>  <minimizedAffinity>
-5.71353674

$$$$

 OpenBabel03252503303D

 37 39  0  0  1  0  0  0  0  0999 V2000
   38.7280   29.8460   39.5300 C   0  0  0  0  0  0  0  0  0  0  0  0
   39.3940   30.9780   40.0940 C   0  0  0  0  0  0  0  0  0  0  0  0
   38.9300   32.2260   39.6610 C   0  0  0  0  0  0  0  0  0  0  0  0
   37.9250   32.2700   38.7760 N   0  0  0  0  0  0  0  0  0  0  0  0
   37.3260   31.1680   38.2690 C   0  0  0  0  0  0  0  0  0  0  0  0
   37.7370   29.9460   38.6550 N   0  0  0  0  0  0  0  0  0  0  0  0
   38.6630   28.1910   41.2010 C   0  0  0  0  0  0  0  0  0  0  0  0
   38.0120   29.0450   41.8360 O   0  0  0  0  0  0  0  0  0  0  0  0
   39.1160   28.5220   39.8980 N   0  0  0  0  0  0  0  0  0  0  0  0
   38.9100   26.9350   41.8270 N   0  0  0  0  0  0  0  0  0  0  0  0
   38.7150   26.7950   43.2460 C   0  0  0  0  0  0  0  0  0  0  0  0
   39.6970   25.7200   43.6110 C   0  0  0  0  0  0  0  0  0  0  0  0
   40.3380   25.2450   42.3260 C   0  0  0  0  0  0  0  0  0  0  0  0
   39.3700   25.6930   41.2790 C   0  0  1  0  0  0  0  0  0  0  0  0
   40.1810   30.7460   40.7910 H   0  0  0  0  0  0  0  0  0  0  0  0
   36.5180   31.2850   37.5560 H   0  0  0  0  0  0  0  0  0  0  0  0
   39.6510   27.8100   39.3740 H   0  0  0  0  0  0  0  0  0  0  0  0
   39.0990   27.7220   43.7730 H   0  0  0  0  0  0  0  0  0  0  0  0
   37.7020   26.6720   43.5950 H   0  0  0  0  0  0  0  0  0  0  0  0
   39.1330   24.9110   44.1120 H   0  0  0  0  0  0  0  0  0  0  0  0
   40.4800   26.0390   44.3270 H   0  0  0  0  0  0  0  0  0  0  0  0
   41.3210   25.7380   42.2250 H   0  0  0  0  0  0  0  0  0  0  0  0
   40.4570   24.1460   42.3360 H   0  0  0  0  0  0  0  0  0  0  0  0
   40.0250   26.0060   40.4070 H   0  0  0  0  0  0  0  0  0  0  0  0
   40.1180   23.8120   39.4300 F   0  0  0  0  0  0  0  0  0  0  0  0
   38.8080   23.7960   39.8400 C   0  0  0  0  0  0  0  0  0  0  0  0
   38.4080   24.7520   40.7880 C   0  0  0  0  0  0  0  0  0  0  0  0
   37.0730   24.6270   41.1130 C   0  0  0  0  0  0  0  0  0  0  0  0
   36.6810   25.3200   41.8320 H   0  0  0  0  0  0  0  0  0  0  0  0
   36.1810   23.7030   40.6130 C   0  0  0  0  0  0  0  0  0  0  0  0
   35.1480   23.6960   40.9410 H   0  0  0  0  0  0  0  0  0  0  0  0
   36.6520   22.7970   39.6860 C   0  0  0  0  0  3  0  0  0  0  0  0
   37.9750   22.8460   39.2990 C   0  0  0  0  0  3  0  0  0  0  0  0
   39.6280   33.3680   40.2540 C   0  0  0  0  0  0  0  0  0  0  0  0
   38.7010   34.1510   40.9370 F   0  0  0  0  0  0  0  0  0  0  0  0
   40.0840   34.1600   39.2070 F   0  0  0  0  0  0  0  0  0  0  0  0
   40.6130   33.0170   41.1470 F   0  0  0  0  0  0  0  0  0  0  0  0
  1  9  1  0  0  0  0
  1  2  1  0  0  0  0
  2 15  1  0  0  0  0
  3  2  2  0  0  0  0
  3 34  1  0  0  0  0
  4  3  1  0  0  0  0
  5  6  1  0  0  0  0
  5  4  2  0  0  0  0
  6  1  2  0  0  0  0
  7 10  1  0  0  0  0
  7  8  2  0  0  0  0
  9  7  1  0  0  0  0
 10 11  1  0  0  0  0
 11 19  1  0  0  0  0
 11 12  1  0  0  0  0
 11 18  1  0  0  0  0
 12 20  1  0  0  0  0
 12 21  1  0  0  0  0
 13 23  1  0  0  0  0
 13 12  1  0  0  0  0
 14 24  1  6  0  0  0
 14 10  1  0  0  0  0
 14 13  1  0  0  0  0
 16  5  1  0  0  0  0
 17  9  1  0  0  0  0
 22 13  1  0  0  0  0
 25 26  1  0  0  0  0
 26 27  1  0  0  0  0
 27 28  2  0  0  0  0
 27 14  1  0  0  0  0
 28 29  1  0  0  0  0
 30 31  1  0  0  0  0
 30 28  1  0  0  0  0
 32 30  2  0  0  0  0
 33 32  1  0  0  0  0
 33 26  2  0  0  0  0
 34 35  1  0  0  0  0
 34 37  1  0  0  0  0
 36 34  1  0  0  0  0
M  END
>  <minimizedAffinity>
-5.70521832

$$$$

 OpenBabel03252503303D

 37 39  0  0  1  0  0  0  0  0999 V2000
   40.7790   30.3120   39.5710 C   0  0  0  0  0  0  0  0  0  0  0  0
   40.8300   31.6990   39.2300 C   0  0  0  0  0  0  0  0  0  0  0  0
   42.0300   32.1330   38.6560 C   0  0  0  0  0  0  0  0  0  0  0  0
   43.0170   31.2460   38.4710 N   0  0  0  0  0  0  0  0  0  0  0  0
   42.9210   29.9390   38.8120 C   0  0  0  0  0  0  0  0  0  0  0  0
   41.7870   29.4750   39.3670 N   0  0  0  0  0  0  0  0  0  0  0  0
   38.5650   29.6020   39.2090 C   0  0  0  0  0  0  0  0  0  0  0  0
   38.7860   29.9470   38.0310 O   0  0  0  0  0  0  0  0  0  0  0  0
   39.6040   29.7560   40.1620 N   0  0  0  0  0  0  0  0  0  0  0  0
   37.2790   29.0740   39.5220 N   0  0  0  0  0  0  0  0  0  0  0  0
   36.1900   29.2560   38.5990 C   0  0  0  0  0  0  0  0  0  0  0  0
   34.9890   29.2650   39.5010 C   0  0  0  0  0  0  0  0  0  0  0  0
   35.4820   28.9890   40.9040 C   0  0  0  0  0  0  0  0  0  0  0  0
   36.8180   28.3590   40.6750 C   0  0  1  0  0  0  0  0  0  0  0  0
   39.9380   32.2590   39.4530 H   0  0  0  0  0  0  0  0  0  0  0  0
   43.7630   29.2820   38.6310 H   0  0  0  0  0  0  0  0  0  0  0  0
   39.4180   29.4650   41.1360 H   0  0  0  0  0  0  0  0  0  0  0  0
   36.2310   30.3040   38.1700 H   0  0  0  0  0  0  0  0  0  0  0  0
   36.1550   28.6030   37.7430 H   0  0  0  0  0  0  0  0  0  0  0  0
   34.3010   28.4750   39.1450 H   0  0  0  0  0  0  0  0  0  0  0  0
   34.4110   30.2100   39.4840 H   0  0  0  0  0  0  0  0  0  0  0  0
   35.5600   29.9510   41.4410 H   0  0  0  0  0  0  0  0  0  0  0  0
   34.7890   28.3090   41.4310 H   0  0  0  0  0  0  0  0  0  0  0  0
   37.4640   28.7580   41.5190 H   0  0  0  0  0  0  0  0  0  0  0  0
   36.9540   27.0220   43.0660 F   0  0  0  0  0  0  0  0  0  0  0  0
   36.9830   26.2610   41.9240 C   0  0  0  0  0  0  0  0  0  0  0  0
   36.9130   26.9300   40.6900 C   0  0  0  0  0  0  0  0  0  0  0  0
   36.9520   26.0520   39.6260 C   0  0  0  0  0  0  0  0  0  0  0  0
   36.9040   26.4780   38.6430 H   0  0  0  0  0  0  0  0  0  0  0  0
   37.0450   24.6790   39.6880 C   0  0  0  0  0  0  0  0  0  0  0  0
   37.0670   24.0840   38.7820 H   0  0  0  0  0  0  0  0  0  0  0  0
   37.1080   24.0980   40.9370 C   0  0  0  0  0  3  0  0  0  0  0  0
   37.0760   24.8960   42.0600 C   0  0  0  0  0  3  0  0  0  0  0  0
   42.0560   33.5570   38.3150 C   0  0  0  0  0  0  0  0  0  0  0  0
   43.1050   34.1610   39.0040 F   0  0  0  0  0  0  0  0  0  0  0  0
   40.8970   34.1240   38.8310 F   0  0  0  0  0  0  0  0  0  0  0  0
   42.2410   33.8060   36.9750 F   0  0  0  0  0  0  0  0  0  0  0  0
  1  9  1  0  0  0  0
  2 15  1  0  0  0  0
  2  1  2  0  0  0  0
  3  2  1  0  0  0  0
  4  3  2  0  0  0  0
  4  5  1  0  0  0  0
  5  6  2  0  0  0  0
  6  1  1  0  0  0  0
  7 10  1  0  0  0  0
  7  9  1  0  0  0  0
  8  7  2  0  0  0  0
  9 17  1  0  0  0  0
 10 14  1  0  0  0  0
 11 12  1  0  0  0  0
 11 10  1  0  0  0  0
 12 13  1  0  0  0  0
 13 23  1  0  0  0  0
 13 22  1  0  0  0  0
 14 27  1  0  0  0  0
 14 13  1  0  0  0  0
 14 24  1  1  0  0  0
 16  5  1  0  0  0  0
 18 11  1  0  0  0  0
 19 11  1  0  0  0  0
 20 12  1  0  0  0  0
 21 12  1  0  0  0  0
 26 33  1  0  0  0  0
 26 25  1  0  0  0  0
 27 26  2  0  0  0  0
 28 30  2  0  0  0  0
 28 27  1  0  0  0  0
 29 28  1  0  0  0  0
 30 32  1  0  0  0  0
 31 30  1  0  0  0  0
 32 33  2  0  0  0  0
 34  3  1  0  0  0  0
 34 36  1  0  0  0  0
 34 35  1  0  0  0  0
 37 34  1  0  0  0  0
M  END
>  <minimizedAffinity>
-5.66368675

$$$$

 OpenBabel03252503303D

 37 39  0  0  1  0  0  0  0  0999 V2000
   36.0850   29.4220   38.1980 C   0  0  0  0  0  0  0  0  0  0  0  0
   34.7550   29.0110   37.8740 C   0  0  0  0  0  0  0  0  0  0  0  0
   34.4590   28.9540   36.5070 C   0  0  0  0  0  0  0  0  0  0  0  0
   35.4140   29.2770   35.6250 N   0  0  0  0  0  0  0  0  0  0  0  0
   36.6620   29.6610   35.9820 C   0  0  0  0  0  0  0  0  0  0  0  0
   36.9930   29.7310   37.2840 N   0  0  0  0  0  0  0  0  0  0  0  0
   36.7140   28.2340   40.1290 C   0  0  0  0  0  0  0  0  0  0  0  0
   36.5270   27.2300   39.4130 O   0  0  0  0  0  0  0  0  0  0  0  0
   36.5010   29.5150   39.5600 N   0  0  0  0  0  0  0  0  0  0  0  0
   37.1300   28.0270   41.4760 N   0  0  0  0  0  0  0  0  0  0  0  0
   37.0030   26.7220   42.0690 C   0  0  0  0  0  0  0  0  0  0  0  0
   36.8200   27.0360   43.5270 C   0  0  0  0  0  0  0  0  0  0  0  0
   36.9490   28.5350   43.6800 C   0  0  0  0  0  0  0  0  0  0  0  0
   37.6720   28.9420   42.4370 C   0  0  1  0  0  0  0  0  0  0  0  0
   34.1240   28.7910   38.7190 H   0  0  0  0  0  0  0  0  0  0  0  0
   37.3810   29.9080   35.2090 H   0  0  0  0  0  0  0  0  0  0  0  0
   36.6600   30.3450   40.1570 H   0  0  0  0  0  0  0  0  0  0  0  0
   36.0190   26.2580   41.7530 H   0  0  0  0  0  0  0  0  0  0  0  0
   37.7540   25.9910   41.8160 H   0  0  0  0  0  0  0  0  0  0  0  0
   37.6090   26.4970   44.0830 H   0  0  0  0  0  0  0  0  0  0  0  0
   35.8550   26.6960   43.9500 H   0  0  0  0  0  0  0  0  0  0  0  0
   35.9340   28.9680   43.7330 H   0  0  0  0  0  0  0  0  0  0  0  0
   37.5220   28.7830   44.5920 H   0  0  0  0  0  0  0  0  0  0  0  0
   37.2100   29.9390   42.1560 H   0  0  0  0  0  0  0  0  0  0  0  0
   38.7800   31.3460   41.7200 F   0  0  0  0  0  0  0  0  0  0  0  0
   39.6430   30.3590   42.1270 C   0  0  0  0  0  0  0  0  0  0  0  0
   39.0930   29.1220   42.4990 C   0  0  0  0  0  0  0  0  0  0  0  0
   40.0640   28.2220   42.8860 C   0  0  0  0  0  0  0  0  0  0  0  0
   39.7320   27.2470   43.1870 H   0  0  0  0  0  0  0  0  0  0  0  0
   41.4240   28.4380   42.9300 C   0  0  0  0  0  0  0  0  0  0  0  0
   42.1000   27.6550   43.2520 H   0  0  0  0  0  0  0  0  0  0  0  0
   41.8860   29.6810   42.5490 C   0  0  0  0  0  3  0  0  0  0  0  0
   40.9870   30.6460   42.1470 C   0  0  0  0  0  3  0  0  0  0  0  0
   33.0910   28.5310   36.2030 C   0  0  0  0  0  0  0  0  0  0  0  0
   32.8680   28.6910   34.8380 F   0  0  0  0  0  0  0  0  0  0  0  0
   32.2340   29.4290   36.8280 F   0  0  0  0  0  0  0  0  0  0  0  0
   32.8320   27.2160   36.5150 F   0  0  0  0  0  0  0  0  0  0  0  0
  1  9  1  0  0  0  0
  2  1  1  0  0  0  0
  2 15  1  0  0  0  0
  3  2  2  0  0  0  0
  4  5  2  0  0  0  0
  4  3  1  0  0  0  0
  5  6  1  0  0  0  0
  6  1  2  0  0  0  0
  7 10  1  0  0  0  0
  8  7  2  0  0  0  0
  9  7  1  0  0  0  0
  9 17  1  0  0  0  0
 10 11  1  0  0  0  0
 10 14  1  0  0  0  0
 11 12  1  0  0  0  0
 12 13  1  0  0  0  0
 12 21  1  0  0  0  0
 12 20  1  0  0  0  0
 13 22  1  0  0  0  0
 13 23  1  0  0  0  0
 14 24  1  6  0  0  0
 14 27  1  0  0  0  0
 14 13  1  0  0  0  0
 16  5  1  0  0  0  0
 18 11  1  0  0  0  0
 19 11  1  0  0  0  0
 25 26  1  0  0  0  0
 26 33  2  0  0  0  0
 26 27  1  0  0  0  0
 27 28  2  0  0  0  0
 28 30  1  0  0  0  0
 28 29  1  0  0  0  0
 30 31  1  0  0  0  0
 32 30  2  0  0  0  0
 33 32  1  0  0  0  0
 34  3  1  0  0  0  0
 34 37  1  0  0  0  0
 34 36  1  0  0  0  0
 35 34  1  0  0  0  0
M  END
>  <minimizedAffinity>
-5.59987736

$$$$

 OpenBabel03252503303D

 37 39  0  0  1  0  0  0  0  0999 V2000
   40.9970   29.8740   39.2440 C   0  0  0  0  0  0  0  0  0  0  0  0
   41.1910   31.2650   39.5070 C   0  0  0  0  0  0  0  0  0  0  0  0
   41.6080   32.0330   38.4130 C   0  0  0  0  0  0  0  0  0  0  0  0
   41.7890   31.4280   37.2320 N   0  0  0  0  0  0  0  0  0  0  0  0
   41.5920   30.1040   37.0310 C   0  0  0  0  0  0  0  0  0  0  0  0
   41.1910   29.3250   38.0530 N   0  0  0  0  0  0  0  0  0  0  0  0
   39.1960   29.1710   40.5850 C   0  0  0  0  0  0  0  0  0  0  0  0
   38.5540   30.0240   39.9410 O   0  0  0  0  0  0  0  0  0  0  0  0
   40.5710   28.9940   40.2840 N   0  0  0  0  0  0  0  0  0  0  0  0
   38.5060   28.4280   41.5860 N   0  0  0  0  0  0  0  0  0  0  0  0
   37.2250   28.8850   42.0570 C   0  0  0  0  0  0  0  0  0  0  0  0
   37.1860   28.3670   43.4660 C   0  0  0  0  0  0  0  0  0  0  0  0
   38.4420   27.5510   43.6770 C   0  0  0  0  0  0  0  0  0  0  0  0
   38.8760   27.2320   42.2830 C   0  0  1  0  0  0  0  0  0  0  0  0
   40.9960   31.5720   40.5210 H   0  0  0  0  0  0  0  0  0  0  0  0
   41.7600   29.6870   36.0450 H   0  0  0  0  0  0  0  0  0  0  0  0
   41.0990   28.2830   40.8180 H   0  0  0  0  0  0  0  0  0  0  0  0
   37.2460   30.0130   42.1690 H   0  0  0  0  0  0  0  0  0  0  0  0
   36.3690   28.6800   41.4350 H   0  0  0  0  0  0  0  0  0  0  0  0
   36.2740   27.7500   43.5670 H   0  0  0  0  0  0  0  0  0  0  0  0
   37.1140   29.1550   44.2410 H   0  0  0  0  0  0  0  0  0  0  0  0
   39.1780   28.1780   44.2110 H   0  0  0  0  0  0  0  0  0  0  0  0
   38.2170   26.6390   44.2590 H   0  0  0  0  0  0  0  0  0  0  0  0
   40.0090   27.2800   42.3250 H   0  0  0  0  0  0  0  0  0  0  0  0
   40.6670   25.8570   40.7270 F   0  0  0  0  0  0  0  0  0  0  0  0
   39.4410   25.2720   40.9310 C   0  0  0  0  0  0  0  0  0  0  0  0
   38.5120   25.9630   41.7270 C   0  0  0  0  0  0  0  0  0  0  0  0
   37.3260   25.2690   41.8510 C   0  0  0  0  0  0  0  0  0  0  0  0
   36.5570   25.7250   42.4440 H   0  0  0  0  0  0  0  0  0  0  0  0
   37.0190   24.0470   41.2950 C   0  0  0  0  0  0  0  0  0  0  0  0
   36.0490   23.5910   41.4600 H   0  0  0  0  0  0  0  0  0  0  0  0
   37.9850   23.4330   40.5270 C   0  0  0  0  0  3  0  0  0  0  0  0
   39.2040   24.0520   40.3460 C   0  0  0  0  0  3  0  0  0  0  0  0
   41.7990   33.4530   38.7100 C   0  0  0  0  0  0  0  0  0  0  0  0
   40.5890   33.9830   39.1520 F   0  0  0  0  0  0  0  0  0  0  0  0
   42.0650   34.0930   37.5050 F   0  0  0  0  0  0  0  0  0  0  0  0
   42.7410   33.6990   39.6810 F   0  0  0  0  0  0  0  0  0  0  0  0
  1  2  1  0  0  0  0
  1  9  1  0  0  0  0
  2 15  1  0  0  0  0
  3 34  1  0  0  0  0
  3  2  2  0  0  0  0
  4  3  1  0  0  0  0
  5  4  2  0  0  0  0
  5  6  1  0  0  0  0
  6  1  2  0  0  0  0
  7 10  1  0  0  0  0
  8  7  2  0  0  0  0
  9  7  1  0  0  0  0
  9 17  1  0  0  0  0
 10 11  1  0  0  0  0
 10 14  1  0  0  0  0
 11 18  1  0  0  0  0
 11 12  1  0  0  0  0
 12 20  1  0  0  0  0
 12 13  1  0  0  0  0
 12 21  1  0  0  0  0
 13 22  1  0  0  0  0
 13 23  1  0  0  0  0
 14 24  1  1  0  0  0
 14 13  1  0  0  0  0
 16  5  1  0  0  0  0
 19 11  1  0  0  0  0
 25 26  1  0  0  0  0
 26 27  1  0  0  0  0
 27 28  2  0  0  0  0
 27 14  1  0  0  0  0
 28 29  1  0  0  0  0
 30 31  1  0  0  0  0
 30 28  1  0  0  0  0
 32 30  2  0  0  0  0
 33 32  1  0  0  0  0
 33 26  2  0  0  0  0
 34 35  1  0  0  0  0
 34 37  1  0  0  0  0
 36 34  1  0  0  0  0
M  END
>  <minimizedAffinity>
-5.52013159

$$$$

 OpenBabel03252503303D

 37 39  0  0  1  0  0  0  0  0999 V2000
   33.5480   28.0470   36.3940 C   0  0  0  0  0  0  0  0  0  0  0  0
   33.1720   29.2910   35.7980 C   0  0  0  0  0  0  0  0  0  0  0  0
   31.9960   29.2640   35.0400 C   0  0  0  0  0  0  0  0  0  0  0  0
   31.3240   28.1100   34.9300 N   0  0  0  0  0  0  0  0  0  0  0  0
   31.7220   26.9550   35.5140 C   0  0  0  0  0  0  0  0  0  0  0  0
   32.8460   26.9320   36.2530 N   0  0  0  0  0  0  0  0  0  0  0  0
   34.5480   28.5570   38.4620 C   0  0  0  0  0  0  0  0  0  0  0  0
   33.4400   29.0640   38.7240 O   0  0  0  0  0  0  0  0  0  0  0  0
   34.7290   27.9550   37.1900 N   0  0  0  0  0  0  0  0  0  0  0  0
   35.5640   28.6140   39.4600 N   0  0  0  0  0  0  0  0  0  0  0  0
   35.4200   29.5150   40.5720 C   0  0  0  0  0  0  0  0  0  0  0  0
   36.8440   29.8300   40.9310 C   0  0  0  0  0  0  0  0  0  0  0  0
   37.7260   28.9930   40.0310 C   0  0  0  0  0  0  0  0  0  0  0  0
   36.8070   27.9090   39.5690 C   0  0  1  0  0  0  0  0  0  0  0  0
   33.8380   30.1140   35.9970 H   0  0  0  0  0  0  0  0  0  0  0  0
   31.1250   26.0610   35.3790 H   0  0  0  0  0  0  0  0  0  0  0  0
   35.6490   27.5310   36.9790 H   0  0  0  0  0  0  0  0  0  0  0  0
   34.9940   30.5000   40.2070 H   0  0  0  0  0  0  0  0  0  0  0  0
   34.7690   29.2080   41.3750 H   0  0  0  0  0  0  0  0  0  0  0  0
   36.9820   29.5710   41.9970 H   0  0  0  0  0  0  0  0  0  0  0  0
   37.1140   30.9000   40.8340 H   0  0  0  0  0  0  0  0  0  0  0  0
   38.0750   29.6290   39.1980 H   0  0  0  0  0  0  0  0  0  0  0  0
   38.5860   28.5920   40.5980 H   0  0  0  0  0  0  0  0  0  0  0  0
   37.1110   27.7240   38.4910 H   0  0  0  0  0  0  0  0  0  0  0  0
   36.2990   25.5930   38.1910 F   0  0  0  0  0  0  0  0  0  0  0  0
   36.5700   25.4740   39.5320 C   0  0  0  0  0  0  0  0  0  0  0  0
   36.8340   26.6500   40.2530 C   0  0  0  0  0  0  0  0  0  0  0  0
   37.0880   26.3930   41.5840 C   0  0  0  0  0  0  0  0  0  0  0  0
   37.3000   27.2370   42.2110 H   0  0  0  0  0  0  0  0  0  0  0  0
   37.1030   25.1610   42.2010 C   0  0  0  0  0  0  0  0  0  0  0  0
   37.3170   25.0750   43.2600 H   0  0  0  0  0  0  0  0  0  0  0  0
   36.8350   24.0530   41.4240 C   0  0  0  0  0  3  0  0  0  0  0  0
   36.5680   24.2140   40.0810 C   0  0  0  0  0  3  0  0  0  0  0  0
   31.6330   30.5490   34.4410 C   0  0  0  0  0  0  0  0  0  0  0  0
   32.7970   31.1910   34.0260 F   0  0  0  0  0  0  0  0  0  0  0  0
   31.1140   31.3440   35.4570 F   0  0  0  0  0  0  0  0  0  0  0  0
   30.8050   30.4420   33.3490 F   0  0  0  0  0  0  0  0  0  0  0  0
  1  9  1  0  0  0  0
  2 15  1  0  0  0  0
  2  1  2  0  0  0  0
  3  2  1  0  0  0  0
  4  3  2  0  0  0  0
  4  5  1  0  0  0  0
  5  6  2  0  0  0  0
  6  1  1  0  0  0  0
  7  8  2  0  0  0  0
  7 10  1  0  0  0  0
  9  7  1  0  0  0  0
 10 14  1  0  0  0  0
 10 11  1  0  0  0  0
 11 12  1  0  0  0  0
 11 19  1  0  0  0  0
 12 20  1  0  0  0  0
 13 23  1  0  0  0  0
 13 12  1  0  0  0  0
 14 24  1  6  0  0  0
 14 13  1  0  0  0  0
 14 27  1  0  0  0  0
 16  5  1  0  0  0  0
 17  9  1  0  0  0  0
 18 11  1  0  0  0  0
 21 12  1  0  0  0  0
 22 13  1  0  0  0  0
 25 26  1  0  0  0  0
 26 33  2  0  0  0  0
 26 27  1  0  0  0  0
 27 28  2  0  0  0  0
 28 30  1  0  0  0  0
 28 29  1  0  0  0  0
 30 31  1  0  0  0  0
 32 30  2  0  0  0  0
 33 32  1  0  0  0  0
 34  3  1  0  0  0  0
 34 36  1  0  0  0  0
 35 34  1  0  0  0  0
 37 34  1  0  0  0  0
M  END
>  <minimizedAffinity>
-5.49106455

$$$$

 OpenBabel03252503303D

 37 39  0  0  1  0  0  0  0  0999 V2000
   42.0670   30.3770   37.3930 C   0  0  0  0  0  0  0  0  0  0  0  0
   43.0620   31.3520   37.7140 C   0  0  0  0  0  0  0  0  0  0  0  0
   44.1300   31.4410   36.8140 C   0  0  0  0  0  0  0  0  0  0  0  0
   44.1430   30.6330   35.7450 N   0  0  0  0  0  0  0  0  0  0  0  0
   43.1760   29.7230   35.4830 C   0  0  0  0  0  0  0  0  0  0  0  0
   42.1300   29.6010   36.3200 N   0  0  0  0  0  0  0  0  0  0  0  0
   40.0000   31.2580   38.0910 C   0  0  0  0  0  0  0  0  0  0  0  0
   40.2640   32.1700   37.2840 O   0  0  0  0  0  0  0  0  0  0  0  0
   40.9310   30.1980   38.2390 N   0  0  0  0  0  0  0  0  0  0  0  0
   38.7760   31.3390   38.8170 N   0  0  0  0  0  0  0  0  0  0  0  0
   38.0570   32.5850   38.8630 C   0  0  0  0  0  0  0  0  0  0  0  0
   37.3460   32.5080   40.1840 C   0  0  0  0  0  0  0  0  0  0  0  0
   37.6450   31.1480   40.7740 C   0  0  0  0  0  0  0  0  0  0  0  0
   38.0790   30.3520   39.5870 C   0  0  1  0  0  0  0  0  0  0  0  0
   42.8810   31.9110   38.6170 H   0  0  0  0  0  0  0  0  0  0  0  0
   43.2570   29.1040   34.5980 H   0  0  0  0  0  0  0  0  0  0  0  0
   40.7060   29.4410   38.9070 H   0  0  0  0  0  0  0  0  0  0  0  0
   38.7900   33.4400   38.9840 H   0  0  0  0  0  0  0  0  0  0  0  0
   37.4630   32.8430   38.0010 H   0  0  0  0  0  0  0  0  0  0  0  0
   36.2650   32.6410   39.9860 H   0  0  0  0  0  0  0  0  0  0  0  0
   37.6290   33.3020   40.9020 H   0  0  0  0  0  0  0  0  0  0  0  0
   38.4540   31.2640   41.5180 H   0  0  0  0  0  0  0  0  0  0  0  0
   36.7420   30.7250   41.2490 H   0  0  0  0  0  0  0  0  0  0  0  0
   38.9050   29.6820   39.9840 H   0  0  0  0  0  0  0  0  0  0  0  0
   37.6150   27.8150   40.5190 F   0  0  0  0  0  0  0  0  0  0  0  0
   36.8910   28.2190   39.4240 C   0  0  0  0  0  0  0  0  0  0  0  0
   37.1150   29.5160   38.9340 C   0  0  0  0  0  0  0  0  0  0  0  0
   36.3280   29.7940   37.8360 C   0  0  0  0  0  0  0  0  0  0  0  0
   36.4350   30.7670   37.3950 H   0  0  0  0  0  0  0  0  0  0  0  0
   35.4120   28.9560   37.2390 C   0  0  0  0  0  0  0  0  0  0  0  0
   34.8440   29.2820   36.3750 H   0  0  0  0  0  0  0  0  0  0  0  0
   35.2480   27.6990   37.7810 C   0  0  0  0  0  3  0  0  0  0  0  0
   35.9940   27.3300   38.8810 C   0  0  0  0  0  3  0  0  0  0  0  0
   45.1340   32.4460   37.1660 C   0  0  0  0  0  0  0  0  0  0  0  0
   44.4940   33.6690   37.3540 F   0  0  0  0  0  0  0  0  0  0  0  0
   45.9480   32.6210   36.0530 F   0  0  0  0  0  0  0  0  0  0  0  0
   45.8310   32.1590   38.3170 F   0  0  0  0  0  0  0  0  0  0  0  0
  1  2  1  0  0  0  0
  1  9  1  0  0  0  0
  2 15  1  0  0  0  0
  3 34  1  0  0  0  0
  3  2  2  0  0  0  0
  4  3  1  0  0  0  0
  5  4  2  0  0  0  0
  5  6  1  0  0  0  0
  6  1  2  0  0  0  0
  7  9  1  0  0  0  0
  7 10  1  0  0  0  0
  8  7  2  0  0  0  0
  9 17  1  0  0  0  0
 10 11  1  0  0  0  0
 10 14  1  0  0  0  0
 11 18  1  0  0  0  0
 11 12  1  0  0  0  0
 12 13  1  0  0  0  0
 12 21  1  0  0  0  0
 13 23  1  0  0  0  0
 13 22  1  0  0  0  0
 14 24  1  1  0  0  0
 14 13  1  0  0  0  0
 16  5  1  0  0  0  0
 19 11  1  0  0  0  0
 20 12  1  0  0  0  0
 26 25  1  0  0  0  0
 27 26  1  0  0  0  0
 27 14  1  0  0  0  0
 28 27  2  0  0  0  0
 29 28  1  0  0  0  0
 30 32  2  0  0  0  0
 30 28  1  0  0  0  0
 31 30  1  0  0  0  0
 32 33  1  0  0  0  0
 33 26  2  0  0  0  0
 34 35  1  0  0  0  0
 34 37  1  0  0  0  0
 36 34  1  0  0  0  0
M  END
>  <minimizedAffinity>
-5.44497919

$$$$
