
 OpenBabel03252508143D

 37 40  0  0  1  0  0  0  0  0999 V2000
   45.7420   33.0900   46.1830 C   0  0  0  0  0  3  0  0  0  0  0  0
   46.0590   31.9370   45.7420 C   0  0  0  0  0  3  0  0  0  0  0  0
   44.5110   36.1690   44.5830 C   0  0  0  0  0  0  0  0  0  0  0  0
   45.1210   36.1390   43.3220 C   0  0  0  0  0  0  0  0  0  0  0  0
   45.9380   35.0780   43.0710 C   0  0  0  0  0  0  0  0  0  0  0  0
   46.0900   34.1550   44.0470 N   0  0  0  0  0  0  0  0  0  0  0  0
   45.5140   34.1800   45.2390 C   0  0  0  0  0  0  0  0  0  0  0  0
   44.7240   35.2040   45.4860 N   0  0  0  0  0  0  0  0  0  0  0  0
   43.8480   37.0140   44.8110 H   0  0  0  0  0  0  0  0  0  0  0  0
   44.9690   36.8940   42.5810 H   0  0  0  0  0  0  0  0  0  0  0  0
   45.0940   33.4930   40.8140 F   0  0  0  0  0  0  0  0  0  0  0  0
   46.3060   34.0820   40.7690 C   0  0  0  0  0  0  0  0  0  0  0  0
   46.6800   34.8250   41.8480 C   0  0  0  0  0  0  0  0  0  0  0  0
   47.9430   35.3820   41.6850 C   0  0  0  0  0  0  0  0  0  0  0  0
   48.3930   36.0020   42.4530 H   0  0  0  0  0  0  0  0  0  0  0  0
   48.7220   35.2050   40.5730 C   0  0  0  0  0  0  0  0  0  0  0  0
   49.6990   35.6530   40.4830 H   0  0  0  0  0  0  0  0  0  0  0  0
   48.2730   34.4400   39.5240 C   0  0  0  0  0  3  0  0  0  0  0  0
   47.0420   33.8700   39.6280 C   0  0  0  0  0  3  0  0  0  0  0  0
   46.2660   30.8690   46.8100 C   0  0  0  0  0  0  0  0  0  0  0  0
   45.6670   29.9750   46.6000 H   0  0  0  0  0  0  0  0  0  0  0  0
   47.3390   30.6000   46.7230 H   0  0  0  0  0  0  0  0  0  0  0  0
   46.0040   31.4580   48.1670 C   0  0  1  0  0  0  0  0  0  0  0  0
   45.7470   30.4880   49.2770 C   0  0  0  0  0  0  0  0  0  0  0  0
   46.9860   31.2410   49.2610 C   0  0  1  0  0  0  0  0  0  0  0  0
   45.4250   32.4030   48.2010 H   0  0  0  0  0  0  0  0  0  0  0  0
   45.7110   29.4160   49.0000 H   0  0  0  0  0  0  0  0  0  0  0  0
   44.9650   30.7380   50.0220 H   0  0  0  0  0  0  0  0  0  0  0  0
   47.0600   32.0900   50.0080 H   0  0  0  0  0  0  0  0  0  0  0  0
   48.3090   30.6860   48.9060 C   0  0  0  0  0  0  0  0  0  0  0  0
   49.2390   30.4420   50.1270 C   0  0  0  0  0  0  0  0  0  0  0  0
   49.5280   31.5880   49.2200 C   0  0  0  0  0  0  0  0  0  0  0  0
   48.4250   29.9570   48.0890 H   0  0  0  0  0  0  0  0  0  0  0  0
   49.8880   29.5690   50.0740 H   0  0  0  0  0  0  0  0  0  0  0  0
   48.8360   30.6710   51.1290 H   0  0  0  0  0  0  0  0  0  0  0  0
   49.3350   32.6210   49.5130 H   0  0  0  0  0  0  0  0  0  0  0  0
   50.3590   31.4840   48.4750 H   0  0  0  0  0  0  0  0  0  0  0  0
  2  1  2  0  0  0  0
  2 20  1  0  0  0  0
  3  9  1  0  0  0  0
  3  8  1  0  0  0  0
  4  3  2  0  0  0  0
  5  4  1  0  0  0  0
  5  6  2  0  0  0  0
  6  7  1  0  0  0  0
  7  8  2  0  0  0  0
  7  1  1  0  0  0  0
 10  4  1  0  0  0  0
 12 11  1  0  0  0  0
 12 13  1  0  0  0  0
 13  5  1  0  0  0  0
 14 13  2  0  0  0  0
 14 15  1  0  0  0  0
 16 14  1  0  0  0  0
 17 16  1  0  0  0  0
 18 19  1  0  0  0  0
 18 16  2  0  0  0  0
 19 12  2  0  0  0  0
 20 23  1  0  0  0  0
 21 20  1  0  0  0  0
 22 20  1  0  0  0  0
 23 26  1  1  0  0  0
 23 25  1  0  0  0  0
 23 24  1  0  0  0  0
 24 28  1  0  0  0  0
 25 24  1  0  0  0  0
 25 29  1  1  0  0  0
 27 24  1  0  0  0  0
 30 32  1  0  0  0  0
 30 25  1  0  0  0  0
 30 31  1  0  0  0  0
 31 35  1  0  0  0  0
 32 36  1  0  0  0  0
 32 31  1  0  0  0  0
 33 30  1  0  0  0  0
 34 31  1  0  0  0  0
 37 32  1  0  0  0  0
M  END
>  <minimizedAffinity>
-6.33980989

>  <minimizedRMSD>
0.841910541

$$$$
