
 OpenBabel03252508143D

 37 40  0  0  1  0  0  0  0  0999 V2000
   46.0340   33.0810   46.0470 C   0  0  0  0  0  3  0  0  0  0  0  0
   46.8490   32.1550   45.7220 C   0  0  0  0  0  3  0  0  0  0  0  0
   44.5630   36.0210   44.3890 C   0  0  0  0  0  0  0  0  0  0  0  0
   45.1220   35.9750   43.1040 C   0  0  0  0  0  0  0  0  0  0  0  0
   45.9880   34.9530   42.8580 C   0  0  0  0  0  0  0  0  0  0  0  0
   46.2330   34.0790   43.8590 N   0  0  0  0  0  0  0  0  0  0  0  0
   45.7050   34.1180   45.0740 C   0  0  0  0  0  0  0  0  0  0  0  0
   44.8680   35.1050   45.3160 N   0  0  0  0  0  0  0  0  0  0  0  0
   43.8620   36.8350   44.6130 H   0  0  0  0  0  0  0  0  0  0  0  0
   44.8970   36.6910   42.3440 H   0  0  0  0  0  0  0  0  0  0  0  0
   48.5480   36.0070   42.0490 F   0  0  0  0  0  0  0  0  0  0  0  0
   47.9000   35.1780   41.2070 C   0  0  0  0  0  0  0  0  0  0  0  0
   46.6930   34.6940   41.6140 C   0  0  0  0  0  0  0  0  0  0  0  0
   46.1230   33.8530   40.6670 C   0  0  0  0  0  0  0  0  0  0  0  0
   45.1600   33.3810   40.8330 H   0  0  0  0  0  0  0  0  0  0  0  0
   46.7030   33.5440   39.4660 C   0  0  0  0  0  0  0  0  0  0  0  0
   46.2300   32.8850   38.7540 H   0  0  0  0  0  0  0  0  0  0  0  0
   47.9250   34.0730   39.1270 C   0  0  0  0  0  3  0  0  0  0  0  0
   48.5300   34.9050   40.0180 C   0  0  0  0  0  3  0  0  0  0  0  0
   47.1170   31.1180   46.8070 C   0  0  0  0  0  0  0  0  0  0  0  0
   46.5820   30.1830   46.6040 H   0  0  0  0  0  0  0  0  0  0  0  0
   48.2070   30.9220   46.7340 H   0  0  0  0  0  0  0  0  0  0  0  0
   46.8020   31.7060   48.1530 C   0  0  1  0  0  0  0  0  0  0  0  0
   46.2070   30.7780   49.1640 C   0  0  0  0  0  0  0  0  0  0  0  0
   47.5640   31.2540   49.3460 C   0  0  1  0  0  0  0  0  0  0  0  0
   46.4280   32.7500   48.1700 H   0  0  0  0  0  0  0  0  0  0  0  0
   45.9900   29.7460   48.8220 H   0  0  0  0  0  0  0  0  0  0  0  0
   45.3990   31.1630   49.8200 H   0  0  0  0  0  0  0  0  0  0  0  0
   47.7080   32.0450   50.1450 H   0  0  0  0  0  0  0  0  0  0  0  0
   48.7810   30.4450   49.1270 C   0  0  0  0  0  0  0  0  0  0  0  0
   49.6470   30.2510   50.4020 C   0  0  0  0  0  0  0  0  0  0  0  0
   50.1280   31.1790   49.3400 C   0  0  0  0  0  0  0  0  0  0  0  0
   48.7840   29.5870   48.4360 H   0  0  0  0  0  0  0  0  0  0  0  0
   50.1460   29.2880   50.5060 H   0  0  0  0  0  0  0  0  0  0  0  0
   49.2790   30.6970   51.3420 H   0  0  0  0  0  0  0  0  0  0  0  0
   50.1050   32.2620   49.4630 H   0  0  0  0  0  0  0  0  0  0  0  0
   50.9380   30.8270   48.6480 H   0  0  0  0  0  0  0  0  0  0  0  0
  2  1  2  0  0  0  0
  2 20  1  0  0  0  0
  3  9  1  0  0  0  0
  3  8  1  0  0  0  0
  4  3  2  0  0  0  0
  5  4  1  0  0  0  0
  5  6  2  0  0  0  0
  6  7  1  0  0  0  0
  7  8  2  0  0  0  0
  7  1  1  0  0  0  0
 10  4  1  0  0  0  0
 12 13  1  0  0  0  0
 12 11  1  0  0  0  0
 13  5  1  0  0  0  0
 14 15  1  0  0  0  0
 14 13  2  0  0  0  0
 16 14  1  0  0  0  0
 17 16  1  0  0  0  0
 18 16  2  0  0  0  0
 18 19  1  0  0  0  0
 19 12  2  0  0  0  0
 20 23  1  0  0  0  0
 21 20  1  0  0  0  0
 22 20  1  0  0  0  0
 23 26  1  1  0  0  0
 23 24  1  0  0  0  0
 23 25  1  0  0  0  0
 24 25  1  0  0  0  0
 24 28  1  0  0  0  0
 25 29  1  1  0  0  0
 27 24  1  0  0  0  0
 30 32  1  0  0  0  0
 30 25  1  0  0  0  0
 30 31  1  0  0  0  0
 31 34  1  0  0  0  0
 31 35  1  0  0  0  0
 32 36  1  0  0  0  0
 32 31  1  0  0  0  0
 33 30  1  0  0  0  0
 37 32  1  0  0  0  0
M  END
>  <minimizedAffinity>
-6.31828976

>  <minimizedRMSD>
0.752455771

$$$$
