
 OpenBabel03252508173D

 47 51  0  0  1  0  0  0  0  0999 V2000
   47.2450   31.1590   46.9400 C   0  0  0  0  0  0  0  0  0  0  0  0
   48.2100   30.7640   46.6860 H   0  0  0  0  0  0  0  0  0  0  0  0
   46.4790   30.3390   46.8120 H   0  0  0  0  0  0  0  0  0  0  0  0
   47.0210   31.7470   48.2830 C   0  0  1  0  0  0  0  0  0  0  0  0
   46.2780   30.8790   49.2410 C   0  0  0  0  0  0  0  0  0  0  0  0
   47.6840   31.1770   49.4710 C   0  0  1  0  0  0  0  0  0  0  0  0
   46.5440   32.7710   48.2730 H   0  0  0  0  0  0  0  0  0  0  0  0
   45.5150   31.2770   49.9390 H   0  0  0  0  0  0  0  0  0  0  0  0
   46.0390   29.8170   48.9470 H   0  0  0  0  0  0  0  0  0  0  0  0
   47.8970   31.9010   50.2850 H   0  0  0  0  0  0  0  0  0  0  0  0
   48.7680   30.1680   49.2490 C   0  0  2  0  0  0  0  0  0  0  0  0
   49.7520   30.0350   50.4400 C   0  0  0  0  0  0  0  0  0  0  0  0
   50.2050   30.6960   49.2110 C   0  0  1  0  0  0  0  0  0  0  0  0
   48.5740   29.1900   48.8080 H   0  0  0  0  0  0  0  0  0  0  0  0
   49.5260   30.6450   51.3490 H   0  0  0  0  0  0  0  0  0  0  0  0
   50.1590   29.0590   50.7000 H   0  0  0  0  0  0  0  0  0  0  0  0
   50.2850   31.8200   49.3080 H   0  0  0  0  0  0  0  0  0  0  0  0
   53.0480   31.1440   48.9740 F   0  0  0  0  0  0  0  0  0  0  0  0
   52.4950   30.3000   48.0710 C   0  0  0  0  0  0  0  0  0  0  0  0
   51.1370   30.1330   48.2400 C   0  0  0  0  0  0  0  0  0  0  0  0
   50.5270   29.2660   47.3210 C   0  0  0  0  0  0  0  0  0  0  0  0
   49.4520   29.0320   47.3270 H   0  0  0  0  0  0  0  0  0  0  0  0
   51.2070   28.6240   46.3260 C   0  0  0  0  0  0  0  0  0  0  0  0
   50.7440   27.9560   45.6160 H   0  0  0  0  0  0  0  0  0  0  0  0
   52.5630   28.8090   46.1810 C   0  0  0  0  0  3  0  0  0  0  0  0
   53.1840   29.6540   47.0670 C   0  0  0  0  0  3  0  0  0  0  0  0
   46.1460   33.1020   46.1790 C   0  0  0  0  0  3  0  0  0  0  0  0
   46.9340   32.1670   45.8550 C   0  0  0  0  0  3  0  0  0  0  0  0
   44.5250   35.8790   44.3770 C   0  0  0  0  0  0  0  0  0  0  0  0
   45.1610   35.8570   43.1360 C   0  0  0  0  0  0  0  0  0  0  0  0
   46.1120   34.8990   42.9620 C   0  0  0  0  0  0  0  0  0  0  0  0
   46.3980   34.0280   43.9660 N   0  0  0  0  0  0  0  0  0  0  0  0
   45.7660   34.0740   45.1540 C   0  0  0  0  0  0  0  0  0  0  0  0
   44.8400   35.0050   45.3250 N   0  0  0  0  0  0  0  0  0  0  0  0
   43.7680   36.6030   44.5830 H   0  0  0  0  0  0  0  0  0  0  0  0
   44.9130   36.5650   42.3560 H   0  0  0  0  0  0  0  0  0  0  0  0
   46.8550   34.7560   41.7180 C   0  0  0  0  0  0  0  0  0  0  0  0
   48.0560   35.3440   41.4540 C   0  0  0  0  0  0  0  0  0  0  0  0
   48.7420   35.1920   40.2650 C   0  0  0  0  0  0  0  0  0  0  0  0
   48.2130   34.4090   39.2610 C   0  0  0  0  0  0  0  0  0  0  0  0
   47.0080   33.7920   39.4660 C   0  0  0  0  0  0  0  0  0  0  0  0
   46.3680   33.9780   40.6730 C   0  0  0  0  0  0  0  0  0  0  0  0
   48.5090   35.9710   42.2200 H   0  0  0  0  0  0  0  0  0  0  0  0
   49.6990   35.6900   40.1170 H   0  0  0  0  0  0  0  0  0  0  0  0
   48.7470   34.2870   38.3270 H   0  0  0  0  0  0  0  0  0  0  0  0
   46.5670   33.1680   38.6940 H   0  0  0  0  0  0  0  0  0  0  0  0
   45.4020   33.4610   40.7900 H   0  0  0  0  0  0  0  0  0  0  0  0
  1  4  1  0  0  0  0
  2  1  1  0  0  0  0
  3  1  1  0  0  0  0
  4  7  1  1  0  0  0
  4  5  1  0  0  0  0
  4  6  1  0  0  0  0
  5  6  1  0  0  0  0
  5  8  1  0  0  0  0
  6 10  1  1  0  0  0
  9  5  1  0  0  0  0
 11 14  1  6  0  0  0
 11  6  1  0  0  0  0
 11 12  1  0  0  0  0
 12 16  1  0  0  0  0
 12 15  1  0  0  0  0
 13 11  1  0  0  0  0
 13 17  1  1  0  0  0
 13 12  1  0  0  0  0
 19 20  1  0  0  0  0
 19 18  1  0  0  0  0
 20 13  1  0  0  0  0
 21 22  1  0  0  0  0
 21 20  2  0  0  0  0
 23 21  1  0  0  0  0
 24 23  1  0  0  0  0
 25 23  2  0  0  0  0
 25 26  1  0  0  0  0
 26 19  2  0  0  0  0
 28 27  2  0  0  0  0
 28  1  1  0  0  0  0
 29 35  1  0  0  0  0
 29 34  1  0  0  0  0
 30 29  2  0  0  0  0
 31 30  1  0  0  0  0
 31 32  2  0  0  0  0
 32 33  1  0  0  0  0
 33 34  2  0  0  0  0
 33 27  1  0  0  0  0
 36 30  1  0  0  0  0
 37 31  1  0  0  0  0
 38 37  1  0  0  0  0
 38 43  1  0  0  0  0
 39 38  2  0  0  0  0
 40 41  2  0  0  0  0
 40 39  1  0  0  0  0
 41 42  1  0  0  0  0
 42 47  1  0  0  0  0
 42 37  2  0  0  0  0
 44 39  1  0  0  0  0
 45 40  1  0  0  0  0
 46 41  1  0  0  0  0
M  END
>  <minimizedAffinity>
-6.42961311

>  <minimizedRMSD>
1.2376107

$$$$
