
 OpenBabel03252506033D

 28 30  0  0  0  0  0  0  0  0999 V2000
   38.4030   33.1370   40.6870 Cl  0  0  0  0  0  0  0  0  0  0  0  0
   38.0550   31.4530   40.8360 C   0  0  0  0  0  0  0  0  0  0  0  0
   39.0290   30.5750   41.1850 C   0  0  0  0  0  0  0  0  0  0  0  0
   38.6670   29.2380   41.2830 C   0  0  0  0  0  0  0  0  0  0  0  0
   37.3890   28.7530   41.0470 C   0  0  0  0  0  0  0  0  0  0  0  0
   36.4300   29.6690   40.6950 C   0  0  0  0  0  0  0  0  0  0  0  0
   34.8320   29.0120   40.4070 Cl  0  0  0  0  0  0  0  0  0  0  0  0
   36.7520   30.9980   40.5900 C   0  0  0  0  0  0  0  0  0  0  0  0
   39.4840   28.5590   41.5680 H   0  0  0  0  0  0  0  0  0  0  0  0
   35.9590   31.6880   40.3080 H   0  0  0  0  0  0  0  0  0  0  0  0
   42.0860   31.4140   43.0120 C   0  0  0  0  0  0  0  0  0  0  0  0
   42.9790   31.7770   42.0050 C   0  0  0  0  0  0  0  0  0  0  0  0
   42.5230   31.7340   40.6790 C   0  0  0  0  0  0  0  0  0  0  0  0
   41.2440   31.3410   40.4590 N   0  0  0  0  0  0  0  0  0  0  0  0
   40.4090   30.9970   41.4540 C   0  0  0  0  0  0  0  0  0  0  0  0
   40.8250   31.0300   42.7410 N   0  0  0  0  0  0  0  0  0  0  0  0
   42.4540   31.4540   44.0300 H   0  0  0  0  0  0  0  0  0  0  0  0
   43.9970   32.0920   42.1480 H   0  0  0  0  0  0  0  0  0  0  0  0
   43.1010   31.9860   39.7960 H   0  0  0  0  0  0  0  0  0  0  0  0
   36.7410   27.3780   43.4400 F   0  0  0  0  0  0  0  0  0  0  0  0
   36.9060   26.5970   42.3410 C   0  0  0  0  0  0  0  0  0  0  0  0
   37.2210   27.3120   41.2030 C   0  0  0  0  0  0  0  0  0  0  0  0
   37.4210   26.6500   39.9960 C   0  0  0  0  0  0  0  0  0  0  0  0
   37.6710   27.1050   39.0430 H   0  0  0  0  0  0  0  0  0  0  0  0
   37.3100   25.2620   39.9130 C   0  0  0  0  0  0  0  0  0  0  0  0
   37.4570   24.7030   38.9970 H   0  0  0  0  0  0  0  0  0  0  0  0
   36.9940   24.5800   41.0740 C   0  0  0  0  0  3  0  0  0  0  0  0
   36.7950   25.2230   42.2680 C   0  0  0  0  0  3  0  0  0  0  0  0
  1  2  1  0  0  0  0
  2  3  1  0  0  0  0
  3  4  2  0  0  0  0
  3 15  1  0  0  0  0
  4  9  1  0  0  0  0
  5 22  1  0  0  0  0
  5  4  1  0  0  0  0
  6  5  2  0  0  0  0
  7  6  1  0  0  0  0
  8  6  1  0  0  0  0
  8  2  2  0  0  0  0
 10  8  1  0  0  0  0
 11 17  1  0  0  0  0
 12 18  1  0  0  0  0
 12 11  2  0  0  0  0
 13 12  1  0  0  0  0
 14 13  2  0  0  0  0
 14 15  1  0  0  0  0
 15 16  2  0  0  0  0
 16 11  1  0  0  0  0
 19 13  1  0  0  0  0
 21 20  1  0  0  0  0
 22 21  2  0  0  0  0
 23 22  1  0  0  0  0
 24 23  1  0  0  0  0
 25 23  2  0  0  0  0
 25 27  1  0  0  0  0
 26 25  1  0  0  0  0
 27 28  2  0  0  0  0
 28 21  1  0  0  0  0
M  END
>  <minimizedAffinity>
-5.30213928

$$$$

 OpenBabel03252506033D

 28 30  0  0  0  0  0  0  0  0999 V2000
   37.3240   33.7210   39.3850 Cl  0  0  0  0  0  0  0  0  0  0  0  0
   37.6430   32.1350   39.9870 C   0  0  0  0  0  0  0  0  0  0  0  0
   38.9180   31.7180   40.1890 C   0  0  0  0  0  0  0  0  0  0  0  0
   39.0890   30.4280   40.6760 C   0  0  0  0  0  0  0  0  0  0  0  0
   38.0500   29.5540   40.9600 C   0  0  0  0  0  0  0  0  0  0  0  0
   36.7750   30.0100   40.7430 C   0  0  0  0  0  0  0  0  0  0  0  0
   35.4960   28.8740   41.1170 Cl  0  0  0  0  0  0  0  0  0  0  0  0
   36.5690   31.2790   40.2640 C   0  0  0  0  0  0  0  0  0  0  0  0
   40.1370   30.1280   40.8260 H   0  0  0  0  0  0  0  0  0  0  0  0
   35.5400   31.5970   40.1060 H   0  0  0  0  0  0  0  0  0  0  0  0
   41.5230   33.5140   38.3510 C   0  0  0  0  0  0  0  0  0  0  0  0
   42.2420   34.1610   39.3550 C   0  0  0  0  0  0  0  0  0  0  0  0
   41.8270   33.9770   40.6810 C   0  0  0  0  0  0  0  0  0  0  0  0
   40.7520   33.1830   40.9060 N   0  0  0  0  0  0  0  0  0  0  0  0
   40.0790   32.5730   39.9160 C   0  0  0  0  0  0  0  0  0  0  0  0
   40.4610   32.7350   38.6270 N   0  0  0  0  0  0  0  0  0  0  0  0
   41.8580   33.6660   37.3330 H   0  0  0  0  0  0  0  0  0  0  0  0
   43.0980   34.7960   39.2070 H   0  0  0  0  0  0  0  0  0  0  0  0
   42.2870   34.4150   41.5610 H   0  0  0  0  0  0  0  0  0  0  0  0
   38.2350   28.7700   43.6790 F   0  0  0  0  0  0  0  0  0  0  0  0
   38.5520   27.8130   42.7700 C   0  0  0  0  0  0  0  0  0  0  0  0
   38.4480   28.2430   41.4630 C   0  0  0  0  0  0  0  0  0  0  0  0
   38.7410   27.3730   40.4170 C   0  0  0  0  0  0  0  0  0  0  0  0
   38.6940   27.5990   39.3560 H   0  0  0  0  0  0  0  0  0  0  0  0
   39.1440   26.0610   40.6660 C   0  0  0  0  0  0  0  0  0  0  0  0
   39.3830   25.3500   39.8860 H   0  0  0  0  0  0  0  0  0  0  0  0
   39.2380   25.6680   41.9890 C   0  0  0  0  0  3  0  0  0  0  0  0
   38.9510   26.5170   43.0260 C   0  0  0  0  0  3  0  0  0  0  0  0
  1  2  1  0  0  0  0
  2  3  2  0  0  0  0
  2  8  1  0  0  0  0
  3  4  1  0  0  0  0
  4  9  1  0  0  0  0
  4  5  2  0  0  0  0
  5 22  1  0  0  0  0
  6  5  1  0  0  0  0
  6  7  1  0  0  0  0
  8  6  2  0  0  0  0
 10  8  1  0  0  0  0
 11 16  2  0  0  0  0
 11 12  1  0  0  0  0
 12 13  2  0  0  0  0
 13 14  1  0  0  0  0
 13 19  1  0  0  0  0
 15  3  1  0  0  0  0
 15 14  2  0  0  0  0
 16 15  1  0  0  0  0
 17 11  1  0  0  0  0
 18 12  1  0  0  0  0
 21 28  1  0  0  0  0
 21 20  1  0  0  0  0
 22 21  2  0  0  0  0
 23 25  2  0  0  0  0
 23 22  1  0  0  0  0
 24 23  1  0  0  0  0
 25 27  1  0  0  0  0
 26 25  1  0  0  0  0
 27 28  2  0  0  0  0
M  END
>  <minimizedAffinity>
-5.27889776

$$$$

 OpenBabel03252506033D

 28 30  0  0  0  0  0  0  0  0999 V2000
   37.2150   33.4350   39.2500 Cl  0  0  0  0  0  0  0  0  0  0  0  0
   37.6480   31.9070   39.9260 C   0  0  0  0  0  0  0  0  0  0  0  0
   38.9530   31.5700   40.0870 C   0  0  0  0  0  0  0  0  0  0  0  0
   39.2180   30.3220   40.6380 C   0  0  0  0  0  0  0  0  0  0  0  0
   38.2430   29.4150   41.0250 C   0  0  0  0  0  0  0  0  0  0  0  0
   36.9360   29.7890   40.8470 C   0  0  0  0  0  0  0  0  0  0  0  0
   35.7410   28.6120   41.3500 Cl  0  0  0  0  0  0  0  0  0  0  0  0
   36.6380   31.0140   40.3060 C   0  0  0  0  0  0  0  0  0  0  0  0
   40.2870   30.0870   40.7520 H   0  0  0  0  0  0  0  0  0  0  0  0
   35.5870   31.2680   40.1830 H   0  0  0  0  0  0  0  0  0  0  0  0
   41.6220   34.0590   40.3460 C   0  0  0  0  0  0  0  0  0  0  0  0
   42.1050   34.1550   39.0420 C   0  0  0  0  0  0  0  0  0  0  0  0
   41.5050   33.3550   38.0600 C   0  0  0  0  0  0  0  0  0  0  0  0
   40.4930   32.5360   38.4390 N   0  0  0  0  0  0  0  0  0  0  0  0
   40.0510   32.4660   39.7060 C   0  0  0  0  0  0  0  0  0  0  0  0
   40.6140   33.2290   40.6720 N   0  0  0  0  0  0  0  0  0  0  0  0
   42.0960   34.6850   41.0910 H   0  0  0  0  0  0  0  0  0  0  0  0
   42.9050   34.7950   38.7120 H   0  0  0  0  0  0  0  0  0  0  0  0
   41.7740   33.3220   37.0090 H   0  0  0  0  0  0  0  0  0  0  0  0
   38.5300   26.9530   39.6470 F   0  0  0  0  0  0  0  0  0  0  0  0
   38.8940   26.9390   40.9550 C   0  0  0  0  0  0  0  0  0  0  0  0
   38.7360   28.1590   41.5810 C   0  0  0  0  0  0  0  0  0  0  0  0
   39.0680   28.3010   42.9250 C   0  0  0  0  0  0  0  0  0  0  0  0
   38.9860   29.2060   43.5180 H   0  0  0  0  0  0  0  0  0  0  0  0
   39.5620   27.2230   43.6600 C   0  0  0  0  0  0  0  0  0  0  0  0
   39.8320   27.2860   44.7060 H   0  0  0  0  0  0  0  0  0  0  0  0
   39.7050   26.0170   42.9980 C   0  0  0  0  0  3  0  0  0  0  0  0
   39.3810   25.8670   41.6750 C   0  0  0  0  0  3  0  0  0  0  0  0
  1  2  1  0  0  0  0
  2  3  2  0  0  0  0
  2  8  1  0  0  0  0
  3  4  1  0  0  0  0
  4  9  1  0  0  0  0
  4  5  2  0  0  0  0
  5 22  1  0  0  0  0
  6  5  1  0  0  0  0
  6  7  1  0  0  0  0
  8  6  2  0  0  0  0
 10  8  1  0  0  0  0
 11 16  1  0  0  0  0
 11 17  1  0  0  0  0
 12 11  2  0  0  0  0
 13 14  2  0  0  0  0
 13 12  1  0  0  0  0
 14 15  1  0  0  0  0
 15  3  1  0  0  0  0
 15 16  2  0  0  0  0
 18 12  1  0  0  0  0
 19 13  1  0  0  0  0
 20 21  1  0  0  0  0
 21 22  2  0  0  0  0
 21 28  1  0  0  0  0
 22 23  1  0  0  0  0
 23 24  1  0  0  0  0
 23 25  2  0  0  0  0
 25 26  1  0  0  0  0
 27 25  1  0  0  0  0
 28 27  2  0  0  0  0
M  END
>  <minimizedAffinity>
-5.27479935

$$$$

 OpenBabel03252506033D

 28 30  0  0  0  0  0  0  0  0999 V2000
   37.7020   32.1900   36.4630 Cl  0  0  0  0  0  0  0  0  0  0  0  0
   37.7800   31.1490   37.8370 C   0  0  0  0  0  0  0  0  0  0  0  0
   38.8180   31.2310   38.7070 C   0  0  0  0  0  0  0  0  0  0  0  0
   38.8070   30.3580   39.7870 C   0  0  0  0  0  0  0  0  0  0  0  0
   37.8120   29.4210   40.0250 C   0  0  0  0  0  0  0  0  0  0  0  0
   36.7790   29.3660   39.1260 C   0  0  0  0  0  0  0  0  0  0  0  0
   35.5470   28.1680   39.4670 Cl  0  0  0  0  0  0  0  0  0  0  0  0
   36.7580   30.2140   38.0480 C   0  0  0  0  0  0  0  0  0  0  0  0
   39.6650   30.4560   40.4680 H   0  0  0  0  0  0  0  0  0  0  0  0
   35.9180   30.1330   37.3600 H   0  0  0  0  0  0  0  0  0  0  0  0
   40.9510   34.1610   39.2180 C   0  0  0  0  0  0  0  0  0  0  0  0
   41.9440   34.0130   38.2520 C   0  0  0  0  0  0  0  0  0  0  0  0
   41.8800   32.8920   37.4130 C   0  0  0  0  0  0  0  0  0  0  0  0
   40.8570   32.0200   37.5930 N   0  0  0  0  0  0  0  0  0  0  0  0
   39.9150   32.1920   38.5350 C   0  0  0  0  0  0  0  0  0  0  0  0
   39.9540   33.2660   39.3570 N   0  0  0  0  0  0  0  0  0  0  0  0
   41.0140   35.0320   39.8580 H   0  0  0  0  0  0  0  0  0  0  0  0
   42.7670   34.6860   38.0860 H   0  0  0  0  0  0  0  0  0  0  0  0
   42.5800   32.6460   36.6200 H   0  0  0  0  0  0  0  0  0  0  0  0
   38.7770   26.7560   40.1130 F   0  0  0  0  0  0  0  0  0  0  0  0
   38.4570   27.3040   41.3140 C   0  0  0  0  0  0  0  0  0  0  0  0
   37.9920   28.6000   41.2180 C   0  0  0  0  0  0  0  0  0  0  0  0
   37.6220   29.2950   42.3660 C   0  0  0  0  0  0  0  0  0  0  0  0
   37.2460   30.3110   42.4120 H   0  0  0  0  0  0  0  0  0  0  0  0
   37.7120   28.7000   43.6240 C   0  0  0  0  0  0  0  0  0  0  0  0
   37.4360   29.2000   44.5440 H   0  0  0  0  0  0  0  0  0  0  0  0
   38.1810   27.4000   43.6800 C   0  0  0  0  0  3  0  0  0  0  0  0
   38.5480   26.7070   42.5560 C   0  0  0  0  0  3  0  0  0  0  0  0
  1  2  1  0  0  0  0
  2  8  2  0  0  0  0
  2  3  1  0  0  0  0
  3  4  2  0  0  0  0
  4  5  1  0  0  0  0
  4  9  1  0  0  0  0
  5 22  1  0  0  0  0
  6  7  1  0  0  0  0
  6  5  2  0  0  0  0
  8  6  1  0  0  0  0
 10  8  1  0  0  0  0
 11 16  1  0  0  0  0
 11 17  1  0  0  0  0
 12 11  2  0  0  0  0
 13 14  2  0  0  0  0
 13 12  1  0  0  0  0
 14 15  1  0  0  0  0
 15  3  1  0  0  0  0
 15 16  2  0  0  0  0
 18 12  1  0  0  0  0
 19 13  1  0  0  0  0
 20 21  1  0  0  0  0
 21 28  1  0  0  0  0
 22 21  2  0  0  0  0
 22 23  1  0  0  0  0
 23 24  1  0  0  0  0
 23 25  2  0  0  0  0
 25 27  1  0  0  0  0
 25 26  1  0  0  0  0
 28 27  2  0  0  0  0
M  END
>  <minimizedAffinity>
-5.26854277

$$$$

 OpenBabel03252506033D

 28 30  0  0  0  0  0  0  0  0999 V2000
   40.6510   31.1710   42.5120 Cl  0  0  0  0  0  0  0  0  0  0  0  0
   39.9680   29.6170   42.2040 C   0  0  0  0  0  0  0  0  0  0  0  0
   39.0410   29.4520   41.2260 C   0  0  0  0  0  0  0  0  0  0  0  0
   38.5400   28.1700   41.0420 C   0  0  0  0  0  0  0  0  0  0  0  0
   38.9250   27.0650   41.7860 C   0  0  0  0  0  0  0  0  0  0  0  0
   39.8630   27.2680   42.7660 C   0  0  0  0  0  0  0  0  0  0  0  0
   40.3180   25.8450   43.6800 Cl  0  0  0  0  0  0  0  0  0  0  0  0
   40.3790   28.5220   42.9750 C   0  0  0  0  0  0  0  0  0  0  0  0
   37.7920   28.0780   40.2400 H   0  0  0  0  0  0  0  0  0  0  0  0
   41.1210   28.6360   43.7640 H   0  0  0  0  0  0  0  0  0  0  0  0
   37.0650   32.3070   40.0690 C   0  0  0  0  0  0  0  0  0  0  0  0
   37.6660   32.6490   38.8590 C   0  0  0  0  0  0  0  0  0  0  0  0
   38.7640   31.8890   38.4340 C   0  0  0  0  0  0  0  0  0  0  0  0
   39.1750   30.8680   39.2260 N   0  0  0  0  0  0  0  0  0  0  0  0
   38.5740   30.5640   40.3890 C   0  0  0  0  0  0  0  0  0  0  0  0
   37.5120   31.2830   40.8200 N   0  0  0  0  0  0  0  0  0  0  0  0
   36.2180   32.9030   40.3820 H   0  0  0  0  0  0  0  0  0  0  0  0
   37.3630   33.4520   38.2100 H   0  0  0  0  0  0  0  0  0  0  0  0
   39.3300   32.0380   37.5200 H   0  0  0  0  0  0  0  0  0  0  0  0
   36.5570   26.0030   42.9300 F   0  0  0  0  0  0  0  0  0  0  0  0
   37.1270   25.2480   41.9550 C   0  0  0  0  0  0  0  0  0  0  0  0
   38.2750   25.8070   41.4310 C   0  0  0  0  0  0  0  0  0  0  0  0
   38.9730   25.1500   40.4220 C   0  0  0  0  0  0  0  0  0  0  0  0
   39.8820   25.4910   39.9370 H   0  0  0  0  0  0  0  0  0  0  0  0
   38.5300   23.9240   39.9250 C   0  0  0  0  0  0  0  0  0  0  0  0
   39.0390   23.3760   39.1420 H   0  0  0  0  0  0  0  0  0  0  0  0
   37.3760   23.3960   40.4760 C   0  0  0  0  0  3  0  0  0  0  0  0
   36.6820   24.0360   41.4690 C   0  0  0  0  0  3  0  0  0  0  0  0
  2  1  1  0  0  0  0
  2  8  1  0  0  0  0
  3  2  2  0  0  0  0
  4  3  1  0  0  0  0
  4  5  2  0  0  0  0
  5  6  1  0  0  0  0
  6  8  2  0  0  0  0
  6  7  1  0  0  0  0
  8 10  1  0  0  0  0
  9  4  1  0  0  0  0
 11 17  1  0  0  0  0
 11 16  1  0  0  0  0
 12 11  2  0  0  0  0
 13 12  1  0  0  0  0
 13 14  2  0  0  0  0
 14 15  1  0  0  0  0
 15 16  2  0  0  0  0
 15  3  1  0  0  0  0
 18 12  1  0  0  0  0
 19 13  1  0  0  0  0
 21 20  1  0  0  0  0
 22  5  1  0  0  0  0
 22 21  2  0  0  0  0
 23 22  1  0  0  0  0
 24 23  1  0  0  0  0
 25 23  2  0  0  0  0
 25 27  1  0  0  0  0
 26 25  1  0  0  0  0
 27 28  2  0  0  0  0
 28 21  1  0  0  0  0
M  END
>  <minimizedAffinity>
-5.24368429

$$$$

 OpenBabel03252506033D

 28 30  0  0  0  0  0  0  0  0999 V2000
   37.4810   31.9990   36.4480 Cl  0  0  0  0  0  0  0  0  0  0  0  0
   37.3920   30.7730   37.6590 C   0  0  0  0  0  0  0  0  0  0  0  0
   38.1190   30.8760   38.7990 C   0  0  0  0  0  0  0  0  0  0  0  0
   37.9920   29.8470   39.7240 C   0  0  0  0  0  0  0  0  0  0  0  0
   37.1780   28.7370   39.5520 C   0  0  0  0  0  0  0  0  0  0  0  0
   36.4570   28.6660   38.3870 C   0  0  0  0  0  0  0  0  0  0  0  0
   35.4440   27.2480   38.2150 Cl  0  0  0  0  0  0  0  0  0  0  0  0
   36.5590   29.6650   37.4530 C   0  0  0  0  0  0  0  0  0  0  0  0
   38.5980   29.9680   40.6350 H   0  0  0  0  0  0  0  0  0  0  0  0
   35.9690   29.5650   36.5430 H   0  0  0  0  0  0  0  0  0  0  0  0
   39.3120   34.1020   40.0480 C   0  0  0  0  0  0  0  0  0  0  0  0
   40.6280   34.1610   39.5920 C   0  0  0  0  0  0  0  0  0  0  0  0
   41.1120   33.0780   38.8450 C   0  0  0  0  0  0  0  0  0  0  0  0
   40.2720   32.0400   38.6130 N   0  0  0  0  0  0  0  0  0  0  0  0
   39.0070   32.0140   39.0670 C   0  0  0  0  0  0  0  0  0  0  0  0
   38.5170   33.0470   39.7900 N   0  0  0  0  0  0  0  0  0  0  0  0
   38.9540   34.9470   40.6220 H   0  0  0  0  0  0  0  0  0  0  0  0
   41.3180   34.9700   39.7610 H   0  0  0  0  0  0  0  0  0  0  0  0
   42.1100   32.9840   38.4280 H   0  0  0  0  0  0  0  0  0  0  0  0
   38.2770   26.1240   39.4870 F   0  0  0  0  0  0  0  0  0  0  0  0
   37.7100   26.4930   40.6650 C   0  0  0  0  0  0  0  0  0  0  0  0
   37.1890   27.7710   40.6460 C   0  0  0  0  0  0  0  0  0  0  0  0
   36.5740   28.2900   41.7810 C   0  0  0  0  0  0  0  0  0  0  0  0
   36.1320   29.2760   41.8820 H   0  0  0  0  0  0  0  0  0  0  0  0
   36.4720   27.5370   42.9500 C   0  0  0  0  0  0  0  0  0  0  0  0
   36.0020   27.8980   43.8560 H   0  0  0  0  0  0  0  0  0  0  0  0
   37.0040   26.2600   42.9300 C   0  0  0  0  0  3  0  0  0  0  0  0
   37.6120   25.7390   41.8170 C   0  0  0  0  0  3  0  0  0  0  0  0
  1  2  1  0  0  0  0
  2  3  1  0  0  0  0
  3 15  1  0  0  0  0
  3  4  2  0  0  0  0
  4  9  1  0  0  0  0
  5  4  1  0  0  0  0
  5 22  1  0  0  0  0
  6  5  2  0  0  0  0
  7  6  1  0  0  0  0
  8  2  2  0  0  0  0
  8  6  1  0  0  0  0
 10  8  1  0  0  0  0
 11 17  1  0  0  0  0
 12 18  1  0  0  0  0
 12 11  2  0  0  0  0
 13 12  1  0  0  0  0
 14 13  2  0  0  0  0
 14 15  1  0  0  0  0
 15 16  2  0  0  0  0
 16 11  1  0  0  0  0
 19 13  1  0  0  0  0
 20 21  1  0  0  0  0
 21 28  1  0  0  0  0
 22 21  2  0  0  0  0
 22 23  1  0  0  0  0
 23 24  1  0  0  0  0
 23 25  2  0  0  0  0
 25 26  1  0  0  0  0
 27 25  1  0  0  0  0
 28 27  2  0  0  0  0
M  END
>  <minimizedAffinity>
-5.16567278

$$$$

 OpenBabel03252506033D

 28 30  0  0  0  0  0  0  0  0999 V2000
   37.9580   31.8240   36.8680 Cl  0  0  0  0  0  0  0  0  0  0  0  0
   37.7000   30.5340   37.9850 C   0  0  0  0  0  0  0  0  0  0  0  0
   38.7200   29.7110   38.3350 C   0  0  0  0  0  0  0  0  0  0  0  0
   38.4300   28.6970   39.2400 C   0  0  0  0  0  0  0  0  0  0  0  0
   37.1790   28.4800   39.7970 C   0  0  0  0  0  0  0  0  0  0  0  0
   36.1710   29.3310   39.4200 C   0  0  0  0  0  0  0  0  0  0  0  0
   34.6100   29.0180   40.1480 Cl  0  0  0  0  0  0  0  0  0  0  0  0
   36.4220   30.3430   38.5290 C   0  0  0  0  0  0  0  0  0  0  0  0
   39.2830   28.0520   39.4990 H   0  0  0  0  0  0  0  0  0  0  0  0
   35.5930   30.9930   38.2580 H   0  0  0  0  0  0  0  0  0  0  0  0
   42.0020   31.1600   37.6170 C   0  0  0  0  0  0  0  0  0  0  0  0
   42.6140   30.1980   36.8150 C   0  0  0  0  0  0  0  0  0  0  0  0
   41.8890   29.0360   36.5160 C   0  0  0  0  0  0  0  0  0  0  0  0
   40.6380   28.9190   37.0260 N   0  0  0  0  0  0  0  0  0  0  0  0
   40.0770   29.8650   37.7970 C   0  0  0  0  0  0  0  0  0  0  0  0
   40.7560   30.9960   38.1000 N   0  0  0  0  0  0  0  0  0  0  0  0
   42.5760   32.0520   37.8370 H   0  0  0  0  0  0  0  0  0  0  0  0
   43.6030   30.2630   36.3960 H   0  0  0  0  0  0  0  0  0  0  0  0
   42.2340   28.2060   35.9080 H   0  0  0  0  0  0  0  0  0  0  0  0
   37.2120   28.6260   42.6290 F   0  0  0  0  0  0  0  0  0  0  0  0
   37.0980   27.3770   42.1070 C   0  0  0  0  0  0  0  0  0  0  0  0
   37.0880   27.3590   40.7270 C   0  0  0  0  0  0  0  0  0  0  0  0
   36.9770   26.1500   40.0460 C   0  0  0  0  0  0  0  0  0  0  0  0
   36.9580   26.0140   38.9700 H   0  0  0  0  0  0  0  0  0  0  0  0
   36.8770   24.9430   40.7380 C   0  0  0  0  0  0  0  0  0  0  0  0
   36.7900   23.9800   40.2530 H   0  0  0  0  0  0  0  0  0  0  0  0
   36.8920   25.0020   42.1200 C   0  0  0  0  0  3  0  0  0  0  0  0
   37.0000   26.1870   42.8000 C   0  0  0  0  0  3  0  0  0  0  0  0
  1  2  1  0  0  0  0
  2  3  2  0  0  0  0
  2  8  1  0  0  0  0
  3  4  1  0  0  0  0
  4  9  1  0  0  0  0
  4  5  2  0  0  0  0
  5 22  1  0  0  0  0
  6  5  1  0  0  0  0
  6  7  1  0  0  0  0
  8  6  2  0  0  0  0
 10  8  1  0  0  0  0
 11 17  1  0  0  0  0
 11 16  1  0  0  0  0
 12 11  2  0  0  0  0
 13 12  1  0  0  0  0
 13 14  2  0  0  0  0
 14 15  1  0  0  0  0
 15 16  2  0  0  0  0
 15  3  1  0  0  0  0
 18 12  1  0  0  0  0
 19 13  1  0  0  0  0
 21 20  1  0  0  0  0
 21 28  1  0  0  0  0
 22 21  2  0  0  0  0
 23 22  1  0  0  0  0
 23 25  2  0  0  0  0
 24 23  1  0  0  0  0
 25 27  1  0  0  0  0
 26 25  1  0  0  0  0
 27 28  2  0  0  0  0
M  END
>  <minimizedAffinity>
-5.08326483

$$$$

 OpenBabel03252506033D

 28 30  0  0  0  0  0  0  0  0999 V2000
   40.3940   25.6540   43.5950 Cl  0  0  0  0  0  0  0  0  0  0  0  0
   39.8170   27.0010   42.6830 C   0  0  0  0  0  0  0  0  0  0  0  0
   39.0040   26.8130   41.6140 C   0  0  0  0  0  0  0  0  0  0  0  0
   38.5830   27.9480   40.9330 C   0  0  0  0  0  0  0  0  0  0  0  0
   38.9400   29.2440   41.2770 C   0  0  0  0  0  0  0  0  0  0  0  0
   39.7630   29.3970   42.3630 C   0  0  0  0  0  0  0  0  0  0  0  0
   40.1870   31.0490   42.7600 Cl  0  0  0  0  0  0  0  0  0  0  0  0
   40.1980   28.2970   43.0590 C   0  0  0  0  0  0  0  0  0  0  0  0
   37.9260   27.7530   40.0730 H   0  0  0  0  0  0  0  0  0  0  0  0
   40.8500   28.4660   43.9130 H   0  0  0  0  0  0  0  0  0  0  0  0
   36.9360   23.8270   41.1720 C   0  0  0  0  0  0  0  0  0  0  0  0
   37.7290   22.9940   40.3840 C   0  0  0  0  0  0  0  0  0  0  0  0
   38.9920   23.4650   40.0000 C   0  0  0  0  0  0  0  0  0  0  0  0
   39.3640   24.7010   40.4170 N   0  0  0  0  0  0  0  0  0  0  0  0
   38.5750   25.4790   41.1760 C   0  0  0  0  0  0  0  0  0  0  0  0
   37.3510   25.0470   41.5600 N   0  0  0  0  0  0  0  0  0  0  0  0
   35.9630   23.4470   41.4610 H   0  0  0  0  0  0  0  0  0  0  0  0
   37.4610   22.0120   40.0380 H   0  0  0  0  0  0  0  0  0  0  0  0
   39.7150   22.9320   39.3910 H   0  0  0  0  0  0  0  0  0  0  0  0
   36.5410   30.6880   41.7210 F   0  0  0  0  0  0  0  0  0  0  0  0
   37.2310   31.0270   40.6020 C   0  0  0  0  0  0  0  0  0  0  0  0
   38.3890   30.2960   40.4300 C   0  0  0  0  0  0  0  0  0  0  0  0
   39.2040   30.5300   39.3260 C   0  0  0  0  0  0  0  0  0  0  0  0
   40.1320   30.0200   39.0890 H   0  0  0  0  0  0  0  0  0  0  0  0
   38.8690   31.4980   38.3790 C   0  0  0  0  0  0  0  0  0  0  0  0
   39.4700   31.7140   37.5050 H   0  0  0  0  0  0  0  0  0  0  0  0
   37.7000   32.2090   38.5850 C   0  0  0  0  0  3  0  0  0  0  0  0
   36.8920   31.9870   39.6690 C   0  0  0  0  0  3  0  0  0  0  0  0
  2  8  1  0  0  0  0
  2  1  1  0  0  0  0
  3  2  2  0  0  0  0
  4  5  2  0  0  0  0
  4  3  1  0  0  0  0
  5  6  1  0  0  0  0
  6  7  1  0  0  0  0
  6  8  2  0  0  0  0
  8 10  1  0  0  0  0
  9  4  1  0  0  0  0
 11 17  1  0  0  0  0
 11 16  1  0  0  0  0
 12 11  2  0  0  0  0
 13 12  1  0  0  0  0
 13 14  2  0  0  0  0
 14 15  1  0  0  0  0
 15 16  2  0  0  0  0
 15  3  1  0  0  0  0
 18 12  1  0  0  0  0
 19 13  1  0  0  0  0
 21 20  1  0  0  0  0
 22 21  1  0  0  0  0
 22  5  1  0  0  0  0
 23 22  2  0  0  0  0
 24 23  1  0  0  0  0
 25 27  2  0  0  0  0
 25 23  1  0  0  0  0
 26 25  1  0  0  0  0
 27 28  1  0  0  0  0
 28 21  2  0  0  0  0
M  END
>  <minimizedAffinity>
-5.03185463

$$$$

 OpenBabel03252506033D

 28 30  0  0  0  0  0  0  0  0999 V2000
   39.8060   29.3730   41.1500 Cl  0  0  0  0  0  0  0  0  0  0  0  0
   38.4540   29.2800   40.0820 C   0  0  0  0  0  0  0  0  0  0  0  0
   37.9980   30.3900   39.4480 C   0  0  0  0  0  0  0  0  0  0  0  0
   36.9050   30.2310   38.6050 C   0  0  0  0  0  0  0  0  0  0  0  0
   36.2620   29.0240   38.3770 C   0  0  0  0  0  0  0  0  0  0  0  0
   36.7490   27.9230   39.0340 C   0  0  0  0  0  0  0  0  0  0  0  0
   35.9070   26.4220   38.7150 Cl  0  0  0  0  0  0  0  0  0  0  0  0
   37.8270   28.0440   39.8740 C   0  0  0  0  0  0  0  0  0  0  0  0
   36.5670   31.1540   38.1110 H   0  0  0  0  0  0  0  0  0  0  0  0
   38.1790   27.1440   40.3750 H   0  0  0  0  0  0  0  0  0  0  0  0
   40.3120   33.1980   39.0620 C   0  0  0  0  0  0  0  0  0  0  0  0
   39.8040   34.1610   39.9330 C   0  0  0  0  0  0  0  0  0  0  0  0
   38.6510   33.8410   40.6630 C   0  0  0  0  0  0  0  0  0  0  0  0
   38.1010   32.6150   40.4770 N   0  0  0  0  0  0  0  0  0  0  0  0
   38.6160   31.7100   39.6290 C   0  0  0  0  0  0  0  0  0  0  0  0
   39.7280   31.9950   38.9130 N   0  0  0  0  0  0  0  0  0  0  0  0
   41.2040   33.4610   38.5070 H   0  0  0  0  0  0  0  0  0  0  0  0
   40.2180   35.1400   40.1010 H   0  0  0  0  0  0  0  0  0  0  0  0
   38.1450   34.4860   41.3740 H   0  0  0  0  0  0  0  0  0  0  0  0
   33.5120   29.0190   39.0700 F   0  0  0  0  0  0  0  0  0  0  0  0
   33.7820   29.0760   37.7390 C   0  0  0  0  0  0  0  0  0  0  0  0
   35.1330   29.0750   37.4540 C   0  0  0  0  0  0  0  0  0  0  0  0
   35.5660   29.1290   36.1330 C   0  0  0  0  0  0  0  0  0  0  0  0
   36.5960   29.1340   35.7910 H   0  0  0  0  0  0  0  0  0  0  0  0
   34.6530   29.1840   35.0800 C   0  0  0  0  0  0  0  0  0  0  0  0
   34.9430   29.2270   34.0380 H   0  0  0  0  0  0  0  0  0  0  0  0
   33.3090   29.1820   35.4060 C   0  0  0  0  0  3  0  0  0  0  0  0
   32.8720   29.1290   36.7040 C   0  0  0  0  0  3  0  0  0  0  0  0
  2  1  1  0  0  0  0
  3 15  1  0  0  0  0
  3  2  2  0  0  0  0
  4  3  1  0  0  0  0
  5  4  2  0  0  0  0
  5  6  1  0  0  0  0
  6  8  2  0  0  0  0
  7  6  1  0  0  0  0
  8  2  1  0  0  0  0
  8 10  1  0  0  0  0
  9  4  1  0  0  0  0
 11 12  1  0  0  0  0
 12 18  1  0  0  0  0
 12 13  2  0  0  0  0
 13 19  1  0  0  0  0
 14 13  1  0  0  0  0
 15 14  2  0  0  0  0
 16 11  2  0  0  0  0
 16 15  1  0  0  0  0
 17 11  1  0  0  0  0
 21 20  1  0  0  0  0
 22 21  1  0  0  0  0
 22  5  1  0  0  0  0
 23 22  2  0  0  0  0
 24 23  1  0  0  0  0
 25 27  2  0  0  0  0
 25 23  1  0  0  0  0
 26 25  1  0  0  0  0
 27 28  1  0  0  0  0
 28 21  2  0  0  0  0
M  END
>  <minimizedAffinity>
-5.00125837

$$$$
