
 OpenBabel03252508163D

 37 40  0  0  1  0  0  0  0  0999 V2000
   38.6650   28.5100   42.1030 C   0  0  0  0  0  3  0  0  0  0  0  0
   38.2030   28.0480   43.1980 C   0  0  0  0  0  3  0  0  0  0  0  0
   36.2280   30.9780   40.8690 C   0  0  0  0  0  0  0  0  0  0  0  0
   37.0390   31.9670   40.2960 C   0  0  0  0  0  0  0  0  0  0  0  0
   38.3840   31.7610   40.3650 C   0  0  0  0  0  0  0  0  0  0  0  0
   38.8190   30.6350   40.9710 N   0  0  0  0  0  0  0  0  0  0  0  0
   38.0550   29.6970   41.5120 C   0  0  0  0  0  0  0  0  0  0  0  0
   36.7540   29.8930   41.4490 N   0  0  0  0  0  0  0  0  0  0  0  0
   35.1410   31.1200   40.8270 H   0  0  0  0  0  0  0  0  0  0  0  0
   36.6470   32.8430   39.8250 H   0  0  0  0  0  0  0  0  0  0  0  0
   38.8830   34.5030   41.1050 F   0  0  0  0  0  0  0  0  0  0  0  0
   39.6800   33.9320   40.1800 C   0  0  0  0  0  0  0  0  0  0  0  0
   39.4230   32.6360   39.8490 C   0  0  0  0  0  0  0  0  0  0  0  0
   40.3080   32.1580   38.8900 C   0  0  0  0  0  0  0  0  0  0  0  0
   40.2420   31.1420   38.5120 H   0  0  0  0  0  0  0  0  0  0  0  0
   41.3190   32.8990   38.3410 C   0  0  0  0  0  0  0  0  0  0  0  0
   41.9870   32.4930   37.5970 H   0  0  0  0  0  0  0  0  0  0  0  0
   41.5160   34.2030   38.7290 C   0  0  0  0  0  3  0  0  0  0  0  0
   40.6780   34.7240   39.6660 C   0  0  0  0  0  3  0  0  0  0  0  0
   38.9170   26.8120   43.7330 C   0  0  0  0  0  0  0  0  0  0  0  0
   39.4640   27.0370   44.6560 H   0  0  0  0  0  0  0  0  0  0  0  0
   38.0960   26.1060   43.9760 H   0  0  0  0  0  0  0  0  0  0  0  0
   39.7820   26.2250   42.6540 C   0  0  1  0  0  0  0  0  0  0  0  0
   40.4660   24.9330   42.9750 C   0  0  0  0  0  0  0  0  0  0  0  0
   39.3840   24.9460   42.0110 C   0  0  1  0  0  0  0  0  0  0  0  0
   40.3560   26.9380   42.0270 H   0  0  0  0  0  0  0  0  0  0  0  0
   40.3280   24.5420   44.0040 H   0  0  0  0  0  0  0  0  0  0  0  0
   41.5090   24.7900   42.6260 H   0  0  0  0  0  0  0  0  0  0  0  0
   39.6880   24.8470   40.9240 H   0  0  0  0  0  0  0  0  0  0  0  0
   38.0190   24.4380   42.2630 C   0  0  0  0  0  0  0  0  0  0  0  0
   37.4600   23.5410   41.1230 C   0  0  0  0  0  0  0  0  0  0  0  0
   36.9240   24.9230   41.2800 C   0  0  0  0  0  0  0  0  0  0  0  0
   37.6910   24.1520   43.2740 H   0  0  0  0  0  0  0  0  0  0  0  0
   36.8280   22.7090   41.4290 H   0  0  0  0  0  0  0  0  0  0  0  0
   38.1180   23.3440   40.2600 H   0  0  0  0  0  0  0  0  0  0  0  0
   37.1810   25.7260   40.5880 H   0  0  0  0  0  0  0  0  0  0  0  0
   35.9220   25.0570   41.7660 H   0  0  0  0  0  0  0  0  0  0  0  0
  1  2  2  0  0  0  0
  2 20  1  0  0  0  0
  3  8  1  0  0  0  0
  4  5  1  0  0  0  0
  4  3  2  0  0  0  0
  5  6  2  0  0  0  0
  6  7  1  0  0  0  0
  7  1  1  0  0  0  0
  8  7  2  0  0  0  0
  9  3  1  0  0  0  0
 10  4  1  0  0  0  0
 12 11  1  0  0  0  0
 13 12  1  0  0  0  0
 13  5  1  0  0  0  0
 14 13  2  0  0  0  0
 15 14  1  0  0  0  0
 16 18  2  0  0  0  0
 16 14  1  0  0  0  0
 17 16  1  0  0  0  0
 18 19  1  0  0  0  0
 19 12  2  0  0  0  0
 20 22  1  0  0  0  0
 20 21  1  0  0  0  0
 23 26  1  6  0  0  0
 23 24  1  0  0  0  0
 23 20  1  0  0  0  0
 24 27  1  0  0  0  0
 25 29  1  6  0  0  0
 25 30  1  0  0  0  0
 25 23  1  0  0  0  0
 25 24  1  0  0  0  0
 28 24  1  0  0  0  0
 30 33  1  0  0  0  0
 31 32  1  0  0  0  0
 31 34  1  0  0  0  0
 31 30  1  0  0  0  0
 32 37  1  0  0  0  0
 32 30  1  0  0  0  0
 35 31  1  0  0  0  0
 36 32  1  0  0  0  0
M  END
>  <minimizedAffinity>
-5.67432928

$$$$

 OpenBabel03252508163D

 37 40  0  0  1  0  0  0  0  0999 V2000
   38.8230   30.7340   40.9190 C   0  0  0  0  0  3  0  0  0  0  0  0
   37.6360   30.4220   41.2630 C   0  0  0  0  0  3  0  0  0  0  0  0
   38.5810   34.3700   40.3920 C   0  0  0  0  0  0  0  0  0  0  0  0
   39.8810   34.7230   40.0020 C   0  0  0  0  0  0  0  0  0  0  0  0
   40.7910   33.7110   39.9480 C   0  0  0  0  0  0  0  0  0  0  0  0
   40.3710   32.4680   40.2690 N   0  0  0  0  0  0  0  0  0  0  0  0
   39.1430   32.1310   40.6360 C   0  0  0  0  0  0  0  0  0  0  0  0
   38.2600   33.1060   40.6910 N   0  0  0  0  0  0  0  0  0  0  0  0
   37.8280   35.1670   40.4440 H   0  0  0  0  0  0  0  0  0  0  0  0
   40.1650   35.7230   39.7570 H   0  0  0  0  0  0  0  0  0  0  0  0
   41.8810   33.8910   37.2840 F   0  0  0  0  0  0  0  0  0  0  0  0
   42.7320   33.9100   38.3300 C   0  0  0  0  0  0  0  0  0  0  0  0
   42.1910   33.8230   39.5760 C   0  0  0  0  0  0  0  0  0  0  0  0
   43.1630   33.8530   40.5700 C   0  0  0  0  0  0  0  0  0  0  0  0
   42.9020   33.7930   41.6210 H   0  0  0  0  0  0  0  0  0  0  0  0
   44.5060   33.9570   40.3260 C   0  0  0  0  0  0  0  0  0  0  0  0
   45.2310   33.9770   41.1240 H   0  0  0  0  0  0  0  0  0  0  0  0
   44.9750   34.0410   39.0370 C   0  0  0  0  0  3  0  0  0  0  0  0
   44.0680   34.0160   38.0240 C   0  0  0  0  0  3  0  0  0  0  0  0
   37.4110   28.9410   41.5440 C   0  0  0  0  0  0  0  0  0  0  0  0
   36.6010   28.5370   40.9260 H   0  0  0  0  0  0  0  0  0  0  0  0
   38.3620   28.4570   41.2360 H   0  0  0  0  0  0  0  0  0  0  0  0
   37.1970   28.7350   43.0170 C   0  0  1  0  0  0  0  0  0  0  0  0
   36.5740   27.4380   43.4260 C   0  0  0  0  0  0  0  0  0  0  0  0
   37.9700   27.6850   43.7290 C   0  0  1  0  0  0  0  0  0  0  0  0
   36.9060   29.6250   43.6110 H   0  0  0  0  0  0  0  0  0  0  0  0
   36.2640   26.7570   42.6080 H   0  0  0  0  0  0  0  0  0  0  0  0
   35.8250   27.4500   44.2440 H   0  0  0  0  0  0  0  0  0  0  0  0
   38.2060   27.9220   44.8110 H   0  0  0  0  0  0  0  0  0  0  0  0
   39.1110   27.0650   43.0250 C   0  0  0  0  0  0  0  0  0  0  0  0
   40.1730   26.4390   43.9720 C   0  0  0  0  0  0  0  0  0  0  0  0
   40.4940   27.7160   43.2730 C   0  0  0  0  0  0  0  0  0  0  0  0
   38.9760   26.5290   42.0720 H   0  0  0  0  0  0  0  0  0  0  0  0
   40.6560   25.5280   43.6230 H   0  0  0  0  0  0  0  0  0  0  0  0
   39.9780   26.4860   45.0580 H   0  0  0  0  0  0  0  0  0  0  0  0
   40.5200   28.6720   43.7960 H   0  0  0  0  0  0  0  0  0  0  0  0
   41.1670   27.6800   42.3770 H   0  0  0  0  0  0  0  0  0  0  0  0
  1  2  2  0  0  0  0
  2 20  1  0  0  0  0
  3  9  1  0  0  0  0
  3  8  1  0  0  0  0
  4  3  2  0  0  0  0
  5  4  1  0  0  0  0
  5  6  2  0  0  0  0
  6  7  1  0  0  0  0
  7  8  2  0  0  0  0
  7  1  1  0  0  0  0
 10  4  1  0  0  0  0
 11 12  1  0  0  0  0
 12 13  1  0  0  0  0
 13  5  1  0  0  0  0
 13 14  2  0  0  0  0
 14 15  1  0  0  0  0
 16 14  1  0  0  0  0
 16 17  1  0  0  0  0
 18 16  2  0  0  0  0
 19 12  2  0  0  0  0
 19 18  1  0  0  0  0
 20 23  1  0  0  0  0
 21 20  1  0  0  0  0
 22 20  1  0  0  0  0
 23 24  1  0  0  0  0
 23 26  1  1  0  0  0
 23 25  1  0  0  0  0
 24 25  1  0  0  0  0
 24 28  1  0  0  0  0
 25 29  1  1  0  0  0
 27 24  1  0  0  0  0
 30 32  1  0  0  0  0
 30 25  1  0  0  0  0
 30 31  1  0  0  0  0
 31 35  1  0  0  0  0
 32 36  1  0  0  0  0
 32 31  1  0  0  0  0
 33 30  1  0  0  0  0
 34 31  1  0  0  0  0
 37 32  1  0  0  0  0
M  END
>  <minimizedAffinity>
-5.58824825

$$$$

 OpenBabel03252508163D

 37 40  0  0  1  0  0  0  0  0999 V2000
   34.9710   28.4170   38.6000 C   0  0  0  0  0  3  0  0  0  0  0  0
   34.7050   29.1280   39.6250 C   0  0  0  0  0  3  0  0  0  0  0  0
   32.8080   26.8380   36.0730 C   0  0  0  0  0  0  0  0  0  0  0  0
   31.9510   27.8800   35.6910 C   0  0  0  0  0  0  0  0  0  0  0  0
   32.1360   29.0740   36.3190 C   0  0  0  0  0  0  0  0  0  0  0  0
   33.1160   29.1550   37.2460 N   0  0  0  0  0  0  0  0  0  0  0  0
   33.9280   28.1730   37.6080 C   0  0  0  0  0  0  0  0  0  0  0  0
   33.7530   27.0160   37.0040 N   0  0  0  0  0  0  0  0  0  0  0  0
   32.6810   25.8650   35.5830 H   0  0  0  0  0  0  0  0  0  0  0  0
   31.1890   27.7660   34.9510 H   0  0  0  0  0  0  0  0  0  0  0  0
   32.0780   30.6870   33.9290 F   0  0  0  0  0  0  0  0  0  0  0  0
   31.3330   31.0740   34.9840 C   0  0  0  0  0  0  0  0  0  0  0  0
   31.3790   30.2950   36.1000 C   0  0  0  0  0  0  0  0  0  0  0  0
   30.5720   30.7930   37.1160 C   0  0  0  0  0  0  0  0  0  0  0  0
   30.4940   30.2930   38.0760 H   0  0  0  0  0  0  0  0  0  0  0  0
   29.8200   31.9320   37.0110 C   0  0  0  0  0  0  0  0  0  0  0  0
   29.2060   32.2890   37.8230 H   0  0  0  0  0  0  0  0  0  0  0  0
   29.8270   32.6660   35.8480 C   0  0  0  0  0  3  0  0  0  0  0  0
   30.5990   32.2240   34.8200 C   0  0  0  0  0  3  0  0  0  0  0  0
   35.8650   29.3280   40.5930 C   0  0  0  0  0  0  0  0  0  0  0  0
   36.2760   30.3410   40.5190 H   0  0  0  0  0  0  0  0  0  0  0  0
   35.4070   29.2080   41.5970 H   0  0  0  0  0  0  0  0  0  0  0  0
   36.8910   28.2510   40.3780 C   0  0  1  0  0  0  0  0  0  0  0  0
   38.3230   28.6840   40.3770 C   0  0  0  0  0  0  0  0  0  0  0  0
   37.8190   27.8930   41.4820 C   0  0  1  0  0  0  0  0  0  0  0  0
   36.6260   27.4400   39.6700 H   0  0  0  0  0  0  0  0  0  0  0  0
   38.5120   29.7720   40.4750 H   0  0  0  0  0  0  0  0  0  0  0  0
   39.0120   28.2210   39.6410 H   0  0  0  0  0  0  0  0  0  0  0  0
   38.1390   26.8060   41.4980 H   0  0  0  0  0  0  0  0  0  0  0  0
   37.5250   28.4150   42.8330 C   0  0  0  0  0  0  0  0  0  0  0  0
   38.0910   27.5380   43.9840 C   0  0  0  0  0  0  0  0  0  0  0  0
   36.6240   27.5230   43.7220 C   0  0  0  0  0  0  0  0  0  0  0  0
   37.5190   29.4960   43.0410 H   0  0  0  0  0  0  0  0  0  0  0  0
   38.4490   28.0690   44.8660 H   0  0  0  0  0  0  0  0  0  0  0  0
   38.6700   26.6400   43.7050 H   0  0  0  0  0  0  0  0  0  0  0  0
   36.1290   26.6720   43.2530 H   0  0  0  0  0  0  0  0  0  0  0  0
   35.9530   28.1110   44.4010 H   0  0  0  0  0  0  0  0  0  0  0  0
  1  2  2  0  0  0  0
  2 20  1  0  0  0  0
  3  8  1  0  0  0  0
  4  3  2  0  0  0  0
  4  5  1  0  0  0  0
  5  6  2  0  0  0  0
  6  7  1  0  0  0  0
  7  1  1  0  0  0  0
  8  7  2  0  0  0  0
  9  3  1  0  0  0  0
 10  4  1  0  0  0  0
 11 12  1  0  0  0  0
 12 13  1  0  0  0  0
 13  5  1  0  0  0  0
 13 14  2  0  0  0  0
 14 15  1  0  0  0  0
 16 14  1  0  0  0  0
 16 17  1  0  0  0  0
 18 16  2  0  0  0  0
 19 12  2  0  0  0  0
 19 18  1  0  0  0  0
 20 22  1  0  0  0  0
 21 20  1  0  0  0  0
 23 26  1  6  0  0  0
 23 20  1  0  0  0  0
 23 25  1  0  0  0  0
 24 23  1  0  0  0  0
 24 27  1  0  0  0  0
 24 25  1  0  0  0  0
 25 29  1  6  0  0  0
 25 30  1  0  0  0  0
 28 24  1  0  0  0  0
 30 33  1  0  0  0  0
 30 32  1  0  0  0  0
 30 31  1  0  0  0  0
 31 34  1  0  0  0  0
 32 31  1  0  0  0  0
 32 37  1  0  0  0  0
 35 31  1  0  0  0  0
 36 32  1  0  0  0  0
M  END
>  <minimizedAffinity>
-5.50084257

$$$$

 OpenBabel03252508163D

 37 40  0  0  1  0  0  0  0  0999 V2000
   38.4810   27.8760   39.1140 C   0  0  0  0  0  3  0  0  0  0  0  0
   37.5570   27.0480   39.4050 C   0  0  0  0  0  3  0  0  0  0  0  0
   37.1790   30.3620   36.7300 C   0  0  0  0  0  0  0  0  0  0  0  0
   37.6200   31.5800   37.2670 C   0  0  0  0  0  0  0  0  0  0  0  0
   38.3320   31.5060   38.4260 C   0  0  0  0  0  0  0  0  0  0  0  0
   38.5500   30.2830   38.9560 N   0  0  0  0  0  0  0  0  0  0  0  0
   38.1370   29.1300   38.4500 C   0  0  0  0  0  0  0  0  0  0  0  0
   37.4480   29.1960   37.3300 N   0  0  0  0  0  0  0  0  0  0  0  0
   36.6030   30.3930   35.7970 H   0  0  0  0  0  0  0  0  0  0  0  0
   37.4210   32.5250   36.8100 H   0  0  0  0  0  0  0  0  0  0  0  0
   36.9030   33.7440   39.5550 F   0  0  0  0  0  0  0  0  0  0  0  0
   38.2410   33.6880   39.7150 C   0  0  0  0  0  0  0  0  0  0  0  0
   38.8910   32.6210   39.1720 C   0  0  0  0  0  0  0  0  0  0  0  0
   40.2610   32.6730   39.4020 C   0  0  0  0  0  0  0  0  0  0  0  0
   40.9280   31.8990   39.0360 H   0  0  0  0  0  0  0  0  0  0  0  0
   40.8850   33.6770   40.0920 C   0  0  0  0  0  0  0  0  0  0  0  0
   41.9530   33.6830   40.2500 H   0  0  0  0  0  0  0  0  0  0  0  0
   40.1590   34.7220   40.6110 C   0  0  0  0  0  3  0  0  0  0  0  0
   38.8130   34.7220   40.4160 C   0  0  0  0  0  3  0  0  0  0  0  0
   38.0230   25.7760   40.1030 C   0  0  0  0  0  0  0  0  0  0  0  0
   38.3470   25.0200   39.3790 H   0  0  0  0  0  0  0  0  0  0  0  0
   38.9070   26.0970   40.6940 H   0  0  0  0  0  0  0  0  0  0  0  0
   36.9470   25.2900   41.0330 C   0  0  1  0  0  0  0  0  0  0  0  0
   37.3920   24.4450   42.1850 C   0  0  0  0  0  0  0  0  0  0  0  0
   36.9080   25.7890   42.4320 C   0  0  1  0  0  0  0  0  0  0  0  0
   35.9740   25.0190   40.5760 H   0  0  0  0  0  0  0  0  0  0  0  0
   38.4710   24.1940   42.2280 H   0  0  0  0  0  0  0  0  0  0  0  0
   36.7650   23.5760   42.4710 H   0  0  0  0  0  0  0  0  0  0  0  0
   35.8700   25.8660   42.8790 H   0  0  0  0  0  0  0  0  0  0  0  0
   37.7610   26.9450   42.7810 C   0  0  0  0  0  0  0  0  0  0  0  0
   37.2960   27.7110   44.0510 C   0  0  0  0  0  0  0  0  0  0  0  0
   37.0790   28.3330   42.7140 C   0  0  0  0  0  0  0  0  0  0  0  0
   38.8520   26.9170   42.6370 H   0  0  0  0  0  0  0  0  0  0  0  0
   38.0820   28.1180   44.6850 H   0  0  0  0  0  0  0  0  0  0  0  0
   36.4100   27.3240   44.5840 H   0  0  0  0  0  0  0  0  0  0  0  0
   36.0910   28.3940   42.2570 H   0  0  0  0  0  0  0  0  0  0  0  0
   37.7730   29.1510   42.3860 H   0  0  0  0  0  0  0  0  0  0  0  0
  1  2  2  0  0  0  0
  2 20  1  0  0  0  0
  3  4  2  0  0  0  0
  3  8  1  0  0  0  0
  4  5  1  0  0  0  0
  5  6  2  0  0  0  0
  5 13  1  0  0  0  0
  7  6  1  0  0  0  0
  7  1  1  0  0  0  0
  8  7  2  0  0  0  0
  9  3  1  0  0  0  0
 10  4  1  0  0  0  0
 11 12  1  0  0  0  0
 12 19  1  0  0  0  0
 13 14  1  0  0  0  0
 13 12  2  0  0  0  0
 14 16  2  0  0  0  0
 15 14  1  0  0  0  0
 16 17  1  0  0  0  0
 16 18  1  0  0  0  0
 19 18  2  0  0  0  0
 20 22  1  0  0  0  0
 20 23  1  0  0  0  0
 21 20  1  0  0  0  0
 23 26  1  6  0  0  0
 23 24  1  0  0  0  0
 23 25  1  0  0  0  0
 24 27  1  0  0  0  0
 24 25  1  0  0  0  0
 24 28  1  0  0  0  0
 25 30  1  0  0  0  0
 25 29  1  1  0  0  0
 30 31  1  0  0  0  0
 31 35  1  0  0  0  0
 31 34  1  0  0  0  0
 32 30  1  0  0  0  0
 32 31  1  0  0  0  0
 33 30  1  0  0  0  0
 36 32  1  0  0  0  0
 37 32  1  0  0  0  0
M  END
>  <minimizedAffinity>
-5.44591522

$$$$

 OpenBabel03252508163D

 37 40  0  0  1  0  0  0  0  0999 V2000
   32.2290   28.8800   35.9850 C   0  0  0  0  0  3  0  0  0  0  0  0
   32.4170   29.8300   35.1550 C   0  0  0  0  0  3  0  0  0  0  0  0
   34.7570   26.5180   37.2420 C   0  0  0  0  0  0  0  0  0  0  0  0
   35.5300   27.3070   38.1040 C   0  0  0  0  0  0  0  0  0  0  0  0
   35.1670   28.6160   38.2130 C   0  0  0  0  0  0  0  0  0  0  0  0
   34.1070   29.0390   37.4900 N   0  0  0  0  0  0  0  0  0  0  0  0
   33.3740   28.2950   36.6750 C   0  0  0  0  0  0  0  0  0  0  0  0
   33.7210   27.0290   36.5670 N   0  0  0  0  0  0  0  0  0  0  0  0
   35.0290   25.4600   37.1360 H   0  0  0  0  0  0  0  0  0  0  0  0
   36.3620   26.9260   38.6560 H   0  0  0  0  0  0  0  0  0  0  0  0
   34.9700   28.9230   41.0740 F   0  0  0  0  0  0  0  0  0  0  0  0
   35.7330   29.7950   40.3850 C   0  0  0  0  0  0  0  0  0  0  0  0
   35.8090   29.6280   39.0360 C   0  0  0  0  0  0  0  0  0  0  0  0
   36.6210   30.5830   38.4360 C   0  0  0  0  0  0  0  0  0  0  0  0
   36.7900   30.5950   37.3650 H   0  0  0  0  0  0  0  0  0  0  0  0
   37.2700   31.5760   39.1200 C   0  0  0  0  0  0  0  0  0  0  0  0
   37.8930   32.3010   38.6200 H   0  0  0  0  0  0  0  0  0  0  0  0
   37.1430   31.6790   40.4850 C   0  0  0  0  0  3  0  0  0  0  0  0
   36.3590   30.7700   41.1230 C   0  0  0  0  0  3  0  0  0  0  0  0
   31.1550   30.3750   34.4970 C   0  0  0  0  0  0  0  0  0  0  0  0
   31.1620   30.1970   33.4150 H   0  0  0  0  0  0  0  0  0  0  0  0
   30.3330   29.7780   34.9450 H   0  0  0  0  0  0  0  0  0  0  0  0
   30.9820   31.8220   34.8620 C   0  0  1  0  0  0  0  0  0  0  0  0
   29.6660   32.4450   34.5180 C   0  0  0  0  0  0  0  0  0  0  0  0
   29.9960   32.2000   35.9080 C   0  0  1  0  0  0  0  0  0  0  0  0
   31.8730   32.4750   34.7610 H   0  0  0  0  0  0  0  0  0  0  0  0
   28.9450   31.8070   33.9670 H   0  0  0  0  0  0  0  0  0  0  0  0
   29.6620   33.4840   34.1310 H   0  0  0  0  0  0  0  0  0  0  0  0
   30.2780   33.1120   36.5180 H   0  0  0  0  0  0  0  0  0  0  0  0
   29.4180   31.1230   36.7390 C   0  0  0  0  0  0  0  0  0  0  0  0
   28.7780   31.6230   38.0640 C   0  0  0  0  0  0  0  0  0  0  0  0
   30.0820   30.9030   38.1210 C   0  0  0  0  0  0  0  0  0  0  0  0
   28.9120   30.2570   36.2850 H   0  0  0  0  0  0  0  0  0  0  0  0
   27.8870   31.0960   38.4000 H   0  0  0  0  0  0  0  0  0  0  0  0
   28.7860   32.7100   38.2560 H   0  0  0  0  0  0  0  0  0  0  0  0
   31.0210   31.4210   38.3230 H   0  0  0  0  0  0  0  0  0  0  0  0
   30.0870   29.8290   38.4430 H   0  0  0  0  0  0  0  0  0  0  0  0
  1  7  1  0  0  0  0
  2  1  2  0  0  0  0
  3  4  1  0  0  0  0
  4  5  2  0  0  0  0
  4 10  1  0  0  0  0
  5 13  1  0  0  0  0
  6  5  1  0  0  0  0
  7  6  2  0  0  0  0
  8  7  1  0  0  0  0
  8  3  2  0  0  0  0
  9  3  1  0  0  0  0
 12 11  1  0  0  0  0
 12 19  1  0  0  0  0
 13 12  2  0  0  0  0
 14 13  1  0  0  0  0
 14 16  2  0  0  0  0
 15 14  1  0  0  0  0
 16 18  1  0  0  0  0
 17 16  1  0  0  0  0
 18 19  2  0  0  0  0
 20 23  1  0  0  0  0
 20 22  1  0  0  0  0
 20  2  1  0  0  0  0
 21 20  1  0  0  0  0
 23 26  1  6  0  0  0
 23 25  1  0  0  0  0
 24 23  1  0  0  0  0
 24 25  1  0  0  0  0
 25 29  1  1  0  0  0
 25 30  1  0  0  0  0
 27 24  1  0  0  0  0
 28 24  1  0  0  0  0
 30 31  1  0  0  0  0
 30 32  1  0  0  0  0
 31 32  1  0  0  0  0
 31 35  1  0  0  0  0
 31 34  1  0  0  0  0
 32 36  1  0  0  0  0
 32 37  1  0  0  0  0
 33 30  1  0  0  0  0
M  END
>  <minimizedAffinity>
-5.42174816

$$$$

 OpenBabel03252508163D

 37 40  0  0  1  0  0  0  0  0999 V2000
   38.4670   28.8550   41.8470 C   0  0  0  0  0  3  0  0  0  0  0  0
   37.7410   28.5070   42.8350 C   0  0  0  0  0  3  0  0  0  0  0  0
   37.6810   32.1510   40.4060 C   0  0  0  0  0  0  0  0  0  0  0  0
   37.0180   31.8270   39.2140 C   0  0  0  0  0  0  0  0  0  0  0  0
   36.8770   30.5000   38.9420 C   0  0  0  0  0  0  0  0  0  0  0  0
   37.3810   29.6170   39.8320 N   0  0  0  0  0  0  0  0  0  0  0  0
   38.0070   29.9200   40.9600 C   0  0  0  0  0  0  0  0  0  0  0  0
   38.1470   31.2020   41.2260 N   0  0  0  0  0  0  0  0  0  0  0  0
   37.8090   33.2130   40.6480 H   0  0  0  0  0  0  0  0  0  0  0  0
   36.6360   32.5640   38.5410 H   0  0  0  0  0  0  0  0  0  0  0  0
   34.3290   29.1520   38.8480 F   0  0  0  0  0  0  0  0  0  0  0  0
   35.0330   29.2770   37.7050 C   0  0  0  0  0  0  0  0  0  0  0  0
   36.2320   29.9170   37.7780 C   0  0  0  0  0  0  0  0  0  0  0  0
   36.8630   29.9850   36.5410 C   0  0  0  0  0  0  0  0  0  0  0  0
   37.8300   30.4630   36.4210 H   0  0  0  0  0  0  0  0  0  0  0  0
   36.3420   29.4690   35.3850 C   0  0  0  0  0  0  0  0  0  0  0  0
   36.8610   29.5400   34.4420 H   0  0  0  0  0  0  0  0  0  0  0  0
   35.1220   28.8350   35.3930 C   0  0  0  0  0  3  0  0  0  0  0  0
   34.4600   28.7400   36.5770 C   0  0  0  0  0  3  0  0  0  0  0  0
   38.3180   27.3940   43.7030 C   0  0  0  0  0  0  0  0  0  0  0  0
   38.6160   27.7710   44.6880 H   0  0  0  0  0  0  0  0  0  0  0  0
   37.4720   26.6880   43.8390 H   0  0  0  0  0  0  0  0  0  0  0  0
   39.4310   26.7070   42.9640 C   0  0  1  0  0  0  0  0  0  0  0  0
   40.0110   25.4900   43.6130 C   0  0  0  0  0  0  0  0  0  0  0  0
   39.2130   25.3450   42.4120 C   0  0  1  0  0  0  0  0  0  0  0  0
   40.1460   27.3550   42.4170 H   0  0  0  0  0  0  0  0  0  0  0  0
   39.6150   25.2260   44.6150 H   0  0  0  0  0  0  0  0  0  0  0  0
   41.1090   25.3400   43.5620 H   0  0  0  0  0  0  0  0  0  0  0  0
   39.7860   25.1210   41.4610 H   0  0  0  0  0  0  0  0  0  0  0  0
   37.8300   24.8260   42.3720 C   0  0  0  0  0  0  0  0  0  0  0  0
   37.5970   23.7310   41.2940 C   0  0  0  0  0  0  0  0  0  0  0  0
   37.0420   25.0960   41.0660 C   0  0  0  0  0  0  0  0  0  0  0  0
   37.2390   24.6940   43.2930 H   0  0  0  0  0  0  0  0  0  0  0  0
   36.9050   22.9330   41.5560 H   0  0  0  0  0  0  0  0  0  0  0  0
   38.4650   23.4240   40.6840 H   0  0  0  0  0  0  0  0  0  0  0  0
   37.4780   25.7850   40.3420 H   0  0  0  0  0  0  0  0  0  0  0  0
   35.9470   25.2630   41.2370 H   0  0  0  0  0  0  0  0  0  0  0  0
  1  2  2  0  0  0  0
  2 20  1  0  0  0  0
  3  9  1  0  0  0  0
  3  8  1  0  0  0  0
  4  3  2  0  0  0  0
  5  4  1  0  0  0  0
  5  6  2  0  0  0  0
  6  7  1  0  0  0  0
  7  8  2  0  0  0  0
  7  1  1  0  0  0  0
 10  4  1  0  0  0  0
 12 13  1  0  0  0  0
 12 11  1  0  0  0  0
 13  5  1  0  0  0  0
 14 13  2  0  0  0  0
 15 14  1  0  0  0  0
 16 18  2  0  0  0  0
 16 14  1  0  0  0  0
 17 16  1  0  0  0  0
 18 19  1  0  0  0  0
 19 12  2  0  0  0  0
 20 22  1  0  0  0  0
 20 21  1  0  0  0  0
 23 26  1  6  0  0  0
 23 24  1  0  0  0  0
 23 20  1  0  0  0  0
 24 27  1  0  0  0  0
 25 29  1  6  0  0  0
 25 23  1  0  0  0  0
 25 24  1  0  0  0  0
 28 24  1  0  0  0  0
 30 25  1  0  0  0  0
 30 33  1  0  0  0  0
 31 34  1  0  0  0  0
 31 30  1  0  0  0  0
 32 37  1  0  0  0  0
 32 31  1  0  0  0  0
 32 30  1  0  0  0  0
 35 31  1  0  0  0  0
 36 32  1  0  0  0  0
M  END
>  <minimizedAffinity>
-5.41474867

$$$$

 OpenBabel03252508163D

 37 40  0  0  1  0  0  0  0  0999 V2000
   35.0610   28.4860   38.8670 C   0  0  0  0  0  3  0  0  0  0  0  0
   36.1460   27.8160   38.8810 C   0  0  0  0  0  3  0  0  0  0  0  0
   33.0590   26.8570   36.2420 C   0  0  0  0  0  0  0  0  0  0  0  0
   32.1700   27.8660   35.8460 C   0  0  0  0  0  0  0  0  0  0  0  0
   32.2800   29.0570   36.4990 C   0  0  0  0  0  0  0  0  0  0  0  0
   33.2230   29.1650   37.4600 N   0  0  0  0  0  0  0  0  0  0  0  0
   34.0650   28.2140   37.8350 C   0  0  0  0  0  0  0  0  0  0  0  0
   33.9630   27.0600   37.2080 N   0  0  0  0  0  0  0  0  0  0  0  0
   32.9910   25.8870   35.7320 H   0  0  0  0  0  0  0  0  0  0  0  0
   31.4390   27.7320   35.0780 H   0  0  0  0  0  0  0  0  0  0  0  0
   30.5860   30.4090   38.4010 F   0  0  0  0  0  0  0  0  0  0  0  0
   30.6700   30.9050   37.1500 C   0  0  0  0  0  0  0  0  0  0  0  0
   31.4770   30.2470   36.2720 C   0  0  0  0  0  0  0  0  0  0  0  0
   31.4840   30.8490   35.0190 C   0  0  0  0  0  0  0  0  0  0  0  0
   32.0750   30.4500   34.2010 H   0  0  0  0  0  0  0  0  0  0  0  0
   30.7650   31.9700   34.7020 C   0  0  0  0  0  0  0  0  0  0  0  0
   30.7950   32.4090   33.7170 H   0  0  0  0  0  0  0  0  0  0  0  0
   29.9720   32.5780   35.6460 C   0  0  0  0  0  3  0  0  0  0  0  0
   29.9280   32.0310   36.8910 C   0  0  0  0  0  3  0  0  0  0  0  0
   37.1130   28.1720   40.0040 C   0  0  0  0  0  0  0  0  0  0  0  0
   37.6000   27.2780   40.4100 H   0  0  0  0  0  0  0  0  0  0  0  0
   37.8860   28.7980   39.5110 H   0  0  0  0  0  0  0  0  0  0  0  0
   36.3970   28.9860   41.0450 C   0  0  1  0  0  0  0  0  0  0  0  0
   37.2020   29.4070   42.2330 C   0  0  0  0  0  0  0  0  0  0  0  0
   36.7890   30.4030   41.2640 C   0  0  1  0  0  0  0  0  0  0  0  0
   35.3360   28.7290   41.2410 H   0  0  0  0  0  0  0  0  0  0  0  0
   38.2460   29.0360   42.2820 H   0  0  0  0  0  0  0  0  0  0  0  0
   36.7190   29.3810   43.2310 H   0  0  0  0  0  0  0  0  0  0  0  0
   35.9420   31.0840   41.5850 H   0  0  0  0  0  0  0  0  0  0  0  0
   37.6790   31.0380   40.2700 C   0  0  0  0  0  0  0  0  0  0  0  0
   37.5060   32.5790   40.1630 C   0  0  0  0  0  0  0  0  0  0  0  0
   36.9770   31.7170   39.0680 C   0  0  0  0  0  0  0  0  0  0  0  0
   38.7080   30.6810   40.1110 H   0  0  0  0  0  0  0  0  0  0  0  0
   38.4100   33.1550   39.9700 H   0  0  0  0  0  0  0  0  0  0  0  0
   36.7730   33.0580   40.8360 H   0  0  0  0  0  0  0  0  0  0  0  0
   35.9090   31.5400   38.9360 H   0  0  0  0  0  0  0  0  0  0  0  0
   37.5620   31.6430   38.1150 H   0  0  0  0  0  0  0  0  0  0  0  0
  1  2  2  0  0  0  0
  2 20  1  0  0  0  0
  3  8  1  0  0  0  0
  4  3  2  0  0  0  0
  4  5  1  0  0  0  0
  5  6  2  0  0  0  0
  6  7  1  0  0  0  0
  7  1  1  0  0  0  0
  8  7  2  0  0  0  0
  9  3  1  0  0  0  0
 10  4  1  0  0  0  0
 12 11  1  0  0  0  0
 13  5  1  0  0  0  0
 13 12  2  0  0  0  0
 14 13  1  0  0  0  0
 15 14  1  0  0  0  0
 16 14  2  0  0  0  0
 16 18  1  0  0  0  0
 17 16  1  0  0  0  0
 18 19  2  0  0  0  0
 19 12  1  0  0  0  0
 20 21  1  0  0  0  0
 20 23  1  0  0  0  0
 22 20  1  0  0  0  0
 23 26  1  1  0  0  0
 23 25  1  0  0  0  0
 23 24  1  0  0  0  0
 24 27  1  0  0  0  0
 24 28  1  0  0  0  0
 25 29  1  1  0  0  0
 25 24  1  0  0  0  0
 30 25  1  0  0  0  0
 31 30  1  0  0  0  0
 31 35  1  0  0  0  0
 32 31  1  0  0  0  0
 32 30  1  0  0  0  0
 33 30  1  0  0  0  0
 34 31  1  0  0  0  0
 36 32  1  0  0  0  0
 37 32  1  0  0  0  0
M  END
>  <minimizedAffinity>
-5.33165216

$$$$

 OpenBabel03252508163D

 37 40  0  0  1  0  0  0  0  0999 V2000
   34.4870   28.6900   37.3080 C   0  0  0  0  0  3  0  0  0  0  0  0
   33.2130   28.6400   37.3000 C   0  0  0  0  0  3  0  0  0  0  0  0
   36.0620   25.5490   38.4080 C   0  0  0  0  0  0  0  0  0  0  0  0
   36.6280   25.8910   39.6430 C   0  0  0  0  0  0  0  0  0  0  0  0
   36.4630   27.1820   40.0460 C   0  0  0  0  0  0  0  0  0  0  0  0
   35.7760   28.0130   39.2320 N   0  0  0  0  0  0  0  0  0  0  0  0
   35.2380   27.6920   38.0650 C   0  0  0  0  0  0  0  0  0  0  0  0
   35.3960   26.4460   37.6710 N   0  0  0  0  0  0  0  0  0  0  0  0
   36.1810   24.5150   38.0590 H   0  0  0  0  0  0  0  0  0  0  0  0
   37.1640   25.1960   40.2520 H   0  0  0  0  0  0  0  0  0  0  0  0
   38.2820   29.4040   40.3090 F   0  0  0  0  0  0  0  0  0  0  0  0
   37.8120   28.8220   41.4300 C   0  0  0  0  0  0  0  0  0  0  0  0
   36.9540   27.7750   41.2780 C   0  0  0  0  0  0  0  0  0  0  0  0
   36.5390   27.2600   42.5000 C   0  0  0  0  0  0  0  0  0  0  0  0
   35.8530   26.4200   42.5590 H   0  0  0  0  0  0  0  0  0  0  0  0
   36.9410   27.7450   43.7150 C   0  0  0  0  0  0  0  0  0  0  0  0
   36.5970   27.3180   44.6440 H   0  0  0  0  0  0  0  0  0  0  0  0
   37.8100   28.8080   43.7860 C   0  0  0  0  0  3  0  0  0  0  0  0
   38.2500   29.3520   42.6200 C   0  0  0  0  0  3  0  0  0  0  0  0
   32.5280   29.7210   36.4730 C   0  0  0  0  0  0  0  0  0  0  0  0
   32.9660   30.7070   36.6640 H   0  0  0  0  0  0  0  0  0  0  0  0
   32.7450   29.4400   35.4210 H   0  0  0  0  0  0  0  0  0  0  0  0
   31.0450   29.6710   36.7100 C   0  0  1  0  0  0  0  0  0  0  0  0
   30.4860   30.6840   37.6590 C   0  0  0  0  0  0  0  0  0  0  0  0
   30.1910   30.7950   36.2440 C   0  0  1  0  0  0  0  0  0  0  0  0
   30.5740   28.6680   36.7340 H   0  0  0  0  0  0  0  0  0  0  0  0
   31.2170   31.3520   38.1570 H   0  0  0  0  0  0  0  0  0  0  0  0
   29.6900   30.3630   38.3610 H   0  0  0  0  0  0  0  0  0  0  0  0
   29.1430   30.4960   35.9320 H   0  0  0  0  0  0  0  0  0  0  0  0
   30.7900   31.7890   35.3290 C   0  0  0  0  0  0  0  0  0  0  0  0
   29.7750   32.4290   34.3410 C   0  0  0  0  0  0  0  0  0  0  0  0
   30.7530   31.4310   33.8220 C   0  0  0  0  0  0  0  0  0  0  0  0
   31.5930   32.4650   35.6620 H   0  0  0  0  0  0  0  0  0  0  0  0
   29.9340   33.4780   34.0970 H   0  0  0  0  0  0  0  0  0  0  0  0
   28.7190   32.1160   34.4210 H   0  0  0  0  0  0  0  0  0  0  0  0
   30.4560   30.4190   33.5460 H   0  0  0  0  0  0  0  0  0  0  0  0
   31.6470   31.8030   33.2580 H   0  0  0  0  0  0  0  0  0  0  0  0
  1  7  1  0  0  0  0
  2  1  2  0  0  0  0
  3  4  1  0  0  0  0
  4  5  2  0  0  0  0
  4 10  1  0  0  0  0
  5 13  1  0  0  0  0
  6  5  1  0  0  0  0
  7  6  2  0  0  0  0
  8  7  1  0  0  0  0
  8  3  2  0  0  0  0
  9  3  1  0  0  0  0
 11 12  1  0  0  0  0
 12 19  1  0  0  0  0
 13 12  2  0  0  0  0
 13 14  1  0  0  0  0
 14 15  1  0  0  0  0
 14 16  2  0  0  0  0
 16 18  1  0  0  0  0
 16 17  1  0  0  0  0
 19 18  2  0  0  0  0
 20 21  1  0  0  0  0
 20 23  1  0  0  0  0
 20  2  1  0  0  0  0
 22 20  1  0  0  0  0
 23 26  1  1  0  0  0
 23 24  1  0  0  0  0
 24 27  1  0  0  0  0
 24 28  1  0  0  0  0
 25 29  1  6  0  0  0
 25 23  1  0  0  0  0
 25 24  1  0  0  0  0
 30 33  1  0  0  0  0
 30 25  1  0  0  0  0
 31 35  1  0  0  0  0
 31 30  1  0  0  0  0
 32 31  1  0  0  0  0
 32 30  1  0  0  0  0
 34 31  1  0  0  0  0
 36 32  1  0  0  0  0
 37 32  1  0  0  0  0
M  END
>  <minimizedAffinity>
-5.32597256

$$$$

 OpenBabel03252508163D

 37 40  0  0  1  0  0  0  0  0999 V2000
   35.1560   28.5400   38.3450 C   0  0  0  0  0  3  0  0  0  0  0  0
   33.9090   28.7880   38.2620 C   0  0  0  0  0  3  0  0  0  0  0  0
   36.6230   28.5540   41.7220 C   0  0  0  0  0  0  0  0  0  0  0  0
   37.2400   29.8100   41.7960 C   0  0  0  0  0  0  0  0  0  0  0  0
   37.1430   30.5970   40.6890 C   0  0  0  0  0  0  0  0  0  0  0  0
   36.4700   30.1080   39.6240 N   0  0  0  0  0  0  0  0  0  0  0  0
   35.8840   28.9220   39.5510 C   0  0  0  0  0  0  0  0  0  0  0  0
   35.9760   28.1570   40.6190 N   0  0  0  0  0  0  0  0  0  0  0  0
   36.6860   27.9000   42.6000 H   0  0  0  0  0  0  0  0  0  0  0  0
   37.7620   30.1540   42.6630 H   0  0  0  0  0  0  0  0  0  0  0  0
   39.5880   31.6270   41.8190 F   0  0  0  0  0  0  0  0  0  0  0  0
   38.8460   32.4420   41.0420 C   0  0  0  0  0  0  0  0  0  0  0  0
   37.6960   31.9310   40.5210 C   0  0  0  0  0  0  0  0  0  0  0  0
   37.0190   32.8600   39.7410 C   0  0  0  0  0  0  0  0  0  0  0  0
   36.0820   32.6160   39.2510 H   0  0  0  0  0  0  0  0  0  0  0  0
   37.4540   34.1390   39.5200 C   0  0  0  0  0  0  0  0  0  0  0  0
   36.9000   34.8340   38.9080 H   0  0  0  0  0  0  0  0  0  0  0  0
   38.6280   34.5820   40.0820 C   0  0  0  0  0  3  0  0  0  0  0  0
   39.3320   33.7130   40.8560 C   0  0  0  0  0  3  0  0  0  0  0  0
   33.2430   28.3410   36.9660 C   0  0  0  0  0  0  0  0  0  0  0  0
   33.8510   27.5930   36.4440 H   0  0  0  0  0  0  0  0  0  0  0  0
   32.2990   27.8590   37.2950 H   0  0  0  0  0  0  0  0  0  0  0  0
   32.9250   29.5440   36.1230 C   0  0  1  0  0  0  0  0  0  0  0  0
   32.0550   29.3110   34.9280 C   0  0  0  0  0  0  0  0  0  0  0  0
   31.5270   30.0450   36.0610 C   0  0  1  0  0  0  0  0  0  0  0  0
   33.7280   30.2990   36.0020 H   0  0  0  0  0  0  0  0  0  0  0  0
   31.7640   28.2600   34.7250 H   0  0  0  0  0  0  0  0  0  0  0  0
   32.2960   29.8500   33.9900 H   0  0  0  0  0  0  0  0  0  0  0  0
   31.4310   31.1650   35.9230 H   0  0  0  0  0  0  0  0  0  0  0  0
   30.5540   29.5110   37.0370 C   0  0  0  0  0  0  0  0  0  0  0  0
   29.3600   30.4640   37.3230 C   0  0  0  0  0  0  0  0  0  0  0  0
   30.4190   30.3040   38.3610 C   0  0  0  0  0  0  0  0  0  0  0  0
   30.3020   28.4390   37.0690 H   0  0  0  0  0  0  0  0  0  0  0  0
   28.3950   29.9910   37.4980 H   0  0  0  0  0  0  0  0  0  0  0  0
   29.3270   31.4200   36.7710 H   0  0  0  0  0  0  0  0  0  0  0  0
   31.1530   31.0840   38.5640 H   0  0  0  0  0  0  0  0  0  0  0  0
   30.2040   29.6510   39.2470 H   0  0  0  0  0  0  0  0  0  0  0  0
  1  7  1  0  0  0  0
  2  1  2  0  0  0  0
  3  4  1  0  0  0  0
  3  9  1  0  0  0  0
  4 10  1  0  0  0  0
  5  4  2  0  0  0  0
  6  5  1  0  0  0  0
  7  6  2  0  0  0  0
  7  8  1  0  0  0  0
  8  3  2  0  0  0  0
 12 11  1  0  0  0  0
 13  5  1  0  0  0  0
 13 12  2  0  0  0  0
 14 13  1  0  0  0  0
 15 14  1  0  0  0  0
 16 14  2  0  0  0  0
 16 18  1  0  0  0  0
 17 16  1  0  0  0  0
 18 19  2  0  0  0  0
 19 12  1  0  0  0  0
 20 22  1  0  0  0  0
 20  2  1  0  0  0  0
 21 20  1  0  0  0  0
 23 26  1  6  0  0  0
 23 20  1  0  0  0  0
 24 25  1  0  0  0  0
 24 23  1  0  0  0  0
 25 29  1  6  0  0  0
 25 23  1  0  0  0  0
 25 30  1  0  0  0  0
 27 24  1  0  0  0  0
 28 24  1  0  0  0  0
 30 33  1  0  0  0  0
 30 31  1  0  0  0  0
 30 32  1  0  0  0  0
 31 34  1  0  0  0  0
 31 32  1  0  0  0  0
 32 36  1  0  0  0  0
 32 37  1  0  0  0  0
 35 31  1  0  0  0  0
M  END
>  <minimizedAffinity>
-5.18208742

$$$$
