
 OpenBabel03252508143D

 37 40  0  0  1  0  0  0  0  0999 V2000
   46.0440   33.0850   46.0520 C   0  0  0  0  0  3  0  0  0  0  0  0
   46.8530   32.1560   45.7250 C   0  0  0  0  0  3  0  0  0  0  0  0
   44.5580   36.0150   44.3890 C   0  0  0  0  0  0  0  0  0  0  0  0
   45.1160   35.9690   43.1040 C   0  0  0  0  0  0  0  0  0  0  0  0
   45.9870   34.9500   42.8590 C   0  0  0  0  0  0  0  0  0  0  0  0
   46.2370   34.0800   43.8620 N   0  0  0  0  0  0  0  0  0  0  0  0
   45.7100   34.1200   45.0770 C   0  0  0  0  0  0  0  0  0  0  0  0
   44.8680   35.1030   45.3180 N   0  0  0  0  0  0  0  0  0  0  0  0
   43.8540   36.8260   44.6120 H   0  0  0  0  0  0  0  0  0  0  0  0
   44.8870   36.6830   42.3420 H   0  0  0  0  0  0  0  0  0  0  0  0
   48.5470   36.0070   42.0500 F   0  0  0  0  0  0  0  0  0  0  0  0
   47.8990   35.1770   41.2090 C   0  0  0  0  0  0  0  0  0  0  0  0
   46.6920   34.6920   41.6150 C   0  0  0  0  0  0  0  0  0  0  0  0
   46.1230   33.8500   40.6680 C   0  0  0  0  0  0  0  0  0  0  0  0
   45.1590   33.3780   40.8340 H   0  0  0  0  0  0  0  0  0  0  0  0
   46.7030   33.5430   39.4680 C   0  0  0  0  0  0  0  0  0  0  0  0
   46.2300   32.8840   38.7560 H   0  0  0  0  0  0  0  0  0  0  0  0
   47.9250   34.0730   39.1280 C   0  0  0  0  0  3  0  0  0  0  0  0
   48.5300   34.9040   40.0190 C   0  0  0  0  0  3  0  0  0  0  0  0
   47.1270   31.1230   46.8120 C   0  0  0  0  0  0  0  0  0  0  0  0
   46.5870   30.1890   46.6190 H   0  0  0  0  0  0  0  0  0  0  0  0
   48.2160   30.9220   46.7290 H   0  0  0  0  0  0  0  0  0  0  0  0
   46.8280   31.7190   48.1580 C   0  0  1  0  0  0  0  0  0  0  0  0
   46.2130   30.8050   49.1710 C   0  0  0  0  0  0  0  0  0  0  0  0
   47.5810   31.2500   49.3500 C   0  0  1  0  0  0  0  0  0  0  0  0
   46.4780   32.7710   48.1750 H   0  0  0  0  0  0  0  0  0  0  0  0
   45.9730   29.7780   48.8300 H   0  0  0  0  0  0  0  0  0  0  0  0
   45.4150   31.2080   49.8270 H   0  0  0  0  0  0  0  0  0  0  0  0
   47.7440   32.0380   50.1480 H   0  0  0  0  0  0  0  0  0  0  0  0
   48.7800   30.4150   49.1290 C   0  0  0  0  0  0  0  0  0  0  0  0
   49.6590   30.2260   50.3970 C   0  0  0  0  0  0  0  0  0  0  0  0
   50.1430   31.1260   49.3110 C   0  0  0  0  0  0  0  0  0  0  0  0
   48.7560   29.5440   48.4550 H   0  0  0  0  0  0  0  0  0  0  0  0
   50.1410   29.2560   50.5120 H   0  0  0  0  0  0  0  0  0  0  0  0
   49.3120   30.6970   51.3330 H   0  0  0  0  0  0  0  0  0  0  0  0
   50.1420   32.2110   49.4150 H   0  0  0  0  0  0  0  0  0  0  0  0
   50.9370   30.7450   48.6160 H   0  0  0  0  0  0  0  0  0  0  0  0
  2  1  2  0  0  0  0
  2 20  1  0  0  0  0
  3  9  1  0  0  0  0
  3  8  1  0  0  0  0
  4  3  2  0  0  0  0
  5  4  1  0  0  0  0
  5  6  2  0  0  0  0
  6  7  1  0  0  0  0
  7  8  2  0  0  0  0
  7  1  1  0  0  0  0
 10  4  1  0  0  0  0
 12 13  1  0  0  0  0
 12 11  1  0  0  0  0
 13  5  1  0  0  0  0
 14 15  1  0  0  0  0
 14 13  2  0  0  0  0
 16 14  1  0  0  0  0
 17 16  1  0  0  0  0
 18 16  2  0  0  0  0
 18 19  1  0  0  0  0
 19 12  2  0  0  0  0
 20 23  1  0  0  0  0
 21 20  1  0  0  0  0
 22 20  1  0  0  0  0
 23 26  1  1  0  0  0
 23 24  1  0  0  0  0
 23 25  1  0  0  0  0
 24 25  1  0  0  0  0
 24 28  1  0  0  0  0
 25 29  1  1  0  0  0
 27 24  1  0  0  0  0
 30 32  1  0  0  0  0
 30 25  1  0  0  0  0
 30 31  1  0  0  0  0
 31 34  1  0  0  0  0
 31 35  1  0  0  0  0
 32 36  1  0  0  0  0
 32 31  1  0  0  0  0
 33 30  1  0  0  0  0
 37 32  1  0  0  0  0
M  END
>  <minimizedAffinity>
-6.31810617

>  <minimizedRMSD>
0.425574273

$$$$
