
 OpenBabel03242522593D

 31 33  0  0  0  0  0  0  0  0999 V2000
   45.1480   33.5640   47.0710 C   0  0  0  0  0  0  0  0  0  0  0  0
   45.3800   33.9860   45.7570 C   0  0  0  0  0  0  0  0  0  0  0  0
   46.3230   33.3470   44.9620 C   0  0  0  0  0  0  0  0  0  0  0  0
   47.0040   32.3010   45.5190 N   0  0  0  0  0  0  0  0  0  0  0  0
   46.7570   31.9180   46.7920 C   0  0  0  0  0  0  0  0  0  0  0  0
   45.8450   32.5350   47.5610 N   0  0  0  0  0  0  0  0  0  0  0  0
   44.3980   34.1410   47.5690 H   0  0  0  0  0  0  0  0  0  0  0  0
   44.8900   34.7910   45.2530 H   0  0  0  0  0  0  0  0  0  0  0  0
   44.3660   32.3340   42.9420 Cl  0  0  0  0  0  0  0  0  0  0  0  0
   45.7550   33.3250   42.5990 C   0  0  0  0  0  0  0  0  0  0  0  0
   46.6060   33.7500   43.5780 C   0  0  0  0  0  0  0  0  0  0  0  0
   47.6580   34.5220   43.1750 C   0  0  0  0  0  0  0  0  0  0  0  0
   47.8870   34.8730   41.8980 C   0  0  0  0  0  0  0  0  0  0  0  0
   47.0290   34.4460   40.9030 C   0  0  0  0  0  0  0  0  0  0  0  0
   45.9630   33.6690   41.2730 C   0  0  0  0  0  0  0  0  0  0  0  0
   48.3490   34.8700   43.9520 H   0  0  0  0  0  0  0  0  0  0  0  0
   47.1720   34.7030   39.8600 H   0  0  0  0  0  0  0  0  0  0  0  0
   45.2890   33.3350   40.4830 H   0  0  0  0  0  0  0  0  0  0  0  0
   49.0520   35.7230   41.4870 C   0  0  0  0  0  0  0  0  0  0  0  0
   50.1980   35.0790   41.8540 F   0  0  0  0  0  0  0  0  0  0  0  0
   48.9450   36.9920   42.0250 F   0  0  0  0  0  0  0  0  0  0  0  0
   49.0010   35.8520   40.0970 F   0  0  0  0  0  0  0  0  0  0  0  0
   48.6070   32.1990   48.8010 F   0  0  0  0  0  0  0  0  0  0  0  0
   48.4720   30.9410   48.3090 C   0  0  0  0  0  0  0  0  0  0  0  0
   47.5380   30.7900   47.2920 C   0  0  0  0  0  0  0  0  0  0  0  0
   47.3360   29.5430   46.7350 C   0  0  0  0  0  0  0  0  0  0  0  0
   46.6180   29.3550   45.9330 H   0  0  0  0  0  0  0  0  0  0  0  0
   48.0730   28.4550   47.2000 C   0  0  0  0  0  0  0  0  0  0  0  0
   47.8910   27.4830   46.7390 H   0  0  0  0  0  0  0  0  0  0  0  0
   49.0010   28.6100   48.2110 C   0  0  0  0  0  0  0  0  0  0  0  0
   49.2040   29.8630   48.7720 C   0  0  0  0  0  0  0  0  0  0  0  0
  1  6  1  0  0  0  0
  1  7  1  0  0  0  0
  2  1  2  0  0  0  0
  3  4  2  0  0  0  0
  3  2  1  0  0  0  0
  4  5  1  0  0  0  0
  5 25  1  0  0  0  0
  5  6  2  0  0  0  0
  8  2  1  0  0  0  0
 10  9  1  0  0  0  0
 10 11  1  0  0  0  0
 11  3  1  0  0  0  0
 12 11  2  0  0  0  0
 12 16  1  0  0  0  0
 13 12  1  0  0  0  0
 14 15  1  0  0  0  0
 14 13  2  0  0  0  0
 15 10  2  0  0  0  0
 17 14  1  0  0  0  0
 18 15  1  0  0  0  0
 19 20  1  0  0  0  0
 19 13  1  0  0  0  0
 19 21  1  0  0  0  0
 22 19  1  0  0  0  0
 24 31  1  0  0  0  0
 24 23  1  0  0  0  0
 25 24  2  0  0  0  0
 26 28  2  0  0  0  0
 26 25  1  0  0  0  0
 27 26  1  0  0  0  0
 28 30  1  0  0  0  0
 29 28  1  0  0  0  0
 30 31  2  0  0  0  0
M  END
>  <minimizedAffinity>
-6.31308508

>  <minimizedRMSD>
1.0255214

$$$$
