
 OpenBabel03252508173D

 47 51  0  0  1  0  0  0  0  0999 V2000
   46.1470   30.9550   46.9280 C   0  0  0  0  0  0  0  0  0  0  0  0
   46.6840   30.1490   46.4650 H   0  0  0  0  0  0  0  0  0  0  0  0
   45.1040   30.5960   47.1710 H   0  0  0  0  0  0  0  0  0  0  0  0
   46.6810   31.5820   48.1610 C   0  0  1  0  0  0  0  0  0  0  0  0
   46.2860   30.9170   49.4350 C   0  0  0  0  0  0  0  0  0  0  0  0
   47.6720   30.8740   48.9940 C   0  0  1  0  0  0  0  0  0  0  0  0
   46.4780   32.6900   48.2500 H   0  0  0  0  0  0  0  0  0  0  0  0
   46.0230   31.4850   50.3490 H   0  0  0  0  0  0  0  0  0  0  0  0
   45.7230   29.9410   49.3920 H   0  0  0  0  0  0  0  0  0  0  0  0
   48.3760   31.5290   49.5480 H   0  0  0  0  0  0  0  0  0  0  0  0
   48.3010   29.6370   48.4300 C   0  0  2  0  0  0  0  0  0  0  0  0
   49.6600   29.2740   49.0820 C   0  0  0  0  0  0  0  0  0  0  0  0
   49.6450   29.8090   47.7160 C   0  0  1  0  0  0  0  0  0  0  0  0
   47.7270   28.7340   48.2230 H   0  0  0  0  0  0  0  0  0  0  0  0
   49.9990   29.9190   49.9290 H   0  0  0  0  0  0  0  0  0  0  0  0
   49.9220   28.2290   49.2410 H   0  0  0  0  0  0  0  0  0  0  0  0
   49.9970   30.8820   47.6500 H   0  0  0  0  0  0  0  0  0  0  0  0
   48.6570   30.2810   45.0430 F   0  0  0  0  0  0  0  0  0  0  0  0
   49.4690   29.2090   45.2040 C   0  0  0  0  0  0  0  0  0  0  0  0
   49.9010   29.0420   46.5020 C   0  0  0  0  0  0  0  0  0  0  0  0
   50.7430   27.9400   46.7090 C   0  0  0  0  0  0  0  0  0  0  0  0
   51.1690   27.6740   47.6880 H   0  0  0  0  0  0  0  0  0  0  0  0
   51.1210   27.0820   45.7150 C   0  0  0  0  0  0  0  0  0  0  0  0
   51.7680   26.2330   45.8670 H   0  0  0  0  0  0  0  0  0  0  0  0
   50.6740   27.2740   44.4270 C   0  0  0  0  0  3  0  0  0  0  0  0
   49.8480   28.3460   44.1980 C   0  0  0  0  0  3  0  0  0  0  0  0
   45.7650   33.1740   46.2250 C   0  0  0  0  0  3  0  0  0  0  0  0
   45.9690   31.9870   45.8360 C   0  0  0  0  0  3  0  0  0  0  0  0
   44.5230   36.1510   44.4430 C   0  0  0  0  0  0  0  0  0  0  0  0
   45.1940   36.0860   43.2230 C   0  0  0  0  0  0  0  0  0  0  0  0
   46.0390   35.0320   43.0550 C   0  0  0  0  0  0  0  0  0  0  0  0
   46.1930   34.1140   44.0450 N   0  0  0  0  0  0  0  0  0  0  0  0
   45.5300   34.2040   45.2130 C   0  0  0  0  0  0  0  0  0  0  0  0
   44.7070   35.2280   45.3780 N   0  0  0  0  0  0  0  0  0  0  0  0
   43.8440   36.9510   44.6440 H   0  0  0  0  0  0  0  0  0  0  0  0
   45.0520   36.8330   42.4540 H   0  0  0  0  0  0  0  0  0  0  0  0
   46.8030   34.8340   41.8320 C   0  0  0  0  0  0  0  0  0  0  0  0
   48.0260   35.3790   41.5780 C   0  0  0  0  0  0  0  0  0  0  0  0
   48.7320   35.1760   40.4090 C   0  0  0  0  0  0  0  0  0  0  0  0
   48.2020   34.3820   39.4150 C   0  0  0  0  0  0  0  0  0  0  0  0
   46.9750   33.8050   39.6100 C   0  0  0  0  0  0  0  0  0  0  0  0
   46.3150   34.0420   40.7970 C   0  0  0  0  0  0  0  0  0  0  0  0
   48.4810   36.0150   42.3370 H   0  0  0  0  0  0  0  0  0  0  0  0
   49.7060   35.6420   40.2690 H   0  0  0  0  0  0  0  0  0  0  0  0
   48.7510   34.2190   38.4960 H   0  0  0  0  0  0  0  0  0  0  0  0
   46.5320   33.1740   38.8450 H   0  0  0  0  0  0  0  0  0  0  0  0
   45.3320   33.5560   40.9070 H   0  0  0  0  0  0  0  0  0  0  0  0
  1  3  1  0  0  0  0
  1  4  1  0  0  0  0
  2  1  1  0  0  0  0
  4  7  1  1  0  0  0
  4  6  1  0  0  0  0
  4  5  1  0  0  0  0
  5  8  1  0  0  0  0
  6  5  1  0  0  0  0
  6 10  1  1  0  0  0
  9  5  1  0  0  0  0
 11 14  1  6  0  0  0
 11  6  1  0  0  0  0
 11 12  1  0  0  0  0
 12 16  1  0  0  0  0
 12 15  1  0  0  0  0
 13 17  1  6  0  0  0
 13 11  1  0  0  0  0
 13 12  1  0  0  0  0
 18 19  1  0  0  0  0
 19 20  1  0  0  0  0
 20 21  2  0  0  0  0
 20 13  1  0  0  0  0
 21 22  1  0  0  0  0
 23 24  1  0  0  0  0
 23 21  1  0  0  0  0
 25 23  2  0  0  0  0
 26 25  1  0  0  0  0
 26 19  2  0  0  0  0
 28 27  2  0  0  0  0
 28  1  1  0  0  0  0
 29 35  1  0  0  0  0
 29 34  1  0  0  0  0
 30 29  2  0  0  0  0
 31 30  1  0  0  0  0
 31 32  2  0  0  0  0
 32 33  1  0  0  0  0
 33 34  2  0  0  0  0
 33 27  1  0  0  0  0
 36 30  1  0  0  0  0
 37 31  1  0  0  0  0
 38 37  1  0  0  0  0
 38 43  1  0  0  0  0
 39 38  2  0  0  0  0
 40 41  2  0  0  0  0
 40 39  1  0  0  0  0
 41 42  1  0  0  0  0
 42 47  1  0  0  0  0
 42 37  2  0  0  0  0
 44 39  1  0  0  0  0
 45 40  1  0  0  0  0
 46 41  1  0  0  0  0
M  END
>  <minimizedAffinity>
-6.01869059

>  <minimizedRMSD>
2.26221466

$$$$
