
 OpenBabel03252501383D

 35 37  0  0  0  0  0  0  0  0999 V2000
   42.8960   32.0630   39.4010 Cl  0  0  0  0  0  0  0  0  0  0  0  0
   41.9460   33.4690   39.8550 C   0  0  0  0  0  0  0  0  0  0  0  0
   42.5220   34.6270   40.3880 C   0  0  0  0  0  0  0  0  0  0  0  0
   41.7300   35.6890   40.7220 C   0  0  0  0  0  0  0  0  0  0  0  0
   40.3580   35.6930   40.5640 C   0  0  0  0  0  0  0  0  0  0  0  0
   39.7580   34.5390   40.0300 C   0  0  0  0  0  0  0  0  0  0  0  0
   38.0210   34.4560   39.7950 Cl  0  0  0  0  0  0  0  0  0  0  0  0
   40.5770   33.4880   39.7040 C   0  0  0  0  0  0  0  0  0  0  0  0
   42.2090   36.5750   41.1330 H   0  0  0  0  0  0  0  0  0  0  0  0
   39.7580   36.5500   40.8380 H   0  0  0  0  0  0  0  0  0  0  0  0
   39.7240   31.4950   41.3580 F   0  0  0  0  0  0  0  0  0  0  0  0
   39.5440   31.2890   40.0110 C   0  0  0  0  0  0  0  0  0  0  0  0
   39.9660   32.2820   39.1480 C   0  0  0  0  0  0  0  0  0  0  0  0
   39.7610   32.0260   37.7890 C   0  0  0  0  0  0  0  0  0  0  0  0
   40.0900   32.8010   37.1130 H   0  0  0  0  0  0  0  0  0  0  0  0
   39.1700   30.8430   37.3930 C   0  0  0  0  0  0  0  0  0  0  0  0
   39.0160   30.6560   36.3370 H   0  0  0  0  0  0  0  0  0  0  0  0
   38.7670   29.8810   38.3250 C   0  0  0  0  0  0  0  0  0  0  0  0
   38.9510   30.0930   39.6850 C   0  0  0  0  0  0  0  0  0  0  0  0
   43.9090   34.6020   40.5390 O   0  0  0  0  0  0  0  0  0  0  0  0
   44.4290   34.2010   41.7740 C   0  0  0  0  0  0  0  0  0  0  0  0
   44.0710   33.1800   42.4540 O   0  0  0  0  0  0  0  0  0  0  0  0
   45.4680   34.9450   42.4190 N   0  0  0  0  0  0  0  0  0  0  0  0
   45.8760   35.7780   41.9910 H   0  0  0  0  0  0  0  0  0  0  0  0
   45.7820   34.3200   43.6860 C   0  0  0  0  0  0  0  0  0  0  0  0
   45.1410   34.5730   44.8690 C   0  0  0  0  0  0  0  0  0  0  0  0
   45.5740   33.8810   45.9820 C   0  0  0  0  0  0  0  0  0  0  0  0
   46.5990   33.0070   45.8150 N   0  0  0  0  0  0  0  0  0  0  0  0
   47.2030   32.7850   44.6330 C   0  0  0  0  0  0  0  0  0  0  0  0
   46.7900   33.4570   43.5300 N   0  0  0  0  0  0  0  0  0  0  0  0
   45.0840   34.0680   46.9170 H   0  0  0  0  0  0  0  0  0  0  0  0
   48.0240   32.0550   44.6070 H   0  0  0  0  0  0  0  0  0  0  0  0
   44.0900   35.5200   44.8600 N   0  0  0  0  0  0  0  0  0  0  0  0
   43.1790   35.0430   45.0580 H   0  0  0  0  0  0  0  0  0  0  0  0
   44.2620   36.5220   44.6800 H   0  0  0  0  0  0  0  0  0  0  0  0
  1  2  1  0  0  0  0
  2  3  1  0  0  0  0
  3 20  1  0  0  0  0
  3  4  2  0  0  0  0
  4  9  1  0  0  0  0
  5  4  1  0  0  0  0
  5 10  1  0  0  0  0
  6  5  2  0  0  0  0
  7  6  1  0  0  0  0
  8  2  2  0  0  0  0
  8  6  1  0  0  0  0
 12 11  1  0  0  0  0
 13  8  1  0  0  0  0
 13 12  2  0  0  0  0
 14 13  1  0  0  0  0
 15 14  1  0  0  0  0
 16 14  2  0  0  0  0
 16 18  1  0  0  0  0
 17 16  1  0  0  0  0
 18 19  2  0  0  0  0
 19 12  1  0  0  0  0
 20 21  1  0  0  0  0
 21 23  1  0  0  0  0
 21 22  2  0  0  0  0
 23 25  1  0  0  0  0
 24 23  1  0  0  0  0
 25 26  1  0  0  0  0
 26 27  2  0  0  0  0
 27 31  1  0  0  0  0
 28 27  1  0  0  0  0
 29 28  2  0  0  0  0
 30 25  2  0  0  0  0
 30 29  1  0  0  0  0
 32 29  1  0  0  0  0
 33 26  1  0  0  0  0
 33 34  1  0  0  0  0
 35 33  1  0  0  0  0
M  END
>  <minimizedAffinity>
-6.0539999

>  <minimizedRMSD>
1.48328698

$$$$
