
 OpenBabel03242523013D

 31 33  0  0  0  0  0  0  0  0999 V2000
   36.3300   29.8470   37.3170 C   0  0  0  0  0  0  0  0  0  0  0  0
   36.2840   28.7870   38.2300 C   0  0  0  0  0  0  0  0  0  0  0  0
   37.0740   28.7990   39.3730 C   0  0  0  0  0  0  0  0  0  0  0  0
   37.8870   29.8810   39.5580 N   0  0  0  0  0  0  0  0  0  0  0  0
   37.9090   30.8890   38.6570 C   0  0  0  0  0  0  0  0  0  0  0  0
   37.1460   30.8780   37.5530 N   0  0  0  0  0  0  0  0  0  0  0  0
   35.6730   29.7090   36.4840 H   0  0  0  0  0  0  0  0  0  0  0  0
   35.6760   27.9110   38.1550 H   0  0  0  0  0  0  0  0  0  0  0  0
   37.1480   29.7030   42.2210 Cl  0  0  0  0  0  0  0  0  0  0  0  0
   37.0960   28.0490   41.6850 C   0  0  0  0  0  0  0  0  0  0  0  0
   37.0640   27.7130   40.3610 C   0  0  0  0  0  0  0  0  0  0  0  0
   37.0250   26.3780   40.0740 C   0  0  0  0  0  0  0  0  0  0  0  0
   37.0170   25.4090   41.0070 C   0  0  0  0  0  0  0  0  0  0  0  0
   37.0500   25.7430   42.3460 C   0  0  0  0  0  0  0  0  0  0  0  0
   37.0890   27.0740   42.6690 C   0  0  0  0  0  0  0  0  0  0  0  0
   36.9990   26.0950   39.0160 H   0  0  0  0  0  0  0  0  0  0  0  0
   37.0440   24.9980   43.1330 H   0  0  0  0  0  0  0  0  0  0  0  0
   37.1150   27.3310   43.7290 H   0  0  0  0  0  0  0  0  0  0  0  0
   36.9740   23.9510   40.6590 C   0  0  0  0  0  0  0  0  0  0  0  0
   37.6260   23.2610   41.6380 F   0  0  0  0  0  0  0  0  0  0  0  0
   37.4980   23.7330   39.3990 F   0  0  0  0  0  0  0  0  0  0  0  0
   35.6280   23.5730   40.6240 F   0  0  0  0  0  0  0  0  0  0  0  0
   37.2350   32.9030   40.3980 F   0  0  0  0  0  0  0  0  0  0  0  0
   38.4630   33.0140   39.8300 C   0  0  0  0  0  0  0  0  0  0  0  0
   38.8120   31.9990   38.9480 C   0  0  0  0  0  0  0  0  0  0  0  0
   40.0440   32.0340   38.3270 C   0  0  0  0  0  0  0  0  0  0  0  0
   40.3820   31.2690   37.6230 H   0  0  0  0  0  0  0  0  0  0  0  0
   40.9200   33.0850   38.5930 C   0  0  0  0  0  0  0  0  0  0  0  0
   41.8850   33.0840   38.0860 H   0  0  0  0  0  0  0  0  0  0  0  0
   40.5680   34.0920   39.4710 C   0  0  0  0  0  3  0  0  0  0  0  0
   39.3300   34.0580   40.0950 C   0  0  0  0  0  3  0  0  0  0  0  0
  1  6  2  0  0  0  0
  1  2  1  0  0  0  0
  2  3  2  0  0  0  0
  3  4  1  0  0  0  0
  3 11  1  0  0  0  0
  5 25  1  0  0  0  0
  5  4  2  0  0  0  0
  6  5  1  0  0  0  0
  7  1  1  0  0  0  0
  8  2  1  0  0  0  0
 10  9  1  0  0  0  0
 10 15  1  0  0  0  0
 11 10  2  0  0  0  0
 12 11  1  0  0  0  0
 12 13  2  0  0  0  0
 13 14  1  0  0  0  0
 14 15  2  0  0  0  0
 14 17  1  0  0  0  0
 15 18  1  0  0  0  0
 16 12  1  0  0  0  0
 19 13  1  0  0  0  0
 19 20  1  0  0  0  0
 21 19  1  0  0  0  0
 22 19  1  0  0  0  0
 24 31  1  0  0  0  0
 24 23  1  0  0  0  0
 25 24  2  0  0  0  0
 26 28  2  0  0  0  0
 26 25  1  0  0  0  0
 27 26  1  0  0  0  0
 28 30  1  0  0  0  0
 29 28  1  0  0  0  0
 30 31  2  0  0  0  0
M  END
>  <minimizedAffinity>
-6.05355597

$$$$

 OpenBabel03242523013D

 31 33  0  0  0  0  0  0  0  0999 V2000
   33.4010   26.8690   36.5130 C   0  0  0  0  0  0  0  0  0  0  0  0
   34.5020   27.1290   37.3370 C   0  0  0  0  0  0  0  0  0  0  0  0
   34.6350   28.3520   37.9810 C   0  0  0  0  0  0  0  0  0  0  0  0
   33.6520   29.2780   37.7720 N   0  0  0  0  0  0  0  0  0  0  0  0
   32.6000   28.9970   36.9680 C   0  0  0  0  0  0  0  0  0  0  0  0
   32.4710   27.8140   36.3460 N   0  0  0  0  0  0  0  0  0  0  0  0
   33.4240   25.8910   36.0800 H   0  0  0  0  0  0  0  0  0  0  0  0
   35.3070   26.4580   37.5490 H   0  0  0  0  0  0  0  0  0  0  0  0
   36.7910   29.9680   36.6860 Cl  0  0  0  0  0  0  0  0  0  0  0  0
   36.7940   29.4110   38.3340 C   0  0  0  0  0  0  0  0  0  0  0  0
   35.7690   28.6750   38.8560 C   0  0  0  0  0  0  0  0  0  0  0  0
   35.8950   28.3010   40.1640 C   0  0  0  0  0  0  0  0  0  0  0  0
   36.9500   28.6150   40.9370 C   0  0  0  0  0  0  0  0  0  0  0  0
   37.9880   29.3600   40.4130 C   0  0  0  0  0  0  0  0  0  0  0  0
   37.8940   29.7520   39.1040 C   0  0  0  0  0  0  0  0  0  0  0  0
   35.0790   27.7100   40.5950 H   0  0  0  0  0  0  0  0  0  0  0  0
   38.8580   29.6370   40.9970 H   0  0  0  0  0  0  0  0  0  0  0  0
   38.7180   30.3390   38.6970 H   0  0  0  0  0  0  0  0  0  0  0  0
   37.0580   28.1890   42.3700 C   0  0  0  0  0  0  0  0  0  0  0  0
   35.8500   27.6850   42.7560 F   0  0  0  0  0  0  0  0  0  0  0  0
   37.4870   29.2380   43.1620 F   0  0  0  0  0  0  0  0  0  0  0  0
   38.0340   27.1900   42.4330 F   0  0  0  0  0  0  0  0  0  0  0  0
   31.0150   29.8320   39.0490 F   0  0  0  0  0  0  0  0  0  0  0  0
   30.8070   30.4700   37.8680 C   0  0  0  0  0  0  0  0  0  0  0  0
   31.6050   30.0530   36.8110 C   0  0  0  0  0  0  0  0  0  0  0  0
   31.4590   30.6500   35.5750 C   0  0  0  0  0  0  0  0  0  0  0  0
   32.0540   30.3710   34.7010 H   0  0  0  0  0  0  0  0  0  0  0  0
   30.5140   31.6610   35.4060 C   0  0  0  0  0  0  0  0  0  0  0  0
   30.4220   32.1120   34.4170 H   0  0  0  0  0  0  0  0  0  0  0  0
   29.7230   32.0710   36.4610 C   0  0  0  0  0  3  0  0  0  0  0  0
   29.8690   31.4720   37.7040 C   0  0  0  0  0  3  0  0  0  0  0  0
  1  2  1  0  0  0  0
  2  8  1  0  0  0  0
  2  3  2  0  0  0  0
  3 11  1  0  0  0  0
  4  3  1  0  0  0  0
  5  4  2  0  0  0  0
  6  1  2  0  0  0  0
  6  5  1  0  0  0  0
  7  1  1  0  0  0  0
  9 10  1  0  0  0  0
 10 11  2  0  0  0  0
 10 15  1  0  0  0  0
 11 12  1  0  0  0  0
 12 16  1  0  0  0  0
 12 13  2  0  0  0  0
 13 19  1  0  0  0  0
 14 13  1  0  0  0  0
 14 17  1  0  0  0  0
 15 14  2  0  0  0  0
 18 15  1  0  0  0  0
 19 22  1  0  0  0  0
 19 20  1  0  0  0  0
 19 21  1  0  0  0  0
 24 23  1  0  0  0  0
 25  5  1  0  0  0  0
 25 24  2  0  0  0  0
 26 25  1  0  0  0  0
 27 26  1  0  0  0  0
 28 26  2  0  0  0  0
 28 30  1  0  0  0  0
 29 28  1  0  0  0  0
 30 31  2  0  0  0  0
 31 24  1  0  0  0  0
M  END
>  <minimizedAffinity>
-5.9912343

$$$$

 OpenBabel03242523013D

 31 33  0  0  0  0  0  0  0  0999 V2000
   37.5290   33.3700   39.9020 C   0  0  0  0  0  0  0  0  0  0  0  0
   37.0510   32.0700   40.1070 C   0  0  0  0  0  0  0  0  0  0  0  0
   37.8900   30.9730   39.9610 C   0  0  0  0  0  0  0  0  0  0  0  0
   39.1880   31.2220   39.6120 N   0  0  0  0  0  0  0  0  0  0  0  0
   39.6190   32.4890   39.4210 C   0  0  0  0  0  0  0  0  0  0  0  0
   38.8090   33.5500   39.5620 N   0  0  0  0  0  0  0  0  0  0  0  0
   36.7800   34.1180   40.0470 H   0  0  0  0  0  0  0  0  0  0  0  0
   36.0540   31.7970   40.3800 H   0  0  0  0  0  0  0  0  0  0  0  0
   36.9830   29.5790   37.4770 Cl  0  0  0  0  0  0  0  0  0  0  0  0
   37.0100   28.8890   39.0730 C   0  0  0  0  0  0  0  0  0  0  0  0
   37.4390   29.5900   40.1630 C   0  0  0  0  0  0  0  0  0  0  0  0
   37.4090   28.9320   41.3590 C   0  0  0  0  0  0  0  0  0  0  0  0
   36.9900   27.6630   41.5080 C   0  0  0  0  0  0  0  0  0  0  0  0
   36.5550   26.9490   40.4090 C   0  0  0  0  0  0  0  0  0  0  0  0
   36.5710   27.5800   39.1930 C   0  0  0  0  0  0  0  0  0  0  0  0
   37.7520   29.4840   42.2430 H   0  0  0  0  0  0  0  0  0  0  0  0
   36.2080   25.9250   40.4800 H   0  0  0  0  0  0  0  0  0  0  0  0
   36.2260   27.0100   38.3290 H   0  0  0  0  0  0  0  0  0  0  0  0
   36.9700   26.9670   42.8370 C   0  0  0  0  0  0  0  0  0  0  0  0
   38.1140   27.2930   43.5040 F   0  0  0  0  0  0  0  0  0  0  0  0
   36.8050   25.6050   42.6740 F   0  0  0  0  0  0  0  0  0  0  0  0
   35.8570   27.4430   43.5370 F   0  0  0  0  0  0  0  0  0  0  0  0
   40.4770   32.2760   36.8210 F   0  0  0  0  0  0  0  0  0  0  0  0
   41.4490   32.5370   37.7330 C   0  0  0  0  0  0  0  0  0  0  0  0
   41.0230   32.6470   39.0510 C   0  0  0  0  0  0  0  0  0  0  0  0
   41.9460   32.9130   40.0420 C   0  0  0  0  0  0  0  0  0  0  0  0
   41.6800   33.0110   41.0970 H   0  0  0  0  0  0  0  0  0  0  0  0
   43.2910   33.0660   39.7070 C   0  0  0  0  0  0  0  0  0  0  0  0
   43.9950   33.2740   40.5130 H   0  0  0  0  0  0  0  0  0  0  0  0
   43.7080   32.9550   38.3950 C   0  0  0  0  0  3  0  0  0  0  0  0
   42.7810   32.6890   37.3980 C   0  0  0  0  0  3  0  0  0  0  0  0
  1  7  1  0  0  0  0
  1  2  1  0  0  0  0
  2  8  1  0  0  0  0
  3  2  2  0  0  0  0
  3 11  1  0  0  0  0
  4  3  1  0  0  0  0
  5  6  1  0  0  0  0
  5  4  2  0  0  0  0
  6  1  2  0  0  0  0
  9 10  1  0  0  0  0
 10 15  2  0  0  0  0
 10 11  1  0  0  0  0
 11 12  2  0  0  0  0
 12 13  1  0  0  0  0
 12 16  1  0  0  0  0
 13 19  1  0  0  0  0
 14 17  1  0  0  0  0
 14 13  2  0  0  0  0
 15 14  1  0  0  0  0
 18 15  1  0  0  0  0
 19 20  1  0  0  0  0
 19 22  1  0  0  0  0
 21 19  1  0  0  0  0
 23 24  1  0  0  0  0
 24 25  1  0  0  0  0
 25  5  1  0  0  0  0
 25 26  2  0  0  0  0
 26 27  1  0  0  0  0
 28 26  1  0  0  0  0
 28 29  1  0  0  0  0
 30 28  2  0  0  0  0
 31 24  2  0  0  0  0
 31 30  1  0  0  0  0
M  END
>  <minimizedAffinity>
-5.93836164

$$$$

 OpenBabel03242523013D

 31 33  0  0  0  0  0  0  0  0999 V2000
   34.0810   26.6110   36.7240 C   0  0  0  0  0  0  0  0  0  0  0  0
   35.0700   26.9240   37.6650 C   0  0  0  0  0  0  0  0  0  0  0  0
   35.0400   28.1300   38.3530 C   0  0  0  0  0  0  0  0  0  0  0  0
   34.0130   28.9850   38.0690 N   0  0  0  0  0  0  0  0  0  0  0  0
   33.0730   28.6550   37.1530 C   0  0  0  0  0  0  0  0  0  0  0  0
   33.1010   27.4890   36.4890 N   0  0  0  0  0  0  0  0  0  0  0  0
   34.2250   25.6540   36.2690 H   0  0  0  0  0  0  0  0  0  0  0  0
   35.9000   26.3090   37.9400 H   0  0  0  0  0  0  0  0  0  0  0  0
   36.9500   30.2460   37.4540 Cl  0  0  0  0  0  0  0  0  0  0  0  0
   36.9600   29.4680   39.0100 C   0  0  0  0  0  0  0  0  0  0  0  0
   36.0510   28.5060   39.3480 C   0  0  0  0  0  0  0  0  0  0  0  0
   36.1680   27.9740   40.6010 C   0  0  0  0  0  0  0  0  0  0  0  0
   37.1080   28.3440   41.4890 C   0  0  0  0  0  0  0  0  0  0  0  0
   38.0290   29.3160   41.1520 C   0  0  0  0  0  0  0  0  0  0  0  0
   37.9400   29.8700   39.9020 C   0  0  0  0  0  0  0  0  0  0  0  0
   35.4450   27.2010   40.8860 H   0  0  0  0  0  0  0  0  0  0  0  0
   38.8040   29.6460   41.8330 H   0  0  0  0  0  0  0  0  0  0  0  0
   38.6710   30.6370   39.6420 H   0  0  0  0  0  0  0  0  0  0  0  0
   37.2100   27.7400   42.8580 C   0  0  0  0  0  0  0  0  0  0  0  0
   37.8110   28.6490   43.6800 F   0  0  0  0  0  0  0  0  0  0  0  0
   37.8730   26.5280   42.8110 F   0  0  0  0  0  0  0  0  0  0  0  0
   35.9080   27.4890   43.2980 F   0  0  0  0  0  0  0  0  0  0  0  0
   32.7750   29.9410   34.7460 F   0  0  0  0  0  0  0  0  0  0  0  0
   31.8740   30.2840   35.7030 C   0  0  0  0  0  0  0  0  0  0  0  0
   32.0190   29.6380   36.9240 C   0  0  0  0  0  0  0  0  0  0  0  0
   31.1440   29.9270   37.9520 C   0  0  0  0  0  0  0  0  0  0  0  0
   31.2010   29.4560   38.9370 H   0  0  0  0  0  0  0  0  0  0  0  0
   30.1310   30.8640   37.7510 C   0  0  0  0  0  0  0  0  0  0  0  0
   29.4570   31.0710   38.5830 H   0  0  0  0  0  0  0  0  0  0  0  0
   29.9930   31.5040   36.5350 C   0  0  0  0  0  3  0  0  0  0  0  0
   30.8710   31.2130   35.5000 C   0  0  0  0  0  3  0  0  0  0  0  0
  1  2  1  0  0  0  0
  2  8  1  0  0  0  0
  2  3  2  0  0  0  0
  3 11  1  0  0  0  0
  4  3  1  0  0  0  0
  5  4  2  0  0  0  0
  6  1  2  0  0  0  0
  6  5  1  0  0  0  0
  7  1  1  0  0  0  0
  9 10  1  0  0  0  0
 10 11  2  0  0  0  0
 10 15  1  0  0  0  0
 11 12  1  0  0  0  0
 12 16  1  0  0  0  0
 12 13  2  0  0  0  0
 13 19  1  0  0  0  0
 14 13  1  0  0  0  0
 14 17  1  0  0  0  0
 15 14  2  0  0  0  0
 18 15  1  0  0  0  0
 19 22  1  0  0  0  0
 19 20  1  0  0  0  0
 21 19  1  0  0  0  0
 23 24  1  0  0  0  0
 24 25  1  0  0  0  0
 25  5  1  0  0  0  0
 25 26  2  0  0  0  0
 26 27  1  0  0  0  0
 28 26  1  0  0  0  0
 28 29  1  0  0  0  0
 30 28  2  0  0  0  0
 31 24  2  0  0  0  0
 31 30  1  0  0  0  0
M  END
>  <minimizedAffinity>
-5.92691374

$$$$

 OpenBabel03242523013D

 31 33  0  0  0  0  0  0  0  0999 V2000
   37.3100   28.2720   43.6800 C   0  0  0  0  0  0  0  0  0  0  0  0
   37.2640   26.9730   43.1610 C   0  0  0  0  0  0  0  0  0  0  0  0
   37.4310   26.7440   41.8010 C   0  0  0  0  0  0  0  0  0  0  0  0
   37.6380   27.8360   41.0050 N   0  0  0  0  0  0  0  0  0  0  0  0
   37.6760   29.0790   41.5370 C   0  0  0  0  0  0  0  0  0  0  0  0
   37.5160   29.3000   42.8510 N   0  0  0  0  0  0  0  0  0  0  0  0
   37.1670   28.3050   44.7390 H   0  0  0  0  0  0  0  0  0  0  0  0
   37.1070   26.0730   43.7170 H   0  0  0  0  0  0  0  0  0  0  0  0
   39.9120   25.1260   42.2010 Cl  0  0  0  0  0  0  0  0  0  0  0  0
   38.4890   24.6040   41.3480 C   0  0  0  0  0  0  0  0  0  0  0  0
   37.3910   25.4020   41.2060 C   0  0  0  0  0  0  0  0  0  0  0  0
   36.3400   24.8720   40.5130 C   0  0  0  0  0  0  0  0  0  0  0  0
   36.3370   23.6370   39.9810 C   0  0  0  0  0  0  0  0  0  0  0  0
   37.4460   22.8250   40.1220 C   0  0  0  0  0  0  0  0  0  0  0  0
   38.5180   23.3270   40.8110 C   0  0  0  0  0  0  0  0  0  0  0  0
   35.4510   25.5030   40.3920 H   0  0  0  0  0  0  0  0  0  0  0  0
   37.4900   21.8240   39.7110 H   0  0  0  0  0  0  0  0  0  0  0  0
   39.3900   22.6810   40.9180 H   0  0  0  0  0  0  0  0  0  0  0  0
   35.1660   23.0830   39.2260 C   0  0  0  0  0  0  0  0  0  0  0  0
   35.5370   21.8870   38.6840 F   0  0  0  0  0  0  0  0  0  0  0  0
   34.7170   23.9900   38.2850 F   0  0  0  0  0  0  0  0  0  0  0  0
   34.1330   22.8900   40.1470 F   0  0  0  0  0  0  0  0  0  0  0  0
   35.7590   30.9750   41.0170 F   0  0  0  0  0  0  0  0  0  0  0  0
   36.9280   31.1320   40.3440 C   0  0  0  0  0  0  0  0  0  0  0  0
   37.9030   30.1770   40.6010 C   0  0  0  0  0  0  0  0  0  0  0  0
   39.1220   30.2620   39.9600 C   0  0  0  0  0  0  0  0  0  0  0  0
   39.9320   29.5450   40.1150 H   0  0  0  0  0  0  0  0  0  0  0  0
   39.3570   31.3030   39.0630 C   0  0  0  0  0  0  0  0  0  0  0  0
   40.3290   31.3420   38.5710 H   0  0  0  0  0  0  0  0  0  0  0  0
   38.3830   32.2500   38.8100 C   0  0  0  0  0  3  0  0  0  0  0  0
   37.1580   32.1650   39.4550 C   0  0  0  0  0  3  0  0  0  0  0  0
  1  7  1  0  0  0  0
  2  1  1  0  0  0  0
  2  8  1  0  0  0  0
  3  2  2  0  0  0  0
  4  5  2  0  0  0  0
  4  3  1  0  0  0  0
  5  6  1  0  0  0  0
  6  1  2  0  0  0  0
 10  9  1  0  0  0  0
 11 10  1  0  0  0  0
 11  3  1  0  0  0  0
 12 11  2  0  0  0  0
 13 14  2  0  0  0  0
 13 12  1  0  0  0  0
 14 15  1  0  0  0  0
 15 18  1  0  0  0  0
 15 10  2  0  0  0  0
 16 12  1  0  0  0  0
 17 14  1  0  0  0  0
 19 13  1  0  0  0  0
 19 22  1  0  0  0  0
 20 19  1  0  0  0  0
 21 19  1  0  0  0  0
 24 25  1  0  0  0  0
 24 23  1  0  0  0  0
 25  5  1  0  0  0  0
 26 27  1  0  0  0  0
 26 25  2  0  0  0  0
 28 26  1  0  0  0  0
 29 28  1  0  0  0  0
 30 28  2  0  0  0  0
 30 31  1  0  0  0  0
 31 24  2  0  0  0  0
M  END
>  <minimizedAffinity>
-5.87932348

$$$$

 OpenBabel03242523013D

 31 33  0  0  0  0  0  0  0  0999 V2000
   33.3490   27.0190   36.5910 C   0  0  0  0  0  0  0  0  0  0  0  0
   32.3660   27.9380   36.2070 C   0  0  0  0  0  0  0  0  0  0  0  0
   32.3790   29.2380   36.6960 C   0  0  0  0  0  0  0  0  0  0  0  0
   33.3840   29.5700   37.5590 N   0  0  0  0  0  0  0  0  0  0  0  0
   34.3200   28.6590   37.9120 C   0  0  0  0  0  0  0  0  0  0  0  0
   34.3080   27.4030   37.4390 N   0  0  0  0  0  0  0  0  0  0  0  0
   33.2210   26.0570   36.1410 H   0  0  0  0  0  0  0  0  0  0  0  0
   31.5520   27.7540   35.5390 H   0  0  0  0  0  0  0  0  0  0  0  0
   30.4630   29.9480   38.8780 Cl  0  0  0  0  0  0  0  0  0  0  0  0
   30.4610   30.6160   37.2720 C   0  0  0  0  0  0  0  0  0  0  0  0
   31.3710   30.2400   36.3260 C   0  0  0  0  0  0  0  0  0  0  0  0
   31.2600   30.8400   35.1040 C   0  0  0  0  0  0  0  0  0  0  0  0
   30.3230   31.7560   34.7990 C   0  0  0  0  0  0  0  0  0  0  0  0
   29.4000   32.1390   35.7520 C   0  0  0  0  0  0  0  0  0  0  0  0
   29.4840   31.5570   36.9890 C   0  0  0  0  0  0  0  0  0  0  0  0
   31.9850   30.5480   34.3350 H   0  0  0  0  0  0  0  0  0  0  0  0
   28.6280   32.8730   35.5530 H   0  0  0  0  0  0  0  0  0  0  0  0
   28.7510   31.8630   37.7370 H   0  0  0  0  0  0  0  0  0  0  0  0
   30.2280   32.3970   33.4470 C   0  0  0  0  0  0  0  0  0  0  0  0
   30.1340   31.4070   32.5130 F   0  0  0  0  0  0  0  0  0  0  0  0
   31.2950   33.2480   33.2320 F   0  0  0  0  0  0  0  0  0  0  0  0
   29.0650   33.1730   33.4370 F   0  0  0  0  0  0  0  0  0  0  0  0
   36.5270   30.0590   37.0690 F   0  0  0  0  0  0  0  0  0  0  0  0
   36.4640   29.8220   38.4050 C   0  0  0  0  0  0  0  0  0  0  0  0
   35.3510   29.1150   38.8390 C   0  0  0  0  0  0  0  0  0  0  0  0
   35.2080   28.8320   40.1830 C   0  0  0  0  0  0  0  0  0  0  0  0
   34.3580   28.2800   40.5920 H   0  0  0  0  0  0  0  0  0  0  0  0
   36.1830   29.2590   41.0840 C   0  0  0  0  0  0  0  0  0  0  0  0
   36.0420   29.0190   42.1380 H   0  0  0  0  0  0  0  0  0  0  0  0
   37.2890   29.9620   40.6460 C   0  0  0  0  0  3  0  0  0  0  0  0
   37.4320   30.2470   39.2960 C   0  0  0  0  0  3  0  0  0  0  0  0
  1  6  1  0  0  0  0
  2  1  2  0  0  0  0
  2  3  1  0  0  0  0
  3  4  2  0  0  0  0
  4  5  1  0  0  0  0
  5 25  1  0  0  0  0
  6  5  2  0  0  0  0
  7  1  1  0  0  0  0
  8  2  1  0  0  0  0
 10  9  1  0  0  0  0
 11  3  1  0  0  0  0
 11 10  2  0  0  0  0
 12 11  1  0  0  0  0
 13 12  2  0  0  0  0
 13 14  1  0  0  0  0
 14 15  2  0  0  0  0
 15 10  1  0  0  0  0
 15 18  1  0  0  0  0
 16 12  1  0  0  0  0
 17 14  1  0  0  0  0
 19 13  1  0  0  0  0
 20 19  1  0  0  0  0
 21 19  1  0  0  0  0
 22 19  1  0  0  0  0
 23 24  1  0  0  0  0
 24 25  2  0  0  0  0
 24 31  1  0  0  0  0
 25 26  1  0  0  0  0
 26 27  1  0  0  0  0
 26 28  2  0  0  0  0
 28 29  1  0  0  0  0
 30 28  1  0  0  0  0
 31 30  2  0  0  0  0
M  END
>  <minimizedAffinity>
-5.87502337

$$$$

 OpenBabel03242523013D

 31 33  0  0  0  0  0  0  0  0999 V2000
   36.4410   29.7350   37.3340 C   0  0  0  0  0  0  0  0  0  0  0  0
   37.3880   30.7610   37.4350 C   0  0  0  0  0  0  0  0  0  0  0  0
   38.2320   30.8430   38.5350 C   0  0  0  0  0  0  0  0  0  0  0  0
   38.0940   29.8870   39.5010 N   0  0  0  0  0  0  0  0  0  0  0  0
   37.1690   28.9080   39.3740 C   0  0  0  0  0  0  0  0  0  0  0  0
   36.3530   28.8280   38.3110 N   0  0  0  0  0  0  0  0  0  0  0  0
   35.8580   29.7900   36.4390 H   0  0  0  0  0  0  0  0  0  0  0  0
   37.5550   31.5420   36.7240 H   0  0  0  0  0  0  0  0  0  0  0  0
   37.4610   33.0430   40.4070 Cl  0  0  0  0  0  0  0  0  0  0  0  0
   38.9600   32.9380   39.5290 C   0  0  0  0  0  0  0  0  0  0  0  0
   39.2410   31.8990   38.6900 C   0  0  0  0  0  0  0  0  0  0  0  0
   40.4530   31.9370   38.0610 C   0  0  0  0  0  0  0  0  0  0  0  0
   41.3550   32.9210   38.2270 C   0  0  0  0  0  0  0  0  0  0  0  0
   41.0750   33.9740   39.0750 C   0  0  0  0  0  0  0  0  0  0  0  0
   39.8670   33.9670   39.7220 C   0  0  0  0  0  0  0  0  0  0  0  0
   40.6910   31.1090   37.3840 H   0  0  0  0  0  0  0  0  0  0  0  0
   41.7700   34.7890   39.2400 H   0  0  0  0  0  0  0  0  0  0  0  0
   39.6530   34.8020   40.3900 H   0  0  0  0  0  0  0  0  0  0  0  0
   42.6780   32.9330   37.5220 C   0  0  0  0  0  0  0  0  0  0  0  0
   43.6460   32.6120   38.4280 F   0  0  0  0  0  0  0  0  0  0  0  0
   42.8930   34.1520   36.9060 F   0  0  0  0  0  0  0  0  0  0  0  0
   42.6220   31.9620   36.5190 F   0  0  0  0  0  0  0  0  0  0  0  0
   36.5640   29.6370   41.9510 F   0  0  0  0  0  0  0  0  0  0  0  0
   36.7950   28.3120   41.7620 C   0  0  0  0  0  0  0  0  0  0  0  0
   37.1020   27.9350   40.4610 C   0  0  0  0  0  0  0  0  0  0  0  0
   37.3510   26.6070   40.1800 C   0  0  0  0  0  0  0  0  0  0  0  0
   37.5980   26.2420   39.1800 H   0  0  0  0  0  0  0  0  0  0  0  0
   37.2920   25.6640   41.2050 C   0  0  0  0  0  0  0  0  0  0  0  0
   37.4940   24.6230   40.9520 H   0  0  0  0  0  0  0  0  0  0  0  0
   36.9870   26.0450   42.4980 C   0  0  0  0  0  3  0  0  0  0  0  0
   36.7360   27.3800   42.7810 C   0  0  0  0  0  3  0  0  0  0  0  0
  1  2  2  0  0  0  0
  1  6  1  0  0  0  0
  2  3  1  0  0  0  0
  3 11  1  0  0  0  0
  3  4  2  0  0  0  0
  5  4  1  0  0  0  0
  5 25  1  0  0  0  0
  6  5  2  0  0  0  0
  7  1  1  0  0  0  0
  8  2  1  0  0  0  0
 10 15  1  0  0  0  0
 10  9  1  0  0  0  0
 11 10  2  0  0  0  0
 12 13  2  0  0  0  0
 12 11  1  0  0  0  0
 13 14  1  0  0  0  0
 14 17  1  0  0  0  0
 14 15  2  0  0  0  0
 15 18  1  0  0  0  0
 16 12  1  0  0  0  0
 19 13  1  0  0  0  0
 19 20  1  0  0  0  0
 21 19  1  0  0  0  0
 22 19  1  0  0  0  0
 24 23  1  0  0  0  0
 24 31  1  0  0  0  0
 25 24  2  0  0  0  0
 26 25  1  0  0  0  0
 26 28  2  0  0  0  0
 27 26  1  0  0  0  0
 28 30  1  0  0  0  0
 29 28  1  0  0  0  0
 30 31  2  0  0  0  0
M  END
>  <minimizedAffinity>
-5.7903018

$$$$

 OpenBabel03242523013D

 31 33  0  0  0  0  0  0  0  0999 V2000
   37.5410   28.2130   43.5300 C   0  0  0  0  0  0  0  0  0  0  0  0
   37.2650   27.1630   42.6470 C   0  0  0  0  0  0  0  0  0  0  0  0
   37.2850   27.3660   41.2730 C   0  0  0  0  0  0  0  0  0  0  0  0
   37.5830   28.6250   40.8330 N   0  0  0  0  0  0  0  0  0  0  0  0
   37.8450   29.6190   41.7120 C   0  0  0  0  0  0  0  0  0  0  0  0
   37.8250   29.4230   43.0400 N   0  0  0  0  0  0  0  0  0  0  0  0
   37.4900   27.9190   44.5570 H   0  0  0  0  0  0  0  0  0  0  0  0
   37.0250   26.1560   42.9140 H   0  0  0  0  0  0  0  0  0  0  0  0
   35.5290   28.1810   38.9950 Cl  0  0  0  0  0  0  0  0  0  0  0  0
   36.2070   26.5970   39.2350 C   0  0  0  0  0  0  0  0  0  0  0  0
   37.0030   26.3000   40.3040 C   0  0  0  0  0  0  0  0  0  0  0  0
   37.4710   25.0180   40.3740 C   0  0  0  0  0  0  0  0  0  0  0  0
   37.1930   24.0660   39.4670 C   0  0  0  0  0  0  0  0  0  0  0  0
   36.3880   24.3620   38.3840 C   0  0  0  0  0  0  0  0  0  0  0  0
   35.9020   25.6380   38.2830 C   0  0  0  0  0  0  0  0  0  0  0  0
   38.1110   24.7660   41.2280 H   0  0  0  0  0  0  0  0  0  0  0  0
   36.1360   23.6280   37.6280 H   0  0  0  0  0  0  0  0  0  0  0  0
   35.2670   25.8650   37.4250 H   0  0  0  0  0  0  0  0  0  0  0  0
   37.7230   22.6670   39.5730 C   0  0  0  0  0  0  0  0  0  0  0  0
   37.7550   22.3240   40.8930 F   0  0  0  0  0  0  0  0  0  0  0  0
   38.9530   22.5620   38.9540 F   0  0  0  0  0  0  0  0  0  0  0  0
   36.8350   21.8340   38.8850 F   0  0  0  0  0  0  0  0  0  0  0  0
   35.9340   31.1590   40.4810 F   0  0  0  0  0  0  0  0  0  0  0  0
   37.1790   31.6990   40.5180 C   0  0  0  0  0  0  0  0  0  0  0  0
   38.1510   30.9270   41.1390 C   0  0  0  0  0  0  0  0  0  0  0  0
   39.4450   31.4010   41.2220 C   0  0  0  0  0  0  0  0  0  0  0  0
   40.2580   30.8460   41.6960 H   0  0  0  0  0  0  0  0  0  0  0  0
   39.7570   32.6480   40.6810 C   0  0  0  0  0  0  0  0  0  0  0  0
   40.7870   32.9940   40.7610 H   0  0  0  0  0  0  0  0  0  0  0  0
   38.7850   33.4120   40.0630 C   0  0  0  0  0  3  0  0  0  0  0  0
   37.4850   32.9360   39.9810 C   0  0  0  0  0  3  0  0  0  0  0  0
  1  7  1  0  0  0  0
  2  8  1  0  0  0  0
  2  1  2  0  0  0  0
  3  2  1  0  0  0  0
  4  3  2  0  0  0  0
  4  5  1  0  0  0  0
  5  6  2  0  0  0  0
  6  1  1  0  0  0  0
  9 10  1  0  0  0  0
 10 11  1  0  0  0  0
 11 12  2  0  0  0  0
 11  3  1  0  0  0  0
 12 16  1  0  0  0  0
 13 19  1  0  0  0  0
 13 12  1  0  0  0  0
 14 13  2  0  0  0  0
 15 14  1  0  0  0  0
 15 10  2  0  0  0  0
 17 14  1  0  0  0  0
 18 15  1  0  0  0  0
 19 20  1  0  0  0  0
 21 19  1  0  0  0  0
 22 19  1  0  0  0  0
 23 24  1  0  0  0  0
 24 25  1  0  0  0  0
 25 26  2  0  0  0  0
 25  5  1  0  0  0  0
 26 27  1  0  0  0  0
 28 29  1  0  0  0  0
 28 26  1  0  0  0  0
 30 28  2  0  0  0  0
 31 30  1  0  0  0  0
 31 24  2  0  0  0  0
M  END
>  <minimizedAffinity>
-5.76574469

$$$$

 OpenBabel03242523013D

 31 33  0  0  0  0  0  0  0  0999 V2000
   35.8230   30.5870   40.7890 C   0  0  0  0  0  0  0  0  0  0  0  0
   37.0590   31.2160   40.6010 C   0  0  0  0  0  0  0  0  0  0  0  0
   38.2300   30.4730   40.5220 C   0  0  0  0  0  0  0  0  0  0  0  0
   38.1170   29.1160   40.6370 N   0  0  0  0  0  0  0  0  0  0  0  0
   36.9080   28.5380   40.8190 C   0  0  0  0  0  0  0  0  0  0  0  0
   35.7760   29.2560   40.8950 N   0  0  0  0  0  0  0  0  0  0  0  0
   35.0060   31.2750   40.8320 H   0  0  0  0  0  0  0  0  0  0  0  0
   37.2270   32.2670   40.5030 H   0  0  0  0  0  0  0  0  0  0  0  0
   39.8170   30.8490   43.0270 Cl  0  0  0  0  0  0  0  0  0  0  0  0
   40.3350   31.2870   41.4250 C   0  0  0  0  0  0  0  0  0  0  0  0
   39.5510   31.0830   40.3260 C   0  0  0  0  0  0  0  0  0  0  0  0
   40.0760   31.4720   39.1260 C   0  0  0  0  0  0  0  0  0  0  0  0
   41.2920   32.0290   38.9820 C   0  0  0  0  0  0  0  0  0  0  0  0
   42.0880   32.2360   40.0910 C   0  0  0  0  0  0  0  0  0  0  0  0
   41.5920   31.8570   41.3110 C   0  0  0  0  0  0  0  0  0  0  0  0
   39.4570   31.3150   38.2350 H   0  0  0  0  0  0  0  0  0  0  0  0
   43.0740   32.6800   40.0250 H   0  0  0  0  0  0  0  0  0  0  0  0
   42.2260   32.0250   42.1830 H   0  0  0  0  0  0  0  0  0  0  0  0
   41.8400   32.4450   37.6500 C   0  0  0  0  0  0  0  0  0  0  0  0
   41.2170   31.7080   36.6860 F   0  0  0  0  0  0  0  0  0  0  0  0
   43.2160   32.3200   37.6260 F   0  0  0  0  0  0  0  0  0  0  0  0
   41.5390   33.7990   37.4830 F   0  0  0  0  0  0  0  0  0  0  0  0
   37.3680   27.2510   43.2010 F   0  0  0  0  0  0  0  0  0  0  0  0
   37.1300   26.4390   42.1380 C   0  0  0  0  0  0  0  0  0  0  0  0
   36.8970   27.0820   40.9300 C   0  0  0  0  0  0  0  0  0  0  0  0
   36.6450   26.3320   39.7990 C   0  0  0  0  0  0  0  0  0  0  0  0
   36.4540   26.7730   38.8180 H   0  0  0  0  0  0  0  0  0  0  0  0
   36.6300   24.9400   39.8860 C   0  0  0  0  0  0  0  0  0  0  0  0
   36.4290   24.3760   38.9750 H   0  0  0  0  0  0  0  0  0  0  0  0
   36.8630   24.3050   41.0900 C   0  0  0  0  0  3  0  0  0  0  0  0
   37.1160   25.0590   42.2270 C   0  0  0  0  0  3  0  0  0  0  0  0
  1  7  1  0  0  0  0
  1  6  1  0  0  0  0
  2  1  2  0  0  0  0
  3  2  1  0  0  0  0
  3  4  2  0  0  0  0
  4  5  1  0  0  0  0
  5  6  2  0  0  0  0
  5 25  1  0  0  0  0
  8  2  1  0  0  0  0
 10  9  1  0  0  0  0
 11  3  1  0  0  0  0
 11 10  2  0  0  0  0
 12 11  1  0  0  0  0
 13 12  2  0  0  0  0
 13 14  1  0  0  0  0
 14 15  2  0  0  0  0
 15 10  1  0  0  0  0
 15 18  1  0  0  0  0
 16 12  1  0  0  0  0
 17 14  1  0  0  0  0
 19 13  1  0  0  0  0
 20 19  1  0  0  0  0
 21 19  1  0  0  0  0
 22 19  1  0  0  0  0
 24 31  1  0  0  0  0
 24 23  1  0  0  0  0
 25 24  2  0  0  0  0
 26 28  2  0  0  0  0
 26 25  1  0  0  0  0
 27 26  1  0  0  0  0
 28 30  1  0  0  0  0
 29 28  1  0  0  0  0
 30 31  2  0  0  0  0
M  END
>  <minimizedAffinity>
-5.68082237

$$$$
