
 OpenBabel03252508173D

 47 51  0  0  1  0  0  0  0  0999 V2000
   47.2540   31.1530   46.9390 C   0  0  0  0  0  0  0  0  0  0  0  0
   48.2170   30.7560   46.6810 H   0  0  0  0  0  0  0  0  0  0  0  0
   46.4860   30.3350   46.8140 H   0  0  0  0  0  0  0  0  0  0  0  0
   47.0370   31.7420   48.2820 C   0  0  1  0  0  0  0  0  0  0  0  0
   46.2990   30.8750   49.2450 C   0  0  0  0  0  0  0  0  0  0  0  0
   47.7060   31.1720   49.4680 C   0  0  1  0  0  0  0  0  0  0  0  0
   46.5610   32.7660   48.2740 H   0  0  0  0  0  0  0  0  0  0  0  0
   45.5400   31.2740   49.9460 H   0  0  0  0  0  0  0  0  0  0  0  0
   46.0570   29.8140   48.9520 H   0  0  0  0  0  0  0  0  0  0  0  0
   47.9240   31.8970   50.2800 H   0  0  0  0  0  0  0  0  0  0  0  0
   48.7880   30.1630   49.2410 C   0  0  2  0  0  0  0  0  0  0  0  0
   49.7630   30.0110   50.4370 C   0  0  0  0  0  0  0  0  0  0  0  0
   50.2270   30.6860   49.2200 C   0  0  1  0  0  0  0  0  0  0  0  0
   48.5940   29.1910   48.7850 H   0  0  0  0  0  0  0  0  0  0  0  0
   49.5320   30.6100   51.3520 H   0  0  0  0  0  0  0  0  0  0  0  0
   50.1640   29.0310   50.6880 H   0  0  0  0  0  0  0  0  0  0  0  0
   50.3100   31.8090   49.3330 H   0  0  0  0  0  0  0  0  0  0  0  0
   49.6830   28.9510   46.9760 F   0  0  0  0  0  0  0  0  0  0  0  0
   50.9760   29.3070   47.1620 C   0  0  0  0  0  0  0  0  0  0  0  0
   51.1650   30.1320   48.2500 C   0  0  0  0  0  0  0  0  0  0  0  0
   52.4930   30.5210   48.4750 C   0  0  0  0  0  0  0  0  0  0  0  0
   52.8040   31.1780   49.3030 H   0  0  0  0  0  0  0  0  0  0  0  0
   53.5380   30.1260   47.6910 C   0  0  0  0  0  0  0  0  0  0  0  0
   54.5630   30.4210   47.8580 H   0  0  0  0  0  0  0  0  0  0  0  0
   53.3210   29.3020   46.6110 C   0  0  0  0  0  3  0  0  0  0  0  0
   52.0290   28.9050   46.3670 C   0  0  0  0  0  3  0  0  0  0  0  0
   46.1530   33.0960   46.1800 C   0  0  0  0  0  3  0  0  0  0  0  0
   46.9420   32.1620   45.8550 C   0  0  0  0  0  3  0  0  0  0  0  0
   44.5280   35.8720   44.3810 C   0  0  0  0  0  0  0  0  0  0  0  0
   45.1630   35.8530   43.1400 C   0  0  0  0  0  0  0  0  0  0  0  0
   46.1150   34.8960   42.9650 C   0  0  0  0  0  0  0  0  0  0  0  0
   46.4030   34.0240   43.9680 N   0  0  0  0  0  0  0  0  0  0  0  0
   45.7710   34.0680   45.1560 C   0  0  0  0  0  0  0  0  0  0  0  0
   44.8440   34.9980   45.3280 N   0  0  0  0  0  0  0  0  0  0  0  0
   43.7700   36.5960   44.5890 H   0  0  0  0  0  0  0  0  0  0  0  0
   44.9130   36.5600   42.3610 H   0  0  0  0  0  0  0  0  0  0  0  0
   46.8570   34.7550   41.7200 C   0  0  0  0  0  0  0  0  0  0  0  0
   48.0570   35.3430   41.4560 C   0  0  0  0  0  0  0  0  0  0  0  0
   48.7430   35.1940   40.2670 C   0  0  0  0  0  0  0  0  0  0  0  0
   48.2140   34.4110   39.2620 C   0  0  0  0  0  0  0  0  0  0  0  0
   47.0100   33.7920   39.4670 C   0  0  0  0  0  0  0  0  0  0  0  0
   46.3700   33.9770   40.6750 C   0  0  0  0  0  0  0  0  0  0  0  0
   48.5110   35.9710   42.2220 H   0  0  0  0  0  0  0  0  0  0  0  0
   49.6990   35.6920   40.1190 H   0  0  0  0  0  0  0  0  0  0  0  0
   48.7470   34.2910   38.3270 H   0  0  0  0  0  0  0  0  0  0  0  0
   46.5690   33.1690   38.6950 H   0  0  0  0  0  0  0  0  0  0  0  0
   45.4050   33.4590   40.7920 H   0  0  0  0  0  0  0  0  0  0  0  0
  1  4  1  0  0  0  0
  2  1  1  0  0  0  0
  3  1  1  0  0  0  0
  4  7  1  1  0  0  0
  4  5  1  0  0  0  0
  4  6  1  0  0  0  0
  5  6  1  0  0  0  0
  5  8  1  0  0  0  0
  6 10  1  1  0  0  0
  9  5  1  0  0  0  0
 11 14  1  6  0  0  0
 11  6  1  0  0  0  0
 11 12  1  0  0  0  0
 12 16  1  0  0  0  0
 12 15  1  0  0  0  0
 13 11  1  0  0  0  0
 13 17  1  1  0  0  0
 13 12  1  0  0  0  0
 18 19  1  0  0  0  0
 19 20  1  0  0  0  0
 20 21  2  0  0  0  0
 20 13  1  0  0  0  0
 21 22  1  0  0  0  0
 23 24  1  0  0  0  0
 23 21  1  0  0  0  0
 25 23  2  0  0  0  0
 26 25  1  0  0  0  0
 26 19  2  0  0  0  0
 28 27  2  0  0  0  0
 28  1  1  0  0  0  0
 29 35  1  0  0  0  0
 29 34  1  0  0  0  0
 30 29  2  0  0  0  0
 31 30  1  0  0  0  0
 31 32  2  0  0  0  0
 32 33  1  0  0  0  0
 33 34  2  0  0  0  0
 33 27  1  0  0  0  0
 36 30  1  0  0  0  0
 37 31  1  0  0  0  0
 38 37  1  0  0  0  0
 38 43  1  0  0  0  0
 39 38  2  0  0  0  0
 40 41  2  0  0  0  0
 40 39  1  0  0  0  0
 41 42  1  0  0  0  0
 42 47  1  0  0  0  0
 42 37  2  0  0  0  0
 44 39  1  0  0  0  0
 45 40  1  0  0  0  0
 46 41  1  0  0  0  0
M  END
>  <minimizedAffinity>
-6.41255903

>  <minimizedRMSD>
1.24702322

$$$$
