
 OpenBabel03242520433D

 39 42  0  0  1  0  0  0  0  0999 V2000
   38.5860   28.1610   36.7920 C   0  0  0  0  0  0  0  0  0  0  0  0
   37.4080   28.0950   36.0160 C   0  0  0  0  0  0  0  0  0  0  0  0
   36.5720   29.2500   35.9830 C   0  0  0  0  0  0  0  0  0  0  0  0
   36.9440   30.3560   36.6960 N   0  0  0  0  0  0  0  0  0  0  0  0
   38.0860   30.3530   37.4200 C   0  0  0  0  0  0  0  0  0  0  0  0
   38.8930   29.2660   37.4640 N   0  0  0  0  0  0  0  0  0  0  0  0
   38.3850   31.5320   38.1210 N   0  0  0  0  0  0  0  0  0  0  0  0
   37.4880   32.0440   39.1060 C   0  0  2  0  0  0  0  0  0  0  0  0
   37.7980   33.4200   39.5770 C   0  0  0  0  0  0  0  0  0  0  0  0
   39.1560   33.8180   39.5680 N   0  0  0  0  0  0  0  0  0  0  0  0
   40.0670   32.8010   39.1670 C   0  0  0  0  0  0  0  0  0  0  0  0
   39.6180   32.2410   37.8430 C   0  0  0  0  0  0  0  0  0  0  0  0
   39.1790   27.2590   36.7800 H   0  0  0  0  0  0  0  0  0  0  0  0
   37.0500   27.2820   35.4380 H   0  0  0  0  0  0  0  0  0  0  0  0
   35.6570   29.2980   35.4240 H   0  0  0  0  0  0  0  0  0  0  0  0
   36.4930   32.1510   38.5730 H   0  0  0  0  0  0  0  0  0  0  0  0
   37.4070   33.4800   40.6340 H   0  0  0  0  0  0  0  0  0  0  0  0
   37.2220   34.2000   39.0370 H   0  0  0  0  0  0  0  0  0  0  0  0
   39.4680   34.2170   40.4890 H   0  0  0  0  0  0  0  0  0  0  0  0
   40.3160   32.0540   39.9180 H   0  0  0  0  0  0  0  0  0  0  0  0
   41.0420   33.3310   38.9460 H   0  0  0  0  0  0  0  0  0  0  0  0
   40.3550   31.4900   37.5000 H   0  0  0  0  0  0  0  0  0  0  0  0
   39.4920   33.0900   37.1610 H   0  0  0  0  0  0  0  0  0  0  0  0
   37.2850   31.0840   40.2200 C   0  0  0  0  0  0  0  0  0  0  0  0
   36.2000   30.7860   41.0130 C   0  0  0  0  0  0  0  0  0  0  0  0
   36.4820   29.8290   41.9010 N   0  0  0  0  0  0  0  0  0  0  0  0
   37.7600   29.5070   41.6750 C   0  0  0  0  0  0  0  0  0  0  0  0
   38.2390   30.2510   40.6760 N   0  0  0  0  0  0  0  0  0  0  0  0
   35.2410   31.2770   40.9220 H   0  0  0  0  0  0  0  0  0  0  0  0
   35.8950   29.3870   42.6260 H   0  0  0  0  0  0  0  0  0  0  0  0
   36.7490   27.0570   42.4660 F   0  0  0  0  0  0  0  0  0  0  0  0
   38.0610   27.2720   42.7740 C   0  0  0  0  0  0  0  0  0  0  0  0
   38.5780   28.4940   42.3820 C   0  0  0  0  0  0  0  0  0  0  0  0
   39.9090   28.8230   42.6440 C   0  0  0  0  0  0  0  0  0  0  0  0
   40.3220   29.7720   42.3450 H   0  0  0  0  0  0  0  0  0  0  0  0
   40.6720   27.8800   43.3020 C   0  0  0  0  0  0  0  0  0  0  0  0
   41.7020   28.1540   43.4970 H   0  0  0  0  0  0  0  0  0  0  0  0
   40.1260   26.6710   43.6790 C   0  0  0  0  0  3  0  0  0  0  0  0
   38.8240   26.3290   43.4320 C   0  0  0  0  0  3  0  0  0  0  0  0
  1  6  1  0  0  0  0
  2  1  2  0  0  0  0
  3  2  1  0  0  0  0
  3  4  2  0  0  0  0
  4  5  1  0  0  0  0
  5  6  2  0  0  0  0
  5  7  1  0  0  0  0
  7  8  1  0  0  0  0
  8 16  1  6  0  0  0
  8  9  1  0  0  0  0
  8 24  1  0  0  0  0
  9 17  1  0  0  0  0
 10  9  1  0  0  0  0
 10 19  1  0  0  0  0
 11 10  1  0  0  0  0
 11 20  1  0  0  0  0
 12  7  1  0  0  0  0
 12 11  1  0  0  0  0
 13  1  1  0  0  0  0
 14  2  1  0  0  0  0
 15  3  1  0  0  0  0
 18  9  1  0  0  0  0
 21 11  1  0  0  0  0
 22 12  1  0  0  0  0
 23 12  1  0  0  0  0
 24 28  1  0  0  0  0
 24 25  2  0  0  0  0
 25 26  1  0  0  0  0
 26 30  1  0  0  0  0
 27 26  1  0  0  0  0
 27 33  1  0  0  0  0
 28 27  2  0  0  0  0
 29 25  1  0  0  0  0
 31 32  1  0  0  0  0
 32 39  1  0  0  0  0
 33 34  1  0  0  0  0
 33 32  2  0  0  0  0
 34 36  2  0  0  0  0
 35 34  1  0  0  0  0
 36 37  1  0  0  0  0
 36 38  1  0  0  0  0
 39 38  2  0  0  0  0
M  END
>  <minimizedAffinity>
-6.48452377

$$$$

 OpenBabel03242520433D

 39 42  0  0  1  0  0  0  0  0999 V2000
   38.5540   27.9330   36.5650 C   0  0  0  0  0  0  0  0  0  0  0  0
   37.4320   27.8620   35.7110 C   0  0  0  0  0  0  0  0  0  0  0  0
   36.5680   28.9950   35.6550 C   0  0  0  0  0  0  0  0  0  0  0  0
   36.8620   30.0880   36.4230 N   0  0  0  0  0  0  0  0  0  0  0  0
   37.9550   30.0930   37.2210 C   0  0  0  0  0  0  0  0  0  0  0  0
   38.7860   29.0260   37.2870 N   0  0  0  0  0  0  0  0  0  0  0  0
   38.1740   31.2570   37.9730 N   0  0  0  0  0  0  0  0  0  0  0  0
   37.2020   31.7160   38.9110 C   0  0  2  0  0  0  0  0  0  0  0  0
   37.4430   33.0850   39.4410 C   0  0  0  0  0  0  0  0  0  0  0  0
   38.7870   33.5170   39.5320 N   0  0  0  0  0  0  0  0  0  0  0  0
   39.7490   32.5360   39.1630 C   0  0  0  0  0  0  0  0  0  0  0  0
   39.4030   32.0050   37.7970 C   0  0  0  0  0  0  0  0  0  0  0  0
   39.1710   27.0480   36.5660 H   0  0  0  0  0  0  0  0  0  0  0  0
   37.1340   27.0570   35.0880 H   0  0  0  0  0  0  0  0  0  0  0  0
   35.6910   29.0370   35.0390 H   0  0  0  0  0  0  0  0  0  0  0  0
   36.2400   31.8140   38.3170 H   0  0  0  0  0  0  0  0  0  0  0  0
   36.9820   33.1030   40.4710 H   0  0  0  0  0  0  0  0  0  0  0  0
   36.8820   33.8660   38.8860 H   0  0  0  0  0  0  0  0  0  0  0  0
   39.0270   33.8960   40.4830 H   0  0  0  0  0  0  0  0  0  0  0  0
   39.9700   31.7730   39.9070 H   0  0  0  0  0  0  0  0  0  0  0  0
   40.7220   33.0980   39.0220 H   0  0  0  0  0  0  0  0  0  0  0  0
   40.1820   31.2840   37.4820 H   0  0  0  0  0  0  0  0  0  0  0  0
   39.2980   32.8710   37.1330 H   0  0  0  0  0  0  0  0  0  0  0  0
   36.9530   30.7180   39.9810 C   0  0  0  0  0  0  0  0  0  0  0  0
   35.8380   30.4000   40.7240 C   0  0  0  0  0  0  0  0  0  0  0  0
   36.0820   29.4080   41.5850 N   0  0  0  0  0  0  0  0  0  0  0  0
   37.3650   29.0860   41.3930 C   0  0  0  0  0  0  0  0  0  0  0  0
   37.8850   29.8620   40.4400 N   0  0  0  0  0  0  0  0  0  0  0  0
   34.8870   30.9010   40.6160 H   0  0  0  0  0  0  0  0  0  0  0  0
   35.4670   28.9450   42.2730 H   0  0  0  0  0  0  0  0  0  0  0  0
   39.4820   29.6810   43.0720 F   0  0  0  0  0  0  0  0  0  0  0  0
   39.2080   28.3510   42.9290 C   0  0  0  0  0  0  0  0  0  0  0  0
   38.1510   28.0410   42.0920 C   0  0  0  0  0  0  0  0  0  0  0  0
   37.7810   26.7140   41.8720 C   0  0  0  0  0  0  0  0  0  0  0  0
   36.9600   26.4610   41.2210 H   0  0  0  0  0  0  0  0  0  0  0  0
   38.5110   25.7400   42.5220 C   0  0  0  0  0  0  0  0  0  0  0  0
   38.2100   24.7160   42.3380 H   0  0  0  0  0  0  0  0  0  0  0  0
   39.5600   26.0840   43.3500 C   0  0  0  0  0  3  0  0  0  0  0  0
   39.9390   27.3780   43.5790 C   0  0  0  0  0  3  0  0  0  0  0  0
  1 13  1  0  0  0  0
  1  6  1  0  0  0  0
  2  1  2  0  0  0  0
  3  2  1  0  0  0  0
  3  4  2  0  0  0  0
  4  5  1  0  0  0  0
  5  6  2  0  0  0  0
  5  7  1  0  0  0  0
  7  8  1  0  0  0  0
  8 16  1  6  0  0  0
  8  9  1  0  0  0  0
  8 24  1  0  0  0  0
  9 10  1  0  0  0  0
  9 17  1  0  0  0  0
 10 19  1  0  0  0  0
 11 10  1  0  0  0  0
 11 20  1  0  0  0  0
 12  7  1  0  0  0  0
 12 11  1  0  0  0  0
 14  2  1  0  0  0  0
 15  3  1  0  0  0  0
 18  9  1  0  0  0  0
 21 11  1  0  0  0  0
 22 12  1  0  0  0  0
 23 12  1  0  0  0  0
 24 28  1  0  0  0  0
 24 25  2  0  0  0  0
 25 26  1  0  0  0  0
 26 30  1  0  0  0  0
 27 26  1  0  0  0  0
 27 33  1  0  0  0  0
 28 27  2  0  0  0  0
 29 25  1  0  0  0  0
 32 31  1  0  0  0  0
 32 39  1  0  0  0  0
 33 32  2  0  0  0  0
 34 33  1  0  0  0  0
 34 36  2  0  0  0  0
 35 34  1  0  0  0  0
 36 38  1  0  0  0  0
 37 36  1  0  0  0  0
 38 39  2  0  0  0  0
M  END
>  <minimizedAffinity>
-6.32114983

$$$$

 OpenBabel03242520433D

 39 42  0  0  1  0  0  0  0  0999 V2000
   41.6260   30.7440   42.3380 C   0  0  0  0  0  0  0  0  0  0  0  0
   42.4640   29.9790   41.4990 C   0  0  0  0  0  0  0  0  0  0  0  0
   42.1760   29.9720   40.1020 C   0  0  0  0  0  0  0  0  0  0  0  0
   41.1110   30.6990   39.6440 N   0  0  0  0  0  0  0  0  0  0  0  0
   40.3470   31.4120   40.5020 C   0  0  0  0  0  0  0  0  0  0  0  0
   40.6050   31.4300   41.8320 N   0  0  0  0  0  0  0  0  0  0  0  0
   39.2770   32.1250   39.9410 N   0  0  0  0  0  0  0  0  0  0  0  0
   38.2460   31.4500   39.2210 C   0  0  2  0  0  0  0  0  0  0  0  0
   37.3250   32.3420   38.4650 C   0  0  0  0  0  0  0  0  0  0  0  0
   37.1030   33.6370   38.9890 N   0  0  0  0  0  0  0  0  0  0  0  0
   37.7490   33.8910   40.2310 C   0  0  0  0  0  0  0  0  0  0  0  0
   39.2130   33.5650   40.0930 C   0  0  0  0  0  0  0  0  0  0  0  0
   41.8910   30.7120   43.3840 H   0  0  0  0  0  0  0  0  0  0  0  0
   43.3030   29.3910   41.7720 H   0  0  0  0  0  0  0  0  0  0  0  0
   42.7530   29.4220   39.3850 H   0  0  0  0  0  0  0  0  0  0  0  0
   38.7860   30.8620   38.4140 H   0  0  0  0  0  0  0  0  0  0  0  0
   36.3400   31.7940   38.4130 H   0  0  0  0  0  0  0  0  0  0  0  0
   37.6190   32.4620   37.4020 H   0  0  0  0  0  0  0  0  0  0  0  0
   36.0810   33.8680   39.0780 H   0  0  0  0  0  0  0  0  0  0  0  0
   37.2710   33.4770   41.1170 H   0  0  0  0  0  0  0  0  0  0  0  0
   37.7100   35.0130   40.3740 H   0  0  0  0  0  0  0  0  0  0  0  0
   39.7300   33.8160   41.0400 H   0  0  0  0  0  0  0  0  0  0  0  0
   39.5830   34.1150   39.2200 H   0  0  0  0  0  0  0  0  0  0  0  0
   37.5310   30.4670   40.0710 C   0  0  0  0  0  0  0  0  0  0  0  0
   36.5930   30.6000   41.0700 C   0  0  0  0  0  0  0  0  0  0  0  0
   36.2180   29.4150   41.5600 N   0  0  0  0  0  0  0  0  0  0  0  0
   36.9200   28.5120   40.8670 C   0  0  0  0  0  0  0  0  0  0  0  0
   37.7000   29.1340   39.9820 N   0  0  0  0  0  0  0  0  0  0  0  0
   36.2160   31.5530   41.4120 H   0  0  0  0  0  0  0  0  0  0  0  0
   35.5430   29.1750   42.3030 H   0  0  0  0  0  0  0  0  0  0  0  0
   37.4440   27.2260   43.2600 F   0  0  0  0  0  0  0  0  0  0  0  0
   37.1510   26.4050   42.2090 C   0  0  0  0  0  0  0  0  0  0  0  0
   36.8860   27.0370   41.0080 C   0  0  0  0  0  0  0  0  0  0  0  0
   36.5740   26.2970   39.8650 C   0  0  0  0  0  0  0  0  0  0  0  0
   36.3670   26.7790   38.9240 H   0  0  0  0  0  0  0  0  0  0  0  0
   36.5420   24.9240   39.9950 C   0  0  0  0  0  0  0  0  0  0  0  0
   36.2990   24.3670   39.0980 H   0  0  0  0  0  0  0  0  0  0  0  0
   36.8110   24.3250   41.2080 C   0  0  0  0  0  3  0  0  0  0  0  0
   37.1190   25.0310   42.3390 C   0  0  0  0  0  3  0  0  0  0  0  0
  1 13  1  0  0  0  0
  2 14  1  0  0  0  0
  2  1  2  0  0  0  0
  3  2  1  0  0  0  0
  4  3  2  0  0  0  0
  4  5  1  0  0  0  0
  5  6  2  0  0  0  0
  6  1  1  0  0  0  0
  7 12  1  0  0  0  0
  7  5  1  0  0  0  0
  8 16  1  6  0  0  0
  8  7  1  0  0  0  0
  8 24  1  0  0  0  0
  9 10  1  0  0  0  0
  9  8  1  0  0  0  0
 10 19  1  0  0  0  0
 10 11  1  0  0  0  0
 11 21  1  0  0  0  0
 11 20  1  0  0  0  0
 12 11  1  0  0  0  0
 12 22  1  0  0  0  0
 15  3  1  0  0  0  0
 17  9  1  0  0  0  0
 18  9  1  0  0  0  0
 23 12  1  0  0  0  0
 24 25  2  0  0  0  0
 25 29  1  0  0  0  0
 25 26  1  0  0  0  0
 26 30  1  0  0  0  0
 27 33  1  0  0  0  0
 27 26  1  0  0  0  0
 28 24  1  0  0  0  0
 28 27  2  0  0  0  0
 32 39  1  0  0  0  0
 32 31  1  0  0  0  0
 33 32  2  0  0  0  0
 34 36  2  0  0  0  0
 34 33  1  0  0  0  0
 35 34  1  0  0  0  0
 36 38  1  0  0  0  0
 37 36  1  0  0  0  0
 38 39  2  0  0  0  0
M  END
>  <minimizedAffinity>
-6.14967585

$$$$

 OpenBabel03242520433D

 39 42  0  0  1  0  0  0  0  0999 V2000
   39.0520   28.0810   36.7860 C   0  0  0  0  0  0  0  0  0  0  0  0
   38.0090   27.9850   35.8380 C   0  0  0  0  0  0  0  0  0  0  0  0
   36.9970   28.9890   35.8650 C   0  0  0  0  0  0  0  0  0  0  0  0
   37.0800   29.9880   36.7960 N   0  0  0  0  0  0  0  0  0  0  0  0
   38.1060   30.0210   37.6770 C   0  0  0  0  0  0  0  0  0  0  0  0
   39.0770   29.0760   37.6670 N   0  0  0  0  0  0  0  0  0  0  0  0
   38.1060   31.0820   38.5950 N   0  0  0  0  0  0  0  0  0  0  0  0
   37.0200   31.2640   39.5020 C   0  0  2  0  0  0  0  0  0  0  0  0
   37.0250   32.5600   40.2310 C   0  0  0  0  0  0  0  0  0  0  0  0
   38.2840   33.1500   40.4940 N   0  0  0  0  0  0  0  0  0  0  0  0
   39.4000   32.3720   40.0780 C   0  0  0  0  0  0  0  0  0  0  0  0
   39.2230   32.0050   38.6280 C   0  0  0  0  0  0  0  0  0  0  0  0
   39.7890   27.2950   36.7190 H   0  0  0  0  0  0  0  0  0  0  0  0
   37.8720   27.2490   35.0890 H   0  0  0  0  0  0  0  0  0  0  0  0
   36.1650   29.0030   35.1880 H   0  0  0  0  0  0  0  0  0  0  0  0
   36.0940   31.3190   38.8470 H   0  0  0  0  0  0  0  0  0  0  0  0
   36.5010   32.3660   41.2110 H   0  0  0  0  0  0  0  0  0  0  0  0
   36.3950   33.3320   39.7420 H   0  0  0  0  0  0  0  0  0  0  0  0
   38.4050   33.4140   41.5040 H   0  0  0  0  0  0  0  0  0  0  0  0
   39.6790   31.5440   40.7270 H   0  0  0  0  0  0  0  0  0  0  0  0
   40.2880   33.0720   40.0970 H   0  0  0  0  0  0  0  0  0  0  0  0
   40.1170   31.4480   38.2850 H   0  0  0  0  0  0  0  0  0  0  0  0
   39.0380   32.9370   38.0810 H   0  0  0  0  0  0  0  0  0  0  0  0
   36.8480   30.0960   40.4010 C   0  0  0  0  0  0  0  0  0  0  0  0
   35.7390   29.4860   40.9430 C   0  0  0  0  0  0  0  0  0  0  0  0
   36.0700   28.4400   41.7050 N   0  0  0  0  0  0  0  0  0  0  0  0
   37.4050   28.3760   41.6500 C   0  0  0  0  0  0  0  0  0  0  0  0
   37.8690   29.3580   40.8760 N   0  0  0  0  0  0  0  0  0  0  0  0
   34.7270   29.8240   40.7700 H   0  0  0  0  0  0  0  0  0  0  0  0
   35.4820   27.7840   42.2430 H   0  0  0  0  0  0  0  0  0  0  0  0
   37.0070   25.6430   41.4850 F   0  0  0  0  0  0  0  0  0  0  0  0
   38.0830   26.0310   42.2300 C   0  0  0  0  0  0  0  0  0  0  0  0
   38.2930   27.3950   42.3190 C   0  0  0  0  0  0  0  0  0  0  0  0
   39.3640   27.9070   43.0530 C   0  0  0  0  0  0  0  0  0  0  0  0
   39.5360   28.9670   43.1300 H   0  0  0  0  0  0  0  0  0  0  0  0
   40.1920   26.9950   43.6760 C   0  0  0  0  0  0  0  0  0  0  0  0
   41.0170   27.4110   44.2420 H   0  0  0  0  0  0  0  0  0  0  0  0
   39.9550   25.6400   43.5660 C   0  0  0  0  0  3  0  0  0  0  0  0
   38.9110   25.1190   42.8520 C   0  0  0  0  0  3  0  0  0  0  0  0
  1  6  1  0  0  0  0
  2  3  1  0  0  0  0
  2  1  2  0  0  0  0
  3  4  2  0  0  0  0
  4  5  1  0  0  0  0
  5  7  1  0  0  0  0
  6  5  2  0  0  0  0
  7 12  1  0  0  0  0
  7  8  1  0  0  0  0
  8 16  1  6  0  0  0
  8  9  1  0  0  0  0
  8 24  1  0  0  0  0
  9 10  1  0  0  0  0
  9 17  1  0  0  0  0
 10 19  1  0  0  0  0
 11 21  1  0  0  0  0
 11 10  1  0  0  0  0
 11 20  1  0  0  0  0
 12 11  1  0  0  0  0
 13  1  1  0  0  0  0
 14  2  1  0  0  0  0
 15  3  1  0  0  0  0
 18  9  1  0  0  0  0
 22 12  1  0  0  0  0
 23 12  1  0  0  0  0
 24 28  1  0  0  0  0
 24 25  2  0  0  0  0
 25 26  1  0  0  0  0
 26 30  1  0  0  0  0
 27 26  1  0  0  0  0
 27 33  1  0  0  0  0
 28 27  2  0  0  0  0
 29 25  1  0  0  0  0
 31 32  1  0  0  0  0
 32 33  2  0  0  0  0
 32 39  1  0  0  0  0
 33 34  1  0  0  0  0
 34 35  1  0  0  0  0
 34 36  2  0  0  0  0
 36 37  1  0  0  0  0
 38 36  1  0  0  0  0
 39 38  2  0  0  0  0
M  END
>  <minimizedAffinity>
-6.07720852

$$$$

 OpenBabel03242520433D

 39 42  0  0  1  0  0  0  0  0999 V2000
   41.6220   29.2660   38.1300 C   0  0  0  0  0  0  0  0  0  0  0  0
   41.8430   29.7950   36.8400 C   0  0  0  0  0  0  0  0  0  0  0  0
   42.3350   31.1310   36.7470 C   0  0  0  0  0  0  0  0  0  0  0  0
   42.5680   31.8310   37.8990 N   0  0  0  0  0  0  0  0  0  0  0  0
   42.3360   31.2640   39.1050 C   0  0  0  0  0  0  0  0  0  0  0  0
   41.8680   29.9970   39.2130 N   0  0  0  0  0  0  0  0  0  0  0  0
   42.6030   32.0580   40.2300 N   0  0  0  0  0  0  0  0  0  0  0  0
   41.9270   33.3000   40.4250 C   0  0  2  0  0  0  0  0  0  0  0  0
   42.4880   34.1530   41.5080 C   0  0  0  0  0  0  0  0  0  0  0  0
   43.1060   33.4940   42.5970 N   0  0  0  0  0  0  0  0  0  0  0  0
   43.0430   32.0740   42.5420 C   0  0  0  0  0  0  0  0  0  0  0  0
   43.5750   31.6150   41.2100 C   0  0  0  0  0  0  0  0  0  0  0  0
   41.2500   28.2530   38.1390 H   0  0  0  0  0  0  0  0  0  0  0  0
   41.6880   29.3230   35.9030 H   0  0  0  0  0  0  0  0  0  0  0  0
   42.5330   31.6210   35.8140 H   0  0  0  0  0  0  0  0  0  0  0  0
   42.1200   33.8930   39.4780 H   0  0  0  0  0  0  0  0  0  0  0  0
   41.6250   34.7680   41.8950 H   0  0  0  0  0  0  0  0  0  0  0  0
   43.2060   34.9110   41.1300 H   0  0  0  0  0  0  0  0  0  0  0  0
   42.7410   33.8200   43.5270 H   0  0  0  0  0  0  0  0  0  0  0  0
   42.0980   31.6210   42.8360 H   0  0  0  0  0  0  0  0  0  0  0  0
   43.7950   31.7030   43.3020 H   0  0  0  0  0  0  0  0  0  0  0  0
   43.5820   30.5080   41.1850 H   0  0  0  0  0  0  0  0  0  0  0  0
   44.5630   32.0720   41.0840 H   0  0  0  0  0  0  0  0  0  0  0  0
   40.4590   33.1190   40.5350 C   0  0  0  0  0  0  0  0  0  0  0  0
   39.4030   34.0030   40.5380 C   0  0  0  0  0  0  0  0  0  0  0  0
   38.2300   33.3750   40.6550 N   0  0  0  0  0  0  0  0  0  0  0  0
   38.5340   32.0750   40.7270 C   0  0  0  0  0  0  0  0  0  0  0  0
   39.8570   31.9200   40.6560 N   0  0  0  0  0  0  0  0  0  0  0  0
   39.5220   35.0740   40.4570 H   0  0  0  0  0  0  0  0  0  0  0  0
   37.2670   33.7460   40.6880 H   0  0  0  0  0  0  0  0  0  0  0  0
   38.7850   30.1710   42.7180 F   0  0  0  0  0  0  0  0  0  0  0  0
   37.7360   29.9860   41.8640 C   0  0  0  0  0  0  0  0  0  0  0  0
   37.6000   30.9330   40.8640 C   0  0  0  0  0  0  0  0  0  0  0  0
   36.5630   30.8450   39.9340 C   0  0  0  0  0  0  0  0  0  0  0  0
   36.4480   31.5750   39.1510 H   0  0  0  0  0  0  0  0  0  0  0  0
   35.6930   29.7820   40.0610 C   0  0  0  0  0  0  0  0  0  0  0  0
   34.8950   29.7300   39.3290 H   0  0  0  0  0  0  0  0  0  0  0  0
   35.8560   28.8550   41.0700 C   0  0  0  0  0  3  0  0  0  0  0  0
   36.8650   28.9230   41.9910 C   0  0  0  0  0  3  0  0  0  0  0  0
  1 13  1  0  0  0  0
  1  6  1  0  0  0  0
  2  1  2  0  0  0  0
  3  2  1  0  0  0  0
  3  4  2  0  0  0  0
  4  5  1  0  0  0  0
  5  6  2  0  0  0  0
  5  7  1  0  0  0  0
  7  8  1  0  0  0  0
  7 12  1  0  0  0  0
  8 16  1  6  0  0  0
  8 24  1  0  0  0  0
  8  9  1  0  0  0  0
  9 17  1  0  0  0  0
  9 10  1  0  0  0  0
 10 19  1  0  0  0  0
 11 10  1  0  0  0  0
 11 20  1  0  0  0  0
 11 21  1  0  0  0  0
 12 11  1  0  0  0  0
 14  2  1  0  0  0  0
 15  3  1  0  0  0  0
 18  9  1  0  0  0  0
 22 12  1  0  0  0  0
 23 12  1  0  0  0  0
 24 25  2  0  0  0  0
 24 28  1  0  0  0  0
 25 26  1  0  0  0  0
 26 30  1  0  0  0  0
 26 27  1  0  0  0  0
 27 33  1  0  0  0  0
 28 27  2  0  0  0  0
 29 25  1  0  0  0  0
 32 39  1  0  0  0  0
 32 31  1  0  0  0  0
 33 32  2  0  0  0  0
 34 36  2  0  0  0  0
 34 33  1  0  0  0  0
 35 34  1  0  0  0  0
 36 38  1  0  0  0  0
 37 36  1  0  0  0  0
 38 39  2  0  0  0  0
M  END
>  <minimizedAffinity>
-5.97785807

$$$$

 OpenBabel03242520433D

 39 42  0  0  1  0  0  0  0  0999 V2000
   42.6630   30.0070   39.1390 C   0  0  0  0  0  0  0  0  0  0  0  0
   42.5080   29.2270   37.9730 C   0  0  0  0  0  0  0  0  0  0  0  0
   41.2540   29.2890   37.2960 C   0  0  0  0  0  0  0  0  0  0  0  0
   40.2690   30.0920   37.8030 N   0  0  0  0  0  0  0  0  0  0  0  0
   40.4830   30.8150   38.9260 C   0  0  0  0  0  0  0  0  0  0  0  0
   41.6670   30.7680   39.5820 N   0  0  0  0  0  0  0  0  0  0  0  0
   39.4150   31.6080   39.3710 N   0  0  0  0  0  0  0  0  0  0  0  0
   38.1600   31.0200   39.7110 C   0  0  2  0  0  0  0  0  0  0  0  0
   37.0500   31.9900   39.9140 C   0  0  0  0  0  0  0  0  0  0  0  0
   37.3930   33.2750   40.3950 N   0  0  0  0  0  0  0  0  0  0  0  0
   38.7740   33.4460   40.6930 C   0  0  0  0  0  0  0  0  0  0  0  0
   39.5840   33.0420   39.4890 C   0  0  0  0  0  0  0  0  0  0  0  0
   43.6320   29.9200   39.6080 H   0  0  0  0  0  0  0  0  0  0  0  0
   43.2160   28.5820   37.5170 H   0  0  0  0  0  0  0  0  0  0  0  0
   41.0380   28.7340   36.4040 H   0  0  0  0  0  0  0  0  0  0  0  0
   37.8490   30.4320   38.7910 H   0  0  0  0  0  0  0  0  0  0  0  0
   36.3430   31.5020   40.6460 H   0  0  0  0  0  0  0  0  0  0  0  0
   36.4310   32.1320   39.0030 H   0  0  0  0  0  0  0  0  0  0  0  0
   36.8220   33.5610   41.2300 H   0  0  0  0  0  0  0  0  0  0  0  0
   39.1190   33.0270   41.6370 H   0  0  0  0  0  0  0  0  0  0  0  0
   38.9320   34.5620   40.7920 H   0  0  0  0  0  0  0  0  0  0  0  0
   40.6560   33.2280   39.6970 H   0  0  0  0  0  0  0  0  0  0  0  0
   39.1890   33.6020   38.6340 H   0  0  0  0  0  0  0  0  0  0  0  0
   38.2880   30.0480   40.8250 C   0  0  0  0  0  0  0  0  0  0  0  0
   38.5060   30.1950   42.1770 C   0  0  0  0  0  0  0  0  0  0  0  0
   38.5420   29.0170   42.8050 N   0  0  0  0  0  0  0  0  0  0  0  0
   38.3450   28.1040   41.8490 C   0  0  0  0  0  0  0  0  0  0  0  0
   38.1930   28.7140   40.6720 N   0  0  0  0  0  0  0  0  0  0  0  0
   38.6340   31.1540   42.6590 H   0  0  0  0  0  0  0  0  0  0  0  0
   38.6850   28.7880   43.8020 H   0  0  0  0  0  0  0  0  0  0  0  0
   40.5690   26.5820   42.4720 F   0  0  0  0  0  0  0  0  0  0  0  0
   39.4090   25.8800   42.3120 C   0  0  0  0  0  0  0  0  0  0  0  0
   38.2900   26.6310   42.0000 C   0  0  0  0  0  0  0  0  0  0  0  0
   37.0490   26.0190   41.8140 C   0  0  0  0  0  0  0  0  0  0  0  0
   36.1710   26.5930   41.5710 H   0  0  0  0  0  0  0  0  0  0  0  0
   36.9970   24.6470   41.9550 C   0  0  0  0  0  0  0  0  0  0  0  0
   36.0260   24.1900   41.8060 H   0  0  0  0  0  0  0  0  0  0  0  0
   38.1320   23.9280   42.2670 C   0  0  0  0  0  3  0  0  0  0  0  0
   39.3570   24.5080   42.4530 C   0  0  0  0  0  3  0  0  0  0  0  0
  1  6  1  0  0  0  0
  1 13  1  0  0  0  0
  2  1  2  0  0  0  0
  3  4  2  0  0  0  0
  3  2  1  0  0  0  0
  4  5  1  0  0  0  0
  5  7  1  0  0  0  0
  5  6  2  0  0  0  0
  7 12  1  0  0  0  0
  7  8  1  0  0  0  0
  8 16  1  6  0  0  0
  8  9  1  0  0  0  0
  8 24  1  0  0  0  0
  9 10  1  0  0  0  0
  9 17  1  0  0  0  0
 10 11  1  0  0  0  0
 10 19  1  0  0  0  0
 11 21  1  0  0  0  0
 11 20  1  0  0  0  0
 12 22  1  0  0  0  0
 12 11  1  0  0  0  0
 14  2  1  0  0  0  0
 15  3  1  0  0  0  0
 18  9  1  0  0  0  0
 23 12  1  0  0  0  0
 24 25  2  0  0  0  0
 25 29  1  0  0  0  0
 25 26  1  0  0  0  0
 26 30  1  0  0  0  0
 27 33  1  0  0  0  0
 27 26  1  0  0  0  0
 28 24  1  0  0  0  0
 28 27  2  0  0  0  0
 32 39  1  0  0  0  0
 32 31  1  0  0  0  0
 33 32  2  0  0  0  0
 34 36  2  0  0  0  0
 34 33  1  0  0  0  0
 35 34  1  0  0  0  0
 36 38  1  0  0  0  0
 37 36  1  0  0  0  0
 38 39  2  0  0  0  0
M  END
>  <minimizedAffinity>
-5.89378309

$$$$

 OpenBabel03242520433D

 39 42  0  0  1  0  0  0  0  0999 V2000
   37.4210   28.9510   42.5610 C   0  0  0  0  0  0  0  0  0  0  0  0
   38.4830   28.1770   43.0750 C   0  0  0  0  0  0  0  0  0  0  0  0
   39.8130   28.5790   42.7510 C   0  0  0  0  0  0  0  0  0  0  0  0
   39.9970   29.6830   41.9650 N   0  0  0  0  0  0  0  0  0  0  0  0
   38.9340   30.3820   41.5050 C   0  0  0  0  0  0  0  0  0  0  0  0
   37.6640   30.0150   41.8020 N   0  0  0  0  0  0  0  0  0  0  0  0
   39.2200   31.4990   40.7050 N   0  0  0  0  0  0  0  0  0  0  0  0
   39.9490   31.3580   39.4870 C   0  0  2  0  0  0  0  0  0  0  0  0
   40.4030   32.6380   38.8790 C   0  0  0  0  0  0  0  0  0  0  0  0
   39.6040   33.7830   39.1090 N   0  0  0  0  0  0  0  0  0  0  0  0
   38.4130   33.5350   39.8460 C   0  0  0  0  0  0  0  0  0  0  0  0
   38.7700   32.8130   41.1180 C   0  0  0  0  0  0  0  0  0  0  0  0
   36.4380   28.6010   42.8380 H   0  0  0  0  0  0  0  0  0  0  0  0
   38.4270   27.3130   43.6870 H   0  0  0  0  0  0  0  0  0  0  0  0
   40.6850   28.0560   43.0930 H   0  0  0  0  0  0  0  0  0  0  0  0
   40.9120   30.8330   39.7770 H   0  0  0  0  0  0  0  0  0  0  0  0
   40.4610   32.4490   37.7680 H   0  0  0  0  0  0  0  0  0  0  0  0
   41.4450   32.9010   39.1580 H   0  0  0  0  0  0  0  0  0  0  0  0
   39.3620   34.2920   38.2210 H   0  0  0  0  0  0  0  0  0  0  0  0
   37.5850   33.0980   39.2910 H   0  0  0  0  0  0  0  0  0  0  0  0
   38.0400   34.5500   40.1790 H   0  0  0  0  0  0  0  0  0  0  0  0
   37.8530   32.6690   41.7210 H   0  0  0  0  0  0  0  0  0  0  0  0
   39.5460   33.4060   41.6160 H   0  0  0  0  0  0  0  0  0  0  0  0
   39.2460   30.4780   38.5210 C   0  0  0  0  0  0  0  0  0  0  0  0
   39.6840   29.5060   37.6490 C   0  0  0  0  0  0  0  0  0  0  0  0
   38.6740   28.9590   36.9670 N   0  0  0  0  0  0  0  0  0  0  0  0
   37.5760   29.5840   37.4060 C   0  0  0  0  0  0  0  0  0  0  0  0
   37.9140   30.4870   38.3290 N   0  0  0  0  0  0  0  0  0  0  0  0
   40.7230   29.2300   37.5360 H   0  0  0  0  0  0  0  0  0  0  0  0
   38.6670   28.2170   36.2490 H   0  0  0  0  0  0  0  0  0  0  0  0
   36.7940   29.6450   34.7530 F   0  0  0  0  0  0  0  0  0  0  0  0
   35.7950   29.3940   35.6490 C   0  0  0  0  0  0  0  0  0  0  0  0
   36.1750   29.3610   36.9790 C   0  0  0  0  0  0  0  0  0  0  0  0
   35.2370   29.1120   37.9830 C   0  0  0  0  0  0  0  0  0  0  0  0
   35.5210   29.0850   39.0220 H   0  0  0  0  0  0  0  0  0  0  0  0
   33.9320   28.9040   37.5870 C   0  0  0  0  0  0  0  0  0  0  0  0
   33.2190   28.7130   38.3800 H   0  0  0  0  0  0  0  0  0  0  0  0
   33.5870   28.9440   36.2520 C   0  0  0  0  0  3  0  0  0  0  0  0
   34.4900   29.1860   35.2530 C   0  0  0  0  0  3  0  0  0  0  0  0
  1 13  1  0  0  0  0
  1  2  1  0  0  0  0
  2 14  1  0  0  0  0
  3  2  2  0  0  0  0
  3 15  1  0  0  0  0
  4  3  1  0  0  0  0
  5  6  1  0  0  0  0
  5  4  2  0  0  0  0
  6  1  2  0  0  0  0
  7 12  1  0  0  0  0
  7  5  1  0  0  0  0
  8 16  1  1  0  0  0
  8  7  1  0  0  0  0
  9 10  1  0  0  0  0
  9 18  1  0  0  0  0
  9  8  1  0  0  0  0
 10 11  1  0  0  0  0
 11 21  1  0  0  0  0
 11 12  1  0  0  0  0
 12 23  1  0  0  0  0
 12 22  1  0  0  0  0
 17  9  1  0  0  0  0
 19 10  1  0  0  0  0
 20 11  1  0  0  0  0
 24  8  1  0  0  0  0
 25 24  2  0  0  0  0
 26 27  1  0  0  0  0
 26 25  1  0  0  0  0
 27 28  2  0  0  0  0
 28 24  1  0  0  0  0
 29 25  1  0  0  0  0
 30 26  1  0  0  0  0
 31 32  1  0  0  0  0
 32 33  1  0  0  0  0
 33 27  1  0  0  0  0
 33 34  2  0  0  0  0
 34 35  1  0  0  0  0
 36 34  1  0  0  0  0
 36 37  1  0  0  0  0
 38 36  2  0  0  0  0
 39 32  2  0  0  0  0
 39 38  1  0  0  0  0
M  END
>  <minimizedAffinity>
-5.82990026

$$$$

 OpenBabel03242520433D

 39 42  0  0  1  0  0  0  0  0999 V2000
   37.3640   28.6790   43.1340 C   0  0  0  0  0  0  0  0  0  0  0  0
   38.5170   27.8970   43.3610 C   0  0  0  0  0  0  0  0  0  0  0  0
   39.6670   28.1630   42.5590 C   0  0  0  0  0  0  0  0  0  0  0  0
   39.6010   29.1530   41.6170 N   0  0  0  0  0  0  0  0  0  0  0  0
   38.4640   29.8670   41.4500 C   0  0  0  0  0  0  0  0  0  0  0  0
   37.3620   29.6280   42.2020 N   0  0  0  0  0  0  0  0  0  0  0  0
   38.4900   30.8600   40.4600 N   0  0  0  0  0  0  0  0  0  0  0  0
   38.7550   30.5270   39.0980 C   0  0  2  0  0  0  0  0  0  0  0  0
   39.0090   31.6920   38.2080 C   0  0  0  0  0  0  0  0  0  0  0  0
   38.3680   32.9090   38.5360 N   0  0  0  0  0  0  0  0  0  0  0  0
   37.4940   32.8340   39.6560 C   0  0  0  0  0  0  0  0  0  0  0  0
   38.2440   32.2420   40.8200 C   0  0  0  0  0  0  0  0  0  0  0  0
   36.5260   28.4350   43.7690 H   0  0  0  0  0  0  0  0  0  0  0  0
   38.6500   27.1160   44.0660 H   0  0  0  0  0  0  0  0  0  0  0  0
   40.5880   27.6230   42.6560 H   0  0  0  0  0  0  0  0  0  0  0  0
   39.7450   29.9720   39.1160 H   0  0  0  0  0  0  0  0  0  0  0  0
   38.6790   31.3710   37.1770 H   0  0  0  0  0  0  0  0  0  0  0  0
   40.0900   31.9110   38.0840 H   0  0  0  0  0  0  0  0  0  0  0  0
   37.8510   33.3270   37.7220 H   0  0  0  0  0  0  0  0  0  0  0  0
   36.5140   32.3950   39.4740 H   0  0  0  0  0  0  0  0  0  0  0  0
   37.2850   33.9050   39.9560 H   0  0  0  0  0  0  0  0  0  0  0  0
   37.5850   32.2350   41.7090 H   0  0  0  0  0  0  0  0  0  0  0  0
   39.1600   32.8320   40.9450 H   0  0  0  0  0  0  0  0  0  0  0  0
   37.7410   29.5910   38.5500 C   0  0  0  0  0  0  0  0  0  0  0  0
   37.7000   28.2210   38.4290 C   0  0  0  0  0  0  0  0  0  0  0  0
   36.5610   27.8060   37.8680 N   0  0  0  0  0  0  0  0  0  0  0  0
   35.8630   28.9210   37.6280 C   0  0  0  0  0  0  0  0  0  0  0  0
   36.5620   29.9830   38.0320 N   0  0  0  0  0  0  0  0  0  0  0  0
   38.5000   27.5690   38.7500 H   0  0  0  0  0  0  0  0  0  0  0  0
   36.2260   26.8560   37.6420 H   0  0  0  0  0  0  0  0  0  0  0  0
   33.5440   29.1080   39.1250 F   0  0  0  0  0  0  0  0  0  0  0  0
   33.3660   29.1260   37.7710 C   0  0  0  0  0  0  0  0  0  0  0  0
   34.5190   29.0340   37.0120 C   0  0  0  0  0  0  0  0  0  0  0  0
   34.4580   29.0430   35.6180 C   0  0  0  0  0  0  0  0  0  0  0  0
   35.3490   28.9700   35.0170 H   0  0  0  0  0  0  0  0  0  0  0  0
   33.2080   29.1480   35.0430 C   0  0  0  0  0  0  0  0  0  0  0  0
   33.1810   29.1530   33.9600 H   0  0  0  0  0  0  0  0  0  0  0  0
   32.0780   29.2390   35.8300 C   0  0  0  0  0  3  0  0  0  0  0  0
   32.1160   29.2320   37.1970 C   0  0  0  0  0  3  0  0  0  0  0  0
  1  2  1  0  0  0  0
  1 13  1  0  0  0  0
  2 14  1  0  0  0  0
  3 15  1  0  0  0  0
  3  2  2  0  0  0  0
  4  3  1  0  0  0  0
  5  4  2  0  0  0  0
  5  6  1  0  0  0  0
  6  1  2  0  0  0  0
  7 12  1  0  0  0  0
  7  5  1  0  0  0  0
  8 16  1  1  0  0  0
  8  7  1  0  0  0  0
  9 10  1  0  0  0  0
  9  8  1  0  0  0  0
 10 11  1  0  0  0  0
 11 21  1  0  0  0  0
 11 12  1  0  0  0  0
 12 23  1  0  0  0  0
 12 22  1  0  0  0  0
 17  9  1  0  0  0  0
 18  9  1  0  0  0  0
 19 10  1  0  0  0  0
 20 11  1  0  0  0  0
 24  8  1  0  0  0  0
 25 24  2  0  0  0  0
 25 29  1  0  0  0  0
 26 25  1  0  0  0  0
 27 26  1  0  0  0  0
 27 28  2  0  0  0  0
 28 24  1  0  0  0  0
 30 26  1  0  0  0  0
 32 31  1  0  0  0  0
 33 27  1  0  0  0  0
 33 32  2  0  0  0  0
 34 33  1  0  0  0  0
 35 34  1  0  0  0  0
 36 34  2  0  0  0  0
 36 38  1  0  0  0  0
 37 36  1  0  0  0  0
 38 39  2  0  0  0  0
 39 32  1  0  0  0  0
M  END
>  <minimizedAffinity>
-5.72583199

$$$$

 OpenBabel03242520433D

 39 42  0  0  1  0  0  0  0  0999 V2000
   37.3100   32.4470   38.9010 C   0  0  0  0  0  0  0  0  0  0  0  0
   37.2990   33.7050   39.5400 C   0  0  0  0  0  0  0  0  0  0  0  0
   38.4810   34.1090   40.2290 C   0  0  0  0  0  0  0  0  0  0  0  0
   39.5600   33.2670   40.2380 N   0  0  0  0  0  0  0  0  0  0  0  0
   39.5050   32.0740   39.6040 C   0  0  0  0  0  0  0  0  0  0  0  0
   38.3910   31.6740   38.9460 N   0  0  0  0  0  0  0  0  0  0  0  0
   40.6590   31.2780   39.6700 N   0  0  0  0  0  0  0  0  0  0  0  0
   41.1800   30.8480   40.9260 C   0  0  2  0  0  0  0  0  0  0  0  0
   42.5360   30.2390   40.8650 C   0  0  0  0  0  0  0  0  0  0  0  0
   42.8880   29.5630   39.6730 N   0  0  0  0  0  0  0  0  0  0  0  0
   41.8500   29.4950   38.7020 C   0  0  0  0  0  0  0  0  0  0  0  0
   41.3320   30.8860   38.4480 C   0  0  0  0  0  0  0  0  0  0  0  0
   36.3900   32.1950   38.3960 H   0  0  0  0  0  0  0  0  0  0  0  0
   36.5100   34.4120   39.5810 H   0  0  0  0  0  0  0  0  0  0  0  0
   38.5710   35.0440   40.7460 H   0  0  0  0  0  0  0  0  0  0  0  0
   41.3310   31.8000   41.5260 H   0  0  0  0  0  0  0  0  0  0  0  0
   42.5870   29.5120   41.7260 H   0  0  0  0  0  0  0  0  0  0  0  0
   43.3450   30.9670   41.0830 H   0  0  0  0  0  0  0  0  0  0  0  0
   43.2580   28.5950   39.8510 H   0  0  0  0  0  0  0  0  0  0  0  0
   41.0800   28.7450   38.8710 H   0  0  0  0  0  0  0  0  0  0  0  0
   42.3530   29.1880   37.7360 H   0  0  0  0  0  0  0  0  0  0  0  0
   40.5640   30.8450   37.6510 H   0  0  0  0  0  0  0  0  0  0  0  0
   42.1980   31.5120   38.2040 H   0  0  0  0  0  0  0  0  0  0  0  0
   40.2050   30.0140   41.6720 C   0  0  0  0  0  0  0  0  0  0  0  0
   39.3080   30.2950   42.6780 C   0  0  0  0  0  0  0  0  0  0  0  0
   38.6180   29.2110   43.0460 N   0  0  0  0  0  0  0  0  0  0  0  0
   39.0760   28.2250   42.2680 C   0  0  0  0  0  0  0  0  0  0  0  0
   40.0180   28.6990   41.4510 N   0  0  0  0  0  0  0  0  0  0  0  0
   39.1870   31.2770   43.1130 H   0  0  0  0  0  0  0  0  0  0  0  0
   37.8830   29.0890   43.7600 H   0  0  0  0  0  0  0  0  0  0  0  0
   36.5710   27.4220   41.4120 F   0  0  0  0  0  0  0  0  0  0  0  0
   37.3930   26.4160   41.8300 C   0  0  0  0  0  0  0  0  0  0  0  0
   38.6490   26.8060   42.2590 C   0  0  0  0  0  0  0  0  0  0  0  0
   39.5750   25.8620   42.7080 C   0  0  0  0  0  0  0  0  0  0  0  0
   40.5550   26.1540   43.0460 H   0  0  0  0  0  0  0  0  0  0  0  0
   39.1790   24.5400   42.7010 C   0  0  0  0  0  0  0  0  0  0  0  0
   39.9100   23.8220   43.0540 H   0  0  0  0  0  0  0  0  0  0  0  0
   37.9190   24.1850   42.2650 C   0  0  0  0  0  3  0  0  0  0  0  0
   36.9980   25.0940   41.8220 C   0  0  0  0  0  3  0  0  0  0  0  0
  1  6  2  0  0  0  0
  1  2  1  0  0  0  0
  2 14  1  0  0  0  0
  2  3  2  0  0  0  0
  3  4  1  0  0  0  0
  3 15  1  0  0  0  0
  5  7  1  0  0  0  0
  5  4  2  0  0  0  0
  6  5  1  0  0  0  0
  7  8  1  0  0  0  0
  8 16  1  1  0  0  0
  8 24  1  0  0  0  0
  9  8  1  0  0  0  0
  9 18  1  0  0  0  0
  9 17  1  0  0  0  0
 10 19  1  0  0  0  0
 10  9  1  0  0  0  0
 11 20  1  0  0  0  0
 11 10  1  0  0  0  0
 12 11  1  0  0  0  0
 12  7  1  0  0  0  0
 13  1  1  0  0  0  0
 21 11  1  0  0  0  0
 22 12  1  0  0  0  0
 23 12  1  0  0  0  0
 24 25  2  0  0  0  0
 25 26  1  0  0  0  0
 25 29  1  0  0  0  0
 26 30  1  0  0  0  0
 27 26  1  0  0  0  0
 28 24  1  0  0  0  0
 28 27  2  0  0  0  0
 31 32  1  0  0  0  0
 32 33  1  0  0  0  0
 33 27  1  0  0  0  0
 33 34  2  0  0  0  0
 34 35  1  0  0  0  0
 36 34  1  0  0  0  0
 36 37  1  0  0  0  0
 38 36  2  0  0  0  0
 39 32  2  0  0  0  0
 39 38  1  0  0  0  0
M  END
>  <minimizedAffinity>
-5.718328

$$$$
