
 OpenBabel03242520103D

 29 31  0  0  0  0  0  0  0  0999 V2000
   46.1250   32.6350   47.0930 C   0  0  0  0  0  0  0  0  0  0  0  0
   45.0540   32.3450   47.8670 C   0  0  0  0  0  0  0  0  0  0  0  0
   45.2400   31.6150   49.0110 C   0  0  0  0  0  0  0  0  0  0  0  0
   46.5190   31.1810   49.3620 C   0  0  0  0  0  0  0  0  0  0  0  0
   47.5850   31.4950   48.5490 C   0  0  0  0  0  0  0  0  0  0  0  0
   47.3440   32.1970   47.4660 N   0  0  0  0  0  0  0  0  0  0  0  0
   44.1080   32.7170   47.5240 H   0  0  0  0  0  0  0  0  0  0  0  0
   44.3850   31.3790   49.6360 H   0  0  0  0  0  0  0  0  0  0  0  0
   46.6320   30.6100   50.2640 H   0  0  0  0  0  0  0  0  0  0  0  0
   44.9420   35.0060   44.5590 C   0  0  0  0  0  0  0  0  0  0  0  0
   45.9000   34.8440   43.5330 C   0  0  0  0  0  0  0  0  0  0  0  0
   46.9350   33.9290   43.7180 C   0  0  0  0  0  0  0  0  0  0  0  0
   46.9540   33.2440   44.8920 N   0  0  0  0  0  0  0  0  0  0  0  0
   46.0440   33.4100   45.8450 C   0  0  0  0  0  0  0  0  0  0  0  0
   45.0410   34.2930   45.6720 N   0  0  0  0  0  0  0  0  0  0  0  0
   43.8920   35.9420   44.3600 N   0  0  0  0  0  0  0  0  0  0  0  0
   45.8260   35.4250   42.6180 H   0  0  0  0  0  0  0  0  0  0  0  0
   47.6840   33.7640   42.9830 H   0  0  0  0  0  0  0  0  0  0  0  0
   42.8950   35.6370   44.3310 H   0  0  0  0  0  0  0  0  0  0  0  0
   44.1190   36.9500   44.2400 H   0  0  0  0  0  0  0  0  0  0  0  0
   48.5270   29.0400   47.7530 F   0  0  0  0  0  0  0  0  0  0  0  0
   49.3900   29.8310   48.4540 C   0  0  0  0  0  0  0  0  0  0  0  0
   48.9420   31.0680   48.8660 C   0  0  0  0  0  0  0  0  0  0  0  0
   49.8610   31.8190   49.5680 C   0  0  0  0  0  0  0  0  0  0  0  0
   49.5780   32.7880   49.9160 H   0  0  0  0  0  0  0  0  0  0  0  0
   51.1380   31.3750   49.8450 C   0  0  0  0  0  0  0  0  0  0  0  0
   51.8480   31.9730   50.3980 H   0  0  0  0  0  0  0  0  0  0  0  0
   51.5070   30.1240   49.3960 C   0  0  0  0  0  0  0  0  0  0  0  0
   50.6450   29.3070   48.6840 C   0  0  0  0  0  0  0  0  0  0  0  0
  1  6  2  0  0  0  0
  1  2  1  0  0  0  0
  2  3  2  0  0  0  0
  3  4  1  0  0  0  0
  3  8  1  0  0  0  0
  4  9  1  0  0  0  0
  5 23  1  0  0  0  0
  5  4  2  0  0  0  0
  6  5  1  0  0  0  0
  7  2  1  0  0  0  0
 10 15  1  0  0  0  0
 11 12  1  0  0  0  0
 11 10  2  0  0  0  0
 12 13  2  0  0  0  0
 13 14  1  0  0  0  0
 14  1  1  0  0  0  0
 15 14  2  0  0  0  0
 16 10  1  0  0  0  0
 17 11  1  0  0  0  0
 18 12  1  0  0  0  0
 19 16  1  0  0  0  0
 20 16  1  0  0  0  0
 21 22  1  0  0  0  0
 22 29  2  0  0  0  0
 22 23  1  0  0  0  0
 23 24  2  0  0  0  0
 24 26  1  0  0  0  0
 24 25  1  0  0  0  0
 26 27  1  0  0  0  0
 28 26  2  0  0  0  0
 29 28  1  0  0  0  0
M  END
>  <minimizedAffinity>
-6.42697001

>  <minimizedRMSD>
1.18926489

$$$$
