
 OpenBabel03252508143D

 37 40  0  0  1  0  0  0  0  0999 V2000
   45.7450   33.0920   46.1840 C   0  0  0  0  0  3  0  0  0  0  0  0
   46.0590   31.9370   45.7430 C   0  0  0  0  0  3  0  0  0  0  0  0
   44.5100   36.1680   44.5830 C   0  0  0  0  0  0  0  0  0  0  0  0
   45.1200   36.1380   43.3210 C   0  0  0  0  0  0  0  0  0  0  0  0
   45.9380   35.0780   43.0710 C   0  0  0  0  0  0  0  0  0  0  0  0
   46.0920   34.1560   44.0470 N   0  0  0  0  0  0  0  0  0  0  0  0
   45.5150   34.1810   45.2400 C   0  0  0  0  0  0  0  0  0  0  0  0
   44.7240   35.2040   45.4860 N   0  0  0  0  0  0  0  0  0  0  0  0
   43.8460   37.0120   44.8100 H   0  0  0  0  0  0  0  0  0  0  0  0
   44.9670   36.8930   42.5810 H   0  0  0  0  0  0  0  0  0  0  0  0
   45.0940   33.4930   40.8150 F   0  0  0  0  0  0  0  0  0  0  0  0
   46.3050   34.0830   40.7690 C   0  0  0  0  0  0  0  0  0  0  0  0
   46.6800   34.8250   41.8480 C   0  0  0  0  0  0  0  0  0  0  0  0
   47.9430   35.3820   41.6840 C   0  0  0  0  0  0  0  0  0  0  0  0
   48.3930   36.0030   42.4520 H   0  0  0  0  0  0  0  0  0  0  0  0
   48.7220   35.2060   40.5730 C   0  0  0  0  0  0  0  0  0  0  0  0
   49.6990   35.6540   40.4820 H   0  0  0  0  0  0  0  0  0  0  0  0
   48.2730   34.4390   39.5230 C   0  0  0  0  0  3  0  0  0  0  0  0
   47.0430   33.8700   39.6290 C   0  0  0  0  0  3  0  0  0  0  0  0
   46.2670   30.8700   46.8120 C   0  0  0  0  0  0  0  0  0  0  0  0
   45.6700   29.9760   46.6030 H   0  0  0  0  0  0  0  0  0  0  0  0
   47.3410   30.6030   46.7240 H   0  0  0  0  0  0  0  0  0  0  0  0
   46.0050   31.4600   48.1690 C   0  0  1  0  0  0  0  0  0  0  0  0
   45.7460   30.4910   49.2790 C   0  0  0  0  0  0  0  0  0  0  0  0
   46.9860   31.2410   49.2640 C   0  0  1  0  0  0  0  0  0  0  0  0
   45.4270   32.4060   48.2020 H   0  0  0  0  0  0  0  0  0  0  0  0
   45.7080   29.4180   49.0010 H   0  0  0  0  0  0  0  0  0  0  0  0
   44.9630   30.7420   50.0230 H   0  0  0  0  0  0  0  0  0  0  0  0
   47.0590   32.0900   50.0100 H   0  0  0  0  0  0  0  0  0  0  0  0
   48.3080   30.6840   48.9100 C   0  0  0  0  0  0  0  0  0  0  0  0
   49.2390   30.4460   50.1320 C   0  0  0  0  0  0  0  0  0  0  0  0
   49.5280   31.5880   49.2190 C   0  0  0  0  0  0  0  0  0  0  0  0
   48.4240   29.9510   48.0970 H   0  0  0  0  0  0  0  0  0  0  0  0
   49.8880   29.5730   50.0820 H   0  0  0  0  0  0  0  0  0  0  0  0
   48.8370   30.6810   51.1330 H   0  0  0  0  0  0  0  0  0  0  0  0
   49.3350   32.6220   49.5060 H   0  0  0  0  0  0  0  0  0  0  0  0
   50.3580   31.4800   48.4730 H   0  0  0  0  0  0  0  0  0  0  0  0
  2  1  2  0  0  0  0
  2 20  1  0  0  0  0
  3  9  1  0  0  0  0
  3  8  1  0  0  0  0
  4  3  2  0  0  0  0
  5  4  1  0  0  0  0
  5  6  2  0  0  0  0
  6  7  1  0  0  0  0
  7  8  2  0  0  0  0
  7  1  1  0  0  0  0
 10  4  1  0  0  0  0
 12 11  1  0  0  0  0
 12 13  1  0  0  0  0
 13  5  1  0  0  0  0
 14 13  2  0  0  0  0
 14 15  1  0  0  0  0
 16 14  1  0  0  0  0
 17 16  1  0  0  0  0
 18 19  1  0  0  0  0
 18 16  2  0  0  0  0
 19 12  2  0  0  0  0
 20 23  1  0  0  0  0
 21 20  1  0  0  0  0
 22 20  1  0  0  0  0
 23 26  1  1  0  0  0
 23 25  1  0  0  0  0
 23 24  1  0  0  0  0
 24 28  1  0  0  0  0
 25 24  1  0  0  0  0
 25 29  1  1  0  0  0
 27 24  1  0  0  0  0
 30 32  1  0  0  0  0
 30 25  1  0  0  0  0
 30 31  1  0  0  0  0
 31 35  1  0  0  0  0
 32 36  1  0  0  0  0
 32 31  1  0  0  0  0
 33 30  1  0  0  0  0
 34 31  1  0  0  0  0
 37 32  1  0  0  0  0
M  END
>  <minimizedAffinity>
-6.33862829

>  <minimizedRMSD>
0.643158376

$$$$
