
 OpenBabel03252500483D

 26 28  0  0  0  0  0  0  0  0999 V2000
   38.3080   27.8870   39.6250 C   0  0  0  0  0  0  0  0  0  0  0  0
   37.3500   27.3410   40.4920 C   0  0  0  0  0  0  0  0  0  0  0  0
   36.5680   28.1570   41.3060 C   0  0  0  0  0  0  0  0  0  0  0  0
   36.8080   29.4960   41.1910 N   0  0  0  0  0  0  0  0  0  0  0  0
   37.7240   30.0130   40.3620 C   0  0  0  0  0  0  0  0  0  0  0  0
   38.4670   29.2200   39.5860 N   0  0  0  0  0  0  0  0  0  0  0  0
   38.9090   27.2370   38.9960 H   0  0  0  0  0  0  0  0  0  0  0  0
   35.8220   27.7600   41.9830 H   0  0  0  0  0  0  0  0  0  0  0  0
   37.9240   31.4570   40.2940 C   0  0  0  0  0  0  0  0  0  0  0  0
   37.1050   32.2630   39.5530 C   0  0  0  0  0  0  0  0  0  0  0  0
   37.2540   33.6210   39.4600 C   0  0  0  0  0  0  0  0  0  0  0  0
   38.2900   34.1600   40.1600 N   0  0  0  0  0  0  0  0  0  0  0  0
   39.0960   33.3790   40.8890 C   0  0  0  0  0  0  0  0  0  0  0  0
   38.9630   32.0260   40.9930 N   0  0  0  0  0  0  0  0  0  0  0  0
   36.2900   31.7840   39.0110 H   0  0  0  0  0  0  0  0  0  0  0  0
   36.5970   34.2450   38.8690 H   0  0  0  0  0  0  0  0  0  0  0  0
   39.9260   33.8130   41.4480 H   0  0  0  0  0  0  0  0  0  0  0  0
   38.3340   25.6690   42.5750 F   0  0  0  0  0  0  0  0  0  0  0  0
   37.6630   25.0860   41.5520 C   0  0  0  0  0  0  0  0  0  0  0  0
   37.1790   25.8890   40.5310 C   0  0  0  0  0  0  0  0  0  0  0  0
   36.4830   25.3950   39.4450 C   0  0  0  0  0  0  0  0  0  0  0  0
   36.0970   25.9930   38.6400 H   0  0  0  0  0  0  0  0  0  0  0  0
   36.2480   24.0270   39.3530 C   0  0  0  0  0  0  0  0  0  0  0  0
   35.7080   23.5630   38.5280 H   0  0  0  0  0  0  0  0  0  0  0  0
   36.7370   23.2360   40.3800 C   0  0  0  0  0  3  0  0  0  0  0  0
   37.4330   23.7280   41.4690 C   0  0  0  0  0  3  0  0  0  0  0  0
  1  2  1  0  0  0  0
  2 20  1  0  0  0  0
  2  3  2  0  0  0  0
  3  8  1  0  0  0  0
  4  3  1  0  0  0  0
  5  4  2  0  0  0  0
  6  1  2  0  0  0  0
  6  5  1  0  0  0  0
  7  1  1  0  0  0  0
  9  5  1  0  0  0  0
  9 14  1  0  0  0  0
 10  9  2  0  0  0  0
 11 10  1  0  0  0  0
 11 12  2  0  0  0  0
 12 13  1  0  0  0  0
 13 14  2  0  0  0  0
 13 17  1  0  0  0  0
 15 10  1  0  0  0  0
 16 11  1  0  0  0  0
 19 18  1  0  0  0  0
 20 19  2  0  0  0  0
 21 20  1  0  0  0  0
 22 21  1  0  0  0  0
 23 21  2  0  0  0  0
 23 25  1  0  0  0  0
 24 23  1  0  0  0  0
 25 26  2  0  0  0  0
 26 19  1  0  0  0  0
M  END
>  <minimizedAffinity>
-4.93316555

$$$$

 OpenBabel03252500483D

 26 28  0  0  0  0  0  0  0  0999 V2000
   38.7680   29.2560   39.5460 C   0  0  0  0  0  0  0  0  0  0  0  0
   38.0850   30.0400   40.4880 C   0  0  0  0  0  0  0  0  0  0  0  0
   37.3640   29.4540   41.5250 C   0  0  0  0  0  0  0  0  0  0  0  0
   37.3790   28.0890   41.5460 N   0  0  0  0  0  0  0  0  0  0  0  0
   38.0320   27.3440   40.6440 C   0  0  0  0  0  0  0  0  0  0  0  0
   38.7200   27.9190   39.6540 N   0  0  0  0  0  0  0  0  0  0  0  0
   39.3270   29.7300   38.7430 H   0  0  0  0  0  0  0  0  0  0  0  0
   36.8290   30.0360   42.2640 H   0  0  0  0  0  0  0  0  0  0  0  0
   38.0010   25.8870   40.7300 C   0  0  0  0  0  0  0  0  0  0  0  0
   37.2660   25.2390   41.6840 C   0  0  0  0  0  0  0  0  0  0  0  0
   37.2060   23.8760   41.8030 C   0  0  0  0  0  0  0  0  0  0  0  0
   37.9360   23.1630   40.9010 N   0  0  0  0  0  0  0  0  0  0  0  0
   38.6570   23.7890   39.9650 C   0  0  0  0  0  0  0  0  0  0  0  0
   38.7290   25.1440   39.8310 N   0  0  0  0  0  0  0  0  0  0  0  0
   36.6990   25.8550   42.3820 H   0  0  0  0  0  0  0  0  0  0  0  0
   36.6200   23.3780   42.5640 H   0  0  0  0  0  0  0  0  0  0  0  0
   39.2410   23.2150   39.2440 H   0  0  0  0  0  0  0  0  0  0  0  0
   39.9250   31.6930   41.8960 F   0  0  0  0  0  0  0  0  0  0  0  0
   39.0420   32.2900   41.0580 C   0  0  0  0  0  0  0  0  0  0  0  0
   38.1400   31.4970   40.3680 C   0  0  0  0  0  0  0  0  0  0  0  0
   37.2010   32.0050   39.4920 C   0  0  0  0  0  0  0  0  0  0  0  0
   36.4900   31.4150   38.9430 H   0  0  0  0  0  0  0  0  0  0  0  0
   37.1410   33.3790   39.2810 C   0  0  0  0  0  0  0  0  0  0  0  0
   36.4290   33.8540   38.6070 H   0  0  0  0  0  0  0  0  0  0  0  0
   38.0480   34.1610   39.9780 C   0  0  0  0  0  3  0  0  0  0  0  0
   38.9900   33.6540   40.8540 C   0  0  0  0  0  3  0  0  0  0  0  0
  1  6  2  0  0  0  0
  1  2  1  0  0  0  0
  2  3  2  0  0  0  0
  3  4  1  0  0  0  0
  3  8  1  0  0  0  0
  5  9  1  0  0  0  0
  5  4  2  0  0  0  0
  6  5  1  0  0  0  0
  7  1  1  0  0  0  0
  9 10  1  0  0  0  0
 10 11  2  0  0  0  0
 10 15  1  0  0  0  0
 11 16  1  0  0  0  0
 12 11  1  0  0  0  0
 13 12  2  0  0  0  0
 14 13  1  0  0  0  0
 14  9  2  0  0  0  0
 17 13  1  0  0  0  0
 19 18  1  0  0  0  0
 20  2  1  0  0  0  0
 20 19  2  0  0  0  0
 21 20  1  0  0  0  0
 22 21  1  0  0  0  0
 23 21  2  0  0  0  0
 23 25  1  0  0  0  0
 24 23  1  0  0  0  0
 25 26  2  0  0  0  0
 26 19  1  0  0  0  0
M  END
>  <minimizedAffinity>
-4.7497015

$$$$

 OpenBabel03252500483D

 26 28  0  0  0  0  0  0  0  0999 V2000
   40.5450   29.1430   40.5420 C   0  0  0  0  0  0  0  0  0  0  0  0
   39.2730   29.5840   40.9350 C   0  0  0  0  0  0  0  0  0  0  0  0
   38.8260   30.8650   40.6230 C   0  0  0  0  0  0  0  0  0  0  0  0
   39.7090   31.6350   39.9220 N   0  0  0  0  0  0  0  0  0  0  0  0
   40.9230   31.2100   39.5490 C   0  0  0  0  0  0  0  0  0  0  0  0
   41.3400   29.9790   39.8540 N   0  0  0  0  0  0  0  0  0  0  0  0
   40.8780   28.1400   40.7930 H   0  0  0  0  0  0  0  0  0  0  0  0
   37.8490   31.2280   40.9150 H   0  0  0  0  0  0  0  0  0  0  0  0
   41.8130   32.0930   38.8000 C   0  0  0  0  0  0  0  0  0  0  0  0
   43.1280   31.7800   38.5920 C   0  0  0  0  0  0  0  0  0  0  0  0
   43.9990   32.5750   37.8970 C   0  0  0  0  0  0  0  0  0  0  0  0
   43.4870   33.7360   37.4020 N   0  0  0  0  0  0  0  0  0  0  0  0
   42.2020   34.0500   37.6000 C   0  0  0  0  0  0  0  0  0  0  0  0
   41.3200   33.2700   38.2890 N   0  0  0  0  0  0  0  0  0  0  0  0
   43.4900   30.8400   39.0080 H   0  0  0  0  0  0  0  0  0  0  0  0
   45.0370   32.3130   37.7400 H   0  0  0  0  0  0  0  0  0  0  0  0
   41.7940   34.9800   37.2020 H   0  0  0  0  0  0  0  0  0  0  0  0
   38.5930   29.9130   43.6800 F   0  0  0  0  0  0  0  0  0  0  0  0
   38.0860   28.8420   43.0210 C   0  0  0  0  0  0  0  0  0  0  0  0
   38.4100   28.6700   41.6840 C   0  0  0  0  0  0  0  0  0  0  0  0
   37.9470   27.6140   40.9230 C   0  0  0  0  0  0  0  0  0  0  0  0
   38.1810   27.4560   39.8870 H   0  0  0  0  0  0  0  0  0  0  0  0
   37.1150   26.6670   41.5110 C   0  0  0  0  0  0  0  0  0  0  0  0
   36.7110   25.8060   40.9760 H   0  0  0  0  0  0  0  0  0  0  0  0
   36.7990   26.8500   42.8470 C   0  0  0  0  0  3  0  0  0  0  0  0
   37.2610   27.9070   43.6100 C   0  0  0  0  0  3  0  0  0  0  0  0
  1  7  1  0  0  0  0
  1  2  1  0  0  0  0
  2 20  1  0  0  0  0
  3  8  1  0  0  0  0
  3  2  2  0  0  0  0
  4  3  1  0  0  0  0
  5  6  1  0  0  0  0
  5  4  2  0  0  0  0
  6  1  2  0  0  0  0
  9  5  1  0  0  0  0
 10  9  1  0  0  0  0
 10 15  1  0  0  0  0
 11 10  2  0  0  0  0
 12 13  2  0  0  0  0
 12 11  1  0  0  0  0
 13 14  1  0  0  0  0
 14  9  2  0  0  0  0
 16 11  1  0  0  0  0
 17 13  1  0  0  0  0
 19 26  1  0  0  0  0
 19 18  1  0  0  0  0
 20 19  2  0  0  0  0
 21 23  2  0  0  0  0
 21 20  1  0  0  0  0
 22 21  1  0  0  0  0
 23 25  1  0  0  0  0
 24 23  1  0  0  0  0
 25 26  2  0  0  0  0
M  END
>  <minimizedAffinity>
-4.56331205

$$$$

 OpenBabel03252500483D

 26 28  0  0  0  0  0  0  0  0999 V2000
   36.5250   27.5110   39.3180 C   0  0  0  0  0  0  0  0  0  0  0  0
   36.5180   28.3430   40.4470 C   0  0  0  0  0  0  0  0  0  0  0  0
   35.5970   29.3800   40.5720 C   0  0  0  0  0  0  0  0  0  0  0  0
   34.7260   29.5140   39.5290 N   0  0  0  0  0  0  0  0  0  0  0  0
   34.7370   28.7170   38.4520 C   0  0  0  0  0  0  0  0  0  0  0  0
   35.6250   27.7250   38.3440 N   0  0  0  0  0  0  0  0  0  0  0  0
   37.2500   26.7050   39.2360 H   0  0  0  0  0  0  0  0  0  0  0  0
   35.5710   30.0350   41.4330 H   0  0  0  0  0  0  0  0  0  0  0  0
   33.7730   28.9220   37.3750 C   0  0  0  0  0  0  0  0  0  0  0  0
   32.4770   29.2760   37.6270 C   0  0  0  0  0  0  0  0  0  0  0  0
   31.5390   29.4790   36.6510 C   0  0  0  0  0  0  0  0  0  0  0  0
   31.9620   29.3080   35.3680 N   0  0  0  0  0  0  0  0  0  0  0  0
   33.2290   28.9630   35.1110 C   0  0  0  0  0  0  0  0  0  0  0  0
   34.1760   28.7560   36.0710 N   0  0  0  0  0  0  0  0  0  0  0  0
   32.1870   29.4000   38.6710 H   0  0  0  0  0  0  0  0  0  0  0  0
   30.5160   29.7590   36.8670 H   0  0  0  0  0  0  0  0  0  0  0  0
   33.5660   28.8270   34.0830 H   0  0  0  0  0  0  0  0  0  0  0  0
   35.8650   27.4160   43.0580 F   0  0  0  0  0  0  0  0  0  0  0  0
   37.1680   27.6530   42.7720 C   0  0  0  0  0  0  0  0  0  0  0  0
   37.5000   28.1050   41.5050 C   0  0  0  0  0  0  0  0  0  0  0  0
   38.7970   28.3750   41.1130 C   0  0  0  0  0  0  0  0  0  0  0  0
   39.0830   28.7260   40.1390 H   0  0  0  0  0  0  0  0  0  0  0  0
   39.8330   28.1920   42.0230 C   0  0  0  0  0  0  0  0  0  0  0  0
   40.8810   28.3840   41.7880 H   0  0  0  0  0  0  0  0  0  0  0  0
   39.4890   27.7410   43.2860 C   0  0  0  0  0  3  0  0  0  0  0  0
   38.1910   27.4680   43.6800 C   0  0  0  0  0  3  0  0  0  0  0  0
  1  2  1  0  0  0  0
  2  3  2  0  0  0  0
  2 20  1  0  0  0  0
  3  8  1  0  0  0  0
  4  3  1  0  0  0  0
  5  4  2  0  0  0  0
  6  5  1  0  0  0  0
  6  1  2  0  0  0  0
  7  1  1  0  0  0  0
  9 10  1  0  0  0  0
  9  5  1  0  0  0  0
 10 15  1  0  0  0  0
 11 16  1  0  0  0  0
 11 10  2  0  0  0  0
 12 11  1  0  0  0  0
 13 12  2  0  0  0  0
 13 14  1  0  0  0  0
 14  9  2  0  0  0  0
 17 13  1  0  0  0  0
 19 18  1  0  0  0  0
 19 26  1  0  0  0  0
 20 19  2  0  0  0  0
 21 20  1  0  0  0  0
 21 23  2  0  0  0  0
 22 21  1  0  0  0  0
 23 25  1  0  0  0  0
 24 23  1  0  0  0  0
 25 26  2  0  0  0  0
M  END
>  <minimizedAffinity>
-4.5600481

$$$$

 OpenBabel03252500483D

 26 28  0  0  0  0  0  0  0  0999 V2000
   38.1560   29.8400   41.7210 C   0  0  0  0  0  0  0  0  0  0  0  0
   38.6910   30.3360   40.5220 C   0  0  0  0  0  0  0  0  0  0  0  0
   38.7650   29.5390   39.3830 C   0  0  0  0  0  0  0  0  0  0  0  0
   38.2850   28.2700   39.5280 N   0  0  0  0  0  0  0  0  0  0  0  0
   37.7750   27.8000   40.6750 C   0  0  0  0  0  0  0  0  0  0  0  0
   37.7100   28.5750   41.7610 N   0  0  0  0  0  0  0  0  0  0  0  0
   38.1060   30.4760   42.6010 H   0  0  0  0  0  0  0  0  0  0  0  0
   39.1730   29.8980   38.4470 H   0  0  0  0  0  0  0  0  0  0  0  0
   37.2800   26.4290   40.7540 C   0  0  0  0  0  0  0  0  0  0  0  0
   36.7620   25.7870   39.6640 C   0  0  0  0  0  0  0  0  0  0  0  0
   36.2870   24.5030   39.6900 C   0  0  0  0  0  0  0  0  0  0  0  0
   36.3530   23.8640   40.8910 N   0  0  0  0  0  0  0  0  0  0  0  0
   36.8600   24.4840   41.9630 C   0  0  0  0  0  0  0  0  0  0  0  0
   37.3370   25.7620   41.9550 N   0  0  0  0  0  0  0  0  0  0  0  0
   36.7300   26.3410   38.7260 H   0  0  0  0  0  0  0  0  0  0  0  0
   35.8790   24.0090   38.8180 H   0  0  0  0  0  0  0  0  0  0  0  0
   36.9110   23.9700   42.9230 H   0  0  0  0  0  0  0  0  0  0  0  0
   37.0020   32.6210   40.3560 F   0  0  0  0  0  0  0  0  0  0  0  0
   38.3420   32.8200   40.4030 C   0  0  0  0  0  0  0  0  0  0  0  0
   39.1760   31.7160   40.4830 C   0  0  0  0  0  0  0  0  0  0  0  0
   40.5530   31.8090   40.5360 C   0  0  0  0  0  0  0  0  0  0  0  0
   41.2230   30.9720   40.5980 H   0  0  0  0  0  0  0  0  0  0  0  0
   41.1510   33.0650   40.5060 C   0  0  0  0  0  0  0  0  0  0  0  0
   42.2290   33.2200   40.5430 H   0  0  0  0  0  0  0  0  0  0  0  0
   40.3070   34.1600   40.4260 C   0  0  0  0  0  3  0  0  0  0  0  0
   38.9270   34.0690   40.3740 C   0  0  0  0  0  3  0  0  0  0  0  0
  1  6  1  0  0  0  0
  1  7  1  0  0  0  0
  2  1  2  0  0  0  0
  3  4  2  0  0  0  0
  3  2  1  0  0  0  0
  4  5  1  0  0  0  0
  5  9  1  0  0  0  0
  5  6  2  0  0  0  0
  8  3  1  0  0  0  0
  9 14  1  0  0  0  0
 10 11  1  0  0  0  0
 10  9  2  0  0  0  0
 11 12  2  0  0  0  0
 12 13  1  0  0  0  0
 13 17  1  0  0  0  0
 14 13  2  0  0  0  0
 15 10  1  0  0  0  0
 16 11  1  0  0  0  0
 18 19  1  0  0  0  0
 19 20  1  0  0  0  0
 20  2  1  0  0  0  0
 20 21  2  0  0  0  0
 21 22  1  0  0  0  0
 23 21  1  0  0  0  0
 23 24  1  0  0  0  0
 25 23  2  0  0  0  0
 26 19  2  0  0  0  0
 26 25  1  0  0  0  0
M  END
>  <minimizedAffinity>
-4.53442764

$$$$

 OpenBabel03252500483D

 26 28  0  0  0  0  0  0  0  0999 V2000
   38.8500   29.7660   37.9930 C   0  0  0  0  0  0  0  0  0  0  0  0
   37.7640   30.5770   38.3550 C   0  0  0  0  0  0  0  0  0  0  0  0
   37.9210   31.9470   38.5480 C   0  0  0  0  0  0  0  0  0  0  0  0
   39.1880   32.4200   38.3610 N   0  0  0  0  0  0  0  0  0  0  0  0
   40.2220   31.6420   38.0150 C   0  0  0  0  0  0  0  0  0  0  0  0
   40.0590   30.3290   37.8330 N   0  0  0  0  0  0  0  0  0  0  0  0
   38.7100   28.6990   37.8450 H   0  0  0  0  0  0  0  0  0  0  0  0
   37.0990   32.5930   38.8280 H   0  0  0  0  0  0  0  0  0  0  0  0
   41.5500   32.2210   37.8330 C   0  0  0  0  0  0  0  0  0  0  0  0
   41.7410   33.5720   37.7520 C   0  0  0  0  0  0  0  0  0  0  0  0
   42.9650   34.1600   37.5820 C   0  0  0  0  0  0  0  0  0  0  0  0
   44.0290   33.3140   37.4920 N   0  0  0  0  0  0  0  0  0  0  0  0
   43.8520   31.9910   37.5710 C   0  0  0  0  0  0  0  0  0  0  0  0
   42.6400   31.3880   37.7400 N   0  0  0  0  0  0  0  0  0  0  0  0
   40.8580   34.2070   37.8300 H   0  0  0  0  0  0  0  0  0  0  0  0
   43.1000   35.2320   37.5200 H   0  0  0  0  0  0  0  0  0  0  0  0
   44.7050   31.3150   37.4980 H   0  0  0  0  0  0  0  0  0  0  0  0
   36.5060   30.1710   40.8760 F   0  0  0  0  0  0  0  0  0  0  0  0
   35.8470   29.7680   39.7620 C   0  0  0  0  0  0  0  0  0  0  0  0
   36.4490   29.9590   38.5280 C   0  0  0  0  0  0  0  0  0  0  0  0
   35.8640   29.5850   37.3340 C   0  0  0  0  0  0  0  0  0  0  0  0
   36.3070   29.7210   36.3650 H   0  0  0  0  0  0  0  0  0  0  0  0
   34.6100   28.9830   37.3510 C   0  0  0  0  0  0  0  0  0  0  0  0
   34.0840   28.6600   36.4520 H   0  0  0  0  0  0  0  0  0  0  0  0
   34.0190   28.7980   38.5900 C   0  0  0  0  0  3  0  0  0  0  0  0
   34.6030   29.1730   39.7870 C   0  0  0  0  0  3  0  0  0  0  0  0
  1  2  1  0  0  0  0
  2 20  1  0  0  0  0
  2  3  2  0  0  0  0
  3  8  1  0  0  0  0
  4  3  1  0  0  0  0
  5  4  2  0  0  0  0
  6  1  2  0  0  0  0
  6  5  1  0  0  0  0
  7  1  1  0  0  0  0
  9  5  1  0  0  0  0
 10 15  1  0  0  0  0
 10  9  1  0  0  0  0
 11 10  2  0  0  0  0
 12 13  2  0  0  0  0
 12 11  1  0  0  0  0
 13 14  1  0  0  0  0
 14  9  2  0  0  0  0
 16 11  1  0  0  0  0
 17 13  1  0  0  0  0
 19 26  1  0  0  0  0
 19 18  1  0  0  0  0
 20 19  2  0  0  0  0
 21 23  2  0  0  0  0
 21 20  1  0  0  0  0
 22 21  1  0  0  0  0
 23 25  1  0  0  0  0
 24 23  1  0  0  0  0
 25 26  2  0  0  0  0
M  END
>  <minimizedAffinity>
-4.50617027

$$$$

 OpenBabel03252500483D

 26 28  0  0  0  0  0  0  0  0999 V2000
   40.6510   28.1510   40.4530 C   0  0  0  0  0  0  0  0  0  0  0  0
   39.4250   28.8200   40.5870 C   0  0  0  0  0  0  0  0  0  0  0  0
   39.0950   29.8910   39.7610 C   0  0  0  0  0  0  0  0  0  0  0  0
   40.0400   30.2250   38.8340 N   0  0  0  0  0  0  0  0  0  0  0  0
   41.2100   29.5830   38.7100 C   0  0  0  0  0  0  0  0  0  0  0  0
   41.5150   28.5570   39.5080 N   0  0  0  0  0  0  0  0  0  0  0  0
   40.8930   27.3170   41.1060 H   0  0  0  0  0  0  0  0  0  0  0  0
   38.1560   30.4230   39.8450 H   0  0  0  0  0  0  0  0  0  0  0  0
   42.1730   29.9980   37.6940 C   0  0  0  0  0  0  0  0  0  0  0  0
   42.9660   31.0990   37.8620 C   0  0  0  0  0  0  0  0  0  0  0  0
   43.8820   31.5260   36.9390 C   0  0  0  0  0  0  0  0  0  0  0  0
   43.9760   30.7850   35.8000 N   0  0  0  0  0  0  0  0  0  0  0  0
   43.2040   29.7060   35.6270 C   0  0  0  0  0  0  0  0  0  0  0  0
   42.2860   29.2660   36.5360 N   0  0  0  0  0  0  0  0  0  0  0  0
   42.8540   31.6590   38.7910 H   0  0  0  0  0  0  0  0  0  0  0  0
   44.5040   32.3990   37.0870 H   0  0  0  0  0  0  0  0  0  0  0  0
   43.2810   29.1140   34.7140 H   0  0  0  0  0  0  0  0  0  0  0  0
   38.9090   30.2340   43.0030 F   0  0  0  0  0  0  0  0  0  0  0  0
   38.2440   29.0730   42.7890 C   0  0  0  0  0  0  0  0  0  0  0  0
   38.4870   28.3740   41.6170 C   0  0  0  0  0  0  0  0  0  0  0  0
   37.8630   27.1820   41.3030 C   0  0  0  0  0  0  0  0  0  0  0  0
   38.0310   26.6200   40.4040 H   0  0  0  0  0  0  0  0  0  0  0  0
   36.9440   26.6410   42.1960 C   0  0  0  0  0  0  0  0  0  0  0  0
   36.4120   25.7050   42.0200 H   0  0  0  0  0  0  0  0  0  0  0  0
   36.7100   27.3480   43.3640 C   0  0  0  0  0  3  0  0  0  0  0  0
   37.3340   28.5420   43.6800 C   0  0  0  0  0  3  0  0  0  0  0  0
  1  2  1  0  0  0  0
  1  7  1  0  0  0  0
  2 20  1  0  0  0  0
  3  8  1  0  0  0  0
  3  2  2  0  0  0  0
  4  3  1  0  0  0  0
  5  4  2  0  0  0  0
  5  6  1  0  0  0  0
  6  1  2  0  0  0  0
  9 10  1  0  0  0  0
  9  5  1  0  0  0  0
 10 15  1  0  0  0  0
 11 16  1  0  0  0  0
 11 10  2  0  0  0  0
 12 11  1  0  0  0  0
 13 12  2  0  0  0  0
 13 14  1  0  0  0  0
 14  9  2  0  0  0  0
 17 13  1  0  0  0  0
 19 18  1  0  0  0  0
 19 26  1  0  0  0  0
 20 19  2  0  0  0  0
 21 20  1  0  0  0  0
 21 23  2  0  0  0  0
 22 21  1  0  0  0  0
 23 25  1  0  0  0  0
 24 23  1  0  0  0  0
 25 26  2  0  0  0  0
M  END
>  <minimizedAffinity>
-4.50073099

$$$$

 OpenBabel03252500483D

 26 28  0  0  0  0  0  0  0  0999 V2000
   37.2740   28.5200   41.3240 C   0  0  0  0  0  0  0  0  0  0  0  0
   37.9160   27.5760   40.5090 C   0  0  0  0  0  0  0  0  0  0  0  0
   38.9790   27.9390   39.6860 C   0  0  0  0  0  0  0  0  0  0  0  0
   39.3320   29.2570   39.7400 N   0  0  0  0  0  0  0  0  0  0  0  0
   38.7160   30.1550   40.5190 C   0  0  0  0  0  0  0  0  0  0  0  0
   37.6980   29.7940   41.3040 N   0  0  0  0  0  0  0  0  0  0  0  0
   36.4460   28.2200   41.9610 H   0  0  0  0  0  0  0  0  0  0  0  0
   39.4900   27.2300   39.0490 H   0  0  0  0  0  0  0  0  0  0  0  0
   39.1510   31.5490   40.5220 C   0  0  0  0  0  0  0  0  0  0  0  0
   38.2560   32.5820   40.4950 C   0  0  0  0  0  0  0  0  0  0  0  0
   38.6160   33.9030   40.4960 C   0  0  0  0  0  0  0  0  0  0  0  0
   39.9530   34.1590   40.5260 N   0  0  0  0  0  0  0  0  0  0  0  0
   40.8360   33.1550   40.5530 C   0  0  0  0  0  0  0  0  0  0  0  0
   40.4960   31.8340   40.5520 N   0  0  0  0  0  0  0  0  0  0  0  0
   37.1960   32.3250   40.4710 H   0  0  0  0  0  0  0  0  0  0  0  0
   37.8950   34.7090   40.4740 H   0  0  0  0  0  0  0  0  0  0  0  0
   41.9070   33.3630   40.5770 H   0  0  0  0  0  0  0  0  0  0  0  0
   36.0890   26.4660   38.6290 F   0  0  0  0  0  0  0  0  0  0  0  0
   36.5610   25.6610   39.6130 C   0  0  0  0  0  0  0  0  0  0  0  0
   37.4510   26.1890   40.5340 C   0  0  0  0  0  0  0  0  0  0  0  0
   37.9900   25.4550   41.5730 C   0  0  0  0  0  0  0  0  0  0  0  0
   38.6800   25.8380   42.3010 H   0  0  0  0  0  0  0  0  0  0  0  0
   37.6320   24.1180   41.7170 C   0  0  0  0  0  0  0  0  0  0  0  0
   38.0150   23.4750   42.5100 H   0  0  0  0  0  0  0  0  0  0  0  0
   36.7430   23.6020   40.7900 C   0  0  0  0  0  3  0  0  0  0  0  0
   36.2030   24.3360   39.7480 C   0  0  0  0  0  3  0  0  0  0  0  0
  1  7  1  0  0  0  0
  2 20  1  0  0  0  0
  2  1  2  0  0  0  0
  3  4  2  0  0  0  0
  3  2  1  0  0  0  0
  4  5  1  0  0  0  0
  5  9  1  0  0  0  0
  5  6  2  0  0  0  0
  6  1  1  0  0  0  0
  8  3  1  0  0  0  0
  9 14  1  0  0  0  0
 10 11  1  0  0  0  0
 10  9  2  0  0  0  0
 11 12  2  0  0  0  0
 12 13  1  0  0  0  0
 13 17  1  0  0  0  0
 14 13  2  0  0  0  0
 15 10  1  0  0  0  0
 16 11  1  0  0  0  0
 18 19  1  0  0  0  0
 19 26  2  0  0  0  0
 19 20  1  0  0  0  0
 20 21  2  0  0  0  0
 21 23  1  0  0  0  0
 21 22  1  0  0  0  0
 23 24  1  0  0  0  0
 25 23  2  0  0  0  0
 26 25  1  0  0  0  0
M  END
>  <minimizedAffinity>
-4.50035954

$$$$

 OpenBabel03252500483D

 26 28  0  0  0  0  0  0  0  0999 V2000
   33.3120   29.5500   34.9560 C   0  0  0  0  0  0  0  0  0  0  0  0
   32.0140   29.9670   35.2890 C   0  0  0  0  0  0  0  0  0  0  0  0
   31.5530   29.9100   36.6010 C   0  0  0  0  0  0  0  0  0  0  0  0
   32.4490   29.4280   37.5120 N   0  0  0  0  0  0  0  0  0  0  0  0
   33.6870   29.0310   37.1900 C   0  0  0  0  0  0  0  0  0  0  0  0
   34.1170   29.0900   35.9280 N   0  0  0  0  0  0  0  0  0  0  0  0
   33.6550   29.6010   33.9270 H   0  0  0  0  0  0  0  0  0  0  0  0
   30.5570   30.2250   36.8830 H   0  0  0  0  0  0  0  0  0  0  0  0
   34.5890   28.5250   38.2210 C   0  0  0  0  0  0  0  0  0  0  0  0
   34.6830   29.1180   39.4490 C   0  0  0  0  0  0  0  0  0  0  0  0
   35.5130   28.6790   40.4460 C   0  0  0  0  0  0  0  0  0  0  0  0
   36.2730   27.5870   40.1550 N   0  0  0  0  0  0  0  0  0  0  0  0
   36.1880   27.0000   38.9560 C   0  0  0  0  0  0  0  0  0  0  0  0
   35.3670   27.4230   37.9520 N   0  0  0  0  0  0  0  0  0  0  0  0
   34.0540   29.9890   39.6330 H   0  0  0  0  0  0  0  0  0  0  0  0
   35.5750   29.1600   41.4130 H   0  0  0  0  0  0  0  0  0  0  0  0
   36.7980   26.1260   38.7260 H   0  0  0  0  0  0  0  0  0  0  0  0
   31.3650   32.7130   34.9130 F   0  0  0  0  0  0  0  0  0  0  0  0
   30.8330   31.8080   34.0550 C   0  0  0  0  0  0  0  0  0  0  0  0
   31.1400   30.4680   34.2280 C   0  0  0  0  0  0  0  0  0  0  0  0
   30.6500   29.4680   33.4100 C   0  0  0  0  0  0  0  0  0  0  0  0
   30.8710   28.4220   33.5200 H   0  0  0  0  0  0  0  0  0  0  0  0
   29.8050   29.8030   32.3580 C   0  0  0  0  0  0  0  0  0  0  0  0
   29.3790   29.0720   31.6710 H   0  0  0  0  0  0  0  0  0  0  0  0
   29.5050   31.1460   32.1960 C   0  0  0  0  0  3  0  0  0  0  0  0
   29.9950   32.1490   33.0130 C   0  0  0  0  0  3  0  0  0  0  0  0
  1  2  2  0  0  0  0
  1  6  1  0  0  0  0
  2  3  1  0  0  0  0
  3  8  1  0  0  0  0
  3  4  2  0  0  0  0
  5  4  1  0  0  0  0
  5  9  1  0  0  0  0
  6  5  2  0  0  0  0
  7  1  1  0  0  0  0
  9 10  1  0  0  0  0
 10 15  1  0  0  0  0
 10 11  2  0  0  0  0
 11 16  1  0  0  0  0
 12 11  1  0  0  0  0
 13 12  2  0  0  0  0
 14  9  2  0  0  0  0
 14 13  1  0  0  0  0
 17 13  1  0  0  0  0
 19 20  1  0  0  0  0
 19 18  1  0  0  0  0
 20  2  1  0  0  0  0
 21 22  1  0  0  0  0
 21 20  2  0  0  0  0
 23 21  1  0  0  0  0
 24 23  1  0  0  0  0
 25 23  2  0  0  0  0
 25 26  1  0  0  0  0
 26 19  2  0  0  0  0
M  END
>  <minimizedAffinity>
-4.49794769

$$$$
