
 OpenBabel03252508143D

 37 40  0  0  1  0  0  0  0  0999 V2000
   46.0340   33.0790   46.0460 C   0  0  0  0  0  3  0  0  0  0  0  0
   46.8450   32.1510   45.7200 C   0  0  0  0  0  3  0  0  0  0  0  0
   44.5640   36.0200   44.3900 C   0  0  0  0  0  0  0  0  0  0  0  0
   45.1230   35.9750   43.1050 C   0  0  0  0  0  0  0  0  0  0  0  0
   45.9890   34.9530   42.8590 C   0  0  0  0  0  0  0  0  0  0  0  0
   46.2330   34.0780   43.8600 N   0  0  0  0  0  0  0  0  0  0  0  0
   45.7050   34.1170   45.0740 C   0  0  0  0  0  0  0  0  0  0  0  0
   44.8680   35.1040   45.3170 N   0  0  0  0  0  0  0  0  0  0  0  0
   43.8640   36.8350   44.6150 H   0  0  0  0  0  0  0  0  0  0  0  0
   44.8980   36.6920   42.3450 H   0  0  0  0  0  0  0  0  0  0  0  0
   48.5490   36.0080   42.0490 F   0  0  0  0  0  0  0  0  0  0  0  0
   47.9000   35.1780   41.2070 C   0  0  0  0  0  0  0  0  0  0  0  0
   46.6930   34.6940   41.6140 C   0  0  0  0  0  0  0  0  0  0  0  0
   46.1230   33.8520   40.6670 C   0  0  0  0  0  0  0  0  0  0  0  0
   45.1600   33.3810   40.8340 H   0  0  0  0  0  0  0  0  0  0  0  0
   46.7020   33.5440   39.4670 C   0  0  0  0  0  0  0  0  0  0  0  0
   46.2290   32.8850   38.7550 H   0  0  0  0  0  0  0  0  0  0  0  0
   47.9250   34.0720   39.1270 C   0  0  0  0  0  3  0  0  0  0  0  0
   48.5300   34.9040   40.0180 C   0  0  0  0  0  3  0  0  0  0  0  0
   47.1120   31.1130   46.8040 C   0  0  0  0  0  0  0  0  0  0  0  0
   46.5790   30.1780   46.6000 H   0  0  0  0  0  0  0  0  0  0  0  0
   48.2020   30.9180   46.7330 H   0  0  0  0  0  0  0  0  0  0  0  0
   46.7950   31.7000   48.1510 C   0  0  1  0  0  0  0  0  0  0  0  0
   46.2070   30.7680   49.1630 C   0  0  0  0  0  0  0  0  0  0  0  0
   47.5610   31.2530   49.3430 C   0  0  1  0  0  0  0  0  0  0  0  0
   46.4140   32.7410   48.1670 H   0  0  0  0  0  0  0  0  0  0  0  0
   45.9960   29.7340   48.8220 H   0  0  0  0  0  0  0  0  0  0  0  0
   45.3970   31.1480   49.8190 H   0  0  0  0  0  0  0  0  0  0  0  0
   47.7010   32.0460   50.1410 H   0  0  0  0  0  0  0  0  0  0  0  0
   48.7830   30.4530   49.1230 C   0  0  0  0  0  0  0  0  0  0  0  0
   49.6450   30.2520   50.4000 C   0  0  0  0  0  0  0  0  0  0  0  0
   50.1260   31.1910   49.3480 C   0  0  0  0  0  0  0  0  0  0  0  0
   48.7930   29.6000   48.4250 H   0  0  0  0  0  0  0  0  0  0  0  0
   50.1480   29.2910   50.4990 H   0  0  0  0  0  0  0  0  0  0  0  0
   49.2700   30.6890   51.3430 H   0  0  0  0  0  0  0  0  0  0  0  0
   50.0960   32.2730   49.4800 H   0  0  0  0  0  0  0  0  0  0  0  0
   50.9400   30.8480   48.6570 H   0  0  0  0  0  0  0  0  0  0  0  0
  2  1  2  0  0  0  0
  2 20  1  0  0  0  0
  3  9  1  0  0  0  0
  3  8  1  0  0  0  0
  4  3  2  0  0  0  0
  5  4  1  0  0  0  0
  5  6  2  0  0  0  0
  6  7  1  0  0  0  0
  7  8  2  0  0  0  0
  7  1  1  0  0  0  0
 10  4  1  0  0  0  0
 12 13  1  0  0  0  0
 12 11  1  0  0  0  0
 13  5  1  0  0  0  0
 14 15  1  0  0  0  0
 14 13  2  0  0  0  0
 16 14  1  0  0  0  0
 17 16  1  0  0  0  0
 18 16  2  0  0  0  0
 18 19  1  0  0  0  0
 19 12  2  0  0  0  0
 20 23  1  0  0  0  0
 21 20  1  0  0  0  0
 22 20  1  0  0  0  0
 23 26  1  1  0  0  0
 23 24  1  0  0  0  0
 23 25  1  0  0  0  0
 24 25  1  0  0  0  0
 24 28  1  0  0  0  0
 25 29  1  1  0  0  0
 27 24  1  0  0  0  0
 30 25  1  0  0  0  0
 30 32  1  0  0  0  0
 30 31  1  0  0  0  0
 31 34  1  0  0  0  0
 31 35  1  0  0  0  0
 32 36  1  0  0  0  0
 32 31  1  0  0  0  0
 33 30  1  0  0  0  0
 37 32  1  0  0  0  0
M  END
>  <minimizedAffinity>
-6.31866837

>  <minimizedRMSD>
0.605994999

$$$$
