
 OpenBabel03242523593D

 21 22  0  0  0  0  0  0  0  0999 V2000
   44.4390   36.0150   44.8230 C   0  0  0  0  0  0  0  0  0  0  0  0
   45.1220   35.9590   43.5750 C   0  0  0  0  0  0  0  0  0  0  0  0
   46.0030   34.9090   43.3700 C   0  0  0  0  0  0  0  0  0  0  0  0
   46.1590   34.0040   44.3630 N   0  0  0  0  0  0  0  0  0  0  0  0
   45.5060   34.0790   45.5260 C   0  0  0  0  0  0  0  0  0  0  0  0
   44.6460   35.0780   45.7670 N   0  0  0  0  0  0  0  0  0  0  0  0
   43.7420   36.8270   45.0140 H   0  0  0  0  0  0  0  0  0  0  0  0
   44.9480   36.7100   42.8360 H   0  0  0  0  0  0  0  0  0  0  0  0
   45.0260   33.4050   41.2730 F   0  0  0  0  0  0  0  0  0  0  0  0
   46.2210   34.0050   41.1040 C   0  0  0  0  0  0  0  0  0  0  0  0
   46.7470   34.7660   42.1250 C   0  0  0  0  0  0  0  0  0  0  0  0
   47.9700   35.3460   41.8750 C   0  0  0  0  0  0  0  0  0  0  0  0
   48.4300   35.9510   42.6350 H   0  0  0  0  0  0  0  0  0  0  0  0
   48.6640   35.2060   40.6960 C   0  0  0  0  0  0  0  0  0  0  0  0
   49.6260   35.6790   40.5370 H   0  0  0  0  0  0  0  0  0  0  0  0
   48.1110   34.4290   39.6760 C   0  0  0  0  0  0  0  0  0  0  0  0
   46.8860   33.8410   39.9090 C   0  0  0  0  0  0  0  0  0  0  0  0
   45.8510   32.9610   46.4590 C   0  0  0  0  0  0  0  0  0  0  0  0
   45.0130   32.9460   47.5550 F   0  0  0  0  0  0  0  0  0  0  0  0
   47.1520   33.0840   46.9110 F   0  0  0  0  0  0  0  0  0  0  0  0
   45.7750   31.7510   45.7820 F   0  0  0  0  0  0  0  0  0  0  0  0
  1  7  1  0  0  0  0
  1  6  1  0  0  0  0
  2  1  2  0  0  0  0
  3  2  1  0  0  0  0
  3  4  2  0  0  0  0
  4  5  1  0  0  0  0
  5  6  2  0  0  0  0
  5 18  1  0  0  0  0
  8  2  1  0  0  0  0
 10  9  1  0  0  0  0
 10 11  1  0  0  0  0
 11  3  1  0  0  0  0
 12 11  2  0  0  0  0
 12 13  1  0  0  0  0
 14 12  1  0  0  0  0
 15 14  1  0  0  0  0
 16 17  1  0  0  0  0
 16 14  2  0  0  0  0
 17 10  2  0  0  0  0
 18 20  1  0  0  0  0
 18 19  1  0  0  0  0
 21 18  1  0  0  0  0
M  END
>  <minimizedAffinity>
-6.04737949

>  <minimizedRMSD>
0.379303157

$$$$
