
 OpenBabel03242522093D

 44 47  0  0  1  0  0  0  0  0999 V2000
   36.2330   30.8390   41.0200 C   0  0  0  0  0  0  0  0  0  0  0  0
   37.0550   31.6590   40.2380 C   0  0  0  0  0  0  0  0  0  0  0  0
   38.3740   31.2610   40.0160 C   0  0  0  0  0  0  0  0  0  0  0  0
   38.7630   30.0830   40.5900 N   0  0  0  0  0  0  0  0  0  0  0  0
   37.9490   29.3140   41.3380 C   0  0  0  0  0  0  0  0  0  0  0  0
   36.6680   29.7120   41.5470 N   0  0  0  0  0  0  0  0  0  0  0  0
   35.2160   31.1470   41.1900 H   0  0  0  0  0  0  0  0  0  0  0  0
   36.7430   32.5810   39.7920 H   0  0  0  0  0  0  0  0  0  0  0  0
   39.3230   31.9870   39.2460 N   0  0  0  0  0  0  0  0  0  0  0  0
   40.2340   32.9130   39.8990 C   0  0  0  0  0  0  0  0  0  0  0  0
   40.7970   33.9230   38.9360 C   0  0  0  0  0  0  0  0  0  0  0  0
   41.3170   33.3880   37.7460 N   0  0  0  0  0  0  0  0  0  0  0  0
   40.6660   32.2490   37.2050 C   0  0  2  0  0  0  0  0  0  0  0  0
   39.3980   31.8170   37.8260 C   0  0  0  0  0  0  0  0  0  0  0  0
   41.0230   32.3270   40.4280 H   0  0  0  0  0  0  0  0  0  0  0  0
   39.6630   33.4420   40.6910 H   0  0  0  0  0  0  0  0  0  0  0  0
   40.0630   34.7370   38.7820 H   0  0  0  0  0  0  0  0  0  0  0  0
   41.6460   34.4180   39.4920 H   0  0  0  0  0  0  0  0  0  0  0  0
   42.3560   33.3480   37.6810 H   0  0  0  0  0  0  0  0  0  0  0  0
   40.4840   32.4280   36.1110 H   0  0  0  0  0  0  0  0  0  0  0  0
   39.2280   30.7400   37.5960 H   0  0  0  0  0  0  0  0  0  0  0  0
   38.5370   32.3610   37.3430 H   0  0  0  0  0  0  0  0  0  0  0  0
   41.6300   31.0720   37.2650 C   0  0  0  0  0  0  0  0  0  0  0  0
   40.9290   29.8870   37.4820 F   0  0  0  0  0  0  0  0  0  0  0  0
   42.3960   31.2600   38.3960 F   0  0  0  0  0  0  0  0  0  0  0  0
   42.3760   30.9250   36.1370 F   0  0  0  0  0  0  0  0  0  0  0  0
   38.4270   28.0740   41.9180 C   0  0  0  0  0  0  0  0  0  0  0  0
   39.0040   28.0670   43.1610 C   0  0  0  0  0  0  0  0  0  0  0  0
   39.4430   26.8380   43.6620 C   0  0  0  0  0  0  0  0  0  0  0  0
   39.2580   25.7320   42.8550 C   0  0  0  0  0  0  0  0  0  0  0  0
   38.6850   25.7270   41.6140 C   0  0  0  0  0  0  0  0  0  0  0  0
   38.2770   26.9520   41.1820 N   0  0  0  0  0  0  0  0  0  0  0  0
   39.1190   28.9640   43.7400 H   0  0  0  0  0  0  0  0  0  0  0  0
   39.9030   26.7650   44.6300 H   0  0  0  0  0  0  0  0  0  0  0  0
   39.6100   24.8010   43.2770 H   0  0  0  0  0  0  0  0  0  0  0  0
   36.4170   24.2060   41.8270 F   0  0  0  0  0  0  0  0  0  0  0  0
   37.3570   23.8100   40.9150 C   0  0  0  0  0  0  0  0  0  0  0  0
   38.5030   24.5600   40.7920 C   0  0  0  0  0  0  0  0  0  0  0  0
   39.4320   24.1370   39.8650 C   0  0  0  0  0  0  0  0  0  0  0  0
   40.3470   24.6760   39.7180 H   0  0  0  0  0  0  0  0  0  0  0  0
   39.2390   23.0110   39.0830 C   0  0  0  0  0  0  0  0  0  0  0  0
   39.9770   22.6860   38.3560 H   0  0  0  0  0  0  0  0  0  0  0  0
   38.0920   22.2720   39.2160 C   0  0  0  0  0  3  0  0  0  0  0  0
   37.1680   22.6910   40.1360 C   0  0  0  0  0  3  0  0  0  0  0  0
  1  7  1  0  0  0  0
  1  6  1  0  0  0  0
  2  1  2  0  0  0  0
  3  2  1  0  0  0  0
  3  4  2  0  0  0  0
  4  5  1  0  0  0  0
  5  6  2  0  0  0  0
  5 27  1  0  0  0  0
  8  2  1  0  0  0  0
  9 10  1  0  0  0  0
  9  3  1  0  0  0  0
 10 15  1  0  0  0  0
 10 16  1  0  0  0  0
 11 18  1  0  0  0  0
 11 10  1  0  0  0  0
 12 11  1  0  0  0  0
 13 20  1  6  0  0  0
 13 23  1  0  0  0  0
 13 12  1  0  0  0  0
 13 14  1  0  0  0  0
 14  9  1  0  0  0  0
 17 11  1  0  0  0  0
 19 12  1  0  0  0  0
 21 14  1  0  0  0  0
 22 14  1  0  0  0  0
 23 24  1  0  0  0  0
 23 25  1  0  0  0  0
 26 23  1  0  0  0  0
 27 28  1  0  0  0  0
 28 29  2  0  0  0  0
 28 33  1  0  0  0  0
 29 34  1  0  0  0  0
 30 35  1  0  0  0  0
 30 29  1  0  0  0  0
 31 30  2  0  0  0  0
 32 31  1  0  0  0  0
 32 27  2  0  0  0  0
 37 36  1  0  0  0  0
 38 37  1  0  0  0  0
 38 31  1  0  0  0  0
 39 38  2  0  0  0  0
 40 39  1  0  0  0  0
 41 43  2  0  0  0  0
 41 39  1  0  0  0  0
 42 41  1  0  0  0  0
 43 44  1  0  0  0  0
 44 37  2  0  0  0  0
M  END
>  <minimizedAffinity>
-6.59612465

$$$$

 OpenBabel03242522093D

 44 47  0  0  1  0  0  0  0  0999 V2000
   42.9820   33.6150   40.2060 C   0  0  0  0  0  0  0  0  0  0  0  0
   43.6540   32.9760   39.1570 C   0  0  0  0  0  0  0  0  0  0  0  0
   42.9350   32.0980   38.3440 C   0  0  0  0  0  0  0  0  0  0  0  0
   41.6120   31.9310   38.6420 N   0  0  0  0  0  0  0  0  0  0  0  0
   40.9910   32.5600   39.6590 C   0  0  0  0  0  0  0  0  0  0  0  0
   41.7020   33.4120   40.4420 N   0  0  0  0  0  0  0  0  0  0  0  0
   43.5360   34.2930   40.8320 H   0  0  0  0  0  0  0  0  0  0  0  0
   44.6910   33.1120   38.9300 H   0  0  0  0  0  0  0  0  0  0  0  0
   43.4800   31.3790   37.2460 N   0  0  0  0  0  0  0  0  0  0  0  0
   44.9200   31.3220   37.0540 C   0  0  0  0  0  0  0  0  0  0  0  0
   45.2870   30.9700   35.6380 C   0  0  0  0  0  0  0  0  0  0  0  0
   44.6180   29.8550   35.1080 N   0  0  0  0  0  0  0  0  0  0  0  0
   43.2750   29.6470   35.5150 C   0  0  2  0  0  0  0  0  0  0  0  0
   42.6240   30.7010   36.3170 C   0  0  0  0  0  0  0  0  0  0  0  0
   45.3540   30.6210   37.8060 H   0  0  0  0  0  0  0  0  0  0  0  0
   45.3300   32.3250   37.2990 H   0  0  0  0  0  0  0  0  0  0  0  0
   45.2280   31.8750   35.0040 H   0  0  0  0  0  0  0  0  0  0  0  0
   46.3890   30.7280   35.6720 H   0  0  0  0  0  0  0  0  0  0  0  0
   45.1780   28.9780   35.0430 H   0  0  0  0  0  0  0  0  0  0  0  0
   42.6510   29.4600   34.5990 H   0  0  0  0  0  0  0  0  0  0  0  0
   41.7780   30.2540   36.8880 H   0  0  0  0  0  0  0  0  0  0  0  0
   42.1490   31.4590   35.6310 H   0  0  0  0  0  0  0  0  0  0  0  0
   43.2110   28.3540   36.3170 C   0  0  0  0  0  0  0  0  0  0  0  0
   42.9380   27.2780   35.4740 F   0  0  0  0  0  0  0  0  0  0  0  0
   42.1110   28.4670   37.1400 F   0  0  0  0  0  0  0  0  0  0  0  0
   44.3570   28.0810   36.9960 F   0  0  0  0  0  0  0  0  0  0  0  0
   39.5840   32.3360   39.9190 C   0  0  0  0  0  0  0  0  0  0  0  0
   38.6460   33.2330   39.4800 C   0  0  0  0  0  0  0  0  0  0  0  0
   37.3050   32.9560   39.7650 C   0  0  0  0  0  0  0  0  0  0  0  0
   37.0420   31.7980   40.4690 C   0  0  0  0  0  0  0  0  0  0  0  0
   37.9690   30.8960   40.9130 C   0  0  0  0  0  0  0  0  0  0  0  0
   39.2540   31.2190   40.6040 N   0  0  0  0  0  0  0  0  0  0  0  0
   38.9160   34.1170   38.9360 H   0  0  0  0  0  0  0  0  0  0  0  0
   36.5210   33.6200   39.4470 H   0  0  0  0  0  0  0  0  0  0  0  0
   35.9940   31.6190   40.6700 H   0  0  0  0  0  0  0  0  0  0  0  0
   39.1440   30.4060   43.3370 F   0  0  0  0  0  0  0  0  0  0  0  0
   38.2690   29.4680   42.8610 C   0  0  0  0  0  0  0  0  0  0  0  0
   37.6680   29.6950   41.6460 C   0  0  0  0  0  0  0  0  0  0  0  0
   36.7920   28.7320   41.1910 C   0  0  0  0  0  0  0  0  0  0  0  0
   36.2890   28.8460   40.2510 H   0  0  0  0  0  0  0  0  0  0  0  0
   36.5160   27.5820   41.9110 C   0  0  0  0  0  0  0  0  0  0  0  0
   35.8230   26.8300   41.5440 H   0  0  0  0  0  0  0  0  0  0  0  0
   37.1220   27.3680   43.1210 C   0  0  0  0  0  3  0  0  0  0  0  0
   37.9920   28.3240   43.5740 C   0  0  0  0  0  3  0  0  0  0  0  0
  1  6  1  0  0  0  0
  1  7  1  0  0  0  0
  2  1  2  0  0  0  0
  3  4  2  0  0  0  0
  3  2  1  0  0  0  0
  4  5  1  0  0  0  0
  5 27  1  0  0  0  0
  5  6  2  0  0  0  0
  8  2  1  0  0  0  0
  9  3  1  0  0  0  0
 10  9  1  0  0  0  0
 10 16  1  0  0  0  0
 10 15  1  0  0  0  0
 11 18  1  0  0  0  0
 11 10  1  0  0  0  0
 12 13  1  0  0  0  0
 12 11  1  0  0  0  0
 13 20  1  6  0  0  0
 13 23  1  0  0  0  0
 13 14  1  0  0  0  0
 14 21  1  0  0  0  0
 14  9  1  0  0  0  0
 17 11  1  0  0  0  0
 19 12  1  0  0  0  0
 22 14  1  0  0  0  0
 23 26  1  0  0  0  0
 23 25  1  0  0  0  0
 24 23  1  0  0  0  0
 27 32  1  0  0  0  0
 28 29  1  0  0  0  0
 28 27  2  0  0  0  0
 29 30  2  0  0  0  0
 30 35  1  0  0  0  0
 30 31  1  0  0  0  0
 31 38  1  0  0  0  0
 32 31  2  0  0  0  0
 33 28  1  0  0  0  0
 34 29  1  0  0  0  0
 37 36  1  0  0  0  0
 37 44  1  0  0  0  0
 38 37  2  0  0  0  0
 39 38  1  0  0  0  0
 39 41  2  0  0  0  0
 40 39  1  0  0  0  0
 41 43  1  0  0  0  0
 42 41  1  0  0  0  0
 43 44  2  0  0  0  0
M  END
>  <minimizedAffinity>
-6.58834887

$$$$

 OpenBabel03242522093D

 44 47  0  0  1  0  0  0  0  0999 V2000
   38.0710   34.1970   39.9410 C   0  0  0  0  0  0  0  0  0  0  0  0
   39.4400   34.3390   40.1980 C   0  0  0  0  0  0  0  0  0  0  0  0
   40.1500   33.2270   40.6540 C   0  0  0  0  0  0  0  0  0  0  0  0
   39.4390   32.0720   40.8170 N   0  0  0  0  0  0  0  0  0  0  0  0
   38.1210   31.9640   40.5620 C   0  0  0  0  0  0  0  0  0  0  0  0
   37.4420   33.0530   40.1180 N   0  0  0  0  0  0  0  0  0  0  0  0
   37.5250   35.0550   39.5880 H   0  0  0  0  0  0  0  0  0  0  0  0
   39.9900   35.2480   40.0680 H   0  0  0  0  0  0  0  0  0  0  0  0
   41.5390   33.2190   40.9570 N   0  0  0  0  0  0  0  0  0  0  0  0
   42.1400   32.0550   41.5870 C   0  0  0  0  0  0  0  0  0  0  0  0
   43.4400   32.3900   42.2660 C   0  0  0  0  0  0  0  0  0  0  0  0
   44.3490   33.1220   41.4860 N   0  0  0  0  0  0  0  0  0  0  0  0
   43.8120   34.0720   40.5800 C   0  0  2  0  0  0  0  0  0  0  0  0
   42.3630   34.3490   40.6460 C   0  0  0  0  0  0  0  0  0  0  0  0
   42.2400   31.2460   40.8250 H   0  0  0  0  0  0  0  0  0  0  0  0
   41.4200   31.6740   42.3430 H   0  0  0  0  0  0  0  0  0  0  0  0
   43.2360   32.8340   43.2590 H   0  0  0  0  0  0  0  0  0  0  0  0
   43.9130   31.3920   42.5030 H   0  0  0  0  0  0  0  0  0  0  0  0
   45.1550   32.5840   41.1010 H   0  0  0  0  0  0  0  0  0  0  0  0
   44.3650   35.0410   40.7100 H   0  0  0  0  0  0  0  0  0  0  0  0
   42.0270   34.7640   39.6680 H   0  0  0  0  0  0  0  0  0  0  0  0
   42.1680   35.1660   41.3970 H   0  0  0  0  0  0  0  0  0  0  0  0
   44.1280   33.6160   39.1620 C   0  0  0  0  0  0  0  0  0  0  0  0
   42.9870   33.6990   38.3650 F   0  0  0  0  0  0  0  0  0  0  0  0
   44.4220   32.2720   39.2470 F   0  0  0  0  0  0  0  0  0  0  0  0
   45.1150   34.3400   38.5680 F   0  0  0  0  0  0  0  0  0  0  0  0
   37.4280   30.7070   40.7570 C   0  0  0  0  0  0  0  0  0  0  0  0
   36.0930   30.5990   40.4710 C   0  0  0  0  0  0  0  0  0  0  0  0
   35.4860   29.3560   40.6810 C   0  0  0  0  0  0  0  0  0  0  0  0
   36.2900   28.3410   41.1620 C   0  0  0  0  0  0  0  0  0  0  0  0
   37.6220   28.4380   41.4510 C   0  0  0  0  0  0  0  0  0  0  0  0
   38.1560   29.6690   41.2250 N   0  0  0  0  0  0  0  0  0  0  0  0
   35.5220   31.4280   40.0980 H   0  0  0  0  0  0  0  0  0  0  0  0
   34.4420   29.2070   40.4750 H   0  0  0  0  0  0  0  0  0  0  0  0
   35.7840   27.3970   41.3120 H   0  0  0  0  0  0  0  0  0  0  0  0
   38.1620   26.2480   39.8970 F   0  0  0  0  0  0  0  0  0  0  0  0
   38.6970   26.2740   41.1550 C   0  0  0  0  0  0  0  0  0  0  0  0
   38.4390   27.3630   41.9520 C   0  0  0  0  0  0  0  0  0  0  0  0
   38.9920   27.3610   43.2150 C   0  0  0  0  0  0  0  0  0  0  0  0
   38.8300   28.1800   43.8880 H   0  0  0  0  0  0  0  0  0  0  0  0
   39.7750   26.3180   43.6790 C   0  0  0  0  0  0  0  0  0  0  0  0
   40.2060   26.3260   44.6760 H   0  0  0  0  0  0  0  0  0  0  0  0
   40.0250   25.2370   42.8750 C   0  0  0  0  0  3  0  0  0  0  0  0
   39.4760   25.2380   41.6190 C   0  0  0  0  0  3  0  0  0  0  0  0
  1  6  2  0  0  0  0
  1  2  1  0  0  0  0
  2  3  2  0  0  0  0
  3  4  1  0  0  0  0
  3  9  1  0  0  0  0
  5 27  1  0  0  0  0
  5  4  2  0  0  0  0
  6  5  1  0  0  0  0
  7  1  1  0  0  0  0
  8  2  1  0  0  0  0
  9 10  1  0  0  0  0
 10 11  1  0  0  0  0
 10 16  1  0  0  0  0
 11 18  1  0  0  0  0
 11 17  1  0  0  0  0
 12 11  1  0  0  0  0
 13 14  1  0  0  0  0
 13 20  1  1  0  0  0
 13 12  1  0  0  0  0
 14  9  1  0  0  0  0
 14 22  1  0  0  0  0
 15 10  1  0  0  0  0
 19 12  1  0  0  0  0
 21 14  1  0  0  0  0
 23 25  1  0  0  0  0
 23 13  1  0  0  0  0
 24 23  1  0  0  0  0
 26 23  1  0  0  0  0
 27 32  1  0  0  0  0
 28 29  1  0  0  0  0
 28 27  2  0  0  0  0
 29 30  2  0  0  0  0
 30 35  1  0  0  0  0
 30 31  1  0  0  0  0
 31 38  1  0  0  0  0
 32 31  2  0  0  0  0
 33 28  1  0  0  0  0
 34 29  1  0  0  0  0
 36 37  1  0  0  0  0
 37 44  2  0  0  0  0
 37 38  1  0  0  0  0
 38 39  2  0  0  0  0
 39 41  1  0  0  0  0
 39 40  1  0  0  0  0
 41 42  1  0  0  0  0
 43 41  2  0  0  0  0
 44 43  1  0  0  0  0
M  END
>  <minimizedAffinity>
-6.5647707

$$$$

 OpenBabel03242522093D

 44 47  0  0  1  0  0  0  0  0999 V2000
   41.2860   29.7950   42.7710 C   0  0  0  0  0  0  0  0  0  0  0  0
   41.0600   28.4200   42.8990 C   0  0  0  0  0  0  0  0  0  0  0  0
   39.9990   27.8520   42.1920 C   0  0  0  0  0  0  0  0  0  0  0  0
   39.2550   28.6980   41.4190 N   0  0  0  0  0  0  0  0  0  0  0  0
   39.4960   30.0190   41.3150 C   0  0  0  0  0  0  0  0  0  0  0  0
   40.5320   30.5600   42.0080 N   0  0  0  0  0  0  0  0  0  0  0  0
   42.1050   30.2330   43.3160 H   0  0  0  0  0  0  0  0  0  0  0  0
   41.6470   27.7630   43.5070 H   0  0  0  0  0  0  0  0  0  0  0  0
   39.6470   26.4750   42.2230 N   0  0  0  0  0  0  0  0  0  0  0  0
   39.7030   25.7370   43.4740 C   0  0  0  0  0  0  0  0  0  0  0  0
   39.7870   24.2520   43.2490 C   0  0  0  0  0  0  0  0  0  0  0  0
   38.8480   23.7300   42.3450 N   0  0  0  0  0  0  0  0  0  0  0  0
   38.4810   24.5460   41.2440 C   0  0  2  0  0  0  0  0  0  0  0  0
   39.2350   25.7980   41.0300 C   0  0  0  0  0  0  0  0  0  0  0  0
   38.8310   26.0350   44.1040 H   0  0  0  0  0  0  0  0  0  0  0  0
   40.6070   26.0750   44.0230 H   0  0  0  0  0  0  0  0  0  0  0  0
   40.8340   23.9700   43.0260 H   0  0  0  0  0  0  0  0  0  0  0  0
   39.5870   23.7900   44.2600 H   0  0  0  0  0  0  0  0  0  0  0  0
   38.0490   23.2120   42.7680 H   0  0  0  0  0  0  0  0  0  0  0  0
   38.5420   23.9290   40.3070 H   0  0  0  0  0  0  0  0  0  0  0  0
   38.6110   26.5000   40.4300 H   0  0  0  0  0  0  0  0  0  0  0  0
   40.1400   25.5890   40.3910 H   0  0  0  0  0  0  0  0  0  0  0  0
   37.0110   24.9150   41.3880 C   0  0  0  0  0  0  0  0  0  0  0  0
   36.5890   24.7080   42.7000 F   0  0  0  0  0  0  0  0  0  0  0  0
   36.3100   24.0040   40.6270 F   0  0  0  0  0  0  0  0  0  0  0  0
   36.7410   26.2050   41.0540 F   0  0  0  0  0  0  0  0  0  0  0  0
   38.6660   30.8600   40.4760 C   0  0  0  0  0  0  0  0  0  0  0  0
   38.5880   32.2080   40.7070 C   0  0  0  0  0  0  0  0  0  0  0  0
   37.7700   32.9630   39.8600 C   0  0  0  0  0  0  0  0  0  0  0  0
   37.1060   32.2780   38.8600 C   0  0  0  0  0  0  0  0  0  0  0  0
   37.1760   30.9340   38.6210 C   0  0  0  0  0  0  0  0  0  0  0  0
   37.9890   30.2550   39.4760 N   0  0  0  0  0  0  0  0  0  0  0  0
   39.1310   32.6810   41.5030 H   0  0  0  0  0  0  0  0  0  0  0  0
   37.6670   34.0240   39.9880 H   0  0  0  0  0  0  0  0  0  0  0  0
   36.4840   32.8950   38.2270 H   0  0  0  0  0  0  0  0  0  0  0  0
   34.9370   29.4560   39.1720 F   0  0  0  0  0  0  0  0  0  0  0  0
   35.3520   29.5080   37.8700 C   0  0  0  0  0  0  0  0  0  0  0  0
   36.4740   30.2440   37.5710 C   0  0  0  0  0  0  0  0  0  0  0  0
   36.8680   30.2770   36.2500 C   0  0  0  0  0  0  0  0  0  0  0  0
   37.7340   30.8330   35.9480 H   0  0  0  0  0  0  0  0  0  0  0  0
   36.1790   29.6070   35.2540 C   0  0  0  0  0  0  0  0  0  0  0  0
   36.4980   29.6400   34.2160 H   0  0  0  0  0  0  0  0  0  0  0  0
   35.0620   28.8760   35.5650 C   0  0  0  0  0  3  0  0  0  0  0  0
   34.6690   28.8420   36.8770 C   0  0  0  0  0  3  0  0  0  0  0  0
  1  2  1  0  0  0  0
  1  7  1  0  0  0  0
  2  8  1  0  0  0  0
  3  9  1  0  0  0  0
  3  2  2  0  0  0  0
  4  3  1  0  0  0  0
  5  4  2  0  0  0  0
  5  6  1  0  0  0  0
  6  1  2  0  0  0  0
  9 10  1  0  0  0  0
 10 16  1  0  0  0  0
 10 15  1  0  0  0  0
 11 10  1  0  0  0  0
 11 18  1  0  0  0  0
 12 19  1  0  0  0  0
 12 11  1  0  0  0  0
 13 20  1  6  0  0  0
 13 23  1  0  0  0  0
 13 12  1  0  0  0  0
 14 13  1  0  0  0  0
 14  9  1  0  0  0  0
 17 11  1  0  0  0  0
 21 14  1  0  0  0  0
 22 14  1  0  0  0  0
 23 24  1  0  0  0  0
 25 23  1  0  0  0  0
 26 23  1  0  0  0  0
 27 28  1  0  0  0  0
 27  5  1  0  0  0  0
 28 33  1  0  0  0  0
 29 34  1  0  0  0  0
 29 28  2  0  0  0  0
 30 29  1  0  0  0  0
 31 30  2  0  0  0  0
 31 32  1  0  0  0  0
 32 27  2  0  0  0  0
 35 30  1  0  0  0  0
 37 36  1  0  0  0  0
 38 37  1  0  0  0  0
 38 31  1  0  0  0  0
 39 38  2  0  0  0  0
 40 39  1  0  0  0  0
 41 43  2  0  0  0  0
 41 39  1  0  0  0  0
 42 41  1  0  0  0  0
 43 44  1  0  0  0  0
 44 37  2  0  0  0  0
M  END
>  <minimizedAffinity>
-6.55184937

$$$$

 OpenBabel03242522093D

 44 47  0  0  1  0  0  0  0  0999 V2000
   38.2780   27.9580   36.2270 C   0  0  0  0  0  0  0  0  0  0  0  0
   38.3900   28.3420   37.5690 C   0  0  0  0  0  0  0  0  0  0  0  0
   37.2230   28.6370   38.2750 C   0  0  0  0  0  0  0  0  0  0  0  0
   36.0460   28.5270   37.5880 N   0  0  0  0  0  0  0  0  0  0  0  0
   35.9700   28.1550   36.2960 C   0  0  0  0  0  0  0  0  0  0  0  0
   37.1120   27.8700   35.6200 N   0  0  0  0  0  0  0  0  0  0  0  0
   39.1790   27.7290   35.6830 H   0  0  0  0  0  0  0  0  0  0  0  0
   39.3150   28.4260   38.1000 H   0  0  0  0  0  0  0  0  0  0  0  0
   37.1780   29.0390   39.6380 N   0  0  0  0  0  0  0  0  0  0  0  0
   36.0730   29.8510   40.1220 C   0  0  0  0  0  0  0  0  0  0  0  0
   36.4220   30.5760   41.3930 C   0  0  0  0  0  0  0  0  0  0  0  0
   36.9980   29.7800   42.3950 N   0  0  0  0  0  0  0  0  0  0  0  0
   37.8530   28.7270   41.9800 C   0  0  2  0  0  0  0  0  0  0  0  0
   38.2130   28.6520   40.5500 C   0  0  0  0  0  0  0  0  0  0  0  0
   35.1700   29.2040   40.2210 H   0  0  0  0  0  0  0  0  0  0  0  0
   35.8320   30.5930   39.3320 H   0  0  0  0  0  0  0  0  0  0  0  0
   37.0000   31.4890   41.1520 H   0  0  0  0  0  0  0  0  0  0  0  0
   35.4380   30.9690   41.7860 H   0  0  0  0  0  0  0  0  0  0  0  0
   36.3740   29.5260   43.1890 H   0  0  0  0  0  0  0  0  0  0  0  0
   38.8000   28.7770   42.5830 H   0  0  0  0  0  0  0  0  0  0  0  0
   38.5180   27.6090   40.3050 H   0  0  0  0  0  0  0  0  0  0  0  0
   39.1290   29.2800   40.3570 H   0  0  0  0  0  0  0  0  0  0  0  0
   37.2030   27.4030   42.3590 C   0  0  0  0  0  0  0  0  0  0  0  0
   35.9740   27.6310   42.9750 F   0  0  0  0  0  0  0  0  0  0  0  0
   38.0060   26.8460   43.3310 F   0  0  0  0  0  0  0  0  0  0  0  0
   37.0010   26.5760   41.2990 F   0  0  0  0  0  0  0  0  0  0  0  0
   34.6870   28.0580   35.6270 C   0  0  0  0  0  0  0  0  0  0  0  0
   34.3550   26.9310   34.9240 C   0  0  0  0  0  0  0  0  0  0  0  0
   33.1020   26.9020   34.3040 C   0  0  0  0  0  0  0  0  0  0  0  0
   32.3050   28.0210   34.4540 C   0  0  0  0  0  0  0  0  0  0  0  0
   32.6260   29.1510   35.1520 C   0  0  0  0  0  0  0  0  0  0  0  0
   33.8570   29.1180   35.7340 N   0  0  0  0  0  0  0  0  0  0  0  0
   35.0210   26.0930   34.8460 H   0  0  0  0  0  0  0  0  0  0  0  0
   32.7820   26.0470   33.7380 H   0  0  0  0  0  0  0  0  0  0  0  0
   31.3450   27.9610   33.9590 H   0  0  0  0  0  0  0  0  0  0  0  0
   31.2940   29.6280   37.4960 F   0  0  0  0  0  0  0  0  0  0  0  0
   31.1170   30.5250   36.4790 C   0  0  0  0  0  0  0  0  0  0  0  0
   31.7770   30.3040   35.2930 C   0  0  0  0  0  0  0  0  0  0  0  0
   31.5800   31.2250   34.2860 C   0  0  0  0  0  0  0  0  0  0  0  0
   32.0640   31.1130   33.3360 H   0  0  0  0  0  0  0  0  0  0  0  0
   30.7590   32.3280   34.4400 C   0  0  0  0  0  0  0  0  0  0  0  0
   30.6100   33.0480   33.6400 H   0  0  0  0  0  0  0  0  0  0  0  0
   30.1060   32.5370   35.6280 C   0  0  0  0  0  3  0  0  0  0  0  0
   30.3010   31.6230   36.6290 C   0  0  0  0  0  3  0  0  0  0  0  0
  1  2  1  0  0  0  0
  2  8  1  0  0  0  0
  2  3  2  0  0  0  0
  3  9  1  0  0  0  0
  4  3  1  0  0  0  0
  5  4  2  0  0  0  0
  6  1  2  0  0  0  0
  6  5  1  0  0  0  0
  7  1  1  0  0  0  0
  9 10  1  0  0  0  0
  9 14  1  0  0  0  0
 10 15  1  0  0  0  0
 10 11  1  0  0  0  0
 11 18  1  0  0  0  0
 11 12  1  0  0  0  0
 12 19  1  0  0  0  0
 13 23  1  0  0  0  0
 13 12  1  0  0  0  0
 13 20  1  1  0  0  0
 14 13  1  0  0  0  0
 16 10  1  0  0  0  0
 17 11  1  0  0  0  0
 21 14  1  0  0  0  0
 22 14  1  0  0  0  0
 23 24  1  0  0  0  0
 23 25  1  0  0  0  0
 26 23  1  0  0  0  0
 27 32  1  0  0  0  0
 27  5  1  0  0  0  0
 28 27  2  0  0  0  0
 29 30  2  0  0  0  0
 29 28  1  0  0  0  0
 30 31  1  0  0  0  0
 31 38  1  0  0  0  0
 31 32  2  0  0  0  0
 33 28  1  0  0  0  0
 34 29  1  0  0  0  0
 35 30  1  0  0  0  0
 37 44  1  0  0  0  0
 37 36  1  0  0  0  0
 38 37  2  0  0  0  0
 39 41  2  0  0  0  0
 39 38  1  0  0  0  0
 40 39  1  0  0  0  0
 41 43  1  0  0  0  0
 42 41  1  0  0  0  0
 43 44  2  0  0  0  0
M  END
>  <minimizedAffinity>
-6.46548223

$$$$

 OpenBabel03242522093D

 44 47  0  0  1  0  0  0  0  0999 V2000
   41.8240   31.0990   42.9810 C   0  0  0  0  0  0  0  0  0  0  0  0
   42.1470   31.7310   41.7750 C   0  0  0  0  0  0  0  0  0  0  0  0
   41.2890   31.5650   40.6860 C   0  0  0  0  0  0  0  0  0  0  0  0
   40.1860   30.7850   40.8900 N   0  0  0  0  0  0  0  0  0  0  0  0
   39.9000   30.1880   42.0630 C   0  0  0  0  0  0  0  0  0  0  0  0
   40.7430   30.3580   43.1150 N   0  0  0  0  0  0  0  0  0  0  0  0
   42.4860   31.2280   43.8210 H   0  0  0  0  0  0  0  0  0  0  0  0
   43.0140   32.3410   41.6230 H   0  0  0  0  0  0  0  0  0  0  0  0
   41.4850   32.1420   39.4020 N   0  0  0  0  0  0  0  0  0  0  0  0
   42.2280   33.3850   39.2680 C   0  0  0  0  0  0  0  0  0  0  0  0
   41.9220   34.0870   37.9730 C   0  0  0  0  0  0  0  0  0  0  0  0
   41.9900   33.2800   36.8260 N   0  0  0  0  0  0  0  0  0  0  0  0
   41.5840   31.9270   36.9570 C   0  0  2  0  0  0  0  0  0  0  0  0
   40.9580   31.5120   38.2280 C   0  0  0  0  0  0  0  0  0  0  0  0
   43.3140   33.1690   39.4020 H   0  0  0  0  0  0  0  0  0  0  0  0
   41.9390   34.0410   40.1160 H   0  0  0  0  0  0  0  0  0  0  0  0
   40.9750   34.6520   38.0730 H   0  0  0  0  0  0  0  0  0  0  0  0
   42.7120   34.8880   37.8790 H   0  0  0  0  0  0  0  0  0  0  0  0
   42.8330   33.4090   36.2280 H   0  0  0  0  0  0  0  0  0  0  0  0
   40.8770   31.6840   36.1170 H   0  0  0  0  0  0  0  0  0  0  0  0
   41.0700   30.4100   38.3460 H   0  0  0  0  0  0  0  0  0  0  0  0
   39.8470   31.6920   38.1790 H   0  0  0  0  0  0  0  0  0  0  0  0
   42.7990   31.0370   36.7310 C   0  0  0  0  0  0  0  0  0  0  0  0
   42.9390   30.1380   37.7870 F   0  0  0  0  0  0  0  0  0  0  0  0
   43.8990   31.8640   36.8000 F   0  0  0  0  0  0  0  0  0  0  0  0
   42.7400   30.3260   35.5730 F   0  0  0  0  0  0  0  0  0  0  0  0
   38.7110   29.3730   42.2100 C   0  0  0  0  0  0  0  0  0  0  0  0
   38.4330   28.7610   43.4040 C   0  0  0  0  0  0  0  0  0  0  0  0
   37.2690   27.9900   43.4780 C   0  0  0  0  0  0  0  0  0  0  0  0
   36.4980   27.9100   42.3350 C   0  0  0  0  0  0  0  0  0  0  0  0
   36.7650   28.5160   41.1390 C   0  0  0  0  0  0  0  0  0  0  0  0
   37.9100   29.2530   41.1290 N   0  0  0  0  0  0  0  0  0  0  0  0
   39.0750   28.8630   44.2580 H   0  0  0  0  0  0  0  0  0  0  0  0
   36.9940   27.4850   44.3860 H   0  0  0  0  0  0  0  0  0  0  0  0
   35.6070   27.3050   42.4320 H   0  0  0  0  0  0  0  0  0  0  0  0
   37.4430   26.8180   39.1000 F   0  0  0  0  0  0  0  0  0  0  0  0
   36.3030   27.5590   38.9490 C   0  0  0  0  0  0  0  0  0  0  0  0
   35.9440   28.4170   39.9610 C   0  0  0  0  0  0  0  0  0  0  0  0
   34.7910   29.1510   39.7810 C   0  0  0  0  0  0  0  0  0  0  0  0
   34.4540   29.8390   40.5310 H   0  0  0  0  0  0  0  0  0  0  0  0
   34.0140   29.0430   38.6400 C   0  0  0  0  0  0  0  0  0  0  0  0
   33.1070   29.6250   38.5090 H   0  0  0  0  0  0  0  0  0  0  0  0
   34.3830   28.1830   37.6390 C   0  0  0  0  0  3  0  0  0  0  0  0
   35.5290   27.4530   37.8160 C   0  0  0  0  0  3  0  0  0  0  0  0
  1  6  1  0  0  0  0
  1  7  1  0  0  0  0
  2  1  2  0  0  0  0
  3  4  2  0  0  0  0
  3  2  1  0  0  0  0
  4  5  1  0  0  0  0
  5 27  1  0  0  0  0
  5  6  2  0  0  0  0
  8  2  1  0  0  0  0
  9  3  1  0  0  0  0
 10  9  1  0  0  0  0
 10 15  1  0  0  0  0
 10 16  1  0  0  0  0
 11 17  1  0  0  0  0
 11 10  1  0  0  0  0
 12 13  1  0  0  0  0
 12 11  1  0  0  0  0
 13 20  1  6  0  0  0
 13 14  1  0  0  0  0
 14 21  1  0  0  0  0
 14  9  1  0  0  0  0
 18 11  1  0  0  0  0
 19 12  1  0  0  0  0
 22 14  1  0  0  0  0
 23 25  1  0  0  0  0
 23 13  1  0  0  0  0
 23 24  1  0  0  0  0
 26 23  1  0  0  0  0
 27 28  1  0  0  0  0
 28 29  2  0  0  0  0
 28 33  1  0  0  0  0
 29 34  1  0  0  0  0
 30 35  1  0  0  0  0
 30 29  1  0  0  0  0
 31 30  2  0  0  0  0
 32 31  1  0  0  0  0
 32 27  2  0  0  0  0
 37 36  1  0  0  0  0
 37 38  1  0  0  0  0
 38 31  1  0  0  0  0
 39 38  2  0  0  0  0
 39 40  1  0  0  0  0
 41 39  1  0  0  0  0
 42 41  1  0  0  0  0
 43 44  1  0  0  0  0
 43 41  2  0  0  0  0
 44 37  2  0  0  0  0
M  END
>  <minimizedAffinity>
-6.40745068

$$$$

 OpenBabel03242522093D

 44 47  0  0  1  0  0  0  0  0999 V2000
   42.0720   29.5360   42.8820 C   0  0  0  0  0  0  0  0  0  0  0  0
   42.1710   30.4050   41.7890 C   0  0  0  0  0  0  0  0  0  0  0  0
   41.0820   30.5090   40.9220 C   0  0  0  0  0  0  0  0  0  0  0  0
   39.9910   29.7400   41.2140 N   0  0  0  0  0  0  0  0  0  0  0  0
   39.9240   28.9110   42.2740 C   0  0  0  0  0  0  0  0  0  0  0  0
   40.9900   28.8200   43.1100 N   0  0  0  0  0  0  0  0  0  0  0  0
   42.9120   29.4570   43.5510 H   0  0  0  0  0  0  0  0  0  0  0  0
   43.0290   31.0040   41.5670 H   0  0  0  0  0  0  0  0  0  0  0  0
   41.0350   31.3460   39.7740 N   0  0  0  0  0  0  0  0  0  0  0  0
   41.3540   32.7590   39.8900 C   0  0  0  0  0  0  0  0  0  0  0  0
   40.7920   33.5590   38.7460 C   0  0  0  0  0  0  0  0  0  0  0  0
   41.0540   33.0400   37.4680 N   0  0  0  0  0  0  0  0  0  0  0  0
   41.0890   31.6290   37.3340 C   0  0  2  0  0  0  0  0  0  0  0  0
   40.6770   30.8120   38.4930 C   0  0  0  0  0  0  0  0  0  0  0  0
   42.4590   32.8700   39.9980 H   0  0  0  0  0  0  0  0  0  0  0  0
   40.9150   33.1250   40.8420 H   0  0  0  0  0  0  0  0  0  0  0  0
   39.7220   33.7750   38.9360 H   0  0  0  0  0  0  0  0  0  0  0  0
   41.2930   34.5680   38.8190 H   0  0  0  0  0  0  0  0  0  0  0  0
   41.7900   33.5330   36.9200 H   0  0  0  0  0  0  0  0  0  0  0  0
   40.4560   31.3390   36.4520 H   0  0  0  0  0  0  0  0  0  0  0  0
   41.1270   29.7970   38.4020 H   0  0  0  0  0  0  0  0  0  0  0  0
   39.5630   30.6450   38.4600 H   0  0  0  0  0  0  0  0  0  0  0  0
   42.5080   31.2160   36.9630 C   0  0  0  0  0  0  0  0  0  0  0  0
   43.0510   30.4120   37.9630 F   0  0  0  0  0  0  0  0  0  0  0  0
   43.2580   32.3730   36.9700 F   0  0  0  0  0  0  0  0  0  0  0  0
   42.5840   30.5410   35.7850 F   0  0  0  0  0  0  0  0  0  0  0  0
   38.7340   28.1230   42.5250 C   0  0  0  0  0  0  0  0  0  0  0  0
   37.8390   28.5070   43.4880 C   0  0  0  0  0  0  0  0  0  0  0  0
   36.7110   27.7030   43.6790 C   0  0  0  0  0  0  0  0  0  0  0  0
   36.5990   26.5840   42.8770 C   0  0  0  0  0  0  0  0  0  0  0  0
   37.4850   26.1910   41.9140 C   0  0  0  0  0  0  0  0  0  0  0  0
   38.5610   27.0140   41.7740 N   0  0  0  0  0  0  0  0  0  0  0  0
   37.9840   29.3910   44.0800 H   0  0  0  0  0  0  0  0  0  0  0  0
   35.9710   27.9500   44.4180 H   0  0  0  0  0  0  0  0  0  0  0  0
   35.7140   25.9880   43.0550 H   0  0  0  0  0  0  0  0  0  0  0  0
   38.8560   23.8940   42.5030 F   0  0  0  0  0  0  0  0  0  0  0  0
   38.0420   23.8770   41.4030 C   0  0  0  0  0  0  0  0  0  0  0  0
   37.3450   25.0190   41.0900 C   0  0  0  0  0  0  0  0  0  0  0  0
   36.5330   24.9720   39.9760 C   0  0  0  0  0  0  0  0  0  0  0  0
   35.9620   25.8280   39.6760 H   0  0  0  0  0  0  0  0  0  0  0  0
   36.4110   23.8350   39.1960 C   0  0  0  0  0  0  0  0  0  0  0  0
   35.7680   23.8080   38.3210 H   0  0  0  0  0  0  0  0  0  0  0  0
   37.1120   22.7020   39.5200 C   0  0  0  0  0  3  0  0  0  0  0  0
   37.9190   22.7480   40.6260 C   0  0  0  0  0  3  0  0  0  0  0  0
  1  6  1  0  0  0  0
  1  7  1  0  0  0  0
  2  1  2  0  0  0  0
  3  4  2  0  0  0  0
  3  2  1  0  0  0  0
  4  5  1  0  0  0  0
  5 27  1  0  0  0  0
  5  6  2  0  0  0  0
  8  2  1  0  0  0  0
  9 10  1  0  0  0  0
  9  3  1  0  0  0  0
 10 15  1  0  0  0  0
 10 16  1  0  0  0  0
 11 18  1  0  0  0  0
 11 17  1  0  0  0  0
 11 10  1  0  0  0  0
 12 11  1  0  0  0  0
 13 20  1  6  0  0  0
 13 12  1  0  0  0  0
 13 14  1  0  0  0  0
 14  9  1  0  0  0  0
 19 12  1  0  0  0  0
 21 14  1  0  0  0  0
 22 14  1  0  0  0  0
 23 25  1  0  0  0  0
 23 13  1  0  0  0  0
 23 24  1  0  0  0  0
 26 23  1  0  0  0  0
 27 28  1  0  0  0  0
 28 29  2  0  0  0  0
 28 33  1  0  0  0  0
 29 34  1  0  0  0  0
 30 35  1  0  0  0  0
 30 29  1  0  0  0  0
 31 30  2  0  0  0  0
 32 31  1  0  0  0  0
 32 27  2  0  0  0  0
 37 36  1  0  0  0  0
 38 37  1  0  0  0  0
 38 31  1  0  0  0  0
 39 38  2  0  0  0  0
 40 39  1  0  0  0  0
 41 43  2  0  0  0  0
 41 39  1  0  0  0  0
 42 41  1  0  0  0  0
 43 44  1  0  0  0  0
 44 37  2  0  0  0  0
M  END
>  <minimizedAffinity>
-6.36272478

$$$$

 OpenBabel03242522093D

 44 47  0  0  1  0  0  0  0  0999 V2000
   34.4930   27.0370   36.7360 C   0  0  0  0  0  0  0  0  0  0  0  0
   35.4260   27.2810   37.7510 C   0  0  0  0  0  0  0  0  0  0  0  0
   35.1650   28.3060   38.6620 C   0  0  0  0  0  0  0  0  0  0  0  0
   34.0010   29.0000   38.4860 N   0  0  0  0  0  0  0  0  0  0  0  0
   33.1210   28.7430   37.4990 C   0  0  0  0  0  0  0  0  0  0  0  0
   33.3870   27.7430   36.6200 N   0  0  0  0  0  0  0  0  0  0  0  0
   34.6950   26.2460   36.0340 H   0  0  0  0  0  0  0  0  0  0  0  0
   36.3360   26.7330   37.8820 H   0  0  0  0  0  0  0  0  0  0  0  0
   36.0160   28.6700   39.7400 N   0  0  0  0  0  0  0  0  0  0  0  0
   35.6780   29.8040   40.5840 C   0  0  0  0  0  0  0  0  0  0  0  0
   36.8770   30.3360   41.3200 C   0  0  0  0  0  0  0  0  0  0  0  0
   37.6480   29.3690   41.9840 N   0  0  0  0  0  0  0  0  0  0  0  0
   37.7600   28.0940   41.3730 C   0  0  2  0  0  0  0  0  0  0  0  0
   37.2120   27.9290   40.0120 C   0  0  0  0  0  0  0  0  0  0  0  0
   34.8440   29.5080   41.2640 H   0  0  0  0  0  0  0  0  0  0  0  0
   35.2690   30.6010   39.9270 H   0  0  0  0  0  0  0  0  0  0  0  0
   37.4600   30.9970   40.6500 H   0  0  0  0  0  0  0  0  0  0  0  0
   36.4570   31.0370   42.1000 H   0  0  0  0  0  0  0  0  0  0  0  0
   37.5370   29.3300   43.0190 H   0  0  0  0  0  0  0  0  0  0  0  0
   38.8440   27.7990   41.3580 H   0  0  0  0  0  0  0  0  0  0  0  0
   36.9990   26.8500   39.8330 H   0  0  0  0  0  0  0  0  0  0  0  0
   37.9980   28.2040   39.2520 H   0  0  0  0  0  0  0  0  0  0  0  0
   37.0770   27.0700   42.2700 C   0  0  0  0  0  0  0  0  0  0  0  0
   37.9910   26.5450   43.1810 F   0  0  0  0  0  0  0  0  0  0  0  0
   36.7250   26.0170   41.4520 F   0  0  0  0  0  0  0  0  0  0  0  0
   36.0250   27.5770   42.9660 F   0  0  0  0  0  0  0  0  0  0  0  0
   31.9040   29.5190   37.3700 C   0  0  0  0  0  0  0  0  0  0  0  0
   31.1790   29.8620   38.4810 C   0  0  0  0  0  0  0  0  0  0  0  0
   30.0160   30.6120   38.2870 C   0  0  0  0  0  0  0  0  0  0  0  0
   29.6960   30.9430   36.9840 C   0  0  0  0  0  0  0  0  0  0  0  0
   30.4110   30.6060   35.8690 C   0  0  0  0  0  0  0  0  0  0  0  0
   31.5320   29.8780   36.1220 N   0  0  0  0  0  0  0  0  0  0  0  0
   31.4830   29.5730   39.4690 H   0  0  0  0  0  0  0  0  0  0  0  0
   29.4040   30.9130   39.1170 H   0  0  0  0  0  0  0  0  0  0  0  0
   28.7890   31.5230   36.8750 H   0  0  0  0  0  0  0  0  0  0  0  0
   31.1960   33.0040   34.8040 F   0  0  0  0  0  0  0  0  0  0  0  0
   30.4600   32.1730   34.0060 C   0  0  0  0  0  0  0  0  0  0  0  0
   30.0550   30.9640   34.5210 C   0  0  0  0  0  0  0  0  0  0  0  0
   29.3150   30.1470   33.6930 C   0  0  0  0  0  0  0  0  0  0  0  0
   28.9680   29.1910   34.0310 H   0  0  0  0  0  0  0  0  0  0  0  0
   28.9830   30.5080   32.3990 C   0  0  0  0  0  0  0  0  0  0  0  0
   28.3990   29.8570   31.7540 H   0  0  0  0  0  0  0  0  0  0  0  0
   29.3930   31.7160   31.8970 C   0  0  0  0  0  3  0  0  0  0  0  0
   30.1280   32.5290   32.7190 C   0  0  0  0  0  3  0  0  0  0  0  0
  1  2  1  0  0  0  0
  2  8  1  0  0  0  0
  2  3  2  0  0  0  0
  3  9  1  0  0  0  0
  4  3  1  0  0  0  0
  5  4  2  0  0  0  0
  6  1  2  0  0  0  0
  6  5  1  0  0  0  0
  7  1  1  0  0  0  0
  9 14  1  0  0  0  0
  9 10  1  0  0  0  0
 10 15  1  0  0  0  0
 10 11  1  0  0  0  0
 11 12  1  0  0  0  0
 11 18  1  0  0  0  0
 12 19  1  0  0  0  0
 13 20  1  6  0  0  0
 13 12  1  0  0  0  0
 13 23  1  0  0  0  0
 14 13  1  0  0  0  0
 16 10  1  0  0  0  0
 17 11  1  0  0  0  0
 21 14  1  0  0  0  0
 22 14  1  0  0  0  0
 23 26  1  0  0  0  0
 23 24  1  0  0  0  0
 25 23  1  0  0  0  0
 27  5  1  0  0  0  0
 27 28  1  0  0  0  0
 28 33  1  0  0  0  0
 29 28  2  0  0  0  0
 29 34  1  0  0  0  0
 30 29  1  0  0  0  0
 31 32  1  0  0  0  0
 31 30  2  0  0  0  0
 32 27  2  0  0  0  0
 35 30  1  0  0  0  0
 37 38  1  0  0  0  0
 37 36  1  0  0  0  0
 38 31  1  0  0  0  0
 39 40  1  0  0  0  0
 39 38  2  0  0  0  0
 41 39  1  0  0  0  0
 42 41  1  0  0  0  0
 43 41  2  0  0  0  0
 43 44  1  0  0  0  0
 44 37  2  0  0  0  0
M  END
>  <minimizedAffinity>
-6.36074638

$$$$

 OpenBabel03242522093D

 44 47  0  0  1  0  0  0  0  0999 V2000
   37.8300   30.2010   37.6400 C   0  0  0  0  0  0  0  0  0  0  0  0
   38.2690   29.7520   38.8910 C   0  0  0  0  0  0  0  0  0  0  0  0
   37.4600   28.8620   39.6000 C   0  0  0  0  0  0  0  0  0  0  0  0
   36.2850   28.4970   39.0060 N   0  0  0  0  0  0  0  0  0  0  0  0
   35.8870   28.9460   37.7990 C   0  0  0  0  0  0  0  0  0  0  0  0
   36.6840   29.8110   37.1200 N   0  0  0  0  0  0  0  0  0  0  0  0
   38.4550   30.8870   37.0930 H   0  0  0  0  0  0  0  0  0  0  0  0
   39.1910   30.0430   39.3500 H   0  0  0  0  0  0  0  0  0  0  0  0
   37.7710   28.3220   40.8770 N   0  0  0  0  0  0  0  0  0  0  0  0
   37.2830   28.9730   42.0820 C   0  0  0  0  0  0  0  0  0  0  0  0
   38.0840   28.5860   43.2950 C   0  0  0  0  0  0  0  0  0  0  0  0
   38.2900   27.2070   43.4600 N   0  0  0  0  0  0  0  0  0  0  0  0
   38.4500   26.4270   42.2860 C   0  0  2  0  0  0  0  0  0  0  0  0
   38.5650   27.1350   40.9960 C   0  0  0  0  0  0  0  0  0  0  0  0
   36.1940   28.7550   42.1900 H   0  0  0  0  0  0  0  0  0  0  0  0
   37.3620   30.0690   41.9260 H   0  0  0  0  0  0  0  0  0  0  0  0
   39.0120   29.1890   43.3340 H   0  0  0  0  0  0  0  0  0  0  0  0
   37.4800   28.9530   44.1750 H   0  0  0  0  0  0  0  0  0  0  0  0
   37.7120   26.7460   44.1950 H   0  0  0  0  0  0  0  0  0  0  0  0
   39.3530   25.7710   42.4140 H   0  0  0  0  0  0  0  0  0  0  0  0
   38.2780   26.4420   40.1730 H   0  0  0  0  0  0  0  0  0  0  0  0
   39.6450   27.3920   40.8010 H   0  0  0  0  0  0  0  0  0  0  0  0
   37.2700   25.4700   42.1810 C   0  0  0  0  0  0  0  0  0  0  0  0
   36.2900   25.8110   43.1120 F   0  0  0  0  0  0  0  0  0  0  0  0
   37.7400   24.2360   42.5740 F   0  0  0  0  0  0  0  0  0  0  0  0
   36.6960   25.4530   40.9470 F   0  0  0  0  0  0  0  0  0  0  0  0
   34.6270   28.5170   37.2270 C   0  0  0  0  0  0  0  0  0  0  0  0
   34.4040   27.1940   36.9530 C   0  0  0  0  0  0  0  0  0  0  0  0
   33.1660   26.8470   36.4020 C   0  0  0  0  0  0  0  0  0  0  0  0
   32.2720   27.8760   36.1790 C   0  0  0  0  0  0  0  0  0  0  0  0
   32.4830   29.1990   36.4480 C   0  0  0  0  0  0  0  0  0  0  0  0
   33.7040   29.4730   36.9840 N   0  0  0  0  0  0  0  0  0  0  0  0
   35.1430   26.4400   37.1500 H   0  0  0  0  0  0  0  0  0  0  0  0
   32.9300   25.8260   36.1650 H   0  0  0  0  0  0  0  0  0  0  0  0
   31.3270   27.5680   35.7530 H   0  0  0  0  0  0  0  0  0  0  0  0
   30.8600   30.1080   38.4590 F   0  0  0  0  0  0  0  0  0  0  0  0
   30.7280   30.6940   37.2300 C   0  0  0  0  0  0  0  0  0  0  0  0
   31.5330   30.2530   36.2070 C   0  0  0  0  0  0  0  0  0  0  0  0
   31.3780   30.8630   34.9800 C   0  0  0  0  0  0  0  0  0  0  0  0
   31.9740   30.5670   34.1390 H   0  0  0  0  0  0  0  0  0  0  0  0
   30.4580   31.8760   34.7670 C   0  0  0  0  0  0  0  0  0  0  0  0
   30.3440   32.3500   33.7960 H   0  0  0  0  0  0  0  0  0  0  0  0
   29.6610   32.3070   35.7960 C   0  0  0  0  0  3  0  0  0  0  0  0
   29.8150   31.7020   37.0150 C   0  0  0  0  0  3  0  0  0  0  0  0
  1  2  1  0  0  0  0
  2  8  1  0  0  0  0
  2  3  2  0  0  0  0
  3  9  1  0  0  0  0
  4  3  1  0  0  0  0
  5  4  2  0  0  0  0
  6  1  2  0  0  0  0
  6  5  1  0  0  0  0
  7  1  1  0  0  0  0
  9 14  1  0  0  0  0
  9 10  1  0  0  0  0
 10 15  1  0  0  0  0
 10 11  1  0  0  0  0
 11 17  1  0  0  0  0
 11 12  1  0  0  0  0
 11 18  1  0  0  0  0
 12 19  1  0  0  0  0
 13 20  1  1  0  0  0
 13 12  1  0  0  0  0
 14 13  1  0  0  0  0
 16 10  1  0  0  0  0
 21 14  1  0  0  0  0
 22 14  1  0  0  0  0
 23 13  1  0  0  0  0
 23 25  1  0  0  0  0
 23 24  1  0  0  0  0
 26 23  1  0  0  0  0
 27  5  1  0  0  0  0
 28 33  1  0  0  0  0
 28 27  2  0  0  0  0
 29 28  1  0  0  0  0
 30 29  2  0  0  0  0
 30 31  1  0  0  0  0
 31 32  2  0  0  0  0
 32 27  1  0  0  0  0
 34 29  1  0  0  0  0
 35 30  1  0  0  0  0
 37 36  1  0  0  0  0
 38 31  1  0  0  0  0
 38 37  2  0  0  0  0
 39 38  1  0  0  0  0
 40 39  1  0  0  0  0
 41 39  2  0  0  0  0
 41 43  1  0  0  0  0
 42 41  1  0  0  0  0
 43 44  2  0  0  0  0
 44 37  1  0  0  0  0
M  END
>  <minimizedAffinity>
-6.35856247

$$$$
