
 OpenBabel03252509213D

 25 27  0  0  0  0  0  0  0  0999 V2000
   45.1530   33.8990   45.2940 C   0  0  0  0  0  0  0  0  0  0  0  0
   45.4730   33.6020   43.9230 C   0  0  0  0  0  0  0  0  0  0  0  0
   46.6220   32.8560   43.7330 C   0  0  0  0  0  0  0  0  0  0  0  0
   47.4050   32.4290   44.7840 N   0  0  0  0  0  0  0  0  0  0  0  0
   47.0510   32.7420   46.0570 C   0  0  0  0  0  0  0  0  0  0  0  0
   45.9400   33.4660   46.2970 N   0  0  0  0  0  0  0  0  0  0  0  0
   44.2650   34.4730   45.3980 H   0  0  0  0  0  0  0  0  0  0  0  0
   47.6840   32.3920   46.8420 H   0  0  0  0  0  0  0  0  0  0  0  0
   45.5960   36.2580   43.1170 F   0  0  0  0  0  0  0  0  0  0  0  0
   44.7590   35.4020   42.4670 C   0  0  0  0  0  0  0  0  0  0  0  0
   44.6430   34.0540   42.8160 C   0  0  0  0  0  0  0  0  0  0  0  0
   43.7590   33.2930   42.0800 C   0  0  0  0  0  0  0  0  0  0  0  0
   43.6880   32.2520   42.3700 H   0  0  0  0  0  0  0  0  0  0  0  0
   43.0290   33.8360   41.0540 C   0  0  0  0  0  0  0  0  0  0  0  0
   42.3420   33.1920   40.5010 H   0  0  0  0  0  0  0  0  0  0  0  0
   43.1550   35.1810   40.7170 C   0  0  0  0  0  3  0  0  0  0  0  0
   44.0360   35.9540   41.4460 C   0  0  0  0  0  3  0  0  0  0  0  0
   46.9180   32.4450   42.3120 C   0  0  0  0  0  0  0  0  0  0  0  0
   47.9870   33.3470   41.6870 C   0  0  0  0  0  0  0  0  0  0  0  0
   48.2100   31.8520   42.0470 C   0  0  0  0  0  0  0  0  0  0  0  0
   46.0280   32.5170   41.6280 H   0  0  0  0  0  0  0  0  0  0  0  0
   48.0050   33.5210   40.6030 H   0  0  0  0  0  0  0  0  0  0  0  0
   48.4670   34.0840   42.3340 H   0  0  0  0  0  0  0  0  0  0  0  0
   48.8820   31.6840   42.9140 H   0  0  0  0  0  0  0  0  0  0  0  0
   48.3800   31.1470   41.1960 H   0  0  0  0  0  0  0  0  0  0  0  0
  1  7  1  0  0  0  0
  1  6  1  0  0  0  0
  2  1  2  0  0  0  0
  3  2  1  0  0  0  0
  3  4  2  0  0  0  0
  4  5  1  0  0  0  0
  5  6  2  0  0  0  0
  5  8  1  0  0  0  0
 10 11  1  0  0  0  0
 10  9  1  0  0  0  0
 11  2  1  0  0  0  0
 12 13  1  0  0  0  0
 12 11  2  0  0  0  0
 14 12  1  0  0  0  0
 15 14  1  0  0  0  0
 16 14  2  0  0  0  0
 16 17  1  0  0  0  0
 17 10  2  0  0  0  0
 18  3  1  0  0  0  0
 19 20  1  0  0  0  0
 19 18  1  0  0  0  0
 19 23  1  0  0  0  0
 20 18  1  0  0  0  0
 20 24  1  0  0  0  0
 21 18  1  0  0  0  0
 22 19  1  0  0  0  0
 25 20  1  0  0  0  0
M  END
>  <minimizedAffinity>
-3.60614014

>  <minimizedRMSD>
2.82727981

$$$$
