
 OpenBabel03252508213D

 34 36  0  0  0  0  0  0  0  0999 V2000
   46.2650   34.0110   40.9070 C   0  0  0  0  0  0  0  0  0  0  0  0
   47.0240   33.9350   39.7690 C   0  0  0  0  0  0  0  0  0  0  0  0
   48.2530   34.5360   39.5790 C   0  0  0  0  0  0  0  0  0  0  0  0
   48.7320   35.2790   40.6720 C   0  0  0  0  0  0  0  0  0  0  0  0
   47.9840   35.3760   41.8460 C   0  0  0  0  0  0  0  0  0  0  0  0
   46.7690   34.7600   41.9820 C   0  0  0  0  0  0  0  0  0  0  0  0
   46.6240   33.3510   38.9410 H   0  0  0  0  0  0  0  0  0  0  0  0
   48.8210   34.4550   38.6700 H   0  0  0  0  0  0  0  0  0  0  0  0
   49.6740   35.7850   40.6300 H   0  0  0  0  0  0  0  0  0  0  0  0
   48.3650   35.9500   42.6750 H   0  0  0  0  0  0  0  0  0  0  0  0
   47.1740   32.9320   44.0100 F   0  0  0  0  0  0  0  0  0  0  0  0
   46.2820   33.9530   44.1910 C   0  0  0  0  0  0  0  0  0  0  0  0
   46.0320   34.8940   43.2280 C   0  0  0  0  0  0  0  0  0  0  0  0
   45.1110   35.9120   43.4700 C   0  0  0  0  0  0  0  0  0  0  0  0
   44.9400   36.6450   42.6740 H   0  0  0  0  0  0  0  0  0  0  0  0
   44.4540   35.9660   44.6860 C   0  0  0  0  0  0  0  0  0  0  0  0
   43.7360   36.7690   44.8590 H   0  0  0  0  0  0  0  0  0  0  0  0
   44.7230   35.0000   45.6500 C   0  0  0  0  0  3  0  0  0  0  0  0
   45.6310   34.0020   45.4000 C   0  0  0  0  0  3  0  0  0  0  0  0
   44.9600   33.3690   41.1020 C   0  0  0  0  0  0  0  0  0  0  0  0
   44.4800   33.7700   42.0420 H   0  0  0  0  0  0  0  0  0  0  0  0
   45.0100   32.2680   41.1230 H   0  0  0  0  0  0  0  0  0  0  0  0
   43.9960   33.7500   39.9930 C   0  0  0  0  0  0  0  0  0  0  0  0
   44.3430   34.7070   39.5420 H   0  0  0  0  0  0  0  0  0  0  0  0
   43.9420   33.0050   39.1920 H   0  0  0  0  0  0  0  0  0  0  0  0
   41.1030   35.5400   41.6060 C   0  0  0  0  0  0  0  0  0  0  0  0
   42.3690   35.3250   41.0260 C   0  0  0  0  0  0  0  0  0  0  0  0
   42.6680   34.0240   40.6110 C   0  0  0  0  0  0  0  0  0  0  0  0
   41.7160   33.0380   40.7910 N   0  0  0  0  0  0  0  0  0  0  0  0
   40.5280   33.3010   41.3480 C   0  0  0  0  0  0  0  0  0  0  0  0
   40.2110   34.5410   41.7580 N   0  0  0  0  0  0  0  0  0  0  0  0
   40.7920   36.5040   41.9510 H   0  0  0  0  0  0  0  0  0  0  0  0
   43.0490   36.1500   40.9250 H   0  0  0  0  0  0  0  0  0  0  0  0
   39.8600   32.4560   41.4400 H   0  0  0  0  0  0  0  0  0  0  0  0
  1 20  1  0  0  0  0
  1  6  1  0  0  0  0
  2  1  2  0  0  0  0
  3  2  1  0  0  0  0
  3  4  2  0  0  0  0
  4  5  1  0  0  0  0
  5  6  2  0  0  0  0
  5 10  1  0  0  0  0
  6 13  1  0  0  0  0
  7  2  1  0  0  0  0
  8  3  1  0  0  0  0
  9  4  1  0  0  0  0
 11 12  1  0  0  0  0
 12 19  1  0  0  0  0
 13 14  1  0  0  0  0
 13 12  2  0  0  0  0
 14 16  2  0  0  0  0
 15 14  1  0  0  0  0
 16 17  1  0  0  0  0
 16 18  1  0  0  0  0
 19 18  2  0  0  0  0
 20 22  1  0  0  0  0
 20 21  1  0  0  0  0
 23 28  1  0  0  0  0
 23 20  1  0  0  0  0
 24 23  1  0  0  0  0
 25 23  1  0  0  0  0
 26 31  1  0  0  0  0
 26 32  1  0  0  0  0
 27 26  2  0  0  0  0
 28 29  2  0  0  0  0
 28 27  1  0  0  0  0
 29 30  1  0  0  0  0
 30 34  1  0  0  0  0
 30 31  2  0  0  0  0
 33 27  1  0  0  0  0
M  END
>  <minimizedAffinity>
-6.42858839

>  <minimizedRMSD>
0.88705343

$$$$
