
 OpenBabel03252505353D

 30 32  0  0  0  0  0  0  0  0999 V2000
   37.6270   29.3280   41.4890 C   0  0  0  0  0  0  0  0  0  0  0  0
   38.3580   29.2760   42.6510 C   0  0  0  0  0  0  0  0  0  0  0  0
   38.1250   28.3790   43.6790 C   0  0  0  0  0  0  0  0  0  0  0  0
   37.0810   27.4620   43.5350 C   0  0  0  0  0  0  0  0  0  0  0  0
   36.3530   27.5150   42.3750 C   0  0  0  0  0  0  0  0  0  0  0  0
   36.6100   28.4220   41.3690 C   0  0  0  0  0  0  0  0  0  0  0  0
   39.1870   29.9740   42.8110 H   0  0  0  0  0  0  0  0  0  0  0  0
   38.7250   28.3710   44.5830 H   0  0  0  0  0  0  0  0  0  0  0  0
   36.8570   26.7360   44.3120 H   0  0  0  0  0  0  0  0  0  0  0  0
   35.5370   26.7840   42.2830 H   0  0  0  0  0  0  0  0  0  0  0  0
   39.1380   31.1290   38.5650 C   0  0  0  0  0  0  0  0  0  0  0  0
   38.8840   30.0880   39.4720 C   0  0  0  0  0  0  0  0  0  0  0  0
   37.9680   30.3050   40.5010 C   0  0  0  0  0  0  0  0  0  0  0  0
   37.3700   31.5170   40.5660 N   0  0  0  0  0  0  0  0  0  0  0  0
   37.6440   32.4940   39.6700 C   0  0  0  0  0  0  0  0  0  0  0  0
   38.5230   32.3000   38.6750 N   0  0  0  0  0  0  0  0  0  0  0  0
   37.0060   33.7720   39.7500 N   0  0  0  0  0  0  0  0  0  0  0  0
   39.8660   30.9190   37.7680 H   0  0  0  0  0  0  0  0  0  0  0  0
   39.3460   29.1140   39.4420 H   0  0  0  0  0  0  0  0  0  0  0  0
   37.3660   34.6350   40.2250 H   0  0  0  0  0  0  0  0  0  0  0  0
   36.1160   33.5580   39.2090 H   0  0  0  0  0  0  0  0  0  0  0  0
   37.3180   26.6070   39.4570 F   0  0  0  0  0  0  0  0  0  0  0  0
   36.2470   27.4300   39.2740 C   0  0  0  0  0  0  0  0  0  0  0  0
   35.7790   28.3960   40.1710 C   0  0  0  0  0  0  0  0  0  0  0  0
   34.6740   29.1490   39.8260 C   0  0  0  0  0  0  0  0  0  0  0  0
   34.4150   29.8530   40.5940 H   0  0  0  0  0  0  0  0  0  0  0  0
   34.0590   28.9320   38.6140 C   0  0  0  0  0  0  0  0  0  0  0  0
   33.1950   29.5600   38.4080 H   0  0  0  0  0  0  0  0  0  0  0  0
   34.5010   27.9890   37.7200 C   0  0  0  0  0  3  0  0  0  0  0  0
   35.6190   27.2220   38.0560 C   0  0  0  0  0  3  0  0  0  0  0  0
  1  2  1  0  0  0  0
  2  7  1  0  0  0  0
  2  3  2  0  0  0  0
  3  8  1  0  0  0  0
  4  3  1  0  0  0  0
  4  9  1  0  0  0  0
  5  4  2  0  0  0  0
  6  1  2  0  0  0  0
  6  5  1  0  0  0  0
 10  5  1  0  0  0  0
 11 16  2  0  0  0  0
 11 12  1  0  0  0  0
 12 13  2  0  0  0  0
 13 14  1  0  0  0  0
 13  1  1  0  0  0  0
 15 17  1  0  0  0  0
 15 14  2  0  0  0  0
 16 15  1  0  0  0  0
 17 20  1  0  0  0  0
 18 11  1  0  0  0  0
 19 12  1  0  0  0  0
 21 17  1  0  0  0  0
 23 22  1  0  0  0  0
 23 24  1  0  0  0  0
 24  6  1  0  0  0  0
 25 24  2  0  0  0  0
 25 26  1  0  0  0  0
 27 25  1  0  0  0  0
 28 27  1  0  0  0  0
 29 30  1  0  0  0  0
 29 27  2  0  0  0  0
 30 23  2  0  0  0  0
M  END
>  <minimizedAffinity>
-6.13858747

$$$$

 OpenBabel03252505353D

 30 32  0  0  0  0  0  0  0  0999 V2000
   37.8540   29.4020   41.5860 C   0  0  0  0  0  0  0  0  0  0  0  0
   38.0890   29.2480   42.9310 C   0  0  0  0  0  0  0  0  0  0  0  0
   37.6550   28.1670   43.6800 C   0  0  0  0  0  0  0  0  0  0  0  0
   36.9320   27.1620   43.0330 C   0  0  0  0  0  0  0  0  0  0  0  0
   36.7000   27.3170   41.6920 C   0  0  0  0  0  0  0  0  0  0  0  0
   37.1450   28.4060   40.9740 C   0  0  0  0  0  0  0  0  0  0  0  0
   38.6510   30.0100   43.4820 H   0  0  0  0  0  0  0  0  0  0  0  0
   37.8600   28.0830   44.7420 H   0  0  0  0  0  0  0  0  0  0  0  0
   36.5700   26.2920   43.5750 H   0  0  0  0  0  0  0  0  0  0  0  0
   36.1290   26.5130   41.2050 H   0  0  0  0  0  0  0  0  0  0  0  0
   40.0540   31.9230   39.8880 C   0  0  0  0  0  0  0  0  0  0  0  0
   39.6820   30.7280   40.5230 C   0  0  0  0  0  0  0  0  0  0  0  0
   38.3570   30.5680   40.9270 C   0  0  0  0  0  0  0  0  0  0  0  0
   37.4970   31.5840   40.6800 N   0  0  0  0  0  0  0  0  0  0  0  0
   37.8980   32.7210   40.0630 C   0  0  0  0  0  0  0  0  0  0  0  0
   39.1700   32.8880   39.6690 N   0  0  0  0  0  0  0  0  0  0  0  0
   36.9790   33.7870   39.8080 N   0  0  0  0  0  0  0  0  0  0  0  0
   41.1080   32.0100   39.5840 H   0  0  0  0  0  0  0  0  0  0  0  0
   40.3470   29.9040   40.7310 H   0  0  0  0  0  0  0  0  0  0  0  0
   36.8000   34.6300   40.4070 H   0  0  0  0  0  0  0  0  0  0  0  0
   36.5770   33.4550   38.8820 H   0  0  0  0  0  0  0  0  0  0  0  0
   34.6510   29.2940   40.3130 F   0  0  0  0  0  0  0  0  0  0  0  0
   35.5450   28.9440   39.3460 C   0  0  0  0  0  0  0  0  0  0  0  0
   36.8480   28.4780   39.5490 C   0  0  0  0  0  0  0  0  0  0  0  0
   37.6250   28.1660   38.4510 C   0  0  0  0  0  0  0  0  0  0  0  0
   38.6010   27.8210   38.7370 H   0  0  0  0  0  0  0  0  0  0  0  0
   37.1030   28.3190   37.1860 C   0  0  0  0  0  0  0  0  0  0  0  0
   37.7700   28.0550   36.3690 H   0  0  0  0  0  0  0  0  0  0  0  0
   35.8280   28.7760   36.9640 C   0  0  0  0  0  3  0  0  0  0  0  0
   35.0310   29.0940   38.0670 C   0  0  0  0  0  3  0  0  0  0  0  0
  1  2  1  0  0  0  0
  2  7  1  0  0  0  0
  2  3  2  0  0  0  0
  3  8  1  0  0  0  0
  4  9  1  0  0  0  0
  4  3  1  0  0  0  0
  5  4  2  0  0  0  0
  6  1  2  0  0  0  0
  6  5  1  0  0  0  0
 10  5  1  0  0  0  0
 11 12  1  0  0  0  0
 12 19  1  0  0  0  0
 12 13  2  0  0  0  0
 13  1  1  0  0  0  0
 14 13  1  0  0  0  0
 15 14  2  0  0  0  0
 16 11  2  0  0  0  0
 16 15  1  0  0  0  0
 17 15  1  0  0  0  0
 17 20  1  0  0  0  0
 18 11  1  0  0  0  0
 21 17  1  0  0  0  0
 23 24  1  0  0  0  0
 23 22  1  0  0  0  0
 24  6  1  0  0  0  0
 25 26  1  0  0  0  0
 25 24  2  0  0  0  0
 27 25  1  0  0  0  0
 28 27  1  0  0  0  0
 29 27  2  0  0  0  0
 29 30  1  0  0  0  0
 30 23  2  0  0  0  0
M  END
>  <minimizedAffinity>
-5.92041779

$$$$

 OpenBabel03252505353D

 30 32  0  0  0  0  0  0  0  0999 V2000
   37.2930   30.0550   39.2940 C   0  0  0  0  0  0  0  0  0  0  0  0
   36.6720   30.3200   38.0970 C   0  0  0  0  0  0  0  0  0  0  0  0
   35.6160   29.5830   37.5870 C   0  0  0  0  0  0  0  0  0  0  0  0
   35.1450   28.4990   38.3300 C   0  0  0  0  0  0  0  0  0  0  0  0
   35.7650   28.2360   39.5220 C   0  0  0  0  0  0  0  0  0  0  0  0
   36.8150   28.9890   40.0040 C   0  0  0  0  0  0  0  0  0  0  0  0
   37.0050   31.1600   37.4790 H   0  0  0  0  0  0  0  0  0  0  0  0
   35.1530   29.8250   36.6360 H   0  0  0  0  0  0  0  0  0  0  0  0
   34.3190   27.8890   37.9740 H   0  0  0  0  0  0  0  0  0  0  0  0
   35.3770   27.3780   40.0900 H   0  0  0  0  0  0  0  0  0  0  0  0
   40.6920   31.4760   40.0020 C   0  0  0  0  0  0  0  0  0  0  0  0
   39.7210   30.5710   39.5460 C   0  0  0  0  0  0  0  0  0  0  0  0
   38.3750   30.8930   39.7110 C   0  0  0  0  0  0  0  0  0  0  0  0
   38.0780   32.0710   40.3070 N   0  0  0  0  0  0  0  0  0  0  0  0
   39.0460   32.9160   40.7330 C   0  0  0  0  0  0  0  0  0  0  0  0
   40.3460   32.6190   40.5800 N   0  0  0  0  0  0  0  0  0  0  0  0
   38.7190   34.1580   41.3620 N   0  0  0  0  0  0  0  0  0  0  0  0
   41.7430   31.1860   39.8530 H   0  0  0  0  0  0  0  0  0  0  0  0
   39.9310   29.6270   39.0680 H   0  0  0  0  0  0  0  0  0  0  0  0
   38.6350   34.3490   42.3900 H   0  0  0  0  0  0  0  0  0  0  0  0
   38.6010   34.7670   40.4980 H   0  0  0  0  0  0  0  0  0  0  0  0
   38.6460   26.9650   39.9540 F   0  0  0  0  0  0  0  0  0  0  0  0
   38.3220   27.5840   41.1250 C   0  0  0  0  0  0  0  0  0  0  0  0
   37.4080   28.6300   41.2870 C   0  0  0  0  0  0  0  0  0  0  0  0
   37.1970   29.1440   42.5510 C   0  0  0  0  0  0  0  0  0  0  0  0
   36.4750   29.9380   42.5440 H   0  0  0  0  0  0  0  0  0  0  0  0
   37.8900   28.6200   43.6190 C   0  0  0  0  0  0  0  0  0  0  0  0
   37.6750   29.0730   44.5840 H   0  0  0  0  0  0  0  0  0  0  0  0
   38.7930   27.5950   43.4820 C   0  0  0  0  0  3  0  0  0  0  0  0
   39.0140   27.0650   42.2090 C   0  0  0  0  0  3  0  0  0  0  0  0
  1 13  1  0  0  0  0
  1  6  1  0  0  0  0
  2  1  2  0  0  0  0
  3  2  1  0  0  0  0
  3  4  2  0  0  0  0
  4  5  1  0  0  0  0
  5  6  2  0  0  0  0
  5 10  1  0  0  0  0
  6 24  1  0  0  0  0
  7  2  1  0  0  0  0
  8  3  1  0  0  0  0
  9  4  1  0  0  0  0
 11 16  1  0  0  0  0
 12 13  1  0  0  0  0
 12 11  2  0  0  0  0
 13 14  2  0  0  0  0
 14 15  1  0  0  0  0
 15 17  1  0  0  0  0
 16 15  2  0  0  0  0
 17 20  1  0  0  0  0
 18 11  1  0  0  0  0
 19 12  1  0  0  0  0
 21 17  1  0  0  0  0
 22 23  1  0  0  0  0
 23 24  2  0  0  0  0
 23 30  1  0  0  0  0
 24 25  1  0  0  0  0
 25 27  2  0  0  0  0
 26 25  1  0  0  0  0
 27 28  1  0  0  0  0
 29 27  1  0  0  0  0
 30 29  2  0  0  0  0
M  END
>  <minimizedAffinity>
-5.65149498

$$$$

 OpenBabel03252505353D

 30 32  0  0  0  0  0  0  0  0999 V2000
   39.0620   28.9940   41.6900 C   0  0  0  0  0  0  0  0  0  0  0  0
   40.0740   28.6830   42.5650 C   0  0  0  0  0  0  0  0  0  0  0  0
   40.0610   27.5900   43.4160 C   0  0  0  0  0  0  0  0  0  0  0  0
   38.9510   26.7430   43.3890 C   0  0  0  0  0  0  0  0  0  0  0  0
   37.9430   27.0540   42.5150 C   0  0  0  0  0  0  0  0  0  0  0  0
   37.9850   28.1500   41.6810 C   0  0  0  0  0  0  0  0  0  0  0  0
   40.9650   29.3170   42.6230 H   0  0  0  0  0  0  0  0  0  0  0  0
   40.8810   27.3790   44.0940 H   0  0  0  0  0  0  0  0  0  0  0  0
   38.8930   25.8710   44.0350 H   0  0  0  0  0  0  0  0  0  0  0  0
   37.0800   26.3720   42.5110 H   0  0  0  0  0  0  0  0  0  0  0  0
   39.7000   31.3290   38.8240 C   0  0  0  0  0  0  0  0  0  0  0  0
   39.6040   30.1200   39.5300 C   0  0  0  0  0  0  0  0  0  0  0  0
   39.1950   30.1530   40.8630 C   0  0  0  0  0  0  0  0  0  0  0  0
   38.9120   31.3610   41.4040 N   0  0  0  0  0  0  0  0  0  0  0  0
   39.0190   32.5040   40.6870 C   0  0  0  0  0  0  0  0  0  0  0  0
   39.4100   32.4870   39.4030 N   0  0  0  0  0  0  0  0  0  0  0  0
   38.7170   33.7750   41.2710 N   0  0  0  0  0  0  0  0  0  0  0  0
   40.0260   31.2600   37.7750 H   0  0  0  0  0  0  0  0  0  0  0  0
   39.8230   29.1460   39.1230 H   0  0  0  0  0  0  0  0  0  0  0  0
   39.3880   34.4460   41.7180 H   0  0  0  0  0  0  0  0  0  0  0  0
   37.6670   33.7980   41.1070 H   0  0  0  0  0  0  0  0  0  0  0  0
   38.0210   26.7900   39.3150 F   0  0  0  0  0  0  0  0  0  0  0  0
   37.0010   27.6430   39.6130 C   0  0  0  0  0  0  0  0  0  0  0  0
   36.8620   28.3950   40.7840 C   0  0  0  0  0  0  0  0  0  0  0  0
   35.7610   29.2160   40.9250 C   0  0  0  0  0  0  0  0  0  0  0  0
   35.7690   29.7390   41.8620 H   0  0  0  0  0  0  0  0  0  0  0  0
   34.8270   29.2750   39.9150 C   0  0  0  0  0  0  0  0  0  0  0  0
   33.9860   29.9410   40.0930 H   0  0  0  0  0  0  0  0  0  0  0  0
   34.9430   28.5450   38.7580 C   0  0  0  0  0  3  0  0  0  0  0  0
   36.0540   27.7110   38.6030 C   0  0  0  0  0  3  0  0  0  0  0  0
  1  2  1  0  0  0  0
  2  7  1  0  0  0  0
  2  3  2  0  0  0  0
  3  8  1  0  0  0  0
  4  3  1  0  0  0  0
  4  9  1  0  0  0  0
  5  4  2  0  0  0  0
  6  1  2  0  0  0  0
  6  5  1  0  0  0  0
 10  5  1  0  0  0  0
 11 16  2  0  0  0  0
 11 12  1  0  0  0  0
 12 13  2  0  0  0  0
 13 14  1  0  0  0  0
 13  1  1  0  0  0  0
 15 17  1  0  0  0  0
 15 14  2  0  0  0  0
 16 15  1  0  0  0  0
 17 20  1  0  0  0  0
 18 11  1  0  0  0  0
 19 12  1  0  0  0  0
 21 17  1  0  0  0  0
 22 23  1  0  0  0  0
 23 24  1  0  0  0  0
 24 25  2  0  0  0  0
 24  6  1  0  0  0  0
 25 26  1  0  0  0  0
 27 28  1  0  0  0  0
 27 25  1  0  0  0  0
 29 27  2  0  0  0  0
 30 29  1  0  0  0  0
 30 23  2  0  0  0  0
M  END
>  <minimizedAffinity>
-5.58603001

$$$$

 OpenBabel03252505353D

 30 32  0  0  0  0  0  0  0  0999 V2000
   36.5950   26.7300   39.4320 C   0  0  0  0  0  0  0  0  0  0  0  0
   35.8550   26.2070   38.3990 C   0  0  0  0  0  0  0  0  0  0  0  0
   35.5090   24.8710   38.2860 C   0  0  0  0  0  0  0  0  0  0  0  0
   35.9340   23.9900   39.2830 C   0  0  0  0  0  0  0  0  0  0  0  0
   36.6710   24.5140   40.3120 C   0  0  0  0  0  0  0  0  0  0  0  0
   37.0000   25.8500   40.3960 C   0  0  0  0  0  0  0  0  0  0  0  0
   35.4990   26.8580   37.5930 H   0  0  0  0  0  0  0  0  0  0  0  0
   34.9240   24.4970   37.4530 H   0  0  0  0  0  0  0  0  0  0  0  0
   35.6880   22.9320   39.2420 H   0  0  0  0  0  0  0  0  0  0  0  0
   36.9940   23.8020   41.0860 H   0  0  0  0  0  0  0  0  0  0  0  0
   38.0480   30.1150   38.7220 C   0  0  0  0  0  0  0  0  0  0  0  0
   37.8530   28.7290   38.6260 C   0  0  0  0  0  0  0  0  0  0  0  0
   36.8860   28.1310   39.4330 C   0  0  0  0  0  0  0  0  0  0  0  0
   36.1850   28.9290   40.2710 N   0  0  0  0  0  0  0  0  0  0  0  0
   36.4050   30.2640   40.3320 C   0  0  0  0  0  0  0  0  0  0  0  0
   37.3330   30.8520   39.5610 N   0  0  0  0  0  0  0  0  0  0  0  0
   35.6580   31.0960   41.2230 N   0  0  0  0  0  0  0  0  0  0  0  0
   38.8200   30.5490   38.0680 H   0  0  0  0  0  0  0  0  0  0  0  0
   38.3980   28.0710   37.9660 H   0  0  0  0  0  0  0  0  0  0  0  0
   35.9260   31.3950   42.1920 H   0  0  0  0  0  0  0  0  0  0  0  0
   34.8090   31.2900   40.6120 H   0  0  0  0  0  0  0  0  0  0  0  0
   39.7100   25.6690   40.1300 F   0  0  0  0  0  0  0  0  0  0  0  0
   39.1530   26.1630   41.2720 C   0  0  0  0  0  0  0  0  0  0  0  0
   37.7870   26.3100   41.5340 C   0  0  0  0  0  0  0  0  0  0  0  0
   37.3920   26.8300   42.7500 C   0  0  0  0  0  0  0  0  0  0  0  0
   36.3230   26.8920   42.8300 H   0  0  0  0  0  0  0  0  0  0  0  0
   38.3460   27.1920   43.6740 C   0  0  0  0  0  0  0  0  0  0  0  0
   37.9640   27.5940   44.6100 H   0  0  0  0  0  0  0  0  0  0  0  0
   39.6920   27.0570   43.4380 C   0  0  0  0  0  3  0  0  0  0  0  0
   40.1050   26.5310   42.2110 C   0  0  0  0  0  3  0  0  0  0  0  0
  1 13  1  0  0  0  0
  1  6  1  0  0  0  0
  2  1  2  0  0  0  0
  3  2  1  0  0  0  0
  3  4  2  0  0  0  0
  4  5  1  0  0  0  0
  5  6  2  0  0  0  0
  5 10  1  0  0  0  0
  6 24  1  0  0  0  0
  7  2  1  0  0  0  0
  8  3  1  0  0  0  0
  9  4  1  0  0  0  0
 11 16  1  0  0  0  0
 12 11  2  0  0  0  0
 12 13  1  0  0  0  0
 13 14  2  0  0  0  0
 14 15  1  0  0  0  0
 15 17  1  0  0  0  0
 16 15  2  0  0  0  0
 17 20  1  0  0  0  0
 18 11  1  0  0  0  0
 19 12  1  0  0  0  0
 21 17  1  0  0  0  0
 22 23  1  0  0  0  0
 23 24  2  0  0  0  0
 23 30  1  0  0  0  0
 24 25  1  0  0  0  0
 25 26  1  0  0  0  0
 25 27  2  0  0  0  0
 27 28  1  0  0  0  0
 29 27  1  0  0  0  0
 30 29  2  0  0  0  0
M  END
>  <minimizedAffinity>
-5.56357002

$$$$

 OpenBabel03252505353D

 30 32  0  0  0  0  0  0  0  0999 V2000
   37.7550   29.1430   41.4840 C   0  0  0  0  0  0  0  0  0  0  0  0
   36.6350   28.5220   41.9800 C   0  0  0  0  0  0  0  0  0  0  0  0
   36.6390   27.6470   43.0540 C   0  0  0  0  0  0  0  0  0  0  0  0
   37.8580   27.3720   43.6790 C   0  0  0  0  0  0  0  0  0  0  0  0
   38.9740   27.9930   43.1830 C   0  0  0  0  0  0  0  0  0  0  0  0
   38.9360   28.8590   42.1120 C   0  0  0  0  0  0  0  0  0  0  0  0
   35.6560   28.7050   41.5240 H   0  0  0  0  0  0  0  0  0  0  0  0
   35.7320   27.1750   43.4160 H   0  0  0  0  0  0  0  0  0  0  0  0
   37.9150   26.6940   44.5260 H   0  0  0  0  0  0  0  0  0  0  0  0
   39.9210   27.7620   43.6920 H   0  0  0  0  0  0  0  0  0  0  0  0
   37.5790   30.5930   38.0290 C   0  0  0  0  0  0  0  0  0  0  0  0
   37.7310   29.6280   39.0360 C   0  0  0  0  0  0  0  0  0  0  0  0
   37.6170   30.0270   40.3670 C   0  0  0  0  0  0  0  0  0  0  0  0
   37.3640   31.3340   40.6140 N   0  0  0  0  0  0  0  0  0  0  0  0
   37.2250   32.2320   39.6110 C   0  0  0  0  0  0  0  0  0  0  0  0
   37.3320   31.8620   38.3250 N   0  0  0  0  0  0  0  0  0  0  0  0
   36.9590   33.6100   39.8850 N   0  0  0  0  0  0  0  0  0  0  0  0
   37.6750   30.2390   36.9910 H   0  0  0  0  0  0  0  0  0  0  0  0
   37.9320   28.5820   38.8670 H   0  0  0  0  0  0  0  0  0  0  0  0
   37.6560   34.3890   39.9700 H   0  0  0  0  0  0  0  0  0  0  0  0
   35.8990   33.5720   39.9650 H   0  0  0  0  0  0  0  0  0  0  0  0
   39.6220   31.2100   43.3160 F   0  0  0  0  0  0  0  0  0  0  0  0
   40.4140   30.6660   42.3500 C   0  0  0  0  0  0  0  0  0  0  0  0
   40.1790   29.4720   41.6590 C   0  0  0  0  0  0  0  0  0  0  0  0
   41.0890   29.0620   40.7040 C   0  0  0  0  0  0  0  0  0  0  0  0
   40.7980   28.1360   40.2460 H   0  0  0  0  0  0  0  0  0  0  0  0
   42.2020   29.8330   40.4550 C   0  0  0  0  0  0  0  0  0  0  0  0
   42.8750   29.4510   39.6910 H   0  0  0  0  0  0  0  0  0  0  0  0
   42.4520   31.0070   41.1210 C   0  0  0  0  0  3  0  0  0  0  0  0
   41.5390   31.4330   42.0890 C   0  0  0  0  0  3  0  0  0  0  0  0
  1  2  2  0  0  0  0
  1  6  1  0  0  0  0
  2  3  1  0  0  0  0
  3  8  1  0  0  0  0
  3  4  2  0  0  0  0
  4  9  1  0  0  0  0
  5  4  1  0  0  0  0
  5 10  1  0  0  0  0
  6  5  2  0  0  0  0
  7  2  1  0  0  0  0
 11 16  2  0  0  0  0
 11 12  1  0  0  0  0
 12 13  2  0  0  0  0
 13 14  1  0  0  0  0
 13  1  1  0  0  0  0
 15 17  1  0  0  0  0
 15 14  2  0  0  0  0
 16 15  1  0  0  0  0
 17 21  1  0  0  0  0
 17 20  1  0  0  0  0
 18 11  1  0  0  0  0
 19 12  1  0  0  0  0
 23 22  1  0  0  0  0
 24  6  1  0  0  0  0
 24 23  2  0  0  0  0
 25 24  1  0  0  0  0
 26 25  1  0  0  0  0
 27 25  2  0  0  0  0
 27 29  1  0  0  0  0
 28 27  1  0  0  0  0
 29 30  2  0  0  0  0
 30 23  1  0  0  0  0
M  END
>  <minimizedAffinity>
-5.49506712

$$$$

 OpenBabel03252505353D

 30 32  0  0  0  0  0  0  0  0999 V2000
   36.7780   26.2520   39.8400 C   0  0  0  0  0  0  0  0  0  0  0  0
   36.1910   25.0800   39.4300 C   0  0  0  0  0  0  0  0  0  0  0  0
   36.2400   23.8930   40.1420 C   0  0  0  0  0  0  0  0  0  0  0  0
   36.9280   23.8780   41.3580 C   0  0  0  0  0  0  0  0  0  0  0  0
   37.5130   25.0480   41.7650 C   0  0  0  0  0  0  0  0  0  0  0  0
   37.4460   26.2140   41.0320 C   0  0  0  0  0  0  0  0  0  0  0  0
   35.6400   25.0410   38.4850 H   0  0  0  0  0  0  0  0  0  0  0  0
   35.7640   22.9870   39.7840 H   0  0  0  0  0  0  0  0  0  0  0  0
   36.9960   22.9720   41.9550 H   0  0  0  0  0  0  0  0  0  0  0  0
   38.0490   25.0120   42.7240 H   0  0  0  0  0  0  0  0  0  0  0  0
   35.6690   29.4920   38.3070 C   0  0  0  0  0  0  0  0  0  0  0  0
   35.6890   28.4010   39.1900 C   0  0  0  0  0  0  0  0  0  0  0  0
   36.6550   27.4120   39.0120 C   0  0  0  0  0  0  0  0  0  0  0  0
   37.5260   27.5620   37.9860 N   0  0  0  0  0  0  0  0  0  0  0  0
   37.4710   28.6300   37.1570 C   0  0  0  0  0  0  0  0  0  0  0  0
   36.5470   29.5900   37.3180 N   0  0  0  0  0  0  0  0  0  0  0  0
   38.3980   28.7760   36.0770 N   0  0  0  0  0  0  0  0  0  0  0  0
   34.8910   30.2510   38.4820 H   0  0  0  0  0  0  0  0  0  0  0  0
   35.0070   28.2590   40.0140 H   0  0  0  0  0  0  0  0  0  0  0  0
   38.2650   28.4790   35.0790 H   0  0  0  0  0  0  0  0  0  0  0  0
   39.1970   29.2490   36.5940 H   0  0  0  0  0  0  0  0  0  0  0  0
   36.0630   27.6090   42.9270 F   0  0  0  0  0  0  0  0  0  0  0  0
   37.2900   28.0300   42.5090 C   0  0  0  0  0  0  0  0  0  0  0  0
   38.1000   27.4090   41.5520 C   0  0  0  0  0  0  0  0  0  0  0  0
   39.3220   27.9730   41.2440 C   0  0  0  0  0  0  0  0  0  0  0  0
   39.8470   27.4060   40.4980 H   0  0  0  0  0  0  0  0  0  0  0  0
   39.7160   29.1270   41.8830 C   0  0  0  0  0  0  0  0  0  0  0  0
   40.6890   29.5150   41.5920 H   0  0  0  0  0  0  0  0  0  0  0  0
   38.9370   29.7520   42.8260 C   0  0  0  0  0  3  0  0  0  0  0  0
   37.6980   29.1920   43.1450 C   0  0  0  0  0  3  0  0  0  0  0  0
  1  6  1  0  0  0  0
  2  1  2  0  0  0  0
  2  3  1  0  0  0  0
  3  4  2  0  0  0  0
  4  5  1  0  0  0  0
  4  9  1  0  0  0  0
  5 10  1  0  0  0  0
  6 24  1  0  0  0  0
  6  5  2  0  0  0  0
  7  2  1  0  0  0  0
  8  3  1  0  0  0  0
 11 18  1  0  0  0  0
 11 12  1  0  0  0  0
 12 19  1  0  0  0  0
 13 12  2  0  0  0  0
 13  1  1  0  0  0  0
 14 13  1  0  0  0  0
 15 16  1  0  0  0  0
 15 14  2  0  0  0  0
 16 11  2  0  0  0  0
 17 21  1  0  0  0  0
 17 15  1  0  0  0  0
 20 17  1  0  0  0  0
 23 22  1  0  0  0  0
 23 30  1  0  0  0  0
 24 23  2  0  0  0  0
 25 24  1  0  0  0  0
 25 27  2  0  0  0  0
 26 25  1  0  0  0  0
 27 29  1  0  0  0  0
 28 27  1  0  0  0  0
 29 30  2  0  0  0  0
M  END
>  <minimizedAffinity>
-5.43596554

$$$$

 OpenBabel03252505353D

 30 32  0  0  0  0  0  0  0  0999 V2000
   36.9920   28.5890   40.6580 C   0  0  0  0  0  0  0  0  0  0  0  0
   36.7250   27.4070   41.3040 C   0  0  0  0  0  0  0  0  0  0  0  0
   36.9810   27.1760   42.6450 C   0  0  0  0  0  0  0  0  0  0  0  0
   37.5470   28.2070   43.3980 C   0  0  0  0  0  0  0  0  0  0  0  0
   37.8130   29.3860   42.7530 C   0  0  0  0  0  0  0  0  0  0  0  0
   37.5470   29.5850   41.4150 C   0  0  0  0  0  0  0  0  0  0  0  0
   36.2800   26.5690   40.7560 H   0  0  0  0  0  0  0  0  0  0  0  0
   36.7550   26.2270   43.1190 H   0  0  0  0  0  0  0  0  0  0  0  0
   37.7670   28.0770   44.4550 H   0  0  0  0  0  0  0  0  0  0  0  0
   38.2590   30.1820   43.3650 H   0  0  0  0  0  0  0  0  0  0  0  0
   35.2290   29.0670   37.3810 C   0  0  0  0  0  0  0  0  0  0  0  0
   35.4090   28.9870   38.7710 C   0  0  0  0  0  0  0  0  0  0  0  0
   36.6800   28.7020   39.2660 C   0  0  0  0  0  0  0  0  0  0  0  0
   37.6780   28.5180   38.3700 N   0  0  0  0  0  0  0  0  0  0  0  0
   37.4610   28.6050   37.0370 C   0  0  0  0  0  0  0  0  0  0  0  0
   36.2420   28.8780   36.5460 N   0  0  0  0  0  0  0  0  0  0  0  0
   38.5240   28.4070   36.1000 N   0  0  0  0  0  0  0  0  0  0  0  0
   34.2110   29.2940   37.0300 H   0  0  0  0  0  0  0  0  0  0  0  0
   34.6310   29.1300   39.5050 H   0  0  0  0  0  0  0  0  0  0  0  0
   38.7860   27.5170   35.6120 H   0  0  0  0  0  0  0  0  0  0  0  0
   38.9210   29.3940   36.0750 H   0  0  0  0  0  0  0  0  0  0  0  0
   40.1750   30.0170   40.8210 F   0  0  0  0  0  0  0  0  0  0  0  0
   39.2370   30.9720   40.5670 C   0  0  0  0  0  0  0  0  0  0  0  0
   37.8640   30.8770   40.8190 C   0  0  0  0  0  0  0  0  0  0  0  0
   37.0500   31.9440   40.4980 C   0  0  0  0  0  0  0  0  0  0  0  0
   36.0220   31.7500   40.7400 H   0  0  0  0  0  0  0  0  0  0  0  0
   37.6030   33.0740   39.9390 C   0  0  0  0  0  0  0  0  0  0  0  0
   36.9040   33.8760   39.7120 H   0  0  0  0  0  0  0  0  0  0  0  0
   38.9470   33.1890   39.6820 C   0  0  0  0  0  3  0  0  0  0  0  0
   39.7820   32.1160   40.0020 C   0  0  0  0  0  3  0  0  0  0  0  0
  1  2  2  0  0  0  0
  1  6  1  0  0  0  0
  2  3  1  0  0  0  0
  3  8  1  0  0  0  0
  3  4  2  0  0  0  0
  4  9  1  0  0  0  0
  5 10  1  0  0  0  0
  5  4  1  0  0  0  0
  6  5  2  0  0  0  0
  7  2  1  0  0  0  0
 11 12  1  0  0  0  0
 12 13  2  0  0  0  0
 12 19  1  0  0  0  0
 13  1  1  0  0  0  0
 14 13  1  0  0  0  0
 15 14  2  0  0  0  0
 16 15  1  0  0  0  0
 16 11  2  0  0  0  0
 17 15  1  0  0  0  0
 18 11  1  0  0  0  0
 20 17  1  0  0  0  0
 21 17  1  0  0  0  0
 23 24  1  0  0  0  0
 23 22  1  0  0  0  0
 24  6  1  0  0  0  0
 25 26  1  0  0  0  0
 25 24  2  0  0  0  0
 27 25  1  0  0  0  0
 28 27  1  0  0  0  0
 29 27  2  0  0  0  0
 29 30  1  0  0  0  0
 30 23  2  0  0  0  0
M  END
>  <minimizedAffinity>
-5.43090963

$$$$

 OpenBabel03252505353D

 30 32  0  0  0  0  0  0  0  0999 V2000
   38.7420   31.5090   40.6080 C   0  0  0  0  0  0  0  0  0  0  0  0
   39.4910   32.5860   41.0170 C   0  0  0  0  0  0  0  0  0  0  0  0
   39.2050   33.9020   40.6960 C   0  0  0  0  0  0  0  0  0  0  0  0
   38.0830   34.1610   39.9050 C   0  0  0  0  0  0  0  0  0  0  0  0
   37.3370   33.0860   39.4990 C   0  0  0  0  0  0  0  0  0  0  0  0
   37.6490   31.7860   39.8350 C   0  0  0  0  0  0  0  0  0  0  0  0
   40.3800   32.4330   41.6390 H   0  0  0  0  0  0  0  0  0  0  0  0
   39.8220   34.7250   41.0380 H   0  0  0  0  0  0  0  0  0  0  0  0
   37.8130   35.1760   39.6250 H   0  0  0  0  0  0  0  0  0  0  0  0
   36.4590   33.3150   38.8780 H   0  0  0  0  0  0  0  0  0  0  0  0
   39.3130   28.3370   42.5280 C   0  0  0  0  0  0  0  0  0  0  0  0
   38.8580   29.6350   42.2530 C   0  0  0  0  0  0  0  0  0  0  0  0
   39.1450   30.1960   41.0090 C   0  0  0  0  0  0  0  0  0  0  0  0
   39.8520   29.4470   40.1290 N   0  0  0  0  0  0  0  0  0  0  0  0
   40.2720   28.1980   40.4360 C   0  0  0  0  0  0  0  0  0  0  0  0
   40.0020   27.6460   41.6290 N   0  0  0  0  0  0  0  0  0  0  0  0
   41.0190   27.4180   39.4980 N   0  0  0  0  0  0  0  0  0  0  0  0
   39.0660   27.9300   43.5200 H   0  0  0  0  0  0  0  0  0  0  0  0
   38.2930   30.2510   42.9350 H   0  0  0  0  0  0  0  0  0  0  0  0
   42.0620   27.3360   39.4250 H   0  0  0  0  0  0  0  0  0  0  0  0
   40.2160   26.9870   38.9490 H   0  0  0  0  0  0  0  0  0  0  0  0
   35.7650   30.8810   41.5910 F   0  0  0  0  0  0  0  0  0  0  0  0
   35.8750   30.3390   40.3450 C   0  0  0  0  0  0  0  0  0  0  0  0
   36.7910   30.7100   39.3550 C   0  0  0  0  0  0  0  0  0  0  0  0
   36.7660   30.0530   38.1410 C   0  0  0  0  0  0  0  0  0  0  0  0
   37.5150   30.4270   37.4680 H   0  0  0  0  0  0  0  0  0  0  0  0
   35.8450   29.0510   37.9320 C   0  0  0  0  0  0  0  0  0  0  0  0
   35.8820   28.5760   36.9540 H   0  0  0  0  0  0  0  0  0  0  0  0
   34.9370   28.6710   38.8900 C   0  0  0  0  0  3  0  0  0  0  0  0
   34.9520   29.3280   40.1230 C   0  0  0  0  0  3  0  0  0  0  0  0
  1 13  1  0  0  0  0
  1  2  1  0  0  0  0
  2  7  1  0  0  0  0
  3  2  2  0  0  0  0
  3  8  1  0  0  0  0
  4  3  1  0  0  0  0
  5  6  1  0  0  0  0
  5  4  2  0  0  0  0
  6  1  2  0  0  0  0
  9  4  1  0  0  0  0
 10  5  1  0  0  0  0
 11 18  1  0  0  0  0
 12 11  1  0  0  0  0
 12 19  1  0  0  0  0
 13 12  2  0  0  0  0
 14 15  2  0  0  0  0
 14 13  1  0  0  0  0
 15 16  1  0  0  0  0
 16 11  2  0  0  0  0
 17 15  1  0  0  0  0
 20 17  1  0  0  0  0
 21 17  1  0  0  0  0
 23 22  1  0  0  0  0
 24  6  1  0  0  0  0
 24 23  2  0  0  0  0
 25 24  1  0  0  0  0
 26 25  1  0  0  0  0
 27 25  2  0  0  0  0
 27 29  1  0  0  0  0
 28 27  1  0  0  0  0
 29 30  2  0  0  0  0
 30 23  1  0  0  0  0
M  END
>  <minimizedAffinity>
-5.39912128

$$$$
