
 OpenBabel03252509213D

 25 27  0  0  0  0  0  0  0  0999 V2000
   45.0890   33.8420   45.6580 C   0  0  0  0  0  0  0  0  0  0  0  0
   45.5400   33.5520   44.3230 C   0  0  0  0  0  0  0  0  0  0  0  0
   46.7030   32.8070   44.2410 C   0  0  0  0  0  0  0  0  0  0  0  0
   47.3810   32.3740   45.3610 N   0  0  0  0  0  0  0  0  0  0  0  0
   46.9050   32.6790   46.5950 C   0  0  0  0  0  0  0  0  0  0  0  0
   45.7760   33.4020   46.7300 N   0  0  0  0  0  0  0  0  0  0  0  0
   44.1950   34.4150   45.6800 H   0  0  0  0  0  0  0  0  0  0  0  0
   47.4590   32.3240   47.4350 H   0  0  0  0  0  0  0  0  0  0  0  0
   45.5840   36.2500   43.6590 F   0  0  0  0  0  0  0  0  0  0  0  0
   44.8890   35.3800   42.8730 C   0  0  0  0  0  0  0  0  0  0  0  0
   44.8220   34.0120   43.1440 C   0  0  0  0  0  0  0  0  0  0  0  0
   44.0850   33.2380   42.2700 C   0  0  0  0  0  0  0  0  0  0  0  0
   44.0490   32.1810   42.5030 H   0  0  0  0  0  0  0  0  0  0  0  0
   43.4490   33.7900   41.1880 C   0  0  0  0  0  0  0  0  0  0  0  0
   42.8780   33.1350   40.5250 H   0  0  0  0  0  0  0  0  0  0  0  0
   43.5250   35.1550   40.9290 C   0  0  0  0  0  3  0  0  0  0  0  0
   44.2590   35.9410   41.7970 C   0  0  0  0  0  3  0  0  0  0  0  0
   47.1350   32.4050   42.8530 C   0  0  0  0  0  0  0  0  0  0  0  0
   48.3260   33.2430   42.3800 C   0  0  0  0  0  0  0  0  0  0  0  0
   48.4070   31.7290   42.7230 C   0  0  0  0  0  0  0  0  0  0  0  0
   46.3380   32.5500   42.0730 H   0  0  0  0  0  0  0  0  0  0  0  0
   48.4820   33.4360   41.3100 H   0  0  0  0  0  0  0  0  0  0  0  0
   48.7760   33.9320   43.0970 H   0  0  0  0  0  0  0  0  0  0  0  0
   48.9610   31.4990   43.6560 H   0  0  0  0  0  0  0  0  0  0  0  0
   48.6280   31.0310   41.8780 H   0  0  0  0  0  0  0  0  0  0  0  0
  1  7  1  0  0  0  0
  1  6  1  0  0  0  0
  2  1  2  0  0  0  0
  3  2  1  0  0  0  0
  3  4  2  0  0  0  0
  4  5  1  0  0  0  0
  5  6  2  0  0  0  0
  5  8  1  0  0  0  0
 10 11  1  0  0  0  0
 10  9  1  0  0  0  0
 11  2  1  0  0  0  0
 12 13  1  0  0  0  0
 12 11  2  0  0  0  0
 14 12  1  0  0  0  0
 15 14  1  0  0  0  0
 16 14  2  0  0  0  0
 16 17  1  0  0  0  0
 17 10  2  0  0  0  0
 18  3  1  0  0  0  0
 19 20  1  0  0  0  0
 19 18  1  0  0  0  0
 19 23  1  0  0  0  0
 20 18  1  0  0  0  0
 20 24  1  0  0  0  0
 21 18  1  0  0  0  0
 22 19  1  0  0  0  0
 25 20  1  0  0  0  0
M  END
>  <minimizedAffinity>
-3.58894849

>  <minimizedRMSD>
2.93083382

$$$$
