
 OpenBabel03242518583D

 25 27  0  0  1  0  0  0  0  0999 V2000
   35.5030   29.6410   40.1300 C   0  0  1  0  0  0  0  0  0  0  0  0
   35.8260   28.2650   39.5060 C   0  0  0  0  0  0  0  0  0  0  0  0
   35.7950   28.5030   40.9720 C   0  0  1  0  0  0  0  0  0  0  0  0
   34.4570   29.9990   39.9640 H   0  0  0  0  0  0  0  0  0  0  0  0
   36.7410   28.1820   38.9130 H   0  0  0  0  0  0  0  0  0  0  0  0
   34.9580   27.8020   39.0000 H   0  0  0  0  0  0  0  0  0  0  0  0
   34.8650   28.0680   41.4700 H   0  0  0  0  0  0  0  0  0  0  0  0
   36.4900   30.6910   39.7740 C   0  0  0  0  0  0  0  0  0  0  0  0
   36.9480   30.7220   38.4360 C   0  0  0  0  0  0  0  0  0  0  0  0
   37.8600   31.7070   38.0900 C   0  0  0  0  0  0  0  0  0  0  0  0
   38.2680   32.5880   39.0460 N   0  0  0  0  0  0  0  0  0  0  0  0
   37.8120   32.5300   40.3120 C   0  0  0  0  0  0  0  0  0  0  0  0
   36.9230   31.5850   40.6820 N   0  0  0  0  0  0  0  0  0  0  0  0
   36.6750   30.0670   37.6540 H   0  0  0  0  0  0  0  0  0  0  0  0
   38.2610   31.8000   37.0820 H   0  0  0  0  0  0  0  0  0  0  0  0
   38.1620   33.2540   41.0560 H   0  0  0  0  0  0  0  0  0  0  0  0
   35.9450   27.4260   43.6200 F   0  0  0  0  0  0  0  0  0  0  0  0
   37.1330   27.6940   42.9830 C   0  0  0  0  0  0  0  0  0  0  0  0
   37.0390   28.2220   41.6890 C   0  0  0  0  0  0  0  0  0  0  0  0
   38.2990   28.4470   41.1570 C   0  0  0  0  0  0  0  0  0  0  0  0
   38.4090   28.8530   40.1600 H   0  0  0  0  0  0  0  0  0  0  0  0
   39.4970   28.1950   41.7940 C   0  0  0  0  0  0  0  0  0  0  0  0
   40.4520   28.3910   41.3280 H   0  0  0  0  0  0  0  0  0  0  0  0
   39.4730   27.6740   43.0710 C   0  0  0  0  0  3  0  0  0  0  0  0
   38.2630   27.4170   43.6790 C   0  0  0  0  0  3  0  0  0  0  0  0
  1  4  1  6  0  0  0
  1  3  1  0  0  0  0
  2  1  1  0  0  0  0
  2  3  1  0  0  0  0
  3  7  1  1  0  0  0
  3 19  1  0  0  0  0
  5  2  1  0  0  0  0
  6  2  1  0  0  0  0
  8  1  1  0  0  0  0
  8 13  1  0  0  0  0
  9  8  2  0  0  0  0
 10  9  1  0  0  0  0
 10 11  2  0  0  0  0
 11 12  1  0  0  0  0
 12 13  2  0  0  0  0
 12 16  1  0  0  0  0
 14  9  1  0  0  0  0
 15 10  1  0  0  0  0
 18 17  1  0  0  0  0
 18 25  1  0  0  0  0
 19 18  2  0  0  0  0
 20 19  1  0  0  0  0
 20 22  2  0  0  0  0
 21 20  1  0  0  0  0
 22 24  1  0  0  0  0
 23 22  1  0  0  0  0
 24 25  2  0  0  0  0
M  END
>  <minimizedAffinity>
-5.16258192

$$$$

 OpenBabel03242518583D

 25 27  0  0  1  0  0  0  0  0999 V2000
   35.6620   29.8770   39.8480 C   0  0  1  0  0  0  0  0  0  0  0  0
   35.7990   28.4370   39.3060 C   0  0  0  0  0  0  0  0  0  0  0  0
   35.6010   28.7460   40.7450 C   0  0  1  0  0  0  0  0  0  0  0  0
   34.7410   30.4190   39.5190 H   0  0  0  0  0  0  0  0  0  0  0  0
   36.7560   28.1540   38.8600 H   0  0  0  0  0  0  0  0  0  0  0  0
   34.9400   28.1240   38.6820 H   0  0  0  0  0  0  0  0  0  0  0  0
   34.5420   28.5190   41.1040 H   0  0  0  0  0  0  0  0  0  0  0  0
   36.8760   30.7030   39.6280 C   0  0  0  0  0  0  0  0  0  0  0  0
   36.9600   31.9280   40.3310 C   0  0  0  0  0  0  0  0  0  0  0  0
   38.0950   32.7020   40.1440 C   0  0  0  0  0  0  0  0  0  0  0  0
   39.0640   32.2500   39.3000 N   0  0  0  0  0  0  0  0  0  0  0  0
   38.9510   31.0770   38.6450 C   0  0  0  0  0  0  0  0  0  0  0  0
   37.8610   30.3000   38.8060 N   0  0  0  0  0  0  0  0  0  0  0  0
   36.2430   32.3350   40.9920 H   0  0  0  0  0  0  0  0  0  0  0  0
   38.2380   33.6560   40.6470 H   0  0  0  0  0  0  0  0  0  0  0  0
   39.7500   30.7440   37.9730 H   0  0  0  0  0  0  0  0  0  0  0  0
   36.5600   26.0500   40.8510 F   0  0  0  0  0  0  0  0  0  0  0  0
   37.1310   26.9540   41.7130 C   0  0  0  0  0  0  0  0  0  0  0  0
   36.6480   28.2670   41.6480 C   0  0  0  0  0  0  0  0  0  0  0  0
   37.3010   29.0780   42.5630 C   0  0  0  0  0  0  0  0  0  0  0  0
   37.0500   30.1270   42.6440 H   0  0  0  0  0  0  0  0  0  0  0  0
   38.2940   28.6720   43.4320 C   0  0  0  0  0  0  0  0  0  0  0  0
   38.7690   29.3510   44.1250 H   0  0  0  0  0  0  0  0  0  0  0  0
   38.6950   27.3520   43.4120 C   0  0  0  0  0  3  0  0  0  0  0  0
   38.0990   26.4730   42.5320 C   0  0  0  0  0  3  0  0  0  0  0  0
  1  4  1  6  0  0  0
  1  3  1  0  0  0  0
  2  1  1  0  0  0  0
  2  3  1  0  0  0  0
  3  7  1  1  0  0  0
  3 19  1  0  0  0  0
  5  2  1  0  0  0  0
  6  2  1  0  0  0  0
  8  1  1  0  0  0  0
  8  9  1  0  0  0  0
  9 14  1  0  0  0  0
 10  9  2  0  0  0  0
 10 15  1  0  0  0  0
 11 10  1  0  0  0  0
 12 13  1  0  0  0  0
 12 11  2  0  0  0  0
 13  8  2  0  0  0  0
 16 12  1  0  0  0  0
 17 18  1  0  0  0  0
 18 25  1  0  0  0  0
 19 18  2  0  0  0  0
 19 20  1  0  0  0  0
 20 21  1  0  0  0  0
 20 22  2  0  0  0  0
 22 23  1  0  0  0  0
 24 22  1  0  0  0  0
 25 24  2  0  0  0  0
M  END
>  <minimizedAffinity>
-4.87218857

$$$$

 OpenBabel03242518583D

 25 27  0  0  1  0  0  0  0  0999 V2000
   37.3470   32.0040   40.2290 C   0  0  1  0  0  0  0  0  0  0  0  0
   36.5750   30.9250   39.4360 C   0  0  0  0  0  0  0  0  0  0  0  0
   36.5410   31.0220   40.9180 C   0  0  1  0  0  0  0  0  0  0  0  0
   36.9890   33.0520   40.0690 H   0  0  0  0  0  0  0  0  0  0  0  0
   37.1640   30.1930   38.8780 H   0  0  0  0  0  0  0  0  0  0  0  0
   35.7450   31.3400   38.8330 H   0  0  0  0  0  0  0  0  0  0  0  0
   35.5570   31.4480   41.3100 H   0  0  0  0  0  0  0  0  0  0  0  0
   38.8190   31.9100   40.0660 C   0  0  0  0  0  0  0  0  0  0  0  0
   39.6130   32.7740   40.8570 C   0  0  0  0  0  0  0  0  0  0  0  0
   40.9900   32.6850   40.7220 C   0  0  0  0  0  0  0  0  0  0  0  0
   41.5060   31.7810   39.8430 N   0  0  0  0  0  0  0  0  0  0  0  0
   40.7200   30.9730   39.1050 C   0  0  0  0  0  0  0  0  0  0  0  0
   39.3770   31.0330   39.2120 N   0  0  0  0  0  0  0  0  0  0  0  0
   39.2750   33.4970   41.5480 H   0  0  0  0  0  0  0  0  0  0  0  0
   41.6720   33.3130   41.2930 H   0  0  0  0  0  0  0  0  0  0  0  0
   41.1690   30.2580   38.4070 H   0  0  0  0  0  0  0  0  0  0  0  0
   35.2540   28.4640   40.8670 F   0  0  0  0  0  0  0  0  0  0  0  0
   36.3910   28.5800   41.6300 C   0  0  0  0  0  0  0  0  0  0  0  0
   37.0060   29.8390   41.6430 C   0  0  0  0  0  0  0  0  0  0  0  0
   38.1370   29.8260   42.4440 C   0  0  0  0  0  0  0  0  0  0  0  0
   38.7350   30.7190   42.5650 H   0  0  0  0  0  0  0  0  0  0  0  0
   38.6140   28.7350   43.1440 C   0  0  0  0  0  0  0  0  0  0  0  0
   39.5040   28.7840   43.7540 H   0  0  0  0  0  0  0  0  0  0  0  0
   37.9290   27.5410   43.0590 C   0  0  0  0  0  3  0  0  0  0  0  0
   36.7910   27.4620   42.2840 C   0  0  0  0  0  3  0  0  0  0  0  0
  1  4  1  6  0  0  0
  1  3  1  0  0  0  0
  2  1  1  0  0  0  0
  2  3  1  0  0  0  0
  3  7  1  1  0  0  0
  3 19  1  0  0  0  0
  5  2  1  0  0  0  0
  6  2  1  0  0  0  0
  8  1  1  0  0  0  0
  8  9  1  0  0  0  0
  9 14  1  0  0  0  0
 10  9  2  0  0  0  0
 10 15  1  0  0  0  0
 11 10  1  0  0  0  0
 12 13  1  0  0  0  0
 12 11  2  0  0  0  0
 13  8  2  0  0  0  0
 16 12  1  0  0  0  0
 17 18  1  0  0  0  0
 18 19  2  0  0  0  0
 18 25  1  0  0  0  0
 19 20  1  0  0  0  0
 20 21  1  0  0  0  0
 20 22  2  0  0  0  0
 22 23  1  0  0  0  0
 24 22  1  0  0  0  0
 25 24  2  0  0  0  0
M  END
>  <minimizedAffinity>
-4.82400799

$$$$

 OpenBabel03242518583D

 25 27  0  0  1  0  0  0  0  0999 V2000
   38.5640   29.3210   42.5200 C   0  0  1  0  0  0  0  0  0  0  0  0
   37.6660   28.8360   43.6800 C   0  0  0  0  0  0  0  0  0  0  0  0
   38.8300   28.0620   43.1780 C   0  0  1  0  0  0  0  0  0  0  0  0
   39.1630   30.2390   42.7410 H   0  0  0  0  0  0  0  0  0  0  0  0
   36.6230   28.6040   43.4470 H   0  0  0  0  0  0  0  0  0  0  0  0
   37.7610   29.4540   44.5920 H   0  0  0  0  0  0  0  0  0  0  0  0
   39.7270   28.1070   43.8820 H   0  0  0  0  0  0  0  0  0  0  0  0
   37.8380   29.4530   41.2320 C   0  0  0  0  0  0  0  0  0  0  0  0
   36.6350   30.1960   41.2420 C   0  0  0  0  0  0  0  0  0  0  0  0
   35.9550   30.3370   40.0420 C   0  0  0  0  0  0  0  0  0  0  0  0
   36.4730   29.7580   38.9230 N   0  0  0  0  0  0  0  0  0  0  0  0
   37.6230   29.0560   38.9490 C   0  0  0  0  0  0  0  0  0  0  0  0
   38.3100   28.9000   40.1000 N   0  0  0  0  0  0  0  0  0  0  0  0
   36.1800   30.6620   42.0740 H   0  0  0  0  0  0  0  0  0  0  0  0
   35.0220   30.8930   39.9640 H   0  0  0  0  0  0  0  0  0  0  0  0
   38.0110   28.6030   38.0300 H   0  0  0  0  0  0  0  0  0  0  0  0
   36.2190   26.8880   43.1000 F   0  0  0  0  0  0  0  0  0  0  0  0
   37.2640   26.1270   42.6340 C   0  0  0  0  0  0  0  0  0  0  0  0
   38.5340   26.7180   42.6810 C   0  0  0  0  0  0  0  0  0  0  0  0
   39.4980   25.8540   42.1860 C   0  0  0  0  0  0  0  0  0  0  0  0
   40.5360   26.1530   42.1480 H   0  0  0  0  0  0  0  0  0  0  0  0
   39.2650   24.5800   41.7060 C   0  0  0  0  0  0  0  0  0  0  0  0
   40.0580   23.9500   41.3300 H   0  0  0  0  0  0  0  0  0  0  0  0
   37.9730   24.0970   41.7050 C   0  0  0  0  0  3  0  0  0  0  0  0
   36.9490   24.8890   42.1800 C   0  0  0  0  0  3  0  0  0  0  0  0
  1  4  1  1  0  0  0
  1  3  1  0  0  0  0
  1  2  1  0  0  0  0
  2  6  1  0  0  0  0
  3  2  1  0  0  0  0
  3  7  1  1  0  0  0
  5  2  1  0  0  0  0
  8  9  1  0  0  0  0
  8  1  1  0  0  0  0
  9 14  1  0  0  0  0
 10  9  2  0  0  0  0
 11 12  2  0  0  0  0
 11 10  1  0  0  0  0
 12 13  1  0  0  0  0
 13  8  2  0  0  0  0
 15 10  1  0  0  0  0
 16 12  1  0  0  0  0
 18 19  1  0  0  0  0
 18 17  1  0  0  0  0
 19  3  1  0  0  0  0
 20 19  2  0  0  0  0
 21 20  1  0  0  0  0
 22 20  1  0  0  0  0
 23 22  1  0  0  0  0
 24 22  2  0  0  0  0
 24 25  1  0  0  0  0
 25 18  2  0  0  0  0
M  END
>  <minimizedAffinity>
-4.81476307

$$$$

 OpenBabel03242518583D

 25 27  0  0  1  0  0  0  0  0999 V2000
   37.5840   28.5900   42.8910 C   0  0  1  0  0  0  0  0  0  0  0  0
   36.5800   27.7100   43.6690 C   0  0  0  0  0  0  0  0  0  0  0  0
   37.9540   27.2620   43.3250 C   0  0  1  0  0  0  0  0  0  0  0  0
   37.9280   29.5050   43.4350 H   0  0  0  0  0  0  0  0  0  0  0  0
   35.6760   27.3910   43.1440 H   0  0  0  0  0  0  0  0  0  0  0  0
   36.3590   28.0950   44.6830 H   0  0  0  0  0  0  0  0  0  0  0  0
   38.6580   27.2670   44.2230 H   0  0  0  0  0  0  0  0  0  0  0  0
   37.1290   28.9220   41.5180 C   0  0  0  0  0  0  0  0  0  0  0  0
   38.1240   29.0530   40.5210 C   0  0  0  0  0  0  0  0  0  0  0  0
   37.7100   29.3510   39.2320 C   0  0  0  0  0  0  0  0  0  0  0  0
   36.3780   29.5020   38.9910 N   0  0  0  0  0  0  0  0  0  0  0  0
   35.4550   29.3700   39.9640 C   0  0  0  0  0  0  0  0  0  0  0  0
   35.8250   29.0810   41.2290 N   0  0  0  0  0  0  0  0  0  0  0  0
   39.1680   28.9550   40.6460 H   0  0  0  0  0  0  0  0  0  0  0  0
   38.4120   29.4680   38.4080 H   0  0  0  0  0  0  0  0  0  0  0  0
   34.3910   29.4990   39.7350 H   0  0  0  0  0  0  0  0  0  0  0  0
   40.3720   26.2280   42.1930 F   0  0  0  0  0  0  0  0  0  0  0  0
   39.2150   25.5290   41.9480 C   0  0  0  0  0  0  0  0  0  0  0  0
   38.0420   26.0510   42.5100 C   0  0  0  0  0  0  0  0  0  0  0  0
   36.9500   25.2580   42.1920 C   0  0  0  0  0  0  0  0  0  0  0  0
   35.9620   25.5170   42.5480 H   0  0  0  0  0  0  0  0  0  0  0  0
   36.9860   24.1080   41.4290 C   0  0  0  0  0  0  0  0  0  0  0  0
   36.0990   23.5290   41.2150 H   0  0  0  0  0  0  0  0  0  0  0  0
   38.1970   23.6830   40.9250 C   0  0  0  0  0  3  0  0  0  0  0  0
   39.3380   24.4110   41.1910 C   0  0  0  0  0  3  0  0  0  0  0  0
  1  3  1  0  0  0  0
  1  4  1  1  0  0  0
  1  2  1  0  0  0  0
  2  6  1  0  0  0  0
  3  2  1  0  0  0  0
  3  7  1  1  0  0  0
  5  2  1  0  0  0  0
  8  1  1  0  0  0  0
  9 14  1  0  0  0  0
  9  8  2  0  0  0  0
 10  9  1  0  0  0  0
 11 10  2  0  0  0  0
 11 12  1  0  0  0  0
 12 13  2  0  0  0  0
 13  8  1  0  0  0  0
 15 10  1  0  0  0  0
 16 12  1  0  0  0  0
 18 17  1  0  0  0  0
 18 19  1  0  0  0  0
 19  3  1  0  0  0  0
 20 19  2  0  0  0  0
 20 21  1  0  0  0  0
 22 20  1  0  0  0  0
 23 22  1  0  0  0  0
 24 25  1  0  0  0  0
 24 22  2  0  0  0  0
 25 18  2  0  0  0  0
M  END
>  <minimizedAffinity>
-4.65754175

$$$$

 OpenBabel03242518583D

 25 27  0  0  1  0  0  0  0  0999 V2000
   39.4450   24.6420   42.9680 C   0  0  1  0  0  0  0  0  0  0  0  0
   40.8880   25.1940   42.9210 C   0  0  0  0  0  0  0  0  0  0  0  0
   39.7930   25.8510   43.6800 C   0  0  1  0  0  0  0  0  0  0  0  0
   39.3340   23.6610   43.4930 H   0  0  0  0  0  0  0  0  0  0  0  0
   41.2650   25.5390   41.9550 H   0  0  0  0  0  0  0  0  0  0  0  0
   41.6170   24.5480   43.4460 H   0  0  0  0  0  0  0  0  0  0  0  0
   39.8810   25.6950   44.8070 H   0  0  0  0  0  0  0  0  0  0  0  0
   38.7840   24.6160   41.6390 C   0  0  0  0  0  0  0  0  0  0  0  0
   37.3730   24.5220   41.6210 C   0  0  0  0  0  0  0  0  0  0  0  0
   36.7450   24.5100   40.3850 C   0  0  0  0  0  0  0  0  0  0  0  0
   37.5090   24.5890   39.2610 N   0  0  0  0  0  0  0  0  0  0  0  0
   38.8530   24.6770   39.3140 C   0  0  0  0  0  0  0  0  0  0  0  0
   39.4950   24.6920   40.5000 N   0  0  0  0  0  0  0  0  0  0  0  0
   36.7280   24.4530   42.4540 H   0  0  0  0  0  0  0  0  0  0  0  0
   35.6630   24.4410   40.2840 H   0  0  0  0  0  0  0  0  0  0  0  0
   39.4360   24.7380   38.3890 H   0  0  0  0  0  0  0  0  0  0  0  0
   37.1740   27.0090   43.6800 F   0  0  0  0  0  0  0  0  0  0  0  0
   38.2170   27.8140   43.2890 C   0  0  0  0  0  0  0  0  0  0  0  0
   39.4900   27.2290   43.2940 C   0  0  0  0  0  0  0  0  0  0  0  0
   40.4510   28.1390   42.8820 C   0  0  0  0  0  0  0  0  0  0  0  0
   41.4920   27.8520   42.8290 H   0  0  0  0  0  0  0  0  0  0  0  0
   40.2130   29.4470   42.5120 C   0  0  0  0  0  0  0  0  0  0  0  0
   41.0050   30.1130   42.1990 H   0  0  0  0  0  0  0  0  0  0  0  0
   38.9180   29.9210   42.5440 C   0  0  0  0  0  3  0  0  0  0  0  0
   37.8960   29.0850   42.9420 C   0  0  0  0  0  3  0  0  0  0  0  0
  1  4  1  1  0  0  0
  1  3  1  0  0  0  0
  2  1  1  0  0  0  0
  2  6  1  0  0  0  0
  2  3  1  0  0  0  0
  3  7  1  1  0  0  0
  5  2  1  0  0  0  0
  8  1  1  0  0  0  0
  9  8  1  0  0  0  0
  9 14  1  0  0  0  0
 10  9  2  0  0  0  0
 11 12  2  0  0  0  0
 11 10  1  0  0  0  0
 12 13  1  0  0  0  0
 13  8  2  0  0  0  0
 15 10  1  0  0  0  0
 16 12  1  0  0  0  0
 18 19  1  0  0  0  0
 18 17  1  0  0  0  0
 19  3  1  0  0  0  0
 20 19  2  0  0  0  0
 21 20  1  0  0  0  0
 22 24  2  0  0  0  0
 22 20  1  0  0  0  0
 23 22  1  0  0  0  0
 24 25  1  0  0  0  0
 25 18  2  0  0  0  0
M  END
>  <minimizedAffinity>
-4.64396048

$$$$

 OpenBabel03242518583D

 25 27  0  0  1  0  0  0  0  0999 V2000
   37.3730   29.7950   42.1090 C   0  0  1  0  0  0  0  0  0  0  0  0
   38.1600   30.7600   41.1940 C   0  0  0  0  0  0  0  0  0  0  0  0
   36.6950   30.5490   41.0800 C   0  0  1  0  0  0  0  0  0  0  0  0
   37.3310   30.0960   43.1850 H   0  0  0  0  0  0  0  0  0  0  0  0
   38.9020   30.3230   40.5200 H   0  0  0  0  0  0  0  0  0  0  0  0
   38.5550   31.6430   41.7310 H   0  0  0  0  0  0  0  0  0  0  0  0
   36.0890   31.4240   41.4940 H   0  0  0  0  0  0  0  0  0  0  0  0
   37.7930   28.3780   41.9660 C   0  0  0  0  0  0  0  0  0  0  0  0
   36.8480   27.3860   42.3140 C   0  0  0  0  0  0  0  0  0  0  0  0
   37.2250   26.0590   42.1720 C   0  0  0  0  0  0  0  0  0  0  0  0
   38.4750   25.7790   41.7090 N   0  0  0  0  0  0  0  0  0  0  0  0
   39.3510   26.7510   41.3860 C   0  0  0  0  0  0  0  0  0  0  0  0
   39.0170   28.0510   41.5120 N   0  0  0  0  0  0  0  0  0  0  0  0
   35.8700   27.5380   42.6830 H   0  0  0  0  0  0  0  0  0  0  0  0
   36.5570   25.2350   42.4180 H   0  0  0  0  0  0  0  0  0  0  0  0
   40.3500   26.4890   41.0170 H   0  0  0  0  0  0  0  0  0  0  0  0
   34.3510   28.9510   40.6930 F   0  0  0  0  0  0  0  0  0  0  0  0
   35.0780   29.2810   39.5750 C   0  0  0  0  0  0  0  0  0  0  0  0
   36.2210   30.0620   39.7840 C   0  0  0  0  0  0  0  0  0  0  0  0
   36.8640   30.3260   38.5840 C   0  0  0  0  0  0  0  0  0  0  0  0
   37.7670   30.9200   38.5640 H   0  0  0  0  0  0  0  0  0  0  0  0
   36.4530   29.8890   37.3400 C   0  0  0  0  0  0  0  0  0  0  0  0
   36.9960   30.1270   36.4370 H   0  0  0  0  0  0  0  0  0  0  0  0
   35.3100   29.1240   37.2490 C   0  0  0  0  0  3  0  0  0  0  0  0
   34.6050   28.8130   38.3930 C   0  0  0  0  0  3  0  0  0  0  0  0
  1  4  1  1  0  0  0
  2  6  1  0  0  0  0
  2  1  1  0  0  0  0
  3  2  1  0  0  0  0
  3  7  1  1  0  0  0
  3  1  1  0  0  0  0
  5  2  1  0  0  0  0
  8  1  1  0  0  0  0
  8  9  1  0  0  0  0
  9 14  1  0  0  0  0
 10  9  2  0  0  0  0
 10 15  1  0  0  0  0
 11 10  1  0  0  0  0
 12 13  1  0  0  0  0
 12 11  2  0  0  0  0
 13  8  2  0  0  0  0
 16 12  1  0  0  0  0
 18 19  1  0  0  0  0
 18 17  1  0  0  0  0
 19  3  1  0  0  0  0
 20 19  2  0  0  0  0
 21 20  1  0  0  0  0
 22 20  1  0  0  0  0
 23 22  1  0  0  0  0
 24 22  2  0  0  0  0
 24 25  1  0  0  0  0
 25 18  2  0  0  0  0
M  END
>  <minimizedAffinity>
-4.61286497

$$$$

 OpenBabel03242518583D

 25 27  0  0  1  0  0  0  0  0999 V2000
   37.9900   27.5850   43.6800 C   0  0  1  0  0  0  0  0  0  0  0  0
   37.3810   28.6670   42.7600 C   0  0  0  0  0  0  0  0  0  0  0  0
   36.8910   27.2660   42.7970 C   0  0  1  0  0  0  0  0  0  0  0  0
   37.8360   27.7570   44.7740 H   0  0  0  0  0  0  0  0  0  0  0  0
   38.0200   29.0780   41.9730 H   0  0  0  0  0  0  0  0  0  0  0  0
   36.8440   29.4590   43.3160 H   0  0  0  0  0  0  0  0  0  0  0  0
   35.8960   27.1600   43.3450 H   0  0  0  0  0  0  0  0  0  0  0  0
   39.4140   27.2940   43.3790 C   0  0  0  0  0  0  0  0  0  0  0  0
   39.8720   25.9800   43.6310 C   0  0  0  0  0  0  0  0  0  0  0  0
   41.1980   25.6940   43.3410 C   0  0  0  0  0  0  0  0  0  0  0  0
   41.9860   26.6820   42.8340 N   0  0  0  0  0  0  0  0  0  0  0  0
   41.5170   27.9240   42.6060 C   0  0  0  0  0  0  0  0  0  0  0  0
   40.2330   28.2360   42.8760 N   0  0  0  0  0  0  0  0  0  0  0  0
   39.3150   25.1750   44.0270 H   0  0  0  0  0  0  0  0  0  0  0  0
   41.6290   24.7070   43.5060 H   0  0  0  0  0  0  0  0  0  0  0  0
   42.1800   28.6960   42.1980 H   0  0  0  0  0  0  0  0  0  0  0  0
   36.9320   24.4130   42.5520 F   0  0  0  0  0  0  0  0  0  0  0  0
   36.9700   25.1440   41.3890 C   0  0  0  0  0  0  0  0  0  0  0  0
   36.9500   26.5370   41.5300 C   0  0  0  0  0  0  0  0  0  0  0  0
   36.9920   27.1570   40.2900 C   0  0  0  0  0  0  0  0  0  0  0  0
   36.9830   28.2360   40.2150 H   0  0  0  0  0  0  0  0  0  0  0  0
   37.0460   26.5120   39.0710 C   0  0  0  0  0  0  0  0  0  0  0  0
   37.0760   27.0490   38.1340 H   0  0  0  0  0  0  0  0  0  0  0  0
   37.0600   25.1330   39.0490 C   0  0  0  0  0  3  0  0  0  0  0  0
   37.0210   24.4330   40.2360 C   0  0  0  0  0  3  0  0  0  0  0  0
  1  4  1  1  0  0  0
  2  3  1  0  0  0  0
  2  6  1  0  0  0  0
  2  1  1  0  0  0  0
  3  7  1  1  0  0  0
  3  1  1  0  0  0  0
  5  2  1  0  0  0  0
  8  9  1  0  0  0  0
  8  1  1  0  0  0  0
  9 14  1  0  0  0  0
 10 15  1  0  0  0  0
 10  9  2  0  0  0  0
 11 10  1  0  0  0  0
 12 11  2  0  0  0  0
 12 13  1  0  0  0  0
 13  8  2  0  0  0  0
 16 12  1  0  0  0  0
 18 19  1  0  0  0  0
 18 17  1  0  0  0  0
 19  3  1  0  0  0  0
 20 19  2  0  0  0  0
 21 20  1  0  0  0  0
 22 20  1  0  0  0  0
 23 22  1  0  0  0  0
 24 22  2  0  0  0  0
 24 25  1  0  0  0  0
 25 18  2  0  0  0  0
M  END
>  <minimizedAffinity>
-4.61153984

$$$$

 OpenBabel03242518583D

 25 27  0  0  1  0  0  0  0  0999 V2000
   36.8170   30.9360   40.1300 C   0  0  1  0  0  0  0  0  0  0  0  0
   35.6000   29.9880   40.2220 C   0  0  0  0  0  0  0  0  0  0  0  0
   36.4680   30.3080   41.3840 C   0  0  1  0  0  0  0  0  0  0  0  0
   36.5660   32.0040   39.9150 H   0  0  0  0  0  0  0  0  0  0  0  0
   35.6440   29.0540   39.6560 H   0  0  0  0  0  0  0  0  0  0  0  0
   34.6330   30.5090   40.0910 H   0  0  0  0  0  0  0  0  0  0  0  0
   35.9740   31.0280   42.1190 H   0  0  0  0  0  0  0  0  0  0  0  0
   37.8770   30.4410   39.2150 C   0  0  0  0  0  0  0  0  0  0  0  0
   39.1980   30.8850   39.4570 C   0  0  0  0  0  0  0  0  0  0  0  0
   40.1970   30.4190   38.6170 C   0  0  0  0  0  0  0  0  0  0  0  0
   39.8620   29.5650   37.6100 N   0  0  0  0  0  0  0  0  0  0  0  0
   38.5920   29.1620   37.4080 C   0  0  0  0  0  0  0  0  0  0  0  0
   37.5960   29.5960   38.2070 N   0  0  0  0  0  0  0  0  0  0  0  0
   39.5190   31.5480   40.2130 H   0  0  0  0  0  0  0  0  0  0  0  0
   41.2390   30.7120   38.7350 H   0  0  0  0  0  0  0  0  0  0  0  0
   38.3580   28.4740   36.5870 H   0  0  0  0  0  0  0  0  0  0  0  0
   38.9720   30.4270   42.7680 F   0  0  0  0  0  0  0  0  0  0  0  0
   38.3470   29.2050   42.7030 C   0  0  0  0  0  0  0  0  0  0  0  0
   37.1240   29.1670   42.0210 C   0  0  0  0  0  0  0  0  0  0  0  0
   36.5970   27.8840   42.0270 C   0  0  0  0  0  0  0  0  0  0  0  0
   35.6520   27.6770   41.5440 H   0  0  0  0  0  0  0  0  0  0  0  0
   37.1780   26.7790   42.6160 C   0  0  0  0  0  0  0  0  0  0  0  0
   36.7190   25.8010   42.5890 H   0  0  0  0  0  0  0  0  0  0  0  0
   38.3870   26.9300   43.2640 C   0  0  0  0  0  3  0  0  0  0  0  0
   38.9850   28.1730   43.3080 C   0  0  0  0  0  3  0  0  0  0  0  0
  1  4  1  6  0  0  0
  1  2  1  0  0  0  0
  1  3  1  0  0  0  0
  2  3  1  0  0  0  0
  3 19  1  0  0  0  0
  3  7  1  1  0  0  0
  5  2  1  0  0  0  0
  6  2  1  0  0  0  0
  8  9  1  0  0  0  0
  8  1  1  0  0  0  0
  9 14  1  0  0  0  0
 10 15  1  0  0  0  0
 10  9  2  0  0  0  0
 11 10  1  0  0  0  0
 12 11  2  0  0  0  0
 12 13  1  0  0  0  0
 13  8  2  0  0  0  0
 16 12  1  0  0  0  0
 18 17  1  0  0  0  0
 18 25  1  0  0  0  0
 19 20  1  0  0  0  0
 19 18  2  0  0  0  0
 20 22  2  0  0  0  0
 21 20  1  0  0  0  0
 22 24  1  0  0  0  0
 23 22  1  0  0  0  0
 24 25  2  0  0  0  0
M  END
>  <minimizedAffinity>
-4.6070776

$$$$
