
 OpenBabel03252509163D

 25 27  0  0  0  0  0  0  0  0999 V2000
   46.0960   32.9370   45.9970 C   0  0  0  0  0  0  0  0  0  0  0  0
   45.6950   32.6830   47.3340 C   0  0  0  0  0  0  0  0  0  0  0  0
   46.1870   31.5940   47.9670 C   0  0  0  0  0  0  0  0  0  0  0  0
   47.0840   30.7530   47.2680 C   0  0  0  0  0  0  0  0  0  0  0  0
   47.2140   31.5640   45.6510 S   0  0  0  0  0  0  0  0  0  0  0  0
   44.9980   33.3720   47.8190 H   0  0  0  0  0  0  0  0  0  0  0  0
   45.9420   31.3310   48.9590 H   0  0  0  0  0  0  0  0  0  0  0  0
   44.4450   36.0130   44.7280 C   0  0  0  0  0  0  0  0  0  0  0  0
   45.0150   36.0680   43.4290 C   0  0  0  0  0  0  0  0  0  0  0  0
   45.9260   35.0590   43.0580 C   0  0  0  0  0  0  0  0  0  0  0  0
   46.2070   34.0810   43.9800 N   0  0  0  0  0  0  0  0  0  0  0  0
   45.6400   34.0730   45.2020 C   0  0  0  0  0  0  0  0  0  0  0  0
   44.7600   35.0350   45.5800 N   0  0  0  0  0  0  0  0  0  0  0  0
   43.7450   36.7810   45.0240 H   0  0  0  0  0  0  0  0  0  0  0  0
   44.7760   36.8450   42.7260 H   0  0  0  0  0  0  0  0  0  0  0  0
   46.3950   35.0390   42.0870 H   0  0  0  0  0  0  0  0  0  0  0  0
   49.4990   30.6470   48.6900 F   0  0  0  0  0  0  0  0  0  0  0  0
   48.9650   29.4680   48.3150 C   0  0  0  0  0  0  0  0  0  0  0  0
   47.7800   29.5500   47.6190 C   0  0  0  0  0  0  0  0  0  0  0  0
   47.2240   28.3490   47.2310 C   0  0  0  0  0  0  0  0  0  0  0  0
   46.2790   28.2870   46.6690 H   0  0  0  0  0  0  0  0  0  0  0  0
   47.8020   27.1310   47.5110 C   0  0  0  0  0  0  0  0  0  0  0  0
   47.3460   26.2030   47.1950 H   0  0  0  0  0  0  0  0  0  0  0  0
   48.9890   27.1270   48.2130 C   0  0  0  0  0  3  0  0  0  0  0  0
   49.6010   28.2880   48.6320 C   0  0  0  0  0  3  0  0  0  0  0  0
  1  2  2  0  0  0  0
  2  6  1  0  0  0  0
  2  3  1  0  0  0  0
  3  7  1  0  0  0  0
  4 19  1  0  0  0  0
  4  3  2  0  0  0  0
  5  1  1  0  0  0  0
  5  4  1  0  0  0  0
  8 14  1  0  0  0  0
  8 13  1  0  0  0  0
  9  8  2  0  0  0  0
 10  9  1  0  0  0  0
 10 11  2  0  0  0  0
 11 12  1  0  0  0  0
 12 13  2  0  0  0  0
 12  1  1  0  0  0  0
 15  9  1  0  0  0  0
 16 10  1  0  0  0  0
 18 25  1  0  0  0  0
 18 17  1  0  0  0  0
 19 18  2  0  0  0  0
 20 22  2  0  0  0  0
 20 19  1  0  0  0  0
 21 20  1  0  0  0  0
 22 24  1  0  0  0  0
 23 22  1  0  0  0  0
 24 25  2  0  0  0  0
M  END
>  <minimizedAffinity>
-4.74414921

>  <minimizedRMSD>
1.40187538

$$$$
