
 OpenBabel03252508213D

 34 36  0  0  0  0  0  0  0  0999 V2000
   43.9440   33.7980   40.4530 C   0  0  0  0  0  0  0  0  0  0  0  0
   45.2410   34.0030   40.8410 C   0  0  0  0  0  0  0  0  0  0  0  0
   45.6540   34.8380   41.8610 C   0  0  0  0  0  0  0  0  0  0  0  0
   44.6230   35.5160   42.5340 C   0  0  0  0  0  0  0  0  0  0  0  0
   43.2910   35.3290   42.1640 C   0  0  0  0  0  0  0  0  0  0  0  0
   42.9360   34.4880   41.1430 C   0  0  0  0  0  0  0  0  0  0  0  0
   46.0160   33.4630   40.2980 H   0  0  0  0  0  0  0  0  0  0  0  0
   46.6840   34.9750   42.1380 H   0  0  0  0  0  0  0  0  0  0  0  0
   44.8340   36.1880   43.3410 H   0  0  0  0  0  0  0  0  0  0  0  0
   42.5120   35.8560   42.6900 H   0  0  0  0  0  0  0  0  0  0  0  0
   41.5360   32.3080   42.0920 F   0  0  0  0  0  0  0  0  0  0  0  0
   40.8990   33.2260   41.3050 C   0  0  0  0  0  0  0  0  0  0  0  0
   41.5320   34.3310   40.8000 C   0  0  0  0  0  0  0  0  0  0  0  0
   40.8300   35.2330   40.0030 C   0  0  0  0  0  0  0  0  0  0  0  0
   41.3740   36.1030   39.6190 H   0  0  0  0  0  0  0  0  0  0  0  0
   39.4940   35.0060   39.7240 C   0  0  0  0  0  0  0  0  0  0  0  0
   38.9600   35.7230   39.0980 H   0  0  0  0  0  0  0  0  0  0  0  0
   38.8710   33.8780   40.2470 C   0  0  0  0  0  3  0  0  0  0  0  0
   39.5720   32.9970   41.0310 C   0  0  0  0  0  3  0  0  0  0  0  0
   43.5130   32.9080   39.3670 C   0  0  0  0  0  0  0  0  0  0  0  0
   42.3940   32.7690   39.4170 H   0  0  0  0  0  0  0  0  0  0  0  0
   44.0300   31.9350   39.3650 H   0  0  0  0  0  0  0  0  0  0  0  0
   43.7560   33.5470   38.0120 C   0  0  0  0  0  0  0  0  0  0  0  0
   42.8380   33.4160   37.3950 H   0  0  0  0  0  0  0  0  0  0  0  0
   43.9680   34.6190   38.0710 H   0  0  0  0  0  0  0  0  0  0  0  0
   45.6530   30.7810   36.3010 C   0  0  0  0  0  0  0  0  0  0  0  0
   44.5990   31.4640   36.9400 C   0  0  0  0  0  0  0  0  0  0  0  0
   44.8420   32.7840   37.3320 C   0  0  0  0  0  0  0  0  0  0  0  0
   46.0830   33.3330   37.0730 N   0  0  0  0  0  0  0  0  0  0  0  0
   47.0470   32.6350   36.4620 C   0  0  0  0  0  0  0  0  0  0  0  0
   46.8460   31.3640   36.0730 N   0  0  0  0  0  0  0  0  0  0  0  0
   45.5540   29.7680   35.9680 H   0  0  0  0  0  0  0  0  0  0  0  0
   43.6650   30.9600   37.1020 H   0  0  0  0  0  0  0  0  0  0  0  0
   47.9790   33.1630   36.3100 H   0  0  0  0  0  0  0  0  0  0  0  0
  1  2  2  0  0  0  0
  1  6  1  0  0  0  0
  2  3  1  0  0  0  0
  3  8  1  0  0  0  0
  3  4  2  0  0  0  0
  4  9  1  0  0  0  0
  5  4  1  0  0  0  0
  5 10  1  0  0  0  0
  6  5  2  0  0  0  0
  7  2  1  0  0  0  0
 12 11  1  0  0  0  0
 13  6  1  0  0  0  0
 13 12  2  0  0  0  0
 14 13  1  0  0  0  0
 15 14  1  0  0  0  0
 16 14  2  0  0  0  0
 16 18  1  0  0  0  0
 17 16  1  0  0  0  0
 18 19  2  0  0  0  0
 19 12  1  0  0  0  0
 20 21  1  0  0  0  0
 20  1  1  0  0  0  0
 22 20  1  0  0  0  0
 23 25  1  0  0  0  0
 23 20  1  0  0  0  0
 24 23  1  0  0  0  0
 26 27  1  0  0  0  0
 27 33  1  0  0  0  0
 27 28  2  0  0  0  0
 28 23  1  0  0  0  0
 29 28  1  0  0  0  0
 30 29  2  0  0  0  0
 31 26  2  0  0  0  0
 31 30  1  0  0  0  0
 32 26  1  0  0  0  0
 34 30  1  0  0  0  0
M  END
>  <minimizedAffinity>
-4.81094933

>  <minimizedRMSD>
6.19309711

$$$$
