
 OpenBabel03252507133D

 42 44  0  0  1  0  0  0  0  0999 V2000
   47.2000   33.0870   43.7050 C   0  0  2  0  0  0  0  0  0  0  0  0
   46.5670   34.4180   43.8290 C   0  0  0  0  0  0  0  0  0  0  0  0
   45.2300   34.2960   44.4980 C   0  0  0  0  0  0  0  0  0  0  0  0
   45.3310   33.9280   45.8360 O   0  0  0  0  0  0  0  0  0  0  0  0
   46.4660   33.1820   46.0550 C   0  0  0  0  0  0  0  0  0  0  0  0
   46.7550   32.2530   44.8940 C   0  0  1  0  0  0  0  0  0  0  0  0
   46.7660   32.5810   42.7970 H   0  0  0  0  0  0  0  0  0  0  0  0
   46.4210   34.9470   42.8640 H   0  0  0  0  0  0  0  0  0  0  0  0
   47.1650   35.1160   44.4760 H   0  0  0  0  0  0  0  0  0  0  0  0
   44.4460   33.7970   43.9320 H   0  0  0  0  0  0  0  0  0  0  0  0
   44.8540   35.3820   44.5340 H   0  0  0  0  0  0  0  0  0  0  0  0
   46.3870   32.6460   47.0170 H   0  0  0  0  0  0  0  0  0  0  0  0
   47.3730   33.8380   46.1610 H   0  0  0  0  0  0  0  0  0  0  0  0
   47.7240   31.7550   45.2280 H   0  0  0  0  0  0  0  0  0  0  0  0
   46.4320   30.4070   46.8940 F   0  0  0  0  0  0  0  0  0  0  0  0
   45.7140   30.2390   45.7330 C   0  0  0  0  0  0  0  0  0  0  0  0
   45.8440   31.1700   44.6860 C   0  0  0  0  0  0  0  0  0  0  0  0
   45.0540   30.8420   43.6070 C   0  0  0  0  0  0  0  0  0  0  0  0
   45.1030   31.4880   42.7700 H   0  0  0  0  0  0  0  0  0  0  0  0
   44.2180   29.7660   43.4850 C   0  0  0  0  0  0  0  0  0  0  0  0
   43.6350   29.5880   42.6020 H   0  0  0  0  0  0  0  0  0  0  0  0
   44.1320   28.8880   44.5450 C   0  0  0  0  0  0  0  0  0  0  0  0
   44.8890   29.1380   45.6670 C   0  0  0  0  0  0  0  0  0  0  0  0
   48.5310   33.0610   43.5350 O   0  0  0  0  0  0  0  0  0  0  0  0
   50.1130   33.1540   41.4430 O   0  0  0  0  0  0  0  0  0  0  0  0
   49.1960   33.9320   42.3020 P   0  0  2  0  0  0  0  0  0  0  0  0
   50.1040   35.2040   42.9810 O   0  0  0  0  0  0  0  0  0  0  0  0
   50.8720   34.8030   43.4790 H   0  0  0  0  0  0  0  0  0  0  0  0
   47.9580   34.6620   41.3490 O   0  0  0  0  0  0  0  0  0  0  0  0
   46.7600   33.4850   39.6940 C   0  0  0  0  0  0  0  0  0  0  0  0
   47.7870   34.3400   40.0190 C   0  0  0  0  0  0  0  0  0  0  0  0
   48.6110   34.8440   38.9800 C   0  0  0  0  0  0  0  0  0  0  0  0
   48.3360   34.4520   37.7220 N   0  0  0  0  0  0  0  0  0  0  0  0
   47.3290   33.6200   37.4430 C   0  0  0  0  0  0  0  0  0  0  0  0
   46.5470   33.1440   38.4490 N   0  0  0  0  0  0  0  0  0  0  0  0
   44.5900   33.4710   40.9150 C   0  0  0  0  0  0  0  0  0  0  0  0
   44.4910   34.7470   40.9280 O   0  0  0  0  0  0  0  0  0  0  0  0
   45.7180   32.7470   40.3130 N   0  0  0  0  0  0  0  0  0  0  0  0
   49.3810   35.4990   39.3190 H   0  0  0  0  0  0  0  0  0  0  0  0
   47.1360   33.3250   36.4130 H   0  0  0  0  0  0  0  0  0  0  0  0
   43.7380   33.0440   41.4020 H   0  0  0  0  0  0  0  0  0  0  0  0
   45.6330   31.7220   40.4120 H   0  0  0  0  0  0  0  0  0  0  0  0
  1  7  1  6  0  0  0
  1  2  1  0  0  0  0
  1  6  1  0  0  0  0
  2  9  1  0  0  0  0
  2  3  1  0  0  0  0
  3 11  1  0  0  0  0
  3  4  1  0  0  0  0
  4  5  1  0  0  0  0
  5 13  1  0  0  0  0
  5 12  1  0  0  0  0
  6 14  1  1  0  0  0
  6  5  1  0  0  0  0
  8  2  1  0  0  0  0
 10  3  1  0  0  0  0
 16 15  1  0  0  0  0
 17  6  1  0  0  0  0
 17 16  2  0  0  0  0
 18 17  1  0  0  0  0
 19 18  1  0  0  0  0
 20 18  2  0  0  0  0
 20 22  1  0  0  0  0
 21 20  1  0  0  0  0
 22 23  2  0  0  0  0
 23 16  1  0  0  0  0
 24  1  1  0  0  0  0
 26 25  2  6  0  0  0
 26 27  1  0  0  0  0
 26 24  1  0  0  0  0
 27 28  1  0  0  0  0
 29 26  1  0  0  0  0
 30 31  1  0  0  0  0
 30 38  1  0  0  0  0
 31 29  1  0  0  0  0
 32 39  1  0  0  0  0
 32 31  2  0  0  0  0
 33 32  1  0  0  0  0
 34 33  2  0  0  0  0
 34 35  1  0  0  0  0
 35 30  2  0  0  0  0
 36 37  2  0  0  0  0
 36 41  1  0  0  0  0
 38 42  1  0  0  0  0
 38 36  1  0  0  0  0
 40 34  1  0  0  0  0
M  END
>  <minimizedAffinity>
-5.48552132

>  <minimizedRMSD>
5.58473063

$$$$
