
 OpenBabel03252508213D

 34 36  0  0  0  0  0  0  0  0999 V2000
   40.6140   31.2550   40.0970 C   0  0  0  0  0  0  0  0  0  0  0  0
   40.6060   30.0570   39.4330 C   0  0  0  0  0  0  0  0  0  0  0  0
   40.9170   29.8730   38.1000 C   0  0  0  0  0  0  0  0  0  0  0  0
   41.2680   31.0400   37.4000 C   0  0  0  0  0  0  0  0  0  0  0  0
   41.2870   32.2760   38.0470 C   0  0  0  0  0  0  0  0  0  0  0  0
   40.9680   32.4040   39.3720 C   0  0  0  0  0  0  0  0  0  0  0  0
   40.3290   29.1720   40.0050 H   0  0  0  0  0  0  0  0  0  0  0  0
   40.8990   28.9150   37.6120 H   0  0  0  0  0  0  0  0  0  0  0  0
   41.5280   31.0090   36.3620 H   0  0  0  0  0  0  0  0  0  0  0  0
   41.5580   33.1620   37.4960 H   0  0  0  0  0  0  0  0  0  0  0  0
   38.7630   34.0540   39.2060 F   0  0  0  0  0  0  0  0  0  0  0  0
   39.8760   34.4830   39.8740 C   0  0  0  0  0  0  0  0  0  0  0  0
   41.0050   33.7170   39.9950 C   0  0  0  0  0  0  0  0  0  0  0  0
   42.1100   34.2080   40.6890 C   0  0  0  0  0  0  0  0  0  0  0  0
   42.9920   33.5630   40.7630 H   0  0  0  0  0  0  0  0  0  0  0  0
   42.0600   35.4710   41.2510 C   0  0  0  0  0  0  0  0  0  0  0  0
   42.9340   35.8390   41.7900 H   0  0  0  0  0  0  0  0  0  0  0  0
   40.9040   36.2320   41.1150 C   0  0  0  0  0  3  0  0  0  0  0  0
   39.8220   35.7380   40.4320 C   0  0  0  0  0  3  0  0  0  0  0  0
   40.2820   31.4430   41.5140 C   0  0  0  0  0  0  0  0  0  0  0  0
   39.4810   32.2330   41.6110 H   0  0  0  0  0  0  0  0  0  0  0  0
   41.1540   31.6880   42.1410 H   0  0  0  0  0  0  0  0  0  0  0  0
   39.6510   30.1910   42.0960 C   0  0  0  0  0  0  0  0  0  0  0  0
   38.7260   30.4870   42.6410 H   0  0  0  0  0  0  0  0  0  0  0  0
   39.3690   29.4550   41.3360 H   0  0  0  0  0  0  0  0  0  0  0  0
   41.0100   28.7640   45.3040 C   0  0  0  0  0  0  0  0  0  0  0  0
   40.0910   29.2860   44.3730 C   0  0  0  0  0  0  0  0  0  0  0  0
   40.5880   29.6340   43.1130 C   0  0  0  0  0  0  0  0  0  0  0  0
   41.9320   29.4470   42.8580 N   0  0  0  0  0  0  0  0  0  0  0  0
   42.7600   28.9450   43.7830 C   0  0  0  0  0  0  0  0  0  0  0  0
   42.3140   28.6020   45.0030 N   0  0  0  0  0  0  0  0  0  0  0  0
   40.7160   28.4720   46.2910 H   0  0  0  0  0  0  0  0  0  0  0  0
   39.0610   29.3990   44.6560 H   0  0  0  0  0  0  0  0  0  0  0  0
   43.7920   28.8410   43.4760 H   0  0  0  0  0  0  0  0  0  0  0  0
  1 20  1  0  0  0  0
  2  7  1  0  0  0  0
  2  1  1  0  0  0  0
  3  2  2  0  0  0  0
  4  5  2  0  0  0  0
  4  3  1  0  0  0  0
  5  6  1  0  0  0  0
  6 13  1  0  0  0  0
  6  1  2  0  0  0  0
  8  3  1  0  0  0  0
  9  4  1  0  0  0  0
 10  5  1  0  0  0  0
 11 12  1  0  0  0  0
 12 13  2  0  0  0  0
 12 19  1  0  0  0  0
 13 14  1  0  0  0  0
 14 15  1  0  0  0  0
 14 16  2  0  0  0  0
 16 17  1  0  0  0  0
 18 16  1  0  0  0  0
 19 18  2  0  0  0  0
 20 21  1  0  0  0  0
 20 23  1  0  0  0  0
 20 22  1  0  0  0  0
 23 24  1  0  0  0  0
 23 28  1  0  0  0  0
 25 23  1  0  0  0  0
 26 32  1  0  0  0  0
 27 33  1  0  0  0  0
 27 26  2  0  0  0  0
 28 27  1  0  0  0  0
 29 28  2  0  0  0  0
 29 30  1  0  0  0  0
 30 31  2  0  0  0  0
 31 26  1  0  0  0  0
 34 30  1  0  0  0  0
M  END
>  <minimizedAffinity>
-4.40831041

>  <minimizedRMSD>
7.01543283

$$$$
