
 OpenBabel03252509163D

 25 27  0  0  0  0  0  0  0  0999 V2000
   47.2670   33.0090   43.6070 C   0  0  0  0  0  0  0  0  0  0  0  0
   47.2290   31.6400   43.9780 C   0  0  0  0  0  0  0  0  0  0  0  0
   48.1830   30.8080   43.5040 C   0  0  0  0  0  0  0  0  0  0  0  0
   49.1830   31.3400   42.6560 C   0  0  0  0  0  0  0  0  0  0  0  0
   48.7230   33.0900   42.5460 S   0  0  0  0  0  0  0  0  0  0  0  0
   46.4280   31.2910   44.6370 H   0  0  0  0  0  0  0  0  0  0  0  0
   48.2290   29.7790   43.7290 H   0  0  0  0  0  0  0  0  0  0  0  0
   44.7800   35.0330   45.4830 C   0  0  0  0  0  0  0  0  0  0  0  0
   44.5410   36.0570   44.5290 C   0  0  0  0  0  0  0  0  0  0  0  0
   45.2380   36.0020   43.3050 C   0  0  0  0  0  0  0  0  0  0  0  0
   46.1070   34.9580   43.1100 N   0  0  0  0  0  0  0  0  0  0  0  0
   46.2990   34.0090   44.0480 C   0  0  0  0  0  0  0  0  0  0  0  0
   45.6390   34.0420   45.2330 N   0  0  0  0  0  0  0  0  0  0  0  0
   44.2520   35.0640   46.4250 H   0  0  0  0  0  0  0  0  0  0  0  0
   43.8540   36.8640   44.7080 H   0  0  0  0  0  0  0  0  0  0  0  0
   45.1040   36.7470   42.5360 H   0  0  0  0  0  0  0  0  0  0  0  0
   49.4480   31.0690   39.8770 F   0  0  0  0  0  0  0  0  0  0  0  0
   50.4730   30.6200   40.6310 C   0  0  0  0  0  0  0  0  0  0  0  0
   50.3150   30.7650   41.9910 C   0  0  0  0  0  0  0  0  0  0  0  0
   51.3560   30.3090   42.7700 C   0  0  0  0  0  0  0  0  0  0  0  0
   51.3450   30.3710   43.8710 H   0  0  0  0  0  0  0  0  0  0  0  0
   52.4950   29.7390   42.2430 C   0  0  0  0  0  0  0  0  0  0  0  0
   53.2970   29.3890   42.8760 H   0  0  0  0  0  0  0  0  0  0  0  0
   52.5810   29.6260   40.8720 C   0  0  0  0  0  3  0  0  0  0  0  0
   51.5800   30.0610   40.0300 C   0  0  0  0  0  3  0  0  0  0  0  0
  1  2  2  0  0  0  0
  1 12  1  0  0  0  0
  2  6  1  0  0  0  0
  3  7  1  0  0  0  0
  3  2  1  0  0  0  0
  4  3  2  0  0  0  0
  5  4  1  0  0  0  0
  5  1  1  0  0  0  0
  8 14  1  0  0  0  0
  9 15  1  0  0  0  0
  9  8  2  0  0  0  0
 10  9  1  0  0  0  0
 11 10  2  0  0  0  0
 11 12  1  0  0  0  0
 12 13  2  0  0  0  0
 13  8  1  0  0  0  0
 16 10  1  0  0  0  0
 17 18  1  0  0  0  0
 18 19  1  0  0  0  0
 19  4  1  0  0  0  0
 19 20  2  0  0  0  0
 20 21  1  0  0  0  0
 22 20  1  0  0  0  0
 22 23  1  0  0  0  0
 24 22  2  0  0  0  0
 25 18  2  0  0  0  0
 25 24  1  0  0  0  0
M  END
>  <minimizedAffinity>
-3.8910718

>  <minimizedRMSD>
6.4172821

$$$$
