
 OpenBabel03242522063D

 44 47  0  0  1  0  0  0  0  0999 V2000
   44.7020   35.0840   45.2480 C   0  0  0  0  0  0  0  0  0  0  0  0
   45.4790   34.9600   44.0900 C   0  0  0  0  0  0  0  0  0  0  0  0
   46.4670   33.9750   44.0540 C   0  0  0  0  0  0  0  0  0  0  0  0
   46.5990   33.1990   45.1710 N   0  0  0  0  0  0  0  0  0  0  0  0
   45.8360   33.3410   46.2720 C   0  0  0  0  0  0  0  0  0  0  0  0
   44.8780   34.3030   46.2940 N   0  0  0  0  0  0  0  0  0  0  0  0
   43.9390   35.8430   45.2740 H   0  0  0  0  0  0  0  0  0  0  0  0
   45.3690   35.5730   43.2180 H   0  0  0  0  0  0  0  0  0  0  0  0
   47.3310   33.7320   42.9520 N   0  0  0  0  0  0  0  0  0  0  0  0
   46.8810   32.9090   41.8410 C   0  0  0  0  0  0  0  0  0  0  0  0
   48.0320   32.3610   41.0430 C   0  0  0  0  0  0  0  0  0  0  0  0
   49.0020   33.3050   40.6690 N   0  0  0  0  0  0  0  0  0  0  0  0
   49.2720   34.3570   41.5810 C   0  0  2  0  0  0  0  0  0  0  0  0
   48.6500   34.2900   42.9190 C   0  0  0  0  0  0  0  0  0  0  0  0
   46.1640   33.5020   41.2240 H   0  0  0  0  0  0  0  0  0  0  0  0
   46.2950   32.0660   42.2650 H   0  0  0  0  0  0  0  0  0  0  0  0
   48.4430   31.4670   41.5510 H   0  0  0  0  0  0  0  0  0  0  0  0
   47.5660   31.9520   40.0990 H   0  0  0  0  0  0  0  0  0  0  0  0
   48.9820   33.6070   39.6720 H   0  0  0  0  0  0  0  0  0  0  0  0
   50.3850   34.4410   41.7100 H   0  0  0  0  0  0  0  0  0  0  0  0
   48.6030   35.3160   43.3500 H   0  0  0  0  0  0  0  0  0  0  0  0
   49.3170   33.7070   43.6160 H   0  0  0  0  0  0  0  0  0  0  0  0
   48.8410   35.6700   40.9400 C   0  0  0  0  0  0  0  0  0  0  0  0
   49.6640   36.7080   41.3720 F   0  0  0  0  0  0  0  0  0  0  0  0
   47.5910   35.9530   41.4480 F   0  0  0  0  0  0  0  0  0  0  0  0
   48.8680   35.6430   39.5800 F   0  0  0  0  0  0  0  0  0  0  0  0
   46.0290   32.4820   47.4230 C   0  0  0  0  0  0  0  0  0  0  0  0
   44.9590   32.0850   48.1800 C   0  0  0  0  0  0  0  0  0  0  0  0
   45.2150   31.2560   49.2770 C   0  0  0  0  0  0  0  0  0  0  0  0
   46.5330   30.9100   49.5030 C   0  0  0  0  0  0  0  0  0  0  0  0
   47.6090   31.3000   48.7560 C   0  0  0  0  0  0  0  0  0  0  0  0
   47.2960   32.1040   47.7030 N   0  0  0  0  0  0  0  0  0  0  0  0
   43.9560   32.3900   47.9500 H   0  0  0  0  0  0  0  0  0  0  0  0
   44.4190   30.9100   49.9090 H   0  0  0  0  0  0  0  0  0  0  0  0
   46.6900   30.2690   50.3600 H   0  0  0  0  0  0  0  0  0  0  0  0
   48.6010   28.9180   47.8390 F   0  0  0  0  0  0  0  0  0  0  0  0
   49.4520   29.7240   48.5440 C   0  0  0  0  0  0  0  0  0  0  0  0
   48.9740   30.9240   49.0130 C   0  0  0  0  0  0  0  0  0  0  0  0
   49.8550   31.7160   49.7200 C   0  0  0  0  0  0  0  0  0  0  0  0
   49.5470   32.6640   50.1150 H   0  0  0  0  0  0  0  0  0  0  0  0
   51.1650   31.3370   49.9580 C   0  0  0  0  0  0  0  0  0  0  0  0
   51.8500   31.9680   50.5160 H   0  0  0  0  0  0  0  0  0  0  0  0
   51.6290   30.1370   49.4850 C   0  0  0  0  0  0  0  0  0  0  0  0
   50.7550   29.3500   48.7820 C   0  0  0  0  0  0  0  0  0  0  0  0
  1  7  1  0  0  0  0
  1  6  1  0  0  0  0
  2  1  2  0  0  0  0
  3  2  1  0  0  0  0
  3  4  2  0  0  0  0
  4  5  1  0  0  0  0
  5  6  2  0  0  0  0
  5 27  1  0  0  0  0
  8  2  1  0  0  0  0
  9  3  1  0  0  0  0
 10 16  1  0  0  0  0
 10  9  1  0  0  0  0
 11 17  1  0  0  0  0
 11 10  1  0  0  0  0
 12 11  1  0  0  0  0
 12 13  1  0  0  0  0
 13 20  1  1  0  0  0
 13 14  1  0  0  0  0
 14  9  1  0  0  0  0
 14 21  1  0  0  0  0
 14 22  1  0  0  0  0
 15 10  1  0  0  0  0
 18 11  1  0  0  0  0
 19 12  1  0  0  0  0
 23 24  1  0  0  0  0
 23 25  1  0  0  0  0
 23 13  1  0  0  0  0
 26 23  1  0  0  0  0
 27 32  2  0  0  0  0
 27 28  1  0  0  0  0
 28 29  2  0  0  0  0
 29 30  1  0  0  0  0
 29 34  1  0  0  0  0
 30 35  1  0  0  0  0
 31 38  1  0  0  0  0
 31 30  2  0  0  0  0
 32 31  1  0  0  0  0
 33 28  1  0  0  0  0
 36 37  1  0  0  0  0
 37 44  2  0  0  0  0
 37 38  1  0  0  0  0
 38 39  2  0  0  0  0
 39 41  1  0  0  0  0
 39 40  1  0  0  0  0
 41 42  1  0  0  0  0
 43 41  2  0  0  0  0
 44 43  1  0  0  0  0
M  END
>  <minimizedAffinity>
-7.54130745

>  <minimizedRMSD>
0.574018061

$$$$
