
 OpenBabel03242518413D

 39 42  0  0  1  0  0  0  0  0999 V2000
   37.1520   31.9470   40.4790 O   0  0  0  0  0  0  0  0  0  0  0  0
   36.6740   30.6510   40.8050 C   0  0  0  0  0  0  0  0  0  0  0  0
   35.6290   29.8800   40.2800 C   0  0  0  0  0  0  0  0  0  0  0  0
   35.5800   28.6770   40.9560 C   0  0  0  0  0  0  0  0  0  0  0  0
   36.5900   28.7680   41.8580 C   0  0  0  0  0  0  0  0  0  0  0  0
   37.2310   29.9280   41.7680 O   0  0  0  0  0  0  0  0  0  0  0  0
   35.0160   30.2720   39.4620 H   0  0  0  0  0  0  0  0  0  0  0  0
   34.8670   27.8970   40.7500 H   0  0  0  0  0  0  0  0  0  0  0  0
   36.9380   27.7090   42.8270 C   0  0  2  0  0  0  0  0  0  0  0  0
   36.9700   27.9820   44.2610 C   0  0  0  0  0  0  0  0  0  0  0  0
   38.2820   27.9620   43.5620 C   0  0  1  0  0  0  0  0  0  0  0  0
   36.7680   26.6750   42.4840 H   0  0  0  0  0  0  0  0  0  0  0  0
   36.7590   27.1600   44.9900 H   0  0  0  0  0  0  0  0  0  0  0  0
   36.6310   28.9650   44.6870 H   0  0  0  0  0  0  0  0  0  0  0  0
   38.8330   28.8610   43.2780 H   0  0  0  0  0  0  0  0  0  0  0  0
   40.4800   26.8120   43.7140 C   0  0  0  0  0  0  0  0  0  0  0  0
   41.1200   27.8800   43.4870 O   0  0  0  0  0  0  0  0  0  0  0  0
   39.0650   26.7420   43.7330 N   0  0  0  0  0  0  0  0  0  0  0  0
   40.9950   25.8630   43.9130 H   0  0  0  0  0  0  0  0  0  0  0  0
   38.5700   25.8260   43.8680 H   0  0  0  0  0  0  0  0  0  0  0  0
   38.2990   32.0580   39.6540 C   0  0  0  0  0  0  0  0  0  0  0  0
   38.5210   31.0890   38.8720 O   0  0  0  0  0  0  0  0  0  0  0  0
   39.0720   33.2360   39.7950 C   0  0  0  0  0  0  0  0  0  0  0  0
   38.3840   34.3720   40.0770 C   0  0  0  0  0  0  0  0  0  0  0  0
   39.0830   35.5660   40.2290 C   0  0  0  0  0  0  0  0  0  0  0  0
   40.4170   35.5430   40.0870 N   0  0  0  0  0  0  0  0  0  0  0  0
   41.0770   34.4140   39.8090 C   0  0  0  0  0  0  0  0  0  0  0  0
   40.3720   33.2910   39.6730 N   0  0  0  0  0  0  0  0  0  0  0  0
   37.3110   34.4760   40.2070 H   0  0  0  0  0  0  0  0  0  0  0  0
   38.5990   36.5070   40.4530 H   0  0  0  0  0  0  0  0  0  0  0  0
   42.7860   34.4200   42.0160 F   0  0  0  0  0  0  0  0  0  0  0  0
   43.3270   34.3070   40.7660 C   0  0  0  0  0  0  0  0  0  0  0  0
   42.5230   34.2980   39.6390 C   0  0  0  0  0  0  0  0  0  0  0  0
   43.1430   34.1810   38.4120 C   0  0  0  0  0  0  0  0  0  0  0  0
   42.4600   34.1810   37.5650 H   0  0  0  0  0  0  0  0  0  0  0  0
   44.5160   34.0760   38.3290 C   0  0  0  0  0  0  0  0  0  0  0  0
   44.9340   33.9870   37.3340 H   0  0  0  0  0  0  0  0  0  0  0  0
   45.2830   34.0870   39.4750 C   0  0  0  0  0  3  0  0  0  0  0  0
   44.7150   34.2040   40.7330 C   0  0  0  0  0  3  0  0  0  0  0  0
  1  2  1  0  0  0  0
  2  6  1  0  0  0  0
  3  2  2  0  0  0  0
  3  4  1  0  0  0  0
  4  5  2  0  0  0  0
  5  9  1  0  0  0  0
  6  5  1  0  0  0  0
  7  3  1  0  0  0  0
  8  4  1  0  0  0  0
  9 12  1  6  0  0  0
  9 11  1  0  0  0  0
  9 10  1  0  0  0  0
 10 14  1  0  0  0  0
 10 13  1  0  0  0  0
 11 15  1  6  0  0  0
 11 18  1  0  0  0  0
 11 10  1  0  0  0  0
 16 18  1  0  0  0  0
 16 19  1  0  0  0  0
 17 16  2  0  0  0  0
 18 20  1  0  0  0  0
 21 23  1  0  0  0  0
 21  1  1  0  0  0  0
 22 21  2  0  0  0  0
 23 24  1  0  0  0  0
 24 29  1  0  0  0  0
 24 25  2  0  0  0  0
 25 30  1  0  0  0  0
 26 25  1  0  0  0  0
 27 26  2  0  0  0  0
 28 23  2  0  0  0  0
 28 27  1  0  0  0  0
 32 31  1  0  0  0  0
 33 27  1  0  0  0  0
 33 32  2  0  0  0  0
 34 33  1  0  0  0  0
 35 34  1  0  0  0  0
 36 34  2  0  0  0  0
 36 38  1  0  0  0  0
 37 36  1  0  0  0  0
 38 39  2  0  0  0  0
 39 32  1  0  0  0  0
M  END
>  <minimizedAffinity>
-6.63346529

$$$$

 OpenBabel03242518413D

 39 42  0  0  1  0  0  0  0  0999 V2000
   38.7010   32.6870   41.1060 O   0  0  0  0  0  0  0  0  0  0  0  0
   39.4970   33.7040   40.5180 C   0  0  0  0  0  0  0  0  0  0  0  0
   39.5360   35.0910   40.7110 C   0  0  0  0  0  0  0  0  0  0  0  0
   40.5010   35.6300   39.8830 C   0  0  0  0  0  0  0  0  0  0  0  0
   41.0040   34.5540   39.2270 C   0  0  0  0  0  0  0  0  0  0  0  0
   40.4140   33.4240   39.6000 O   0  0  0  0  0  0  0  0  0  0  0  0
   38.8600   35.5620   41.4320 H   0  0  0  0  0  0  0  0  0  0  0  0
   40.7360   36.6790   39.8330 H   0  0  0  0  0  0  0  0  0  0  0  0
   42.0780   34.6250   38.2150 C   0  0  2  0  0  0  0  0  0  0  0  0
   42.5770   33.4190   37.5590 C   0  0  0  0  0  0  0  0  0  0  0  0
   43.4020   33.9560   38.6730 C   0  0  1  0  0  0  0  0  0  0  0  0
   42.1850   35.5950   37.7020 H   0  0  0  0  0  0  0  0  0  0  0  0
   42.9980   33.4810   36.5250 H   0  0  0  0  0  0  0  0  0  0  0  0
   42.0950   32.4160   37.7160 H   0  0  0  0  0  0  0  0  0  0  0  0
   43.4140   33.5330   39.6790 H   0  0  0  0  0  0  0  0  0  0  0  0
   45.8180   34.4880   38.9260 C   0  0  0  0  0  0  0  0  0  0  0  0
   45.9490   33.6990   39.9060 O   0  0  0  0  0  0  0  0  0  0  0  0
   44.5820   34.7150   38.2690 N   0  0  0  0  0  0  0  0  0  0  0  0
   46.6690   35.0510   38.5210 H   0  0  0  0  0  0  0  0  0  0  0  0
   44.5020   35.4200   37.4950 H   0  0  0  0  0  0  0  0  0  0  0  0
   37.6370   32.1380   40.3470 C   0  0  0  0  0  0  0  0  0  0  0  0
   37.1340   32.8890   39.4630 O   0  0  0  0  0  0  0  0  0  0  0  0
   37.2510   30.8110   40.6600 C   0  0  0  0  0  0  0  0  0  0  0  0
   35.9550   30.4910   40.4130 C   0  0  0  0  0  0  0  0  0  0  0  0
   35.5100   29.2040   40.6970 C   0  0  0  0  0  0  0  0  0  0  0  0
   36.3880   28.3280   41.2080 N   0  0  0  0  0  0  0  0  0  0  0  0
   37.6600   28.6610   41.4450 C   0  0  0  0  0  0  0  0  0  0  0  0
   38.0480   29.9040   41.1580 N   0  0  0  0  0  0  0  0  0  0  0  0
   35.1850   31.1380   40.0030 H   0  0  0  0  0  0  0  0  0  0  0  0
   34.4910   28.8820   40.5260 H   0  0  0  0  0  0  0  0  0  0  0  0
   37.7240   28.0700   44.1720 F   0  0  0  0  0  0  0  0  0  0  0  0
   38.6680   27.5120   43.3570 C   0  0  0  0  0  0  0  0  0  0  0  0
   38.6800   27.7730   41.9970 C   0  0  0  0  0  0  0  0  0  0  0  0
   39.6650   27.1730   41.2390 C   0  0  0  0  0  0  0  0  0  0  0  0
   39.6230   27.4160   40.1800 H   0  0  0  0  0  0  0  0  0  0  0  0
   40.5960   26.3460   41.8310 C   0  0  0  0  0  0  0  0  0  0  0  0
   41.3400   25.9090   41.1770 H   0  0  0  0  0  0  0  0  0  0  0  0
   40.5510   26.1090   43.1890 C   0  0  0  0  0  3  0  0  0  0  0  0
   39.5860   26.6850   43.9990 C   0  0  0  0  0  3  0  0  0  0  0  0
  2  3  2  0  0  0  0
  2  1  1  0  0  0  0
  3  7  1  0  0  0  0
  4  3  1  0  0  0  0
  5  6  1  0  0  0  0
  5  4  2  0  0  0  0
  6  2  1  0  0  0  0
  8  4  1  0  0  0  0
  9 12  1  6  0  0  0
  9 11  1  0  0  0  0
  9  5  1  0  0  0  0
 10 14  1  0  0  0  0
 10  9  1  0  0  0  0
 10 11  1  0  0  0  0
 11 15  1  1  0  0  0
 13 10  1  0  0  0  0
 16 17  2  0  0  0  0
 18 11  1  0  0  0  0
 18 16  1  0  0  0  0
 19 16  1  0  0  0  0
 20 18  1  0  0  0  0
 21 23  1  0  0  0  0
 21  1  1  0  0  0  0
 22 21  2  0  0  0  0
 23 28  1  0  0  0  0
 24 23  2  0  0  0  0
 24 25  1  0  0  0  0
 25 26  2  0  0  0  0
 26 27  1  0  0  0  0
 27 33  1  0  0  0  0
 28 27  2  0  0  0  0
 29 24  1  0  0  0  0
 30 25  1  0  0  0  0
 32 39  1  0  0  0  0
 32 31  1  0  0  0  0
 33 32  2  0  0  0  0
 34 36  2  0  0  0  0
 34 33  1  0  0  0  0
 35 34  1  0  0  0  0
 36 38  1  0  0  0  0
 37 36  1  0  0  0  0
 38 39  2  0  0  0  0
M  END
>  <minimizedAffinity>
-6.58257914

$$$$

 OpenBabel03242518413D

 39 42  0  0  1  0  0  0  0  0999 V2000
   38.3980   29.5920   38.9500 O   0  0  0  0  0  0  0  0  0  0  0  0
   38.1020   30.9600   39.1830 C   0  0  0  0  0  0  0  0  0  0  0  0
   37.0750   31.7880   38.7120 C   0  0  0  0  0  0  0  0  0  0  0  0
   37.2420   33.0510   39.2450 C   0  0  0  0  0  0  0  0  0  0  0  0
   38.3550   32.9370   40.0120 C   0  0  0  0  0  0  0  0  0  0  0  0
   38.8590   31.7090   39.9750 O   0  0  0  0  0  0  0  0  0  0  0  0
   36.3160   31.3870   38.0340 H   0  0  0  0  0  0  0  0  0  0  0  0
   36.5880   33.8820   39.0440 H   0  0  0  0  0  0  0  0  0  0  0  0
   38.9420   34.0440   40.7950 C   0  0  2  0  0  0  0  0  0  0  0  0
   39.0400   35.3910   40.2390 C   0  0  0  0  0  0  0  0  0  0  0  0
   40.2800   34.5720   40.2100 C   0  0  1  0  0  0  0  0  0  0  0  0
   38.9150   33.9190   41.8900 H   0  0  0  0  0  0  0  0  0  0  0  0
   39.0200   36.2780   40.9200 H   0  0  0  0  0  0  0  0  0  0  0  0
   38.5800   35.6600   39.2490 H   0  0  0  0  0  0  0  0  0  0  0  0
   40.6560   34.0690   39.3170 H   0  0  0  0  0  0  0  0  0  0  0  0
   42.6390   34.6780   40.9870 C   0  0  0  0  0  0  0  0  0  0  0  0
   43.0770   34.1690   39.9150 O   0  0  0  0  0  0  0  0  0  0  0  0
   41.2600   34.8820   41.2460 N   0  0  0  0  0  0  0  0  0  0  0  0
   43.3150   34.9950   41.7930 H   0  0  0  0  0  0  0  0  0  0  0  0
   40.9330   35.2550   42.1710 H   0  0  0  0  0  0  0  0  0  0  0  0
   37.5340   28.6090   39.4960 C   0  0  0  0  0  0  0  0  0  0  0  0
   36.6760   28.1190   38.7070 O   0  0  0  0  0  0  0  0  0  0  0  0
   37.7230   28.2840   40.8620 C   0  0  0  0  0  0  0  0  0  0  0  0
   36.5960   28.0510   41.5820 C   0  0  0  0  0  0  0  0  0  0  0  0
   36.7100   27.7250   42.9290 C   0  0  0  0  0  0  0  0  0  0  0  0
   37.9380   27.6580   43.4640 N   0  0  0  0  0  0  0  0  0  0  0  0
   39.0370   27.8920   42.7400 C   0  0  0  0  0  0  0  0  0  0  0  0
   38.8860   28.1990   41.4510 N   0  0  0  0  0  0  0  0  0  0  0  0
   35.5700   28.0840   41.2270 H   0  0  0  0  0  0  0  0  0  0  0  0
   35.8540   27.5270   43.5620 H   0  0  0  0  0  0  0  0  0  0  0  0
   39.9380   25.7160   44.2380 F   0  0  0  0  0  0  0  0  0  0  0  0
   40.8060   26.7390   43.9780 C   0  0  0  0  0  0  0  0  0  0  0  0
   40.4090   27.8410   43.2390 C   0  0  0  0  0  0  0  0  0  0  0  0
   41.3420   28.8330   43.0180 C   0  0  0  0  0  0  0  0  0  0  0  0
   40.9710   29.6720   42.4320 H   0  0  0  0  0  0  0  0  0  0  0  0
   42.6200   28.7150   43.5220 C   0  0  0  0  0  0  0  0  0  0  0  0
   43.3000   29.5310   43.3100 H   0  0  0  0  0  0  0  0  0  0  0  0
   42.9780   27.6020   44.2530 C   0  0  0  0  0  3  0  0  0  0  0  0
   42.0830   26.5750   44.5060 C   0  0  0  0  0  3  0  0  0  0  0  0
  1  2  1  0  0  0  0
  1 21  1  0  0  0  0
  2  6  1  0  0  0  0
  3  2  2  0  0  0  0
  3  4  1  0  0  0  0
  4  5  2  0  0  0  0
  5  9  1  0  0  0  0
  6  5  1  0  0  0  0
  7  3  1  0  0  0  0
  8  4  1  0  0  0  0
  9 12  1  1  0  0  0
 10  9  1  0  0  0  0
 10 13  1  0  0  0  0
 11 15  1  6  0  0  0
 11 10  1  0  0  0  0
 11  9  1  0  0  0  0
 11 18  1  0  0  0  0
 14 10  1  0  0  0  0
 16 18  1  0  0  0  0
 16 19  1  0  0  0  0
 17 16  2  0  0  0  0
 18 20  1  0  0  0  0
 21 23  1  0  0  0  0
 22 21  2  0  0  0  0
 23 28  2  0  0  0  0
 23 24  1  0  0  0  0
 24 25  2  0  0  0  0
 25 26  1  0  0  0  0
 25 30  1  0  0  0  0
 27 33  1  0  0  0  0
 27 26  2  0  0  0  0
 28 27  1  0  0  0  0
 29 24  1  0  0  0  0
 32 31  1  0  0  0  0
 32 39  1  0  0  0  0
 33 32  2  0  0  0  0
 34 33  1  0  0  0  0
 34 36  2  0  0  0  0
 35 34  1  0  0  0  0
 36 38  1  0  0  0  0
 37 36  1  0  0  0  0
 38 39  2  0  0  0  0
M  END
>  <minimizedAffinity>
-6.46183205

$$$$

 OpenBabel03242518413D

 39 42  0  0  1  0  0  0  0  0999 V2000
   37.4170   31.2570   37.9670 O   0  0  0  0  0  0  0  0  0  0  0  0
   37.8800   32.3200   38.7860 C   0  0  0  0  0  0  0  0  0  0  0  0
   37.2030   33.3400   39.4650 C   0  0  0  0  0  0  0  0  0  0  0  0
   38.1280   34.1260   40.1240 C   0  0  0  0  0  0  0  0  0  0  0  0
   39.3200   33.5530   39.8190 C   0  0  0  0  0  0  0  0  0  0  0  0
   39.1730   32.4930   39.0330 O   0  0  0  0  0  0  0  0  0  0  0  0
   36.1120   33.4050   39.4100 H   0  0  0  0  0  0  0  0  0  0  0  0
   37.8740   34.9830   40.7240 H   0  0  0  0  0  0  0  0  0  0  0  0
   40.6270   34.0460   40.2990 C   0  0  2  0  0  0  0  0  0  0  0  0
   40.8320   35.4590   40.6050 C   0  0  0  0  0  0  0  0  0  0  0  0
   41.3390   34.9870   39.2900 C   0  0  1  0  0  0  0  0  0  0  0  0
   41.2690   33.2950   40.7890 H   0  0  0  0  0  0  0  0  0  0  0  0
   41.5860   35.7590   41.3750 H   0  0  0  0  0  0  0  0  0  0  0  0
   39.9860   36.1990   40.5920 H   0  0  0  0  0  0  0  0  0  0  0  0
   40.8290   35.1640   38.3420 H   0  0  0  0  0  0  0  0  0  0  0  0
   43.3460   34.2330   38.0300 C   0  0  0  0  0  0  0  0  0  0  0  0
   42.6590   33.8990   37.0220 O   0  0  0  0  0  0  0  0  0  0  0  0
   42.7780   34.7480   39.2230 N   0  0  0  0  0  0  0  0  0  0  0  0
   44.4410   34.1430   38.0380 H   0  0  0  0  0  0  0  0  0  0  0  0
   43.3760   34.9610   40.0590 H   0  0  0  0  0  0  0  0  0  0  0  0
   37.8680   29.9420   38.2460 C   0  0  0  0  0  0  0  0  0  0  0  0
   38.7330   29.4670   37.4560 O   0  0  0  0  0  0  0  0  0  0  0  0
   37.3020   29.3020   39.3760 C   0  0  0  0  0  0  0  0  0  0  0  0
   35.9980   29.5820   39.6310 C   0  0  0  0  0  0  0  0  0  0  0  0
   35.3790   28.9860   40.7250 C   0  0  0  0  0  0  0  0  0  0  0  0
   36.1050   28.1560   41.4900 N   0  0  0  0  0  0  0  0  0  0  0  0
   37.3880   27.8940   41.2250 C   0  0  0  0  0  0  0  0  0  0  0  0
   37.9440   28.4830   40.1650 N   0  0  0  0  0  0  0  0  0  0  0  0
   35.3430   30.2380   39.0640 H   0  0  0  0  0  0  0  0  0  0  0  0
   34.3440   29.1640   40.9860 H   0  0  0  0  0  0  0  0  0  0  0  0
   38.7730   28.8320   43.4600 F   0  0  0  0  0  0  0  0  0  0  0  0
   38.9150   27.5210   43.1010 C   0  0  0  0  0  0  0  0  0  0  0  0
   38.2500   27.0060   42.0010 C   0  0  0  0  0  0  0  0  0  0  0  0
   38.4440   25.6730   41.7020 C   0  0  0  0  0  0  0  0  0  0  0  0
   37.8960   25.3270   40.8280 H   0  0  0  0  0  0  0  0  0  0  0  0
   39.2750   24.8950   42.4810 C   0  0  0  0  0  0  0  0  0  0  0  0
   39.3800   23.8580   42.1890 H   0  0  0  0  0  0  0  0  0  0  0  0
   39.9200   25.4440   43.5700 C   0  0  0  0  0  3  0  0  0  0  0  0
   39.7630   26.7760   43.9170 C   0  0  0  0  0  3  0  0  0  0  0  0
  1 21  1  0  0  0  0
  1  2  1  0  0  0  0
  2  6  1  0  0  0  0
  2  3  2  0  0  0  0
  3  4  1  0  0  0  0
  4  8  1  0  0  0  0
  5  4  2  0  0  0  0
  5  9  1  0  0  0  0
  6  5  1  0  0  0  0
  7  3  1  0  0  0  0
  9 10  1  0  0  0  0
  9 12  1  1  0  0  0
 10 13  1  0  0  0  0
 11 15  1  6  0  0  0
 11  9  1  0  0  0  0
 11 10  1  0  0  0  0
 14 10  1  0  0  0  0
 16 19  1  0  0  0  0
 16 18  1  0  0  0  0
 17 16  2  0  0  0  0
 18 11  1  0  0  0  0
 18 20  1  0  0  0  0
 21 23  1  0  0  0  0
 22 21  2  0  0  0  0
 23 24  2  0  0  0  0
 23 28  1  0  0  0  0
 24 25  1  0  0  0  0
 25 30  1  0  0  0  0
 25 26  2  0  0  0  0
 27 26  1  0  0  0  0
 27 33  1  0  0  0  0
 28 27  2  0  0  0  0
 29 24  1  0  0  0  0
 32 31  1  0  0  0  0
 32 39  1  0  0  0  0
 33 32  2  0  0  0  0
 34 33  1  0  0  0  0
 34 36  2  0  0  0  0
 35 34  1  0  0  0  0
 36 38  1  0  0  0  0
 37 36  1  0  0  0  0
 38 39  2  0  0  0  0
M  END
>  <minimizedAffinity>
-6.45356131

$$$$

 OpenBabel03242518413D

 39 42  0  0  1  0  0  0  0  0999 V2000
   38.0010   31.6310   39.5280 O   0  0  0  0  0  0  0  0  0  0  0  0
   38.6160   32.8910   39.7510 C   0  0  0  0  0  0  0  0  0  0  0  0
   38.0870   34.1430   40.0890 C   0  0  0  0  0  0  0  0  0  0  0  0
   39.1220   35.0520   40.1880 C   0  0  0  0  0  0  0  0  0  0  0  0
   40.2290   34.3180   39.9080 C   0  0  0  0  0  0  0  0  0  0  0  0
   39.9300   33.0490   39.6510 O   0  0  0  0  0  0  0  0  0  0  0  0
   37.0080   34.2630   40.2270 H   0  0  0  0  0  0  0  0  0  0  0  0
   38.9920   36.0910   40.4370 H   0  0  0  0  0  0  0  0  0  0  0  0
   41.6030   34.8590   39.8880 C   0  0  2  0  0  0  0  0  0  0  0  0
   42.7620   33.9720   39.8340 C   0  0  0  0  0  0  0  0  0  0  0  0
   42.4150   34.5280   41.1690 C   0  0  1  0  0  0  0  0  0  0  0  0
   41.7030   35.8910   39.5120 H   0  0  0  0  0  0  0  0  0  0  0  0
   43.7100   34.3230   39.3570 H   0  0  0  0  0  0  0  0  0  0  0  0
   42.6530   32.8620   39.6980 H   0  0  0  0  0  0  0  0  0  0  0  0
   41.8960   33.9640   41.9460 H   0  0  0  0  0  0  0  0  0  0  0  0
   44.2570   35.4270   42.5770 C   0  0  0  0  0  0  0  0  0  0  0  0
   44.4540   34.3090   43.1350 O   0  0  0  0  0  0  0  0  0  0  0  0
   43.2400   35.6480   41.6140 N   0  0  0  0  0  0  0  0  0  0  0  0
   44.8730   36.3050   42.8110 H   0  0  0  0  0  0  0  0  0  0  0  0
   43.0700   36.6040   41.2150 H   0  0  0  0  0  0  0  0  0  0  0  0
   37.3920   30.9720   40.6250 C   0  0  0  0  0  0  0  0  0  0  0  0
   36.2120   31.3290   40.9070 O   0  0  0  0  0  0  0  0  0  0  0  0
   38.1670   29.9890   41.2870 C   0  0  0  0  0  0  0  0  0  0  0  0
   39.1740   30.4500   42.0720 C   0  0  0  0  0  0  0  0  0  0  0  0
   39.9740   29.5370   42.7520 C   0  0  0  0  0  0  0  0  0  0  0  0
   39.7150   28.2290   42.5990 N   0  0  0  0  0  0  0  0  0  0  0  0
   38.7200   27.7940   41.8200 C   0  0  0  0  0  0  0  0  0  0  0  0
   37.9740   28.7000   41.1870 N   0  0  0  0  0  0  0  0  0  0  0  0
   39.4480   31.4860   42.2490 H   0  0  0  0  0  0  0  0  0  0  0  0
   40.7930   29.8340   43.3930 H   0  0  0  0  0  0  0  0  0  0  0  0
   36.5290   26.6420   43.1100 F   0  0  0  0  0  0  0  0  0  0  0  0
   37.2720   25.8700   42.2620 C   0  0  0  0  0  0  0  0  0  0  0  0
   38.3680   26.3930   41.5970 C   0  0  0  0  0  0  0  0  0  0  0  0
   39.0690   25.5520   40.7580 C   0  0  0  0  0  0  0  0  0  0  0  0
   39.9190   26.0200   40.2650 H   0  0  0  0  0  0  0  0  0  0  0  0
   38.6780   24.2400   40.5970 C   0  0  0  0  0  0  0  0  0  0  0  0
   39.2740   23.6370   39.9240 H   0  0  0  0  0  0  0  0  0  0  0  0
   37.5800   23.7550   41.2760 C   0  0  0  0  0  3  0  0  0  0  0  0
   36.8390   24.5530   42.1320 C   0  0  0  0  0  3  0  0  0  0  0  0
  1  2  1  0  0  0  0
  1 21  1  0  0  0  0
  2  3  2  0  0  0  0
  3  4  1  0  0  0  0
  3  7  1  0  0  0  0
  4  8  1  0  0  0  0
  5  4  2  0  0  0  0
  6  2  1  0  0  0  0
  6  5  1  0  0  0  0
  9 12  1  6  0  0  0
  9  5  1  0  0  0  0
  9 11  1  0  0  0  0
 10  9  1  0  0  0  0
 10 11  1  0  0  0  0
 11 18  1  0  0  0  0
 11 15  1  1  0  0  0
 13 10  1  0  0  0  0
 14 10  1  0  0  0  0
 16 19  1  0  0  0  0
 16 17  2  0  0  0  0
 18 16  1  0  0  0  0
 20 18  1  0  0  0  0
 21 22  2  0  0  0  0
 21 23  1  0  0  0  0
 23 24  1  0  0  0  0
 24 29  1  0  0  0  0
 24 25  2  0  0  0  0
 25 30  1  0  0  0  0
 26 25  1  0  0  0  0
 27 26  2  0  0  0  0
 28 23  2  0  0  0  0
 28 27  1  0  0  0  0
 32 31  1  0  0  0  0
 33 27  1  0  0  0  0
 33 32  2  0  0  0  0
 34 33  1  0  0  0  0
 35 34  1  0  0  0  0
 36 34  2  0  0  0  0
 36 38  1  0  0  0  0
 37 36  1  0  0  0  0
 38 39  2  0  0  0  0
 39 32  1  0  0  0  0
M  END
>  <minimizedAffinity>
-6.37245083

$$$$

 OpenBabel03242518413D

 39 42  0  0  1  0  0  0  0  0999 V2000
   36.3100   27.9530   42.3400 O   0  0  0  0  0  0  0  0  0  0  0  0
   36.4880   28.8990   41.2970 C   0  0  0  0  0  0  0  0  0  0  0  0
   36.5820   28.7520   39.9070 C   0  0  0  0  0  0  0  0  0  0  0  0
   36.7550   29.9990   39.3380 C   0  0  0  0  0  0  0  0  0  0  0  0
   36.7580   30.8440   40.4000 C   0  0  0  0  0  0  0  0  0  0  0  0
   36.6010   30.1970   41.5490 O   0  0  0  0  0  0  0  0  0  0  0  0
   36.5160   27.7570   39.4560 H   0  0  0  0  0  0  0  0  0  0  0  0
   36.8550   30.1710   38.2800 H   0  0  0  0  0  0  0  0  0  0  0  0
   36.9170   32.3090   40.2960 C   0  0  2  0  0  0  0  0  0  0  0  0
   37.5740   32.9140   39.1400 C   0  0  0  0  0  0  0  0  0  0  0  0
   38.3960   32.7740   40.3700 C   0  0  1  0  0  0  0  0  0  0  0  0
   36.1970   32.9090   40.8760 H   0  0  0  0  0  0  0  0  0  0  0  0
   37.2930   33.9480   38.8190 H   0  0  0  0  0  0  0  0  0  0  0  0
   37.8820   32.3070   38.2460 H   0  0  0  0  0  0  0  0  0  0  0  0
   39.1480   31.9960   40.5140 H   0  0  0  0  0  0  0  0  0  0  0  0
   39.4500   35.0020   40.7060 C   0  0  0  0  0  0  0  0  0  0  0  0
   40.1760   34.8780   39.6770 O   0  0  0  0  0  0  0  0  0  0  0  0
   38.5600   33.9940   41.1560 N   0  0  0  0  0  0  0  0  0  0  0  0
   39.4680   35.9130   41.3180 H   0  0  0  0  0  0  0  0  0  0  0  0
   38.0160   34.1110   42.0470 H   0  0  0  0  0  0  0  0  0  0  0  0
   37.3400   27.8070   43.3040 C   0  0  0  0  0  0  0  0  0  0  0  0
   37.3010   28.6000   44.2880 O   0  0  0  0  0  0  0  0  0  0  0  0
   38.2980   26.7920   43.0620 C   0  0  0  0  0  0  0  0  0  0  0  0
   39.3890   26.7950   43.8700 C   0  0  0  0  0  0  0  0  0  0  0  0
   40.3690   25.8250   43.6880 C   0  0  0  0  0  0  0  0  0  0  0  0
   40.1930   24.9220   42.7110 N   0  0  0  0  0  0  0  0  0  0  0  0
   39.1130   24.9360   41.9240 C   0  0  0  0  0  0  0  0  0  0  0  0
   38.1960   25.8810   42.1320 N   0  0  0  0  0  0  0  0  0  0  0  0
   39.6050   27.4860   44.6800 H   0  0  0  0  0  0  0  0  0  0  0  0
   41.2630   25.7690   44.2950 H   0  0  0  0  0  0  0  0  0  0  0  0
   40.5930   25.0060   39.5580 F   0  0  0  0  0  0  0  0  0  0  0  0
   39.6050   24.0710   39.6870 C   0  0  0  0  0  0  0  0  0  0  0  0
   38.8420   23.9940   40.8400 C   0  0  0  0  0  0  0  0  0  0  0  0
   37.8630   23.0240   40.8960 C   0  0  0  0  0  0  0  0  0  0  0  0
   37.2980   23.0130   41.8250 H   0  0  0  0  0  0  0  0  0  0  0  0
   37.6640   22.1690   39.8320 C   0  0  0  0  0  0  0  0  0  0  0  0
   36.8780   21.4330   39.9440 H   0  0  0  0  0  0  0  0  0  0  0  0
   38.4440   22.2770   38.7000 C   0  0  0  0  0  3  0  0  0  0  0  0
   39.4410   23.2320   38.5880 C   0  0  0  0  0  3  0  0  0  0  0  0
  1 21  1  0  0  0  0
  2  6  1  0  0  0  0
  2  1  1  0  0  0  0
  3  2  2  0  0  0  0
  4  3  1  0  0  0  0
  4  5  2  0  0  0  0
  5  6  1  0  0  0  0
  7  3  1  0  0  0  0
  8  4  1  0  0  0  0
  9 11  1  0  0  0  0
  9  5  1  0  0  0  0
  9 12  1  1  0  0  0
 10  9  1  0  0  0  0
 10 11  1  0  0  0  0
 11 15  1  1  0  0  0
 11 18  1  0  0  0  0
 13 10  1  0  0  0  0
 14 10  1  0  0  0  0
 16 18  1  0  0  0  0
 16 19  1  0  0  0  0
 17 16  2  0  0  0  0
 18 20  1  0  0  0  0
 21 22  2  0  0  0  0
 23 21  1  0  0  0  0
 23 24  1  0  0  0  0
 24 29  1  0  0  0  0
 25 24  2  0  0  0  0
 25 30  1  0  0  0  0
 26 25  1  0  0  0  0
 27 28  1  0  0  0  0
 27 26  2  0  0  0  0
 28 23  2  0  0  0  0
 31 32  1  0  0  0  0
 32 33  1  0  0  0  0
 33 34  2  0  0  0  0
 33 27  1  0  0  0  0
 34 35  1  0  0  0  0
 36 37  1  0  0  0  0
 36 34  1  0  0  0  0
 38 36  2  0  0  0  0
 39 38  1  0  0  0  0
 39 32  2  0  0  0  0
M  END
>  <minimizedAffinity>
-6.36039925

$$$$

 OpenBabel03242518413D

 39 42  0  0  1  0  0  0  0  0999 V2000
   37.3810   25.2200   38.7500 O   0  0  0  0  0  0  0  0  0  0  0  0
   37.2590   25.2490   40.1640 C   0  0  0  0  0  0  0  0  0  0  0  0
   36.7550   24.3160   41.0790 C   0  0  0  0  0  0  0  0  0  0  0  0
   36.8650   24.8360   42.3530 C   0  0  0  0  0  0  0  0  0  0  0  0
   37.4280   26.0560   42.1600 C   0  0  0  0  0  0  0  0  0  0  0  0
   37.6590   26.2970   40.8740 O   0  0  0  0  0  0  0  0  0  0  0  0
   36.3620   23.3580   40.7230 H   0  0  0  0  0  0  0  0  0  0  0  0
   36.5500   24.3220   43.2450 H   0  0  0  0  0  0  0  0  0  0  0  0
   37.7460   27.0060   43.2450 C   0  0  2  0  0  0  0  0  0  0  0  0
   36.6870   27.6570   44.0100 C   0  0  0  0  0  0  0  0  0  0  0  0
   37.3160   28.4650   42.9330 C   0  0  1  0  0  0  0  0  0  0  0  0
   38.7420   26.8890   43.7040 H   0  0  0  0  0  0  0  0  0  0  0  0
   36.8740   27.9680   45.0680 H   0  0  0  0  0  0  0  0  0  0  0  0
   35.6050   27.3830   43.8800 H   0  0  0  0  0  0  0  0  0  0  0  0
   36.8560   28.6420   41.9590 H   0  0  0  0  0  0  0  0  0  0  0  0
   39.2690   29.9310   42.4640 C   0  0  0  0  0  0  0  0  0  0  0  0
   39.3760   29.5070   41.2770 O   0  0  0  0  0  0  0  0  0  0  0  0
   38.3000   29.4470   43.3790 N   0  0  0  0  0  0  0  0  0  0  0  0
   39.9310   30.7130   42.8590 H   0  0  0  0  0  0  0  0  0  0  0  0
   38.2800   29.7830   44.3730 H   0  0  0  0  0  0  0  0  0  0  0  0
   36.1990   25.2400   37.9690 C   0  0  0  0  0  0  0  0  0  0  0  0
   35.8300   24.1320   37.4840 O   0  0  0  0  0  0  0  0  0  0  0  0
   35.5600   26.4950   37.8140 C   0  0  0  0  0  0  0  0  0  0  0  0
   34.3890   26.4890   37.1270 C   0  0  0  0  0  0  0  0  0  0  0  0
   33.7080   27.6870   36.9390 C   0  0  0  0  0  0  0  0  0  0  0  0
   34.2440   28.8070   37.4480 N   0  0  0  0  0  0  0  0  0  0  0  0
   35.3990   28.7940   38.1210 C   0  0  0  0  0  0  0  0  0  0  0  0
   36.0200   27.6250   38.2810 N   0  0  0  0  0  0  0  0  0  0  0  0
   33.8900   25.6310   36.6860 H   0  0  0  0  0  0  0  0  0  0  0  0
   32.7720   27.7550   36.4010 H   0  0  0  0  0  0  0  0  0  0  0  0
   35.0530   29.4300   40.8160 F   0  0  0  0  0  0  0  0  0  0  0  0
   35.8470   30.2340   40.0490 C   0  0  0  0  0  0  0  0  0  0  0  0
   36.0520   29.9620   38.7070 C   0  0  0  0  0  0  0  0  0  0  0  0
   36.8670   30.8200   37.9970 C   0  0  0  0  0  0  0  0  0  0  0  0
   36.9900   30.5550   36.9490 H   0  0  0  0  0  0  0  0  0  0  0  0
   37.4500   31.9040   38.6180 C   0  0  0  0  0  0  0  0  0  0  0  0
   38.0780   32.5350   38.0010 H   0  0  0  0  0  0  0  0  0  0  0  0
   37.2230   32.1420   39.9580 C   0  0  0  0  0  3  0  0  0  0  0  0
   36.4130   31.3150   40.7190 C   0  0  0  0  0  3  0  0  0  0  0  0
  1  2  1  0  0  0  0
  2  6  1  0  0  0  0
  2  3  2  0  0  0  0
  3  4  1  0  0  0  0
  4  8  1  0  0  0  0
  5  4  2  0  0  0  0
  5  9  1  0  0  0  0
  6  5  1  0  0  0  0
  7  3  1  0  0  0  0
  9 12  1  1  0  0  0
  9 10  1  0  0  0  0
 10 13  1  0  0  0  0
 11 15  1  6  0  0  0
 11  9  1  0  0  0  0
 11 18  1  0  0  0  0
 11 10  1  0  0  0  0
 14 10  1  0  0  0  0
 16 19  1  0  0  0  0
 16 18  1  0  0  0  0
 17 16  2  0  0  0  0
 18 20  1  0  0  0  0
 21  1  1  0  0  0  0
 22 21  2  0  0  0  0
 23 21  1  0  0  0  0
 23 28  1  0  0  0  0
 24 23  2  0  0  0  0
 25 24  1  0  0  0  0
 25 26  2  0  0  0  0
 26 27  1  0  0  0  0
 27 28  2  0  0  0  0
 27 33  1  0  0  0  0
 29 24  1  0  0  0  0
 30 25  1  0  0  0  0
 32 39  1  0  0  0  0
 32 31  1  0  0  0  0
 33 32  2  0  0  0  0
 34 36  2  0  0  0  0
 34 33  1  0  0  0  0
 35 34  1  0  0  0  0
 36 38  1  0  0  0  0
 37 36  1  0  0  0  0
 38 39  2  0  0  0  0
M  END
>  <minimizedAffinity>
-6.0986414

$$$$

 OpenBabel03242518413D

 39 42  0  0  1  0  0  0  0  0999 V2000
   36.6490   30.0250   41.9820 O   0  0  0  0  0  0  0  0  0  0  0  0
   37.2160   28.7670   42.3150 C   0  0  0  0  0  0  0  0  0  0  0  0
   38.4100   28.4190   42.9590 C   0  0  0  0  0  0  0  0  0  0  0  0
   38.4910   27.0420   43.0360 C   0  0  0  0  0  0  0  0  0  0  0  0
   37.3490   26.6150   42.4380 C   0  0  0  0  0  0  0  0  0  0  0  0
   36.6020   27.6280   42.0160 O   0  0  0  0  0  0  0  0  0  0  0  0
   39.0930   29.2010   43.3050 H   0  0  0  0  0  0  0  0  0  0  0  0
   39.3110   26.5100   43.4850 H   0  0  0  0  0  0  0  0  0  0  0  0
   36.9790   25.1950   42.2730 C   0  0  2  0  0  0  0  0  0  0  0  0
   38.0000   24.1660   42.0950 C   0  0  0  0  0  0  0  0  0  0  0  0
   37.3080   24.6310   40.8650 C   0  0  1  0  0  0  0  0  0  0  0  0
   35.9970   24.9080   42.6860 H   0  0  0  0  0  0  0  0  0  0  0  0
   37.8020   23.1200   42.4370 H   0  0  0  0  0  0  0  0  0  0  0  0
   39.0960   24.3960   42.1850 H   0  0  0  0  0  0  0  0  0  0  0  0
   37.7460   25.3290   40.1480 H   0  0  0  0  0  0  0  0  0  0  0  0
   36.5650   22.8400   39.3090 C   0  0  0  0  0  0  0  0  0  0  0  0
   37.6870   22.8010   38.7250 O   0  0  0  0  0  0  0  0  0  0  0  0
   36.2650   23.7440   40.3590 N   0  0  0  0  0  0  0  0  0  0  0  0
   35.7460   22.1640   39.0300 H   0  0  0  0  0  0  0  0  0  0  0  0
   35.3040   23.7840   40.7800 H   0  0  0  0  0  0  0  0  0  0  0  0
   36.1490   30.2160   40.6700 C   0  0  0  0  0  0  0  0  0  0  0  0
   34.9930   29.7580   40.4400 O   0  0  0  0  0  0  0  0  0  0  0  0
   36.9940   30.8960   39.7600 C   0  0  0  0  0  0  0  0  0  0  0  0
   36.8930   30.5240   38.4580 C   0  0  0  0  0  0  0  0  0  0  0  0
   37.6950   31.1530   37.5100 C   0  0  0  0  0  0  0  0  0  0  0  0
   38.5420   32.1070   37.9280 N   0  0  0  0  0  0  0  0  0  0  0  0
   38.6280   32.4590   39.2140 C   0  0  0  0  0  0  0  0  0  0  0  0
   37.8410   31.8340   40.0920 N   0  0  0  0  0  0  0  0  0  0  0  0
   36.2370   29.7670   38.0390 H   0  0  0  0  0  0  0  0  0  0  0  0
   37.6660   30.9070   36.4570 H   0  0  0  0  0  0  0  0  0  0  0  0
   41.3500   31.9520   39.5680 F   0  0  0  0  0  0  0  0  0  0  0  0
   40.8610   33.1810   39.9110 C   0  0  0  0  0  0  0  0  0  0  0  0
   39.5180   33.4830   39.7550 C   0  0  0  0  0  0  0  0  0  0  0  0
   39.0990   34.7450   40.1240 C   0  0  0  0  0  0  0  0  0  0  0  0
   38.0360   34.9220   39.9790 H   0  0  0  0  0  0  0  0  0  0  0  0
   39.9990   35.6610   40.6290 C   0  0  0  0  0  0  0  0  0  0  0  0
   39.6010   36.6310   40.8970 H   0  0  0  0  0  0  0  0  0  0  0  0
   41.3280   35.3230   40.7690 C   0  0  0  0  0  3  0  0  0  0  0  0
   41.8050   34.0710   40.4150 C   0  0  0  0  0  3  0  0  0  0  0  0
  1  2  1  0  0  0  0
  2  3  2  0  0  0  0
  3  4  1  0  0  0  0
  3  7  1  0  0  0  0
  4  8  1  0  0  0  0
  5  4  2  0  0  0  0
  6  2  1  0  0  0  0
  6  5  1  0  0  0  0
  9  5  1  0  0  0  0
  9 12  1  1  0  0  0
 10 14  1  0  0  0  0
 10  9  1  0  0  0  0
 10 13  1  0  0  0  0
 11 15  1  6  0  0  0
 11 10  1  0  0  0  0
 11  9  1  0  0  0  0
 16 18  1  0  0  0  0
 17 16  2  0  0  0  0
 18 20  1  0  0  0  0
 18 11  1  0  0  0  0
 19 16  1  0  0  0  0
 21  1  1  0  0  0  0
 22 21  2  0  0  0  0
 23 28  1  0  0  0  0
 23 21  1  0  0  0  0
 24 23  2  0  0  0  0
 25 26  2  0  0  0  0
 25 24  1  0  0  0  0
 26 27  1  0  0  0  0
 27 33  1  0  0  0  0
 27 28  2  0  0  0  0
 29 24  1  0  0  0  0
 30 25  1  0  0  0  0
 31 32  1  0  0  0  0
 32 39  1  0  0  0  0
 33 32  2  0  0  0  0
 33 34  1  0  0  0  0
 34 36  2  0  0  0  0
 35 34  1  0  0  0  0
 36 38  1  0  0  0  0
 36 37  1  0  0  0  0
 39 38  2  0  0  0  0
M  END
>  <minimizedAffinity>
-6.07142115

$$$$

 OpenBabel03242518413D

 39 42  0  0  1  0  0  0  0  0999 V2000
   37.5060   31.7820   40.8190 O   0  0  0  0  0  0  0  0  0  0  0  0
   38.1780   30.7940   41.5850 C   0  0  0  0  0  0  0  0  0  0  0  0
   39.4980   30.7040   42.0450 C   0  0  0  0  0  0  0  0  0  0  0  0
   39.6440   29.5270   42.7530 C   0  0  0  0  0  0  0  0  0  0  0  0
   38.4140   28.9560   42.6940 C   0  0  0  0  0  0  0  0  0  0  0  0
   37.5550   29.7010   42.0090 O   0  0  0  0  0  0  0  0  0  0  0  0
   40.2130   31.5010   41.8160 H   0  0  0  0  0  0  0  0  0  0  0  0
   40.5630   29.2110   43.2160 H   0  0  0  0  0  0  0  0  0  0  0  0
   38.0680   27.6620   43.3150 C   0  0  2  0  0  0  0  0  0  0  0  0
   39.1090   26.7340   43.7520 C   0  0  0  0  0  0  0  0  0  0  0  0
   38.4610   26.4370   42.4470 C   0  0  1  0  0  0  0  0  0  0  0  0
   37.0750   27.6120   43.7910 H   0  0  0  0  0  0  0  0  0  0  0  0
   38.9100   26.0330   44.6000 H   0  0  0  0  0  0  0  0  0  0  0  0
   40.1980   27.0110   43.7320 H   0  0  0  0  0  0  0  0  0  0  0  0
   38.9190   26.6490   41.4790 H   0  0  0  0  0  0  0  0  0  0  0  0
   37.7100   24.1480   41.8290 C   0  0  0  0  0  0  0  0  0  0  0  0
   38.7590   23.9220   41.1590 O   0  0  0  0  0  0  0  0  0  0  0  0
   37.4510   25.3830   42.4740 N   0  0  0  0  0  0  0  0  0  0  0  0
   36.9280   23.3870   41.9500 H   0  0  0  0  0  0  0  0  0  0  0  0
   36.5420   25.5530   42.9730 H   0  0  0  0  0  0  0  0  0  0  0  0
   38.1030   32.2230   39.6120 C   0  0  0  0  0  0  0  0  0  0  0  0
   37.8090   31.5680   38.5700 O   0  0  0  0  0  0  0  0  0  0  0  0
   38.9610   33.3460   39.7000 C   0  0  0  0  0  0  0  0  0  0  0  0
   38.3770   34.5180   40.0580 C   0  0  0  0  0  0  0  0  0  0  0  0
   39.1640   35.6610   40.1650 C   0  0  0  0  0  0  0  0  0  0  0  0
   40.4760   35.5550   39.9040 N   0  0  0  0  0  0  0  0  0  0  0  0
   41.0330   34.3920   39.5520 C   0  0  0  0  0  0  0  0  0  0  0  0
   40.2460   33.3190   39.4620 N   0  0  0  0  0  0  0  0  0  0  0  0
   37.3290   34.6880   40.2860 H   0  0  0  0  0  0  0  0  0  0  0  0
   38.7650   36.6270   40.4450 H   0  0  0  0  0  0  0  0  0  0  0  0
   42.9470   34.3990   41.5830 F   0  0  0  0  0  0  0  0  0  0  0  0
   43.3570   34.1990   40.2960 C   0  0  0  0  0  0  0  0  0  0  0  0
   42.4480   34.1870   39.2510 C   0  0  0  0  0  0  0  0  0  0  0  0
   42.9380   33.9790   37.9780 C   0  0  0  0  0  0  0  0  0  0  0  0
   42.1770   33.9800   37.2010 H   0  0  0  0  0  0  0  0  0  0  0  0
   44.2880   33.7930   37.7710 C   0  0  0  0  0  0  0  0  0  0  0  0
   44.6030   33.6360   36.7470 H   0  0  0  0  0  0  0  0  0  0  0  0
   45.1630   33.8120   38.8370 C   0  0  0  0  0  3  0  0  0  0  0  0
   44.7280   34.0160   40.1360 C   0  0  0  0  0  3  0  0  0  0  0  0
  1  2  1  0  0  0  0
  2  6  1  0  0  0  0
  2  3  2  0  0  0  0
  3  4  1  0  0  0  0
  4  8  1  0  0  0  0
  5  4  2  0  0  0  0
  5  9  1  0  0  0  0
  6  5  1  0  0  0  0
  7  3  1  0  0  0  0
  9 10  1  0  0  0  0
  9 12  1  1  0  0  0
 10 13  1  0  0  0  0
 11 15  1  6  0  0  0
 11 18  1  0  0  0  0
 11  9  1  0  0  0  0
 11 10  1  0  0  0  0
 14 10  1  0  0  0  0
 16 19  1  0  0  0  0
 16 18  1  0  0  0  0
 17 16  2  0  0  0  0
 18 20  1  0  0  0  0
 21 23  1  0  0  0  0
 21  1  1  0  0  0  0
 22 21  2  0  0  0  0
 23 24  1  0  0  0  0
 24 25  2  0  0  0  0
 24 29  1  0  0  0  0
 25 30  1  0  0  0  0
 26 25  1  0  0  0  0
 27 26  2  0  0  0  0
 28 27  1  0  0  0  0
 28 23  2  0  0  0  0
 32 31  1  0  0  0  0
 33 27  1  0  0  0  0
 33 32  2  0  0  0  0
 34 33  1  0  0  0  0
 35 34  1  0  0  0  0
 36 34  2  0  0  0  0
 36 38  1  0  0  0  0
 37 36  1  0  0  0  0
 38 39  2  0  0  0  0
 39 32  1  0  0  0  0
M  END
>  <minimizedAffinity>
-5.98536682

$$$$
