
 OpenBabel03252509213D

 25 27  0  0  0  0  0  0  0  0999 V2000
   45.0410   34.2330   43.7080 C   0  0  0  0  0  0  0  0  0  0  0  0
   44.9360   34.1660   42.2750 C   0  0  0  0  0  0  0  0  0  0  0  0
   46.1290   33.9670   41.6040 C   0  0  0  0  0  0  0  0  0  0  0  0
   47.3340   33.8450   42.2640 N   0  0  0  0  0  0  0  0  0  0  0  0
   47.3690   33.9170   43.6190 C   0  0  0  0  0  0  0  0  0  0  0  0
   46.2340   34.1090   44.3210 N   0  0  0  0  0  0  0  0  0  0  0  0
   44.1050   34.3860   44.1870 H   0  0  0  0  0  0  0  0  0  0  0  0
   48.3210   33.8170   44.0900 H   0  0  0  0  0  0  0  0  0  0  0  0
   43.2800   31.9480   42.0260 F   0  0  0  0  0  0  0  0  0  0  0  0
   42.8840   33.1390   41.4960 C   0  0  0  0  0  0  0  0  0  0  0  0
   43.6630   34.2960   41.5830 C   0  0  0  0  0  0  0  0  0  0  0  0
   43.1470   35.4390   41.0050 C   0  0  0  0  0  0  0  0  0  0  0  0
   43.7710   36.3210   41.0860 H   0  0  0  0  0  0  0  0  0  0  0  0
   41.9290   35.4350   40.3770 C   0  0  0  0  0  0  0  0  0  0  0  0
   41.5660   36.3670   39.9350 H   0  0  0  0  0  0  0  0  0  0  0  0
   41.1640   34.2760   40.2990 C   0  0  0  0  0  3  0  0  0  0  0  0
   41.6660   33.1250   40.8730 C   0  0  0  0  0  3  0  0  0  0  0  0
   46.0270   33.7900   40.1100 C   0  0  0  0  0  0  0  0  0  0  0  0
   47.4140   33.7590   39.4600 C   0  0  0  0  0  0  0  0  0  0  0  0
   46.4710   32.5280   39.5590 C   0  0  0  0  0  0  0  0  0  0  0  0
   45.4720   34.6210   39.5940 H   0  0  0  0  0  0  0  0  0  0  0  0
   47.5510   34.0960   38.4240 H   0  0  0  0  0  0  0  0  0  0  0  0
   48.2820   33.7660   40.1220 H   0  0  0  0  0  0  0  0  0  0  0  0
   46.8070   31.7480   40.2730 H   0  0  0  0  0  0  0  0  0  0  0  0
   46.0680   32.1220   38.5980 H   0  0  0  0  0  0  0  0  0  0  0  0
  1  7  1  0  0  0  0
  1  6  1  0  0  0  0
  2  1  2  0  0  0  0
  3  4  2  0  0  0  0
  3  2  1  0  0  0  0
  4  5  1  0  0  0  0
  5  8  1  0  0  0  0
  5  6  2  0  0  0  0
 10 11  1  0  0  0  0
 10  9  1  0  0  0  0
 11  2  1  0  0  0  0
 12 13  1  0  0  0  0
 12 11  2  0  0  0  0
 14 12  1  0  0  0  0
 15 14  1  0  0  0  0
 16 14  2  0  0  0  0
 16 17  1  0  0  0  0
 17 10  2  0  0  0  0
 18  3  1  0  0  0  0
 19 20  1  0  0  0  0
 19 18  1  0  0  0  0
 19 23  1  0  0  0  0
 20 18  1  0  0  0  0
 20 24  1  0  0  0  0
 21 18  1  0  0  0  0
 22 19  1  0  0  0  0
 25 20  1  0  0  0  0
M  END
>  <minimizedAffinity>
-3.76731157

>  <minimizedRMSD>
3.32033968

$$$$
