
 OpenBabel03242512523D

 44 48  0  0  1  0  0  0  0  0999 V2000
   47.2050   34.3010   42.6950 N   0  0  0  0  0  0  0  0  0  0  0  0
   48.5530   33.7680   42.5780 C   0  0  0  0  0  0  0  0  0  0  0  0
   49.1190   34.8660   41.7070 C   0  0  0  0  0  0  0  0  0  0  0  0
   48.0980   34.8660   40.5900 C   0  0  0  0  0  0  0  0  0  0  0  0
   46.7890   34.7300   41.3330 C   0  0  1  0  0  0  0  0  0  0  0  0
   48.5620   32.8060   42.0280 H   0  0  0  0  0  0  0  0  0  0  0  0
   49.0220   33.7340   43.5740 H   0  0  0  0  0  0  0  0  0  0  0  0
   48.9830   35.8170   42.2580 H   0  0  0  0  0  0  0  0  0  0  0  0
   50.1480   34.6730   41.3750 H   0  0  0  0  0  0  0  0  0  0  0  0
   48.1640   35.7560   39.9510 H   0  0  0  0  0  0  0  0  0  0  0  0
   48.2200   33.9080   40.0370 H   0  0  0  0  0  0  0  0  0  0  0  0
   46.4160   35.7000   41.4920 H   0  0  0  0  0  0  0  0  0  0  0  0
   45.9490   33.6630   40.8300 C   0  0  0  0  0  0  0  0  0  0  0  0
   46.4560   32.4340   40.5680 N   0  0  0  0  0  0  0  0  0  0  0  0
   45.7430   31.3920   40.0910 C   0  0  0  0  0  0  0  0  0  0  0  0
   44.4350   31.5740   39.8570 N   0  0  0  0  0  0  0  0  0  0  0  0
   43.8910   32.7500   40.0960 C   0  0  0  0  0  0  0  0  0  0  0  0
   42.5360   32.8780   39.8400 C   0  0  0  0  0  0  0  0  0  0  0  0
   41.9590   34.1230   40.0960 C   0  0  0  0  0  0  0  0  0  0  0  0
   42.6380   35.2360   40.5840 C   0  0  0  0  0  0  0  0  0  0  0  0
   43.9840   35.0180   40.8100 C   0  0  0  0  0  0  0  0  0  0  0  0
   44.6070   33.8410   40.5870 C   0  0  0  0  0  0  0  0  0  0  0  0
   46.2330   30.4380   39.9070 H   0  0  0  0  0  0  0  0  0  0  0  0
   41.9430   32.0710   39.4640 H   0  0  0  0  0  0  0  0  0  0  0  0
   40.8830   34.1860   39.8820 H   0  0  0  0  0  0  0  0  0  0  0  0
   42.0970   36.1520   40.7470 H   0  0  0  0  0  0  0  0  0  0  0  0
   44.4840   35.8780   41.1580 H   0  0  0  0  0  0  0  0  0  0  0  0
   44.5920   35.4650   45.0860 C   0  0  0  0  0  0  0  0  0  0  0  0
   45.3750   35.4320   43.9390 C   0  0  0  0  0  0  0  0  0  0  0  0
   46.3440   34.4480   43.8110 C   0  0  0  0  0  0  0  0  0  0  0  0
   46.4810   33.5550   44.8270 N   0  0  0  0  0  0  0  0  0  0  0  0
   45.7090   33.6000   45.9440 C   0  0  0  0  0  0  0  0  0  0  0  0
   44.7610   34.5650   46.0640 N   0  0  0  0  0  0  0  0  0  0  0  0
   43.8320   36.2390   45.1810 H   0  0  0  0  0  0  0  0  0  0  0  0
   45.2490   36.1590   43.1850 H   0  0  0  0  0  0  0  0  0  0  0  0
   47.5530   31.5500   45.7200 F   0  0  0  0  0  0  0  0  0  0  0  0
   46.8120   31.6220   46.8640 C   0  0  0  0  0  0  0  0  0  0  0  0
   45.8940   32.6310   46.9920 C   0  0  0  0  0  0  0  0  0  0  0  0
   45.1620   32.6850   48.1460 C   0  0  0  0  0  0  0  0  0  0  0  0
   44.4100   33.4540   48.3310 H   0  0  0  0  0  0  0  0  0  0  0  0
   45.3550   31.7460   49.1390 C   0  0  0  0  0  0  0  0  0  0  0  0
   44.7730   31.7840   50.0630 H   0  0  0  0  0  0  0  0  0  0  0  0
   46.2800   30.7260   49.0140 C   0  0  0  0  0  0  0  0  0  0  0  0
   47.0230   30.6720   47.8420 C   0  0  0  0  0  0  0  0  0  0  0  0
  1 30  1  0  0  0  0
  2  1  1  0  0  0  0
  2  7  1  0  0  0  0
  3  8  1  0  0  0  0
  3  2  1  0  0  0  0
  4  5  1  0  0  0  0
  4  3  1  0  0  0  0
  5 12  1  1  0  0  0
  5  1  1  0  0  0  0
  6  2  1  0  0  0  0
  9  3  1  0  0  0  0
 10  4  1  0  0  0  0
 11  4  1  0  0  0  0
 13  5  1  0  0  0  0
 14 13  2  0  0  0  0
 15 14  1  0  0  0  0
 16 15  2  0  0  0  0
 16 17  1  0  0  0  0
 17 22  1  0  0  0  0
 18 17  2  0  0  0  0
 18 19  1  0  0  0  0
 19 20  2  0  0  0  0
 20 26  1  0  0  0  0
 20 21  1  0  0  0  0
 21 27  1  0  0  0  0
 22 21  2  0  0  0  0
 22 13  1  0  0  0  0
 23 15  1  0  0  0  0
 24 18  1  0  0  0  0
 25 19  1  0  0  0  0
 28 34  1  0  0  0  0
 28 33  1  0  0  0  0
 29 28  2  0  0  0  0
 30 29  1  0  0  0  0
 30 31  2  0  0  0  0
 31 32  1  0  0  0  0
 32 33  2  0  0  0  0
 32 38  1  0  0  0  0
 35 29  1  0  0  0  0
 36 37  1  0  0  0  0
 37 38  2  0  0  0  0
 37 44  1  0  0  0  0
 38 39  1  0  0  0  0
 39 40  1  0  0  0  0
 39 41  2  0  0  0  0
 41 42  1  0  0  0  0
 43 41  1  0  0  0  0
 44 43  2  0  0  0  0
M  END
>  <minimizedAffinity>
-7.28859901

>  <minimizedRMSD>
0.460814178

$$$$
