
 OpenBabel03242512533D

 44 48  0  0  1  0  0  0  0  0999 V2000
   37.0060   24.5440   39.0780 N   0  0  0  0  0  0  0  0  0  0  0  0
   37.7410   23.4890   38.3980 C   0  0  0  0  0  0  0  0  0  0  0  0
   37.3080   22.3470   39.2890 C   0  0  0  0  0  0  0  0  0  0  0  0
   37.6780   22.9160   40.6410 C   0  0  0  0  0  0  0  0  0  0  0  0
   37.2240   24.3530   40.5370 C   0  0  1  0  0  0  0  0  0  0  0  0
   38.8360   23.6390   38.4820 H   0  0  0  0  0  0  0  0  0  0  0  0
   37.3690   23.3870   37.3670 H   0  0  0  0  0  0  0  0  0  0  0  0
   36.2010   22.3140   39.2540 H   0  0  0  0  0  0  0  0  0  0  0  0
   37.8010   21.3960   39.0500 H   0  0  0  0  0  0  0  0  0  0  0  0
   37.2310   22.3600   41.4750 H   0  0  0  0  0  0  0  0  0  0  0  0
   38.7900   22.9630   40.6810 H   0  0  0  0  0  0  0  0  0  0  0  0
   36.2520   24.4050   40.9320 H   0  0  0  0  0  0  0  0  0  0  0  0
   38.2480   25.3090   40.9040 C   0  0  0  0  0  0  0  0  0  0  0  0
   39.4780   25.2740   40.3370 N   0  0  0  0  0  0  0  0  0  0  0  0
   40.4870   26.1210   40.6290 C   0  0  0  0  0  0  0  0  0  0  0  0
   40.2660   27.0740   41.5470 N   0  0  0  0  0  0  0  0  0  0  0  0
   39.0870   27.1530   42.1290 C   0  0  0  0  0  0  0  0  0  0  0  0
   38.9170   28.1600   43.0650 C   0  0  0  0  0  0  0  0  0  0  0  0
   37.6660   28.2460   43.6790 C   0  0  0  0  0  0  0  0  0  0  0  0
   36.5880   27.4030   43.4250 C   0  0  0  0  0  0  0  0  0  0  0  0
   36.8480   26.4290   42.4790 C   0  0  0  0  0  0  0  0  0  0  0  0
   38.0320   26.2890   41.8440 C   0  0  0  0  0  0  0  0  0  0  0  0
   41.4460   26.0190   40.1240 H   0  0  0  0  0  0  0  0  0  0  0  0
   39.6950   28.8490   43.3170 H   0  0  0  0  0  0  0  0  0  0  0  0
   37.5680   29.0560   44.4150 H   0  0  0  0  0  0  0  0  0  0  0  0
   35.6650   27.5560   43.9560 H   0  0  0  0  0  0  0  0  0  0  0  0
   36.0270   25.7890   42.3160 H   0  0  0  0  0  0  0  0  0  0  0  0
   34.4090   26.5600   37.3200 C   0  0  0  0  0  0  0  0  0  0  0  0
   35.1190   25.4390   37.7310 C   0  0  0  0  0  0  0  0  0  0  0  0
   36.2020   25.6010   38.5830 C   0  0  0  0  0  0  0  0  0  0  0  0
   36.5170   26.8630   38.9770 N   0  0  0  0  0  0  0  0  0  0  0  0
   35.8150   27.9510   38.5670 C   0  0  0  0  0  0  0  0  0  0  0  0
   34.7550   27.7860   37.7330 N   0  0  0  0  0  0  0  0  0  0  0  0
   33.5600   26.4280   36.6510 H   0  0  0  0  0  0  0  0  0  0  0  0
   34.8530   24.4790   37.3820 H   0  0  0  0  0  0  0  0  0  0  0  0
   35.1090   28.8930   41.0700 F   0  0  0  0  0  0  0  0  0  0  0  0
   35.8310   29.7160   40.2560 C   0  0  0  0  0  0  0  0  0  0  0  0
   36.1900   29.2670   39.0130 C   0  0  0  0  0  0  0  0  0  0  0  0
   36.9120   30.1080   38.2130 C   0  0  0  0  0  0  0  0  0  0  0  0
   37.2390   29.8300   37.2100 H   0  0  0  0  0  0  0  0  0  0  0  0
   37.2620   31.3660   38.6600 C   0  0  0  0  0  0  0  0  0  0  0  0
   37.8400   32.0430   38.0260 H   0  0  0  0  0  0  0  0  0  0  0  0
   36.9030   31.8250   39.9140 C   0  0  0  0  0  3  0  0  0  0  0  0
   36.1690   30.9690   40.7250 C   0  0  0  0  0  3  0  0  0  0  0  0
  1  5  1  0  0  0  0
  2  6  1  0  0  0  0
  2  1  1  0  0  0  0
  2  3  1  0  0  0  0
  3  4  1  0  0  0  0
  4 11  1  0  0  0  0
  4 10  1  0  0  0  0
  5  4  1  0  0  0  0
  5 13  1  0  0  0  0
  5 12  1  1  0  0  0
  7  2  1  0  0  0  0
  8  3  1  0  0  0  0
  9  3  1  0  0  0  0
 13 22  1  0  0  0  0
 14 15  1  0  0  0  0
 14 13  2  0  0  0  0
 15 16  2  0  0  0  0
 16 17  1  0  0  0  0
 17 18  1  0  0  0  0
 18 24  1  0  0  0  0
 18 19  2  0  0  0  0
 19 25  1  0  0  0  0
 20 19  1  0  0  0  0
 20 26  1  0  0  0  0
 21 20  2  0  0  0  0
 22 17  2  0  0  0  0
 22 21  1  0  0  0  0
 23 15  1  0  0  0  0
 27 21  1  0  0  0  0
 28 29  2  0  0  0  0
 28 33  1  0  0  0  0
 29 30  1  0  0  0  0
 30 31  2  0  0  0  0
 30  1  1  0  0  0  0
 32 31  1  0  0  0  0
 32 38  1  0  0  0  0
 33 32  2  0  0  0  0
 34 28  1  0  0  0  0
 35 29  1  0  0  0  0
 37 44  1  0  0  0  0
 37 36  1  0  0  0  0
 38 37  2  0  0  0  0
 39 41  2  0  0  0  0
 39 38  1  0  0  0  0
 40 39  1  0  0  0  0
 41 43  1  0  0  0  0
 42 41  1  0  0  0  0
 43 44  2  0  0  0  0
M  END
>  <minimizedAffinity>
-6.84837866

$$$$

 OpenBabel03242512533D

 44 48  0  0  1  0  0  0  0  0999 V2000
   34.8060   28.5870   35.6860 N   0  0  0  0  0  0  0  0  0  0  0  0
   35.4720   28.3320   34.4180 C   0  0  0  0  0  0  0  0  0  0  0  0
   36.0460   26.9790   34.7700 C   0  0  0  0  0  0  0  0  0  0  0  0
   36.7590   27.3250   36.0590 C   0  0  0  0  0  0  0  0  0  0  0  0
   35.7670   28.2230   36.7610 C   0  0  1  0  0  0  0  0  0  0  0  0
   36.2920   29.0550   34.2390 H   0  0  0  0  0  0  0  0  0  0  0  0
   34.7220   28.2780   33.6130 H   0  0  0  0  0  0  0  0  0  0  0  0
   35.1920   26.3300   35.0480 H   0  0  0  0  0  0  0  0  0  0  0  0
   36.7000   26.5650   33.9910 H   0  0  0  0  0  0  0  0  0  0  0  0
   37.0530   26.4390   36.6360 H   0  0  0  0  0  0  0  0  0  0  0  0
   37.6130   27.9870   35.7910 H   0  0  0  0  0  0  0  0  0  0  0  0
   35.1920   27.6180   37.4000 H   0  0  0  0  0  0  0  0  0  0  0  0
   36.3400   29.4760   37.2080 C   0  0  0  0  0  0  0  0  0  0  0  0
   36.9540   30.3170   36.3420 N   0  0  0  0  0  0  0  0  0  0  0  0
   37.5190   31.4950   36.6800 C   0  0  0  0  0  0  0  0  0  0  0  0
   37.4730   31.8720   37.9660 N   0  0  0  0  0  0  0  0  0  0  0  0
   36.8880   31.0910   38.8510 C   0  0  0  0  0  0  0  0  0  0  0  0
   36.8670   31.5340   40.1630 C   0  0  0  0  0  0  0  0  0  0  0  0
   36.2440   30.7080   41.0990 C   0  0  0  0  0  0  0  0  0  0  0  0
   35.6470   29.4830   40.8170 C   0  0  0  0  0  0  0  0  0  0  0  0
   35.7150   29.1200   39.4840 C   0  0  0  0  0  0  0  0  0  0  0  0
   36.2990   29.8700   38.5250 C   0  0  0  0  0  0  0  0  0  0  0  0
   37.9920   32.1100   35.9160 H   0  0  0  0  0  0  0  0  0  0  0  0
   37.3040   32.4640   40.4630 H   0  0  0  0  0  0  0  0  0  0  0  0
   36.2480   31.0920   42.1290 H   0  0  0  0  0  0  0  0  0  0  0  0
   35.1930   28.9220   41.6150 H   0  0  0  0  0  0  0  0  0  0  0  0
   35.2770   28.1810   39.2940 H   0  0  0  0  0  0  0  0  0  0  0  0
   31.6380   29.5440   37.4040 C   0  0  0  0  0  0  0  0  0  0  0  0
   32.9170   29.0250   37.2400 C   0  0  0  0  0  0  0  0  0  0  0  0
   33.5100   29.0760   35.9870 C   0  0  0  0  0  0  0  0  0  0  0  0
   32.8020   29.6360   34.9710 N   0  0  0  0  0  0  0  0  0  0  0  0
   31.5520   30.1390   35.1450 C   0  0  0  0  0  0  0  0  0  0  0  0
   30.9760   30.0870   36.3740 N   0  0  0  0  0  0  0  0  0  0  0  0
   31.1780   29.5020   38.3890 H   0  0  0  0  0  0  0  0  0  0  0  0
   33.4210   28.5790   38.0520 H   0  0  0  0  0  0  0  0  0  0  0  0
   31.2230   32.8750   34.9070 F   0  0  0  0  0  0  0  0  0  0  0  0
   30.6910   32.0790   33.9340 C   0  0  0  0  0  0  0  0  0  0  0  0
   30.8440   30.7220   34.0360 C   0  0  0  0  0  0  0  0  0  0  0  0
   30.3030   29.9420   33.0510 C   0  0  0  0  0  0  0  0  0  0  0  0
   30.3780   28.8540   33.0530 H   0  0  0  0  0  0  0  0  0  0  0  0
   29.6280   30.5210   31.9960 C   0  0  0  0  0  0  0  0  0  0  0  0
   29.1930   29.9040   31.2050 H   0  0  0  0  0  0  0  0  0  0  0  0
   29.4700   31.8910   31.8890 C   0  0  0  0  0  3  0  0  0  0  0  0
   30.0200   32.6810   32.8900 C   0  0  0  0  0  3  0  0  0  0  0  0
  1 30  1  0  0  0  0
  1  5  1  0  0  0  0
  2  3  1  0  0  0  0
  2  1  1  0  0  0  0
  3  8  1  0  0  0  0
  3  4  1  0  0  0  0
  4 10  1  0  0  0  0
  4  5  1  0  0  0  0
  5 13  1  0  0  0  0
  5 12  1  1  0  0  0
  6  2  1  0  0  0  0
  7  2  1  0  0  0  0
  9  3  1  0  0  0  0
 11  4  1  0  0  0  0
 13 22  1  0  0  0  0
 14 15  1  0  0  0  0
 14 13  2  0  0  0  0
 15 16  2  0  0  0  0
 16 17  1  0  0  0  0
 17 18  1  0  0  0  0
 18 24  1  0  0  0  0
 18 19  2  0  0  0  0
 19 25  1  0  0  0  0
 20 19  1  0  0  0  0
 20 26  1  0  0  0  0
 21 20  2  0  0  0  0
 22 17  2  0  0  0  0
 22 21  1  0  0  0  0
 23 15  1  0  0  0  0
 27 21  1  0  0  0  0
 28 34  1  0  0  0  0
 29 28  1  0  0  0  0
 29 35  1  0  0  0  0
 30 29  2  0  0  0  0
 31 32  2  0  0  0  0
 31 30  1  0  0  0  0
 32 33  1  0  0  0  0
 33 28  2  0  0  0  0
 37 38  1  0  0  0  0
 37 36  1  0  0  0  0
 38 32  1  0  0  0  0
 39 40  1  0  0  0  0
 39 38  2  0  0  0  0
 41 39  1  0  0  0  0
 42 41  1  0  0  0  0
 43 41  2  0  0  0  0
 43 44  1  0  0  0  0
 44 37  2  0  0  0  0
M  END
>  <minimizedAffinity>
-6.55109549

$$$$

 OpenBabel03242512533D

 44 48  0  0  1  0  0  0  0  0999 V2000
   38.8090   29.6280   41.6930 N   0  0  0  0  0  0  0  0  0  0  0  0
   40.2390   29.8930   41.7160 C   0  0  0  0  0  0  0  0  0  0  0  0
   40.1610   31.3300   42.1810 C   0  0  0  0  0  0  0  0  0  0  0  0
   39.2020   31.8860   41.1510 C   0  0  0  0  0  0  0  0  0  0  0  0
   38.1620   30.7950   41.0380 C   0  0  1  0  0  0  0  0  0  0  0  0
   40.6760   29.8490   40.6990 H   0  0  0  0  0  0  0  0  0  0  0  0
   40.7240   29.2360   42.4540 H   0  0  0  0  0  0  0  0  0  0  0  0
   39.6180   31.3260   43.1470 H   0  0  0  0  0  0  0  0  0  0  0  0
   41.1360   31.8340   42.2070 H   0  0  0  0  0  0  0  0  0  0  0  0
   38.7990   32.8680   41.4300 H   0  0  0  0  0  0  0  0  0  0  0  0
   39.7360   31.8830   40.1750 H   0  0  0  0  0  0  0  0  0  0  0  0
   37.3810   31.0360   41.6980 H   0  0  0  0  0  0  0  0  0  0  0  0
   37.9080   30.3820   39.6740 C   0  0  0  0  0  0  0  0  0  0  0  0
   38.8670   30.4730   38.7210 N   0  0  0  0  0  0  0  0  0  0  0  0
   38.7070   30.1180   37.4290 C   0  0  0  0  0  0  0  0  0  0  0  0
   37.5150   29.6350   37.0490 N   0  0  0  0  0  0  0  0  0  0  0  0
   36.5470   29.5250   37.9360 C   0  0  0  0  0  0  0  0  0  0  0  0
   35.3400   29.0160   37.4860 C   0  0  0  0  0  0  0  0  0  0  0  0
   34.3150   28.8960   38.4270 C   0  0  0  0  0  0  0  0  0  0  0  0
   34.4150   29.2470   39.7700 C   0  0  0  0  0  0  0  0  0  0  0  0
   35.6530   29.7460   40.1290 C   0  0  0  0  0  0  0  0  0  0  0  0
   36.6890   29.8870   39.2740 C   0  0  0  0  0  0  0  0  0  0  0  0
   39.5340   30.2260   36.7290 H   0  0  0  0  0  0  0  0  0  0  0  0
   35.1810   28.7230   36.4700 H   0  0  0  0  0  0  0  0  0  0  0  0
   33.3730   28.4890   38.0340 H   0  0  0  0  0  0  0  0  0  0  0  0
   33.5620   29.1150   40.4120 H   0  0  0  0  0  0  0  0  0  0  0  0
   35.7010   30.0250   41.1440 H   0  0  0  0  0  0  0  0  0  0  0  0
   36.5890   27.3860   43.6790 C   0  0  0  0  0  0  0  0  0  0  0  0
   37.2950   28.5310   43.3300 C   0  0  0  0  0  0  0  0  0  0  0  0
   38.0480   28.5290   42.1650 C   0  0  0  0  0  0  0  0  0  0  0  0
   38.0590   27.3950   41.4160 N   0  0  0  0  0  0  0  0  0  0  0  0
   37.3650   26.2820   41.7700 C   0  0  0  0  0  0  0  0  0  0  0  0
   36.6280   26.2890   42.9120 N   0  0  0  0  0  0  0  0  0  0  0  0
   35.9990   27.3920   44.5940 H   0  0  0  0  0  0  0  0  0  0  0  0
   37.2750   29.3820   43.9520 H   0  0  0  0  0  0  0  0  0  0  0  0
   36.1450   26.2020   39.2890 F   0  0  0  0  0  0  0  0  0  0  0  0
   36.8000   25.0840   39.7170 C   0  0  0  0  0  0  0  0  0  0  0  0
   37.4100   25.1050   40.9430 C   0  0  0  0  0  0  0  0  0  0  0  0
   38.0610   23.9740   41.3530 C   0  0  0  0  0  0  0  0  0  0  0  0
   38.5730   23.9050   42.3130 H   0  0  0  0  0  0  0  0  0  0  0  0
   38.0930   22.8560   40.5440 C   0  0  0  0  0  0  0  0  0  0  0  0
   38.6100   21.9490   40.8650 H   0  0  0  0  0  0  0  0  0  0  0  0
   37.4780   22.8290   39.3050 C   0  0  0  0  0  3  0  0  0  0  0  0
   36.8180   23.9790   38.8910 C   0  0  0  0  0  3  0  0  0  0  0  0
  1  2  1  0  0  0  0
  1 30  1  0  0  0  0
  2  3  1  0  0  0  0
  2  7  1  0  0  0  0
  3  9  1  0  0  0  0
  3  8  1  0  0  0  0
  4 10  1  0  0  0  0
  4  3  1  0  0  0  0
  5  4  1  0  0  0  0
  5  1  1  0  0  0  0
  5 12  1  1  0  0  0
  6  2  1  0  0  0  0
 11  4  1  0  0  0  0
 13  5  1  0  0  0  0
 14 13  2  0  0  0  0
 15 14  1  0  0  0  0
 16 15  2  0  0  0  0
 16 17  1  0  0  0  0
 17 22  1  0  0  0  0
 18 17  2  0  0  0  0
 18 19  1  0  0  0  0
 19 20  2  0  0  0  0
 20 21  1  0  0  0  0
 20 26  1  0  0  0  0
 21 27  1  0  0  0  0
 22 13  1  0  0  0  0
 22 21  2  0  0  0  0
 23 15  1  0  0  0  0
 24 18  1  0  0  0  0
 25 19  1  0  0  0  0
 28 34  1  0  0  0  0
 29 28  1  0  0  0  0
 29 35  1  0  0  0  0
 30 29  2  0  0  0  0
 31 32  2  0  0  0  0
 31 30  1  0  0  0  0
 32 33  1  0  0  0  0
 33 28  2  0  0  0  0
 36 37  1  0  0  0  0
 37 38  1  0  0  0  0
 38 39  2  0  0  0  0
 38 32  1  0  0  0  0
 39 40  1  0  0  0  0
 41 42  1  0  0  0  0
 41 39  1  0  0  0  0
 43 41  2  0  0  0  0
 44 43  1  0  0  0  0
 44 37  2  0  0  0  0
M  END
>  <minimizedAffinity>
-6.52879381

$$$$

 OpenBabel03242512533D

 44 48  0  0  1  0  0  0  0  0999 V2000
   37.6780   27.8710   40.5780 N   0  0  0  0  0  0  0  0  0  0  0  0
   38.1670   26.7340   41.3430 C   0  0  0  0  0  0  0  0  0  0  0  0
   37.0170   26.6510   42.3210 C   0  0  0  0  0  0  0  0  0  0  0  0
   36.9980   28.0780   42.8240 C   0  0  0  0  0  0  0  0  0  0  0  0
   37.2030   28.8820   41.5610 C   0  0  1  0  0  0  0  0  0  0  0  0
   39.1030   26.9800   41.8810 H   0  0  0  0  0  0  0  0  0  0  0  0
   38.2310   25.8510   40.6890 H   0  0  0  0  0  0  0  0  0  0  0  0
   36.0940   26.5160   41.7220 H   0  0  0  0  0  0  0  0  0  0  0  0
   37.1660   25.8990   43.1070 H   0  0  0  0  0  0  0  0  0  0  0  0
   36.0800   28.3250   43.3730 H   0  0  0  0  0  0  0  0  0  0  0  0
   37.9270   28.2260   43.4180 H   0  0  0  0  0  0  0  0  0  0  0  0
   36.2520   29.1410   41.1950 H   0  0  0  0  0  0  0  0  0  0  0  0
   38.2710   29.8540   41.6630 C   0  0  0  0  0  0  0  0  0  0  0  0
   39.4000   29.5860   42.3620 N   0  0  0  0  0  0  0  0  0  0  0  0
   40.4350   30.4400   42.5120 C   0  0  0  0  0  0  0  0  0  0  0  0
   40.3500   31.6450   41.9290 N   0  0  0  0  0  0  0  0  0  0  0  0
   39.2730   31.9560   41.2380 C   0  0  0  0  0  0  0  0  0  0  0  0
   39.2440   33.2120   40.6550 C   0  0  0  0  0  0  0  0  0  0  0  0
   38.1040   33.5420   39.9190 C   0  0  0  0  0  0  0  0  0  0  0  0
   37.0050   32.7100   39.7290 C   0  0  0  0  0  0  0  0  0  0  0  0
   37.1200   31.4780   40.3470 C   0  0  0  0  0  0  0  0  0  0  0  0
   38.1930   31.0920   41.0700 C   0  0  0  0  0  0  0  0  0  0  0  0
   41.3060   30.1410   43.0930 H   0  0  0  0  0  0  0  0  0  0  0  0
   40.0490   33.9110   40.7530 H   0  0  0  0  0  0  0  0  0  0  0  0
   38.1180   34.5460   39.4720 H   0  0  0  0  0  0  0  0  0  0  0  0
   36.1740   33.0620   39.1430 H   0  0  0  0  0  0  0  0  0  0  0  0
   36.2690   30.8720   40.2090 H   0  0  0  0  0  0  0  0  0  0  0  0
   38.4780   28.3270   36.9660 C   0  0  0  0  0  0  0  0  0  0  0  0
   38.6880   28.0830   38.3180 C   0  0  0  0  0  0  0  0  0  0  0  0
   37.6030   28.1050   39.1820 C   0  0  0  0  0  0  0  0  0  0  0  0
   36.3770   28.3680   38.6580 N   0  0  0  0  0  0  0  0  0  0  0  0
   36.1870   28.6060   37.3350 C   0  0  0  0  0  0  0  0  0  0  0  0
   37.2520   28.5820   36.4910 N   0  0  0  0  0  0  0  0  0  0  0  0
   39.3320   28.3080   36.2910 H   0  0  0  0  0  0  0  0  0  0  0  0
   39.6600   27.9050   38.6850 H   0  0  0  0  0  0  0  0  0  0  0  0
   33.9980   28.8010   39.0150 F   0  0  0  0  0  0  0  0  0  0  0  0
   33.7950   28.9730   37.6760 C   0  0  0  0  0  0  0  0  0  0  0  0
   34.8680   28.8800   36.8290 C   0  0  0  0  0  0  0  0  0  0  0  0
   34.6430   29.0550   35.4910 C   0  0  0  0  0  0  0  0  0  0  0  0
   35.4390   28.9980   34.7480 H   0  0  0  0  0  0  0  0  0  0  0  0
   33.3700   29.3170   35.0270 C   0  0  0  0  0  0  0  0  0  0  0  0
   33.1830   29.4580   33.9600 H   0  0  0  0  0  0  0  0  0  0  0  0
   32.2840   29.4120   35.8780 C   0  0  0  0  0  3  0  0  0  0  0  0
   32.5140   29.2340   37.2360 C   0  0  0  0  0  3  0  0  0  0  0  0
  1  2  1  0  0  0  0
  1  5  1  0  0  0  0
  2  6  1  0  0  0  0
  2  3  1  0  0  0  0
  3  4  1  0  0  0  0
  3  9  1  0  0  0  0
  4 10  1  0  0  0  0
  4 11  1  0  0  0  0
  5 12  1  6  0  0  0
  5 13  1  0  0  0  0
  5  4  1  0  0  0  0
  7  2  1  0  0  0  0
  8  3  1  0  0  0  0
 13 14  1  0  0  0  0
 14 15  2  0  0  0  0
 15 23  1  0  0  0  0
 16 15  1  0  0  0  0
 17 16  2  0  0  0  0
 18 24  1  0  0  0  0
 18 17  1  0  0  0  0
 19 18  2  0  0  0  0
 20 19  1  0  0  0  0
 20 21  2  0  0  0  0
 21 22  1  0  0  0  0
 22 17  1  0  0  0  0
 22 13  2  0  0  0  0
 25 19  1  0  0  0  0
 26 20  1  0  0  0  0
 27 21  1  0  0  0  0
 28 29  1  0  0  0  0
 29 35  1  0  0  0  0
 29 30  2  0  0  0  0
 30  1  1  0  0  0  0
 31 30  1  0  0  0  0
 32 31  2  0  0  0  0
 33 28  2  0  0  0  0
 33 32  1  0  0  0  0
 34 28  1  0  0  0  0
 37 36  1  0  0  0  0
 38 32  1  0  0  0  0
 38 37  2  0  0  0  0
 39 38  1  0  0  0  0
 40 39  1  0  0  0  0
 41 39  2  0  0  0  0
 41 43  1  0  0  0  0
 42 41  1  0  0  0  0
 43 44  2  0  0  0  0
 44 37  1  0  0  0  0
M  END
>  <minimizedAffinity>
-6.42081308

$$$$

 OpenBabel03242512533D

 44 48  0  0  1  0  0  0  0  0999 V2000
   36.0300   28.2210   36.6900 N   0  0  0  0  0  0  0  0  0  0  0  0
   36.9410   29.1160   35.9940 C   0  0  0  0  0  0  0  0  0  0  0  0
   38.0770   28.1340   35.8160 C   0  0  0  0  0  0  0  0  0  0  0  0
   38.2530   27.6750   37.2470 C   0  0  0  0  0  0  0  0  0  0  0  0
   36.8280   27.5070   37.7230 C   0  0  1  0  0  0  0  0  0  0  0  0
   37.2640   29.9520   36.6450 H   0  0  0  0  0  0  0  0  0  0  0  0
   36.4940   29.4240   35.0370 H   0  0  0  0  0  0  0  0  0  0  0  0
   37.6700   27.2690   35.2560 H   0  0  0  0  0  0  0  0  0  0  0  0
   38.9770   28.5830   35.3740 H   0  0  0  0  0  0  0  0  0  0  0  0
   38.8670   26.7700   37.3330 H   0  0  0  0  0  0  0  0  0  0  0  0
   38.6520   28.5420   37.8200 H   0  0  0  0  0  0  0  0  0  0  0  0
   36.5640   26.5010   37.5750 H   0  0  0  0  0  0  0  0  0  0  0  0
   36.5520   28.1920   38.9680 C   0  0  0  0  0  0  0  0  0  0  0  0
   36.1670   29.4910   38.9850 N   0  0  0  0  0  0  0  0  0  0  0  0
   35.8990   30.2020   40.1010 C   0  0  0  0  0  0  0  0  0  0  0  0
   36.0190   29.5860   41.2870 N   0  0  0  0  0  0  0  0  0  0  0  0
   36.3910   28.3230   41.3270 C   0  0  0  0  0  0  0  0  0  0  0  0
   36.4930   27.7400   42.5790 C   0  0  0  0  0  0  0  0  0  0  0  0
   36.8840   26.4000   42.6210 C   0  0  0  0  0  0  0  0  0  0  0  0
   37.1770   25.6140   41.5100 C   0  0  0  0  0  0  0  0  0  0  0  0
   37.0490   26.2790   40.3040 C   0  0  0  0  0  0  0  0  0  0  0  0
   36.6730   27.5700   40.1880 C   0  0  0  0  0  0  0  0  0  0  0  0
   35.5950   31.2440   40.0210 H   0  0  0  0  0  0  0  0  0  0  0  0
   36.2860   28.2750   43.4820 H   0  0  0  0  0  0  0  0  0  0  0  0
   36.9540   25.9720   43.6310 H   0  0  0  0  0  0  0  0  0  0  0  0
   37.4700   24.5890   41.6540 H   0  0  0  0  0  0  0  0  0  0  0  0
   37.2950   25.6730   39.4770 H   0  0  0  0  0  0  0  0  0  0  0  0
   32.6970   26.6030   36.2730 C   0  0  0  0  0  0  0  0  0  0  0  0
   34.0740   26.7110   36.4320 C   0  0  0  0  0  0  0  0  0  0  0  0
   34.6450   27.9710   36.5240 C   0  0  0  0  0  0  0  0  0  0  0  0
   33.8210   29.0500   36.4540 N   0  0  0  0  0  0  0  0  0  0  0  0
   32.4770   28.9300   36.2970 C   0  0  0  0  0  0  0  0  0  0  0  0
   31.9220   27.6930   36.2080 N   0  0  0  0  0  0  0  0  0  0  0  0
   32.2540   25.6120   36.2010 H   0  0  0  0  0  0  0  0  0  0  0  0
   34.6780   25.8470   36.4590 H   0  0  0  0  0  0  0  0  0  0  0  0
   31.1120   29.8790   38.5080 F   0  0  0  0  0  0  0  0  0  0  0  0
   30.9790   30.5590   37.3330 C   0  0  0  0  0  0  0  0  0  0  0  0
   31.6470   30.1040   36.2280 C   0  0  0  0  0  0  0  0  0  0  0  0
   31.4990   30.8000   35.0600 C   0  0  0  0  0  0  0  0  0  0  0  0
   31.9950   30.5070   34.1330 H   0  0  0  0  0  0  0  0  0  0  0  0
   30.6990   31.9240   35.0140 C   0  0  0  0  0  0  0  0  0  0  0  0
   30.5760   32.4840   34.0840 H   0  0  0  0  0  0  0  0  0  0  0  0
   30.0220   32.3870   36.1270 C   0  0  0  0  0  3  0  0  0  0  0  0
   30.1730   31.6790   37.3120 C   0  0  0  0  0  3  0  0  0  0  0  0
  1  5  1  0  0  0  0
  2  6  1  0  0  0  0
  2  1  1  0  0  0  0
  3  2  1  0  0  0  0
  3  4  1  0  0  0  0
  4 10  1  0  0  0  0
  4  5  1  0  0  0  0
  4 11  1  0  0  0  0
  5 12  1  1  0  0  0
  5 13  1  0  0  0  0
  7  2  1  0  0  0  0
  8  3  1  0  0  0  0
  9  3  1  0  0  0  0
 13 14  2  0  0  0  0
 13 22  1  0  0  0  0
 14 15  1  0  0  0  0
 15 16  2  0  0  0  0
 16 17  1  0  0  0  0
 17 18  1  0  0  0  0
 18 19  2  0  0  0  0
 18 24  1  0  0  0  0
 19 25  1  0  0  0  0
 20 26  1  0  0  0  0
 20 19  1  0  0  0  0
 21 20  2  0  0  0  0
 22 21  1  0  0  0  0
 22 17  2  0  0  0  0
 23 15  1  0  0  0  0
 27 21  1  0  0  0  0
 28 29  1  0  0  0  0
 29 35  1  0  0  0  0
 29 30  2  0  0  0  0
 30  1  1  0  0  0  0
 31 30  1  0  0  0  0
 32 31  2  0  0  0  0
 33 28  2  0  0  0  0
 33 32  1  0  0  0  0
 34 28  1  0  0  0  0
 37 36  1  0  0  0  0
 38 32  1  0  0  0  0
 38 37  2  0  0  0  0
 39 38  1  0  0  0  0
 40 39  1  0  0  0  0
 41 39  2  0  0  0  0
 41 43  1  0  0  0  0
 42 41  1  0  0  0  0
 43 44  2  0  0  0  0
 44 37  1  0  0  0  0
M  END
>  <minimizedAffinity>
-6.39034176

$$$$

 OpenBabel03242512533D

 44 48  0  0  1  0  0  0  0  0999 V2000
   37.5590   30.5170   38.3690 N   0  0  0  0  0  0  0  0  0  0  0  0
   37.5040   30.0450   36.9940 C   0  0  0  0  0  0  0  0  0  0  0  0
   36.0780   29.5430   37.0210 C   0  0  0  0  0  0  0  0  0  0  0  0
   36.1400   28.6420   38.2340 C   0  0  0  0  0  0  0  0  0  0  0  0
   36.9500   29.4570   39.2160 C   0  0  1  0  0  0  0  0  0  0  0  0
   38.1990   29.1990   36.8280 H   0  0  0  0  0  0  0  0  0  0  0  0
   37.6400   30.8950   36.3080 H   0  0  0  0  0  0  0  0  0  0  0  0
   35.4390   30.4040   37.3010 H   0  0  0  0  0  0  0  0  0  0  0  0
   35.7780   29.0320   36.0960 H   0  0  0  0  0  0  0  0  0  0  0  0
   35.1490   28.3490   38.6010 H   0  0  0  0  0  0  0  0  0  0  0  0
   36.7900   27.7790   37.9660 H   0  0  0  0  0  0  0  0  0  0  0  0
   36.2720   29.9910   39.8160 H   0  0  0  0  0  0  0  0  0  0  0  0
   38.0640   28.7300   39.7880 C   0  0  0  0  0  0  0  0  0  0  0  0
   39.1510   28.4100   39.0440 N   0  0  0  0  0  0  0  0  0  0  0  0
   40.2240   27.7300   39.4990 C   0  0  0  0  0  0  0  0  0  0  0  0
   40.2260   27.3370   40.7810 N   0  0  0  0  0  0  0  0  0  0  0  0
   39.1940   27.6220   41.5490 C   0  0  0  0  0  0  0  0  0  0  0  0
   39.2550   27.1950   42.8650 C   0  0  0  0  0  0  0  0  0  0  0  0
   38.1630   27.5010   43.6800 C   0  0  0  0  0  0  0  0  0  0  0  0
   37.0280   28.1950   43.2720 C   0  0  0  0  0  0  0  0  0  0  0  0
   37.0540   28.5810   41.9450 C   0  0  0  0  0  0  0  0  0  0  0  0
   38.0760   28.3230   41.1010 C   0  0  0  0  0  0  0  0  0  0  0  0
   41.0550   27.5150   38.8290 H   0  0  0  0  0  0  0  0  0  0  0  0
   40.0920   26.6560   43.2570 H   0  0  0  0  0  0  0  0  0  0  0  0
   38.2480   27.1460   44.7170 H   0  0  0  0  0  0  0  0  0  0  0  0
   36.2410   28.3780   43.9820 H   0  0  0  0  0  0  0  0  0  0  0  0
   36.1770   29.0870   41.6500 H   0  0  0  0  0  0  0  0  0  0  0  0
   37.9140   33.7630   40.1690 C   0  0  0  0  0  0  0  0  0  0  0  0
   37.3020   32.6210   39.6670 C   0  0  0  0  0  0  0  0  0  0  0  0
   38.0580   31.7180   38.9330 C   0  0  0  0  0  0  0  0  0  0  0  0
   39.3730   32.0000   38.7390 N   0  0  0  0  0  0  0  0  0  0  0  0
   39.9580   33.1210   39.2340 C   0  0  0  0  0  0  0  0  0  0  0  0
   39.2140   34.0010   39.9530 N   0  0  0  0  0  0  0  0  0  0  0  0
   37.3170   34.4680   40.7450 H   0  0  0  0  0  0  0  0  0  0  0  0
   36.2720   32.4530   39.8230 H   0  0  0  0  0  0  0  0  0  0  0  0
   41.8500   32.7840   41.2240 F   0  0  0  0  0  0  0  0  0  0  0  0
   42.2780   33.2010   39.9980 C   0  0  0  0  0  0  0  0  0  0  0  0
   41.3560   33.3740   39.0000 C   0  0  0  0  0  0  0  0  0  0  0  0
   41.8060   33.7930   37.7790 C   0  0  0  0  0  0  0  0  0  0  0  0
   41.1400   33.9560   36.9300 H   0  0  0  0  0  0  0  0  0  0  0  0
   43.1500   34.0300   37.5750 C   0  0  0  0  0  0  0  0  0  0  0  0
   43.5170   34.3660   36.6020 H   0  0  0  0  0  0  0  0  0  0  0  0
   44.0860   33.8580   38.5790 C   0  0  0  0  0  3  0  0  0  0  0  0
   43.6270   33.4320   39.8180 C   0  0  0  0  0  3  0  0  0  0  0  0
  1 30  1  0  0  0  0
  1  5  1  0  0  0  0
  2  3  1  0  0  0  0
  2  1  1  0  0  0  0
  3  8  1  0  0  0  0
  3  4  1  0  0  0  0
  4 10  1  0  0  0  0
  4  5  1  0  0  0  0
  5 13  1  0  0  0  0
  5 12  1  1  0  0  0
  6  2  1  0  0  0  0
  7  2  1  0  0  0  0
  9  3  1  0  0  0  0
 11  4  1  0  0  0  0
 13 22  1  0  0  0  0
 14 15  1  0  0  0  0
 14 13  2  0  0  0  0
 15 16  2  0  0  0  0
 16 17  1  0  0  0  0
 17 18  1  0  0  0  0
 18 24  1  0  0  0  0
 18 19  2  0  0  0  0
 19 25  1  0  0  0  0
 20 19  1  0  0  0  0
 20 26  1  0  0  0  0
 21 20  2  0  0  0  0
 22 17  2  0  0  0  0
 22 21  1  0  0  0  0
 23 15  1  0  0  0  0
 27 21  1  0  0  0  0
 28 34  1  0  0  0  0
 29 35  1  0  0  0  0
 29 28  2  0  0  0  0
 30 29  1  0  0  0  0
 31 30  2  0  0  0  0
 31 32  1  0  0  0  0
 32 33  2  0  0  0  0
 33 28  1  0  0  0  0
 37 36  1  0  0  0  0
 38 32  1  0  0  0  0
 38 37  2  0  0  0  0
 39 38  1  0  0  0  0
 40 39  1  0  0  0  0
 41 39  2  0  0  0  0
 41 43  1  0  0  0  0
 42 41  1  0  0  0  0
 43 44  2  0  0  0  0
 44 37  1  0  0  0  0
M  END
>  <minimizedAffinity>
-6.30295134

$$$$

 OpenBabel03242512533D

 44 48  0  0  1  0  0  0  0  0999 V2000
   37.4280   25.6480   40.9680 N   0  0  0  0  0  0  0  0  0  0  0  0
   36.5840   25.2530   39.8510 C   0  0  0  0  0  0  0  0  0  0  0  0
   36.1900   23.8920   40.3790 C   0  0  0  0  0  0  0  0  0  0  0  0
   37.5600   23.3160   40.6630 C   0  0  0  0  0  0  0  0  0  0  0  0
   38.2890   24.4800   41.2940 C   0  0  1  0  0  0  0  0  0  0  0  0
   37.1710   25.1410   38.9190 H   0  0  0  0  0  0  0  0  0  0  0  0
   35.7280   25.9410   39.7760 H   0  0  0  0  0  0  0  0  0  0  0  0
   35.7080   24.0550   41.3630 H   0  0  0  0  0  0  0  0  0  0  0  0
   35.5940   23.3040   39.6690 H   0  0  0  0  0  0  0  0  0  0  0  0
   37.5230   22.4150   41.2880 H   0  0  0  0  0  0  0  0  0  0  0  0
   38.0580   23.1590   39.6800 H   0  0  0  0  0  0  0  0  0  0  0  0
   38.1840   24.3900   42.3360 H   0  0  0  0  0  0  0  0  0  0  0  0
   39.5700   24.7600   40.6800 C   0  0  0  0  0  0  0  0  0  0  0  0
   39.7310   24.7070   39.3350 N   0  0  0  0  0  0  0  0  0  0  0  0
   40.8900   24.9450   38.6870 C   0  0  0  0  0  0  0  0  0  0  0  0
   41.9700   25.2600   39.4180 N   0  0  0  0  0  0  0  0  0  0  0  0
   41.8690   25.3250   40.7300 C   0  0  0  0  0  0  0  0  0  0  0  0
   43.0150   25.6590   41.4310 C   0  0  0  0  0  0  0  0  0  0  0  0
   42.9070   25.7310   42.8210 C   0  0  0  0  0  0  0  0  0  0  0  0
   41.7440   25.4950   43.5490 C   0  0  0  0  0  0  0  0  0  0  0  0
   40.6510   25.1680   42.7680 C   0  0  0  0  0  0  0  0  0  0  0  0
   40.6830   25.0820   41.4200 C   0  0  0  0  0  0  0  0  0  0  0  0
   40.9290   24.8800   37.6010 H   0  0  0  0  0  0  0  0  0  0  0  0
   43.9490   25.8560   40.9480 H   0  0  0  0  0  0  0  0  0  0  0  0
   43.8370   25.9990   43.3430 H   0  0  0  0  0  0  0  0  0  0  0  0
   41.7690   25.5770   44.6210 H   0  0  0  0  0  0  0  0  0  0  0  0
   39.7870   24.9720   43.3380 H   0  0  0  0  0  0  0  0  0  0  0  0
   37.5220   28.2120   43.6730 C   0  0  0  0  0  0  0  0  0  0  0  0
   37.4130   26.9610   43.0780 C   0  0  0  0  0  0  0  0  0  0  0  0
   37.5180   26.8590   41.6990 C   0  0  0  0  0  0  0  0  0  0  0  0
   37.7240   28.0010   40.9900 N   0  0  0  0  0  0  0  0  0  0  0  0
   37.8280   29.2180   41.5850 C   0  0  0  0  0  0  0  0  0  0  0  0
   37.7250   29.3120   42.9370 N   0  0  0  0  0  0  0  0  0  0  0  0
   37.4390   28.2870   44.7560 H   0  0  0  0  0  0  0  0  0  0  0  0
   37.2300   26.1040   43.6650 H   0  0  0  0  0  0  0  0  0  0  0  0
   35.7860   31.0030   41.0430 F   0  0  0  0  0  0  0  0  0  0  0  0
   37.0230   31.2700   40.5320 C   0  0  0  0  0  0  0  0  0  0  0  0
   38.0460   30.3980   40.7900 C   0  0  0  0  0  0  0  0  0  0  0  0
   39.2770   30.6840   40.2680 C   0  0  0  0  0  0  0  0  0  0  0  0
   40.1470   30.0430   40.4250 H   0  0  0  0  0  0  0  0  0  0  0  0
   39.4660   31.8200   39.5090 C   0  0  0  0  0  0  0  0  0  0  0  0
   40.4470   32.0550   39.0890 H   0  0  0  0  0  0  0  0  0  0  0  0
   38.4360   32.7050   39.2440 C   0  0  0  0  0  3  0  0  0  0  0  0
   37.1860   32.4130   39.7750 C   0  0  0  0  0  3  0  0  0  0  0  0
  1  5  1  0  0  0  0
  1 30  1  0  0  0  0
  2  3  1  0  0  0  0
  2  1  1  0  0  0  0
  3  4  1  0  0  0  0
  3  8  1  0  0  0  0
  4 10  1  0  0  0  0
  4  5  1  0  0  0  0
  5 12  1  1  0  0  0
  6  2  1  0  0  0  0
  7  2  1  0  0  0  0
  9  3  1  0  0  0  0
 11  4  1  0  0  0  0
 13  5  1  0  0  0  0
 13 22  1  0  0  0  0
 14 13  2  0  0  0  0
 15 14  1  0  0  0  0
 15 16  2  0  0  0  0
 16 17  1  0  0  0  0
 17 22  2  0  0  0  0
 17 18  1  0  0  0  0
 18 19  2  0  0  0  0
 19 25  1  0  0  0  0
 19 20  1  0  0  0  0
 20 26  1  0  0  0  0
 21 27  1  0  0  0  0
 21 20  2  0  0  0  0
 22 21  1  0  0  0  0
 23 15  1  0  0  0  0
 24 18  1  0  0  0  0
 28 34  1  0  0  0  0
 29 35  1  0  0  0  0
 29 28  1  0  0  0  0
 30 29  2  0  0  0  0
 31 32  2  0  0  0  0
 31 30  1  0  0  0  0
 32 33  1  0  0  0  0
 33 28  2  0  0  0  0
 37 38  1  0  0  0  0
 37 36  1  0  0  0  0
 38 32  1  0  0  0  0
 39 40  1  0  0  0  0
 39 38  2  0  0  0  0
 41 39  1  0  0  0  0
 42 41  1  0  0  0  0
 43 41  2  0  0  0  0
 43 44  1  0  0  0  0
 44 37  2  0  0  0  0
M  END
>  <minimizedAffinity>
-6.28915834

$$$$

 OpenBabel03242512533D

 44 48  0  0  1  0  0  0  0  0999 V2000
   37.3420   24.9580   38.7780 N   0  0  0  0  0  0  0  0  0  0  0  0
   37.4250   23.5510   38.4180 C   0  0  0  0  0  0  0  0  0  0  0  0
   35.9850   23.1920   38.7100 C   0  0  0  0  0  0  0  0  0  0  0  0
   35.8700   23.7090   40.1280 C   0  0  0  0  0  0  0  0  0  0  0  0
   36.5950   25.0330   40.0620 C   0  0  1  0  0  0  0  0  0  0  0  0
   38.0990   22.9970   39.1010 H   0  0  0  0  0  0  0  0  0  0  0  0
   37.6750   23.4590   37.3490 H   0  0  0  0  0  0  0  0  0  0  0  0
   35.3550   23.8530   38.0830 H   0  0  0  0  0  0  0  0  0  0  0  0
   35.7720   22.1200   38.6040 H   0  0  0  0  0  0  0  0  0  0  0  0
   34.8320   23.7790   40.4740 H   0  0  0  0  0  0  0  0  0  0  0  0
   36.5100   23.0570   40.7650 H   0  0  0  0  0  0  0  0  0  0  0  0
   35.8760   25.7760   39.8770 H   0  0  0  0  0  0  0  0  0  0  0  0
   37.6050   25.1890   41.0890 C   0  0  0  0  0  0  0  0  0  0  0  0
   38.5350   24.2290   41.3110 N   0  0  0  0  0  0  0  0  0  0  0  0
   39.5010   24.2940   42.2510 C   0  0  0  0  0  0  0  0  0  0  0  0
   39.5560   25.3870   43.0270 N   0  0  0  0  0  0  0  0  0  0  0  0
   38.6750   26.3510   42.8520 C   0  0  0  0  0  0  0  0  0  0  0  0
   38.7840   27.4560   43.6800 C   0  0  0  0  0  0  0  0  0  0  0  0
   37.8530   28.4790   43.4920 C   0  0  0  0  0  0  0  0  0  0  0  0
   36.8330   28.4720   42.5460 C   0  0  0  0  0  0  0  0  0  0  0  0
   36.8000   27.3310   41.7650 C   0  0  0  0  0  0  0  0  0  0  0  0
   37.6690   26.3050   41.8900 C   0  0  0  0  0  0  0  0  0  0  0  0
   40.2080   23.4740   42.3610 H   0  0  0  0  0  0  0  0  0  0  0  0
   39.5400   27.5400   44.4320 H   0  0  0  0  0  0  0  0  0  0  0  0
   37.9700   29.3400   44.1670 H   0  0  0  0  0  0  0  0  0  0  0  0
   36.1660   29.3140   42.4850 H   0  0  0  0  0  0  0  0  0  0  0  0
   36.0080   27.3350   41.0700 H   0  0  0  0  0  0  0  0  0  0  0  0
   38.7950   27.3720   36.3370 C   0  0  0  0  0  0  0  0  0  0  0  0
   38.3630   26.1580   36.8560 C   0  0  0  0  0  0  0  0  0  0  0  0
   37.8220   26.1250   38.1330 C   0  0  0  0  0  0  0  0  0  0  0  0
   37.7410   27.2960   38.8190 N   0  0  0  0  0  0  0  0  0  0  0  0
   38.1690   28.4750   38.3000 C   0  0  0  0  0  0  0  0  0  0  0  0
   38.6980   28.5020   37.0490 N   0  0  0  0  0  0  0  0  0  0  0  0
   39.2190   27.3920   35.3340 H   0  0  0  0  0  0  0  0  0  0  0  0
   38.4650   25.2700   36.2960 H   0  0  0  0  0  0  0  0  0  0  0  0
   36.0850   30.2550   37.9240 F   0  0  0  0  0  0  0  0  0  0  0  0
   37.0230   30.5580   38.8690 C   0  0  0  0  0  0  0  0  0  0  0  0
   38.0620   29.6880   39.0680 C   0  0  0  0  0  0  0  0  0  0  0  0
   38.9910   30.0100   40.0180 C   0  0  0  0  0  0  0  0  0  0  0  0
   39.8500   29.3740   40.2420 H   0  0  0  0  0  0  0  0  0  0  0  0
   38.8710   31.1770   40.7450 C   0  0  0  0  0  0  0  0  0  0  0  0
   39.6100   31.4400   41.5050 H   0  0  0  0  0  0  0  0  0  0  0  0
   37.8240   32.0590   40.5470 C   0  0  0  0  0  3  0  0  0  0  0  0
   36.8810   31.7300   39.5820 C   0  0  0  0  0  3  0  0  0  0  0  0
  1  5  1  0  0  0  0
  2  3  1  0  0  0  0
  2  1  1  0  0  0  0
  2  6  1  0  0  0  0
  3  4  1  0  0  0  0
  4 10  1  0  0  0  0
  4 11  1  0  0  0  0
  5 12  1  1  0  0  0
  5  4  1  0  0  0  0
  5 13  1  0  0  0  0
  7  2  1  0  0  0  0
  8  3  1  0  0  0  0
  9  3  1  0  0  0  0
 13 14  2  0  0  0  0
 13 22  1  0  0  0  0
 14 15  1  0  0  0  0
 15 23  1  0  0  0  0
 15 16  2  0  0  0  0
 17 16  1  0  0  0  0
 17 18  1  0  0  0  0
 18 24  1  0  0  0  0
 19 18  2  0  0  0  0
 19 25  1  0  0  0  0
 20 19  1  0  0  0  0
 21 22  1  0  0  0  0
 21 20  2  0  0  0  0
 22 17  2  0  0  0  0
 26 20  1  0  0  0  0
 27 21  1  0  0  0  0
 28 29  2  0  0  0  0
 28 33  1  0  0  0  0
 29 30  1  0  0  0  0
 30  1  1  0  0  0  0
 30 31  2  0  0  0  0
 32 31  1  0  0  0  0
 32 38  1  0  0  0  0
 33 32  2  0  0  0  0
 34 28  1  0  0  0  0
 35 29  1  0  0  0  0
 36 37  1  0  0  0  0
 37 38  2  0  0  0  0
 37 44  1  0  0  0  0
 38 39  1  0  0  0  0
 39 40  1  0  0  0  0
 39 41  2  0  0  0  0
 41 42  1  0  0  0  0
 43 41  1  0  0  0  0
 44 43  2  0  0  0  0
M  END
>  <minimizedAffinity>
-6.17917061

$$$$

 OpenBabel03242512533D

 44 48  0  0  1  0  0  0  0  0999 V2000
   36.3910   29.1330   40.0900 N   0  0  0  0  0  0  0  0  0  0  0  0
   34.9820   29.3560   39.8070 C   0  0  0  0  0  0  0  0  0  0  0  0
   34.9510   28.6930   38.4490 C   0  0  0  0  0  0  0  0  0  0  0  0
   36.0880   29.4290   37.7730 C   0  0  0  0  0  0  0  0  0  0  0  0
   37.1420   29.4830   38.8550 C   0  0  1  0  0  0  0  0  0  0  0  0
   34.7540   30.4360   39.7060 H   0  0  0  0  0  0  0  0  0  0  0  0
   34.3680   28.8240   40.5510 H   0  0  0  0  0  0  0  0  0  0  0  0
   35.2930   27.6490   38.5920 H   0  0  0  0  0  0  0  0  0  0  0  0
   33.9840   28.7910   37.9370 H   0  0  0  0  0  0  0  0  0  0  0  0
   36.4180   28.9450   36.8450 H   0  0  0  0  0  0  0  0  0  0  0  0
   35.7570   30.4820   37.6350 H   0  0  0  0  0  0  0  0  0  0  0  0
   37.7750   28.6560   38.7190 H   0  0  0  0  0  0  0  0  0  0  0  0
   37.6640   30.8140   39.0830 C   0  0  0  0  0  0  0  0  0  0  0  0
   36.8380   31.8710   39.2740 N   0  0  0  0  0  0  0  0  0  0  0  0
   37.2440   33.1400   39.4840 C   0  0  0  0  0  0  0  0  0  0  0  0
   38.5630   33.3860   39.5100 N   0  0  0  0  0  0  0  0  0  0  0  0
   39.4110   32.3940   39.3300 C   0  0  0  0  0  0  0  0  0  0  0  0
   40.7600   32.7070   39.3720 C   0  0  0  0  0  0  0  0  0  0  0  0
   41.6580   31.6550   39.1840 C   0  0  0  0  0  0  0  0  0  0  0  0
   41.3040   30.3270   38.9610 C   0  0  0  0  0  0  0  0  0  0  0  0
   39.9390   30.1080   38.9350 C   0  0  0  0  0  0  0  0  0  0  0  0
   39.0140   31.0760   39.1100 C   0  0  0  0  0  0  0  0  0  0  0  0
   36.5090   33.9300   39.6270 H   0  0  0  0  0  0  0  0  0  0  0  0
   41.1150   33.7020   39.5380 H   0  0  0  0  0  0  0  0  0  0  0  0
   42.7190   31.9410   39.2240 H   0  0  0  0  0  0  0  0  0  0  0  0
   42.0780   29.5920   38.8280 H   0  0  0  0  0  0  0  0  0  0  0  0
   39.6920   29.1020   38.7430 H   0  0  0  0  0  0  0  0  0  0  0  0
   37.2850   27.4060   43.2710 C   0  0  0  0  0  0  0  0  0  0  0  0
   36.5250   27.7770   42.1680 C   0  0  0  0  0  0  0  0  0  0  0  0
   37.0560   28.6760   41.2550 C   0  0  0  0  0  0  0  0  0  0  0  0
   38.3070   29.1540   41.4880 N   0  0  0  0  0  0  0  0  0  0  0  0
   39.0390   28.7840   42.5700 C   0  0  0  0  0  0  0  0  0  0  0  0
   38.5140   27.9020   43.4620 N   0  0  0  0  0  0  0  0  0  0  0  0
   36.8640   26.7000   43.9840 H   0  0  0  0  0  0  0  0  0  0  0  0
   35.5500   27.3970   42.0380 H   0  0  0  0  0  0  0  0  0  0  0  0
   41.2130   27.1460   43.0610 F   0  0  0  0  0  0  0  0  0  0  0  0
   41.4240   28.4940   43.0140 C   0  0  0  0  0  0  0  0  0  0  0  0
   40.3590   29.3200   42.7720 C   0  0  0  0  0  0  0  0  0  0  0  0
   40.5920   30.6670   42.7290 C   0  0  0  0  0  0  0  0  0  0  0  0
   39.8010   31.3950   42.5420 H   0  0  0  0  0  0  0  0  0  0  0  0
   41.8660   31.1610   42.9250 C   0  0  0  0  0  0  0  0  0  0  0  0
   42.0590   32.2360   42.8920 H   0  0  0  0  0  0  0  0  0  0  0  0
   42.9450   30.3310   43.1700 C   0  0  0  0  0  3  0  0  0  0  0  0
   42.7060   28.9630   43.2130 C   0  0  0  0  0  3  0  0  0  0  0  0
  1 30  1  0  0  0  0
  2  1  1  0  0  0  0
  2  7  1  0  0  0  0
  3  8  1  0  0  0  0
  3  2  1  0  0  0  0
  4  3  1  0  0  0  0
  4  5  1  0  0  0  0
  5 12  1  6  0  0  0
  5 13  1  0  0  0  0
  5  1  1  0  0  0  0
  6  2  1  0  0  0  0
  9  3  1  0  0  0  0
 10  4  1  0  0  0  0
 11  4  1  0  0  0  0
 13 22  2  0  0  0  0
 13 14  1  0  0  0  0
 14 15  2  0  0  0  0
 15 16  1  0  0  0  0
 15 23  1  0  0  0  0
 17 18  1  0  0  0  0
 17 16  2  0  0  0  0
 18 24  1  0  0  0  0
 19 25  1  0  0  0  0
 19 18  2  0  0  0  0
 20 19  1  0  0  0  0
 21 20  2  0  0  0  0
 21 22  1  0  0  0  0
 22 17  1  0  0  0  0
 26 20  1  0  0  0  0
 27 21  1  0  0  0  0
 28 33  1  0  0  0  0
 28 34  1  0  0  0  0
 29 28  2  0  0  0  0
 30 31  2  0  0  0  0
 30 29  1  0  0  0  0
 31 32  1  0  0  0  0
 32 38  1  0  0  0  0
 32 33  2  0  0  0  0
 35 29  1  0  0  0  0
 37 36  1  0  0  0  0
 37 44  1  0  0  0  0
 38 37  2  0  0  0  0
 39 38  1  0  0  0  0
 39 41  2  0  0  0  0
 40 39  1  0  0  0  0
 41 43  1  0  0  0  0
 42 41  1  0  0  0  0
 43 44  2  0  0  0  0
M  END
>  <minimizedAffinity>
-6.15398598

$$$$
