
 OpenBabel03252502333D

 24 25  0  0  0  0  0  0  0  0999 V2000
   35.6760   29.1720   39.7600 C   0  0  0  0  0  0  0  0  0  0  0  0
   36.4720   30.3120   39.5870 C   0  0  0  0  0  0  0  0  0  0  0  0
   37.4730   30.5800   40.5290 C   0  0  0  0  0  0  0  0  0  0  0  0
   37.6030   29.7000   41.5570 N   0  0  0  0  0  0  0  0  0  0  0  0
   36.8230   28.6070   41.7030 C   0  0  0  0  0  0  0  0  0  0  0  0
   35.8690   28.3500   40.8100 N   0  0  0  0  0  0  0  0  0  0  0  0
   36.3260   30.9560   38.7730 H   0  0  0  0  0  0  0  0  0  0  0  0
   36.8550   33.3410   39.8870 F   0  0  0  0  0  0  0  0  0  0  0  0
   38.1090   33.0000   40.2100 C   0  0  0  0  0  0  0  0  0  0  0  0
   38.3750   31.6950   40.5080 C   0  0  0  0  0  0  0  0  0  0  0  0
   39.6990   31.4700   40.8250 C   0  0  0  0  0  0  0  0  0  0  0  0
   40.0940   30.4840   41.0900 H   0  0  0  0  0  0  0  0  0  0  0  0
   40.6550   32.4660   40.8370 C   0  0  0  0  0  0  0  0  0  0  0  0
   41.6830   32.2730   41.0860 H   0  0  0  0  0  0  0  0  0  0  0  0
   40.3280   33.7680   40.5270 C   0  0  0  0  0  3  0  0  0  0  0  0
   39.0140   34.0310   40.2050 C   0  0  0  0  0  3  0  0  0  0  0  0
   34.6220   28.9230   38.7390 C   0  0  0  0  0  0  0  0  0  0  0  0
   34.7890   29.6920   37.6180 F   0  0  0  0  0  0  0  0  0  0  0  0
   34.6460   27.5600   38.3990 F   0  0  0  0  0  0  0  0  0  0  0  0
   33.3630   29.1390   39.3150 F   0  0  0  0  0  0  0  0  0  0  0  0
   37.0300   27.6960   42.8560 C   0  0  0  0  0  0  0  0  0  0  0  0
   35.8770   27.5490   43.5940 F   0  0  0  0  0  0  0  0  0  0  0  0
   38.0580   28.1920   43.6790 F   0  0  0  0  0  0  0  0  0  0  0  0
   37.4460   26.4400   42.4730 F   0  0  0  0  0  0  0  0  0  0  0  0
  1  6  1  0  0  0  0
  2  1  2  0  0  0  0
  2  3  1  0  0  0  0
  3  4  2  0  0  0  0
  4  5  1  0  0  0  0
  5 21  1  0  0  0  0
  6  5  2  0  0  0  0
  7  2  1  0  0  0  0
  8  9  1  0  0  0  0
  9 10  1  0  0  0  0
 10  3  1  0  0  0  0
 10 11  2  0  0  0  0
 11 13  1  0  0  0  0
 11 12  1  0  0  0  0
 13 14  1  0  0  0  0
 15 13  2  0  0  0  0
 16  9  2  0  0  0  0
 16 15  1  0  0  0  0
 17 20  1  0  0  0  0
 17  1  1  0  0  0  0
 18 17  1  0  0  0  0
 19 17  1  0  0  0  0
 21 22  1  0  0  0  0
 21 23  1  0  0  0  0
 24 21  1  0  0  0  0
M  END
>  <minimizedAffinity>
-5.74485064

$$$$

 OpenBabel03252502333D

 24 25  0  0  0  0  0  0  0  0999 V2000
   38.0670   30.3260   41.2090 C   0  0  0  0  0  0  0  0  0  0  0  0
   37.2960   30.3350   40.0390 C   0  0  0  0  0  0  0  0  0  0  0  0
   36.4000   29.2810   39.8180 C   0  0  0  0  0  0  0  0  0  0  0  0
   36.3420   28.3110   40.7700 N   0  0  0  0  0  0  0  0  0  0  0  0
   37.0960   28.3240   41.8890 C   0  0  0  0  0  0  0  0  0  0  0  0
   37.9500   29.3240   42.1030 N   0  0  0  0  0  0  0  0  0  0  0  0
   37.3820   31.1100   39.3390 H   0  0  0  0  0  0  0  0  0  0  0  0
   33.5000   29.1800   39.8040 F   0  0  0  0  0  0  0  0  0  0  0  0
   34.1730   29.0810   38.6500 C   0  0  0  0  0  0  0  0  0  0  0  0
   35.5360   29.1310   38.6830 C   0  0  0  0  0  0  0  0  0  0  0  0
   36.1130   29.0210   37.4340 C   0  0  0  0  0  0  0  0  0  0  0  0
   37.1950   29.0400   37.2680 H   0  0  0  0  0  0  0  0  0  0  0  0
   35.3830   28.8730   36.2720 C   0  0  0  0  0  0  0  0  0  0  0  0
   35.8490   28.7880   35.3070 H   0  0  0  0  0  0  0  0  0  0  0  0
   34.0060   28.8290   36.3000 C   0  0  0  0  0  3  0  0  0  0  0  0
   33.3940   28.9360   37.5300 C   0  0  0  0  0  3  0  0  0  0  0  0
   39.0080   31.4610   41.4060 C   0  0  0  0  0  0  0  0  0  0  0  0
   39.6090   31.4330   42.6370 F   0  0  0  0  0  0  0  0  0  0  0  0
   39.9800   31.4140   40.3930 F   0  0  0  0  0  0  0  0  0  0  0  0
   38.3230   32.6670   41.2070 F   0  0  0  0  0  0  0  0  0  0  0  0
   36.9730   27.2250   42.8800 C   0  0  0  0  0  0  0  0  0  0  0  0
   35.8650   27.3910   43.6800 F   0  0  0  0  0  0  0  0  0  0  0  0
   38.1290   27.1700   43.6790 F   0  0  0  0  0  0  0  0  0  0  0  0
   36.8810   25.9850   42.2880 F   0  0  0  0  0  0  0  0  0  0  0  0
  1 17  1  0  0  0  0
  1  6  1  0  0  0  0
  2  1  2  0  0  0  0
  3  2  1  0  0  0  0
  3  4  2  0  0  0  0
  4  5  1  0  0  0  0
  5  6  2  0  0  0  0
  5 21  1  0  0  0  0
  7  2  1  0  0  0  0
  9 10  1  0  0  0  0
  9  8  1  0  0  0  0
 10  3  1  0  0  0  0
 11 10  2  0  0  0  0
 12 11  1  0  0  0  0
 13 15  2  0  0  0  0
 13 11  1  0  0  0  0
 14 13  1  0  0  0  0
 15 16  1  0  0  0  0
 16  9  2  0  0  0  0
 17 18  1  0  0  0  0
 19 17  1  0  0  0  0
 20 17  1  0  0  0  0
 21 23  1  0  0  0  0
 21 22  1  0  0  0  0
 24 21  1  0  0  0  0
M  END
>  <minimizedAffinity>
-5.68968678

$$$$

 OpenBabel03252502333D

 24 25  0  0  0  0  0  0  0  0999 V2000
   36.7860   28.4060   41.7560 C   0  0  0  0  0  0  0  0  0  0  0  0
   37.6490   29.5090   41.6990 C   0  0  0  0  0  0  0  0  0  0  0  0
   37.5100   30.4160   40.6410 C   0  0  0  0  0  0  0  0  0  0  0  0
   36.5320   30.1570   39.7320 N   0  0  0  0  0  0  0  0  0  0  0  0
   35.7120   29.0860   39.8080 C   0  0  0  0  0  0  0  0  0  0  0  0
   35.8420   28.2210   40.8130 N   0  0  0  0  0  0  0  0  0  0  0  0
   38.3860   29.6580   42.4300 H   0  0  0  0  0  0  0  0  0  0  0  0
   40.3890   30.5750   40.3300 F   0  0  0  0  0  0  0  0  0  0  0  0
   39.6550   31.6930   40.2790 C   0  0  0  0  0  0  0  0  0  0  0  0
   38.3020   31.5930   40.4280 C   0  0  0  0  0  0  0  0  0  0  0  0
   37.6560   32.8100   40.3550 C   0  0  0  0  0  0  0  0  0  0  0  0
   36.5710   32.9210   40.4540 H   0  0  0  0  0  0  0  0  0  0  0  0
   38.3140   34.0060   40.1540 C   0  0  0  0  0  0  0  0  0  0  0  0
   37.7950   34.9460   40.1010 H   0  0  0  0  0  0  0  0  0  0  0  0
   39.6840   34.0470   40.0100 C   0  0  0  0  0  3  0  0  0  0  0  0
   40.3630   32.8500   40.0770 C   0  0  0  0  0  3  0  0  0  0  0  0
   36.9670   27.4650   42.8950 C   0  0  0  0  0  0  0  0  0  0  0  0
   35.8450   27.3680   43.6750 F   0  0  0  0  0  0  0  0  0  0  0  0
   37.3080   26.2040   42.3790 F   0  0  0  0  0  0  0  0  0  0  0  0
   38.0750   27.8670   43.6540 F   0  0  0  0  0  0  0  0  0  0  0  0
   34.6690   28.8750   38.7730 C   0  0  0  0  0  0  0  0  0  0  0  0
   34.9110   29.6390   37.6530 F   0  0  0  0  0  0  0  0  0  0  0  0
   33.4040   29.1930   39.2980 F   0  0  0  0  0  0  0  0  0  0  0  0
   34.5770   27.5610   38.3730 F   0  0  0  0  0  0  0  0  0  0  0  0
  1 17  1  0  0  0  0
  2  1  1  0  0  0  0
  2  7  1  0  0  0  0
  3  2  2  0  0  0  0
  4  5  2  0  0  0  0
  4  3  1  0  0  0  0
  5  6  1  0  0  0  0
  6  1  2  0  0  0  0
  9  8  1  0  0  0  0
  9 10  1  0  0  0  0
 10  3  1  0  0  0  0
 11 10  2  0  0  0  0
 11 12  1  0  0  0  0
 13 11  1  0  0  0  0
 14 13  1  0  0  0  0
 15 16  1  0  0  0  0
 15 13  2  0  0  0  0
 16  9  2  0  0  0  0
 17 20  1  0  0  0  0
 17 18  1  0  0  0  0
 19 17  1  0  0  0  0
 21 23  1  0  0  0  0
 21  5  1  0  0  0  0
 22 21  1  0  0  0  0
 24 21  1  0  0  0  0
M  END
>  <minimizedAffinity>
-5.67784929

$$$$

 OpenBabel03252502333D

 24 25  0  0  0  0  0  0  0  0999 V2000
   37.0810   29.3140   41.4580 C   0  0  0  0  0  0  0  0  0  0  0  0
   36.2250   28.8220   40.4640 C   0  0  0  0  0  0  0  0  0  0  0  0
   35.9630   29.6240   39.3460 C   0  0  0  0  0  0  0  0  0  0  0  0
   36.5680   30.8410   39.3060 N   0  0  0  0  0  0  0  0  0  0  0  0
   37.3890   31.2950   40.2770 C   0  0  0  0  0  0  0  0  0  0  0  0
   37.6400   30.5350   41.3420 N   0  0  0  0  0  0  0  0  0  0  0  0
   35.7860   27.8730   40.5480 H   0  0  0  0  0  0  0  0  0  0  0  0
   33.0880   29.2400   39.3730 F   0  0  0  0  0  0  0  0  0  0  0  0
   33.7650   29.0940   38.2270 C   0  0  0  0  0  0  0  0  0  0  0  0
   35.1170   29.2800   38.2400 C   0  0  0  0  0  0  0  0  0  0  0  0
   35.7010   29.1050   37.0020 C   0  0  0  0  0  0  0  0  0  0  0  0
   36.7750   29.2130   36.8230 H   0  0  0  0  0  0  0  0  0  0  0  0
   34.9870   28.7730   35.8680 C   0  0  0  0  0  0  0  0  0  0  0  0
   35.4580   28.6390   34.9110 H   0  0  0  0  0  0  0  0  0  0  0  0
   33.6210   28.5970   35.9150 C   0  0  0  0  0  3  0  0  0  0  0  0
   33.0030   28.7650   37.1350 C   0  0  0  0  0  3  0  0  0  0  0  0
   37.3330   28.4320   42.6300 C   0  0  0  0  0  0  0  0  0  0  0  0
   36.2090   27.7560   43.0260 F   0  0  0  0  0  0  0  0  0  0  0  0
   38.3490   27.5240   42.2920 F   0  0  0  0  0  0  0  0  0  0  0  0
   37.8550   29.2000   43.6800 F   0  0  0  0  0  0  0  0  0  0  0  0
   38.0100   32.6380   40.1570 C   0  0  0  0  0  0  0  0  0  0  0  0
   37.0630   33.6100   39.9270 F   0  0  0  0  0  0  0  0  0  0  0  0
   38.9510   32.6370   39.1120 F   0  0  0  0  0  0  0  0  0  0  0  0
   38.7170   32.9980   41.2830 F   0  0  0  0  0  0  0  0  0  0  0  0
  1 17  1  0  0  0  0
  2  7  1  0  0  0  0
  2  1  2  0  0  0  0
  3  2  1  0  0  0  0
  4  3  2  0  0  0  0
  4  5  1  0  0  0  0
  5  6  2  0  0  0  0
  6  1  1  0  0  0  0
  9 10  1  0  0  0  0
  9  8  1  0  0  0  0
 10  3  1  0  0  0  0
 11 10  2  0  0  0  0
 12 11  1  0  0  0  0
 13 15  2  0  0  0  0
 13 11  1  0  0  0  0
 14 13  1  0  0  0  0
 15 16  1  0  0  0  0
 16  9  2  0  0  0  0
 17 18  1  0  0  0  0
 17 20  1  0  0  0  0
 19 17  1  0  0  0  0
 21  5  1  0  0  0  0
 21 24  1  0  0  0  0
 22 21  1  0  0  0  0
 23 21  1  0  0  0  0
M  END
>  <minimizedAffinity>
-5.65229464

$$$$

 OpenBabel03252502333D

 24 25  0  0  0  0  0  0  0  0999 V2000
   35.5810   29.1630   39.6520 C   0  0  0  0  0  0  0  0  0  0  0  0
   36.3650   30.2940   39.3890 C   0  0  0  0  0  0  0  0  0  0  0  0
   37.4030   30.6120   40.2750 C   0  0  0  0  0  0  0  0  0  0  0  0
   37.5770   29.7860   41.3410 N   0  0  0  0  0  0  0  0  0  0  0  0
   36.8080   28.7010   41.5740 C   0  0  0  0  0  0  0  0  0  0  0  0
   35.8190   28.3970   40.7340 N   0  0  0  0  0  0  0  0  0  0  0  0
   36.1850   30.8950   38.5490 H   0  0  0  0  0  0  0  0  0  0  0  0
   40.2720   30.5340   39.8510 F   0  0  0  0  0  0  0  0  0  0  0  0
   39.6500   31.7150   39.9610 C   0  0  0  0  0  0  0  0  0  0  0  0
   38.2990   31.7250   40.1600 C   0  0  0  0  0  0  0  0  0  0  0  0
   37.7750   32.9980   40.2550 C   0  0  0  0  0  0  0  0  0  0  0  0
   36.7110   33.1990   40.4150 H   0  0  0  0  0  0  0  0  0  0  0  0
   38.5410   34.1430   40.1590 C   0  0  0  0  0  0  0  0  0  0  0  0
   38.1160   35.1270   40.2370 H   0  0  0  0  0  0  0  0  0  0  0  0
   39.9030   34.0710   39.9580 C   0  0  0  0  0  3  0  0  0  0  0  0
   40.4620   32.8150   39.8580 C   0  0  0  0  0  3  0  0  0  0  0  0
   34.4880   28.8600   38.6890 C   0  0  0  0  0  0  0  0  0  0  0  0
   33.2480   29.1290   39.2050 F   0  0  0  0  0  0  0  0  0  0  0  0
   34.7000   29.6160   37.5240 F   0  0  0  0  0  0  0  0  0  0  0  0
   34.5870   27.5220   38.2860 F   0  0  0  0  0  0  0  0  0  0  0  0
   37.0640   27.8510   42.7630 C   0  0  0  0  0  0  0  0  0  0  0  0
   35.8890   27.4830   43.3810 F   0  0  0  0  0  0  0  0  0  0  0  0
   37.8820   28.5410   43.6770 F   0  0  0  0  0  0  0  0  0  0  0  0
   37.7540   26.7000   42.4550 F   0  0  0  0  0  0  0  0  0  0  0  0
  1  6  1  0  0  0  0
  2  1  2  0  0  0  0
  2  3  1  0  0  0  0
  3  4  2  0  0  0  0
  4  5  1  0  0  0  0
  5 21  1  0  0  0  0
  6  5  2  0  0  0  0
  7  2  1  0  0  0  0
  8  9  1  0  0  0  0
  9 10  1  0  0  0  0
 10 11  2  0  0  0  0
 10  3  1  0  0  0  0
 11 12  1  0  0  0  0
 13 14  1  0  0  0  0
 13 11  1  0  0  0  0
 15 13  2  0  0  0  0
 16 15  1  0  0  0  0
 16  9  2  0  0  0  0
 17 18  1  0  0  0  0
 17  1  1  0  0  0  0
 19 17  1  0  0  0  0
 20 17  1  0  0  0  0
 21 22  1  0  0  0  0
 21 23  1  0  0  0  0
 24 21  1  0  0  0  0
M  END
>  <minimizedAffinity>
-5.62039614

$$$$

 OpenBabel03252502333D

 24 25  0  0  0  0  0  0  0  0999 V2000
   37.5410   31.5410   40.2680 C   0  0  0  0  0  0  0  0  0  0  0  0
   36.7610   31.1800   39.1620 C   0  0  0  0  0  0  0  0  0  0  0  0
   36.1620   29.9140   39.1490 C   0  0  0  0  0  0  0  0  0  0  0  0
   36.3830   29.1160   40.2270 N   0  0  0  0  0  0  0  0  0  0  0  0
   37.1390   29.4870   41.2820 C   0  0  0  0  0  0  0  0  0  0  0  0
   37.7120   30.6890   41.2990 N   0  0  0  0  0  0  0  0  0  0  0  0
   36.6250   31.8380   38.3570 H   0  0  0  0  0  0  0  0  0  0  0  0
   33.3720   29.1380   39.3250 F   0  0  0  0  0  0  0  0  0  0  0  0
   34.0230   29.0110   38.1620 C   0  0  0  0  0  0  0  0  0  0  0  0
   35.3350   29.3830   38.1040 C   0  0  0  0  0  0  0  0  0  0  0  0
   35.8940   29.2070   36.8550 C   0  0  0  0  0  0  0  0  0  0  0  0
   36.9350   29.4510   36.6230 H   0  0  0  0  0  0  0  0  0  0  0  0
   35.1950   28.7040   35.7760 C   0  0  0  0  0  0  0  0  0  0  0  0
   35.6460   28.5720   34.8090 H   0  0  0  0  0  0  0  0  0  0  0  0
   33.8690   28.3450   35.8940 C   0  0  0  0  0  3  0  0  0  0  0  0
   33.2770   28.5070   37.1270 C   0  0  0  0  0  3  0  0  0  0  0  0
   38.1630   32.8930   40.2440 C   0  0  0  0  0  0  0  0  0  0  0  0
   38.7380   33.2240   41.4420 F   0  0  0  0  0  0  0  0  0  0  0  0
   39.1250   32.9220   39.2210 F   0  0  0  0  0  0  0  0  0  0  0  0
   37.1960   33.8380   39.8710 F   0  0  0  0  0  0  0  0  0  0  0  0
   37.3320   28.5540   42.4210 C   0  0  0  0  0  0  0  0  0  0  0  0
   36.1770   27.8590   42.7030 F   0  0  0  0  0  0  0  0  0  0  0  0
   37.7430   29.2700   43.5610 F   0  0  0  0  0  0  0  0  0  0  0  0
   38.3300   27.6330   42.1910 F   0  0  0  0  0  0  0  0  0  0  0  0
  1  6  1  0  0  0  0
  2  1  2  0  0  0  0
  3  2  1  0  0  0  0
  3  4  2  0  0  0  0
  4  5  1  0  0  0  0
  5  6  2  0  0  0  0
  5 21  1  0  0  0  0
  7  2  1  0  0  0  0
  9  8  1  0  0  0  0
 10  9  1  0  0  0  0
 10  3  1  0  0  0  0
 11 10  2  0  0  0  0
 12 11  1  0  0  0  0
 13 15  2  0  0  0  0
 13 11  1  0  0  0  0
 14 13  1  0  0  0  0
 15 16  1  0  0  0  0
 16  9  2  0  0  0  0
 17  1  1  0  0  0  0
 17 18  1  0  0  0  0
 19 17  1  0  0  0  0
 20 17  1  0  0  0  0
 21 22  1  0  0  0  0
 21 23  1  0  0  0  0
 24 21  1  0  0  0  0
M  END
>  <minimizedAffinity>
-5.6128993

$$$$

 OpenBabel03252502333D

 24 25  0  0  0  0  0  0  0  0999 V2000
   37.2860   30.2490   38.0980 C   0  0  0  0  0  0  0  0  0  0  0  0
   37.4240   29.2590   39.0800 C   0  0  0  0  0  0  0  0  0  0  0  0
   37.8560   29.6370   40.3580 C   0  0  0  0  0  0  0  0  0  0  0  0
   38.1130   30.9580   40.5560 N   0  0  0  0  0  0  0  0  0  0  0  0
   37.9730   31.8940   39.5930 C   0  0  0  0  0  0  0  0  0  0  0  0
   37.5630   31.5380   38.3760 N   0  0  0  0  0  0  0  0  0  0  0  0
   37.2110   28.2540   38.8700 H   0  0  0  0  0  0  0  0  0  0  0  0
   35.8260   28.2000   41.8500 F   0  0  0  0  0  0  0  0  0  0  0  0
   37.1140   28.0750   42.1940 C   0  0  0  0  0  0  0  0  0  0  0  0
   38.0510   28.7610   41.4770 C   0  0  0  0  0  0  0  0  0  0  0  0
   39.3390   28.5500   41.9250 C   0  0  0  0  0  0  0  0  0  0  0  0
   40.2170   29.0190   41.4700 H   0  0  0  0  0  0  0  0  0  0  0  0
   39.6460   27.7290   42.9910 C   0  0  0  0  0  0  0  0  0  0  0  0
   40.6550   27.5770   43.3280 H   0  0  0  0  0  0  0  0  0  0  0  0
   38.6560   27.0600   43.6790 C   0  0  0  0  0  3  0  0  0  0  0  0
   37.3570   27.2460   43.2600 C   0  0  0  0  0  3  0  0  0  0  0  0
   36.8260   29.8070   36.7540 C   0  0  0  0  0  0  0  0  0  0  0  0
   37.5050   28.7050   36.3060 F   0  0  0  0  0  0  0  0  0  0  0  0
   35.4500   29.5320   36.8230 F   0  0  0  0  0  0  0  0  0  0  0  0
   36.9460   30.8740   35.8530 F   0  0  0  0  0  0  0  0  0  0  0  0
   38.2760   33.3160   39.8910 C   0  0  0  0  0  0  0  0  0  0  0  0
   39.3990   33.7430   39.2190 F   0  0  0  0  0  0  0  0  0  0  0  0
   38.4590   33.4860   41.2750 F   0  0  0  0  0  0  0  0  0  0  0  0
   37.2410   34.1610   39.5540 F   0  0  0  0  0  0  0  0  0  0  0  0
  1  6  2  0  0  0  0
  1  2  1  0  0  0  0
  2  3  2  0  0  0  0
  3  4  1  0  0  0  0
  3 10  1  0  0  0  0
  5 21  1  0  0  0  0
  5  4  2  0  0  0  0
  6  5  1  0  0  0  0
  7  2  1  0  0  0  0
  8  9  1  0  0  0  0
  9 16  1  0  0  0  0
 10 11  1  0  0  0  0
 10  9  2  0  0  0  0
 11 13  2  0  0  0  0
 12 11  1  0  0  0  0
 13 14  1  0  0  0  0
 13 15  1  0  0  0  0
 16 15  2  0  0  0  0
 17 19  1  0  0  0  0
 17  1  1  0  0  0  0
 18 17  1  0  0  0  0
 20 17  1  0  0  0  0
 21 23  1  0  0  0  0
 22 21  1  0  0  0  0
 24 21  1  0  0  0  0
M  END
>  <minimizedAffinity>
-5.45188475

$$$$

 OpenBabel03252502333D

 24 25  0  0  0  0  0  0  0  0999 V2000
   38.1590   27.8730   42.0930 C   0  0  0  0  0  0  0  0  0  0  0  0
   37.7120   29.0830   41.5470 C   0  0  0  0  0  0  0  0  0  0  0  0
   38.6250   30.1360   41.4120 C   0  0  0  0  0  0  0  0  0  0  0  0
   39.8990   29.9050   41.8270 N   0  0  0  0  0  0  0  0  0  0  0  0
   40.3070   28.7290   42.3510 C   0  0  0  0  0  0  0  0  0  0  0  0
   39.4410   27.7240   42.4810 N   0  0  0  0  0  0  0  0  0  0  0  0
   36.7160   29.2050   41.2430 H   0  0  0  0  0  0  0  0  0  0  0  0
   36.3760   30.9100   39.7520 F   0  0  0  0  0  0  0  0  0  0  0  0
   37.2910   31.8240   40.0940 C   0  0  0  0  0  0  0  0  0  0  0  0
   38.3410   31.4360   40.8760 C   0  0  0  0  0  0  0  0  0  0  0  0
   39.2140   32.4660   41.1620 C   0  0  0  0  0  0  0  0  0  0  0  0
   40.1120   32.3390   41.7750 H   0  0  0  0  0  0  0  0  0  0  0  0
   39.0420   33.7550   40.7020 C   0  0  0  0  0  0  0  0  0  0  0  0
   39.7330   34.5460   40.9330 H   0  0  0  0  0  0  0  0  0  0  0  0
   37.9620   34.0900   39.9140 C   0  0  0  0  0  3  0  0  0  0  0  0
   37.0680   33.0870   39.6080 C   0  0  0  0  0  3  0  0  0  0  0  0
   37.1590   26.7780   42.2200 C   0  0  0  0  0  0  0  0  0  0  0  0
   36.6240   26.4170   41.0120 F   0  0  0  0  0  0  0  0  0  0  0  0
   37.7840   25.6730   42.8220 F   0  0  0  0  0  0  0  0  0  0  0  0
   36.1570   27.1720   43.1180 F   0  0  0  0  0  0  0  0  0  0  0  0
   41.7170   28.5570   42.7810 C   0  0  0  0  0  0  0  0  0  0  0  0
   42.2070   29.7030   43.3670 F   0  0  0  0  0  0  0  0  0  0  0  0
   42.5160   28.2130   41.6750 F   0  0  0  0  0  0  0  0  0  0  0  0
   41.8770   27.5250   43.6800 F   0  0  0  0  0  0  0  0  0  0  0  0
  1 17  1  0  0  0  0
  1  6  1  0  0  0  0
  2  1  2  0  0  0  0
  3  2  1  0  0  0  0
  3  4  2  0  0  0  0
  4  5  1  0  0  0  0
  5  6  2  0  0  0  0
  5 21  1  0  0  0  0
  7  2  1  0  0  0  0
  8  9  1  0  0  0  0
  9 10  1  0  0  0  0
 10 11  2  0  0  0  0
 10  3  1  0  0  0  0
 11 12  1  0  0  0  0
 13 14  1  0  0  0  0
 13 11  1  0  0  0  0
 15 13  2  0  0  0  0
 16 15  1  0  0  0  0
 16  9  2  0  0  0  0
 17 19  1  0  0  0  0
 17 20  1  0  0  0  0
 18 17  1  0  0  0  0
 21 22  1  0  0  0  0
 21 24  1  0  0  0  0
 23 21  1  0  0  0  0
M  END
>  <minimizedAffinity>
-5.1953187

$$$$

 OpenBabel03252502333D

 24 25  0  0  0  0  0  0  0  0999 V2000
   36.8440   30.0450   37.3000 C   0  0  0  0  0  0  0  0  0  0  0  0
   36.8200   28.9450   38.1670 C   0  0  0  0  0  0  0  0  0  0  0  0
   37.1400   29.1460   39.5150 C   0  0  0  0  0  0  0  0  0  0  0  0
   37.4540   30.4140   39.8910 N   0  0  0  0  0  0  0  0  0  0  0  0
   37.4700   31.4600   39.0370 C   0  0  0  0  0  0  0  0  0  0  0  0
   37.1670   31.2720   37.7530 N   0  0  0  0  0  0  0  0  0  0  0  0
   36.5700   27.9870   37.8200 H   0  0  0  0  0  0  0  0  0  0  0  0
   38.3720   26.5230   39.3790 F   0  0  0  0  0  0  0  0  0  0  0  0
   37.7370   26.9000   40.4960 C   0  0  0  0  0  0  0  0  0  0  0  0
   37.1650   28.1390   40.5360 C   0  0  0  0  0  0  0  0  0  0  0  0
   36.5440   28.4110   41.7380 C   0  0  0  0  0  0  0  0  0  0  0  0
   36.0320   29.3550   41.9490 H   0  0  0  0  0  0  0  0  0  0  0  0
   36.5050   27.5190   42.7900 C   0  0  0  0  0  0  0  0  0  0  0  0
   36.0150   27.7470   43.7200 H   0  0  0  0  0  0  0  0  0  0  0  0
   37.1000   26.2800   42.6930 C   0  0  0  0  0  3  0  0  0  0  0  0
   37.7310   25.9720   41.5070 C   0  0  0  0  0  3  0  0  0  0  0  0
   36.5000   29.7900   35.8750 C   0  0  0  0  0  0  0  0  0  0  0  0
   35.1930   29.4110   35.7130 F   0  0  0  0  0  0  0  0  0  0  0  0
   36.7590   30.9580   35.1390 F   0  0  0  0  0  0  0  0  0  0  0  0
   37.3720   28.8240   35.3560 F   0  0  0  0  0  0  0  0  0  0  0  0
   37.8240   32.8150   39.5280 C   0  0  0  0  0  0  0  0  0  0  0  0
   36.9200   33.7590   39.0960 F   0  0  0  0  0  0  0  0  0  0  0  0
   39.1150   33.1600   39.0890 F   0  0  0  0  0  0  0  0  0  0  0  0
   37.8780   32.8840   40.9030 F   0  0  0  0  0  0  0  0  0  0  0  0
  1  6  2  0  0  0  0
  1  2  1  0  0  0  0
  2  3  2  0  0  0  0
  3  4  1  0  0  0  0
  3 10  1  0  0  0  0
  5 21  1  0  0  0  0
  5  4  2  0  0  0  0
  6  5  1  0  0  0  0
  7  2  1  0  0  0  0
  8  9  1  0  0  0  0
  9 10  2  0  0  0  0
  9 16  1  0  0  0  0
 10 11  1  0  0  0  0
 11 12  1  0  0  0  0
 11 13  2  0  0  0  0
 13 14  1  0  0  0  0
 15 13  1  0  0  0  0
 16 15  2  0  0  0  0
 17  1  1  0  0  0  0
 18 17  1  0  0  0  0
 19 17  1  0  0  0  0
 20 17  1  0  0  0  0
 21 24  1  0  0  0  0
 22 21  1  0  0  0  0
 23 21  1  0  0  0  0
M  END
>  <minimizedAffinity>
-5.18401527

$$$$
