
 OpenBabel03242521343D

 31 34  0  0  0  0  0  0  0  0999 V2000
   44.4780   35.9260   44.7810 C   0  0  0  0  0  0  0  0  0  0  0  0
   45.0690   35.8740   43.4900 C   0  0  0  0  0  0  0  0  0  0  0  0
   45.9630   34.8470   43.2260 C   0  0  0  0  0  0  0  0  0  0  0  0
   46.2380   33.9490   44.1870 N   0  0  0  0  0  0  0  0  0  0  0  0
   45.6530   34.0250   45.4190 C   0  0  0  0  0  0  0  0  0  0  0  0
   44.7920   35.0060   45.6870 N   0  0  0  0  0  0  0  0  0  0  0  0
   43.7880   36.7420   44.9400 H   0  0  0  0  0  0  0  0  0  0  0  0
   44.8620   36.5840   42.7100 H   0  0  0  0  0  0  0  0  0  0  0  0
   47.9100   35.2160   41.8280 C   0  0  0  0  0  0  0  0  0  0  0  0
   46.6330   34.6880   41.9440 C   0  0  0  0  0  0  0  0  0  0  0  0
   46.0930   34.0560   40.8490 C   0  0  0  0  0  0  0  0  0  0  0  0
   46.7690   33.9290   39.6480 C   0  0  0  0  0  0  0  0  0  0  0  0
   46.4260   33.3550   38.4670 N   0  0  0  0  0  0  0  0  0  0  0  0
   47.4780   33.5170   37.6100 C   0  0  0  0  0  0  0  0  0  0  0  0
   48.4540   34.1940   38.2870 N   0  0  0  0  0  0  0  0  0  0  0  0
   48.0340   34.4510   39.5340 C   0  0  0  0  0  0  0  0  0  0  0  0
   48.5980   35.0870   40.6100 C   0  0  0  0  0  0  0  0  0  0  0  0
   48.3750   35.7270   42.6790 H   0  0  0  0  0  0  0  0  0  0  0  0
   45.0980   33.6470   40.9420 H   0  0  0  0  0  0  0  0  0  0  0  0
   45.5500   32.8720   38.2110 H   0  0  0  0  0  0  0  0  0  0  0  0
   47.6150   33.2110   36.5800 H   0  0  0  0  0  0  0  0  0  0  0  0
   49.5900   35.5160   40.5760 H   0  0  0  0  0  0  0  0  0  0  0  0
   44.2600   33.8340   47.8660 F   0  0  0  0  0  0  0  0  0  0  0  0
   45.2740   32.9680   47.6110 C   0  0  0  0  0  0  0  0  0  0  0  0
   45.9860   33.0180   46.4350 C   0  0  0  0  0  0  0  0  0  0  0  0
   47.0210   32.1310   46.1800 C   0  0  0  0  0  0  0  0  0  0  0  0
   47.5900   32.1510   45.2680 H   0  0  0  0  0  0  0  0  0  0  0  0
   47.3120   31.1880   47.1630 C   0  0  0  0  0  0  0  0  0  0  0  0
   48.1310   30.4790   46.9720 H   0  0  0  0  0  0  0  0  0  0  0  0
   46.5820   31.1590   48.3370 C   0  0  0  0  0  0  0  0  0  0  0  0
   45.5590   32.0340   48.5890 C   0  0  0  0  0  0  0  0  0  0  0  0
  1  7  1  0  0  0  0
  1  6  1  0  0  0  0
  2  1  2  0  0  0  0
  3  2  1  0  0  0  0
  3  4  2  0  0  0  0
  4  5  1  0  0  0  0
  5  6  2  0  0  0  0
  5 25  1  0  0  0  0
  8  2  1  0  0  0  0
  9 10  1  0  0  0  0
  9 18  1  0  0  0  0
 10  3  1  0  0  0  0
 11 19  1  0  0  0  0
 11 10  2  0  0  0  0
 12 11  1  0  0  0  0
 13 12  1  0  0  0  0
 14 15  2  0  0  0  0
 14 13  1  0  0  0  0
 15 16  1  0  0  0  0
 16 12  2  0  0  0  0
 16 17  1  0  0  0  0
 17  9  2  0  0  0  0
 20 13  1  0  0  0  0
 21 14  1  0  0  0  0
 22 17  1  0  0  0  0
 24 23  1  0  0  0  0
 24 31  1  0  0  0  0
 25 24  2  0  0  0  0
 26 25  1  0  0  0  0
 26 28  2  0  0  0  0
 27 26  1  0  0  0  0
 28 30  1  0  0  0  0
 29 28  1  0  0  0  0
 30 31  2  0  0  0  0
M  END
>  <minimizedAffinity>
-7.2977047

>  <minimizedRMSD>
0.473700166

$$$$
