
 OpenBabel03252508383D

 41 44  0  0  0  0  0  0  0  0999 V2000
   45.1540   33.9490   40.7000 C   0  0  0  0  0  0  0  0  0  0  0  0
   44.1120   33.6350   39.8810 C   0  0  0  0  0  0  0  0  0  0  0  0
   44.4110   33.1540   38.6340 C   0  0  0  0  0  0  0  0  0  0  0  0
   45.6970   32.9720   38.1680 C   0  0  0  0  0  0  0  0  0  0  0  0
   46.7250   33.2980   39.0180 C   0  0  0  0  0  0  0  0  0  0  0  0
   46.4720   33.7870   40.2850 C   0  0  0  0  0  0  0  0  0  0  0  0
   43.5900   32.9010   37.9740 H   0  0  0  0  0  0  0  0  0  0  0  0
   45.9130   32.5890   37.1770 H   0  0  0  0  0  0  0  0  0  0  0  0
   47.7400   33.1530   38.6490 H   0  0  0  0  0  0  0  0  0  0  0  0
   40.8240   35.2490   40.7900 C   0  0  0  0  0  0  0  0  0  0  0  0
   42.1210   35.0790   40.2740 C   0  0  0  0  0  0  0  0  0  0  0  0
   42.7750   33.8380   40.4030 C   0  0  0  0  0  0  0  0  0  0  0  0
   42.0680   32.8840   41.0360 N   0  0  0  0  0  0  0  0  0  0  0  0
   40.8430   33.0550   41.5200 C   0  0  0  0  0  0  0  0  0  0  0  0
   40.2190   34.2310   41.3990 N   0  0  0  0  0  0  0  0  0  0  0  0
   40.2160   36.5210   40.6310 N   0  0  0  0  0  0  0  0  0  0  0  0
   42.6430   35.8910   39.7710 H   0  0  0  0  0  0  0  0  0  0  0  0
   40.3660   32.2050   42.0150 H   0  0  0  0  0  0  0  0  0  0  0  0
   39.7860   36.9050   39.7600 H   0  0  0  0  0  0  0  0  0  0  0  0
   40.0790   37.2960   41.3140 H   0  0  0  0  0  0  0  0  0  0  0  0
   47.6250   34.1020   41.1030 C   0  0  0  0  0  0  0  0  0  0  0  0
   48.1360   35.3730   40.9500 C   0  0  0  0  0  0  0  0  0  0  0  0
   49.2400   35.8590   41.6490 C   0  0  0  0  0  0  0  0  0  0  0  0
   49.8500   35.0030   42.5470 C   0  0  0  0  0  0  0  0  0  0  0  0
   49.3600   33.7230   42.7220 C   0  0  0  0  0  0  0  0  0  0  0  0
   48.2610   33.2910   42.0030 C   0  0  0  0  0  0  0  0  0  0  0  0
   47.7050   36.0960   40.2590 H   0  0  0  0  0  0  0  0  0  0  0  0
   49.6400   36.8470   41.5320 H   0  0  0  0  0  0  0  0  0  0  0  0
   50.7130   35.2530   43.1540 H   0  0  0  0  0  0  0  0  0  0  0  0
   49.7780   32.9950   43.4050 H   0  0  0  0  0  0  0  0  0  0  0  0
   49.3530   31.3750   40.4140 F   0  0  0  0  0  0  0  0  0  0  0  0
   48.3620   31.0490   41.3090 C   0  0  0  0  0  0  0  0  0  0  0  0
   47.7260   31.9460   42.1760 C   0  0  0  0  0  0  0  0  0  0  0  0
   46.7420   31.4570   43.0200 C   0  0  0  0  0  0  0  0  0  0  0  0
   46.3300   32.2260   43.6290 H   0  0  0  0  0  0  0  0  0  0  0  0
   46.4280   30.1200   42.9770 C   0  0  0  0  0  0  0  0  0  0  0  0
   45.6440   29.8290   43.6740 H   0  0  0  0  0  0  0  0  0  0  0  0
   47.0580   29.2440   42.1190 C   0  0  0  0  0  3  0  0  0  0  0  0
   48.0540   29.7140   41.2590 C   0  0  0  0  0  3  0  0  0  0  0  0
   44.7470   34.8780   43.1030 N   0  0  0  0  0  0  0  0  0  0  0  0
   44.9390   34.4640   42.0280 C   0  0  0  0  0  0  0  0  0  0  0  0
  1 41  1  0  0  0  0
  2 12  1  0  0  0  0
  2  1  2  0  0  0  0
  3  2  1  0  0  0  0
  4  3  2  0  0  0  0
  4  5  1  0  0  0  0
  5  6  2  0  0  0  0
  6  1  1  0  0  0  0
  6 21  1  0  0  0  0
  7  3  1  0  0  0  0
  8  4  1  0  0  0  0
  9  5  1  0  0  0  0
 10 15  1  0  0  0  0
 11 12  1  0  0  0  0
 11 10  2  0  0  0  0
 12 13  2  0  0  0  0
 13 14  1  0  0  0  0
 14 18  1  0  0  0  0
 15 14  2  0  0  0  0
 16 10  1  0  0  0  0
 16 20  1  0  0  0  0
 17 11  1  0  0  0  0
 19 16  1  0  0  0  0
 21 26  1  0  0  0  0
 22 21  2  0  0  0  0
 22 23  1  0  0  0  0
 23 24  2  0  0  0  0
 24 25  1  0  0  0  0
 24 29  1  0  0  0  0
 25 30  1  0  0  0  0
 26 33  1  0  0  0  0
 26 25  2  0  0  0  0
 27 22  1  0  0  0  0
 28 23  1  0  0  0  0
 31 32  1  0  0  0  0
 32 33  1  0  0  0  0
 33 34  2  0  0  0  0
 34 35  1  0  0  0  0
 36 34  1  0  0  0  0
 36 37  1  0  0  0  0
 38 36  2  0  0  0  0
 39 32  2  0  0  0  0
 39 38  1  0  0  0  0
 41 40  3  0  0  0  0
M  END
>  <minimizedAffinity>
-6.08563948

>  <minimizedRMSD>
0.495778352

$$$$
