
 OpenBabel03242521053D

 34 37  0  0  1  0  0  0  0  0999 V2000
   46.7810   34.8270   42.1310 C   0  0  0  0  0  0  0  0  0  0  0  0
   47.9890   35.4810   41.9340 C   0  0  0  0  0  0  0  0  0  0  0  0
   48.7480   35.3960   40.7910 C   0  0  0  0  0  0  0  0  0  0  0  0
   48.3010   34.6130   39.7530 C   0  0  0  0  0  0  0  0  0  0  0  0
   47.1010   33.9730   39.9690 C   0  0  0  0  0  0  0  0  0  0  0  0
   46.3930   34.0790   41.0900 N   0  0  0  0  0  0  0  0  0  0  0  0
   48.3900   36.1120   42.7170 H   0  0  0  0  0  0  0  0  0  0  0  0
   49.6890   35.9300   40.6880 H   0  0  0  0  0  0  0  0  0  0  0  0
   48.9120   34.5620   38.8670 H   0  0  0  0  0  0  0  0  0  0  0  0
   44.4520   35.9270   44.8830 C   0  0  0  0  0  0  0  0  0  0  0  0
   45.1090   35.9620   43.6330 C   0  0  0  0  0  0  0  0  0  0  0  0
   46.0130   34.9500   43.3650 C   0  0  0  0  0  0  0  0  0  0  0  0
   46.2210   33.9870   44.3010 N   0  0  0  0  0  0  0  0  0  0  0  0
   45.5710   33.9830   45.4960 C   0  0  0  0  0  0  0  0  0  0  0  0
   44.6910   34.9690   45.7560 N   0  0  0  0  0  0  0  0  0  0  0  0
   43.7490   36.7330   45.0680 H   0  0  0  0  0  0  0  0  0  0  0  0
   44.9650   36.7150   42.8690 H   0  0  0  0  0  0  0  0  0  0  0  0
   45.8290   33.1580   46.1530 H   0  0  0  0  0  0  0  0  0  0  0  0
   46.5800   33.1120   38.8630 C   0  0  2  0  0  0  0  0  0  0  0  0
   46.9130   31.6490   38.9860 C   0  0  0  0  0  0  0  0  0  0  0  0
   47.5260   32.5300   37.9260 C   0  0  1  0  0  0  0  0  0  0  0  0
   45.5320   33.2980   38.5280 H   0  0  0  0  0  0  0  0  0  0  0  0
   47.6200   31.3250   39.7710 H   0  0  0  0  0  0  0  0  0  0  0  0
   46.1890   30.8960   38.6270 H   0  0  0  0  0  0  0  0  0  0  0  0
   48.5820   32.8530   38.0250 H   0  0  0  0  0  0  0  0  0  0  0  0
   49.4650   32.1070   36.0340 F   0  0  0  0  0  0  0  0  0  0  0  0
   48.1570   32.1610   35.6630 C   0  0  0  0  0  0  0  0  0  0  0  0
   47.0780   32.3680   36.5160 C   0  0  0  0  0  0  0  0  0  0  0  0
   45.7920   32.4030   36.0180 C   0  0  0  0  0  0  0  0  0  0  0  0
   45.0260   32.5740   36.7900 H   0  0  0  0  0  0  0  0  0  0  0  0
   45.5780   32.2300   34.6670 C   0  0  0  0  0  0  0  0  0  0  0  0
   44.5510   32.2660   34.3340 H   0  0  0  0  0  0  0  0  0  0  0  0
   46.6590   32.0250   33.8350 C   0  0  0  0  0  0  0  0  0  0  0  0
   47.9690   31.9820   34.2870 C   0  0  0  0  0  0  0  0  0  0  0  0
  1 12  1  0  0  0  0
  2  1  1  0  0  0  0
  2  7  1  0  0  0  0
  3  2  2  0  0  0  0
  4  5  2  0  0  0  0
  4  3  1  0  0  0  0
  5  6  1  0  0  0  0
  6  1  2  0  0  0  0
  8  3  1  0  0  0  0
  9  4  1  0  0  0  0
 10 16  1  0  0  0  0
 10 15  1  0  0  0  0
 11 10  2  0  0  0  0
 12 11  1  0  0  0  0
 12 13  2  0  0  0  0
 13 14  1  0  0  0  0
 14 15  2  0  0  0  0
 14 18  1  0  0  0  0
 17 11  1  0  0  0  0
 19 22  1  6  0  0  0
 19 20  1  0  0  0  0
 19  5  1  0  0  0  0
 20 23  1  0  0  0  0
 21 25  1  1  0  0  0
 21 19  1  0  0  0  0
 21 20  1  0  0  0  0
 24 20  1  0  0  0  0
 27 26  1  0  0  0  0
 27 28  1  0  0  0  0
 28 21  1  0  0  0  0
 29 28  2  0  0  0  0
 29 30  1  0  0  0  0
 31 29  1  0  0  0  0
 32 31  1  0  0  0  0
 33 34  1  0  0  0  0
 33 31  2  0  0  0  0
 34 27  2  0  0  0  0
M  END
>  <minimizedAffinity>
-5.91820621

>  <minimizedRMSD>
1.61005175

$$$$
