
 OpenBabel03252508263D

 41 45  0  0  1  0  0  0  0  0999 V2000
   46.3790   32.3370   46.2890 C   0  0  1  0  0  0  0  0  0  0  0  0
   46.6960   32.5540   47.7080 C   0  0  0  0  0  0  0  0  0  0  0  0
   45.3740   31.8440   47.2120 C   0  0  2  0  0  0  0  0  0  0  0  0
   47.2640   31.7310   45.8780 H   0  0  0  0  0  0  0  0  0  0  0  0
   47.2720   31.8560   48.3310 H   0  0  0  0  0  0  0  0  0  0  0  0
   46.6000   33.5570   48.1530 H   0  0  0  0  0  0  0  0  0  0  0  0
   44.5910   32.4960   47.6970 H   0  0  0  0  0  0  0  0  0  0  0  0
   45.1490   30.4330   47.5390 C   0  0  0  0  0  0  0  0  0  0  0  0
   45.0510   29.8770   48.7790 C   0  0  0  0  0  0  0  0  0  0  0  0
   44.9630   28.5190   49.0530 C   0  0  0  0  0  0  0  0  0  0  0  0
   44.9780   27.6550   47.9480 C   0  0  0  0  0  0  0  0  0  0  0  0
   45.0760   28.2000   46.6660 C   0  0  0  0  0  0  0  0  0  0  0  0
   45.0230   27.3110   45.6080 C   0  0  0  0  0  0  0  0  0  0  0  0
   45.0440   27.8140   44.3110 C   0  0  0  0  0  0  0  0  0  0  0  0
   45.1130   29.1730   44.0800 C   0  0  0  0  0  0  0  0  0  0  0  0
   45.1650   30.0060   45.1730 C   0  0  0  0  0  0  0  0  0  0  0  0
   45.1560   29.5570   46.4820 C   0  0  0  0  0  0  0  0  0  0  0  0
   45.0430   30.5850   49.6050 H   0  0  0  0  0  0  0  0  0  0  0  0
   44.8850   28.1450   50.0650 H   0  0  0  0  0  0  0  0  0  0  0  0
   44.9140   26.5870   48.1160 H   0  0  0  0  0  0  0  0  0  0  0  0
   44.9660   26.2430   45.8160 H   0  0  0  0  0  0  0  0  0  0  0  0
   45.0010   27.0180   43.5500 H   0  0  0  0  0  0  0  0  0  0  0  0
   45.1150   29.3570   43.0270 H   0  0  0  0  0  0  0  0  0  0  0  0
   45.1280   30.9700   44.7530 H   0  0  0  0  0  0  0  0  0  0  0  0
   44.7640   35.3700   44.9400 C   0  0  0  0  0  0  0  0  0  0  0  0
   45.4240   35.5270   43.6720 C   0  0  0  0  0  0  0  0  0  0  0  0
   46.4190   34.5800   43.3320 C   0  0  0  0  0  0  0  0  0  0  0  0
   46.7160   33.5780   44.1870 N   0  0  0  0  0  0  0  0  0  0  0  0
   46.0460   33.4810   45.3900 C   0  0  0  0  0  0  0  0  0  0  0  0
   45.1050   34.3470   45.7510 N   0  0  0  0  0  0  0  0  0  0  0  0
   44.0110   36.1130   45.1600 H   0  0  0  0  0  0  0  0  0  0  0  0
   45.1490   36.3320   43.0440 H   0  0  0  0  0  0  0  0  0  0  0  0
   45.5460   33.1870   41.1480 F   0  0  0  0  0  0  0  0  0  0  0  0
   46.6590   33.9750   40.9750 C   0  0  0  0  0  0  0  0  0  0  0  0
   47.1200   34.6880   42.0610 C   0  0  0  0  0  0  0  0  0  0  0  0
   48.2200   35.4450   41.8290 C   0  0  0  0  0  0  0  0  0  0  0  0
   48.6380   36.0320   42.6330 H   0  0  0  0  0  0  0  0  0  0  0  0
   48.8540   35.5130   40.5910 C   0  0  0  0  0  0  0  0  0  0  0  0
   49.7370   36.1500   40.4880 H   0  0  0  0  0  0  0  0  0  0  0  0
   48.3440   34.7760   39.5420 C   0  0  0  0  0  3  0  0  0  0  0  0
   47.2350   33.9930   39.7220 C   0  0  0  0  0  3  0  0  0  0  0  0
  1  4  1  6  0  0  0
  1  3  1  0  0  0  0
  1  2  1  0  0  0  0
  2  6  1  0  0  0  0
  2  5  1  0  0  0  0
  3  8  1  0  0  0  0
  3  7  1  1  0  0  0
  3  2  1  0  0  0  0
  8  9  1  0  0  0  0
  9 10  2  0  0  0  0
  9 18  1  0  0  0  0
 10 19  1  0  0  0  0
 11 20  1  0  0  0  0
 11 10  1  0  0  0  0
 12 11  2  0  0  0  0
 13 21  1  0  0  0  0
 13 12  1  0  0  0  0
 14 13  2  0  0  0  0
 15 14  1  0  0  0  0
 15 16  2  0  0  0  0
 16 17  1  0  0  0  0
 17 12  1  0  0  0  0
 17  8  2  0  0  0  0
 22 14  1  0  0  0  0
 23 15  1  0  0  0  0
 24 16  1  0  0  0  0
 25 31  1  0  0  0  0
 25 30  1  0  0  0  0
 26 25  2  0  0  0  0
 27 26  1  0  0  0  0
 27 28  2  0  0  0  0
 28 29  1  0  0  0  0
 29 30  2  0  0  0  0
 29  1  1  0  0  0  0
 32 26  1  0  0  0  0
 34 33  1  0  0  0  0
 34 35  1  0  0  0  0
 35 27  1  0  0  0  0
 36 35  2  0  0  0  0
 36 37  1  0  0  0  0
 38 36  1  0  0  0  0
 39 38  1  0  0  0  0
 40 41  1  0  0  0  0
 40 38  2  0  0  0  0
 41 34  2  0  0  0  0
M  END
>  <minimizedAffinity>
-6.22176838

>  <minimizedRMSD>
0.803246081

$$$$
