
 OpenBabel03242518203D

 30 32  0  0  0  0  0  0  0  0999 V2000
   38.3240   28.5770   42.6320 C   0  0  0  0  0  0  0  0  0  0  0  0
   37.3560   28.3060   43.5620 C   0  0  0  0  0  0  0  0  0  0  0  0
   36.8210   27.0600   43.2180 C   0  0  0  0  0  0  0  0  0  0  0  0
   37.5100   26.6600   42.0910 C   0  0  0  0  0  0  0  0  0  0  0  0
   38.3600   27.5820   41.8090 O   0  0  0  0  0  0  0  0  0  0  0  0
   37.0360   28.9010   44.4040 H   0  0  0  0  0  0  0  0  0  0  0  0
   36.0390   26.5640   43.7540 H   0  0  0  0  0  0  0  0  0  0  0  0
   38.6230   24.1150   42.7960 F   0  0  0  0  0  0  0  0  0  0  0  0
   37.8740   24.2110   41.6740 C   0  0  0  0  0  0  0  0  0  0  0  0
   37.3380   25.4300   41.3310 C   0  0  0  0  0  0  0  0  0  0  0  0
   36.5960   25.4020   40.1700 C   0  0  0  0  0  0  0  0  0  0  0  0
   36.1350   26.3440   39.8330 H   0  0  0  0  0  0  0  0  0  0  0  0
   36.3720   24.3070   39.3850 C   0  0  0  0  0  0  0  0  0  0  0  0
   35.7730   24.3890   38.4880 H   0  0  0  0  0  0  0  0  0  0  0  0
   36.9270   23.1090   39.7630 C   0  0  0  0  0  3  0  0  0  0  0  0
   37.6790   23.0750   40.9170 C   0  0  0  0  0  3  0  0  0  0  0  0
   39.1640   29.8320   42.6200 C   0  0  0  0  0  0  0  0  0  0  0  0
   40.2000   29.5650   42.3300 H   0  0  0  0  0  0  0  0  0  0  0  0
   39.1730   30.2450   43.6410 H   0  0  0  0  0  0  0  0  0  0  0  0
   38.7790   32.9310   40.7110 C   0  0  0  0  0  0  0  0  0  0  0  0
   37.5240   32.8010   40.0800 C   0  0  0  0  0  0  0  0  0  0  0  0
   36.8260   31.6400   40.3250 C   0  0  0  0  0  0  0  0  0  0  0  0
   37.3590   30.6900   41.1410 N   0  0  0  0  0  0  0  0  0  0  0  0
   38.5670   30.8580   41.7250 C   0  0  0  0  0  0  0  0  0  0  0  0
   39.2820   32.0000   41.5010 N   0  0  0  0  0  0  0  0  0  0  0  0
   39.3910   33.8130   40.5720 H   0  0  0  0  0  0  0  0  0  0  0  0
   35.8800   31.5510   39.8440 H   0  0  0  0  0  0  0  0  0  0  0  0
   37.1360   33.8820   39.2730 N   0  0  0  0  0  0  0  0  0  0  0  0
   37.4030   34.0180   38.2670 H   0  0  0  0  0  0  0  0  0  0  0  0
   36.5660   34.4070   39.9760 H   0  0  0  0  0  0  0  0  0  0  0  0
  1  2  2  0  0  0  0
  2  6  1  0  0  0  0
  3  2  1  0  0  0  0
  3  7  1  0  0  0  0
  4  3  2  0  0  0  0
  5  4  1  0  0  0  0
  5  1  1  0  0  0  0
  9  8  1  0  0  0  0
 10  9  1  0  0  0  0
 10  4  1  0  0  0  0
 11 10  2  0  0  0  0
 12 11  1  0  0  0  0
 13 15  2  0  0  0  0
 13 11  1  0  0  0  0
 14 13  1  0  0  0  0
 15 16  1  0  0  0  0
 16  9  2  0  0  0  0
 17  1  1  0  0  0  0
 17 19  1  0  0  0  0
 18 17  1  0  0  0  0
 20 25  1  0  0  0  0
 21 22  1  0  0  0  0
 21 20  2  0  0  0  0
 22 23  2  0  0  0  0
 23 24  1  0  0  0  0
 24 17  1  0  0  0  0
 25 24  2  0  0  0  0
 26 20  1  0  0  0  0
 27 22  1  0  0  0  0
 28 30  1  0  0  0  0
 28 21  1  0  0  0  0
 29 28  1  0  0  0  0
M  END
>  <minimizedAffinity>
-6.01136875

$$$$

 OpenBabel03242518203D

 30 32  0  0  0  0  0  0  0  0999 V2000
   38.4410   28.8090   42.5530 C   0  0  0  0  0  0  0  0  0  0  0  0
   37.5890   28.5000   43.5790 C   0  0  0  0  0  0  0  0  0  0  0  0
   37.0200   27.2630   43.2540 C   0  0  0  0  0  0  0  0  0  0  0  0
   37.5750   26.9080   42.0420 C   0  0  0  0  0  0  0  0  0  0  0  0
   38.3840   27.8450   41.6970 O   0  0  0  0  0  0  0  0  0  0  0  0
   37.3670   29.0620   44.4730 H   0  0  0  0  0  0  0  0  0  0  0  0
   36.3070   26.7430   43.8590 H   0  0  0  0  0  0  0  0  0  0  0  0
   36.0950   26.8120   39.5890 F   0  0  0  0  0  0  0  0  0  0  0  0
   36.6070   25.6640   40.0860 C   0  0  0  0  0  0  0  0  0  0  0  0
   37.3190   25.7040   41.2630 C   0  0  0  0  0  0  0  0  0  0  0  0
   37.7890   24.4740   41.6680 C   0  0  0  0  0  0  0  0  0  0  0  0
   38.3690   24.4290   42.6030 H   0  0  0  0  0  0  0  0  0  0  0  0
   37.6070   23.2880   41.0160 C   0  0  0  0  0  0  0  0  0  0  0  0
   38.0180   22.3720   41.4170 H   0  0  0  0  0  0  0  0  0  0  0  0
   36.8900   23.2920   39.8430 C   0  0  0  0  0  3  0  0  0  0  0  0
   36.3930   24.4940   39.3880 C   0  0  0  0  0  3  0  0  0  0  0  0
   39.2720   30.0700   42.4890 C   0  0  0  0  0  0  0  0  0  0  0  0
   40.2960   29.8060   42.1610 H   0  0  0  0  0  0  0  0  0  0  0  0
   39.3190   30.4980   43.5030 H   0  0  0  0  0  0  0  0  0  0  0  0
   38.7480   33.1750   40.6230 C   0  0  0  0  0  0  0  0  0  0  0  0
   37.5070   32.9920   39.9790 C   0  0  0  0  0  0  0  0  0  0  0  0
   36.8650   31.7940   40.2000 C   0  0  0  0  0  0  0  0  0  0  0  0
   37.4380   30.8600   41.0070 N   0  0  0  0  0  0  0  0  0  0  0  0
   38.6320   31.0780   41.6040 C   0  0  0  0  0  0  0  0  0  0  0  0
   39.2900   32.2570   41.4030 N   0  0  0  0  0  0  0  0  0  0  0  0
   39.3170   34.0880   40.5020 H   0  0  0  0  0  0  0  0  0  0  0  0
   35.9280   31.6660   39.7090 H   0  0  0  0  0  0  0  0  0  0  0  0
   37.0720   34.0650   39.1840 N   0  0  0  0  0  0  0  0  0  0  0  0
   37.3400   34.2290   38.1830 H   0  0  0  0  0  0  0  0  0  0  0  0
   36.4700   34.5500   39.8900 H   0  0  0  0  0  0  0  0  0  0  0  0
  1  2  2  0  0  0  0
  2  6  1  0  0  0  0
  3  2  1  0  0  0  0
  3  7  1  0  0  0  0
  4  3  2  0  0  0  0
  5  4  1  0  0  0  0
  5  1  1  0  0  0  0
  8  9  1  0  0  0  0
  9 10  1  0  0  0  0
 10 11  2  0  0  0  0
 10  4  1  0  0  0  0
 11 12  1  0  0  0  0
 13 14  1  0  0  0  0
 13 11  1  0  0  0  0
 15 13  2  0  0  0  0
 16 15  1  0  0  0  0
 16  9  2  0  0  0  0
 17  1  1  0  0  0  0
 17 19  1  0  0  0  0
 18 17  1  0  0  0  0
 20 25  1  0  0  0  0
 21 22  1  0  0  0  0
 21 20  2  0  0  0  0
 22 23  2  0  0  0  0
 23 24  1  0  0  0  0
 24 17  1  0  0  0  0
 25 24  2  0  0  0  0
 26 20  1  0  0  0  0
 27 22  1  0  0  0  0
 28 30  1  0  0  0  0
 28 21  1  0  0  0  0
 29 28  1  0  0  0  0
M  END
>  <minimizedAffinity>
-5.91652536

$$$$

 OpenBabel03242518203D

 30 32  0  0  0  0  0  0  0  0999 V2000
   37.1650   29.2180   41.7420 C   0  0  0  0  0  0  0  0  0  0  0  0
   37.5780   28.9850   43.0270 C   0  0  0  0  0  0  0  0  0  0  0  0
   37.9790   27.6450   43.0710 C   0  0  0  0  0  0  0  0  0  0  0  0
   37.7780   27.1560   41.7960 C   0  0  0  0  0  0  0  0  0  0  0  0
   37.3070   28.1160   41.0830 O   0  0  0  0  0  0  0  0  0  0  0  0
   37.6060   29.6630   43.8660 H   0  0  0  0  0  0  0  0  0  0  0  0
   38.3570   27.1510   43.9410 H   0  0  0  0  0  0  0  0  0  0  0  0
   36.3470   24.8060   42.5960 F   0  0  0  0  0  0  0  0  0  0  0  0
   37.3470   24.6850   41.6950 C   0  0  0  0  0  0  0  0  0  0  0  0
   38.0370   25.8090   41.3070 C   0  0  0  0  0  0  0  0  0  0  0  0
   39.0320   25.5600   40.3860 C   0  0  0  0  0  0  0  0  0  0  0  0
   39.6260   26.4150   40.0290 H   0  0  0  0  0  0  0  0  0  0  0  0
   39.3570   24.3410   39.8640 C   0  0  0  0  0  0  0  0  0  0  0  0
   40.1580   24.2490   39.1430 H   0  0  0  0  0  0  0  0  0  0  0  0
   38.6430   23.2420   40.2780 C   0  0  0  0  0  3  0  0  0  0  0  0
   37.6350   23.4300   41.1990 C   0  0  0  0  0  3  0  0  0  0  0  0
   36.6440   30.5460   41.2440 C   0  0  0  0  0  0  0  0  0  0  0  0
   36.6870   31.2790   42.0730 H   0  0  0  0  0  0  0  0  0  0  0  0
   35.5930   30.4070   40.9420 H   0  0  0  0  0  0  0  0  0  0  0  0
   39.4270   31.6830   39.1580 C   0  0  0  0  0  0  0  0  0  0  0  0
   38.8660   31.8280   37.8720 C   0  0  0  0  0  0  0  0  0  0  0  0
   37.5280   31.5300   37.7440 C   0  0  0  0  0  0  0  0  0  0  0  0
   36.8210   31.1180   38.8310 N   0  0  0  0  0  0  0  0  0  0  0  0
   37.4010   30.9930   40.0460 C   0  0  0  0  0  0  0  0  0  0  0  0
   38.7260   31.2830   40.2030 N   0  0  0  0  0  0  0  0  0  0  0  0
   40.4720   31.8980   39.3440 H   0  0  0  0  0  0  0  0  0  0  0  0
   37.1130   31.6420   36.7690 H   0  0  0  0  0  0  0  0  0  0  0  0
   39.7490   32.2630   36.8710 N   0  0  0  0  0  0  0  0  0  0  0  0
   40.3810   31.6460   36.3060 H   0  0  0  0  0  0  0  0  0  0  0  0
   39.5450   33.2890   36.9160 H   0  0  0  0  0  0  0  0  0  0  0  0
  1  2  2  0  0  0  0
  2  3  1  0  0  0  0
  2  6  1  0  0  0  0
  3  7  1  0  0  0  0
  4  3  2  0  0  0  0
  5  1  1  0  0  0  0
  5  4  1  0  0  0  0
  9  8  1  0  0  0  0
 10  9  1  0  0  0  0
 10  4  1  0  0  0  0
 11 10  2  0  0  0  0
 12 11  1  0  0  0  0
 13 15  2  0  0  0  0
 13 11  1  0  0  0  0
 14 13  1  0  0  0  0
 15 16  1  0  0  0  0
 16  9  2  0  0  0  0
 17  1  1  0  0  0  0
 17 18  1  0  0  0  0
 19 17  1  0  0  0  0
 20 26  1  0  0  0  0
 20 25  1  0  0  0  0
 21 20  2  0  0  0  0
 22 21  1  0  0  0  0
 22 23  2  0  0  0  0
 23 24  1  0  0  0  0
 24 25  2  0  0  0  0
 24 17  1  0  0  0  0
 27 22  1  0  0  0  0
 28 30  1  0  0  0  0
 28 21  1  0  0  0  0
 29 28  1  0  0  0  0
M  END
>  <minimizedAffinity>
-5.78225231

$$$$

 OpenBabel03242518203D

 30 32  0  0  0  0  0  0  0  0999 V2000
   38.4730   29.2270   42.3710 C   0  0  0  0  0  0  0  0  0  0  0  0
   37.6110   28.9920   43.4080 C   0  0  0  0  0  0  0  0  0  0  0  0
   36.9740   27.7800   43.1200 C   0  0  0  0  0  0  0  0  0  0  0  0
   37.5010   27.3630   41.9150 C   0  0  0  0  0  0  0  0  0  0  0  0
   38.3580   28.2450   41.5410 O   0  0  0  0  0  0  0  0  0  0  0  0
   37.4260   29.5890   44.2880 H   0  0  0  0  0  0  0  0  0  0  0  0
   36.2370   27.3170   43.7410 H   0  0  0  0  0  0  0  0  0  0  0  0
   36.2790   27.3010   39.3230 F   0  0  0  0  0  0  0  0  0  0  0  0
   36.5880   26.1310   39.9260 C   0  0  0  0  0  0  0  0  0  0  0  0
   37.1750   26.1540   41.1700 C   0  0  0  0  0  0  0  0  0  0  0  0
   37.4410   24.9030   41.6810 C   0  0  0  0  0  0  0  0  0  0  0  0
   37.9120   24.8440   42.6750 H   0  0  0  0  0  0  0  0  0  0  0  0
   37.1770   23.7110   41.0680 C   0  0  0  0  0  0  0  0  0  0  0  0
   37.4250   22.7780   41.5550 H   0  0  0  0  0  0  0  0  0  0  0  0
   36.5900   23.7320   39.8260 C   0  0  0  0  0  3  0  0  0  0  0  0
   36.3000   24.9560   39.2640 C   0  0  0  0  0  3  0  0  0  0  0  0
   39.3710   30.4380   42.2690 C   0  0  0  0  0  0  0  0  0  0  0  0
   40.3470   30.1990   42.7350 H   0  0  0  0  0  0  0  0  0  0  0  0
   38.8970   31.2600   42.8290 H   0  0  0  0  0  0  0  0  0  0  0  0
   38.7380   32.2450   39.1490 C   0  0  0  0  0  0  0  0  0  0  0  0
   39.6970   31.7360   38.2480 C   0  0  0  0  0  0  0  0  0  0  0  0
   40.5510   30.7700   38.7330 C   0  0  0  0  0  0  0  0  0  0  0  0
   40.4410   30.3590   40.0260 N   0  0  0  0  0  0  0  0  0  0  0  0
   39.5060   30.8760   40.8550 C   0  0  0  0  0  0  0  0  0  0  0  0
   38.6450   31.8340   40.4010 N   0  0  0  0  0  0  0  0  0  0  0  0
   38.0290   33.0050   38.8480 H   0  0  0  0  0  0  0  0  0  0  0  0
   41.2710   30.3920   38.0450 H   0  0  0  0  0  0  0  0  0  0  0  0
   39.6610   32.2790   36.9540 N   0  0  0  0  0  0  0  0  0  0  0  0
   40.1400   33.1620   36.6510 H   0  0  0  0  0  0  0  0  0  0  0  0
   39.0590   31.5560   36.4960 H   0  0  0  0  0  0  0  0  0  0  0  0
  1  2  2  0  0  0  0
  2  6  1  0  0  0  0
  3  2  1  0  0  0  0
  3  7  1  0  0  0  0
  4  3  2  0  0  0  0
  5  4  1  0  0  0  0
  5  1  1  0  0  0  0
  8  9  1  0  0  0  0
  9 10  1  0  0  0  0
 10 11  2  0  0  0  0
 10  4  1  0  0  0  0
 11 12  1  0  0  0  0
 13 14  1  0  0  0  0
 13 11  1  0  0  0  0
 15 13  2  0  0  0  0
 16 15  1  0  0  0  0
 16  9  2  0  0  0  0
 17  1  1  0  0  0  0
 17 18  1  0  0  0  0
 17 19  1  0  0  0  0
 20 25  1  0  0  0  0
 21 22  1  0  0  0  0
 21 20  2  0  0  0  0
 22 23  2  0  0  0  0
 23 24  1  0  0  0  0
 24 17  1  0  0  0  0
 25 24  2  0  0  0  0
 26 20  1  0  0  0  0
 27 22  1  0  0  0  0
 28 21  1  0  0  0  0
 29 28  1  0  0  0  0
 30 28  1  0  0  0  0
M  END
>  <minimizedAffinity>
-5.48717928

$$$$

 OpenBabel03242518203D

 30 32  0  0  0  0  0  0  0  0999 V2000
   36.6700   29.8340   37.9150 C   0  0  0  0  0  0  0  0  0  0  0  0
   35.4290   29.3530   37.5950 C   0  0  0  0  0  0  0  0  0  0  0  0
   35.2020   28.2610   38.4400 C   0  0  0  0  0  0  0  0  0  0  0  0
   36.3350   28.1570   39.2210 C   0  0  0  0  0  0  0  0  0  0  0  0
   37.1390   29.0940   38.8640 O   0  0  0  0  0  0  0  0  0  0  0  0
   34.7320   29.7090   36.8510 H   0  0  0  0  0  0  0  0  0  0  0  0
   34.3140   27.6650   38.4390 H   0  0  0  0  0  0  0  0  0  0  0  0
   36.6340   28.7610   42.0060 F   0  0  0  0  0  0  0  0  0  0  0  0
   36.7520   27.4770   41.6020 C   0  0  0  0  0  0  0  0  0  0  0  0
   36.6100   27.1810   40.2660 C   0  0  0  0  0  0  0  0  0  0  0  0
   36.7520   25.8410   39.9760 C   0  0  0  0  0  0  0  0  0  0  0  0
   36.6500   25.5300   38.9250 H   0  0  0  0  0  0  0  0  0  0  0  0
   37.0090   24.8470   40.8770 C   0  0  0  0  0  0  0  0  0  0  0  0
   37.1030   23.8210   40.5480 H   0  0  0  0  0  0  0  0  0  0  0  0
   37.1450   25.1850   42.2020 C   0  0  0  0  0  3  0  0  0  0  0  0
   37.0130   26.5110   42.5520 C   0  0  0  0  0  3  0  0  0  0  0  0
   37.3230   31.0190   37.2430 C   0  0  0  0  0  0  0  0  0  0  0  0
   36.5550   31.5700   36.6660 H   0  0  0  0  0  0  0  0  0  0  0  0
   38.0880   30.6360   36.5480 H   0  0  0  0  0  0  0  0  0  0  0  0
   40.0170   32.5530   39.1880 C   0  0  0  0  0  0  0  0  0  0  0  0
   39.3560   33.4370   40.0670 C   0  0  0  0  0  0  0  0  0  0  0  0
   37.9830   33.4890   39.9750 C   0  0  0  0  0  0  0  0  0  0  0  0
   37.3370   32.7100   39.0650 N   0  0  0  0  0  0  0  0  0  0  0  0
   38.0120   31.8770   38.2410 C   0  0  0  0  0  0  0  0  0  0  0  0
   39.3740   31.8030   38.3110 N   0  0  0  0  0  0  0  0  0  0  0  0
   41.0940   32.4510   39.1970 H   0  0  0  0  0  0  0  0  0  0  0  0
   37.4930   34.1600   40.6420 H   0  0  0  0  0  0  0  0  0  0  0  0
   40.1860   34.1610   40.9370 N   0  0  0  0  0  0  0  0  0  0  0  0
   40.6660   35.0660   40.7090 H   0  0  0  0  0  0  0  0  0  0  0  0
   40.1340   33.5270   41.7680 H   0  0  0  0  0  0  0  0  0  0  0  0
  1  5  1  0  0  0  0
  2  1  2  0  0  0  0
  2  3  1  0  0  0  0
  3  4  2  0  0  0  0
  4 10  1  0  0  0  0
  5  4  1  0  0  0  0
  6  2  1  0  0  0  0
  7  3  1  0  0  0  0
  9  8  1  0  0  0  0
  9 16  1  0  0  0  0
 10  9  2  0  0  0  0
 11 10  1  0  0  0  0
 11 13  2  0  0  0  0
 12 11  1  0  0  0  0
 13 15  1  0  0  0  0
 14 13  1  0  0  0  0
 15 16  2  0  0  0  0
 17  1  1  0  0  0  0
 17 24  1  0  0  0  0
 18 17  1  0  0  0  0
 19 17  1  0  0  0  0
 20 26  1  0  0  0  0
 20 21  1  0  0  0  0
 21 28  1  0  0  0  0
 22 21  2  0  0  0  0
 22 27  1  0  0  0  0
 23 22  1  0  0  0  0
 24 25  1  0  0  0  0
 24 23  2  0  0  0  0
 25 20  2  0  0  0  0
 28 30  1  0  0  0  0
 29 28  1  0  0  0  0
M  END
>  <minimizedAffinity>
-5.48485565

$$$$

 OpenBabel03242518203D

 30 32  0  0  0  0  0  0  0  0999 V2000
   38.4110   30.5120   41.2920 C   0  0  0  0  0  0  0  0  0  0  0  0
   39.2790   30.4190   42.3470 C   0  0  0  0  0  0  0  0  0  0  0  0
   39.3470   29.0610   42.6780 C   0  0  0  0  0  0  0  0  0  0  0  0
   38.5060   28.4220   41.7890 C   0  0  0  0  0  0  0  0  0  0  0  0
   38.0000   29.3190   41.0210 O   0  0  0  0  0  0  0  0  0  0  0  0
   39.8230   31.2020   42.8530 H   0  0  0  0  0  0  0  0  0  0  0  0
   39.9450   28.6550   43.4660 H   0  0  0  0  0  0  0  0  0  0  0  0
   36.3670   27.0890   43.1540 F   0  0  0  0  0  0  0  0  0  0  0  0
   37.1880   26.3630   42.3620 C   0  0  0  0  0  0  0  0  0  0  0  0
   38.2160   26.9970   41.7050 C   0  0  0  0  0  0  0  0  0  0  0  0
   38.9830   26.1540   40.9300 C   0  0  0  0  0  0  0  0  0  0  0  0
   39.8250   26.5930   40.3740 H   0  0  0  0  0  0  0  0  0  0  0  0
   38.7990   24.8090   40.7810 C   0  0  0  0  0  0  0  0  0  0  0  0
   39.4580   24.2320   40.1470 H   0  0  0  0  0  0  0  0  0  0  0  0
   37.7600   24.2140   41.4560 C   0  0  0  0  0  3  0  0  0  0  0  0
   36.9580   25.0070   42.2470 C   0  0  0  0  0  3  0  0  0  0  0  0
   38.0380   31.8080   40.6100 C   0  0  0  0  0  0  0  0  0  0  0  0
   37.8060   32.5650   41.3850 H   0  0  0  0  0  0  0  0  0  0  0  0
   37.1360   31.6260   40.0040 H   0  0  0  0  0  0  0  0  0  0  0  0
   40.1710   31.9820   37.6410 C   0  0  0  0  0  0  0  0  0  0  0  0
   41.0940   33.0090   37.9310 C   0  0  0  0  0  0  0  0  0  0  0  0
   40.9650   33.6290   39.1540 C   0  0  0  0  0  0  0  0  0  0  0  0
   39.9810   33.2380   40.0090 N   0  0  0  0  0  0  0  0  0  0  0  0
   39.1180   32.2480   39.6890 C   0  0  0  0  0  0  0  0  0  0  0  0
   39.2220   31.6150   38.4830 N   0  0  0  0  0  0  0  0  0  0  0  0
   40.2030   31.4450   36.7020 H   0  0  0  0  0  0  0  0  0  0  0  0
   41.6660   34.4030   39.3640 H   0  0  0  0  0  0  0  0  0  0  0  0
   42.0390   33.2760   36.9280 N   0  0  0  0  0  0  0  0  0  0  0  0
   41.8940   33.9130   36.1080 H   0  0  0  0  0  0  0  0  0  0  0  0
   42.8190   32.6740   37.2830 H   0  0  0  0  0  0  0  0  0  0  0  0
  1  2  2  0  0  0  0
  2  3  1  0  0  0  0
  2  6  1  0  0  0  0
  3  7  1  0  0  0  0
  4  3  2  0  0  0  0
  5  1  1  0  0  0  0
  5  4  1  0  0  0  0
  9  8  1  0  0  0  0
 10  4  1  0  0  0  0
 10  9  2  0  0  0  0
 11 10  1  0  0  0  0
 12 11  1  0  0  0  0
 13 11  2  0  0  0  0
 13 15  1  0  0  0  0
 14 13  1  0  0  0  0
 15 16  2  0  0  0  0
 16  9  1  0  0  0  0
 17  1  1  0  0  0  0
 17 18  1  0  0  0  0
 19 17  1  0  0  0  0
 20 21  2  0  0  0  0
 20 25  1  0  0  0  0
 21 22  1  0  0  0  0
 22 27  1  0  0  0  0
 22 23  2  0  0  0  0
 24 23  1  0  0  0  0
 24 17  1  0  0  0  0
 25 24  2  0  0  0  0
 26 20  1  0  0  0  0
 28 30  1  0  0  0  0
 28 21  1  0  0  0  0
 29 28  1  0  0  0  0
M  END
>  <minimizedAffinity>
-5.47981024

$$$$

 OpenBabel03242518203D

 30 32  0  0  0  0  0  0  0  0999 V2000
   36.8590   29.4260   37.7170 C   0  0  0  0  0  0  0  0  0  0  0  0
   35.7060   28.8780   37.2220 C   0  0  0  0  0  0  0  0  0  0  0  0
   35.4340   27.7580   38.0140 C   0  0  0  0  0  0  0  0  0  0  0  0
   36.4530   27.7060   38.9440 C   0  0  0  0  0  0  0  0  0  0  0  0
   37.2380   28.6970   38.7130 O   0  0  0  0  0  0  0  0  0  0  0  0
   35.0970   29.2070   36.3930 H   0  0  0  0  0  0  0  0  0  0  0  0
   34.5940   27.1090   37.8840 H   0  0  0  0  0  0  0  0  0  0  0  0
   36.3110   24.8630   38.6110 F   0  0  0  0  0  0  0  0  0  0  0  0
   36.5730   25.3630   39.8390 C   0  0  0  0  0  0  0  0  0  0  0  0
   36.6420   26.7270   40.0050 C   0  0  0  0  0  0  0  0  0  0  0  0
   36.9130   27.1150   41.2990 C   0  0  0  0  0  0  0  0  0  0  0  0
   36.9840   28.1940   41.5070 H   0  0  0  0  0  0  0  0  0  0  0  0
   37.1070   26.2830   42.3650 C   0  0  0  0  0  0  0  0  0  0  0  0
   37.3160   26.6880   43.3450 H   0  0  0  0  0  0  0  0  0  0  0  0
   37.0290   24.9270   42.1560 C   0  0  0  0  0  3  0  0  0  0  0  0
   36.7600   24.4790   40.8820 C   0  0  0  0  0  3  0  0  0  0  0  0
   37.5230   30.6620   37.1550 C   0  0  0  0  0  0  0  0  0  0  0  0
   36.8230   31.1550   36.4540 H   0  0  0  0  0  0  0  0  0  0  0  0
   38.4210   30.3430   36.6020 H   0  0  0  0  0  0  0  0  0  0  0  0
   37.3710   33.1010   39.8800 C   0  0  0  0  0  0  0  0  0  0  0  0
   38.7130   33.2580   40.2860 C   0  0  0  0  0  0  0  0  0  0  0  0
   39.6550   32.5170   39.6080 C   0  0  0  0  0  0  0  0  0  0  0  0
   39.2660   31.6850   38.6040 N   0  0  0  0  0  0  0  0  0  0  0  0
   37.9670   31.5650   38.2490 C   0  0  0  0  0  0  0  0  0  0  0  0
   37.0110   32.2880   38.9030 N   0  0  0  0  0  0  0  0  0  0  0  0
   36.5700   33.6470   40.3600 H   0  0  0  0  0  0  0  0  0  0  0  0
   40.6650   32.6430   39.9210 H   0  0  0  0  0  0  0  0  0  0  0  0
   38.9260   34.1610   41.3390 N   0  0  0  0  0  0  0  0  0  0  0  0
   38.8550   33.9330   42.3610 H   0  0  0  0  0  0  0  0  0  0  0  0
   39.1490   35.0130   40.7740 H   0  0  0  0  0  0  0  0  0  0  0  0
  1  5  1  0  0  0  0
  2  1  2  0  0  0  0
  2  3  1  0  0  0  0
  3  4  2  0  0  0  0
  4 10  1  0  0  0  0
  5  4  1  0  0  0  0
  6  2  1  0  0  0  0
  7  3  1  0  0  0  0
  8  9  1  0  0  0  0
  9 10  2  0  0  0  0
  9 16  1  0  0  0  0
 10 11  1  0  0  0  0
 11 12  1  0  0  0  0
 11 13  2  0  0  0  0
 13 14  1  0  0  0  0
 15 13  1  0  0  0  0
 16 15  2  0  0  0  0
 17  1  1  0  0  0  0
 17 24  1  0  0  0  0
 18 17  1  0  0  0  0
 19 17  1  0  0  0  0
 20 21  1  0  0  0  0
 20 26  1  0  0  0  0
 21 28  1  0  0  0  0
 22 27  1  0  0  0  0
 22 21  2  0  0  0  0
 23 22  1  0  0  0  0
 24 23  2  0  0  0  0
 24 25  1  0  0  0  0
 25 20  2  0  0  0  0
 28 29  1  0  0  0  0
 30 28  1  0  0  0  0
M  END
>  <minimizedAffinity>
-5.47146368

$$$$

 OpenBabel03242518203D

 30 32  0  0  0  0  0  0  0  0999 V2000
   39.4290   33.1990   40.1910 C   0  0  0  0  0  0  0  0  0  0  0  0
   38.4810   34.1610   39.9640 C   0  0  0  0  0  0  0  0  0  0  0  0
   37.3000   33.4780   39.6510 C   0  0  0  0  0  0  0  0  0  0  0  0
   37.6210   32.1370   39.7110 C   0  0  0  0  0  0  0  0  0  0  0  0
   38.8640   32.0500   40.0260 O   0  0  0  0  0  0  0  0  0  0  0  0
   38.5770   35.2350   40.0060 H   0  0  0  0  0  0  0  0  0  0  0  0
   36.3670   33.9490   39.4210 H   0  0  0  0  0  0  0  0  0  0  0  0
   36.0140   30.8380   41.6970 F   0  0  0  0  0  0  0  0  0  0  0  0
   35.9760   30.3800   40.4260 C   0  0  0  0  0  0  0  0  0  0  0  0
   36.7450   30.9990   39.4680 C   0  0  0  0  0  0  0  0  0  0  0  0
   36.6220   30.4440   38.2140 C   0  0  0  0  0  0  0  0  0  0  0  0
   37.2090   30.8890   37.3960 H   0  0  0  0  0  0  0  0  0  0  0  0
   35.8320   29.3810   37.8780 C   0  0  0  0  0  0  0  0  0  0  0  0
   35.8050   29.0180   36.8600 H   0  0  0  0  0  0  0  0  0  0  0  0
   35.0800   28.7910   38.8650 C   0  0  0  0  0  3  0  0  0  0  0  0
   35.1610   29.3030   40.1410 C   0  0  0  0  0  3  0  0  0  0  0  0
   40.8650   33.4920   40.5610 C   0  0  0  0  0  0  0  0  0  0  0  0
   41.1130   32.9410   41.4890 H   0  0  0  0  0  0  0  0  0  0  0  0
   40.9530   34.5730   40.7500 H   0  0  0  0  0  0  0  0  0  0  0  0
   43.6000   31.9310   38.6970 C   0  0  0  0  0  0  0  0  0  0  0  0
   43.5060   32.4860   37.4030 C   0  0  0  0  0  0  0  0  0  0  0  0
   42.4940   33.3970   37.1930 C   0  0  0  0  0  0  0  0  0  0  0  0
   41.6490   33.7140   38.2120 N   0  0  0  0  0  0  0  0  0  0  0  0
   41.7770   33.1560   39.4370 C   0  0  0  0  0  0  0  0  0  0  0  0
   42.7720   32.2510   39.6740 N   0  0  0  0  0  0  0  0  0  0  0  0
   44.3670   31.2080   38.9450 H   0  0  0  0  0  0  0  0  0  0  0  0
   42.4310   33.8100   36.2140 H   0  0  0  0  0  0  0  0  0  0  0  0
   44.4640   32.0390   36.4800 N   0  0  0  0  0  0  0  0  0  0  0  0
   44.3880   31.1720   35.8940 H   0  0  0  0  0  0  0  0  0  0  0  0
   45.1670   32.8050   36.6000 H   0  0  0  0  0  0  0  0  0  0  0  0
  1 17  1  0  0  0  0
  2  6  1  0  0  0  0
  2  1  2  0  0  0  0
  3  4  2  0  0  0  0
  3  2  1  0  0  0  0
  4  5  1  0  0  0  0
  5  1  1  0  0  0  0
  7  3  1  0  0  0  0
  9  8  1  0  0  0  0
 10  4  1  0  0  0  0
 10  9  2  0  0  0  0
 11 10  1  0  0  0  0
 12 11  1  0  0  0  0
 13 11  2  0  0  0  0
 13 15  1  0  0  0  0
 14 13  1  0  0  0  0
 15 16  2  0  0  0  0
 16  9  1  0  0  0  0
 17 19  1  0  0  0  0
 17 18  1  0  0  0  0
 20 26  1  0  0  0  0
 20 25  1  0  0  0  0
 21 20  2  0  0  0  0
 22 21  1  0  0  0  0
 22 23  2  0  0  0  0
 23 24  1  0  0  0  0
 24 25  2  0  0  0  0
 24 17  1  0  0  0  0
 27 22  1  0  0  0  0
 28 30  1  0  0  0  0
 28 21  1  0  0  0  0
 29 28  1  0  0  0  0
M  END
>  <minimizedAffinity>
-5.46046734

$$$$

 OpenBabel03242518203D

 30 32  0  0  0  0  0  0  0  0999 V2000
   36.6500   29.6310   40.8280 C   0  0  0  0  0  0  0  0  0  0  0  0
   35.9190   28.8030   40.0180 C   0  0  0  0  0  0  0  0  0  0  0  0
   36.3460   27.5020   40.3010 C   0  0  0  0  0  0  0  0  0  0  0  0
   37.3170   27.6340   41.2730 C   0  0  0  0  0  0  0  0  0  0  0  0
   37.4410   28.8870   41.5280 O   0  0  0  0  0  0  0  0  0  0  0  0
   35.1590   29.0570   39.2940 H   0  0  0  0  0  0  0  0  0  0  0  0
   35.9650   26.6200   39.8310 H   0  0  0  0  0  0  0  0  0  0  0  0
   36.7060   24.8370   41.1380 F   0  0  0  0  0  0  0  0  0  0  0  0
   37.7850   25.2350   41.8490 C   0  0  0  0  0  0  0  0  0  0  0  0
   38.0830   26.5760   41.9170 C   0  0  0  0  0  0  0  0  0  0  0  0
   39.2030   26.8580   42.6680 C   0  0  0  0  0  0  0  0  0  0  0  0
   39.5030   27.9120   42.7670 H   0  0  0  0  0  0  0  0  0  0  0  0
   39.9910   25.9450   43.3110 C   0  0  0  0  0  0  0  0  0  0  0  0
   40.8530   26.2680   43.8780 H   0  0  0  0  0  0  0  0  0  0  0  0
   39.6580   24.6150   43.2180 C   0  0  0  0  0  3  0  0  0  0  0  0
   38.5470   24.2730   42.4790 C   0  0  0  0  0  3  0  0  0  0  0  0
   36.5140   31.1350   40.8530 C   0  0  0  0  0  0  0  0  0  0  0  0
   36.3830   31.4640   41.9020 H   0  0  0  0  0  0  0  0  0  0  0  0
   35.6150   31.4040   40.2770 H   0  0  0  0  0  0  0  0  0  0  0  0
   39.3380   33.3970   40.2970 C   0  0  0  0  0  0  0  0  0  0  0  0
   39.8450   33.0220   39.0350 C   0  0  0  0  0  0  0  0  0  0  0  0
   39.2000   31.9900   38.3910 C   0  0  0  0  0  0  0  0  0  0  0  0
   38.1310   31.3880   38.9810 N   0  0  0  0  0  0  0  0  0  0  0  0
   37.6800   31.7800   40.1940 C   0  0  0  0  0  0  0  0  0  0  0  0
   38.2990   32.8020   40.8550 N   0  0  0  0  0  0  0  0  0  0  0  0
   39.7860   34.1990   40.8690 H   0  0  0  0  0  0  0  0  0  0  0  0
   39.5900   31.7140   37.4390 H   0  0  0  0  0  0  0  0  0  0  0  0
   40.9540   33.7560   38.5850 N   0  0  0  0  0  0  0  0  0  0  0  0
   41.9550   33.5530   38.8230 H   0  0  0  0  0  0  0  0  0  0  0  0
   40.4480   34.4680   38.0090 H   0  0  0  0  0  0  0  0  0  0  0  0
  1 17  1  0  0  0  0
  1  5  1  0  0  0  0
  2  3  1  0  0  0  0
  2  1  2  0  0  0  0
  3  4  2  0  0  0  0
  4  5  1  0  0  0  0
  4 10  1  0  0  0  0
  6  2  1  0  0  0  0
  7  3  1  0  0  0  0
  8  9  1  0  0  0  0
  9 10  2  0  0  0  0
  9 16  1  0  0  0  0
 10 11  1  0  0  0  0
 11 12  1  0  0  0  0
 11 13  2  0  0  0  0
 13 14  1  0  0  0  0
 15 13  1  0  0  0  0
 16 15  2  0  0  0  0
 17 18  1  0  0  0  0
 19 17  1  0  0  0  0
 20 25  1  0  0  0  0
 20 26  1  0  0  0  0
 21 20  2  0  0  0  0
 22 23  2  0  0  0  0
 22 21  1  0  0  0  0
 23 24  1  0  0  0  0
 24 17  1  0  0  0  0
 24 25  2  0  0  0  0
 27 22  1  0  0  0  0
 28 29  1  0  0  0  0
 28 21  1  0  0  0  0
 30 28  1  0  0  0  0
M  END
>  <minimizedAffinity>
-5.28135538

$$$$
