
 OpenBabel03252508323D

 32 34  0  0  1  0  0  0  0  0999 V2000
   45.3150   33.6690   41.8360 N   0  0  0  0  0  0  0  0  0  0  0  0
   46.3690   32.7190   41.6070 C   0  0  1  0  0  0  0  0  0  0  0  0
   46.4410   32.2230   40.2000 C   0  0  0  0  0  0  0  0  0  0  0  0
   45.2130   32.0000   39.5470 N   0  0  0  0  0  0  0  0  0  0  0  0
   44.1060   32.7880   39.9110 C   0  0  0  0  0  0  0  0  0  0  0  0
   44.5640   34.0240   40.6690 C   0  0  0  0  0  0  0  0  0  0  0  0
   46.2540   31.8760   42.3170 H   0  0  0  0  0  0  0  0  0  0  0  0
   47.0420   32.9500   39.6030 H   0  0  0  0  0  0  0  0  0  0  0  0
   47.0660   31.2930   40.2240 H   0  0  0  0  0  0  0  0  0  0  0  0
   45.0030   31.0380   39.2500 H   0  0  0  0  0  0  0  0  0  0  0  0
   43.4750   32.2000   40.6180 H   0  0  0  0  0  0  0  0  0  0  0  0
   43.4500   33.1020   39.0950 H   0  0  0  0  0  0  0  0  0  0  0  0
   45.1430   34.6300   39.9430 H   0  0  0  0  0  0  0  0  0  0  0  0
   43.6520   34.5730   40.9330 H   0  0  0  0  0  0  0  0  0  0  0  0
   44.6660   35.4480   43.2770 C   0  0  0  0  0  0  0  0  0  0  0  0
   45.1370   34.1440   43.1590 C   0  0  0  0  0  0  0  0  0  0  0  0
   45.3820   33.4430   44.3260 C   0  0  0  0  0  0  0  0  0  0  0  0
   45.1640   34.0260   45.5370 N   0  0  0  0  0  0  0  0  0  0  0  0
   44.7040   35.3030   45.6120 C   0  0  0  0  0  0  0  0  0  0  0  0
   44.4600   36.0010   44.4840 N   0  0  0  0  0  0  0  0  0  0  0  0
   44.4160   36.1690   42.5150 H   0  0  0  0  0  0  0  0  0  0  0  0
   45.7440   32.4320   44.2120 H   0  0  0  0  0  0  0  0  0  0  0  0
   44.5700   35.6570   46.6350 H   0  0  0  0  0  0  0  0  0  0  0  0
   47.1200   35.2180   40.4310 F   0  0  0  0  0  0  0  0  0  0  0  0
   48.0110   34.6430   41.2880 C   0  0  0  0  0  0  0  0  0  0  0  0
   47.6680   33.4390   41.8650 C   0  0  0  0  0  0  0  0  0  0  0  0
   48.6110   32.9210   42.7140 C   0  0  0  0  0  0  0  0  0  0  0  0
   48.4710   31.9990   43.2230 H   0  0  0  0  0  0  0  0  0  0  0  0
   49.8230   33.5430   42.9870 C   0  0  0  0  0  0  0  0  0  0  0  0
   50.5560   33.1090   43.6660 H   0  0  0  0  0  0  0  0  0  0  0  0
   50.0990   34.7500   42.3700 C   0  0  0  0  0  3  0  0  0  0  0  0
   49.1820   35.2900   41.5210 C   0  0  0  0  0  3  0  0  0  0  0  0
  1 16  1  0  0  0  0
  2  1  1  0  0  0  0
  2 26  1  0  0  0  0
  2  7  1  1  0  0  0
  3  9  1  0  0  0  0
  3  2  1  0  0  0  0
  4  5  1  0  0  0  0
  4  3  1  0  0  0  0
  5 11  1  0  0  0  0
  5  6  1  0  0  0  0
  6 14  1  0  0  0  0
  6  1  1  0  0  0  0
  8  3  1  0  0  0  0
 10  4  1  0  0  0  0
 12  5  1  0  0  0  0
 13  6  1  0  0  0  0
 15 20  1  0  0  0  0
 16 15  2  0  0  0  0
 16 17  1  0  0  0  0
 17 18  2  0  0  0  0
 18 19  1  0  0  0  0
 19 23  1  0  0  0  0
 20 19  2  0  0  0  0
 21 15  1  0  0  0  0
 22 17  1  0  0  0  0
 24 25  1  0  0  0  0
 25 32  2  0  0  0  0
 25 26  1  0  0  0  0
 26 27  2  0  0  0  0
 27 29  1  0  0  0  0
 27 28  1  0  0  0  0
 29 30  1  0  0  0  0
 31 29  2  0  0  0  0
 32 31  1  0  0  0  0
M  END
>  <minimizedAffinity>
-4.5836072

>  <minimizedRMSD>
2.25875211

$$$$
