
 OpenBabel03252508323D

 32 34  0  0  1  0  0  0  0  0999 V2000
   45.3080   33.7460   42.4410 N   0  0  0  0  0  0  0  0  0  0  0  0
   46.2160   33.2860   41.4260 C   0  0  1  0  0  0  0  0  0  0  0  0
   45.8940   33.7810   40.0550 C   0  0  0  0  0  0  0  0  0  0  0  0
   44.5280   33.8550   39.7180 N   0  0  0  0  0  0  0  0  0  0  0  0
   43.5960   34.1000   40.7420 C   0  0  0  0  0  0  0  0  0  0  0  0
   44.2970   34.6480   41.9750 C   0  0  0  0  0  0  0  0  0  0  0  0
   46.2500   32.1780   41.4480 H   0  0  0  0  0  0  0  0  0  0  0  0
   46.3540   34.7910   39.9310 H   0  0  0  0  0  0  0  0  0  0  0  0
   46.4560   33.1250   39.3410 H   0  0  0  0  0  0  0  0  0  0  0  0
   44.2000   33.2680   38.9410 H   0  0  0  0  0  0  0  0  0  0  0  0
   43.1420   33.1260   41.0430 H   0  0  0  0  0  0  0  0  0  0  0  0
   42.7660   34.7650   40.4890 H   0  0  0  0  0  0  0  0  0  0  0  0
   44.6960   35.6400   41.6840 H   0  0  0  0  0  0  0  0  0  0  0  0
   43.5140   34.7930   42.7300 H   0  0  0  0  0  0  0  0  0  0  0  0
   45.4540   34.2340   44.7650 C   0  0  0  0  0  0  0  0  0  0  0  0
   45.5060   33.2720   43.7620 C   0  0  0  0  0  0  0  0  0  0  0  0
   45.7410   31.9620   44.1400 C   0  0  0  0  0  0  0  0  0  0  0  0
   45.9120   31.6470   45.4540 N   0  0  0  0  0  0  0  0  0  0  0  0
   45.8540   32.6150   46.4060 C   0  0  0  0  0  0  0  0  0  0  0  0
   45.6260   33.8980   46.0540 N   0  0  0  0  0  0  0  0  0  0  0  0
   45.2890   35.2980   44.7020 H   0  0  0  0  0  0  0  0  0  0  0  0
   45.7750   31.2310   43.3460 H   0  0  0  0  0  0  0  0  0  0  0  0
   46.0080   32.2390   47.4180 H   0  0  0  0  0  0  0  0  0  0  0  0
   48.4290   31.7550   42.4020 F   0  0  0  0  0  0  0  0  0  0  0  0
   48.6260   33.0960   42.2380 C   0  0  0  0  0  0  0  0  0  0  0  0
   47.5720   33.8490   41.7680 C   0  0  0  0  0  0  0  0  0  0  0  0
   47.8420   35.1860   41.6290 C   0  0  0  0  0  0  0  0  0  0  0  0
   47.1170   35.8770   41.2770 H   0  0  0  0  0  0  0  0  0  0  0  0
   49.0730   35.7560   41.9290 C   0  0  0  0  0  0  0  0  0  0  0  0
   49.2600   36.8220   41.8090 H   0  0  0  0  0  0  0  0  0  0  0  0
   50.0840   34.9360   42.3960 C   0  0  0  0  0  3  0  0  0  0  0  0
   49.8480   33.6030   42.5460 C   0  0  0  0  0  3  0  0  0  0  0  0
  1 16  1  0  0  0  0
  2  7  1  1  0  0  0
  2 26  1  0  0  0  0
  2  1  1  0  0  0  0
  3  2  1  0  0  0  0
  4  3  1  0  0  0  0
  4  5  1  0  0  0  0
  5 11  1  0  0  0  0
  5  6  1  0  0  0  0
  6  1  1  0  0  0  0
  6 14  1  0  0  0  0
  8  3  1  0  0  0  0
  9  3  1  0  0  0  0
 10  4  1  0  0  0  0
 12  5  1  0  0  0  0
 13  6  1  0  0  0  0
 15 20  1  0  0  0  0
 16 17  1  0  0  0  0
 16 15  2  0  0  0  0
 17 18  2  0  0  0  0
 18 19  1  0  0  0  0
 19 23  1  0  0  0  0
 20 19  2  0  0  0  0
 21 15  1  0  0  0  0
 22 17  1  0  0  0  0
 25 24  1  0  0  0  0
 25 32  1  0  0  0  0
 26 25  2  0  0  0  0
 27 26  1  0  0  0  0
 27 29  2  0  0  0  0
 28 27  1  0  0  0  0
 29 31  1  0  0  0  0
 30 29  1  0  0  0  0
 31 32  2  0  0  0  0
M  END
>  <minimizedAffinity>
-5.17640162

>  <minimizedRMSD>
2.32939434

$$$$
