
 OpenBabel03252500533D

 24 25  0  0  0  0  0  0  0  0999 V2000
   48.0900   33.4740   42.1060 C   0  0  0  0  0  0  0  0  0  0  0  0
   47.2290   33.8190   41.0780 C   0  0  0  0  0  0  0  0  0  0  0  0
   46.0060   34.4390   41.4360 C   0  0  0  0  0  0  0  0  0  0  0  0
   45.7550   34.6540   42.7670 N   0  0  0  0  0  0  0  0  0  0  0  0
   46.6280   34.2970   43.7200 C   0  0  0  0  0  0  0  0  0  0  0  0
   47.7790   33.7150   43.3960 N   0  0  0  0  0  0  0  0  0  0  0  0
   45.2470   34.7580   40.7200 H   0  0  0  0  0  0  0  0  0  0  0  0
   46.4110   34.4760   44.7670 H   0  0  0  0  0  0  0  0  0  0  0  0
   48.7530   35.7110   39.8480 F   0  0  0  0  0  0  0  0  0  0  0  0
   48.2530   34.6520   39.1690 C   0  0  0  0  0  0  0  0  0  0  0  0
   47.4540   33.6080   39.6560 C   0  0  0  0  0  0  0  0  0  0  0  0
   47.0510   32.6200   38.7770 C   0  0  0  0  0  0  0  0  0  0  0  0
   46.4510   31.8950   39.2930 H   0  0  0  0  0  0  0  0  0  0  0  0
   47.4360   32.6750   37.4550 C   0  0  0  0  0  0  0  0  0  0  0  0
   47.0510   31.8340   36.8700 H   0  0  0  0  0  0  0  0  0  0  0  0
   48.2210   33.6930   36.9580 C   0  0  0  0  0  0  0  0  0  0  0  0
   48.6310   34.6880   37.8210 C   0  0  0  0  0  0  0  0  0  0  0  0
   49.3450   32.8070   41.7950 C   0  0  0  0  0  0  0  0  0  0  0  0
   49.3840   32.7380   40.6620 H   0  0  0  0  0  0  0  0  0  0  0  0
   49.3610   31.7520   42.1200 H   0  0  0  0  0  0  0  0  0  0  0  0
   50.4980   33.6140   42.3220 C   0  0  0  0  0  0  0  0  0  0  0  0
   50.2450   34.3320   43.1090 H   0  0  0  0  0  0  0  0  0  0  0  0
   51.1730   34.0070   41.5230 H   0  0  0  0  0  0  0  0  0  0  0  0
   51.1600   32.8580   42.8530 H   0  0  0  0  0  0  0  0  0  0  0  0
  1  6  1  0  0  0  0
  2  3  1  0  0  0  0
  2  1  2  0  0  0  0
  3  4  2  0  0  0  0
  4  5  1  0  0  0  0
  5  8  1  0  0  0  0
  6  5  2  0  0  0  0
  7  3  1  0  0  0  0
 10 11  1  0  0  0  0
 10  9  1  0  0  0  0
 11  2  1  0  0  0  0
 12 13  1  0  0  0  0
 12 11  2  0  0  0  0
 14 12  1  0  0  0  0
 15 14  1  0  0  0  0
 16 14  2  0  0  0  0
 16 17  1  0  0  0  0
 17 10  2  0  0  0  0
 18  1  1  0  0  0  0
 18 20  1  0  0  0  0
 18 21  1  0  0  0  0
 19 18  1  0  0  0  0
 21 24  1  0  0  0  0
 21 22  1  0  0  0  0
 23 21  1  0  0  0  0
M  END
>  <minimizedAffinity>
-4.17093134

>  <minimizedRMSD>
2.72071505

$$$$
