
 OpenBabel03242512323D

 38 40  0  0  1  0  0  0  0  0999 V2000
   37.6330   29.3090   41.2920 C   0  0  1  0  0  0  0  0  0  0  0  0
   37.5540   29.2210   42.8310 C   0  0  0  0  0  0  0  0  0  0  0  0
   37.8400   27.8190   43.2780 C   0  0  0  0  0  0  0  0  0  0  0  0
   36.9330   26.8750   42.5730 C   0  0  0  0  0  0  0  0  0  0  0  0
   36.9980   26.9980   41.0890 C   0  0  0  0  0  0  0  0  0  0  0  0
   36.5490   28.4390   40.7390 C   0  0  2  0  0  0  0  0  0  0  0  0
   38.6340   28.9470   40.9610 H   0  0  0  0  0  0  0  0  0  0  0  0
   36.5080   29.4920   43.0930 H   0  0  0  0  0  0  0  0  0  0  0  0
   38.2560   29.9800   43.2080 H   0  0  0  0  0  0  0  0  0  0  0  0
   37.6220   27.7770   44.3700 H   0  0  0  0  0  0  0  0  0  0  0  0
   38.9140   27.6220   43.0930 H   0  0  0  0  0  0  0  0  0  0  0  0
   37.1390   25.8100   42.8380 H   0  0  0  0  0  0  0  0  0  0  0  0
   35.8870   27.1300   42.8900 H   0  0  0  0  0  0  0  0  0  0  0  0
   36.3320   26.2770   40.5990 H   0  0  0  0  0  0  0  0  0  0  0  0
   38.0230   26.8340   40.7040 H   0  0  0  0  0  0  0  0  0  0  0  0
   35.6740   28.5970   41.4720 H   0  0  0  0  0  0  0  0  0  0  0  0
   33.9280   29.0800   40.2220 F   0  0  0  0  0  0  0  0  0  0  0  0
   34.7600   28.8480   39.1510 C   0  0  0  0  0  0  0  0  0  0  0  0
   36.1130   28.5400   39.3750 C   0  0  0  0  0  0  0  0  0  0  0  0
   36.7540   28.3480   38.1780 C   0  0  0  0  0  0  0  0  0  0  0  0
   37.8220   28.1000   38.3180 H   0  0  0  0  0  0  0  0  0  0  0  0
   36.2450   28.4190   36.9040 C   0  0  0  0  0  0  0  0  0  0  0  0
   36.8940   28.2370   36.0610 H   0  0  0  0  0  0  0  0  0  0  0  0
   34.9150   28.7260   36.7990 C   0  0  0  0  0  3  0  0  0  0  0  0
   34.1460   28.9450   37.9210 C   0  0  0  0  0  3  0  0  0  0  0  0
   37.4910   30.7380   40.9190 C   0  0  0  0  0  0  0  0  0  0  0  0
   36.3470   31.1750   41.2100 O   0  0  0  0  0  0  0  0  0  0  0  0
   39.5450   32.1970   38.3240 C   0  0  0  0  0  0  0  0  0  0  0  0
   40.5210   32.8940   39.0180 C   0  0  0  0  0  0  0  0  0  0  0  0
   40.4800   32.8790   40.4140 C   0  0  0  0  0  0  0  0  0  0  0  0
   39.4710   32.1690   40.9620 N   0  0  0  0  0  0  0  0  0  0  0  0
   38.5410   31.5040   40.3080 C   0  0  0  0  0  0  0  0  0  0  0  0
   38.5780   31.5170   38.9660 N   0  0  0  0  0  0  0  0  0  0  0  0
   39.5600   32.2020   36.9010 N   0  0  0  0  0  0  0  0  0  0  0  0
   41.2670   33.4180   38.4320 H   0  0  0  0  0  0  0  0  0  0  0  0
   41.2230   33.4100   40.9520 H   0  0  0  0  0  0  0  0  0  0  0  0
   40.0410   31.4720   36.3290 H   0  0  0  0  0  0  0  0  0  0  0  0
   39.0240   33.0410   36.5650 H   0  0  0  0  0  0  0  0  0  0  0  0
  1  7  1  6  0  0  0
  1  2  1  0  0  0  0
  2  8  1  0  0  0  0
  2  9  1  0  0  0  0
  2  3  1  0  0  0  0
  3 10  1  0  0  0  0
  4 12  1  0  0  0  0
  4 13  1  0  0  0  0
  4  3  1  0  0  0  0
  5  4  1  0  0  0  0
  6  5  1  0  0  0  0
  6  1  1  0  0  0  0
  6 16  1  1  0  0  0
 11  3  1  0  0  0  0
 14  5  1  0  0  0  0
 15  5  1  0  0  0  0
 18 19  1  0  0  0  0
 18 17  1  0  0  0  0
 19  6  1  0  0  0  0
 20 21  1  0  0  0  0
 20 19  2  0  0  0  0
 22 20  1  0  0  0  0
 23 22  1  0  0  0  0
 24 22  2  0  0  0  0
 24 25  1  0  0  0  0
 25 18  2  0  0  0  0
 26 27  2  0  0  0  0
 26  1  1  0  0  0  0
 28 33  2  0  0  0  0
 28 29  1  0  0  0  0
 29 30  2  0  0  0  0
 30 36  1  0  0  0  0
 30 31  1  0  0  0  0
 32 26  1  0  0  0  0
 32 31  2  0  0  0  0
 33 32  1  0  0  0  0
 34 28  1  0  0  0  0
 35 29  1  0  0  0  0
 37 34  1  0  0  0  0
 38 34  1  0  0  0  0
M  END
>  <minimizedAffinity>
-6.29249668

$$$$

 OpenBabel03242512323D

 38 40  0  0  1  0  0  0  0  0999 V2000
   38.4170   28.4630   41.1960 C   0  0  1  0  0  0  0  0  0  0  0  0
   38.7660   29.1320   42.5420 C   0  0  0  0  0  0  0  0  0  0  0  0
   38.4060   28.2190   43.6750 C   0  0  0  0  0  0  0  0  0  0  0  0
   36.9810   27.8130   43.5550 C   0  0  0  0  0  0  0  0  0  0  0  0
   36.6540   27.2000   42.2370 C   0  0  0  0  0  0  0  0  0  0  0  0
   36.9330   28.2790   41.1600 C   0  0  2  0  0  0  0  0  0  0  0  0
   38.9370   27.4780   41.1380 H   0  0  0  0  0  0  0  0  0  0  0  0
   38.1430   30.0520   42.5890 H   0  0  0  0  0  0  0  0  0  0  0  0
   39.8340   29.3900   42.4770 H   0  0  0  0  0  0  0  0  0  0  0  0
   38.5340   28.8050   44.6150 H   0  0  0  0  0  0  0  0  0  0  0  0
   39.1120   27.3660   43.6540 H   0  0  0  0  0  0  0  0  0  0  0  0
   36.6750   27.0930   44.3520 H   0  0  0  0  0  0  0  0  0  0  0  0
   36.3660   28.7460   43.6570 H   0  0  0  0  0  0  0  0  0  0  0  0
   35.6020   26.8950   42.1870 H   0  0  0  0  0  0  0  0  0  0  0  0
   37.2800   26.3100   42.0270 H   0  0  0  0  0  0  0  0  0  0  0  0
   36.5300   29.2290   41.6700 H   0  0  0  0  0  0  0  0  0  0  0  0
   34.9010   29.9570   40.3830 F   0  0  0  0  0  0  0  0  0  0  0  0
   35.1820   28.8700   39.5880 C   0  0  0  0  0  0  0  0  0  0  0  0
   36.2300   28.0020   39.9400 C   0  0  0  0  0  0  0  0  0  0  0  0
   36.3340   26.9940   39.0150 C   0  0  0  0  0  0  0  0  0  0  0  0
   37.1490   26.2900   39.2640 H   0  0  0  0  0  0  0  0  0  0  0  0
   35.5800   26.7750   37.8870 C   0  0  0  0  0  0  0  0  0  0  0  0
   35.7970   25.9240   37.2600 H   0  0  0  0  0  0  0  0  0  0  0  0
   34.5860   27.6810   37.6370 C   0  0  0  0  0  3  0  0  0  0  0  0
   34.3660   28.7470   38.4830 C   0  0  0  0  0  3  0  0  0  0  0  0
   38.9300   29.3400   40.1150 C   0  0  0  0  0  0  0  0  0  0  0  0
   39.8150   28.7580   39.4350 O   0  0  0  0  0  0  0  0  0  0  0  0
   38.4650   32.8930   40.6090 C   0  0  0  0  0  0  0  0  0  0  0  0
   37.5940   33.2630   39.5960 C   0  0  0  0  0  0  0  0  0  0  0  0
   37.1530   32.2790   38.7090 C   0  0  0  0  0  0  0  0  0  0  0  0
   37.6290   31.0350   38.9300 N   0  0  0  0  0  0  0  0  0  0  0  0
   38.4570   30.6770   39.8890 C   0  0  0  0  0  0  0  0  0  0  0  0
   38.8830   31.6220   40.7450 N   0  0  0  0  0  0  0  0  0  0  0  0
   38.9340   33.8780   41.5220 N   0  0  0  0  0  0  0  0  0  0  0  0
   37.3020   34.3060   39.5500 H   0  0  0  0  0  0  0  0  0  0  0  0
   36.4860   32.5540   37.9310 H   0  0  0  0  0  0  0  0  0  0  0  0
   38.4660   34.0850   42.4330 H   0  0  0  0  0  0  0  0  0  0  0  0
   39.7930   34.3260   41.1160 H   0  0  0  0  0  0  0  0  0  0  0  0
  1  7  1  6  0  0  0
  1  2  1  0  0  0  0
  2  8  1  0  0  0  0
  2  3  1  0  0  0  0
  3 10  1  0  0  0  0
  4 13  1  0  0  0  0
  4  3  1  0  0  0  0
  4 12  1  0  0  0  0
  5  4  1  0  0  0  0
  6  1  1  0  0  0  0
  6 16  1  1  0  0  0
  6  5  1  0  0  0  0
  9  2  1  0  0  0  0
 11  3  1  0  0  0  0
 14  5  1  0  0  0  0
 15  5  1  0  0  0  0
 18 19  1  0  0  0  0
 18 17  1  0  0  0  0
 19  6  1  0  0  0  0
 20 21  1  0  0  0  0
 20 19  2  0  0  0  0
 22 20  1  0  0  0  0
 23 22  1  0  0  0  0
 24 22  2  0  0  0  0
 24 25  1  0  0  0  0
 25 18  2  0  0  0  0
 26  1  1  0  0  0  0
 27 26  2  0  0  0  0
 28 33  1  0  0  0  0
 28 34  1  0  0  0  0
 29 28  2  0  0  0  0
 30 31  2  0  0  0  0
 30 29  1  0  0  0  0
 31 32  1  0  0  0  0
 32 26  1  0  0  0  0
 32 33  2  0  0  0  0
 34 37  1  0  0  0  0
 35 29  1  0  0  0  0
 36 30  1  0  0  0  0
 38 34  1  0  0  0  0
M  END
>  <minimizedAffinity>
-6.13450193

$$$$

 OpenBabel03242512323D

 38 40  0  0  1  0  0  0  0  0999 V2000
   36.9020   29.7900   38.8480 C   0  0  1  0  0  0  0  0  0  0  0  0
   36.4650   29.4590   37.4060 C   0  0  0  0  0  0  0  0  0  0  0  0
   34.9690   29.4810   37.3090 C   0  0  0  0  0  0  0  0  0  0  0  0
   34.3890   28.5780   38.3370 C   0  0  0  0  0  0  0  0  0  0  0  0
   34.8490   28.8910   39.7190 C   0  0  0  0  0  0  0  0  0  0  0  0
   36.3870   28.7000   39.7320 C   0  0  2  0  0  0  0  0  0  0  0  0
   36.4660   30.7730   39.1400 H   0  0  0  0  0  0  0  0  0  0  0  0
   36.8380   28.4300   37.2080 H   0  0  0  0  0  0  0  0  0  0  0  0
   36.9820   30.1890   36.7640 H   0  0  0  0  0  0  0  0  0  0  0  0
   34.7050   29.0900   36.2990 H   0  0  0  0  0  0  0  0  0  0  0  0
   34.6430   30.5340   37.4100 H   0  0  0  0  0  0  0  0  0  0  0  0
   33.2720   28.5960   38.3360 H   0  0  0  0  0  0  0  0  0  0  0  0
   34.7330   27.5390   38.0910 H   0  0  0  0  0  0  0  0  0  0  0  0
   34.3900   28.2200   40.4550 H   0  0  0  0  0  0  0  0  0  0  0  0
   34.6110   29.9340   40.0100 H   0  0  0  0  0  0  0  0  0  0  0  0
   36.5110   27.7500   39.0930 H   0  0  0  0  0  0  0  0  0  0  0  0
   36.6680   26.1370   40.6820 F   0  0  0  0  0  0  0  0  0  0  0  0
   36.9910   27.1770   41.5230 C   0  0  0  0  0  0  0  0  0  0  0  0
   36.8830   28.5020   41.0650 C   0  0  0  0  0  0  0  0  0  0  0  0
   37.2520   29.3730   42.0580 C   0  0  0  0  0  0  0  0  0  0  0  0
   37.1760   30.4260   41.7320 H   0  0  0  0  0  0  0  0  0  0  0  0
   37.6760   29.0960   43.3360 C   0  0  0  0  0  0  0  0  0  0  0  0
   37.9310   29.9090   43.9990 H   0  0  0  0  0  0  0  0  0  0  0  0
   37.7450   27.7730   43.6790 C   0  0  0  0  0  3  0  0  0  0  0  0
   37.4040   26.7870   42.7790 C   0  0  0  0  0  3  0  0  0  0  0  0
   38.3820   29.9020   38.8500 C   0  0  0  0  0  0  0  0  0  0  0  0
   38.9250   28.7800   38.6710 O   0  0  0  0  0  0  0  0  0  0  0  0
   39.2330   33.1370   40.2260 C   0  0  0  0  0  0  0  0  0  0  0  0
   40.3040   33.5600   39.4540 C   0  0  0  0  0  0  0  0  0  0  0  0
   40.7620   32.7190   38.4380 C   0  0  0  0  0  0  0  0  0  0  0  0
   40.1000   31.5500   38.3020 N   0  0  0  0  0  0  0  0  0  0  0  0
   39.0820   31.1420   39.0320 C   0  0  0  0  0  0  0  0  0  0  0  0
   38.6400   31.9490   40.0110 N   0  0  0  0  0  0  0  0  0  0  0  0
   38.7520   33.9720   41.2720 N   0  0  0  0  0  0  0  0  0  0  0  0
   40.7300   34.5290   39.6870 H   0  0  0  0  0  0  0  0  0  0  0  0
   41.5810   33.0360   37.8430 H   0  0  0  0  0  0  0  0  0  0  0  0
   37.9790   34.6630   41.1460 H   0  0  0  0  0  0  0  0  0  0  0  0
   39.3010   33.7640   42.1440 H   0  0  0  0  0  0  0  0  0  0  0  0
  1 26  1  0  0  0  0
  1  7  1  1  0  0  0
  1  6  1  0  0  0  0
  2  1  1  0  0  0  0
  3  2  1  0  0  0  0
  3 11  1  0  0  0  0
  3  4  1  0  0  0  0
  4  5  1  0  0  0  0
  5  6  1  0  0  0  0
  5 15  1  0  0  0  0
  5 14  1  0  0  0  0
  6 16  1  6  0  0  0
  6 19  1  0  0  0  0
  8  2  1  0  0  0  0
  9  2  1  0  0  0  0
 10  3  1  0  0  0  0
 12  4  1  0  0  0  0
 13  4  1  0  0  0  0
 17 18  1  0  0  0  0
 18 25  1  0  0  0  0
 19 18  2  0  0  0  0
 19 20  1  0  0  0  0
 20 22  2  0  0  0  0
 21 20  1  0  0  0  0
 22 24  1  0  0  0  0
 22 23  1  0  0  0  0
 25 24  2  0  0  0  0
 26 32  1  0  0  0  0
 27 26  2  0  0  0  0
 28 34  1  0  0  0  0
 29 35  1  0  0  0  0
 29 28  2  0  0  0  0
 30 29  1  0  0  0  0
 31 30  2  0  0  0  0
 31 32  1  0  0  0  0
 32 33  2  0  0  0  0
 33 28  1  0  0  0  0
 34 38  1  0  0  0  0
 36 30  1  0  0  0  0
 37 34  1  0  0  0  0
M  END
>  <minimizedAffinity>
-6.01846504

$$$$

 OpenBabel03242512323D

 38 40  0  0  1  0  0  0  0  0999 V2000
   38.5390   28.2880   41.1470 C   0  0  1  0  0  0  0  0  0  0  0  0
   39.1500   28.7530   42.4850 C   0  0  0  0  0  0  0  0  0  0  0  0
   38.8270   27.7640   43.5650 C   0  0  0  0  0  0  0  0  0  0  0  0
   37.3580   27.5430   43.6160 C   0  0  0  0  0  0  0  0  0  0  0  0
   36.7810   27.1270   42.3070 C   0  0  0  0  0  0  0  0  0  0  0  0
   37.0530   28.2830   41.3110 C   0  0  2  0  0  0  0  0  0  0  0  0
   38.9130   27.2630   40.9170 H   0  0  0  0  0  0  0  0  0  0  0  0
   38.6650   29.7280   42.7130 H   0  0  0  0  0  0  0  0  0  0  0  0
   40.2240   28.8920   42.2900 H   0  0  0  0  0  0  0  0  0  0  0  0
   39.1550   28.2190   44.5280 H   0  0  0  0  0  0  0  0  0  0  0  0
   39.4060   26.8430   43.3580 H   0  0  0  0  0  0  0  0  0  0  0  0
   37.0700   26.7770   44.3760 H   0  0  0  0  0  0  0  0  0  0  0  0
   36.8900   28.5230   43.8980 H   0  0  0  0  0  0  0  0  0  0  0  0
   35.7010   26.9540   42.3830 H   0  0  0  0  0  0  0  0  0  0  0  0
   37.2510   26.2000   41.9230 H   0  0  0  0  0  0  0  0  0  0  0  0
   36.8490   29.2090   41.9650 H   0  0  0  0  0  0  0  0  0  0  0  0
   37.1860   26.1340   39.6050 F   0  0  0  0  0  0  0  0  0  0  0  0
   36.2760   27.1270   39.3240 C   0  0  0  0  0  0  0  0  0  0  0  0
   36.1620   28.2310   40.1870 C   0  0  0  0  0  0  0  0  0  0  0  0
   35.2020   29.0930   39.7210 C   0  0  0  0  0  0  0  0  0  0  0  0
   35.0880   29.9760   40.3750 H   0  0  0  0  0  0  0  0  0  0  0  0
   34.4190   28.9870   38.5960 C   0  0  0  0  0  0  0  0  0  0  0  0
   33.7040   29.7640   38.3720 H   0  0  0  0  0  0  0  0  0  0  0  0
   34.6110   27.8730   37.8260 C   0  0  0  0  0  3  0  0  0  0  0  0
   35.5440   26.9200   38.1740 C   0  0  0  0  0  3  0  0  0  0  0  0
   39.0130   29.2180   40.0930 C   0  0  0  0  0  0  0  0  0  0  0  0
   39.3000   28.6010   39.0340 O   0  0  0  0  0  0  0  0  0  0  0  0
   38.0450   32.7020   40.1640 C   0  0  0  0  0  0  0  0  0  0  0  0
   39.1980   33.3650   40.5530 C   0  0  0  0  0  0  0  0  0  0  0  0
   40.3430   32.6080   40.8100 C   0  0  0  0  0  0  0  0  0  0  0  0
   40.2110   31.2740   40.6480 N   0  0  0  0  0  0  0  0  0  0  0  0
   39.1190   30.6380   40.2790 C   0  0  0  0  0  0  0  0  0  0  0  0
   38.0160   31.3640   40.0320 N   0  0  0  0  0  0  0  0  0  0  0  0
   36.8630   33.4500   39.9030 N   0  0  0  0  0  0  0  0  0  0  0  0
   39.1440   34.4440   40.6380 H   0  0  0  0  0  0  0  0  0  0  0  0
   41.2290   33.1080   41.1080 H   0  0  0  0  0  0  0  0  0  0  0  0
   36.6020   33.8000   38.9540 H   0  0  0  0  0  0  0  0  0  0  0  0
   36.3390   33.5710   40.8060 H   0  0  0  0  0  0  0  0  0  0  0  0
  1  7  1  6  0  0  0
  1  6  1  0  0  0  0
  1  2  1  0  0  0  0
  2  8  1  0  0  0  0
  2  3  1  0  0  0  0
  3  4  1  0  0  0  0
  3 10  1  0  0  0  0
  4 13  1  0  0  0  0
  4 12  1  0  0  0  0
  5 14  1  0  0  0  0
  5  4  1  0  0  0  0
  6 16  1  1  0  0  0
  6  5  1  0  0  0  0
  9  2  1  0  0  0  0
 11  3  1  0  0  0  0
 15  5  1  0  0  0  0
 18 17  1  0  0  0  0
 18 19  1  0  0  0  0
 19  6  1  0  0  0  0
 20 19  2  0  0  0  0
 20 21  1  0  0  0  0
 22 20  1  0  0  0  0
 23 22  1  0  0  0  0
 24 25  1  0  0  0  0
 24 22  2  0  0  0  0
 25 18  2  0  0  0  0
 26 32  1  0  0  0  0
 26  1  1  0  0  0  0
 27 26  2  0  0  0  0
 28 29  1  0  0  0  0
 29 35  1  0  0  0  0
 29 30  2  0  0  0  0
 30 36  1  0  0  0  0
 31 30  1  0  0  0  0
 32 31  2  0  0  0  0
 33 28  2  0  0  0  0
 33 32  1  0  0  0  0
 34 28  1  0  0  0  0
 34 38  1  0  0  0  0
 37 34  1  0  0  0  0
M  END
>  <minimizedAffinity>
-5.93364716

$$$$

 OpenBabel03242512323D

 38 40  0  0  1  0  0  0  0  0999 V2000
   36.7860   29.1160   38.6460 C   0  0  1  0  0  0  0  0  0  0  0  0
   36.0300   28.7170   37.3620 C   0  0  0  0  0  0  0  0  0  0  0  0
   34.6260   29.2410   37.4120 C   0  0  0  0  0  0  0  0  0  0  0  0
   33.9680   28.7870   38.6650 C   0  0  0  0  0  0  0  0  0  0  0  0
   34.7290   29.1510   39.8920 C   0  0  0  0  0  0  0  0  0  0  0  0
   36.1040   28.4420   39.7940 C   0  0  2  0  0  0  0  0  0  0  0  0
   36.7440   30.2240   38.7590 H   0  0  0  0  0  0  0  0  0  0  0  0
   36.0150   27.6050   37.3560 H   0  0  0  0  0  0  0  0  0  0  0  0
   36.6380   29.1000   36.5280 H   0  0  0  0  0  0  0  0  0  0  0  0
   34.0860   28.8000   36.5420 H   0  0  0  0  0  0  0  0  0  0  0  0
   34.6770   30.3430   37.3130 H   0  0  0  0  0  0  0  0  0  0  0  0
   32.9330   29.1910   38.7710 H   0  0  0  0  0  0  0  0  0  0  0  0
   33.9150   27.6670   38.6170 H   0  0  0  0  0  0  0  0  0  0  0  0
   34.2090   28.8180   40.7990 H   0  0  0  0  0  0  0  0  0  0  0  0
   34.8910   30.2440   39.9710 H   0  0  0  0  0  0  0  0  0  0  0  0
   35.8070   27.4140   39.3670 H   0  0  0  0  0  0  0  0  0  0  0  0
   36.6240   25.9300   40.7790 F   0  0  0  0  0  0  0  0  0  0  0  0
   36.9550   27.0130   41.5610 C   0  0  0  0  0  0  0  0  0  0  0  0
   36.7260   28.3140   41.0810 C   0  0  0  0  0  0  0  0  0  0  0  0
   37.1270   29.2350   42.0150 C   0  0  0  0  0  0  0  0  0  0  0  0
   36.9570   30.2720   41.6700 H   0  0  0  0  0  0  0  0  0  0  0  0
   37.6770   29.0230   43.2570 C   0  0  0  0  0  0  0  0  0  0  0  0
   37.9380   29.8700   43.8730 H   0  0  0  0  0  0  0  0  0  0  0  0
   37.8570   27.7180   43.6250 C   0  0  0  0  0  3  0  0  0  0  0  0
   37.4990   26.6870   42.7840 C   0  0  0  0  0  3  0  0  0  0  0  0
   38.2010   28.7040   38.4770 C   0  0  0  0  0  0  0  0  0  0  0  0
   38.2900   27.4850   38.1770 O   0  0  0  0  0  0  0  0  0  0  0  0
   40.4290   31.4780   37.8250 C   0  0  0  0  0  0  0  0  0  0  0  0
   41.4080   31.3600   38.7990 C   0  0  0  0  0  0  0  0  0  0  0  0
   41.3090   30.3110   39.7150 C   0  0  0  0  0  0  0  0  0  0  0  0
   40.2450   29.4950   39.5580 N   0  0  0  0  0  0  0  0  0  0  0  0
   39.3110   29.6010   38.6350 C   0  0  0  0  0  0  0  0  0  0  0  0
   39.4040   30.6100   37.7520 N   0  0  0  0  0  0  0  0  0  0  0  0
   40.5040   32.5420   36.8840 N   0  0  0  0  0  0  0  0  0  0  0  0
   42.2030   32.0970   38.7950 H   0  0  0  0  0  0  0  0  0  0  0  0
   42.0540   30.2140   40.4640 H   0  0  0  0  0  0  0  0  0  0  0  0
   40.9710   32.4550   35.9540 H   0  0  0  0  0  0  0  0  0  0  0  0
   40.0230   33.3820   37.2930 H   0  0  0  0  0  0  0  0  0  0  0  0
  1  7  1  1  0  0  0
  1  6  1  0  0  0  0
  2  3  1  0  0  0  0
  2  1  1  0  0  0  0
  3  4  1  0  0  0  0
  4 12  1  0  0  0  0
  4  5  1  0  0  0  0
  5 15  1  0  0  0  0
  5 14  1  0  0  0  0
  6 16  1  6  0  0  0
  6  5  1  0  0  0  0
  6 19  1  0  0  0  0
  8  2  1  0  0  0  0
  9  2  1  0  0  0  0
 10  3  1  0  0  0  0
 11  3  1  0  0  0  0
 13  4  1  0  0  0  0
 17 18  1  0  0  0  0
 18 25  1  0  0  0  0
 19 18  2  0  0  0  0
 19 20  1  0  0  0  0
 20 22  2  0  0  0  0
 21 20  1  0  0  0  0
 22 24  1  0  0  0  0
 22 23  1  0  0  0  0
 25 24  2  0  0  0  0
 26 32  1  0  0  0  0
 26  1  1  0  0  0  0
 27 26  2  0  0  0  0
 28 29  1  0  0  0  0
 29 30  2  0  0  0  0
 30 36  1  0  0  0  0
 31 30  1  0  0  0  0
 32 31  2  0  0  0  0
 33 28  2  0  0  0  0
 33 32  1  0  0  0  0
 34 38  1  0  0  0  0
 34 28  1  0  0  0  0
 35 29  1  0  0  0  0
 37 34  1  0  0  0  0
M  END
>  <minimizedAffinity>
-5.7339654

$$$$

 OpenBabel03242512323D

 38 40  0  0  1  0  0  0  0  0999 V2000
   37.0550   29.8490   39.3670 C   0  0  1  0  0  0  0  0  0  0  0  0
   35.7400   29.4940   38.6420 C   0  0  0  0  0  0  0  0  0  0  0  0
   36.0140   29.2200   37.1940 C   0  0  0  0  0  0  0  0  0  0  0  0
   36.7400   30.3710   36.5960 C   0  0  0  0  0  0  0  0  0  0  0  0
   37.9890   30.7210   37.3290 C   0  0  0  0  0  0  0  0  0  0  0  0
   37.5670   31.1200   38.7660 C   0  0  2  0  0  0  0  0  0  0  0  0
   37.7850   29.0210   39.2160 H   0  0  0  0  0  0  0  0  0  0  0  0
   35.0930   30.3930   38.7380 H   0  0  0  0  0  0  0  0  0  0  0  0
   35.3120   28.6480   39.2020 H   0  0  0  0  0  0  0  0  0  0  0  0
   35.0230   29.1200   36.6920 H   0  0  0  0  0  0  0  0  0  0  0  0
   36.5720   28.2650   37.1350 H   0  0  0  0  0  0  0  0  0  0  0  0
   37.0080   30.1940   35.5270 H   0  0  0  0  0  0  0  0  0  0  0  0
   36.0520   31.2560   36.6540 H   0  0  0  0  0  0  0  0  0  0  0  0
   38.5090   31.5610   36.8530 H   0  0  0  0  0  0  0  0  0  0  0  0
   38.6920   29.8670   37.3820 H   0  0  0  0  0  0  0  0  0  0  0  0
   36.6110   31.7310   38.5690 H   0  0  0  0  0  0  0  0  0  0  0  0
   36.9570   33.6930   39.5120 F   0  0  0  0  0  0  0  0  0  0  0  0
   38.2310   33.2340   39.7560 C   0  0  0  0  0  0  0  0  0  0  0  0
   38.5740   31.9160   39.4100 C   0  0  0  0  0  0  0  0  0  0  0  0
   39.8820   31.6700   39.7390 C   0  0  0  0  0  0  0  0  0  0  0  0
   40.1870   30.6410   39.4780 H   0  0  0  0  0  0  0  0  0  0  0  0
   40.8010   32.5140   40.3180 C   0  0  0  0  0  0  0  0  0  0  0  0
   41.8010   32.1570   40.5120 H   0  0  0  0  0  0  0  0  0  0  0  0
   40.3620   33.7750   40.6150 C   0  0  0  0  0  3  0  0  0  0  0  0
   39.0680   34.1610   40.3390 C   0  0  0  0  0  3  0  0  0  0  0  0
   36.7500   29.9630   40.8150 C   0  0  0  0  0  0  0  0  0  0  0  0
   35.9500   30.9080   41.0410 O   0  0  0  0  0  0  0  0  0  0  0  0
   39.2340   28.2960   42.8480 C   0  0  0  0  0  0  0  0  0  0  0  0
   38.4940   27.4390   43.6490 C   0  0  0  0  0  0  0  0  0  0  0  0
   37.1060   27.4290   43.5030 C   0  0  0  0  0  0  0  0  0  0  0  0
   36.6080   28.2740   42.5740 N   0  0  0  0  0  0  0  0  0  0  0  0
   37.3050   29.0900   41.8110 C   0  0  0  0  0  0  0  0  0  0  0  0
   38.6410   29.1020   41.9500 N   0  0  0  0  0  0  0  0  0  0  0  0
   40.6490   28.3300   42.9830 N   0  0  0  0  0  0  0  0  0  0  0  0
   39.0420   26.8200   44.3500 H   0  0  0  0  0  0  0  0  0  0  0  0
   36.5330   26.7760   44.1120 H   0  0  0  0  0  0  0  0  0  0  0  0
   41.2950   27.7450   42.4060 H   0  0  0  0  0  0  0  0  0  0  0  0
   40.8960   29.0200   43.7350 H   0  0  0  0  0  0  0  0  0  0  0  0
  1  7  1  6  0  0  0
  1 26  1  0  0  0  0
  2  8  1  0  0  0  0
  2  9  1  0  0  0  0
  2  1  1  0  0  0  0
  3  2  1  0  0  0  0
  4 13  1  0  0  0  0
  4  3  1  0  0  0  0
  4  5  1  0  0  0  0
  5 15  1  0  0  0  0
  5  6  1  0  0  0  0
  6 16  1  6  0  0  0
  6  1  1  0  0  0  0
  6 19  1  0  0  0  0
 10  3  1  0  0  0  0
 11  3  1  0  0  0  0
 12  4  1  0  0  0  0
 14  5  1  0  0  0  0
 17 18  1  0  0  0  0
 18 25  1  0  0  0  0
 19 20  1  0  0  0  0
 19 18  2  0  0  0  0
 20 22  2  0  0  0  0
 21 20  1  0  0  0  0
 22 23  1  0  0  0  0
 22 24  1  0  0  0  0
 25 24  2  0  0  0  0
 26 27  2  0  0  0  0
 26 32  1  0  0  0  0
 28 34  1  0  0  0  0
 28 29  1  0  0  0  0
 29 35  1  0  0  0  0
 30 29  2  0  0  0  0
 30 36  1  0  0  0  0
 31 30  1  0  0  0  0
 32 33  1  0  0  0  0
 32 31  2  0  0  0  0
 33 28  2  0  0  0  0
 34 38  1  0  0  0  0
 37 34  1  0  0  0  0
M  END
>  <minimizedAffinity>
-5.72638512

$$$$

 OpenBabel03242512323D

 38 40  0  0  1  0  0  0  0  0999 V2000
   35.8890   29.3750   37.0860 C   0  0  1  0  0  0  0  0  0  0  0  0
   35.4700   29.2300   35.6090 C   0  0  0  0  0  0  0  0  0  0  0  0
   33.9750   29.1930   35.5030 C   0  0  0  0  0  0  0  0  0  0  0  0
   33.4380   28.1270   36.3890 C   0  0  0  0  0  0  0  0  0  0  0  0
   33.8810   28.2640   37.8050 C   0  0  0  0  0  0  0  0  0  0  0  0
   35.4260   28.1470   37.8040 C   0  0  2  0  0  0  0  0  0  0  0  0
   35.4050   30.2850   37.5110 H   0  0  0  0  0  0  0  0  0  0  0  0
   35.8940   28.2590   35.2710 H   0  0  0  0  0  0  0  0  0  0  0  0
   35.9520   30.0670   35.0800 H   0  0  0  0  0  0  0  0  0  0  0  0
   33.7330   28.9360   34.4460 H   0  0  0  0  0  0  0  0  0  0  0  0
   33.5980   30.2040   35.7490 H   0  0  0  0  0  0  0  0  0  0  0  0
   32.3220   28.0900   36.3810 H   0  0  0  0  0  0  0  0  0  0  0  0
   33.8340   27.1510   36.0020 H   0  0  0  0  0  0  0  0  0  0  0  0
   33.4540   27.4740   38.4350 H   0  0  0  0  0  0  0  0  0  0  0  0
   33.5920   29.2420   38.2380 H   0  0  0  0  0  0  0  0  0  0  0  0
   35.5980   27.3050   37.0390 H   0  0  0  0  0  0  0  0  0  0  0  0
   34.8940   29.7880   39.9430 F   0  0  0  0  0  0  0  0  0  0  0  0
   35.6550   28.6630   40.1650 C   0  0  0  0  0  0  0  0  0  0  0  0
   35.9290   27.7870   39.1000 C   0  0  0  0  0  0  0  0  0  0  0  0
   36.6980   26.7410   39.5400 C   0  0  0  0  0  0  0  0  0  0  0  0
   36.9350   26.0320   38.7260 H   0  0  0  0  0  0  0  0  0  0  0  0
   37.1800   26.4940   40.8040 C   0  0  0  0  0  0  0  0  0  0  0  0
   37.7780   25.6130   40.9820 H   0  0  0  0  0  0  0  0  0  0  0  0
   36.8540   27.4100   41.7660 C   0  0  0  0  0  3  0  0  0  0  0  0
   36.0860   28.5140   41.4660 C   0  0  0  0  0  3  0  0  0  0  0  0
   37.3610   29.5570   37.1170 C   0  0  0  0  0  0  0  0  0  0  0  0
   37.9430   28.6910   36.4130 O   0  0  0  0  0  0  0  0  0  0  0  0
   37.7640   32.4910   39.1930 C   0  0  0  0  0  0  0  0  0  0  0  0
   39.1380   32.6590   39.2760 C   0  0  0  0  0  0  0  0  0  0  0  0
   39.9580   31.7440   38.6150 C   0  0  0  0  0  0  0  0  0  0  0  0
   39.3190   30.7630   37.9420 N   0  0  0  0  0  0  0  0  0  0  0  0
   38.0150   30.5980   37.8590 C   0  0  0  0  0  0  0  0  0  0  0  0
   37.2230   31.4770   38.4950 N   0  0  0  0  0  0  0  0  0  0  0  0
   36.9060   33.4060   39.8640 N   0  0  0  0  0  0  0  0  0  0  0  0
   39.5000   33.5000   39.8570 H   0  0  0  0  0  0  0  0  0  0  0  0
   41.0100   31.8660   38.6740 H   0  0  0  0  0  0  0  0  0  0  0  0
   36.5100   34.2600   39.4110 H   0  0  0  0  0  0  0  0  0  0  0  0
   36.7630   33.0680   40.8480 H   0  0  0  0  0  0  0  0  0  0  0  0
  1 26  1  0  0  0  0
  1  7  1  1  0  0  0
  1  6  1  0  0  0  0
  2  1  1  0  0  0  0
  3  2  1  0  0  0  0
  3 11  1  0  0  0  0
  3  4  1  0  0  0  0
  4  5  1  0  0  0  0
  5 15  1  0  0  0  0
  5 14  1  0  0  0  0
  6 16  1  6  0  0  0
  6  5  1  0  0  0  0
  6 19  1  0  0  0  0
  8  2  1  0  0  0  0
  9  2  1  0  0  0  0
 10  3  1  0  0  0  0
 12  4  1  0  0  0  0
 13  4  1  0  0  0  0
 17 18  1  0  0  0  0
 18 25  1  0  0  0  0
 19 20  1  0  0  0  0
 19 18  2  0  0  0  0
 20 22  2  0  0  0  0
 21 20  1  0  0  0  0
 22 23  1  0  0  0  0
 22 24  1  0  0  0  0
 25 24  2  0  0  0  0
 26 32  1  0  0  0  0
 27 26  2  0  0  0  0
 28 29  1  0  0  0  0
 28 34  1  0  0  0  0
 29 35  1  0  0  0  0
 30 36  1  0  0  0  0
 30 29  2  0  0  0  0
 31 30  1  0  0  0  0
 32 31  2  0  0  0  0
 32 33  1  0  0  0  0
 33 28  2  0  0  0  0
 34 38  1  0  0  0  0
 37 34  1  0  0  0  0
M  END
>  <minimizedAffinity>
-5.66024208

$$$$

 OpenBabel03242512323D

 38 40  0  0  1  0  0  0  0  0999 V2000
   38.8910   31.1060   40.5590 C   0  0  1  0  0  0  0  0  0  0  0  0
   40.0480   32.0770   40.2450 C   0  0  0  0  0  0  0  0  0  0  0  0
   39.6280   33.4850   40.5420 C   0  0  0  0  0  0  0  0  0  0  0  0
   38.3680   33.7940   39.8160 C   0  0  0  0  0  0  0  0  0  0  0  0
   37.2730   32.8270   40.1060 C   0  0  0  0  0  0  0  0  0  0  0  0
   37.7660   31.4370   39.6300 C   0  0  2  0  0  0  0  0  0  0  0  0
   38.5800   31.2480   41.6200 H   0  0  0  0  0  0  0  0  0  0  0  0
   40.2450   31.9670   39.1550 H   0  0  0  0  0  0  0  0  0  0  0  0
   40.9070   31.7160   40.8310 H   0  0  0  0  0  0  0  0  0  0  0  0
   40.4360   34.1510   40.1570 H   0  0  0  0  0  0  0  0  0  0  0  0
   39.5410   33.5830   41.6410 H   0  0  0  0  0  0  0  0  0  0  0  0
   37.9880   34.8190   40.0420 H   0  0  0  0  0  0  0  0  0  0  0  0
   38.5990   33.7280   38.7200 H   0  0  0  0  0  0  0  0  0  0  0  0
   36.3530   33.0920   39.5700 H   0  0  0  0  0  0  0  0  0  0  0  0
   37.0380   32.7770   41.1870 H   0  0  0  0  0  0  0  0  0  0  0  0
   38.2980   31.7010   38.6430 H   0  0  0  0  0  0  0  0  0  0  0  0
   37.2720   30.5400   37.0800 F   0  0  0  0  0  0  0  0  0  0  0  0
   36.4370   30.1160   38.0880 C   0  0  0  0  0  0  0  0  0  0  0  0
   36.6710   30.5350   39.4090 C   0  0  0  0  0  0  0  0  0  0  0  0
   35.7260   29.9990   40.2460 C   0  0  0  0  0  0  0  0  0  0  0  0
   35.8790   30.3100   41.2950 H   0  0  0  0  0  0  0  0  0  0  0  0
   34.6710   29.1710   39.9400 C   0  0  0  0  0  0  0  0  0  0  0  0
   34.0130   28.8360   40.7280 H   0  0  0  0  0  0  0  0  0  0  0  0
   34.5340   28.8250   38.6240 C   0  0  0  0  0  3  0  0  0  0  0  0
   35.4140   29.2910   37.6710 C   0  0  0  0  0  3  0  0  0  0  0  0
   39.4090   29.7260   40.3910 C   0  0  0  0  0  0  0  0  0  0  0  0
   39.8630   29.5460   39.2300 O   0  0  0  0  0  0  0  0  0  0  0  0
   38.1980   27.0250   42.4700 C   0  0  0  0  0  0  0  0  0  0  0  0
   39.2020   26.8460   43.4090 C   0  0  0  0  0  0  0  0  0  0  0  0
   40.3330   27.6610   43.3320 C   0  0  0  0  0  0  0  0  0  0  0  0
   40.3380   28.5650   42.3290 N   0  0  0  0  0  0  0  0  0  0  0  0
   39.3880   28.7400   41.4340 C   0  0  0  0  0  0  0  0  0  0  0  0
   38.2980   27.9570   41.5050 N   0  0  0  0  0  0  0  0  0  0  0  0
   37.0380   26.2030   42.5220 N   0  0  0  0  0  0  0  0  0  0  0  0
   39.0510   26.0750   44.1550 H   0  0  0  0  0  0  0  0  0  0  0  0
   41.1060   27.5300   44.0470 H   0  0  0  0  0  0  0  0  0  0  0  0
   36.1690   26.4690   43.0360 H   0  0  0  0  0  0  0  0  0  0  0  0
   37.2250   25.3280   41.9710 H   0  0  0  0  0  0  0  0  0  0  0  0
  1  7  1  1  0  0  0
  2  3  1  0  0  0  0
  2  1  1  0  0  0  0
  2  9  1  0  0  0  0
  3 11  1  0  0  0  0
  4 12  1  0  0  0  0
  4  5  1  0  0  0  0
  4  3  1  0  0  0  0
  5 15  1  0  0  0  0
  6 16  1  6  0  0  0
  6  5  1  0  0  0  0
  6  1  1  0  0  0  0
  8  2  1  0  0  0  0
 10  3  1  0  0  0  0
 13  4  1  0  0  0  0
 14  5  1  0  0  0  0
 17 18  1  0  0  0  0
 18 19  1  0  0  0  0
 19  6  1  0  0  0  0
 19 20  2  0  0  0  0
 20 21  1  0  0  0  0
 22 20  1  0  0  0  0
 22 23  1  0  0  0  0
 24 22  2  0  0  0  0
 25 18  2  0  0  0  0
 25 24  1  0  0  0  0
 26  1  1  0  0  0  0
 26 32  1  0  0  0  0
 27 26  2  0  0  0  0
 28 34  1  0  0  0  0
 28 29  1  0  0  0  0
 29 35  1  0  0  0  0
 30 29  2  0  0  0  0
 30 36  1  0  0  0  0
 31 30  1  0  0  0  0
 32 33  1  0  0  0  0
 32 31  2  0  0  0  0
 33 28  2  0  0  0  0
 34 37  1  0  0  0  0
 38 34  1  0  0  0  0
M  END
>  <minimizedAffinity>
-5.6495533

$$$$

 OpenBabel03242512323D

 38 40  0  0  1  0  0  0  0  0999 V2000
   37.7730   26.4050   41.5850 C   0  0  1  0  0  0  0  0  0  0  0  0
   37.1220   25.1980   42.2920 C   0  0  0  0  0  0  0  0  0  0  0  0
   37.0210   24.0430   41.3410 C   0  0  0  0  0  0  0  0  0  0  0  0
   36.3120   24.4730   40.1070 C   0  0  0  0  0  0  0  0  0  0  0  0
   36.9340   25.6600   39.4570 C   0  0  0  0  0  0  0  0  0  0  0  0
   36.8560   26.8220   40.4790 C   0  0  2  0  0  0  0  0  0  0  0  0
   38.7630   26.0940   41.1780 H   0  0  0  0  0  0  0  0  0  0  0  0
   36.1020   25.5350   42.5830 H   0  0  0  0  0  0  0  0  0  0  0  0
   37.7370   25.0100   43.1860 H   0  0  0  0  0  0  0  0  0  0  0  0
   36.4120   23.2590   41.8500 H   0  0  0  0  0  0  0  0  0  0  0  0
   38.0470   23.6720   41.1560 H   0  0  0  0  0  0  0  0  0  0  0  0
   36.2520   23.6570   39.3470 H   0  0  0  0  0  0  0  0  0  0  0  0
   35.2710   24.7590   40.4120 H   0  0  0  0  0  0  0  0  0  0  0  0
   36.4000   25.9400   38.5410 H   0  0  0  0  0  0  0  0  0  0  0  0
   37.9950   25.4800   39.1940 H   0  0  0  0  0  0  0  0  0  0  0  0
   35.8050   26.6710   40.9260 H   0  0  0  0  0  0  0  0  0  0  0  0
   34.9870   28.7620   41.0220 F   0  0  0  0  0  0  0  0  0  0  0  0
   35.9840   29.0580   40.1210 C   0  0  0  0  0  0  0  0  0  0  0  0
   36.9720   28.1000   39.8350 C   0  0  0  0  0  0  0  0  0  0  0  0
   37.8600   28.6010   38.9180 C   0  0  0  0  0  0  0  0  0  0  0  0
   38.6500   27.8710   38.6670 H   0  0  0  0  0  0  0  0  0  0  0  0
   37.8710   29.8340   38.3100 C   0  0  0  0  0  0  0  0  0  0  0  0
   38.6510   30.0710   37.6030 H   0  0  0  0  0  0  0  0  0  0  0  0
   36.8630   30.6910   38.6600 C   0  0  0  0  0  3  0  0  0  0  0  0
   35.9000   30.3200   39.5720 C   0  0  0  0  0  3  0  0  0  0  0  0
   37.9840   27.4600   42.6060 C   0  0  0  0  0  0  0  0  0  0  0  0
   36.9930   27.5530   43.3780 O   0  0  0  0  0  0  0  0  0  0  0  0
   40.1150   30.3800   42.4920 C   0  0  0  0  0  0  0  0  0  0  0  0
   41.3800   29.8850   42.7660 C   0  0  0  0  0  0  0  0  0  0  0  0
   41.5180   28.5170   43.0070 C   0  0  0  0  0  0  0  0  0  0  0  0
   40.3800   27.7930   42.9470 N   0  0  0  0  0  0  0  0  0  0  0  0
   39.1750   28.2570   42.6870 C   0  0  0  0  0  0  0  0  0  0  0  0
   39.0390   29.5740   42.4540 N   0  0  0  0  0  0  0  0  0  0  0  0
   39.9460   31.7720   42.2490 N   0  0  0  0  0  0  0  0  0  0  0  0
   42.1980   30.5960   42.7790 H   0  0  0  0  0  0  0  0  0  0  0  0
   42.4830   28.1300   43.2180 H   0  0  0  0  0  0  0  0  0  0  0  0
   39.9730   32.1960   41.2950 H   0  0  0  0  0  0  0  0  0  0  0  0
   39.7990   32.2550   43.1710 H   0  0  0  0  0  0  0  0  0  0  0  0
  1  7  1  6  0  0  0
  1  2  1  0  0  0  0
  1 26  1  0  0  0  0
  2  8  1  0  0  0  0
  2  9  1  0  0  0  0
  3 10  1  0  0  0  0
  3  2  1  0  0  0  0
  4 13  1  0  0  0  0
  4  3  1  0  0  0  0
  5  4  1  0  0  0  0
  5  6  1  0  0  0  0
  6 16  1  1  0  0  0
  6  1  1  0  0  0  0
 11  3  1  0  0  0  0
 12  4  1  0  0  0  0
 14  5  1  0  0  0  0
 15  5  1  0  0  0  0
 18 17  1  0  0  0  0
 19 18  1  0  0  0  0
 19  6  1  0  0  0  0
 20 19  2  0  0  0  0
 21 20  1  0  0  0  0
 22 24  2  0  0  0  0
 22 20  1  0  0  0  0
 23 22  1  0  0  0  0
 24 25  1  0  0  0  0
 25 18  2  0  0  0  0
 26 32  1  0  0  0  0
 26 27  2  0  0  0  0
 28 29  1  0  0  0  0
 29 35  1  0  0  0  0
 29 30  2  0  0  0  0
 30 36  1  0  0  0  0
 31 30  1  0  0  0  0
 32 31  2  0  0  0  0
 33 28  2  0  0  0  0
 33 32  1  0  0  0  0
 34 28  1  0  0  0  0
 34 38  1  0  0  0  0
 37 34  1  0  0  0  0
M  END
>  <minimizedAffinity>
-5.64760256

$$$$
