
 OpenBabel03252508323D

 32 34  0  0  1  0  0  0  0  0999 V2000
   45.1930   34.2010   42.0530 N   0  0  0  0  0  0  0  0  0  0  0  0
   46.1750   33.4130   41.3610 C   0  0  1  0  0  0  0  0  0  0  0  0
   46.0700   33.4850   39.8730 C   0  0  0  0  0  0  0  0  0  0  0  0
   44.7680   33.5190   39.3350 N   0  0  0  0  0  0  0  0  0  0  0  0
   43.7420   34.1050   40.0960 C   0  0  0  0  0  0  0  0  0  0  0  0
   44.3310   34.9660   41.2030 C   0  0  0  0  0  0  0  0  0  0  0  0
   46.1070   32.3630   41.7110 H   0  0  0  0  0  0  0  0  0  0  0  0
   46.6290   34.3870   39.5260 H   0  0  0  0  0  0  0  0  0  0  0  0
   46.6560   32.6180   39.4720 H   0  0  0  0  0  0  0  0  0  0  0  0
   44.4880   32.7400   38.7260 H   0  0  0  0  0  0  0  0  0  0  0  0
   43.1700   33.2910   40.6010 H   0  0  0  0  0  0  0  0  0  0  0  0
   43.0120   34.7010   39.5430 H   0  0  0  0  0  0  0  0  0  0  0  0
   44.8490   35.8040   40.6950 H   0  0  0  0  0  0  0  0  0  0  0  0
   43.4760   35.3700   41.7610 H   0  0  0  0  0  0  0  0  0  0  0  0
   44.7320   35.2830   44.1220 C   0  0  0  0  0  0  0  0  0  0  0  0
   45.1820   34.1400   43.4690 C   0  0  0  0  0  0  0  0  0  0  0  0
   45.5710   33.0660   44.2500 C   0  0  0  0  0  0  0  0  0  0  0  0
   45.5070   33.1460   45.6080 N   0  0  0  0  0  0  0  0  0  0  0  0
   45.0620   34.2800   46.2100 C   0  0  0  0  0  0  0  0  0  0  0  0
   44.6790   35.3370   45.4630 N   0  0  0  0  0  0  0  0  0  0  0  0
   44.3880   36.2230   43.7220 H   0  0  0  0  0  0  0  0  0  0  0  0
   45.9160   32.1890   43.7240 H   0  0  0  0  0  0  0  0  0  0  0  0
   45.0580   34.2210   47.2990 H   0  0  0  0  0  0  0  0  0  0  0  0
   48.2770   31.9770   42.6680 F   0  0  0  0  0  0  0  0  0  0  0  0
   48.5230   33.2800   42.3450 C   0  0  0  0  0  0  0  0  0  0  0  0
   47.5220   33.9880   41.7150 C   0  0  0  0  0  0  0  0  0  0  0  0
   47.8400   35.2890   41.4210 C   0  0  0  0  0  0  0  0  0  0  0  0
   47.1590   35.9430   40.9360 H   0  0  0  0  0  0  0  0  0  0  0  0
   49.0650   35.8670   41.7250 C   0  0  0  0  0  0  0  0  0  0  0  0
   49.2920   36.9040   41.4800 H   0  0  0  0  0  0  0  0  0  0  0  0
   50.0220   35.0960   42.3580 C   0  0  0  0  0  3  0  0  0  0  0  0
   49.7370   33.7980   42.6640 C   0  0  0  0  0  3  0  0  0  0  0  0
  1 16  1  0  0  0  0
  2  7  1  1  0  0  0
  2 26  1  0  0  0  0
  2  1  1  0  0  0  0
  3  2  1  0  0  0  0
  4  3  1  0  0  0  0
  4  5  1  0  0  0  0
  5 11  1  0  0  0  0
  5  6  1  0  0  0  0
  6 14  1  0  0  0  0
  6  1  1  0  0  0  0
  8  3  1  0  0  0  0
  9  3  1  0  0  0  0
 10  4  1  0  0  0  0
 12  5  1  0  0  0  0
 13  6  1  0  0  0  0
 15 20  1  0  0  0  0
 16 15  2  0  0  0  0
 16 17  1  0  0  0  0
 17 18  2  0  0  0  0
 18 19  1  0  0  0  0
 19 23  1  0  0  0  0
 20 19  2  0  0  0  0
 21 15  1  0  0  0  0
 22 17  1  0  0  0  0
 25 32  1  0  0  0  0
 25 24  1  0  0  0  0
 26 25  2  0  0  0  0
 27 26  1  0  0  0  0
 27 29  2  0  0  0  0
 28 27  1  0  0  0  0
 29 31  1  0  0  0  0
 30 29  1  0  0  0  0
 31 32  2  0  0  0  0
M  END
>  <minimizedAffinity>
-5.51371765

>  <minimizedRMSD>
1.9885869

$$$$
