
 OpenBabel03252508323D

 32 34  0  0  1  0  0  0  0  0999 V2000
   45.6340   33.6980   42.8320 N   0  0  0  0  0  0  0  0  0  0  0  0
   46.3790   33.2770   41.6770 C   0  0  1  0  0  0  0  0  0  0  0  0
   46.0500   34.0370   40.4350 C   0  0  0  0  0  0  0  0  0  0  0  0
   44.6960   34.3760   40.2440 N   0  0  0  0  0  0  0  0  0  0  0  0
   43.8910   34.5890   41.3780 C   0  0  0  0  0  0  0  0  0  0  0  0
   44.7590   34.8100   42.6070 C   0  0  0  0  0  0  0  0  0  0  0  0
   46.2270   32.1900   41.5270 H   0  0  0  0  0  0  0  0  0  0  0  0
   46.6630   34.9700   40.4220 H   0  0  0  0  0  0  0  0  0  0  0  0
   46.4420   33.4290   39.5780 H   0  0  0  0  0  0  0  0  0  0  0  0
   44.2200   33.9830   39.4220 H   0  0  0  0  0  0  0  0  0  0  0  0
   43.3020   33.6610   41.5690 H   0  0  0  0  0  0  0  0  0  0  0  0
   43.1700   35.4080   41.3100 H   0  0  0  0  0  0  0  0  0  0  0  0
   45.2980   35.7630   42.4340 H   0  0  0  0  0  0  0  0  0  0  0  0
   44.0660   34.9480   43.4470 H   0  0  0  0  0  0  0  0  0  0  0  0
   46.1060   33.7650   45.1630 C   0  0  0  0  0  0  0  0  0  0  0  0
   45.8400   32.9870   44.0400 C   0  0  0  0  0  0  0  0  0  0  0  0
   45.8010   31.6150   44.2050 C   0  0  0  0  0  0  0  0  0  0  0  0
   46.0180   31.0640   45.4310 N   0  0  0  0  0  0  0  0  0  0  0  0
   46.2760   31.8560   46.5050 C   0  0  0  0  0  0  0  0  0  0  0  0
   46.3180   33.1970   46.3620 N   0  0  0  0  0  0  0  0  0  0  0  0
   46.1870   34.8350   45.2650 H   0  0  0  0  0  0  0  0  0  0  0  0
   45.5910   31.0300   43.3220 H   0  0  0  0  0  0  0  0  0  0  0  0
   46.4330   31.2980   47.4290 H   0  0  0  0  0  0  0  0  0  0  0  0
   47.4840   35.8790   42.1220 F   0  0  0  0  0  0  0  0  0  0  0  0
   48.3450   34.8210   42.1810 C   0  0  0  0  0  0  0  0  0  0  0  0
   47.8300   33.5600   41.9690 C   0  0  0  0  0  0  0  0  0  0  0  0
   48.7510   32.5470   42.0440 C   0  0  0  0  0  0  0  0  0  0  0  0
   48.4860   31.5280   41.9010 H   0  0  0  0  0  0  0  0  0  0  0  0
   50.0990   32.7520   42.3100 C   0  0  0  0  0  0  0  0  0  0  0  0
   50.8090   31.9280   42.3620 H   0  0  0  0  0  0  0  0  0  0  0  0
   50.5420   34.0460   42.5110 C   0  0  0  0  0  3  0  0  0  0  0  0
   49.6530   35.0740   42.4440 C   0  0  0  0  0  3  0  0  0  0  0  0
  1 16  1  0  0  0  0
  2  7  1  6  0  0  0
  2 26  1  0  0  0  0
  2  1  1  0  0  0  0
  3  2  1  0  0  0  0
  4  3  1  0  0  0  0
  4  5  1  0  0  0  0
  5 11  1  0  0  0  0
  5  6  1  0  0  0  0
  6  1  1  0  0  0  0
  6 14  1  0  0  0  0
  8  3  1  0  0  0  0
  9  3  1  0  0  0  0
 10  4  1  0  0  0  0
 12  5  1  0  0  0  0
 13  6  1  0  0  0  0
 15 21  1  0  0  0  0
 15 20  1  0  0  0  0
 16 17  1  0  0  0  0
 16 15  2  0  0  0  0
 17 18  2  0  0  0  0
 18 19  1  0  0  0  0
 19 23  1  0  0  0  0
 20 19  2  0  0  0  0
 22 17  1  0  0  0  0
 24 25  1  0  0  0  0
 25 32  1  0  0  0  0
 26 27  1  0  0  0  0
 26 25  2  0  0  0  0
 27 29  2  0  0  0  0
 28 27  1  0  0  0  0
 29 30  1  0  0  0  0
 29 31  1  0  0  0  0
 32 31  2  0  0  0  0
M  END
>  <minimizedAffinity>
-5.22008705

>  <minimizedRMSD>
2.31040859

$$$$
