
 OpenBabel03252508323D

 32 34  0  0  1  0  0  0  0  0999 V2000
   45.6110   33.7300   42.9460 N   0  0  0  0  0  0  0  0  0  0  0  0
   46.3160   33.3310   41.7590 C   0  0  1  0  0  0  0  0  0  0  0  0
   45.9620   34.1280   40.5480 C   0  0  0  0  0  0  0  0  0  0  0  0
   44.6080   34.4920   40.4070 N   0  0  0  0  0  0  0  0  0  0  0  0
   43.8400   34.6850   41.5690 C   0  0  0  0  0  0  0  0  0  0  0  0
   44.7460   34.8600   42.7780 C   0  0  0  0  0  0  0  0  0  0  0  0
   46.1430   32.2500   41.5850 H   0  0  0  0  0  0  0  0  0  0  0  0
   46.5880   35.0530   40.5420 H   0  0  0  0  0  0  0  0  0  0  0  0
   46.3200   33.5390   39.6640 H   0  0  0  0  0  0  0  0  0  0  0  0
   44.1030   34.1280   39.5890 H   0  0  0  0  0  0  0  0  0  0  0  0
   43.2430   33.7600   41.7530 H   0  0  0  0  0  0  0  0  0  0  0  0
   43.1290   35.5140   41.5440 H   0  0  0  0  0  0  0  0  0  0  0  0
   45.2940   35.8090   42.6140 H   0  0  0  0  0  0  0  0  0  0  0  0
   44.0800   34.9850   43.6410 H   0  0  0  0  0  0  0  0  0  0  0  0
   46.1520   33.7270   45.2640 C   0  0  0  0  0  0  0  0  0  0  0  0
   45.8420   32.9840   44.1290 C   0  0  0  0  0  0  0  0  0  0  0  0
   45.7890   31.6080   44.2580 C   0  0  0  0  0  0  0  0  0  0  0  0
   46.0330   31.0210   45.4620 N   0  0  0  0  0  0  0  0  0  0  0  0
   46.3330   31.7800   46.5480 C   0  0  0  0  0  0  0  0  0  0  0  0
   46.3900   33.1240   46.4400 N   0  0  0  0  0  0  0  0  0  0  0  0
   46.2510   34.7930   45.3920 H   0  0  0  0  0  0  0  0  0  0  0  0
   45.5450   31.0500   43.3660 H   0  0  0  0  0  0  0  0  0  0  0  0
   46.5090   31.1950   47.4520 H   0  0  0  0  0  0  0  0  0  0  0  0
   47.4860   35.9140   42.1460 F   0  0  0  0  0  0  0  0  0  0  0  0
   48.3250   34.8380   42.2000 C   0  0  0  0  0  0  0  0  0  0  0  0
   47.7790   33.5850   42.0160 C   0  0  0  0  0  0  0  0  0  0  0  0
   48.6800   32.5540   42.0840 C   0  0  0  0  0  0  0  0  0  0  0  0
   48.3900   31.5390   41.9600 H   0  0  0  0  0  0  0  0  0  0  0  0
   50.0370   32.7330   42.3170 C   0  0  0  0  0  0  0  0  0  0  0  0
   50.7310   31.8960   42.3650 H   0  0  0  0  0  0  0  0  0  0  0  0
   50.5120   34.0200   42.4920 C   0  0  0  0  0  3  0  0  0  0  0  0
   49.6440   35.0670   42.4310 C   0  0  0  0  0  3  0  0  0  0  0  0
  1 16  1  0  0  0  0
  2  7  1  6  0  0  0
  2 26  1  0  0  0  0
  2  1  1  0  0  0  0
  3  2  1  0  0  0  0
  4  3  1  0  0  0  0
  4  5  1  0  0  0  0
  5 11  1  0  0  0  0
  5  6  1  0  0  0  0
  6  1  1  0  0  0  0
  6 14  1  0  0  0  0
  8  3  1  0  0  0  0
  9  3  1  0  0  0  0
 10  4  1  0  0  0  0
 12  5  1  0  0  0  0
 13  6  1  0  0  0  0
 15 21  1  0  0  0  0
 15 20  1  0  0  0  0
 16 17  1  0  0  0  0
 16 15  2  0  0  0  0
 17 18  2  0  0  0  0
 18 19  1  0  0  0  0
 19 23  1  0  0  0  0
 20 19  2  0  0  0  0
 22 17  1  0  0  0  0
 24 25  1  0  0  0  0
 25 32  1  0  0  0  0
 26 27  1  0  0  0  0
 26 25  2  0  0  0  0
 27 29  2  0  0  0  0
 28 27  1  0  0  0  0
 29 30  1  0  0  0  0
 29 31  1  0  0  0  0
 32 31  2  0  0  0  0
M  END
>  <minimizedAffinity>
-5.1992588

>  <minimizedRMSD>
2.30650544

$$$$
