
 OpenBabel03242521403D

 21 22  0  0  0  0  0  0  0  0999 V2000
   37.3020   32.1980   39.3140 C   0  0  0  0  0  0  0  0  0  0  0  0
   37.4590   31.4180   40.4560 C   0  0  0  0  0  0  0  0  0  0  0  0
   37.5530   30.0310   40.3150 C   0  0  0  0  0  0  0  0  0  0  0  0
   37.4860   29.5290   39.0660 N   0  0  0  0  0  0  0  0  0  0  0  0
   37.3340   30.3120   37.9760 C   0  0  0  0  0  0  0  0  0  0  0  0
   37.2420   31.6510   38.1060 N   0  0  0  0  0  0  0  0  0  0  0  0
   37.5030   31.8920   41.4030 H   0  0  0  0  0  0  0  0  0  0  0  0
   37.2880   29.8430   37.0080 H   0  0  0  0  0  0  0  0  0  0  0  0
   35.4250   28.6210   41.2770 F   0  0  0  0  0  0  0  0  0  0  0  0
   36.6200   28.4660   41.9320 C   0  0  0  0  0  0  0  0  0  0  0  0
   37.7190   29.1630   41.4750 C   0  0  0  0  0  0  0  0  0  0  0  0
   38.8960   28.9730   42.1660 C   0  0  0  0  0  0  0  0  0  0  0  0
   39.7640   29.4980   41.8380 H   0  0  0  0  0  0  0  0  0  0  0  0
   38.9620   28.1310   43.2540 C   0  0  0  0  0  0  0  0  0  0  0  0
   39.9220   28.0070   43.7790 H   0  0  0  0  0  0  0  0  0  0  0  0
   37.8360   27.4520   43.6770 C   0  0  0  0  0  3  0  0  0  0  0  0
   36.6260   27.6090   43.0140 C   0  0  0  0  0  3  0  0  0  0  0  0
   37.2050   33.6770   39.4990 C   0  0  0  0  0  0  0  0  0  0  0  0
   37.5620   34.2430   38.6200 H   0  0  0  0  0  0  0  0  0  0  0  0
   37.7380   33.9730   40.4300 H   0  0  0  0  0  0  0  0  0  0  0  0
   36.1270   33.9310   39.7170 H   0  0  0  0  0  0  0  0  0  0  0  0
  1 18  1  0  0  0  0
  1  2  1  0  0  0  0
  2  7  1  0  0  0  0
  3  2  2  0  0  0  0
  3 11  1  0  0  0  0
  4  3  1  0  0  0  0
  5  6  1  0  0  0  0
  5  4  2  0  0  0  0
  6  1  2  0  0  0  0
  8  5  1  0  0  0  0
  9 10  1  0  0  0  0
 10 17  1  0  0  0  0
 11 10  2  0  0  0  0
 11 12  1  0  0  0  0
 12 14  2  0  0  0  0
 13 12  1  0  0  0  0
 14 16  1  0  0  0  0
 14 15  1  0  0  0  0
 17 16  2  0  0  0  0
 18 21  1  0  0  0  0
 18 20  1  0  0  0  0
 19 18  1  0  0  0  0
M  END
>  <minimizedAffinity>
-4.65612173

$$$$

 OpenBabel03242521403D

 21 22  0  0  0  0  0  0  0  0999 V2000
   37.2940   31.0350   38.2140 C   0  0  0  0  0  0  0  0  0  0  0  0
   37.2570   30.0300   39.1760 C   0  0  0  0  0  0  0  0  0  0  0  0
   37.2480   30.3910   40.5250 C   0  0  0  0  0  0  0  0  0  0  0  0
   37.2740   31.7070   40.8150 N   0  0  0  0  0  0  0  0  0  0  0  0
   37.3080   32.6600   39.8600 C   0  0  0  0  0  0  0  0  0  0  0  0
   37.3170   32.3170   38.5560 N   0  0  0  0  0  0  0  0  0  0  0  0
   37.2390   29.0170   38.8640 H   0  0  0  0  0  0  0  0  0  0  0  0
   37.3270   33.6930   40.1630 H   0  0  0  0  0  0  0  0  0  0  0  0
   39.0440   30.4930   42.5770 F   0  0  0  0  0  0  0  0  0  0  0  0
   38.1340   29.4660   42.5980 C   0  0  0  0  0  0  0  0  0  0  0  0
   37.2110   29.3810   41.5780 C   0  0  0  0  0  0  0  0  0  0  0  0
   36.3180   28.3330   41.6440 C   0  0  0  0  0  0  0  0  0  0  0  0
   35.5910   28.2390   40.8700 H   0  0  0  0  0  0  0  0  0  0  0  0
   36.3560   27.4230   42.6790 C   0  0  0  0  0  0  0  0  0  0  0  0
   35.6250   26.6000   42.6950 H   0  0  0  0  0  0  0  0  0  0  0  0
   37.2970   27.5480   43.6800 C   0  0  0  0  0  3  0  0  0  0  0  0
   38.2190   28.5870   43.6580 C   0  0  0  0  0  3  0  0  0  0  0  0
   37.3030   30.6160   36.7800 C   0  0  0  0  0  0  0  0  0  0  0  0
   36.8570   31.3720   36.1100 H   0  0  0  0  0  0  0  0  0  0  0  0
   36.8080   29.6250   36.6780 H   0  0  0  0  0  0  0  0  0  0  0  0
   38.3720   30.4110   36.4840 H   0  0  0  0  0  0  0  0  0  0  0  0
  1  6  2  0  0  0  0
  1  2  1  0  0  0  0
  2  3  2  0  0  0  0
  3  4  1  0  0  0  0
  3 11  1  0  0  0  0
  5  8  1  0  0  0  0
  5  4  2  0  0  0  0
  6  5  1  0  0  0  0
  7  2  1  0  0  0  0
  9 10  1  0  0  0  0
 10 17  1  0  0  0  0
 11 12  1  0  0  0  0
 11 10  2  0  0  0  0
 12 14  2  0  0  0  0
 13 12  1  0  0  0  0
 14 15  1  0  0  0  0
 14 16  1  0  0  0  0
 17 16  2  0  0  0  0
 18  1  1  0  0  0  0
 19 18  1  0  0  0  0
 20 18  1  0  0  0  0
 21 18  1  0  0  0  0
M  END
>  <minimizedAffinity>
-4.60924482

$$$$

 OpenBabel03242521403D

 21 22  0  0  0  0  0  0  0  0999 V2000
   38.2190   32.4780   40.2970 C   0  0  0  0  0  0  0  0  0  0  0  0
   37.6570   31.2960   40.7690 C   0  0  0  0  0  0  0  0  0  0  0  0
   38.4690   30.3970   41.4650 C   0  0  0  0  0  0  0  0  0  0  0  0
   39.7620   30.7360   41.6390 N   0  0  0  0  0  0  0  0  0  0  0  0
   40.2790   31.8910   41.1690 C   0  0  0  0  0  0  0  0  0  0  0  0
   39.5010   32.7630   40.4970 N   0  0  0  0  0  0  0  0  0  0  0  0
   36.6300   31.1060   40.5900 H   0  0  0  0  0  0  0  0  0  0  0  0
   41.3220   32.0970   41.3440 H   0  0  0  0  0  0  0  0  0  0  0  0
   38.2690   28.2220   39.8300 F   0  0  0  0  0  0  0  0  0  0  0  0
   37.8500   28.0650   41.1270 C   0  0  0  0  0  0  0  0  0  0  0  0
   37.9350   29.1420   41.9830 C   0  0  0  0  0  0  0  0  0  0  0  0
   37.5020   28.9350   43.2760 C   0  0  0  0  0  0  0  0  0  0  0  0
   37.5550   29.7480   43.9630 H   0  0  0  0  0  0  0  0  0  0  0  0
   37.0120   27.7120   43.6800 C   0  0  0  0  0  0  0  0  0  0  0  0
   36.6760   27.5870   44.7210 H   0  0  0  0  0  0  0  0  0  0  0  0
   36.9450   26.6610   42.7880 C   0  0  0  0  0  3  0  0  0  0  0  0
   37.3690   26.8190   41.4750 C   0  0  0  0  0  3  0  0  0  0  0  0
   37.3250   33.4190   39.5570 C   0  0  0  0  0  0  0  0  0  0  0  0
   37.6490   34.4720   39.6380 H   0  0  0  0  0  0  0  0  0  0  0  0
   36.2750   33.2790   39.8960 H   0  0  0  0  0  0  0  0  0  0  0  0
   37.3010   33.0980   38.4760 H   0  0  0  0  0  0  0  0  0  0  0  0
  1  6  2  0  0  0  0
  1  2  1  0  0  0  0
  2  3  2  0  0  0  0
  3  4  1  0  0  0  0
  3 11  1  0  0  0  0
  5  8  1  0  0  0  0
  5  4  2  0  0  0  0
  6  5  1  0  0  0  0
  7  2  1  0  0  0  0
  9 10  1  0  0  0  0
 10 17  2  0  0  0  0
 10 11  1  0  0  0  0
 11 12  2  0  0  0  0
 12 14  1  0  0  0  0
 12 13  1  0  0  0  0
 14 15  1  0  0  0  0
 16 14  2  0  0  0  0
 17 16  1  0  0  0  0
 18 19  1  0  0  0  0
 18 20  1  0  0  0  0
 18  1  1  0  0  0  0
 21 18  1  0  0  0  0
M  END
>  <minimizedAffinity>
-4.46071434

$$$$

 OpenBabel03242521403D

 21 22  0  0  0  0  0  0  0  0999 V2000
   38.1250   32.5830   39.7310 C   0  0  0  0  0  0  0  0  0  0  0  0
   37.5760   31.5540   40.4900 C   0  0  0  0  0  0  0  0  0  0  0  0
   38.3250   30.3920   40.6860 C   0  0  0  0  0  0  0  0  0  0  0  0
   39.5480   30.3390   40.1220 N   0  0  0  0  0  0  0  0  0  0  0  0
   40.0540   31.3540   39.3910 C   0  0  0  0  0  0  0  0  0  0  0  0
   39.3360   32.4790   39.1980 N   0  0  0  0  0  0  0  0  0  0  0  0
   36.6060   31.6760   40.8990 H   0  0  0  0  0  0  0  0  0  0  0  0
   41.0390   31.2450   38.9690 H   0  0  0  0  0  0  0  0  0  0  0  0
   38.9060   30.2100   43.3460 F   0  0  0  0  0  0  0  0  0  0  0  0
   38.1170   29.2220   42.8140 C   0  0  0  0  0  0  0  0  0  0  0  0
   37.8010   29.2790   41.4730 C   0  0  0  0  0  0  0  0  0  0  0  0
   37.0060   28.2650   40.9860 C   0  0  0  0  0  0  0  0  0  0  0  0
   36.7440   28.2800   39.9530 H   0  0  0  0  0  0  0  0  0  0  0  0
   36.5550   27.2520   41.8040 C   0  0  0  0  0  0  0  0  0  0  0  0
   35.9220   26.4590   41.3750 H   0  0  0  0  0  0  0  0  0  0  0  0
   36.8950   27.2340   43.1410 C   0  0  0  0  0  3  0  0  0  0  0  0
   37.6950   28.2340   43.6800 C   0  0  0  0  0  3  0  0  0  0  0  0
   37.2990   33.8140   39.5400 C   0  0  0  0  0  0  0  0  0  0  0  0
   37.9100   34.7200   39.3810 H   0  0  0  0  0  0  0  0  0  0  0  0
   36.5980   33.9290   40.3960 H   0  0  0  0  0  0  0  0  0  0  0  0
   36.6170   33.6420   38.6580 H   0  0  0  0  0  0  0  0  0  0  0  0
  1  2  1  0  0  0  0
  2  3  2  0  0  0  0
  2  7  1  0  0  0  0
  3 11  1  0  0  0  0
  4  3  1  0  0  0  0
  5  4  2  0  0  0  0
  6  5  1  0  0  0  0
  6  1  2  0  0  0  0
  8  5  1  0  0  0  0
 10  9  1  0  0  0  0
 10 17  1  0  0  0  0
 11 10  2  0  0  0  0
 12 11  1  0  0  0  0
 12 14  2  0  0  0  0
 13 12  1  0  0  0  0
 14 16  1  0  0  0  0
 15 14  1  0  0  0  0
 16 17  2  0  0  0  0
 18  1  1  0  0  0  0
 18 20  1  0  0  0  0
 19 18  1  0  0  0  0
 21 18  1  0  0  0  0
M  END
>  <minimizedAffinity>
-4.43740082

$$$$

 OpenBabel03242521403D

 21 22  0  0  0  0  0  0  0  0999 V2000
   39.9290   32.6040   40.3730 C   0  0  0  0  0  0  0  0  0  0  0  0
   39.0630   31.5660   40.0450 C   0  0  0  0  0  0  0  0  0  0  0  0
   37.7450   31.8740   39.6990 C   0  0  0  0  0  0  0  0  0  0  0  0
   37.3900   33.1750   39.7040 N   0  0  0  0  0  0  0  0  0  0  0  0
   38.2540   34.1610   40.0270 C   0  0  0  0  0  0  0  0  0  0  0  0
   39.5270   33.8690   40.3620 N   0  0  0  0  0  0  0  0  0  0  0  0
   39.4210   30.5690   40.0660 H   0  0  0  0  0  0  0  0  0  0  0  0
   37.9030   35.1790   40.0100 H   0  0  0  0  0  0  0  0  0  0  0  0
   36.1620   30.7650   41.6240 F   0  0  0  0  0  0  0  0  0  0  0  0
   36.0080   30.2910   40.3450 C   0  0  0  0  0  0  0  0  0  0  0  0
   36.7910   30.8280   39.3450 C   0  0  0  0  0  0  0  0  0  0  0  0
   36.6010   30.3200   38.0780 C   0  0  0  0  0  0  0  0  0  0  0  0
   37.1900   30.7140   37.2820 H   0  0  0  0  0  0  0  0  0  0  0  0
   35.6740   29.3300   37.8350 C   0  0  0  0  0  0  0  0  0  0  0  0
   35.5520   28.9510   36.8080 H   0  0  0  0  0  0  0  0  0  0  0  0
   34.9110   28.8220   38.8670 C   0  0  0  0  0  3  0  0  0  0  0  0
   35.0670   29.3010   40.1620 C   0  0  0  0  0  3  0  0  0  0  0  0
   41.3310   32.2410   40.7390 C   0  0  0  0  0  0  0  0  0  0  0  0
   42.0540   33.0460   40.5160 H   0  0  0  0  0  0  0  0  0  0  0  0
   41.6090   31.2840   40.2460 H   0  0  0  0  0  0  0  0  0  0  0  0
   41.3510   31.9910   41.8390 H   0  0  0  0  0  0  0  0  0  0  0  0
  1 18  1  0  0  0  0
  2  7  1  0  0  0  0
  2  1  2  0  0  0  0
  3  4  2  0  0  0  0
  3  2  1  0  0  0  0
  4  5  1  0  0  0  0
  5  6  2  0  0  0  0
  6  1  1  0  0  0  0
  8  5  1  0  0  0  0
 10  9  1  0  0  0  0
 11  3  1  0  0  0  0
 11 10  2  0  0  0  0
 12 11  1  0  0  0  0
 13 12  1  0  0  0  0
 14 12  2  0  0  0  0
 14 16  1  0  0  0  0
 15 14  1  0  0  0  0
 16 17  2  0  0  0  0
 17 10  1  0  0  0  0
 18 21  1  0  0  0  0
 19 18  1  0  0  0  0
 20 18  1  0  0  0  0
M  END
>  <minimizedAffinity>
-4.43716908

$$$$

 OpenBabel03242521403D

 21 22  0  0  0  0  0  0  0  0999 V2000
   37.5590   28.2290   42.3970 C   0  0  0  0  0  0  0  0  0  0  0  0
   37.6420   29.5970   42.1550 C   0  0  0  0  0  0  0  0  0  0  0  0
   38.2260   30.0350   40.9640 C   0  0  0  0  0  0  0  0  0  0  0  0
   38.6770   29.0930   40.1110 N   0  0  0  0  0  0  0  0  0  0  0  0
   38.5820   27.7720   40.3740 C   0  0  0  0  0  0  0  0  0  0  0  0
   38.0200   27.3430   41.5220 N   0  0  0  0  0  0  0  0  0  0  0  0
   37.2630   30.2730   42.8780 H   0  0  0  0  0  0  0  0  0  0  0  0
   38.9640   27.0740   39.6480 H   0  0  0  0  0  0  0  0  0  0  0  0
   36.2590   31.2850   39.5460 F   0  0  0  0  0  0  0  0  0  0  0  0
   37.3260   32.0530   39.9380 C   0  0  0  0  0  0  0  0  0  0  0  0
   38.3410   31.4560   40.6560 C   0  0  0  0  0  0  0  0  0  0  0  0
   39.3900   32.2690   41.0270 C   0  0  0  0  0  0  0  0  0  0  0  0
   40.1900   31.8380   41.5840 H   0  0  0  0  0  0  0  0  0  0  0  0
   39.4150   33.6050   40.6920 C   0  0  0  0  0  0  0  0  0  0  0  0
   40.2730   34.2210   41.0070 H   0  0  0  0  0  0  0  0  0  0  0  0
   38.3780   34.1610   39.9720 C   0  0  0  0  0  3  0  0  0  0  0  0
   37.2970   33.3840   39.5740 C   0  0  0  0  0  3  0  0  0  0  0  0
   36.9290   27.7930   43.6790 C   0  0  0  0  0  0  0  0  0  0  0  0
   36.4630   26.7940   43.6100 H   0  0  0  0  0  0  0  0  0  0  0  0
   36.2070   28.5670   44.0220 H   0  0  0  0  0  0  0  0  0  0  0  0
   37.7260   27.8000   44.4780 H   0  0  0  0  0  0  0  0  0  0  0  0
  1 18  1  0  0  0  0
  2  1  1  0  0  0  0
  2  7  1  0  0  0  0
  3  2  2  0  0  0  0
  4  5  2  0  0  0  0
  4  3  1  0  0  0  0
  5  6  1  0  0  0  0
  6  1  2  0  0  0  0
  8  5  1  0  0  0  0
  9 10  1  0  0  0  0
 10 11  1  0  0  0  0
 11  3  1  0  0  0  0
 11 12  2  0  0  0  0
 12 13  1  0  0  0  0
 14 15  1  0  0  0  0
 14 12  1  0  0  0  0
 16 14  2  0  0  0  0
 17 10  2  0  0  0  0
 17 16  1  0  0  0  0
 18 20  1  0  0  0  0
 18 21  1  0  0  0  0
 19 18  1  0  0  0  0
M  END
>  <minimizedAffinity>
-4.41263914

$$$$

 OpenBabel03242521403D

 21 22  0  0  0  0  0  0  0  0999 V2000
   39.8240   32.3980   40.7910 C   0  0  0  0  0  0  0  0  0  0  0  0
   38.9020   31.4010   40.4880 C   0  0  0  0  0  0  0  0  0  0  0  0
   37.6520   31.7720   39.9880 C   0  0  0  0  0  0  0  0  0  0  0  0
   37.4140   33.0890   39.8260 N   0  0  0  0  0  0  0  0  0  0  0  0
   38.3300   34.0340   40.1280 C   0  0  0  0  0  0  0  0  0  0  0  0
   39.5390   33.6820   40.6110 N   0  0  0  0  0  0  0  0  0  0  0  0
   39.1680   30.3870   40.6440 H   0  0  0  0  0  0  0  0  0  0  0  0
   38.0730   35.0680   39.9740 H   0  0  0  0  0  0  0  0  0  0  0  0
   37.3000   31.0070   37.3920 F   0  0  0  0  0  0  0  0  0  0  0  0
   36.4960   30.4100   38.3300 C   0  0  0  0  0  0  0  0  0  0  0  0
   36.6440   30.7710   39.6520 C   0  0  0  0  0  0  0  0  0  0  0  0
   35.8150   30.1430   40.5560 C   0  0  0  0  0  0  0  0  0  0  0  0
   35.9040   30.4000   41.5870 H   0  0  0  0  0  0  0  0  0  0  0  0
   34.8890   29.2070   40.1490 C   0  0  0  0  0  0  0  0  0  0  0  0
   34.2450   28.7280   40.9030 H   0  0  0  0  0  0  0  0  0  0  0  0
   34.7760   28.8760   38.8150 C   0  0  0  0  0  3  0  0  0  0  0  0
   35.5890   29.4810   37.8650 C   0  0  0  0  0  3  0  0  0  0  0  0
   41.1530   31.9680   41.3240 C   0  0  0  0  0  0  0  0  0  0  0  0
   41.9600   32.6850   41.0900 H   0  0  0  0  0  0  0  0  0  0  0  0
   41.3870   30.9430   40.9600 H   0  0  0  0  0  0  0  0  0  0  0  0
   41.0540   31.8390   42.4400 H   0  0  0  0  0  0  0  0  0  0  0  0
  1 18  1  0  0  0  0
  2  7  1  0  0  0  0
  2  1  2  0  0  0  0
  3  2  1  0  0  0  0
  4  3  2  0  0  0  0
  4  5  1  0  0  0  0
  5  6  2  0  0  0  0
  6  1  1  0  0  0  0
  8  5  1  0  0  0  0
  9 10  1  0  0  0  0
 10 11  1  0  0  0  0
 11  3  1  0  0  0  0
 11 12  2  0  0  0  0
 12 13  1  0  0  0  0
 14 12  1  0  0  0  0
 14 15  1  0  0  0  0
 16 14  2  0  0  0  0
 17 10  2  0  0  0  0
 17 16  1  0  0  0  0
 18 21  1  0  0  0  0
 19 18  1  0  0  0  0
 20 18  1  0  0  0  0
M  END
>  <minimizedAffinity>
-4.380898

$$$$

 OpenBabel03242521403D

 21 22  0  0  0  0  0  0  0  0999 V2000
   38.1450   30.3820   41.2420 C   0  0  0  0  0  0  0  0  0  0  0  0
   38.1600   28.9910   41.2210 C   0  0  0  0  0  0  0  0  0  0  0  0
   36.9730   28.3110   40.9410 C   0  0  0  0  0  0  0  0  0  0  0  0
   35.8730   29.0530   40.7040 N   0  0  0  0  0  0  0  0  0  0  0  0
   35.8900   30.4030   40.7310 C   0  0  0  0  0  0  0  0  0  0  0  0
   37.0330   31.0660   41.0010 N   0  0  0  0  0  0  0  0  0  0  0  0
   39.0680   28.4820   41.4180 H   0  0  0  0  0  0  0  0  0  0  0  0
   34.9740   30.9340   40.5320 H   0  0  0  0  0  0  0  0  0  0  0  0
   37.1010   26.8860   43.2640 F   0  0  0  0  0  0  0  0  0  0  0  0
   36.9940   26.1670   42.1000 C   0  0  0  0  0  0  0  0  0  0  0  0
   36.9270   26.8530   40.9060 C   0  0  0  0  0  0  0  0  0  0  0  0
   36.8200   26.0870   39.7640 C   0  0  0  0  0  0  0  0  0  0  0  0
   36.7660   26.5870   38.8250 H   0  0  0  0  0  0  0  0  0  0  0  0
   36.7840   24.7110   39.8250 C   0  0  0  0  0  0  0  0  0  0  0  0
   36.6980   24.1360   38.8900 H   0  0  0  0  0  0  0  0  0  0  0  0
   36.8530   24.0670   41.0430 C   0  0  0  0  0  3  0  0  0  0  0  0
   36.9620   24.7940   42.2220 C   0  0  0  0  0  3  0  0  0  0  0  0
   39.4310   31.0810   41.5440 C   0  0  0  0  0  0  0  0  0  0  0  0
   39.4900   32.0860   41.0900 H   0  0  0  0  0  0  0  0  0  0  0  0
   40.2850   30.4360   41.2410 H   0  0  0  0  0  0  0  0  0  0  0  0
   39.5340   31.1500   42.6650 H   0  0  0  0  0  0  0  0  0  0  0  0
  1 18  1  0  0  0  0
  2  1  1  0  0  0  0
  2  7  1  0  0  0  0
  3  2  2  0  0  0  0
  4  5  2  0  0  0  0
  4  3  1  0  0  0  0
  5  6  1  0  0  0  0
  6  1  2  0  0  0  0
  8  5  1  0  0  0  0
 10 17  1  0  0  0  0
 10  9  1  0  0  0  0
 11  3  1  0  0  0  0
 11 10  2  0  0  0  0
 12 14  2  0  0  0  0
 12 11  1  0  0  0  0
 13 12  1  0  0  0  0
 14 16  1  0  0  0  0
 15 14  1  0  0  0  0
 16 17  2  0  0  0  0
 18 21  1  0  0  0  0
 19 18  1  0  0  0  0
 20 18  1  0  0  0  0
M  END
>  <minimizedAffinity>
-4.29842186

$$$$

 OpenBabel03242521403D

 21 22  0  0  0  0  0  0  0  0999 V2000
   37.1450   26.8980   41.5630 C   0  0  0  0  0  0  0  0  0  0  0  0
   37.4250   28.1370   40.9960 C   0  0  0  0  0  0  0  0  0  0  0  0
   37.5460   29.2470   41.8350 C   0  0  0  0  0  0  0  0  0  0  0  0
   37.3850   29.0450   43.1580 N   0  0  0  0  0  0  0  0  0  0  0  0
   37.1140   27.8300   43.6790 C   0  0  0  0  0  0  0  0  0  0  0  0
   36.9950   26.7540   42.8740 N   0  0  0  0  0  0  0  0  0  0  0  0
   37.5370   28.2100   39.9450 H   0  0  0  0  0  0  0  0  0  0  0  0
   36.9970   27.7410   44.7460 H   0  0  0  0  0  0  0  0  0  0  0  0
   40.0090   30.3580   42.2130 F   0  0  0  0  0  0  0  0  0  0  0  0
   39.0950   31.1000   41.5100 C   0  0  0  0  0  0  0  0  0  0  0  0
   37.8390   30.5720   41.2980 C   0  0  0  0  0  0  0  0  0  0  0  0
   36.9560   31.3550   40.5860 C   0  0  0  0  0  0  0  0  0  0  0  0
   35.9770   30.9750   40.4050 H   0  0  0  0  0  0  0  0  0  0  0  0
   37.3190   32.5980   40.1150 C   0  0  0  0  0  0  0  0  0  0  0  0
   36.5840   33.1920   39.5500 H   0  0  0  0  0  0  0  0  0  0  0  0
   38.5880   33.0870   40.3500 C   0  0  0  0  0  3  0  0  0  0  0  0
   39.5140   32.3360   41.0630 C   0  0  0  0  0  3  0  0  0  0  0  0
   37.0210   25.7300   40.6380 C   0  0  0  0  0  0  0  0  0  0  0  0
   37.2820   24.7710   41.1210 H   0  0  0  0  0  0  0  0  0  0  0  0
   37.6240   25.9140   39.7220 H   0  0  0  0  0  0  0  0  0  0  0  0
   35.9600   25.7000   40.2570 H   0  0  0  0  0  0  0  0  0  0  0  0
  1  6  1  0  0  0  0
  2  1  2  0  0  0  0
  2  3  1  0  0  0  0
  3  4  2  0  0  0  0
  4  5  1  0  0  0  0
  5  8  1  0  0  0  0
  6  5  2  0  0  0  0
  7  2  1  0  0  0  0
 10  9  1  0  0  0  0
 11 10  1  0  0  0  0
 11  3  1  0  0  0  0
 12 11  2  0  0  0  0
 13 12  1  0  0  0  0
 14 16  2  0  0  0  0
 14 12  1  0  0  0  0
 15 14  1  0  0  0  0
 16 17  1  0  0  0  0
 17 10  2  0  0  0  0
 18 19  1  0  0  0  0
 18  1  1  0  0  0  0
 20 18  1  0  0  0  0
 21 18  1  0  0  0  0
M  END
>  <minimizedAffinity>
-4.29834843

$$$$
