
 OpenBabel03252508323D

 32 34  0  0  1  0  0  0  0  0999 V2000
   45.4920   33.0290   42.2280 N   0  0  0  0  0  0  0  0  0  0  0  0
   46.8080   32.4770   42.0620 C   0  0  1  0  0  0  0  0  0  0  0  0
   46.9680   31.6550   40.8260 C   0  0  0  0  0  0  0  0  0  0  0  0
   45.8750   30.8440   40.4630 N   0  0  0  0  0  0  0  0  0  0  0  0
   44.5790   31.2720   40.8060 C   0  0  0  0  0  0  0  0  0  0  0  0
   44.5860   32.7520   41.1530 C   0  0  0  0  0  0  0  0  0  0  0  0
   47.0680   31.8880   42.9640 H   0  0  0  0  0  0  0  0  0  0  0  0
   47.2090   32.3400   39.9780 H   0  0  0  0  0  0  0  0  0  0  0  0
   47.8980   31.0450   40.9690 H   0  0  0  0  0  0  0  0  0  0  0  0
   46.0240   29.8270   40.4470 H   0  0  0  0  0  0  0  0  0  0  0  0
   44.2650   30.7320   41.7310 H   0  0  0  0  0  0  0  0  0  0  0  0
   43.8000   31.0930   40.0610 H   0  0  0  0  0  0  0  0  0  0  0  0
   44.8440   33.2850   40.2160 H   0  0  0  0  0  0  0  0  0  0  0  0
   43.5540   33.0050   41.4270 H   0  0  0  0  0  0  0  0  0  0  0  0
   44.6450   35.0180   43.2230 C   0  0  0  0  0  0  0  0  0  0  0  0
   45.2360   33.7720   43.4080 C   0  0  0  0  0  0  0  0  0  0  0  0
   45.5150   33.3800   44.7050 C   0  0  0  0  0  0  0  0  0  0  0  0
   45.2130   34.1990   45.7500 N   0  0  0  0  0  0  0  0  0  0  0  0
   44.6360   35.4100   45.5300 C   0  0  0  0  0  0  0  0  0  0  0  0
   44.3570   35.8080   44.2710 N   0  0  0  0  0  0  0  0  0  0  0  0
   44.3480   35.5200   42.3160 H   0  0  0  0  0  0  0  0  0  0  0  0
   45.9720   32.4090   44.8260 H   0  0  0  0  0  0  0  0  0  0  0  0
   44.4440   35.9720   46.4440 H   0  0  0  0  0  0  0  0  0  0  0  0
   46.8430   34.2920   39.8500 F   0  0  0  0  0  0  0  0  0  0  0  0
   47.7560   34.5060   40.8410 C   0  0  0  0  0  0  0  0  0  0  0  0
   47.7530   33.6420   41.9160 C   0  0  0  0  0  0  0  0  0  0  0  0
   48.6960   33.9180   42.8720 C   0  0  0  0  0  0  0  0  0  0  0  0
   48.8020   33.3290   43.7510 H   0  0  0  0  0  0  0  0  0  0  0  0
   49.5900   34.9770   42.7880 C   0  0  0  0  0  0  0  0  0  0  0  0
   50.3290   35.1740   43.5620 H   0  0  0  0  0  0  0  0  0  0  0  0
   49.5320   35.8020   41.6790 C   0  0  0  0  0  3  0  0  0  0  0  0
   48.6070   35.5550   40.7100 C   0  0  0  0  0  3  0  0  0  0  0  0
  1 16  1  0  0  0  0
  2  1  1  0  0  0  0
  2  7  1  1  0  0  0
  3  9  1  0  0  0  0
  3  2  1  0  0  0  0
  4  5  1  0  0  0  0
  4  3  1  0  0  0  0
  5  6  1  0  0  0  0
  5 11  1  0  0  0  0
  6 14  1  0  0  0  0
  6  1  1  0  0  0  0
  8  3  1  0  0  0  0
 10  4  1  0  0  0  0
 12  5  1  0  0  0  0
 13  6  1  0  0  0  0
 15 16  2  0  0  0  0
 15 20  1  0  0  0  0
 16 17  1  0  0  0  0
 17 22  1  0  0  0  0
 17 18  2  0  0  0  0
 19 18  1  0  0  0  0
 19 23  1  0  0  0  0
 20 19  2  0  0  0  0
 21 15  1  0  0  0  0
 24 25  1  0  0  0  0
 25 26  1  0  0  0  0
 26  2  1  0  0  0  0
 26 27  2  0  0  0  0
 27 28  1  0  0  0  0
 29 27  1  0  0  0  0
 29 30  1  0  0  0  0
 31 29  2  0  0  0  0
 32 25  2  0  0  0  0
 32 31  1  0  0  0  0
M  END
>  <minimizedAffinity>
-5.13301468

>  <minimizedRMSD>
2.69671321

$$$$
