
 OpenBabel03252508323D

 32 34  0  0  1  0  0  0  0  0999 V2000
   45.6340   33.6990   42.8320 N   0  0  0  0  0  0  0  0  0  0  0  0
   46.3790   33.2770   41.6770 C   0  0  1  0  0  0  0  0  0  0  0  0
   46.0500   34.0360   40.4350 C   0  0  0  0  0  0  0  0  0  0  0  0
   44.6960   34.3760   40.2450 N   0  0  0  0  0  0  0  0  0  0  0  0
   43.8920   34.5900   41.3780 C   0  0  0  0  0  0  0  0  0  0  0  0
   44.7600   34.8110   42.6070 C   0  0  0  0  0  0  0  0  0  0  0  0
   46.2260   32.1890   41.5280 H   0  0  0  0  0  0  0  0  0  0  0  0
   46.6630   34.9690   40.4210 H   0  0  0  0  0  0  0  0  0  0  0  0
   46.4420   33.4280   39.5780 H   0  0  0  0  0  0  0  0  0  0  0  0
   44.2200   33.9830   39.4220 H   0  0  0  0  0  0  0  0  0  0  0  0
   43.3030   33.6620   41.5700 H   0  0  0  0  0  0  0  0  0  0  0  0
   43.1710   35.4080   41.3100 H   0  0  0  0  0  0  0  0  0  0  0  0
   45.2990   35.7630   42.4330 H   0  0  0  0  0  0  0  0  0  0  0  0
   44.0670   34.9490   43.4470 H   0  0  0  0  0  0  0  0  0  0  0  0
   46.1070   33.7660   45.1630 C   0  0  0  0  0  0  0  0  0  0  0  0
   45.8400   32.9880   44.0410 C   0  0  0  0  0  0  0  0  0  0  0  0
   45.8020   31.6160   44.2060 C   0  0  0  0  0  0  0  0  0  0  0  0
   46.0190   31.0650   45.4320 N   0  0  0  0  0  0  0  0  0  0  0  0
   46.2760   31.8570   46.5060 C   0  0  0  0  0  0  0  0  0  0  0  0
   46.3180   33.1990   46.3620 N   0  0  0  0  0  0  0  0  0  0  0  0
   46.1870   34.8360   45.2650 H   0  0  0  0  0  0  0  0  0  0  0  0
   45.5920   31.0300   43.3230 H   0  0  0  0  0  0  0  0  0  0  0  0
   46.4330   31.3000   47.4300 H   0  0  0  0  0  0  0  0  0  0  0  0
   47.4850   35.8780   42.1210 F   0  0  0  0  0  0  0  0  0  0  0  0
   48.3450   34.8200   42.1810 C   0  0  0  0  0  0  0  0  0  0  0  0
   47.8310   33.5590   41.9690 C   0  0  0  0  0  0  0  0  0  0  0  0
   48.7510   32.5470   42.0440 C   0  0  0  0  0  0  0  0  0  0  0  0
   48.4870   31.5270   41.9010 H   0  0  0  0  0  0  0  0  0  0  0  0
   50.0990   32.7510   42.3090 C   0  0  0  0  0  0  0  0  0  0  0  0
   50.8090   31.9280   42.3630 H   0  0  0  0  0  0  0  0  0  0  0  0
   50.5430   34.0450   42.5110 C   0  0  0  0  0  3  0  0  0  0  0  0
   49.6530   35.0740   42.4440 C   0  0  0  0  0  3  0  0  0  0  0  0
  1 16  1  0  0  0  0
  2  7  1  6  0  0  0
  2 26  1  0  0  0  0
  2  1  1  0  0  0  0
  3  2  1  0  0  0  0
  4  3  1  0  0  0  0
  4  5  1  0  0  0  0
  5 11  1  0  0  0  0
  5  6  1  0  0  0  0
  6  1  1  0  0  0  0
  6 14  1  0  0  0  0
  8  3  1  0  0  0  0
  9  3  1  0  0  0  0
 10  4  1  0  0  0  0
 12  5  1  0  0  0  0
 13  6  1  0  0  0  0
 15 21  1  0  0  0  0
 15 20  1  0  0  0  0
 16 17  1  0  0  0  0
 16 15  2  0  0  0  0
 17 18  2  0  0  0  0
 18 19  1  0  0  0  0
 19 23  1  0  0  0  0
 20 19  2  0  0  0  0
 22 17  1  0  0  0  0
 24 25  1  0  0  0  0
 25 32  1  0  0  0  0
 26 27  1  0  0  0  0
 26 25  2  0  0  0  0
 27 29  2  0  0  0  0
 28 27  1  0  0  0  0
 29 30  1  0  0  0  0
 29 31  1  0  0  0  0
 32 31  2  0  0  0  0
M  END
>  <minimizedAffinity>
-5.22025585

>  <minimizedRMSD>
2.22598147

$$$$
