
 OpenBabel03252503063D

 20 21  0  0  0  0  0  0  0  0999 V2000
   45.3250   36.1650   43.1530 C   0  0  0  0  0  0  0  0  0  0  0  0
   45.9160   34.9290   42.9110 C   0  0  0  0  0  0  0  0  0  0  0  0
   45.8360   33.9740   43.9090 C   0  0  0  0  0  0  0  0  0  0  0  0
   45.1870   34.2950   45.0700 N   0  0  0  0  0  0  0  0  0  0  0  0
   44.6240   35.5080   45.2740 C   0  0  0  0  0  0  0  0  0  0  0  0
   44.6910   36.4510   44.3140 N   0  0  0  0  0  0  0  0  0  0  0  0
   45.3920   36.9110   42.3620 H   0  0  0  0  0  0  0  0  0  0  0  0
   44.1380   35.6360   46.2380 H   0  0  0  0  0  0  0  0  0  0  0  0
   44.1850   31.9810   43.0620 F   0  0  0  0  0  0  0  0  0  0  0  0
   45.5140   31.7220   43.2990 C   0  0  0  0  0  0  0  0  0  0  0  0
   46.4350   32.6550   43.7280 C   0  0  0  0  0  0  0  0  0  0  0  0
   47.7370   32.2420   43.9200 C   0  0  0  0  0  0  0  0  0  0  0  0
   48.3870   33.0350   44.2550 H   0  0  0  0  0  0  0  0  0  0  0  0
   48.0600   30.9260   43.6770 C   0  0  0  0  0  0  0  0  0  0  0  0
   49.1030   30.6730   43.8490 H   0  0  0  0  0  0  0  0  0  0  0  0
   47.1350   29.9980   43.2480 C   0  0  0  0  0  0  0  0  0  0  0  0
   45.8200   30.4080   43.0520 C   0  0  0  0  0  0  0  0  0  0  0  0
   46.5670   34.6910   41.6660 C   0  0  0  0  0  0  0  0  0  0  0  0
   47.7530   35.1200   41.5280 O   0  0  0  0  0  0  0  0  0  0  0  0
   45.7490   34.1640   41.1940 H   0  0  0  0  0  0  0  0  0  0  0  0
  1  6  1  0  0  0  0
  2  1  2  0  0  0  0
  2  3  1  0  0  0  0
  3  4  2  0  0  0  0
  4  5  1  0  0  0  0
  5  8  1  0  0  0  0
  6  5  2  0  0  0  0
  7  1  1  0  0  0  0
  9 10  1  0  0  0  0
 10 11  1  0  0  0  0
 11  3  1  0  0  0  0
 11 12  2  0  0  0  0
 12 13  1  0  0  0  0
 14 15  1  0  0  0  0
 14 12  1  0  0  0  0
 16 14  2  0  0  0  0
 17 16  1  0  0  0  0
 17 10  2  0  0  0  0
 18  2  1  0  0  0  0
 19 18  2  0  0  0  0
 20 18  1  0  0  0  0
M  END
>  <minimizedAffinity>
-3.78203392

>  <minimizedRMSD>
0.85849756

$$$$
