
 OpenBabel03242510393D

 31 33  0  0  0  0  0  0  0  0999 V2000
   47.5160   31.8180   44.8490 Cl  0  0  0  0  0  0  0  0  0  0  0  0
   46.6660   31.9100   46.4010 C   0  0  0  0  0  0  0  0  0  0  0  0
   45.7800   32.9510   46.5890 C   0  0  0  0  0  0  0  0  0  0  0  0
   45.1340   33.0050   47.7750 C   0  0  0  0  0  0  0  0  0  0  0  0
   45.3830   32.0250   48.7440 C   0  0  0  0  0  0  0  0  0  0  0  0
   46.2780   30.9920   48.5310 C   0  0  0  0  0  0  0  0  0  0  0  0
   46.9540   30.9210   47.3100 C   0  0  0  0  0  0  0  0  0  0  0  0
   44.4290   33.7760   48.0070 H   0  0  0  0  0  0  0  0  0  0  0  0
   44.8820   32.0380   49.7090 H   0  0  0  0  0  0  0  0  0  0  0  0
   46.4640   30.2360   49.2900 H   0  0  0  0  0  0  0  0  0  0  0  0
   49.3870   31.0580   48.5470 F   0  0  0  0  0  0  0  0  0  0  0  0
   49.1060   30.0350   47.6980 C   0  0  0  0  0  0  0  0  0  0  0  0
   47.9130   29.8590   47.0150 C   0  0  0  0  0  0  0  0  0  0  0  0
   47.7370   28.7770   46.1740 C   0  0  0  0  0  0  0  0  0  0  0  0
   46.7820   28.7520   45.7080 H   0  0  0  0  0  0  0  0  0  0  0  0
   48.7670   27.8770   46.0270 C   0  0  0  0  0  0  0  0  0  0  0  0
   48.5980   27.0420   45.3610 H   0  0  0  0  0  0  0  0  0  0  0  0
   49.9740   28.0270   46.6970 C   0  0  0  0  0  0  0  0  0  0  0  0
   50.1370   29.1150   47.5370 C   0  0  0  0  0  0  0  0  0  0  0  0
   44.5640   35.8500   44.7520 C   0  0  0  0  0  0  0  0  0  0  0  0
   45.2550   35.7980   43.5120 C   0  0  0  0  0  0  0  0  0  0  0  0
   46.1470   34.7150   43.3560 C   0  0  0  0  0  0  0  0  0  0  0  0
   46.2750   33.8280   44.3770 N   0  0  0  0  0  0  0  0  0  0  0  0
   45.5800   33.9390   45.5410 C   0  0  0  0  0  0  0  0  0  0  0  0
   44.7300   34.9520   45.7150 N   0  0  0  0  0  0  0  0  0  0  0  0
   43.8710   36.6800   44.8890 H   0  0  0  0  0  0  0  0  0  0  0  0
   45.0900   36.5390   42.7690 H   0  0  0  0  0  0  0  0  0  0  0  0
   46.8440   34.6870   42.0740 C   0  0  0  0  0  0  0  0  0  0  0  0
   47.6520   33.5550   42.0370 F   0  0  0  0  0  0  0  0  0  0  0  0
   47.7150   35.7620   42.0700 F   0  0  0  0  0  0  0  0  0  0  0  0
   46.0100   34.6440   41.0000 F   0  0  0  0  0  0  0  0  0  0  0  0
  1  2  1  0  0  0  0
  2  3  2  0  0  0  0
  2  7  1  0  0  0  0
  3  4  1  0  0  0  0
  4  8  1  0  0  0  0
  4  5  2  0  0  0  0
  5  9  1  0  0  0  0
  6  5  1  0  0  0  0
  6 10  1  0  0  0  0
  7  6  2  0  0  0  0
 12 11  1  0  0  0  0
 13  7  1  0  0  0  0
 13 12  2  0  0  0  0
 14 13  1  0  0  0  0
 15 14  1  0  0  0  0
 16 14  2  0  0  0  0
 16 18  1  0  0  0  0
 17 16  1  0  0  0  0
 18 19  2  0  0  0  0
 19 12  1  0  0  0  0
 20 26  1  0  0  0  0
 20 25  1  0  0  0  0
 21 20  2  0  0  0  0
 22 21  1  0  0  0  0
 22 23  2  0  0  0  0
 23 24  1  0  0  0  0
 24 25  2  0  0  0  0
 24  3  1  0  0  0  0
 27 21  1  0  0  0  0
 28 22  1  0  0  0  0
 29 28  1  0  0  0  0
 30 28  1  0  0  0  0
 31 28  1  0  0  0  0
M  END
>  <minimizedAffinity>
-6.15235424

>  <minimizedRMSD>
0.344224602

$$$$
