
 OpenBabel03252505203D

 34 37  0  0  0  0  0  0  0  0999 V2000
   37.3910   29.5710   40.1230 C   0  0  0  0  0  0  0  0  0  0  0  0
   36.3660   29.4120   39.1990 C   0  0  0  0  0  0  0  0  0  0  0  0
   36.3920   30.1640   38.0290 C   0  0  0  0  0  0  0  0  0  0  0  0
   37.4470   31.0440   37.8400 C   0  0  0  0  0  0  0  0  0  0  0  0
   38.4380   31.1530   38.8020 C   0  0  0  0  0  0  0  0  0  0  0  0
   38.4040   30.4160   39.9390 N   0  0  0  0  0  0  0  0  0  0  0  0
   35.5340   28.7290   39.3330 H   0  0  0  0  0  0  0  0  0  0  0  0
   35.6080   30.0640   37.2890 H   0  0  0  0  0  0  0  0  0  0  0  0
   37.4310   31.6030   36.9300 H   0  0  0  0  0  0  0  0  0  0  0  0
   38.7920   33.3590   40.4350 F   0  0  0  0  0  0  0  0  0  0  0  0
   39.7130   33.1710   39.4360 C   0  0  0  0  0  0  0  0  0  0  0  0
   39.5500   32.0750   38.6120 C   0  0  0  0  0  0  0  0  0  0  0  0
   40.5130   31.9520   37.6350 C   0  0  0  0  0  0  0  0  0  0  0  0
   40.4650   31.1370   36.9540 H   0  0  0  0  0  0  0  0  0  0  0  0
   41.5560   32.8420   37.4800 C   0  0  0  0  0  0  0  0  0  0  0  0
   42.2980   32.7170   36.6980 H   0  0  0  0  0  0  0  0  0  0  0  0
   41.6620   33.9170   38.3360 C   0  0  0  0  0  3  0  0  0  0  0  0
   40.7320   34.0990   39.3380 C   0  0  0  0  0  3  0  0  0  0  0  0
   37.5350   28.6140   43.6790 C   0  0  0  0  0  0  0  0  0  0  0  0
   37.2860   27.2220   43.6590 C   0  0  0  0  0  0  0  0  0  0  0  0
   37.0710   26.6720   42.4120 C   0  0  0  0  0  0  0  0  0  0  0  0
   37.0990   27.4450   41.2680 N   0  0  0  0  0  0  0  0  0  0  0  0
   37.3450   28.7900   41.3470 C   0  0  0  0  0  0  0  0  0  0  0  0
   37.5620   29.3660   42.5540 N   0  0  0  0  0  0  0  0  0  0  0  0
   37.7020   29.0450   44.6570 H   0  0  0  0  0  0  0  0  0  0  0  0
   37.2680   26.6420   44.5630 H   0  0  0  0  0  0  0  0  0  0  0  0
   36.8340   25.2060   42.2640 C   0  0  0  0  0  0  0  0  0  0  0  0
   36.9190   24.7200   40.8150 C   0  0  0  0  0  0  0  0  0  0  0  0
   37.9320   24.3340   41.9420 C   0  0  0  0  0  0  0  0  0  0  0  0
   35.9150   24.8580   42.7820 H   0  0  0  0  0  0  0  0  0  0  0  0
   36.2450   23.9210   40.4970 H   0  0  0  0  0  0  0  0  0  0  0  0
   37.3500   25.4120   40.0690 H   0  0  0  0  0  0  0  0  0  0  0  0
   38.9540   24.7110   41.8380 H   0  0  0  0  0  0  0  0  0  0  0  0
   37.8820   23.2600   42.2470 H   0  0  0  0  0  0  0  0  0  0  0  0
  1 23  1  0  0  0  0
  2  7  1  0  0  0  0
  2  1  2  0  0  0  0
  3  2  1  0  0  0  0
  4  3  2  0  0  0  0
  4  5  1  0  0  0  0
  5  6  2  0  0  0  0
  6  1  1  0  0  0  0
  8  3  1  0  0  0  0
  9  4  1  0  0  0  0
 11 10  1  0  0  0  0
 12  5  1  0  0  0  0
 12 11  2  0  0  0  0
 13 12  1  0  0  0  0
 14 13  1  0  0  0  0
 15 13  2  0  0  0  0
 15 17  1  0  0  0  0
 16 15  1  0  0  0  0
 17 18  2  0  0  0  0
 18 11  1  0  0  0  0
 19 25  1  0  0  0  0
 20 19  1  0  0  0  0
 20 26  1  0  0  0  0
 21 20  2  0  0  0  0
 22 23  2  0  0  0  0
 22 21  1  0  0  0  0
 23 24  1  0  0  0  0
 24 19  2  0  0  0  0
 27 21  1  0  0  0  0
 27 30  1  0  0  0  0
 28 29  1  0  0  0  0
 28 27  1  0  0  0  0
 29 34  1  0  0  0  0
 29 27  1  0  0  0  0
 31 28  1  0  0  0  0
 32 28  1  0  0  0  0
 33 29  1  0  0  0  0
M  END
>  <minimizedAffinity>
-5.91145229

$$$$

 OpenBabel03252505203D

 34 37  0  0  0  0  0  0  0  0999 V2000
   37.7890   29.0760   41.1700 C   0  0  0  0  0  0  0  0  0  0  0  0
   38.0900   30.3870   41.5130 C   0  0  0  0  0  0  0  0  0  0  0  0
   37.5310   31.4220   40.7690 C   0  0  0  0  0  0  0  0  0  0  0  0
   36.6940   31.0920   39.7140 C   0  0  0  0  0  0  0  0  0  0  0  0
   36.4340   29.7630   39.4260 C   0  0  0  0  0  0  0  0  0  0  0  0
   36.9830   28.7610   40.1560 N   0  0  0  0  0  0  0  0  0  0  0  0
   38.7430   30.6610   42.3340 H   0  0  0  0  0  0  0  0  0  0  0  0
   37.7460   32.4560   41.0110 H   0  0  0  0  0  0  0  0  0  0  0  0
   36.2860   31.9150   39.1690 H   0  0  0  0  0  0  0  0  0  0  0  0
   33.7680   29.1380   39.8300 F   0  0  0  0  0  0  0  0  0  0  0  0
   34.2280   29.0980   38.5380 C   0  0  0  0  0  0  0  0  0  0  0  0
   35.5570   29.4070   38.3190 C   0  0  0  0  0  0  0  0  0  0  0  0
   35.9430   29.3460   36.9990 C   0  0  0  0  0  0  0  0  0  0  0  0
   36.9500   29.5680   36.7390 H   0  0  0  0  0  0  0  0  0  0  0  0
   35.0880   29.0050   35.9720 C   0  0  0  0  0  0  0  0  0  0  0  0
   35.4250   28.9660   34.9410 H   0  0  0  0  0  0  0  0  0  0  0  0
   33.7720   28.7070   36.2560 C   0  0  0  0  0  3  0  0  0  0  0  0
   33.3180   28.7500   37.5580 C   0  0  0  0  0  3  0  0  0  0  0  0
   39.9750   27.2230   43.4880 C   0  0  0  0  0  0  0  0  0  0  0  0
   39.5260   25.8880   43.3720 C   0  0  0  0  0  0  0  0  0  0  0  0
   38.4770   25.6840   42.4990 C   0  0  0  0  0  0  0  0  0  0  0  0
   37.9130   26.7280   41.7930 N   0  0  0  0  0  0  0  0  0  0  0  0
   38.3890   28.0030   41.9440 C   0  0  0  0  0  0  0  0  0  0  0  0
   39.4180   28.2430   42.7920 N   0  0  0  0  0  0  0  0  0  0  0  0
   40.7960   27.3830   44.1730 H   0  0  0  0  0  0  0  0  0  0  0  0
   39.9810   25.0920   43.9330 H   0  0  0  0  0  0  0  0  0  0  0  0
   37.9430   24.3090   42.2670 C   0  0  0  0  0  0  0  0  0  0  0  0
   36.7340   24.2770   41.3290 C   0  0  0  0  0  0  0  0  0  0  0  0
   38.1360   23.6740   40.9910 C   0  0  0  0  0  0  0  0  0  0  0  0
   37.7750   23.7430   43.2070 H   0  0  0  0  0  0  0  0  0  0  0  0
   35.9450   23.5480   41.5280 H   0  0  0  0  0  0  0  0  0  0  0  0
   36.5110   25.1930   40.7530 H   0  0  0  0  0  0  0  0  0  0  0  0
   38.7020   24.1570   40.1880 H   0  0  0  0  0  0  0  0  0  0  0  0
   38.1470   22.5570   40.9340 H   0  0  0  0  0  0  0  0  0  0  0  0
  1  2  1  0  0  0  0
  1 23  1  0  0  0  0
  2  7  1  0  0  0  0
  3  8  1  0  0  0  0
  3  2  2  0  0  0  0
  4  3  1  0  0  0  0
  5  4  2  0  0  0  0
  5  6  1  0  0  0  0
  6  1  2  0  0  0  0
  9  4  1  0  0  0  0
 11 10  1  0  0  0  0
 12 11  1  0  0  0  0
 12  5  1  0  0  0  0
 13 12  2  0  0  0  0
 14 13  1  0  0  0  0
 15 17  2  0  0  0  0
 15 13  1  0  0  0  0
 16 15  1  0  0  0  0
 17 18  1  0  0  0  0
 18 11  2  0  0  0  0
 19 25  1  0  0  0  0
 20 19  1  0  0  0  0
 20 26  1  0  0  0  0
 21 20  2  0  0  0  0
 22 23  2  0  0  0  0
 22 21  1  0  0  0  0
 23 24  1  0  0  0  0
 24 19  2  0  0  0  0
 27 21  1  0  0  0  0
 27 30  1  0  0  0  0
 28 31  1  0  0  0  0
 28 27  1  0  0  0  0
 29 28  1  0  0  0  0
 29 27  1  0  0  0  0
 32 28  1  0  0  0  0
 33 29  1  0  0  0  0
 34 29  1  0  0  0  0
M  END
>  <minimizedAffinity>
-5.76744032

$$$$

 OpenBabel03252505203D

 34 37  0  0  0  0  0  0  0  0999 V2000
   39.0830   31.6120   39.2840 C   0  0  0  0  0  0  0  0  0  0  0  0
   38.1310   32.6230   39.2900 C   0  0  0  0  0  0  0  0  0  0  0  0
   36.9690   32.4480   40.0350 C   0  0  0  0  0  0  0  0  0  0  0  0
   36.8150   31.2650   40.7410 C   0  0  0  0  0  0  0  0  0  0  0  0
   37.8050   30.2970   40.6930 C   0  0  0  0  0  0  0  0  0  0  0  0
   38.9340   30.4750   39.9650 N   0  0  0  0  0  0  0  0  0  0  0  0
   38.2370   33.5530   38.7420 H   0  0  0  0  0  0  0  0  0  0  0  0
   36.2070   33.2180   40.0600 H   0  0  0  0  0  0  0  0  0  0  0  0
   35.9100   31.1700   41.3000 H   0  0  0  0  0  0  0  0  0  0  0  0
   38.6670   30.0460   43.3110 F   0  0  0  0  0  0  0  0  0  0  0  0
   38.0870   28.9420   42.7380 C   0  0  0  0  0  0  0  0  0  0  0  0
   37.6520   29.0510   41.4320 C   0  0  0  0  0  0  0  0  0  0  0  0
   37.0820   27.9040   40.9260 C   0  0  0  0  0  0  0  0  0  0  0  0
   36.7190   27.8980   39.9270 H   0  0  0  0  0  0  0  0  0  0  0  0
   36.9510   26.7380   41.6510 C   0  0  0  0  0  0  0  0  0  0  0  0
   36.4960   25.8500   41.2230 H   0  0  0  0  0  0  0  0  0  0  0  0
   37.4060   26.6930   42.9520 C   0  0  0  0  0  3  0  0  0  0  0  0
   37.9870   27.8070   43.5210 C   0  0  0  0  0  3  0  0  0  0  0  0
   41.9740   33.1720   37.6130 C   0  0  0  0  0  0  0  0  0  0  0  0
   42.5760   32.0980   36.9180 C   0  0  0  0  0  0  0  0  0  0  0  0
   41.9580   30.8720   37.0630 C   0  0  0  0  0  0  0  0  0  0  0  0
   40.8270   30.7220   37.8410 N   0  0  0  0  0  0  0  0  0  0  0  0
   40.2870   31.7990   38.4920 C   0  0  0  0  0  0  0  0  0  0  0  0
   40.8650   33.0190   38.3740 N   0  0  0  0  0  0  0  0  0  0  0  0
   42.4600   34.1320   37.5000 H   0  0  0  0  0  0  0  0  0  0  0  0
   43.4560   32.2390   36.3190 H   0  0  0  0  0  0  0  0  0  0  0  0
   42.4820   29.6720   36.3460 C   0  0  0  0  0  0  0  0  0  0  0  0
   43.5690   30.0040   35.3210 C   0  0  0  0  0  0  0  0  0  0  0  0
   43.8060   29.1910   36.6350 C   0  0  0  0  0  0  0  0  0  0  0  0
   41.6800   29.0270   35.9310 H   0  0  0  0  0  0  0  0  0  0  0  0
   43.6020   29.4220   34.3970 H   0  0  0  0  0  0  0  0  0  0  0  0
   44.0120   31.0150   35.3560 H   0  0  0  0  0  0  0  0  0  0  0  0
   44.4350   29.6590   37.3990 H   0  0  0  0  0  0  0  0  0  0  0  0
   44.0440   28.1120   36.4640 H   0  0  0  0  0  0  0  0  0  0  0  0
  1  2  2  0  0  0  0
  1  6  1  0  0  0  0
  2  3  1  0  0  0  0
  3  8  1  0  0  0  0
  3  4  2  0  0  0  0
  4  9  1  0  0  0  0
  5  4  1  0  0  0  0
  5 12  1  0  0  0  0
  6  5  2  0  0  0  0
  7  2  1  0  0  0  0
 11 10  1  0  0  0  0
 11 18  1  0  0  0  0
 12 11  2  0  0  0  0
 13 12  1  0  0  0  0
 13 15  2  0  0  0  0
 14 13  1  0  0  0  0
 15 17  1  0  0  0  0
 16 15  1  0  0  0  0
 17 18  2  0  0  0  0
 19 24  1  0  0  0  0
 20 21  1  0  0  0  0
 20 19  2  0  0  0  0
 21 22  2  0  0  0  0
 22 23  1  0  0  0  0
 23  1  1  0  0  0  0
 24 23  2  0  0  0  0
 25 19  1  0  0  0  0
 26 20  1  0  0  0  0
 27 29  1  0  0  0  0
 27 21  1  0  0  0  0
 28 32  1  0  0  0  0
 28 27  1  0  0  0  0
 28 29  1  0  0  0  0
 29 33  1  0  0  0  0
 30 27  1  0  0  0  0
 31 28  1  0  0  0  0
 34 29  1  0  0  0  0
M  END
>  <minimizedAffinity>
-5.76584578

$$$$

 OpenBabel03252505203D

 34 37  0  0  0  0  0  0  0  0999 V2000
   37.6490   28.6600   41.4990 C   0  0  0  0  0  0  0  0  0  0  0  0
   36.2810   28.6460   41.2580 C   0  0  0  0  0  0  0  0  0  0  0  0
   35.6940   29.7520   40.6510 C   0  0  0  0  0  0  0  0  0  0  0  0
   36.5080   30.8230   40.3130 C   0  0  0  0  0  0  0  0  0  0  0  0
   37.8650   30.7710   40.5800 C   0  0  0  0  0  0  0  0  0  0  0  0
   38.4300   29.6900   41.1720 N   0  0  0  0  0  0  0  0  0  0  0  0
   35.6320   27.8170   41.5180 H   0  0  0  0  0  0  0  0  0  0  0  0
   34.6300   29.7730   40.4500 H   0  0  0  0  0  0  0  0  0  0  0  0
   36.0180   31.6510   39.8490 H   0  0  0  0  0  0  0  0  0  0  0  0
   39.6230   30.6360   38.4460 F   0  0  0  0  0  0  0  0  0  0  0  0
   39.5990   31.8080   39.1590 C   0  0  0  0  0  0  0  0  0  0  0  0
   38.7280   31.8910   40.2280 C   0  0  0  0  0  0  0  0  0  0  0  0
   38.7610   33.0960   40.8940 C   0  0  0  0  0  0  0  0  0  0  0  0
   38.1230   33.2480   41.7310 H   0  0  0  0  0  0  0  0  0  0  0  0
   39.5900   34.1390   40.5370 C   0  0  0  0  0  0  0  0  0  0  0  0
   39.5920   35.0770   41.0840 H   0  0  0  0  0  0  0  0  0  0  0  0
   40.4380   33.9930   39.4590 C   0  0  0  0  0  3  0  0  0  0  0  0
   40.4550   32.8120   38.7470 C   0  0  0  0  0  3  0  0  0  0  0  0
   39.7530   26.5630   43.6800 C   0  0  0  0  0  0  0  0  0  0  0  0
   39.3930   25.2440   43.3200 C   0  0  0  0  0  0  0  0  0  0  0  0
   38.4290   25.1350   42.3390 C   0  0  0  0  0  0  0  0  0  0  0  0
   37.8610   26.2520   41.7580 N   0  0  0  0  0  0  0  0  0  0  0  0
   38.2490   27.5060   42.1460 C   0  0  0  0  0  0  0  0  0  0  0  0
   39.1940   27.6540   43.1060 N   0  0  0  0  0  0  0  0  0  0  0  0
   40.5080   26.6480   44.4490 H   0  0  0  0  0  0  0  0  0  0  0  0
   39.8490   24.3900   43.7870 H   0  0  0  0  0  0  0  0  0  0  0  0
   37.9950   23.7920   41.8520 C   0  0  0  0  0  0  0  0  0  0  0  0
   36.8720   23.8560   40.8140 C   0  0  0  0  0  0  0  0  0  0  0  0
   38.3300   23.3740   40.5170 C   0  0  0  0  0  0  0  0  0  0  0  0
   37.7810   23.0770   42.6740 H   0  0  0  0  0  0  0  0  0  0  0  0
   36.1130   23.0710   40.8250 H   0  0  0  0  0  0  0  0  0  0  0  0
   36.6460   24.8400   40.3660 H   0  0  0  0  0  0  0  0  0  0  0  0
   38.9320   24.0020   39.8510 H   0  0  0  0  0  0  0  0  0  0  0  0
   38.4090   22.2820   40.2910 H   0  0  0  0  0  0  0  0  0  0  0  0
  1 23  1  0  0  0  0
  2  1  1  0  0  0  0
  2  7  1  0  0  0  0
  3  2  2  0  0  0  0
  4  5  2  0  0  0  0
  4  3  1  0  0  0  0
  5  6  1  0  0  0  0
  6  1  2  0  0  0  0
  8  3  1  0  0  0  0
  9  4  1  0  0  0  0
 10 11  1  0  0  0  0
 11 12  1  0  0  0  0
 12  5  1  0  0  0  0
 12 13  2  0  0  0  0
 13 14  1  0  0  0  0
 15 13  1  0  0  0  0
 15 16  1  0  0  0  0
 17 15  2  0  0  0  0
 18 11  2  0  0  0  0
 18 17  1  0  0  0  0
 19 25  1  0  0  0  0
 20 19  1  0  0  0  0
 20 26  1  0  0  0  0
 21 20  2  0  0  0  0
 22 23  2  0  0  0  0
 22 21  1  0  0  0  0
 23 24  1  0  0  0  0
 24 19  2  0  0  0  0
 27 21  1  0  0  0  0
 27 30  1  0  0  0  0
 28 31  1  0  0  0  0
 28 27  1  0  0  0  0
 29 28  1  0  0  0  0
 29 27  1  0  0  0  0
 32 28  1  0  0  0  0
 33 29  1  0  0  0  0
 34 29  1  0  0  0  0
M  END
>  <minimizedAffinity>
-5.63452673

$$$$

 OpenBabel03252505203D

 34 37  0  0  0  0  0  0  0  0999 V2000
   37.2900   27.1290   41.5420 C   0  0  0  0  0  0  0  0  0  0  0  0
   37.3700   27.0020   42.9220 C   0  0  0  0  0  0  0  0  0  0  0  0
   37.7410   28.1090   43.6800 C   0  0  0  0  0  0  0  0  0  0  0  0
   38.0150   29.2950   43.0160 C   0  0  0  0  0  0  0  0  0  0  0  0
   37.9140   29.3540   41.6360 C   0  0  0  0  0  0  0  0  0  0  0  0
   37.5530   28.2700   40.9050 N   0  0  0  0  0  0  0  0  0  0  0  0
   37.1600   26.0810   43.4560 H   0  0  0  0  0  0  0  0  0  0  0  0
   37.8130   28.0420   44.7590 H   0  0  0  0  0  0  0  0  0  0  0  0
   38.2940   30.1200   43.6330 H   0  0  0  0  0  0  0  0  0  0  0  0
   35.9130   31.1590   41.0050 F   0  0  0  0  0  0  0  0  0  0  0  0
   37.1890   31.4860   40.6220 C   0  0  0  0  0  0  0  0  0  0  0  0
   38.1990   30.5950   40.9290 C   0  0  0  0  0  0  0  0  0  0  0  0
   39.4510   30.9920   40.5140 C   0  0  0  0  0  0  0  0  0  0  0  0
   40.2880   30.3670   40.7080 H   0  0  0  0  0  0  0  0  0  0  0  0
   39.6900   32.1750   39.8460 C   0  0  0  0  0  0  0  0  0  0  0  0
   40.6890   32.4590   39.5320 H   0  0  0  0  0  0  0  0  0  0  0  0
   38.6370   33.0220   39.5690 C   0  0  0  0  0  3  0  0  0  0  0  0
   37.3580   32.6860   39.9580 C   0  0  0  0  0  3  0  0  0  0  0  0
   36.7870   23.6380   40.4740 C   0  0  0  0  0  0  0  0  0  0  0  0
   36.2120   23.7630   39.1880 C   0  0  0  0  0  0  0  0  0  0  0  0
   36.0160   25.0560   38.7460 C   0  0  0  0  0  0  0  0  0  0  0  0
   36.3620   26.1440   39.5220 N   0  0  0  0  0  0  0  0  0  0  0  0
   36.9160   25.9630   40.7600 C   0  0  0  0  0  0  0  0  0  0  0  0
   37.1250   24.7090   41.2300 N   0  0  0  0  0  0  0  0  0  0  0  0
   36.9400   22.6250   40.8200 H   0  0  0  0  0  0  0  0  0  0  0  0
   35.9500   22.9010   38.6030 H   0  0  0  0  0  0  0  0  0  0  0  0
   35.4490   25.3110   37.3890 C   0  0  0  0  0  0  0  0  0  0  0  0
   33.9820   24.8970   37.2550 C   0  0  0  0  0  0  0  0  0  0  0  0
   34.4960   26.3730   37.2010 C   0  0  0  0  0  0  0  0  0  0  0  0
   36.0850   24.9160   36.5690 H   0  0  0  0  0  0  0  0  0  0  0  0
   33.6470   24.4830   36.3010 H   0  0  0  0  0  0  0  0  0  0  0  0
   33.4290   24.6690   38.1830 H   0  0  0  0  0  0  0  0  0  0  0  0
   34.1980   27.0300   38.0240 H   0  0  0  0  0  0  0  0  0  0  0  0
   34.4020   26.8490   36.1940 H   0  0  0  0  0  0  0  0  0  0  0  0
  1  2  1  0  0  0  0
  2  7  1  0  0  0  0
  2  3  2  0  0  0  0
  3  8  1  0  0  0  0
  4  9  1  0  0  0  0
  4  3  1  0  0  0  0
  5  4  2  0  0  0  0
  6  1  2  0  0  0  0
  6  5  1  0  0  0  0
 11 12  1  0  0  0  0
 11 10  1  0  0  0  0
 12  5  1  0  0  0  0
 13 14  1  0  0  0  0
 13 12  2  0  0  0  0
 15 13  1  0  0  0  0
 16 15  1  0  0  0  0
 17 15  2  0  0  0  0
 17 18  1  0  0  0  0
 18 11  2  0  0  0  0
 19 25  1  0  0  0  0
 19 24  1  0  0  0  0
 20 19  2  0  0  0  0
 21 20  1  0  0  0  0
 21 22  2  0  0  0  0
 22 23  1  0  0  0  0
 23 24  2  0  0  0  0
 23  1  1  0  0  0  0
 26 20  1  0  0  0  0
 27 21  1  0  0  0  0
 28 27  1  0  0  0  0
 28 32  1  0  0  0  0
 29 28  1  0  0  0  0
 29 27  1  0  0  0  0
 29 33  1  0  0  0  0
 30 27  1  0  0  0  0
 31 28  1  0  0  0  0
 34 29  1  0  0  0  0
M  END
>  <minimizedAffinity>
-5.5183816

$$$$

 OpenBabel03252505203D

 34 37  0  0  0  0  0  0  0  0999 V2000
   37.2740   28.7700   38.6570 C   0  0  0  0  0  0  0  0  0  0  0  0
   36.5690   28.8260   37.4620 C   0  0  0  0  0  0  0  0  0  0  0  0
   36.6460   29.9800   36.6890 C   0  0  0  0  0  0  0  0  0  0  0  0
   37.4280   31.0280   37.1520 C   0  0  0  0  0  0  0  0  0  0  0  0
   38.1070   30.9060   38.3530 C   0  0  0  0  0  0  0  0  0  0  0  0
   38.0260   29.7780   39.1000 N   0  0  0  0  0  0  0  0  0  0  0  0
   35.9530   28.0160   37.0880 H   0  0  0  0  0  0  0  0  0  0  0  0
   36.1070   30.0560   35.7520 H   0  0  0  0  0  0  0  0  0  0  0  0
   37.4600   31.8950   36.5300 H   0  0  0  0  0  0  0  0  0  0  0  0
   37.0620   32.8960   39.9680 F   0  0  0  0  0  0  0  0  0  0  0  0
   38.3940   32.9860   39.6530 C   0  0  0  0  0  0  0  0  0  0  0  0
   38.9310   32.0010   38.8470 C   0  0  0  0  0  0  0  0  0  0  0  0
   40.2710   32.1590   38.5750 C   0  0  0  0  0  0  0  0  0  0  0  0
   40.7670   31.4460   37.9620 H   0  0  0  0  0  0  0  0  0  0  0  0
   41.0260   33.2070   39.0580 C   0  0  0  0  0  0  0  0  0  0  0  0
   42.0820   33.3030   38.8250 H   0  0  0  0  0  0  0  0  0  0  0  0
   40.4300   34.1590   39.8580 C   0  0  0  0  0  3  0  0  0  0  0  0
   39.0910   34.0610   40.1710 C   0  0  0  0  0  3  0  0  0  0  0  0
   36.8510   25.2500   39.6650 C   0  0  0  0  0  0  0  0  0  0  0  0
   36.9550   25.2930   41.0740 C   0  0  0  0  0  0  0  0  0  0  0  0
   37.1750   26.5420   41.6180 C   0  0  0  0  0  0  0  0  0  0  0  0
   37.2860   27.6660   40.8240 N   0  0  0  0  0  0  0  0  0  0  0  0
   37.1760   27.5650   39.4630 C   0  0  0  0  0  0  0  0  0  0  0  0
   36.9590   26.3560   38.8910 N   0  0  0  0  0  0  0  0  0  0  0  0
   36.6790   24.2710   39.2380 H   0  0  0  0  0  0  0  0  0  0  0  0
   36.8660   24.4040   41.6710 H   0  0  0  0  0  0  0  0  0  0  0  0
   37.2660   26.7160   43.0980 C   0  0  0  0  0  0  0  0  0  0  0  0
   38.5580   27.3980   43.5520 C   0  0  0  0  0  0  0  0  0  0  0  0
   37.1320   28.0280   43.6730 C   0  0  0  0  0  0  0  0  0  0  0  0
   37.0500   25.7830   43.6610 H   0  0  0  0  0  0  0  0  0  0  0  0
   39.0100   27.0760   44.4930 H   0  0  0  0  0  0  0  0  0  0  0  0
   39.1780   27.8840   42.7770 H   0  0  0  0  0  0  0  0  0  0  0  0
   36.9260   28.9080   43.0550 H   0  0  0  0  0  0  0  0  0  0  0  0
   36.7690   28.1280   44.7250 H   0  0  0  0  0  0  0  0  0  0  0  0
  1  6  1  0  0  0  0
  1 23  1  0  0  0  0
  2  1  2  0  0  0  0
  3  4  2  0  0  0  0
  3  2  1  0  0  0  0
  4  5  1  0  0  0  0
  5 12  1  0  0  0  0
  5  6  2  0  0  0  0
  7  2  1  0  0  0  0
  8  3  1  0  0  0  0
  9  4  1  0  0  0  0
 11 10  1  0  0  0  0
 11 18  1  0  0  0  0
 12 11  2  0  0  0  0
 13 12  1  0  0  0  0
 13 15  2  0  0  0  0
 14 13  1  0  0  0  0
 15 17  1  0  0  0  0
 16 15  1  0  0  0  0
 17 18  2  0  0  0  0
 19 20  1  0  0  0  0
 20 21  2  0  0  0  0
 20 26  1  0  0  0  0
 21 27  1  0  0  0  0
 22 21  1  0  0  0  0
 23 22  2  0  0  0  0
 24 23  1  0  0  0  0
 24 19  2  0  0  0  0
 25 19  1  0  0  0  0
 27 28  1  0  0  0  0
 27 30  1  0  0  0  0
 27 29  1  0  0  0  0
 28 29  1  0  0  0  0
 28 31  1  0  0  0  0
 29 34  1  0  0  0  0
 32 28  1  0  0  0  0
 33 29  1  0  0  0  0
M  END
>  <minimizedAffinity>
-5.50561571

$$$$

 OpenBabel03252505203D

 34 37  0  0  0  0  0  0  0  0999 V2000
   38.2550   31.2770   39.8020 C   0  0  0  0  0  0  0  0  0  0  0  0
   37.2630   32.2120   40.0680 C   0  0  0  0  0  0  0  0  0  0  0  0
   37.5850   33.5650   40.0190 C   0  0  0  0  0  0  0  0  0  0  0  0
   38.8890   33.9180   39.7060 C   0  0  0  0  0  0  0  0  0  0  0  0
   39.8290   32.9340   39.4510 C   0  0  0  0  0  0  0  0  0  0  0  0
   39.5070   31.6170   39.5000 N   0  0  0  0  0  0  0  0  0  0  0  0
   36.2400   31.9530   40.3150 H   0  0  0  0  0  0  0  0  0  0  0  0
   36.8350   34.3200   40.2220 H   0  0  0  0  0  0  0  0  0  0  0  0
   39.0950   34.9650   39.6790 H   0  0  0  0  0  0  0  0  0  0  0  0
   41.7970   33.0890   41.3910 F   0  0  0  0  0  0  0  0  0  0  0  0
   42.1720   33.3660   40.1010 C   0  0  0  0  0  0  0  0  0  0  0  0
   41.2020   33.2940   39.1210 C   0  0  0  0  0  0  0  0  0  0  0  0
   41.6530   33.5850   37.8530 C   0  0  0  0  0  0  0  0  0  0  0  0
   40.9740   33.5540   37.0360 H   0  0  0  0  0  0  0  0  0  0  0  0
   42.9610   33.9230   37.5720 C   0  0  0  0  0  0  0  0  0  0  0  0
   43.2850   34.1480   36.5610 H   0  0  0  0  0  0  0  0  0  0  0  0
   43.8820   33.9780   38.5960 C   0  0  0  0  0  3  0  0  0  0  0  0
   43.4970   33.6970   39.8900 C   0  0  0  0  0  3  0  0  0  0  0  0
   37.2130   27.8720   38.8500 C   0  0  0  0  0  0  0  0  0  0  0  0
   37.2210   27.1680   40.0750 C   0  0  0  0  0  0  0  0  0  0  0  0
   37.5940   27.9010   41.1830 C   0  0  0  0  0  0  0  0  0  0  0  0
   37.9360   29.2350   41.0830 N   0  0  0  0  0  0  0  0  0  0  0  0
   37.9110   29.8670   39.8690 C   0  0  0  0  0  0  0  0  0  0  0  0
   37.5490   29.1810   38.7580 N   0  0  0  0  0  0  0  0  0  0  0  0
   36.9220   27.2970   37.9810 H   0  0  0  0  0  0  0  0  0  0  0  0
   36.9510   26.1290   40.1270 H   0  0  0  0  0  0  0  0  0  0  0  0
   37.6040   27.2720   42.5370 C   0  0  0  0  0  0  0  0  0  0  0  0
   37.6490   28.2890   43.6790 C   0  0  0  0  0  0  0  0  0  0  0  0
   36.4340   27.3540   43.3710 C   0  0  0  0  0  0  0  0  0  0  0  0
   38.3680   26.4730   42.6410 H   0  0  0  0  0  0  0  0  0  0  0  0
   38.2200   28.0360   44.5750 H   0  0  0  0  0  0  0  0  0  0  0  0
   37.4500   29.3460   43.4290 H   0  0  0  0  0  0  0  0  0  0  0  0
   35.5140   27.8360   43.0250 H   0  0  0  0  0  0  0  0  0  0  0  0
   36.2610   26.5660   44.1450 H   0  0  0  0  0  0  0  0  0  0  0  0
  1 23  1  0  0  0  0
  1  2  1  0  0  0  0
  2  7  1  0  0  0  0
  3  2  2  0  0  0  0
  3  8  1  0  0  0  0
  4  3  1  0  0  0  0
  5  6  1  0  0  0  0
  5  4  2  0  0  0  0
  6  1  2  0  0  0  0
  9  4  1  0  0  0  0
 11 10  1  0  0  0  0
 12  5  1  0  0  0  0
 12 11  2  0  0  0  0
 13 12  1  0  0  0  0
 14 13  1  0  0  0  0
 15 13  2  0  0  0  0
 15 17  1  0  0  0  0
 16 15  1  0  0  0  0
 17 18  2  0  0  0  0
 18 11  1  0  0  0  0
 19 20  1  0  0  0  0
 20 26  1  0  0  0  0
 20 21  2  0  0  0  0
 21 27  1  0  0  0  0
 22 21  1  0  0  0  0
 23 22  2  0  0  0  0
 24 19  2  0  0  0  0
 24 23  1  0  0  0  0
 25 19  1  0  0  0  0
 27 30  1  0  0  0  0
 27 29  1  0  0  0  0
 27 28  1  0  0  0  0
 28 31  1  0  0  0  0
 29 28  1  0  0  0  0
 29 34  1  0  0  0  0
 32 28  1  0  0  0  0
 33 29  1  0  0  0  0
M  END
>  <minimizedAffinity>
-5.48547792

$$$$

 OpenBabel03252505203D

 34 37  0  0  0  0  0  0  0  0999 V2000
   39.3420   32.2400   40.3680 C   0  0  0  0  0  0  0  0  0  0  0  0
   38.3590   32.9770   39.7210 C   0  0  0  0  0  0  0  0  0  0  0  0
   37.0530   32.4950   39.7130 C   0  0  0  0  0  0  0  0  0  0  0  0
   36.7940   31.2940   40.3560 C   0  0  0  0  0  0  0  0  0  0  0  0
   37.8210   30.6100   40.9840 C   0  0  0  0  0  0  0  0  0  0  0  0
   39.0910   31.0870   40.9870 N   0  0  0  0  0  0  0  0  0  0  0  0
   38.5460   33.9170   39.2130 H   0  0  0  0  0  0  0  0  0  0  0  0
   36.2630   33.0460   39.2170 H   0  0  0  0  0  0  0  0  0  0  0  0
   35.7800   30.9600   40.3270 H   0  0  0  0  0  0  0  0  0  0  0  0
   37.2830   28.2890   39.5750 F   0  0  0  0  0  0  0  0  0  0  0  0
   37.2920   28.1980   40.9450 C   0  0  0  0  0  0  0  0  0  0  0  0
   37.5590   29.3480   41.6620 C   0  0  0  0  0  0  0  0  0  0  0  0
   37.5510   29.1780   43.0280 C   0  0  0  0  0  0  0  0  0  0  0  0
   37.7470   30.0110   43.6590 H   0  0  0  0  0  0  0  0  0  0  0  0
   37.2990   27.9690   43.6420 C   0  0  0  0  0  0  0  0  0  0  0  0
   37.3010   27.8680   44.7230 H   0  0  0  0  0  0  0  0  0  0  0  0
   37.0400   26.8570   42.8690 C   0  0  0  0  0  3  0  0  0  0  0  0
   37.0330   26.9570   41.4930 C   0  0  0  0  0  3  0  0  0  0  0  0
   42.4680   33.8720   39.2990 C   0  0  0  0  0  0  0  0  0  0  0  0
   43.3460   33.6530   40.3850 C   0  0  0  0  0  0  0  0  0  0  0  0
   42.8150   32.9530   41.4500 C   0  0  0  0  0  0  0  0  0  0  0  0
   41.5090   32.5050   41.4390 N   0  0  0  0  0  0  0  0  0  0  0  0
   40.7040   32.7450   40.3580 C   0  0  0  0  0  0  0  0  0  0  0  0
   41.1890   33.4290   39.2930 N   0  0  0  0  0  0  0  0  0  0  0  0
   42.8850   34.4220   38.4650 H   0  0  0  0  0  0  0  0  0  0  0  0
   44.3580   34.0130   40.3710 H   0  0  0  0  0  0  0  0  0  0  0  0
   43.6590   32.6300   42.6380 C   0  0  0  0  0  0  0  0  0  0  0  0
   43.2030   31.3740   43.3840 C   0  0  0  0  0  0  0  0  0  0  0  0
   44.5480   31.5000   42.5960 C   0  0  0  0  0  0  0  0  0  0  0  0
   43.8150   33.4990   43.3120 H   0  0  0  0  0  0  0  0  0  0  0  0
   43.2970   31.3570   44.4720 H   0  0  0  0  0  0  0  0  0  0  0  0
   42.4710   30.7190   42.8800 H   0  0  0  0  0  0  0  0  0  0  0  0
   44.6540   30.8850   41.6970 H   0  0  0  0  0  0  0  0  0  0  0  0
   45.4570   31.4970   43.2480 H   0  0  0  0  0  0  0  0  0  0  0  0
  1  6  1  0  0  0  0
  2  1  2  0  0  0  0
  3  2  1  0  0  0  0
  3  4  2  0  0  0  0
  4  5  1  0  0  0  0
  5  6  2  0  0  0  0
  5 12  1  0  0  0  0
  7  2  1  0  0  0  0
  8  3  1  0  0  0  0
  9  4  1  0  0  0  0
 10 11  1  0  0  0  0
 11 18  2  0  0  0  0
 11 12  1  0  0  0  0
 12 13  2  0  0  0  0
 13 15  1  0  0  0  0
 13 14  1  0  0  0  0
 15 16  1  0  0  0  0
 17 15  2  0  0  0  0
 18 17  1  0  0  0  0
 19 20  1  0  0  0  0
 20 21  2  0  0  0  0
 21 27  1  0  0  0  0
 22 21  1  0  0  0  0
 23  1  1  0  0  0  0
 23 22  2  0  0  0  0
 24 19  2  0  0  0  0
 24 23  1  0  0  0  0
 25 19  1  0  0  0  0
 26 20  1  0  0  0  0
 27 30  1  0  0  0  0
 27 28  1  0  0  0  0
 28 31  1  0  0  0  0
 29 27  1  0  0  0  0
 29 34  1  0  0  0  0
 29 28  1  0  0  0  0
 32 28  1  0  0  0  0
 33 29  1  0  0  0  0
M  END
>  <minimizedAffinity>
-5.43476534

$$$$

 OpenBabel03252505203D

 34 37  0  0  0  0  0  0  0  0999 V2000
   37.2220   29.6940   40.0650 C   0  0  0  0  0  0  0  0  0  0  0  0
   37.7460   30.9800   40.0630 C   0  0  0  0  0  0  0  0  0  0  0  0
   37.6840   31.7290   38.8920 C   0  0  0  0  0  0  0  0  0  0  0  0
   37.0980   31.1530   37.7750 C   0  0  0  0  0  0  0  0  0  0  0  0
   36.5930   29.8650   37.8470 C   0  0  0  0  0  0  0  0  0  0  0  0
   36.6570   29.1420   38.9920 N   0  0  0  0  0  0  0  0  0  0  0  0
   38.2080   31.4440   40.9270 H   0  0  0  0  0  0  0  0  0  0  0  0
   38.0850   32.7350   38.8570 H   0  0  0  0  0  0  0  0  0  0  0  0
   37.0700   31.7600   36.8980 H   0  0  0  0  0  0  0  0  0  0  0  0
   33.8840   29.3060   37.7620 F   0  0  0  0  0  0  0  0  0  0  0  0
   34.6210   28.9790   36.6520 C   0  0  0  0  0  0  0  0  0  0  0  0
   35.9750   29.2510   36.6790 C   0  0  0  0  0  0  0  0  0  0  0  0
   36.6470   28.8960   35.5310 C   0  0  0  0  0  0  0  0  0  0  0  0
   37.6940   29.0690   35.4640 H   0  0  0  0  0  0  0  0  0  0  0  0
   36.0340   28.3150   34.4400 C   0  0  0  0  0  0  0  0  0  0  0  0
   36.5930   28.0460   33.5500 H   0  0  0  0  0  0  0  0  0  0  0  0
   34.6780   28.0690   34.4770 C   0  0  0  0  0  3  0  0  0  0  0  0
   33.9430   28.4010   35.5960 C   0  0  0  0  0  3  0  0  0  0  0  0
   37.7230   28.7480   43.5920 C   0  0  0  0  0  0  0  0  0  0  0  0
   37.4870   27.3540   43.5990 C   0  0  0  0  0  0  0  0  0  0  0  0
   37.1560   26.7990   42.3790 C   0  0  0  0  0  0  0  0  0  0  0  0
   37.0640   27.5690   41.2370 N   0  0  0  0  0  0  0  0  0  0  0  0
   37.3040   28.9160   41.2900 C   0  0  0  0  0  0  0  0  0  0  0  0
   37.6320   29.4980   42.4680 N   0  0  0  0  0  0  0  0  0  0  0  0
   37.9820   29.1830   44.5480 H   0  0  0  0  0  0  0  0  0  0  0  0
   37.5640   26.7760   44.5010 H   0  0  0  0  0  0  0  0  0  0  0  0
   36.9190   25.3300   42.2580 C   0  0  0  0  0  0  0  0  0  0  0  0
   36.8790   24.8400   40.8080 C   0  0  0  0  0  0  0  0  0  0  0  0
   37.9920   24.4670   41.8410 C   0  0  0  0  0  0  0  0  0  0  0  0
   36.0540   24.9760   42.8570 H   0  0  0  0  0  0  0  0  0  0  0  0
   36.1860   24.0340   40.5550 H   0  0  0  0  0  0  0  0  0  0  0  0
   37.2350   25.5320   40.0250 H   0  0  0  0  0  0  0  0  0  0  0  0
   38.9980   24.8520   41.6450 H   0  0  0  0  0  0  0  0  0  0  0  0
   37.9800   23.3930   42.1530 H   0  0  0  0  0  0  0  0  0  0  0  0
  1 23  1  0  0  0  0
  2  1  1  0  0  0  0
  2  7  1  0  0  0  0
  3  2  2  0  0  0  0
  4  5  2  0  0  0  0
  4  3  1  0  0  0  0
  5  6  1  0  0  0  0
  6  1  2  0  0  0  0
  8  3  1  0  0  0  0
  9  4  1  0  0  0  0
 11 12  1  0  0  0  0
 11 10  1  0  0  0  0
 12  5  1  0  0  0  0
 13 12  2  0  0  0  0
 14 13  1  0  0  0  0
 15 17  2  0  0  0  0
 15 13  1  0  0  0  0
 16 15  1  0  0  0  0
 17 18  1  0  0  0  0
 18 11  2  0  0  0  0
 19 20  1  0  0  0  0
 19 25  1  0  0  0  0
 20 26  1  0  0  0  0
 21 20  2  0  0  0  0
 22 23  2  0  0  0  0
 22 21  1  0  0  0  0
 23 24  1  0  0  0  0
 24 19  2  0  0  0  0
 27 21  1  0  0  0  0
 27 30  1  0  0  0  0
 28 29  1  0  0  0  0
 28 27  1  0  0  0  0
 29 34  1  0  0  0  0
 29 27  1  0  0  0  0
 31 28  1  0  0  0  0
 32 28  1  0  0  0  0
 33 29  1  0  0  0  0
M  END
>  <minimizedAffinity>
-5.43227911

$$$$
