
 OpenBabel03242510413D

 31 33  0  0  0  0  0  0  0  0999 V2000
   37.6340   27.1690   39.6430 Cl  0  0  0  0  0  0  0  0  0  0  0  0
   38.3560   26.9890   41.2520 C   0  0  0  0  0  0  0  0  0  0  0  0
   38.4280   28.1100   42.0540 C   0  0  0  0  0  0  0  0  0  0  0  0
   38.9750   27.9570   43.2800 C   0  0  0  0  0  0  0  0  0  0  0  0
   39.4360   26.6970   43.6800 C   0  0  0  0  0  0  0  0  0  0  0  0
   39.3530   25.5880   42.8560 C   0  0  0  0  0  0  0  0  0  0  0  0
   38.7890   25.7290   41.5850 C   0  0  0  0  0  0  0  0  0  0  0  0
   39.0710   28.7710   43.9680 H   0  0  0  0  0  0  0  0  0  0  0  0
   39.8810   26.5380   44.6590 H   0  0  0  0  0  0  0  0  0  0  0  0
   39.7130   24.6140   43.1770 H   0  0  0  0  0  0  0  0  0  0  0  0
   36.5540   24.1730   41.8030 F   0  0  0  0  0  0  0  0  0  0  0  0
   37.4970   23.8900   40.8670 C   0  0  0  0  0  0  0  0  0  0  0  0
   38.6690   24.6030   40.6620 C   0  0  0  0  0  0  0  0  0  0  0  0
   39.5590   24.2230   39.6780 C   0  0  0  0  0  0  0  0  0  0  0  0
   40.4180   24.8470   39.6170 H   0  0  0  0  0  0  0  0  0  0  0  0
   39.2650   23.1240   38.9040 C   0  0  0  0  0  0  0  0  0  0  0  0
   39.9830   22.8530   38.1420 H   0  0  0  0  0  0  0  0  0  0  0  0
   38.1010   22.3900   39.0860 C   0  0  0  0  0  3  0  0  0  0  0  0
   37.2160   22.7810   40.0760 C   0  0  0  0  0  3  0  0  0  0  0  0
   36.1990   30.7890   40.9970 C   0  0  0  0  0  0  0  0  0  0  0  0
   37.0700   31.8540   40.6450 C   0  0  0  0  0  0  0  0  0  0  0  0
   38.4480   31.5890   40.7910 C   0  0  0  0  0  0  0  0  0  0  0  0
   38.8300   30.3670   41.2460 N   0  0  0  0  0  0  0  0  0  0  0  0
   37.9390   29.3900   41.5660 C   0  0  0  0  0  0  0  0  0  0  0  0
   36.6310   29.6140   41.4370 N   0  0  0  0  0  0  0  0  0  0  0  0
   35.1310   30.9770   40.8910 H   0  0  0  0  0  0  0  0  0  0  0  0
   36.6800   32.7790   40.2970 H   0  0  0  0  0  0  0  0  0  0  0  0
   39.3200   32.7010   40.4230 C   0  0  0  0  0  0  0  0  0  0  0  0
   40.5730   32.4840   40.9880 F   0  0  0  0  0  0  0  0  0  0  0  0
   38.8200   33.8250   41.0570 F   0  0  0  0  0  0  0  0  0  0  0  0
   39.4820   32.8460   39.0800 F   0  0  0  0  0  0  0  0  0  0  0  0
  1  2  1  0  0  0  0
  2  7  2  0  0  0  0
  2  3  1  0  0  0  0
  3  4  2  0  0  0  0
  4  5  1  0  0  0  0
  4  8  1  0  0  0  0
  5  9  1  0  0  0  0
  6 10  1  0  0  0  0
  6  5  2  0  0  0  0
  7  6  1  0  0  0  0
 12 11  1  0  0  0  0
 13 12  1  0  0  0  0
 13  7  1  0  0  0  0
 14 13  2  0  0  0  0
 15 14  1  0  0  0  0
 16 18  2  0  0  0  0
 16 14  1  0  0  0  0
 17 16  1  0  0  0  0
 18 19  1  0  0  0  0
 19 12  2  0  0  0  0
 20 25  1  0  0  0  0
 21 22  1  0  0  0  0
 21 20  2  0  0  0  0
 22 23  2  0  0  0  0
 23 24  1  0  0  0  0
 24  3  1  0  0  0  0
 25 24  2  0  0  0  0
 26 20  1  0  0  0  0
 27 21  1  0  0  0  0
 28 22  1  0  0  0  0
 28 29  1  0  0  0  0
 28 30  1  0  0  0  0
 31 28  1  0  0  0  0
M  END
>  <minimizedAffinity>
-5.97420502

$$$$

 OpenBabel03242510413D

 31 33  0  0  0  0  0  0  0  0999 V2000
   38.3650   27.1230   39.5300 Cl  0  0  0  0  0  0  0  0  0  0  0  0
   37.7650   27.3290   41.1860 C   0  0  0  0  0  0  0  0  0  0  0  0
   37.8420   28.5870   41.7460 C   0  0  0  0  0  0  0  0  0  0  0  0
   37.3760   28.7310   43.0060 C   0  0  0  0  0  0  0  0  0  0  0  0
   36.8450   27.6220   43.6780 C   0  0  0  0  0  0  0  0  0  0  0  0
   36.7810   26.3700   43.0940 C   0  0  0  0  0  0  0  0  0  0  0  0
   37.2590   26.2040   41.7910 C   0  0  0  0  0  0  0  0  0  0  0  0
   37.3940   29.6690   43.5190 H   0  0  0  0  0  0  0  0  0  0  0  0
   36.4610   27.7020   44.6920 H   0  0  0  0  0  0  0  0  0  0  0  0
   36.3670   25.5160   43.6240 H   0  0  0  0  0  0  0  0  0  0  0  0
   39.3800   24.5280   42.1880 F   0  0  0  0  0  0  0  0  0  0  0  0
   38.3480   24.1510   41.3870 C   0  0  0  0  0  0  0  0  0  0  0  0
   37.2230   24.9120   41.1100 C   0  0  0  0  0  0  0  0  0  0  0  0
   36.2340   24.4270   40.2780 C   0  0  0  0  0  0  0  0  0  0  0  0
   35.4220   25.1010   40.1440 H   0  0  0  0  0  0  0  0  0  0  0  0
   36.3840   23.1750   39.7280 C   0  0  0  0  0  0  0  0  0  0  0  0
   35.5910   22.8240   39.0810 H   0  0  0  0  0  0  0  0  0  0  0  0
   37.4990   22.3900   39.9860 C   0  0  0  0  0  3  0  0  0  0  0  0
   38.4840   22.8870   40.8220 C   0  0  0  0  0  3  0  0  0  0  0  0
   40.0870   31.2420   40.6660 C   0  0  0  0  0  0  0  0  0  0  0  0
   39.4690   31.7770   39.5050 C   0  0  0  0  0  0  0  0  0  0  0  0
   38.2490   31.1740   39.1300 C   0  0  0  0  0  0  0  0  0  0  0  0
   37.7700   30.1530   39.8890 N   0  0  0  0  0  0  0  0  0  0  0  0
   38.4170   29.6890   40.9920 C   0  0  0  0  0  0  0  0  0  0  0  0
   39.5710   30.2420   41.3680 N   0  0  0  0  0  0  0  0  0  0  0  0
   41.0300   31.6970   40.9700 H   0  0  0  0  0  0  0  0  0  0  0  0
   39.9190   32.5800   38.9730 H   0  0  0  0  0  0  0  0  0  0  0  0
   37.6360   31.7420   37.9330 C   0  0  0  0  0  0  0  0  0  0  0  0
   38.6460   32.0650   37.0320 F   0  0  0  0  0  0  0  0  0  0  0  0
   37.0770   32.9500   38.3080 F   0  0  0  0  0  0  0  0  0  0  0  0
   36.7700   30.8970   37.3100 F   0  0  0  0  0  0  0  0  0  0  0  0
  1  2  1  0  0  0  0
  2  3  2  0  0  0  0
  2  7  1  0  0  0  0
  3  4  1  0  0  0  0
  4  8  1  0  0  0  0
  4  5  2  0  0  0  0
  5  9  1  0  0  0  0
  6 10  1  0  0  0  0
  6  5  1  0  0  0  0
  7  6  2  0  0  0  0
 12 11  1  0  0  0  0
 13 12  1  0  0  0  0
 13  7  1  0  0  0  0
 14 13  2  0  0  0  0
 15 14  1  0  0  0  0
 16 18  2  0  0  0  0
 16 14  1  0  0  0  0
 17 16  1  0  0  0  0
 18 19  1  0  0  0  0
 19 12  2  0  0  0  0
 20 26  1  0  0  0  0
 20 25  1  0  0  0  0
 21 20  2  0  0  0  0
 22 21  1  0  0  0  0
 22 23  2  0  0  0  0
 23 24  1  0  0  0  0
 24 25  2  0  0  0  0
 24  3  1  0  0  0  0
 27 21  1  0  0  0  0
 28 30  1  0  0  0  0
 28 22  1  0  0  0  0
 29 28  1  0  0  0  0
 31 28  1  0  0  0  0
M  END
>  <minimizedAffinity>
-5.86287117

$$$$

 OpenBabel03242510413D

 31 33  0  0  0  0  0  0  0  0999 V2000
   40.4700   30.1720   39.9560 Cl  0  0  0  0  0  0  0  0  0  0  0  0
   39.2120   31.4200   39.9330 C   0  0  0  0  0  0  0  0  0  0  0  0
   37.8990   31.0140   40.0580 C   0  0  0  0  0  0  0  0  0  0  0  0
   36.9510   31.9760   40.0450 C   0  0  0  0  0  0  0  0  0  0  0  0
   37.3290   33.3170   39.9090 C   0  0  0  0  0  0  0  0  0  0  0  0
   38.6530   33.7000   39.7840 C   0  0  0  0  0  0  0  0  0  0  0  0
   39.6460   32.7160   39.7960 C   0  0  0  0  0  0  0  0  0  0  0  0
   35.9090   31.7530   40.1370 H   0  0  0  0  0  0  0  0  0  0  0  0
   36.5930   34.1180   39.8950 H   0  0  0  0  0  0  0  0  0  0  0  0
   38.9350   34.7440   39.6790 H   0  0  0  0  0  0  0  0  0  0  0  0
   40.6990   32.7420   37.2740 F   0  0  0  0  0  0  0  0  0  0  0  0
   41.4820   33.0270   38.3470 C   0  0  0  0  0  0  0  0  0  0  0  0
   41.0640   33.0450   39.6690 C   0  0  0  0  0  0  0  0  0  0  0  0
   41.9510   33.3490   40.6830 C   0  0  0  0  0  0  0  0  0  0  0  0
   41.5120   33.3310   41.6510 H   0  0  0  0  0  0  0  0  0  0  0  0
   43.2580   33.6330   40.3590 C   0  0  0  0  0  0  0  0  0  0  0  0
   43.9270   33.8670   41.1760 H   0  0  0  0  0  0  0  0  0  0  0  0
   43.7060   33.6220   39.0450 C   0  0  0  0  0  3  0  0  0  0  0  0
   42.8080   33.3170   38.0380 C   0  0  0  0  0  3  0  0  0  0  0  0
   37.1290   27.5530   39.2300 C   0  0  0  0  0  0  0  0  0  0  0  0
   36.9910   26.9110   40.4890 C   0  0  0  0  0  0  0  0  0  0  0  0
   37.1750   27.7370   41.6180 C   0  0  0  0  0  0  0  0  0  0  0  0
   37.4630   29.0500   41.4220 N   0  0  0  0  0  0  0  0  0  0  0  0
   37.5810   29.6000   40.1840 C   0  0  0  0  0  0  0  0  0  0  0  0
   37.4120   28.8420   39.1000 N   0  0  0  0  0  0  0  0  0  0  0  0
   36.9900   26.9290   38.3470 H   0  0  0  0  0  0  0  0  0  0  0  0
   36.7630   25.8740   40.5460 H   0  0  0  0  0  0  0  0  0  0  0  0
   37.0280   27.0510   42.8990 C   0  0  0  0  0  0  0  0  0  0  0  0
   38.1460   27.3310   43.6790 F   0  0  0  0  0  0  0  0  0  0  0  0
   37.0940   25.6940   42.6340 F   0  0  0  0  0  0  0  0  0  0  0  0
   35.9230   27.4280   43.5970 F   0  0  0  0  0  0  0  0  0  0  0  0
  2  1  1  0  0  0  0
  2  3  1  0  0  0  0
  3 24  1  0  0  0  0
  4  3  2  0  0  0  0
  4  8  1  0  0  0  0
  5  4  1  0  0  0  0
  6  7  1  0  0  0  0
  6  5  2  0  0  0  0
  7  2  2  0  0  0  0
  9  5  1  0  0  0  0
 10  6  1  0  0  0  0
 11 12  1  0  0  0  0
 12 13  1  0  0  0  0
 13  7  1  0  0  0  0
 13 14  2  0  0  0  0
 14 15  1  0  0  0  0
 16 14  1  0  0  0  0
 16 17  1  0  0  0  0
 18 16  2  0  0  0  0
 19 12  2  0  0  0  0
 19 18  1  0  0  0  0
 20 21  1  0  0  0  0
 21 27  1  0  0  0  0
 21 22  2  0  0  0  0
 22 28  1  0  0  0  0
 23 22  1  0  0  0  0
 24 23  2  0  0  0  0
 25 20  2  0  0  0  0
 25 24  1  0  0  0  0
 26 20  1  0  0  0  0
 28 31  1  0  0  0  0
 28 29  1  0  0  0  0
 30 28  1  0  0  0  0
M  END
>  <minimizedAffinity>
-5.85879087

$$$$

 OpenBabel03242510413D

 31 33  0  0  0  0  0  0  0  0999 V2000
   40.4650   29.5980   40.4130 Cl  0  0  0  0  0  0  0  0  0  0  0  0
   38.8340   30.2810   40.5420 C   0  0  0  0  0  0  0  0  0  0  0  0
   37.9210   29.6180   41.3350 C   0  0  0  0  0  0  0  0  0  0  0  0
   36.6830   30.1520   41.4300 C   0  0  0  0  0  0  0  0  0  0  0  0
   36.3840   31.3310   40.7360 C   0  0  0  0  0  0  0  0  0  0  0  0
   37.3190   31.9770   39.9460 C   0  0  0  0  0  0  0  0  0  0  0  0
   38.6030   31.4370   39.8370 C   0  0  0  0  0  0  0  0  0  0  0  0
   35.9120   29.7070   42.0230 H   0  0  0  0  0  0  0  0  0  0  0  0
   35.3990   31.7900   40.7900 H   0  0  0  0  0  0  0  0  0  0  0  0
   37.0760   32.8920   39.4120 H   0  0  0  0  0  0  0  0  0  0  0  0
   39.9290   33.5640   40.9270 F   0  0  0  0  0  0  0  0  0  0  0  0
   40.2410   33.1270   39.6780 C   0  0  0  0  0  0  0  0  0  0  0  0
   39.6410   32.0630   39.0220 C   0  0  0  0  0  0  0  0  0  0  0  0
   40.0400   31.7080   37.7490 C   0  0  0  0  0  0  0  0  0  0  0  0
   39.5060   30.8770   37.3530 H   0  0  0  0  0  0  0  0  0  0  0  0
   41.0440   32.4270   37.1420 C   0  0  0  0  0  0  0  0  0  0  0  0
   41.3320   32.1220   36.1450 H   0  0  0  0  0  0  0  0  0  0  0  0
   41.6630   33.4970   37.7730 C   0  0  0  0  0  3  0  0  0  0  0  0
   41.2550   33.8440   39.0490 C   0  0  0  0  0  3  0  0  0  0  0  0
   39.4600   27.2940   43.6790 C   0  0  0  0  0  0  0  0  0  0  0  0
   38.9730   26.0200   43.2840 C   0  0  0  0  0  0  0  0  0  0  0  0
   38.0990   26.0180   42.1750 C   0  0  0  0  0  0  0  0  0  0  0  0
   37.7970   27.2030   41.5850 N   0  0  0  0  0  0  0  0  0  0  0  0
   38.3000   28.3900   42.0170 C   0  0  0  0  0  0  0  0  0  0  0  0
   39.1280   28.4210   43.0620 N   0  0  0  0  0  0  0  0  0  0  0  0
   40.1350   27.3140   44.5340 H   0  0  0  0  0  0  0  0  0  0  0  0
   39.2660   25.1430   43.8070 H   0  0  0  0  0  0  0  0  0  0  0  0
   37.6130   24.6950   41.7910 C   0  0  0  0  0  0  0  0  0  0  0  0
   37.2670   24.7270   40.4440 F   0  0  0  0  0  0  0  0  0  0  0  0
   36.4260   24.4940   42.4720 F   0  0  0  0  0  0  0  0  0  0  0  0
   38.5300   23.7050   41.9680 F   0  0  0  0  0  0  0  0  0  0  0  0
  1  2  1  0  0  0  0
  2  3  1  0  0  0  0
  3  4  2  0  0  0  0
  3 24  1  0  0  0  0
  4  8  1  0  0  0  0
  5  9  1  0  0  0  0
  5  4  1  0  0  0  0
  6  5  2  0  0  0  0
  7  6  1  0  0  0  0
  7  2  2  0  0  0  0
 10  6  1  0  0  0  0
 12 11  1  0  0  0  0
 13 12  2  0  0  0  0
 13  7  1  0  0  0  0
 14 13  1  0  0  0  0
 15 14  1  0  0  0  0
 16 14  2  0  0  0  0
 16 18  1  0  0  0  0
 17 16  1  0  0  0  0
 18 19  2  0  0  0  0
 19 12  1  0  0  0  0
 20 26  1  0  0  0  0
 21 20  1  0  0  0  0
 21 27  1  0  0  0  0
 22 21  2  0  0  0  0
 23 24  2  0  0  0  0
 23 22  1  0  0  0  0
 24 25  1  0  0  0  0
 25 20  2  0  0  0  0
 28 31  1  0  0  0  0
 28 22  1  0  0  0  0
 28 30  1  0  0  0  0
 29 28  1  0  0  0  0
M  END
>  <minimizedAffinity>
-5.85645533

$$$$

 OpenBabel03242510413D

 31 33  0  0  0  0  0  0  0  0999 V2000
   39.1500   27.5320   40.0600 Cl  0  0  0  0  0  0  0  0  0  0  0  0
   38.1280   27.4920   41.5080 C   0  0  0  0  0  0  0  0  0  0  0  0
   38.1290   28.6030   42.3270 C   0  0  0  0  0  0  0  0  0  0  0  0
   37.3400   28.5610   43.4230 C   0  0  0  0  0  0  0  0  0  0  0  0
   36.5710   27.4200   43.6800 C   0  0  0  0  0  0  0  0  0  0  0  0
   36.5890   26.3170   42.8430 C   0  0  0  0  0  0  0  0  0  0  0  0
   37.3990   26.3440   41.7040 C   0  0  0  0  0  0  0  0  0  0  0  0
   37.2770   29.3770   44.1130 H   0  0  0  0  0  0  0  0  0  0  0  0
   35.9250   27.3520   44.5530 H   0  0  0  0  0  0  0  0  0  0  0  0
   35.9880   25.4360   43.0520 H   0  0  0  0  0  0  0  0  0  0  0  0
   39.0860   24.2950   42.3550 F   0  0  0  0  0  0  0  0  0  0  0  0
   38.3540   24.2440   41.2110 C   0  0  0  0  0  0  0  0  0  0  0  0
   37.4690   25.2190   40.7760 C   0  0  0  0  0  0  0  0  0  0  0  0
   36.7760   25.0610   39.5920 C   0  0  0  0  0  0  0  0  0  0  0  0
   36.1290   25.8740   39.3660 H   0  0  0  0  0  0  0  0  0  0  0  0
   36.9800   23.9200   38.8510 C   0  0  0  0  0  0  0  0  0  0  0  0
   36.4220   23.8270   37.9280 H   0  0  0  0  0  0  0  0  0  0  0  0
   37.8590   22.9270   39.2600 C   0  0  0  0  0  3  0  0  0  0  0  0
   38.5480   23.0960   40.4490 C   0  0  0  0  0  3  0  0  0  0  0  0
   41.0010   30.8220   42.0430 C   0  0  0  0  0  0  0  0  0  0  0  0
   40.5040   31.9550   41.3450 C   0  0  0  0  0  0  0  0  0  0  0  0
   39.1400   31.9020   40.9890 C   0  0  0  0  0  0  0  0  0  0  0  0
   38.4220   30.8010   41.3320 N   0  0  0  0  0  0  0  0  0  0  0  0
   38.9630   29.7490   42.0030 C   0  0  0  0  0  0  0  0  0  0  0  0
   40.2500   29.7730   42.3510 N   0  0  0  0  0  0  0  0  0  0  0  0
   42.0540   30.8460   42.3250 H   0  0  0  0  0  0  0  0  0  0  0  0
   41.1430   32.7740   41.1190 H   0  0  0  0  0  0  0  0  0  0  0  0
   38.6560   33.0780   40.2710 C   0  0  0  0  0  0  0  0  0  0  0  0
   39.4970   33.3090   39.1870 F   0  0  0  0  0  0  0  0  0  0  0  0
   38.8370   34.1610   41.1140 F   0  0  0  0  0  0  0  0  0  0  0  0
   37.3870   32.9460   39.8000 F   0  0  0  0  0  0  0  0  0  0  0  0
  1  2  1  0  0  0  0
  2  7  2  0  0  0  0
  2  3  1  0  0  0  0
  3  4  2  0  0  0  0
  4  5  1  0  0  0  0
  4  8  1  0  0  0  0
  5  9  1  0  0  0  0
  6 10  1  0  0  0  0
  6  5  2  0  0  0  0
  7  6  1  0  0  0  0
 12 11  1  0  0  0  0
 13 12  1  0  0  0  0
 13  7  1  0  0  0  0
 14 13  2  0  0  0  0
 15 14  1  0  0  0  0
 16 18  2  0  0  0  0
 16 14  1  0  0  0  0
 17 16  1  0  0  0  0
 18 19  1  0  0  0  0
 19 12  2  0  0  0  0
 20 26  1  0  0  0  0
 20 25  1  0  0  0  0
 21 20  2  0  0  0  0
 22 23  2  0  0  0  0
 22 21  1  0  0  0  0
 23 24  1  0  0  0  0
 24  3  1  0  0  0  0
 24 25  2  0  0  0  0
 27 21  1  0  0  0  0
 28 22  1  0  0  0  0
 28 30  1  0  0  0  0
 29 28  1  0  0  0  0
 31 28  1  0  0  0  0
M  END
>  <minimizedAffinity>
-5.84365654

$$$$

 OpenBabel03242510413D

 31 33  0  0  0  0  0  0  0  0999 V2000
   39.6190   28.1920   40.4980 Cl  0  0  0  0  0  0  0  0  0  0  0  0
   38.1380   29.1580   40.6180 C   0  0  0  0  0  0  0  0  0  0  0  0
   38.2610   30.5320   40.5710 C   0  0  0  0  0  0  0  0  0  0  0  0
   37.1230   31.2560   40.6570 C   0  0  0  0  0  0  0  0  0  0  0  0
   35.8930   30.5990   40.7890 C   0  0  0  0  0  0  0  0  0  0  0  0
   35.7970   29.2200   40.8350 C   0  0  0  0  0  0  0  0  0  0  0  0
   36.9650   28.4560   40.7470 C   0  0  0  0  0  0  0  0  0  0  0  0
   37.1230   32.3250   40.6280 H   0  0  0  0  0  0  0  0  0  0  0  0
   34.9580   31.1500   40.8610 H   0  0  0  0  0  0  0  0  0  0  0  0
   34.8370   28.7200   40.9370 H   0  0  0  0  0  0  0  0  0  0  0  0
   37.2070   27.2750   43.1990 F   0  0  0  0  0  0  0  0  0  0  0  0
   37.0710   26.5140   42.0820 C   0  0  0  0  0  0  0  0  0  0  0  0
   36.9400   26.9960   40.7890 C   0  0  0  0  0  0  0  0  0  0  0  0
   36.8080   26.1260   39.7240 C   0  0  0  0  0  0  0  0  0  0  0  0
   36.7160   26.6150   38.7840 H   0  0  0  0  0  0  0  0  0  0  0  0
   36.8080   24.7720   39.9700 C   0  0  0  0  0  0  0  0  0  0  0  0
   36.7030   24.1180   39.1140 H   0  0  0  0  0  0  0  0  0  0  0  0
   36.9370   24.2590   41.2530 C   0  0  0  0  0  3  0  0  0  0  0  0
   37.0690   25.1410   42.3120 C   0  0  0  0  0  3  0  0  0  0  0  0
   41.5210   31.9280   41.3940 C   0  0  0  0  0  0  0  0  0  0  0  0
   42.0720   32.3010   40.1390 C   0  0  0  0  0  0  0  0  0  0  0  0
   41.2580   32.0470   39.0150 C   0  0  0  0  0  0  0  0  0  0  0  0
   40.0390   31.4780   39.2120 N   0  0  0  0  0  0  0  0  0  0  0  0
   39.5740   31.1440   40.4450 C   0  0  0  0  0  0  0  0  0  0  0  0
   40.3230   31.3750   41.5240 N   0  0  0  0  0  0  0  0  0  0  0  0
   42.1370   32.1170   42.2720 H   0  0  0  0  0  0  0  0  0  0  0  0
   43.0370   32.7420   40.0820 H   0  0  0  0  0  0  0  0  0  0  0  0
   41.8490   32.4390   37.7390 C   0  0  0  0  0  0  0  0  0  0  0  0
   43.2340   32.4200   37.8700 F   0  0  0  0  0  0  0  0  0  0  0  0
   41.5160   33.7670   37.5380 F   0  0  0  0  0  0  0  0  0  0  0  0
   41.5120   31.6190   36.7070 F   0  0  0  0  0  0  0  0  0  0  0  0
  1  2  1  0  0  0  0
  2  7  1  0  0  0  0
  3  2  2  0  0  0  0
  3  4  1  0  0  0  0
  4  5  2  0  0  0  0
  5  6  1  0  0  0  0
  5  9  1  0  0  0  0
  6 10  1  0  0  0  0
  7 13  1  0  0  0  0
  7  6  2  0  0  0  0
  8  4  1  0  0  0  0
 12 19  1  0  0  0  0
 12 11  1  0  0  0  0
 13 12  2  0  0  0  0
 14 16  2  0  0  0  0
 14 13  1  0  0  0  0
 15 14  1  0  0  0  0
 16 18  1  0  0  0  0
 17 16  1  0  0  0  0
 18 19  2  0  0  0  0
 20 25  1  0  0  0  0
 20 26  1  0  0  0  0
 21 20  2  0  0  0  0
 22 23  2  0  0  0  0
 22 21  1  0  0  0  0
 23 24  1  0  0  0  0
 24  3  1  0  0  0  0
 24 25  2  0  0  0  0
 27 21  1  0  0  0  0
 28 29  1  0  0  0  0
 28 22  1  0  0  0  0
 30 28  1  0  0  0  0
 31 28  1  0  0  0  0
M  END
>  <minimizedAffinity>
-5.73907375

$$$$

 OpenBabel03242510413D

 31 33  0  0  0  0  0  0  0  0999 V2000
   39.8310   28.0760   40.2480 Cl  0  0  0  0  0  0  0  0  0  0  0  0
   38.5900   27.8780   41.4990 C   0  0  0  0  0  0  0  0  0  0  0  0
   37.3010   28.2610   41.1920 C   0  0  0  0  0  0  0  0  0  0  0  0
   36.3640   28.0990   42.1520 C   0  0  0  0  0  0  0  0  0  0  0  0
   36.7310   27.5620   43.3930 C   0  0  0  0  0  0  0  0  0  0  0  0
   38.0320   27.1870   43.6760 C   0  0  0  0  0  0  0  0  0  0  0  0
   39.0130   27.3470   42.6930 C   0  0  0  0  0  0  0  0  0  0  0  0
   35.3400   28.3670   42.0020 H   0  0  0  0  0  0  0  0  0  0  0  0
   36.0030   27.4170   44.1880 H   0  0  0  0  0  0  0  0  0  0  0  0
   38.3050   26.7700   44.6420 H   0  0  0  0  0  0  0  0  0  0  0  0
   40.7970   29.3770   43.1000 F   0  0  0  0  0  0  0  0  0  0  0  0
   41.2140   28.0840   43.1140 C   0  0  0  0  0  0  0  0  0  0  0  0
   40.4060   26.9740   42.9210 C   0  0  0  0  0  0  0  0  0  0  0  0
   40.9410   25.7010   42.9560 C   0  0  0  0  0  0  0  0  0  0  0  0
   40.2230   24.9330   42.7950 H   0  0  0  0  0  0  0  0  0  0  0  0
   42.2900   25.5530   43.1870 C   0  0  0  0  0  0  0  0  0  0  0  0
   42.6770   24.5430   43.2080 H   0  0  0  0  0  0  0  0  0  0  0  0
   43.1240   26.6450   43.3830 C   0  0  0  0  0  3  0  0  0  0  0  0
   42.5760   27.9160   43.3460 C   0  0  0  0  0  3  0  0  0  0  0  0
   35.9890   28.6680   37.8200 C   0  0  0  0  0  0  0  0  0  0  0  0
   36.4390   29.9530   37.4190 C   0  0  0  0  0  0  0  0  0  0  0  0
   37.2120   30.6530   38.3700 C   0  0  0  0  0  0  0  0  0  0  0  0
   37.4610   30.0600   39.5660 N   0  0  0  0  0  0  0  0  0  0  0  0
   36.9970   28.8230   39.8860 C   0  0  0  0  0  0  0  0  0  0  0  0
   36.2640   28.1390   39.0050 N   0  0  0  0  0  0  0  0  0  0  0  0
   35.3890   28.1130   37.0980 H   0  0  0  0  0  0  0  0  0  0  0  0
   36.1940   30.3370   36.4580 H   0  0  0  0  0  0  0  0  0  0  0  0
   37.6600   31.9720   37.9310 C   0  0  0  0  0  0  0  0  0  0  0  0
   37.5910   32.0220   36.5430 F   0  0  0  0  0  0  0  0  0  0  0  0
   39.0080   32.0550   38.2360 F   0  0  0  0  0  0  0  0  0  0  0  0
   36.9140   32.9950   38.4280 F   0  0  0  0  0  0  0  0  0  0  0  0
  1  2  1  0  0  0  0
  2  7  1  0  0  0  0
  3  2  2  0  0  0  0
  3  4  1  0  0  0  0
  4  5  2  0  0  0  0
  5  6  1  0  0  0  0
  5  9  1  0  0  0  0
  6 10  1  0  0  0  0
  7 13  1  0  0  0  0
  7  6  2  0  0  0  0
  8  4  1  0  0  0  0
 11 12  1  0  0  0  0
 12 19  1  0  0  0  0
 13 14  1  0  0  0  0
 13 12  2  0  0  0  0
 14 16  2  0  0  0  0
 15 14  1  0  0  0  0
 16 17  1  0  0  0  0
 16 18  1  0  0  0  0
 19 18  2  0  0  0  0
 20 25  1  0  0  0  0
 21 20  2  0  0  0  0
 21 22  1  0  0  0  0
 22 23  2  0  0  0  0
 23 24  1  0  0  0  0
 24  3  1  0  0  0  0
 25 24  2  0  0  0  0
 26 20  1  0  0  0  0
 27 21  1  0  0  0  0
 28 30  1  0  0  0  0
 28 22  1  0  0  0  0
 28 31  1  0  0  0  0
 29 28  1  0  0  0  0
M  END
>  <minimizedAffinity>
-5.71745348

$$$$

 OpenBabel03242510413D

 31 33  0  0  0  0  0  0  0  0999 V2000
   40.4120   29.8080   39.4400 Cl  0  0  0  0  0  0  0  0  0  0  0  0
   39.2820   31.1580   39.6440 C   0  0  0  0  0  0  0  0  0  0  0  0
   37.9790   30.8600   39.9860 C   0  0  0  0  0  0  0  0  0  0  0  0
   37.1300   31.8980   40.1450 C   0  0  0  0  0  0  0  0  0  0  0  0
   37.5950   33.2070   39.9620 C   0  0  0  0  0  0  0  0  0  0  0  0
   38.9070   33.4790   39.6180 C   0  0  0  0  0  0  0  0  0  0  0  0
   39.7980   32.4160   39.4500 C   0  0  0  0  0  0  0  0  0  0  0  0
   36.1020   31.7610   40.4100 H   0  0  0  0  0  0  0  0  0  0  0  0
   36.9390   34.0660   40.0820 H   0  0  0  0  0  0  0  0  0  0  0  0
   39.2570   34.4990   39.4780 H   0  0  0  0  0  0  0  0  0  0  0  0
   41.5950   32.6390   41.4960 F   0  0  0  0  0  0  0  0  0  0  0  0
   42.0110   32.7250   40.2060 C   0  0  0  0  0  0  0  0  0  0  0  0
   41.1970   32.6280   39.0870 C   0  0  0  0  0  0  0  0  0  0  0  0
   41.7320   32.7310   37.8180 C   0  0  0  0  0  0  0  0  0  0  0  0
   41.0080   32.6400   37.0440 H   0  0  0  0  0  0  0  0  0  0  0  0
   43.0860   32.9320   37.6820 C   0  0  0  0  0  0  0  0  0  0  0  0
   43.4720   33.0080   36.6740 H   0  0  0  0  0  0  0  0  0  0  0  0
   43.9260   33.0340   38.7820 C   0  0  0  0  0  3  0  0  0  0  0  0
   43.3790   32.9280   40.0490 C   0  0  0  0  0  3  0  0  0  0  0  0
   36.8580   27.4740   39.2520 C   0  0  0  0  0  0  0  0  0  0  0  0
   36.7970   26.8390   40.5210 C   0  0  0  0  0  0  0  0  0  0  0  0
   37.1590   27.6430   41.6230 C   0  0  0  0  0  0  0  0  0  0  0  0
   37.5280   28.9310   41.3940 N   0  0  0  0  0  0  0  0  0  0  0  0
   37.5650   29.4750   40.1480 C   0  0  0  0  0  0  0  0  0  0  0  0
   37.2280   28.7380   39.0890 N   0  0  0  0  0  0  0  0  0  0  0  0
   36.5830   26.8670   38.3900 H   0  0  0  0  0  0  0  0  0  0  0  0
   36.4950   25.8240   40.6040 H   0  0  0  0  0  0  0  0  0  0  0  0
   37.0880   26.9660   42.9150 C   0  0  0  0  0  0  0  0  0  0  0  0
   36.9150   25.6040   42.6890 F   0  0  0  0  0  0  0  0  0  0  0  0
   35.9200   27.3900   43.5230 F   0  0  0  0  0  0  0  0  0  0  0  0
   38.2030   27.1270   43.6770 F   0  0  0  0  0  0  0  0  0  0  0  0
  1  2  1  0  0  0  0
  2  3  1  0  0  0  0
  3  4  2  0  0  0  0
  3 24  1  0  0  0  0
  4  8  1  0  0  0  0
  5  9  1  0  0  0  0
  5  4  1  0  0  0  0
  6  5  2  0  0  0  0
  7  6  1  0  0  0  0
  7  2  2  0  0  0  0
 10  6  1  0  0  0  0
 12 11  1  0  0  0  0
 13  7  1  0  0  0  0
 13 12  2  0  0  0  0
 14 13  1  0  0  0  0
 15 14  1  0  0  0  0
 16 14  2  0  0  0  0
 16 18  1  0  0  0  0
 17 16  1  0  0  0  0
 18 19  2  0  0  0  0
 19 12  1  0  0  0  0
 20 21  1  0  0  0  0
 21 27  1  0  0  0  0
 21 22  2  0  0  0  0
 22 28  1  0  0  0  0
 23 22  1  0  0  0  0
 24 23  2  0  0  0  0
 25 20  2  0  0  0  0
 25 24  1  0  0  0  0
 26 20  1  0  0  0  0
 28 30  1  0  0  0  0
 28 31  1  0  0  0  0
 29 28  1  0  0  0  0
M  END
>  <minimizedAffinity>
-5.707654

$$$$

 OpenBabel03242510413D

 31 33  0  0  0  0  0  0  0  0999 V2000
   37.5100   26.9790   39.7600 Cl  0  0  0  0  0  0  0  0  0  0  0  0
   38.3570   26.9630   41.3170 C   0  0  0  0  0  0  0  0  0  0  0  0
   38.5000   28.1630   41.9830 C   0  0  0  0  0  0  0  0  0  0  0  0
   39.1420   28.1350   43.1720 C   0  0  0  0  0  0  0  0  0  0  0  0
   39.6250   26.9190   43.6690 C   0  0  0  0  0  0  0  0  0  0  0  0
   39.4700   25.7290   42.9800 C   0  0  0  0  0  0  0  0  0  0  0  0
   38.8080   25.7400   41.7490 C   0  0  0  0  0  0  0  0  0  0  0  0
   39.2980   29.0160   43.7580 H   0  0  0  0  0  0  0  0  0  0  0  0
   40.1460   26.8590   44.6220 H   0  0  0  0  0  0  0  0  0  0  0  0
   39.8490   24.7900   43.3760 H   0  0  0  0  0  0  0  0  0  0  0  0
   40.6260   25.2110   39.7790 F   0  0  0  0  0  0  0  0  0  0  0  0
   39.5890   24.3620   40.0000 C   0  0  0  0  0  0  0  0  0  0  0  0
   38.6070   24.5230   40.9660 C   0  0  0  0  0  0  0  0  0  0  0  0
   37.5950   23.5930   41.1020 C   0  0  0  0  0  0  0  0  0  0  0  0
   36.9040   23.8270   41.8760 H   0  0  0  0  0  0  0  0  0  0  0  0
   37.5780   22.5040   40.2620 C   0  0  0  0  0  0  0  0  0  0  0  0
   36.7710   21.7950   40.3940 H   0  0  0  0  0  0  0  0  0  0  0  0
   38.5460   22.3150   39.2850 C   0  0  0  0  0  3  0  0  0  0  0  0
   39.5550   23.2540   39.1590 C   0  0  0  0  0  3  0  0  0  0  0  0
   36.2670   30.8970   41.0900 C   0  0  0  0  0  0  0  0  0  0  0  0
   37.0580   31.7450   40.2700 C   0  0  0  0  0  0  0  0  0  0  0  0
   38.3840   31.3160   40.0490 C   0  0  0  0  0  0  0  0  0  0  0  0
   38.7950   30.1550   40.6220 N   0  0  0  0  0  0  0  0  0  0  0  0
   37.9820   29.3900   41.3990 C   0  0  0  0  0  0  0  0  0  0  0  0
   36.7240   29.7710   41.6240 N   0  0  0  0  0  0  0  0  0  0  0  0
   35.2400   31.2130   41.2710 H   0  0  0  0  0  0  0  0  0  0  0  0
   36.6500   32.6380   39.8630 H   0  0  0  0  0  0  0  0  0  0  0  0
   39.1750   32.2070   39.2040 C   0  0  0  0  0  0  0  0  0  0  0  0
   38.9180   33.5200   39.5870 F   0  0  0  0  0  0  0  0  0  0  0  0
   38.6690   32.0920   37.9220 F   0  0  0  0  0  0  0  0  0  0  0  0
   40.5160   31.9970   39.2940 F   0  0  0  0  0  0  0  0  0  0  0  0
  1  2  1  0  0  0  0
  2  7  2  0  0  0  0
  2  3  1  0  0  0  0
  3  4  2  0  0  0  0
  4  5  1  0  0  0  0
  4  8  1  0  0  0  0
  5  9  1  0  0  0  0
  6 10  1  0  0  0  0
  6  5  2  0  0  0  0
  7  6  1  0  0  0  0
 11 12  1  0  0  0  0
 12 13  1  0  0  0  0
 13 14  2  0  0  0  0
 13  7  1  0  0  0  0
 14 15  1  0  0  0  0
 16 17  1  0  0  0  0
 16 14  1  0  0  0  0
 18 16  2  0  0  0  0
 19 18  1  0  0  0  0
 19 12  2  0  0  0  0
 20 26  1  0  0  0  0
 20 25  1  0  0  0  0
 21 20  2  0  0  0  0
 22 21  1  0  0  0  0
 22 23  2  0  0  0  0
 23 24  1  0  0  0  0
 24 25  2  0  0  0  0
 24  3  1  0  0  0  0
 27 21  1  0  0  0  0
 28 31  1  0  0  0  0
 28 29  1  0  0  0  0
 28 22  1  0  0  0  0
 30 28  1  0  0  0  0
M  END
>  <minimizedAffinity>
-5.64777946

$$$$
