
 OpenBabel03252505263D

 43 46  0  0  1  0  0  0  0  0999 V2000
   39.7990   31.4530   39.2040 F   0  0  0  0  0  0  0  0  0  0  0  0
   40.4220   31.3920   40.4290 C   0  0  0  0  0  0  0  0  0  0  0  0
   39.7440   30.7940   41.4730 C   0  0  0  0  0  0  0  0  0  0  0  0
   40.3720   30.7440   42.6750 C   0  0  0  0  0  0  0  0  0  0  0  0
   41.6410   31.2750   42.8300 C   0  0  0  0  0  0  0  0  0  0  0  0
   42.3130   31.8690   41.7910 C   0  0  0  0  0  0  0  0  0  0  0  0
   41.6710   31.9250   40.5500 C   0  0  0  0  0  0  0  0  0  0  0  0
   39.8780   30.2820   43.5270 H   0  0  0  0  0  0  0  0  0  0  0  0
   42.0830   31.2010   43.8160 H   0  0  0  0  0  0  0  0  0  0  0  0
   43.3050   32.2830   41.9200 H   0  0  0  0  0  0  0  0  0  0  0  0
   42.3960   32.5440   39.5050 N   0  0  0  0  0  0  0  0  0  0  0  0
   42.8660   32.0060   38.2450 C   0  0  0  0  0  0  0  0  0  0  0  0
   42.3900   33.0630   37.2360 C   0  0  0  0  0  0  0  0  0  0  0  0
   42.2360   34.3020   38.0640 C   0  0  0  0  0  0  0  0  0  0  0  0
   42.8910   33.9000   39.3690 C   0  0  2  0  0  0  0  0  0  0  0  0
   42.3900   31.0270   38.0010 H   0  0  0  0  0  0  0  0  0  0  0  0
   43.9660   31.9530   38.2970 H   0  0  0  0  0  0  0  0  0  0  0  0
   41.4140   32.7310   36.8340 H   0  0  0  0  0  0  0  0  0  0  0  0
   43.1490   33.2020   36.4350 H   0  0  0  0  0  0  0  0  0  0  0  0
   42.8910   35.1050   37.6220 H   0  0  0  0  0  0  0  0  0  0  0  0
   41.2150   34.6540   38.1950 H   0  0  0  0  0  0  0  0  0  0  0  0
   42.4550   34.5130   40.1990 H   0  0  0  0  0  0  0  0  0  0  0  0
   44.3790   33.9960   39.3640 C   0  0  0  0  0  0  0  0  0  0  0  0
   44.8290   33.9910   38.3590 H   0  0  0  0  0  0  0  0  0  0  0  0
   44.7710   33.0930   39.8960 H   0  0  0  0  0  0  0  0  0  0  0  0
   44.6770   34.8730   39.9770 H   0  0  0  0  0  0  0  0  0  0  0  0
   36.1310   30.5830   40.9210 C   0  0  0  0  0  0  0  0  0  0  0  0
   35.9000   29.1940   40.8640 C   0  0  0  0  0  0  0  0  0  0  0  0
   37.0150   28.3840   41.0210 C   0  0  0  0  0  0  0  0  0  0  0  0
   38.2180   28.9520   41.2130 N   0  0  0  0  0  0  0  0  0  0  0  0
   38.4170   30.2490   41.2630 C   0  0  0  0  0  0  0  0  0  0  0  0
   37.3720   31.0850   41.1170 N   0  0  0  0  0  0  0  0  0  0  0  0
   35.2590   31.2190   40.7990 H   0  0  0  0  0  0  0  0  0  0  0  0
   34.9290   28.8030   40.7110 H   0  0  0  0  0  0  0  0  0  0  0  0
   37.2510   26.8640   43.3170 F   0  0  0  0  0  0  0  0  0  0  0  0
   37.0340   26.1930   42.1410 C   0  0  0  0  0  0  0  0  0  0  0  0
   36.9120   26.9310   40.9830 C   0  0  0  0  0  0  0  0  0  0  0  0
   36.6960   26.1830   39.8470 C   0  0  0  0  0  0  0  0  0  0  0  0
   36.5910   26.6990   38.9040 H   0  0  0  0  0  0  0  0  0  0  0  0
   36.6040   24.8070   39.8540 C   0  0  0  0  0  0  0  0  0  0  0  0
   36.4360   24.2500   38.9560 H   0  0  0  0  0  0  0  0  0  0  0  0
   36.7330   24.1270   41.0430 C   0  0  0  0  0  3  0  0  0  0  0  0
   36.9520   24.8180   42.2160 C   0  0  0  0  0  3  0  0  0  0  0  0
  1  2  1  0  0  0  0
  2  7  2  0  0  0  0
  2  3  1  0  0  0  0
  3  4  2  0  0  0  0
  4  5  1  0  0  0  0
  4  8  1  0  0  0  0
  5  9  1  0  0  0  0
  6 10  1  0  0  0  0
  6  5  2  0  0  0  0
  7  6  1  0  0  0  0
 11  7  1  0  0  0  0
 12 17  1  0  0  0  0
 12 11  1  0  0  0  0
 13 14  1  0  0  0  0
 13 12  1  0  0  0  0
 14 21  1  0  0  0  0
 14 15  1  0  0  0  0
 15 11  1  0  0  0  0
 15 22  1  1  0  0  0
 16 12  1  0  0  0  0
 18 13  1  0  0  0  0
 19 13  1  0  0  0  0
 20 14  1  0  0  0  0
 23 15  1  0  0  0  0
 23 25  1  0  0  0  0
 23 26  1  0  0  0  0
 24 23  1  0  0  0  0
 27 32  1  0  0  0  0
 28 27  2  0  0  0  0
 28 29  1  0  0  0  0
 29 30  2  0  0  0  0
 30 31  1  0  0  0  0
 31  3  1  0  0  0  0
 32 31  2  0  0  0  0
 33 27  1  0  0  0  0
 34 28  1  0  0  0  0
 36 43  1  0  0  0  0
 36 35  1  0  0  0  0
 37 29  1  0  0  0  0
 37 36  2  0  0  0  0
 38 40  2  0  0  0  0
 38 37  1  0  0  0  0
 39 38  1  0  0  0  0
 40 42  1  0  0  0  0
 41 40  1  0  0  0  0
 42 43  2  0  0  0  0
M  END
>  <minimizedAffinity>
-6.3737793

$$$$

 OpenBabel03252505263D

 43 46  0  0  1  0  0  0  0  0999 V2000
   38.2010   27.3500   39.7610 F   0  0  0  0  0  0  0  0  0  0  0  0
   38.0460   27.9120   41.0070 C   0  0  0  0  0  0  0  0  0  0  0  0
   37.9170   29.2840   41.0890 C   0  0  0  0  0  0  0  0  0  0  0  0
   37.7670   29.8220   42.3260 C   0  0  0  0  0  0  0  0  0  0  0  0
   37.7460   29.0120   43.4490 C   0  0  0  0  0  0  0  0  0  0  0  0
   37.8750   27.6490   43.3650 C   0  0  0  0  0  0  0  0  0  0  0  0
   38.0300   27.0880   42.0930 C   0  0  0  0  0  0  0  0  0  0  0  0
   37.6610   30.8990   42.4410 H   0  0  0  0  0  0  0  0  0  0  0  0
   37.6230   29.5080   44.4040 H   0  0  0  0  0  0  0  0  0  0  0  0
   37.8580   27.0220   44.2480 H   0  0  0  0  0  0  0  0  0  0  0  0
   38.1600   25.6800   42.0490 N   0  0  0  0  0  0  0  0  0  0  0  0
   37.1480   24.6450   42.1050 C   0  0  0  0  0  0  0  0  0  0  0  0
   37.5250   23.7480   40.9150 C   0  0  0  0  0  0  0  0  0  0  0  0
   38.9790   24.0380   40.6980 C   0  0  0  0  0  0  0  0  0  0  0  0
   39.3360   24.8390   41.9330 C   0  0  2  0  0  0  0  0  0  0  0  0
   36.1210   25.0500   41.9470 H   0  0  0  0  0  0  0  0  0  0  0  0
   37.2640   24.1200   43.0680 H   0  0  0  0  0  0  0  0  0  0  0  0
   36.9230   24.0710   40.0450 H   0  0  0  0  0  0  0  0  0  0  0  0
   37.3580   22.6790   41.1690 H   0  0  0  0  0  0  0  0  0  0  0  0
   39.5480   23.0690   40.7820 H   0  0  0  0  0  0  0  0  0  0  0  0
   39.2210   24.5570   39.7730 H   0  0  0  0  0  0  0  0  0  0  0  0
   40.2110   25.4980   41.6990 H   0  0  0  0  0  0  0  0  0  0  0  0
   39.6020   24.0130   43.1450 C   0  0  0  0  0  0  0  0  0  0  0  0
   39.1730   23.0000   43.1060 H   0  0  0  0  0  0  0  0  0  0  0  0
   39.1200   24.5330   44.0120 H   0  0  0  0  0  0  0  0  0  0  0  0
   40.6940   24.0230   43.3450 H   0  0  0  0  0  0  0  0  0  0  0  0
   36.9350   30.7700   37.8910 C   0  0  0  0  0  0  0  0  0  0  0  0
   38.0070   31.6380   37.6020 C   0  0  0  0  0  0  0  0  0  0  0  0
   39.0340   31.6700   38.5350 C   0  0  0  0  0  0  0  0  0  0  0  0
   38.9490   30.8950   39.6310 N   0  0  0  0  0  0  0  0  0  0  0  0
   37.9420   30.0920   39.8860 C   0  0  0  0  0  0  0  0  0  0  0  0
   36.9170   30.0190   39.0150 N   0  0  0  0  0  0  0  0  0  0  0  0
   36.1300   30.7430   37.1610 H   0  0  0  0  0  0  0  0  0  0  0  0
   38.0200   32.2240   36.7220 H   0  0  0  0  0  0  0  0  0  0  0  0
   39.5240   33.8090   40.2130 F   0  0  0  0  0  0  0  0  0  0  0  0
   40.4240   33.5850   39.2040 C   0  0  0  0  0  0  0  0  0  0  0  0
   40.2000   32.5230   38.3550 C   0  0  0  0  0  0  0  0  0  0  0  0
   41.1500   32.3670   37.3690 C   0  0  0  0  0  0  0  0  0  0  0  0
   41.0350   31.5530   36.6690 H   0  0  0  0  0  0  0  0  0  0  0  0
   42.2420   33.1980   37.2330 C   0  0  0  0  0  0  0  0  0  0  0  0
   42.9650   33.0540   36.4580 H   0  0  0  0  0  0  0  0  0  0  0  0
   42.4110   34.2420   38.1140 C   0  0  0  0  0  3  0  0  0  0  0  0
   41.4950   34.4520   39.1220 C   0  0  0  0  0  3  0  0  0  0  0  0
  1  2  1  0  0  0  0
  2  3  2  0  0  0  0
  2  7  1  0  0  0  0
  3  4  1  0  0  0  0
  4  8  1  0  0  0  0
  4  5  2  0  0  0  0
  5  9  1  0  0  0  0
  6  5  1  0  0  0  0
  6 10  1  0  0  0  0
  7  6  2  0  0  0  0
 11  7  1  0  0  0  0
 11 12  1  0  0  0  0
 12 17  1  0  0  0  0
 13 19  1  0  0  0  0
 13 12  1  0  0  0  0
 14 20  1  0  0  0  0
 14 13  1  0  0  0  0
 14 15  1  0  0  0  0
 15 22  1  6  0  0  0
 15 11  1  0  0  0  0
 15 23  1  0  0  0  0
 16 12  1  0  0  0  0
 18 13  1  0  0  0  0
 21 14  1  0  0  0  0
 23 26  1  0  0  0  0
 23 25  1  0  0  0  0
 24 23  1  0  0  0  0
 27 32  1  0  0  0  0
 28 27  2  0  0  0  0
 28 29  1  0  0  0  0
 29 30  2  0  0  0  0
 30 31  1  0  0  0  0
 31  3  1  0  0  0  0
 32 31  2  0  0  0  0
 33 27  1  0  0  0  0
 34 28  1  0  0  0  0
 36 35  1  0  0  0  0
 37 29  1  0  0  0  0
 37 36  2  0  0  0  0
 38 37  1  0  0  0  0
 39 38  1  0  0  0  0
 40 38  2  0  0  0  0
 40 42  1  0  0  0  0
 41 40  1  0  0  0  0
 42 43  2  0  0  0  0
 43 36  1  0  0  0  0
M  END
>  <minimizedAffinity>
-6.36691952

$$$$

 OpenBabel03252505263D

 43 46  0  0  1  0  0  0  0  0999 V2000
   40.4400   30.4820   40.9670 F   0  0  0  0  0  0  0  0  0  0  0  0
   39.1820   30.8920   40.5930 C   0  0  0  0  0  0  0  0  0  0  0  0
   39.0780   31.9690   39.7340 C   0  0  0  0  0  0  0  0  0  0  0  0
   37.8300   32.3620   39.3770 C   0  0  0  0  0  0  0  0  0  0  0  0
   36.7150   31.6980   39.8620 C   0  0  0  0  0  0  0  0  0  0  0  0
   36.8210   30.6280   40.7150 C   0  0  0  0  0  0  0  0  0  0  0  0
   38.1050   30.2190   41.0880 C   0  0  0  0  0  0  0  0  0  0  0  0
   37.6980   33.2060   38.7030 H   0  0  0  0  0  0  0  0  0  0  0  0
   35.7500   32.0640   39.5360 H   0  0  0  0  0  0  0  0  0  0  0  0
   35.9450   30.1140   41.0900 H   0  0  0  0  0  0  0  0  0  0  0  0
   38.1710   29.1130   41.9680 N   0  0  0  0  0  0  0  0  0  0  0  0
   37.9070   29.0310   43.3900 C   0  0  0  0  0  0  0  0  0  0  0  0
   36.9700   27.8160   43.4820 C   0  0  0  0  0  0  0  0  0  0  0  0
   37.2760   27.0360   42.2400 C   0  0  0  0  0  0  0  0  0  0  0  0
   38.5200   27.7270   41.7230 C   0  0  2  0  0  0  0  0  0  0  0  0
   37.3750   29.9330   43.7720 H   0  0  0  0  0  0  0  0  0  0  0  0
   38.8700   28.8480   43.8960 H   0  0  0  0  0  0  0  0  0  0  0  0
   35.9290   28.1900   43.4700 H   0  0  0  0  0  0  0  0  0  0  0  0
   37.1940   27.2260   44.3980 H   0  0  0  0  0  0  0  0  0  0  0  0
   37.5990   26.0000   42.5450 H   0  0  0  0  0  0  0  0  0  0  0  0
   36.4760   26.9970   41.5030 H   0  0  0  0  0  0  0  0  0  0  0  0
   38.5860   27.5770   40.6150 H   0  0  0  0  0  0  0  0  0  0  0  0
   39.7820   27.3000   42.3940 C   0  0  0  0  0  0  0  0  0  0  0  0
   39.6360   26.8360   43.3810 H   0  0  0  0  0  0  0  0  0  0  0  0
   40.3960   28.2220   42.5600 H   0  0  0  0  0  0  0  0  0  0  0  0
   40.3580   26.6660   41.6870 H   0  0  0  0  0  0  0  0  0  0  0  0
   41.6250   34.5340   39.1550 C   0  0  0  0  0  0  0  0  0  0  0  0
   42.5520   33.8780   38.3200 C   0  0  0  0  0  0  0  0  0  0  0  0
   42.2510   32.5650   37.9900 C   0  0  0  0  0  0  0  0  0  0  0  0
   41.1260   32.0070   38.4720 N   0  0  0  0  0  0  0  0  0  0  0  0
   40.2730   32.6330   39.2500 C   0  0  0  0  0  0  0  0  0  0  0  0
   40.5130   33.9100   39.6040 N   0  0  0  0  0  0  0  0  0  0  0  0
   41.8590   35.5630   39.4140 H   0  0  0  0  0  0  0  0  0  0  0  0
   43.4210   34.3670   37.9700 H   0  0  0  0  0  0  0  0  0  0  0  0
   44.9890   32.9350   37.9960 F   0  0  0  0  0  0  0  0  0  0  0  0
   44.4890   31.9780   37.1530 C   0  0  0  0  0  0  0  0  0  0  0  0
   43.1250   31.7750   37.1330 C   0  0  0  0  0  0  0  0  0  0  0  0
   42.7030   30.7960   36.2600 C   0  0  0  0  0  0  0  0  0  0  0  0
   41.6460   30.5860   36.1950 H   0  0  0  0  0  0  0  0  0  0  0  0
   43.5650   30.0700   35.4660 C   0  0  0  0  0  0  0  0  0  0  0  0
   43.2110   29.3150   34.7960 H   0  0  0  0  0  0  0  0  0  0  0  0
   44.9170   30.3190   35.5310 C   0  0  0  0  0  3  0  0  0  0  0  0
   45.4030   31.2860   36.3850 C   0  0  0  0  0  3  0  0  0  0  0  0
  2  1  1  0  0  0  0
  2  7  1  0  0  0  0
  3  2  2  0  0  0  0
  4  3  1  0  0  0  0
  4  5  2  0  0  0  0
  5  6  1  0  0  0  0
  6  7  2  0  0  0  0
  6 10  1  0  0  0  0
  7 11  1  0  0  0  0
  8  4  1  0  0  0  0
  9  5  1  0  0  0  0
 11 12  1  0  0  0  0
 12 13  1  0  0  0  0
 12 16  1  0  0  0  0
 12 17  1  0  0  0  0
 13 19  1  0  0  0  0
 14 20  1  0  0  0  0
 14 13  1  0  0  0  0
 15 22  1  6  0  0  0
 15 11  1  0  0  0  0
 15 14  1  0  0  0  0
 15 23  1  0  0  0  0
 18 13  1  0  0  0  0
 21 14  1  0  0  0  0
 23 25  1  0  0  0  0
 23 24  1  0  0  0  0
 26 23  1  0  0  0  0
 27 33  1  0  0  0  0
 27 32  1  0  0  0  0
 28 27  2  0  0  0  0
 29 28  1  0  0  0  0
 29 30  2  0  0  0  0
 30 31  1  0  0  0  0
 31 32  2  0  0  0  0
 31  3  1  0  0  0  0
 34 28  1  0  0  0  0
 36 35  1  0  0  0  0
 37 36  1  0  0  0  0
 37 29  1  0  0  0  0
 38 37  2  0  0  0  0
 39 38  1  0  0  0  0
 40 42  2  0  0  0  0
 40 38  1  0  0  0  0
 41 40  1  0  0  0  0
 42 43  1  0  0  0  0
 43 36  2  0  0  0  0
M  END
>  <minimizedAffinity>
-6.24130058

$$$$

 OpenBabel03252505263D

 43 46  0  0  1  0  0  0  0  0999 V2000
   40.0920   30.5550   39.2190 F   0  0  0  0  0  0  0  0  0  0  0  0
   39.5990   31.7880   39.5760 C   0  0  0  0  0  0  0  0  0  0  0  0
   38.3550   31.8410   40.1760 C   0  0  0  0  0  0  0  0  0  0  0  0
   37.8830   33.0650   40.5200 C   0  0  0  0  0  0  0  0  0  0  0  0
   38.6300   34.2050   40.2750 C   0  0  0  0  0  0  0  0  0  0  0  0
   39.8650   34.1500   39.6800 C   0  0  0  0  0  0  0  0  0  0  0  0
   40.3580   32.8910   39.3210 C   0  0  0  0  0  0  0  0  0  0  0  0
   36.9080   33.1570   40.9950 H   0  0  0  0  0  0  0  0  0  0  0  0
   38.1920   35.1480   40.5760 H   0  0  0  0  0  0  0  0  0  0  0  0
   40.4440   35.0450   39.4910 H   0  0  0  0  0  0  0  0  0  0  0  0
   41.6340   32.8770   38.7100 N   0  0  0  0  0  0  0  0  0  0  0  0
   42.0320   33.2400   37.3650 C   0  0  0  0  0  0  0  0  0  0  0  0
   43.2310   34.1690   37.6160 C   0  0  0  0  0  0  0  0  0  0  0  0
   43.7130   33.7690   38.9770 C   0  0  0  0  0  0  0  0  0  0  0  0
   42.9320   32.4980   39.2340 C   0  0  2  0  0  0  0  0  0  0  0  0
   41.2360   33.8080   36.8290 H   0  0  0  0  0  0  0  0  0  0  0  0
   42.3310   32.3150   36.8460 H   0  0  0  0  0  0  0  0  0  0  0  0
   42.8570   35.2110   37.6180 H   0  0  0  0  0  0  0  0  0  0  0  0
   44.0140   34.0050   36.8430 H   0  0  0  0  0  0  0  0  0  0  0  0
   44.7930   33.4580   38.8900 H   0  0  0  0  0  0  0  0  0  0  0  0
   43.5800   34.5130   39.7590 H   0  0  0  0  0  0  0  0  0  0  0  0
   42.8290   32.3510   40.3400 H   0  0  0  0  0  0  0  0  0  0  0  0
   43.5060   31.2820   38.5890 C   0  0  0  0  0  0  0  0  0  0  0  0
   44.1800   31.4940   37.7450 H   0  0  0  0  0  0  0  0  0  0  0  0
   42.6490   30.6910   38.1760 H   0  0  0  0  0  0  0  0  0  0  0  0
   43.9690   30.6510   39.3770 H   0  0  0  0  0  0  0  0  0  0  0  0
   35.6170   29.4130   40.2600 C   0  0  0  0  0  0  0  0  0  0  0  0
   36.2060   28.2920   40.8770 C   0  0  0  0  0  0  0  0  0  0  0  0
   37.5380   28.4270   41.2420 C   0  0  0  0  0  0  0  0  0  0  0  0
   38.1730   29.5860   40.9920 N   0  0  0  0  0  0  0  0  0  0  0  0
   37.6090   30.6220   40.4150 C   0  0  0  0  0  0  0  0  0  0  0  0
   36.3180   30.5490   40.0390 N   0  0  0  0  0  0  0  0  0  0  0  0
   34.5730   29.3100   39.9740 H   0  0  0  0  0  0  0  0  0  0  0  0
   35.6560   27.4050   41.0490 H   0  0  0  0  0  0  0  0  0  0  0  0
   38.5680   28.7040   43.7910 F   0  0  0  0  0  0  0  0  0  0  0  0
   38.7700   27.5040   43.1610 C   0  0  0  0  0  0  0  0  0  0  0  0
   38.2640   27.3420   41.8890 C   0  0  0  0  0  0  0  0  0  0  0  0
   38.5100   26.1090   41.3260 C   0  0  0  0  0  0  0  0  0  0  0  0
   38.1410   25.9160   40.3300 H   0  0  0  0  0  0  0  0  0  0  0  0
   39.2020   25.1080   41.9730 C   0  0  0  0  0  0  0  0  0  0  0  0
   39.3790   24.1580   41.5130 H   0  0  0  0  0  0  0  0  0  0  0  0
   39.6820   25.3300   43.2440 C   0  0  0  0  0  3  0  0  0  0  0  0
   39.4690   26.5430   43.8620 C   0  0  0  0  0  3  0  0  0  0  0  0
  1  2  1  0  0  0  0
  2  3  1  0  0  0  0
  3 31  1  0  0  0  0
  3  4  2  0  0  0  0
  4  8  1  0  0  0  0
  5  4  1  0  0  0  0
  5  9  1  0  0  0  0
  6  5  2  0  0  0  0
  7  2  2  0  0  0  0
  7  6  1  0  0  0  0
 10  6  1  0  0  0  0
 11 15  1  0  0  0  0
 11  7  1  0  0  0  0
 12 13  1  0  0  0  0
 12 11  1  0  0  0  0
 13 18  1  0  0  0  0
 13 14  1  0  0  0  0
 14 15  1  0  0  0  0
 14 21  1  0  0  0  0
 15 22  1  1  0  0  0
 16 12  1  0  0  0  0
 17 12  1  0  0  0  0
 19 13  1  0  0  0  0
 20 14  1  0  0  0  0
 23 15  1  0  0  0  0
 23 26  1  0  0  0  0
 24 23  1  0  0  0  0
 25 23  1  0  0  0  0
 27 28  1  0  0  0  0
 28 34  1  0  0  0  0
 28 29  2  0  0  0  0
 29 37  1  0  0  0  0
 30 29  1  0  0  0  0
 31 30  2  0  0  0  0
 32 27  2  0  0  0  0
 32 31  1  0  0  0  0
 33 27  1  0  0  0  0
 36 35  1  0  0  0  0
 36 43  1  0  0  0  0
 37 36  2  0  0  0  0
 38 37  1  0  0  0  0
 38 40  2  0  0  0  0
 39 38  1  0  0  0  0
 40 42  1  0  0  0  0
 41 40  1  0  0  0  0
 42 43  2  0  0  0  0
M  END
>  <minimizedAffinity>
-6.20481205

$$$$

 OpenBabel03252505263D

 43 46  0  0  1  0  0  0  0  0999 V2000
   35.8280   26.2370   38.7790 F   0  0  0  0  0  0  0  0  0  0  0  0
   35.9320   27.4390   39.4390 C   0  0  0  0  0  0  0  0  0  0  0  0
   35.1140   28.4760   39.0340 C   0  0  0  0  0  0  0  0  0  0  0  0
   35.2310   29.6550   39.6950 C   0  0  0  0  0  0  0  0  0  0  0  0
   36.1380   29.7960   40.7320 C   0  0  0  0  0  0  0  0  0  0  0  0
   36.9490   28.7640   41.1330 C   0  0  0  0  0  0  0  0  0  0  0  0
   36.8340   27.5470   40.4550 C   0  0  0  0  0  0  0  0  0  0  0  0
   34.6080   30.5010   39.4110 H   0  0  0  0  0  0  0  0  0  0  0  0
   36.1790   30.7640   41.2150 H   0  0  0  0  0  0  0  0  0  0  0  0
   37.6560   28.8820   41.9450 H   0  0  0  0  0  0  0  0  0  0  0  0
   37.6880   26.5080   40.8990 N   0  0  0  0  0  0  0  0  0  0  0  0
   38.9130   25.9940   40.3230 C   0  0  0  0  0  0  0  0  0  0  0  0
   39.8640   25.9780   41.5310 C   0  0  0  0  0  0  0  0  0  0  0  0
   38.9410   25.9250   42.7100 C   0  0  0  0  0  0  0  0  0  0  0  0
   37.6030   25.6430   42.0590 C   0  0  2  0  0  0  0  0  0  0  0  0
   39.3280   26.6720   39.5410 H   0  0  0  0  0  0  0  0  0  0  0  0
   38.7040   24.9780   39.9510 H   0  0  0  0  0  0  0  0  0  0  0  0
   40.4400   26.9230   41.5200 H   0  0  0  0  0  0  0  0  0  0  0  0
   40.5230   25.0830   41.4910 H   0  0  0  0  0  0  0  0  0  0  0  0
   39.1930   25.0070   43.3140 H   0  0  0  0  0  0  0  0  0  0  0  0
   38.9280   26.8160   43.3350 H   0  0  0  0  0  0  0  0  0  0  0  0
   36.7870   26.0300   42.7210 H   0  0  0  0  0  0  0  0  0  0  0  0
   37.3760   24.2080   41.7200 C   0  0  0  0  0  0  0  0  0  0  0  0
   38.2970   23.6100   41.6440 H   0  0  0  0  0  0  0  0  0  0  0  0
   36.8900   24.1800   40.7120 H   0  0  0  0  0  0  0  0  0  0  0  0
   36.6350   23.7910   42.4340 H   0  0  0  0  0  0  0  0  0  0  0  0
   33.2800   26.9170   36.2760 C   0  0  0  0  0  0  0  0  0  0  0  0
   32.3890   27.9310   35.8750 C   0  0  0  0  0  0  0  0  0  0  0  0
   32.4630   29.1230   36.5820 C   0  0  0  0  0  0  0  0  0  0  0  0
   33.3540   29.2380   37.5820 N   0  0  0  0  0  0  0  0  0  0  0  0
   34.1780   28.2820   37.9440 C   0  0  0  0  0  0  0  0  0  0  0  0
   34.1520   27.1040   37.2930 N   0  0  0  0  0  0  0  0  0  0  0  0
   33.2250   25.9830   35.7230 H   0  0  0  0  0  0  0  0  0  0  0  0
   31.7080   27.7840   35.0790 H   0  0  0  0  0  0  0  0  0  0  0  0
   30.7710   30.2130   38.4760 F   0  0  0  0  0  0  0  0  0  0  0  0
   30.7610   30.7780   37.2270 C   0  0  0  0  0  0  0  0  0  0  0  0
   31.5970   30.2510   36.2660 C   0  0  0  0  0  0  0  0  0  0  0  0
   31.5260   30.8750   35.0400 C   0  0  0  0  0  0  0  0  0  0  0  0
   32.1560   30.5110   34.2420 H   0  0  0  0  0  0  0  0  0  0  0  0
   30.6920   31.9420   34.7820 C   0  0  0  0  0  0  0  0  0  0  0  0
   30.6570   32.4080   33.8200 H   0  0  0  0  0  0  0  0  0  0  0  0
   29.8810   32.4240   35.7840 C   0  0  0  0  0  3  0  0  0  0  0  0
   29.9050   31.8420   37.0340 C   0  0  0  0  0  3  0  0  0  0  0  0
  1  2  1  0  0  0  0
  2  7  1  0  0  0  0
  3  2  2  0  0  0  0
  3  4  1  0  0  0  0
  4  5  2  0  0  0  0
  5  6  1  0  0  0  0
  5  9  1  0  0  0  0
  6 10  1  0  0  0  0
  7 11  1  0  0  0  0
  7  6  2  0  0  0  0
  8  4  1  0  0  0  0
 11 15  1  0  0  0  0
 12 11  1  0  0  0  0
 12 13  1  0  0  0  0
 13 14  1  0  0  0  0
 14 20  1  0  0  0  0
 14 21  1  0  0  0  0
 15 14  1  0  0  0  0
 15 22  1  1  0  0  0
 16 12  1  0  0  0  0
 17 12  1  0  0  0  0
 18 13  1  0  0  0  0
 19 13  1  0  0  0  0
 23 15  1  0  0  0  0
 23 26  1  0  0  0  0
 24 23  1  0  0  0  0
 25 23  1  0  0  0  0
 27 32  1  0  0  0  0
 28 27  2  0  0  0  0
 28 29  1  0  0  0  0
 29 30  2  0  0  0  0
 30 31  1  0  0  0  0
 31  3  1  0  0  0  0
 32 31  2  0  0  0  0
 33 27  1  0  0  0  0
 34 28  1  0  0  0  0
 36 35  1  0  0  0  0
 37 29  1  0  0  0  0
 37 36  2  0  0  0  0
 38 37  1  0  0  0  0
 39 38  1  0  0  0  0
 40 38  2  0  0  0  0
 40 42  1  0  0  0  0
 41 40  1  0  0  0  0
 42 43  2  0  0  0  0
 43 36  1  0  0  0  0
M  END
>  <minimizedAffinity>
-6.19976616

$$$$

 OpenBabel03252505263D

 43 46  0  0  1  0  0  0  0  0999 V2000
   38.9250   30.3040   41.8580 F   0  0  0  0  0  0  0  0  0  0  0  0
   38.0610   30.0830   40.8100 C   0  0  0  0  0  0  0  0  0  0  0  0
   37.9700   31.0500   39.8280 C   0  0  0  0  0  0  0  0  0  0  0  0
   37.1120   30.8160   38.8030 C   0  0  0  0  0  0  0  0  0  0  0  0
   36.3670   29.6500   38.7590 C   0  0  0  0  0  0  0  0  0  0  0  0
   36.4590   28.6910   39.7360 C   0  0  0  0  0  0  0  0  0  0  0  0
   37.3410   28.9260   40.7950 C   0  0  0  0  0  0  0  0  0  0  0  0
   37.0060   31.5490   38.0060 H   0  0  0  0  0  0  0  0  0  0  0  0
   35.7020   29.5290   37.9130 H   0  0  0  0  0  0  0  0  0  0  0  0
   35.8730   27.7820   39.6940 H   0  0  0  0  0  0  0  0  0  0  0  0
   37.4070   27.9130   41.7820 N   0  0  0  0  0  0  0  0  0  0  0  0
   37.4910   26.4730   41.6400 C   0  0  0  0  0  0  0  0  0  0  0  0
   38.6550   26.1170   42.5790 C   0  0  0  0  0  0  0  0  0  0  0  0
   38.7000   27.2640   43.5420 C   0  0  0  0  0  0  0  0  0  0  0  0
   37.4120   27.9980   43.2290 C   0  0  2  0  0  0  0  0  0  0  0  0
   37.7530   26.1660   40.6010 H   0  0  0  0  0  0  0  0  0  0  0  0
   36.5360   26.0500   41.9910 H   0  0  0  0  0  0  0  0  0  0  0  0
   39.5780   26.0740   41.9710 H   0  0  0  0  0  0  0  0  0  0  0  0
   38.4490   25.1570   43.1010 H   0  0  0  0  0  0  0  0  0  0  0  0
   38.5780   26.8540   44.5850 H   0  0  0  0  0  0  0  0  0  0  0  0
   39.5780   27.9020   43.4700 H   0  0  0  0  0  0  0  0  0  0  0  0
   37.5290   29.0760   43.5120 H   0  0  0  0  0  0  0  0  0  0  0  0
   36.2000   27.4100   43.8670 C   0  0  0  0  0  0  0  0  0  0  0  0
   36.3140   26.3580   44.1720 H   0  0  0  0  0  0  0  0  0  0  0  0
   35.3800   27.4370   43.1060 H   0  0  0  0  0  0  0  0  0  0  0  0
   35.8790   28.0780   44.6940 H   0  0  0  0  0  0  0  0  0  0  0  0
   38.9390   34.5360   40.3830 C   0  0  0  0  0  0  0  0  0  0  0  0
   40.3140   34.5360   40.0760 C   0  0  0  0  0  0  0  0  0  0  0  0
   40.8500   33.3180   39.6850 C   0  0  0  0  0  0  0  0  0  0  0  0
   40.0520   32.2370   39.6240 N   0  0  0  0  0  0  0  0  0  0  0  0
   38.7720   32.2540   39.9150 C   0  0  0  0  0  0  0  0  0  0  0  0
   38.1960   33.4090   40.3000 N   0  0  0  0  0  0  0  0  0  0  0  0
   38.5160   35.4900   40.6890 H   0  0  0  0  0  0  0  0  0  0  0  0
   40.8930   35.4180   40.1410 H   0  0  0  0  0  0  0  0  0  0  0  0
   41.7520   33.7820   37.1140 F   0  0  0  0  0  0  0  0  0  0  0  0
   42.6860   33.4180   38.0500 C   0  0  0  0  0  0  0  0  0  0  0  0
   42.2590   33.1820   39.3390 C   0  0  0  0  0  0  0  0  0  0  0  0
   43.2580   32.8220   40.2170 C   0  0  0  0  0  0  0  0  0  0  0  0
   42.9920   32.6230   41.2440 H   0  0  0  0  0  0  0  0  0  0  0  0
   44.5810   32.7050   39.8480 C   0  0  0  0  0  0  0  0  0  0  0  0
   45.3370   32.4230   40.5510 H   0  0  0  0  0  0  0  0  0  0  0  0
   44.9450   32.9550   38.5450 C   0  0  0  0  0  3  0  0  0  0  0  0
   43.9920   33.3190   37.6180 C   0  0  0  0  0  3  0  0  0  0  0  0
  2  1  1  0  0  0  0
  3 31  1  0  0  0  0
  3  2  2  0  0  0  0
  4  3  1  0  0  0  0
  5  4  2  0  0  0  0
  5  6  1  0  0  0  0
  6  7  2  0  0  0  0
  7  2  1  0  0  0  0
  7 11  1  0  0  0  0
  8  4  1  0  0  0  0
  9  5  1  0  0  0  0
 10  6  1  0  0  0  0
 11 15  1  0  0  0  0
 12 11  1  0  0  0  0
 12 17  1  0  0  0  0
 12 13  1  0  0  0  0
 13 19  1  0  0  0  0
 13 14  1  0  0  0  0
 14 20  1  0  0  0  0
 15 22  1  1  0  0  0
 15 14  1  0  0  0  0
 15 23  1  0  0  0  0
 16 12  1  0  0  0  0
 18 13  1  0  0  0  0
 21 14  1  0  0  0  0
 23 24  1  0  0  0  0
 23 26  1  0  0  0  0
 25 23  1  0  0  0  0
 27 33  1  0  0  0  0
 28 34  1  0  0  0  0
 28 27  2  0  0  0  0
 29 28  1  0  0  0  0
 30 29  2  0  0  0  0
 30 31  1  0  0  0  0
 31 32  2  0  0  0  0
 32 27  1  0  0  0  0
 35 36  1  0  0  0  0
 36 37  1  0  0  0  0
 37 29  1  0  0  0  0
 37 38  2  0  0  0  0
 38 39  1  0  0  0  0
 40 38  1  0  0  0  0
 40 41  1  0  0  0  0
 42 40  2  0  0  0  0
 43 36  2  0  0  0  0
 43 42  1  0  0  0  0
M  END
>  <minimizedAffinity>
-6.19204473

$$$$

 OpenBabel03252505263D

 43 46  0  0  1  0  0  0  0  0999 V2000
   35.6080   27.7710   40.1620 F   0  0  0  0  0  0  0  0  0  0  0  0
   36.4730   28.6250   39.5180 C   0  0  0  0  0  0  0  0  0  0  0  0
   36.1460   29.0380   38.2410 C   0  0  0  0  0  0  0  0  0  0  0  0
   37.0110   29.8800   37.6200 C   0  0  0  0  0  0  0  0  0  0  0  0
   38.1670   30.2990   38.2550 C   0  0  0  0  0  0  0  0  0  0  0  0
   38.4890   29.8870   39.5240 C   0  0  0  0  0  0  0  0  0  0  0  0
   37.6030   29.0190   40.1690 C   0  0  0  0  0  0  0  0  0  0  0  0
   36.7960   30.2320   36.6120 H   0  0  0  0  0  0  0  0  0  0  0  0
   38.8110   30.9700   37.7010 H   0  0  0  0  0  0  0  0  0  0  0  0
   39.3960   30.2190   40.0140 H   0  0  0  0  0  0  0  0  0  0  0  0
   37.9710   28.6180   41.4760 N   0  0  0  0  0  0  0  0  0  0  0  0
   37.8350   29.3120   42.7410 C   0  0  0  0  0  0  0  0  0  0  0  0
   37.1920   28.2420   43.6370 C   0  0  0  0  0  0  0  0  0  0  0  0
   37.5670   26.9510   42.9760 C   0  0  0  0  0  0  0  0  0  0  0  0
   38.5920   27.3980   41.9540 C   0  0  2  0  0  0  0  0  0  0  0  0
   37.1500   30.1890   42.6690 H   0  0  0  0  0  0  0  0  0  0  0  0
   38.8490   29.5800   43.0820 H   0  0  0  0  0  0  0  0  0  0  0  0
   36.0970   28.3970   43.6140 H   0  0  0  0  0  0  0  0  0  0  0  0
   37.6050   28.3050   44.6680 H   0  0  0  0  0  0  0  0  0  0  0  0
   38.1270   26.3220   43.7230 H   0  0  0  0  0  0  0  0  0  0  0  0
   36.7430   26.3960   42.5330 H   0  0  0  0  0  0  0  0  0  0  0  0
   38.6070   26.6640   41.1090 H   0  0  0  0  0  0  0  0  0  0  0  0
   39.9610   27.6010   42.5070 C   0  0  0  0  0  0  0  0  0  0  0  0
   39.9910   27.7550   43.5960 H   0  0  0  0  0  0  0  0  0  0  0  0
   40.3720   28.5320   42.0390 H   0  0  0  0  0  0  0  0  0  0  0  0
   40.6080   26.7670   42.1600 H   0  0  0  0  0  0  0  0  0  0  0  0
   33.6910   26.8590   36.6220 C   0  0  0  0  0  0  0  0  0  0  0  0
   32.5870   27.7130   36.4290 C   0  0  0  0  0  0  0  0  0  0  0  0
   32.7430   29.0190   36.8710 C   0  0  0  0  0  0  0  0  0  0  0  0
   33.9040   29.3850   37.4430 N   0  0  0  0  0  0  0  0  0  0  0  0
   34.9230   28.5760   37.6150 C   0  0  0  0  0  0  0  0  0  0  0  0
   34.8300   27.2960   37.2060 N   0  0  0  0  0  0  0  0  0  0  0  0
   33.5710   25.8350   36.2750 H   0  0  0  0  0  0  0  0  0  0  0  0
   31.6970   27.3690   35.9720 H   0  0  0  0  0  0  0  0  0  0  0  0
   31.2010   29.7900   39.0310 F   0  0  0  0  0  0  0  0  0  0  0  0
   30.9210   30.3720   37.8220 C   0  0  0  0  0  0  0  0  0  0  0  0
   31.6770   30.0030   36.7300 C   0  0  0  0  0  0  0  0  0  0  0  0
   31.3330   30.6320   35.5550 C   0  0  0  0  0  0  0  0  0  0  0  0
   31.8860   30.3890   34.6600 H   0  0  0  0  0  0  0  0  0  0  0  0
   30.3170   31.5590   35.4640 C   0  0  0  0  0  0  0  0  0  0  0  0
   30.0690   32.0340   34.5370 H   0  0  0  0  0  0  0  0  0  0  0  0
   29.5980   31.8870   36.5910 C   0  0  0  0  0  3  0  0  0  0  0  0
   29.8930   31.2910   37.7980 C   0  0  0  0  0  3  0  0  0  0  0  0
  2  1  1  0  0  0  0
  2  7  1  0  0  0  0
  3  2  2  0  0  0  0
  4  3  1  0  0  0  0
  4  5  2  0  0  0  0
  5  6  1  0  0  0  0
  6 10  1  0  0  0  0
  6  7  2  0  0  0  0
  7 11  1  0  0  0  0
  8  4  1  0  0  0  0
  9  5  1  0  0  0  0
 11 15  1  0  0  0  0
 11 12  1  0  0  0  0
 12 17  1  0  0  0  0
 12 13  1  0  0  0  0
 13 19  1  0  0  0  0
 14 13  1  0  0  0  0
 14 20  1  0  0  0  0
 15 22  1  6  0  0  0
 15 23  1  0  0  0  0
 15 14  1  0  0  0  0
 16 12  1  0  0  0  0
 18 13  1  0  0  0  0
 21 14  1  0  0  0  0
 23 24  1  0  0  0  0
 25 23  1  0  0  0  0
 26 23  1  0  0  0  0
 27 32  1  0  0  0  0
 28 27  2  0  0  0  0
 28 29  1  0  0  0  0
 29 30  2  0  0  0  0
 30 31  1  0  0  0  0
 31  3  1  0  0  0  0
 32 31  2  0  0  0  0
 33 27  1  0  0  0  0
 34 28  1  0  0  0  0
 36 35  1  0  0  0  0
 37 29  1  0  0  0  0
 37 36  2  0  0  0  0
 38 37  1  0  0  0  0
 39 38  1  0  0  0  0
 40 38  2  0  0  0  0
 40 42  1  0  0  0  0
 41 40  1  0  0  0  0
 42 43  2  0  0  0  0
 43 36  1  0  0  0  0
M  END
>  <minimizedAffinity>
-6.17717648

$$$$

 OpenBabel03252505263D

 43 46  0  0  1  0  0  0  0  0999 V2000
   37.8710   28.4240   39.5120 F   0  0  0  0  0  0  0  0  0  0  0  0
   38.0610   28.3710   40.8730 C   0  0  0  0  0  0  0  0  0  0  0  0
   38.2490   29.5610   41.5500 C   0  0  0  0  0  0  0  0  0  0  0  0
   38.4370   29.4900   42.8910 C   0  0  0  0  0  0  0  0  0  0  0  0
   38.4370   28.2660   43.5400 C   0  0  0  0  0  0  0  0  0  0  0  0
   38.2500   27.0860   42.8660 C   0  0  0  0  0  0  0  0  0  0  0  0
   38.0570   27.1520   41.4830 C   0  0  0  0  0  0  0  0  0  0  0  0
   38.5900   30.4000   43.4670 H   0  0  0  0  0  0  0  0  0  0  0  0
   38.5930   28.2840   44.6120 H   0  0  0  0  0  0  0  0  0  0  0  0
   38.2520   26.1330   43.3810 H   0  0  0  0  0  0  0  0  0  0  0  0
   37.8670   25.9130   40.8240 N   0  0  0  0  0  0  0  0  0  0  0  0
   38.8000   24.8340   40.5750 C   0  0  0  0  0  0  0  0  0  0  0  0
   38.0130   23.6010   41.0480 C   0  0  0  0  0  0  0  0  0  0  0  0
   36.5820   24.0370   40.9590 C   0  0  0  0  0  0  0  0  0  0  0  0
   36.6900   25.3430   40.1990 C   0  0  2  0  0  0  0  0  0  0  0  0
   39.7290   24.9310   41.1850 H   0  0  0  0  0  0  0  0  0  0  0  0
   38.9940   24.8070   39.4900 H   0  0  0  0  0  0  0  0  0  0  0  0
   38.3010   23.3990   42.0970 H   0  0  0  0  0  0  0  0  0  0  0  0
   38.2160   22.7350   40.3820 H   0  0  0  0  0  0  0  0  0  0  0  0
   36.0390   23.3240   40.2760 H   0  0  0  0  0  0  0  0  0  0  0  0
   36.0650   24.1430   41.9100 H   0  0  0  0  0  0  0  0  0  0  0  0
   35.8120   25.9890   40.4590 H   0  0  0  0  0  0  0  0  0  0  0  0
   36.8140   25.1850   38.7220 C   0  0  0  0  0  0  0  0  0  0  0  0
   37.1670   24.1930   38.4010 H   0  0  0  0  0  0  0  0  0  0  0  0
   37.5780   25.9260   38.3730 H   0  0  0  0  0  0  0  0  0  0  0  0
   35.8530   25.4850   38.2540 H   0  0  0  0  0  0  0  0  0  0  0  0
   37.0570   32.6330   39.9560 C   0  0  0  0  0  0  0  0  0  0  0  0
   38.2400   33.2110   39.4560 C   0  0  0  0  0  0  0  0  0  0  0  0
   39.4110   32.5050   39.6930 C   0  0  0  0  0  0  0  0  0  0  0  0
   39.3510   31.3430   40.3680 N   0  0  0  0  0  0  0  0  0  0  0  0
   38.2390   30.8180   40.8290 C   0  0  0  0  0  0  0  0  0  0  0  0
   37.0720   31.4590   40.6280 N   0  0  0  0  0  0  0  0  0  0  0  0
   36.1380   33.1840   39.7710 H   0  0  0  0  0  0  0  0  0  0  0  0
   38.2260   34.1290   38.9310 H   0  0  0  0  0  0  0  0  0  0  0  0
   40.1770   32.2550   37.0500 F   0  0  0  0  0  0  0  0  0  0  0  0
   41.0630   32.8560   37.9050 C   0  0  0  0  0  0  0  0  0  0  0  0
   40.7020   32.9920   39.2280 C   0  0  0  0  0  0  0  0  0  0  0  0
   41.6470   33.6060   40.0200 C   0  0  0  0  0  0  0  0  0  0  0  0
   41.4280   33.7450   41.0690 H   0  0  0  0  0  0  0  0  0  0  0  0
   42.8600   34.0540   39.5400 C   0  0  0  0  0  0  0  0  0  0  0  0
   43.5760   34.5280   40.1780 H   0  0  0  0  0  0  0  0  0  0  0  0
   43.1620   33.8900   38.2080 C   0  0  0  0  0  3  0  0  0  0  0  0
   42.2580   33.2820   37.3630 C   0  0  0  0  0  3  0  0  0  0  0  0
  1  2  1  0  0  0  0
  2  7  2  0  0  0  0
  2  3  1  0  0  0  0
  3  4  2  0  0  0  0
  4  8  1  0  0  0  0
  4  5  1  0  0  0  0
  5  9  1  0  0  0  0
  6 10  1  0  0  0  0
  6  5  2  0  0  0  0
  7  6  1  0  0  0  0
 11  7  1  0  0  0  0
 12 11  1  0  0  0  0
 12 13  1  0  0  0  0
 12 16  1  0  0  0  0
 13 18  1  0  0  0  0
 14 13  1  0  0  0  0
 14 21  1  0  0  0  0
 15 22  1  1  0  0  0
 15 11  1  0  0  0  0
 15 14  1  0  0  0  0
 17 12  1  0  0  0  0
 19 13  1  0  0  0  0
 20 14  1  0  0  0  0
 23 15  1  0  0  0  0
 24 23  1  0  0  0  0
 25 23  1  0  0  0  0
 26 23  1  0  0  0  0
 27 32  1  0  0  0  0
 28 29  1  0  0  0  0
 28 27  2  0  0  0  0
 29 30  2  0  0  0  0
 30 31  1  0  0  0  0
 31  3  1  0  0  0  0
 32 31  2  0  0  0  0
 33 27  1  0  0  0  0
 34 28  1  0  0  0  0
 35 36  1  0  0  0  0
 36 37  1  0  0  0  0
 37 29  1  0  0  0  0
 37 38  2  0  0  0  0
 38 39  1  0  0  0  0
 40 38  1  0  0  0  0
 40 41  1  0  0  0  0
 42 40  2  0  0  0  0
 43 36  2  0  0  0  0
 43 42  1  0  0  0  0
M  END
>  <minimizedAffinity>
-6.10862255

$$$$

 OpenBabel03252505263D

 43 46  0  0  1  0  0  0  0  0999 V2000
   39.7500   30.4630   38.3090 F   0  0  0  0  0  0  0  0  0  0  0  0
   39.1920   31.5510   38.9380 C   0  0  0  0  0  0  0  0  0  0  0  0
   37.8710   31.4660   39.3310 C   0  0  0  0  0  0  0  0  0  0  0  0
   37.3360   32.5490   39.9500 C   0  0  0  0  0  0  0  0  0  0  0  0
   38.0980   33.6840   40.1710 C   0  0  0  0  0  0  0  0  0  0  0  0
   39.4110   33.7650   39.7800 C   0  0  0  0  0  0  0  0  0  0  0  0
   39.9680   32.6530   39.1410 C   0  0  0  0  0  0  0  0  0  0  0  0
   36.2980   32.5300   40.2770 H   0  0  0  0  0  0  0  0  0  0  0  0
   37.6080   34.5100   40.6700 H   0  0  0  0  0  0  0  0  0  0  0  0
   40.0010   34.6560   39.9560 H   0  0  0  0  0  0  0  0  0  0  0  0
   41.3240   32.7760   38.7540 N   0  0  0  0  0  0  0  0  0  0  0  0
   42.5360   32.4350   39.4700 C   0  0  0  0  0  0  0  0  0  0  0  0
   43.3180   31.6220   38.4250 C   0  0  0  0  0  0  0  0  0  0  0  0
   42.7480   32.0800   37.1180 C   0  0  0  0  0  0  0  0  0  0  0  0
   41.9180   33.2780   37.5300 C   0  0  2  0  0  0  0  0  0  0  0  0
   42.3350   31.7910   40.3580 H   0  0  0  0  0  0  0  0  0  0  0  0
   43.0480   33.3780   39.7240 H   0  0  0  0  0  0  0  0  0  0  0  0
   43.1010   30.5510   38.5990 H   0  0  0  0  0  0  0  0  0  0  0  0
   44.4050   31.8470   38.4960 H   0  0  0  0  0  0  0  0  0  0  0  0
   43.5910   32.4870   36.4900 H   0  0  0  0  0  0  0  0  0  0  0  0
   42.1740   31.3350   36.5710 H   0  0  0  0  0  0  0  0  0  0  0  0
   41.0980   33.4260   36.7820 H   0  0  0  0  0  0  0  0  0  0  0  0
   42.7020   34.5330   37.7160 C   0  0  0  0  0  0  0  0  0  0  0  0
   43.7770   34.3730   37.8860 H   0  0  0  0  0  0  0  0  0  0  0  0
   42.3030   35.0380   38.6320 H   0  0  0  0  0  0  0  0  0  0  0  0
   42.4840   35.2120   36.8650 H   0  0  0  0  0  0  0  0  0  0  0  0
   35.4440   29.1330   37.8940 C   0  0  0  0  0  0  0  0  0  0  0  0
   35.6780   27.9460   38.6170 C   0  0  0  0  0  0  0  0  0  0  0  0
   36.6750   28.0070   39.5810 C   0  0  0  0  0  0  0  0  0  0  0  0
   37.3420   29.1600   39.7640 N   0  0  0  0  0  0  0  0  0  0  0  0
   37.1120   30.2570   39.0810 C   0  0  0  0  0  0  0  0  0  0  0  0
   36.1560   30.2580   38.1320 N   0  0  0  0  0  0  0  0  0  0  0  0
   34.6630   29.0880   37.1390 H   0  0  0  0  0  0  0  0  0  0  0  0
   35.1210   27.0670   38.4300 H   0  0  0  0  0  0  0  0  0  0  0  0
   36.1790   27.9700   42.2990 F   0  0  0  0  0  0  0  0  0  0  0  0
   36.7590   26.8540   41.7530 C   0  0  0  0  0  0  0  0  0  0  0  0
   37.0150   26.8500   40.3980 C   0  0  0  0  0  0  0  0  0  0  0  0
   37.5980   25.6940   39.9280 C   0  0  0  0  0  0  0  0  0  0  0  0
   37.8260   25.6240   38.8750 H   0  0  0  0  0  0  0  0  0  0  0  0
   37.9040   24.6200   40.7370 C   0  0  0  0  0  0  0  0  0  0  0  0
   38.3580   23.7330   40.3460 H   0  0  0  0  0  0  0  0  0  0  0  0
   37.6230   24.6840   42.0820 C   0  0  0  0  0  3  0  0  0  0  0  0
   37.0400   25.8140   42.6140 C   0  0  0  0  0  3  0  0  0  0  0  0
  1  2  1  0  0  0  0
  2  7  2  0  0  0  0
  2  3  1  0  0  0  0
  3  4  2  0  0  0  0
  4  5  1  0  0  0  0
  4  8  1  0  0  0  0
  5  9  1  0  0  0  0
  6 10  1  0  0  0  0
  6  5  2  0  0  0  0
  7  6  1  0  0  0  0
 11  7  1  0  0  0  0
 11 12  1  0  0  0  0
 12 17  1  0  0  0  0
 12 16  1  0  0  0  0
 13 19  1  0  0  0  0
 13 18  1  0  0  0  0
 13 12  1  0  0  0  0
 14 15  1  0  0  0  0
 14 13  1  0  0  0  0
 15 22  1  6  0  0  0
 15 23  1  0  0  0  0
 15 11  1  0  0  0  0
 20 14  1  0  0  0  0
 21 14  1  0  0  0  0
 23 24  1  0  0  0  0
 23 25  1  0  0  0  0
 26 23  1  0  0  0  0
 27 32  2  0  0  0  0
 27 28  1  0  0  0  0
 28 29  2  0  0  0  0
 29 30  1  0  0  0  0
 29 37  1  0  0  0  0
 31  3  1  0  0  0  0
 31 30  2  0  0  0  0
 32 31  1  0  0  0  0
 33 27  1  0  0  0  0
 34 28  1  0  0  0  0
 36 35  1  0  0  0  0
 36 43  1  0  0  0  0
 37 36  2  0  0  0  0
 38 37  1  0  0  0  0
 38 40  2  0  0  0  0
 39 38  1  0  0  0  0
 40 42  1  0  0  0  0
 41 40  1  0  0  0  0
 42 43  2  0  0  0  0
M  END
>  <minimizedAffinity>
-6.09129858

$$$$
