
 OpenBabel03252502493D

 45 48  0  0  1  0  0  0  0  0999 V2000
   36.4080   31.1210   41.0290 C   0  0  0  0  0  0  0  0  0  0  0  0
   35.5190   31.7600   41.2540 H   0  0  0  0  0  0  0  0  0  0  0  0
   36.9490   31.0320   41.9850 H   0  0  0  0  0  0  0  0  0  0  0  0
   37.3240   31.7320   40.0190 C   0  0  1  0  0  0  0  0  0  0  0  0
   37.2500   33.2150   39.8180 C   0  0  0  0  0  0  0  0  0  0  0  0
   38.4110   32.5760   40.5060 C   0  0  2  0  0  0  0  0  0  0  0  0
   37.4070   31.1550   39.1040 H   0  0  0  0  0  0  0  0  0  0  0  0
   37.3550   33.6310   38.7890 H   0  0  0  0  0  0  0  0  0  0  0  0
   36.5050   33.7920   40.4040 H   0  0  0  0  0  0  0  0  0  0  0  0
   38.5410   32.9040   41.5310 H   0  0  0  0  0  0  0  0  0  0  0  0
   39.6030   32.5190   39.6740 N   0  0  0  0  0  0  0  0  0  0  0  0
   40.1490   33.7800   39.3460 C   0  0  0  0  0  0  0  0  0  0  0  0
   41.3500   33.5010   38.4630 C   0  0  0  0  0  0  0  0  0  0  0  0
   40.9960   32.8390   37.2610 N   0  0  0  0  0  0  0  0  0  0  0  0
   39.7790   32.0510   37.3440 C   0  0  0  0  0  0  0  0  0  0  0  0
   39.6570   31.4670   38.7510 C   0  0  0  0  0  0  0  0  0  0  0  0
   40.5410   34.2560   40.2700 H   0  0  0  0  0  0  0  0  0  0  0  0
   39.4600   34.5170   38.9000 H   0  0  0  0  0  0  0  0  0  0  0  0
   41.7390   34.5230   38.1790 H   0  0  0  0  0  0  0  0  0  0  0  0
   42.1540   33.0450   39.0520 H   0  0  0  0  0  0  0  0  0  0  0  0
   41.7680   32.1630   37.0290 H   0  0  0  0  0  0  0  0  0  0  0  0
   38.9240   32.7500   37.2360 H   0  0  0  0  0  0  0  0  0  0  0  0
   39.7730   31.2600   36.5800 H   0  0  0  0  0  0  0  0  0  0  0  0
   40.5390   30.7890   38.8500 H   0  0  0  0  0  0  0  0  0  0  0  0
   38.7600   30.8280   38.7760 H   0  0  0  0  0  0  0  0  0  0  0  0
   36.0470   29.7500   40.5140 C   0  0  0  0  0  0  0  0  0  0  0  0
   34.9850   29.5740   40.8440 H   0  0  0  0  0  0  0  0  0  0  0  0
   36.0400   29.6180   39.4450 H   0  0  0  0  0  0  0  0  0  0  0  0
   38.0370   28.1100   43.2390 C   0  0  0  0  0  0  0  0  0  0  0  0
   37.2840   29.0780   42.5250 C   0  0  0  0  0  0  0  0  0  0  0  0
   36.8370   28.7380   41.2820 C   0  0  0  0  0  0  0  0  0  0  0  0
   37.1200   27.5020   40.7680 N   0  0  0  0  0  0  0  0  0  0  0  0
   37.8170   26.6160   41.4390 C   0  0  0  0  0  0  0  0  0  0  0  0
   38.2800   26.8990   42.6660 N   0  0  0  0  0  0  0  0  0  0  0  0
   38.4110   28.3230   44.2210 H   0  0  0  0  0  0  0  0  0  0  0  0
   37.0880   30.0320   42.9700 H   0  0  0  0  0  0  0  0  0  0  0  0
   36.3350   24.3780   42.0880 F   0  0  0  0  0  0  0  0  0  0  0  0
   37.3720   24.1820   41.2090 C   0  0  0  0  0  0  0  0  0  0  0  0
   38.1140   25.3000   40.8830 C   0  0  0  0  0  0  0  0  0  0  0  0
   39.1520   25.0900   39.9990 C   0  0  0  0  0  0  0  0  0  0  0  0
   39.7790   25.8970   39.6910 H   0  0  0  0  0  0  0  0  0  0  0  0
   39.3980   23.8170   39.4930 C   0  0  0  0  0  0  0  0  0  0  0  0
   40.1960   23.5880   38.7970 H   0  0  0  0  0  0  0  0  0  0  0  0
   38.6190   22.7160   39.8520 C   0  0  0  0  0  3  0  0  0  0  0  0
   37.5920   22.9240   40.7270 C   0  0  0  0  0  3  0  0  0  0  0  0
  1  2  1  0  0  0  0
  1  3  1  0  0  0  0
  4  7  1  6  0  0  0
  4  6  1  0  0  0  0
  4  1  1  0  0  0  0
  5  4  1  0  0  0  0
  5  9  1  0  0  0  0
  5  6  1  0  0  0  0
  6 10  1  1  0  0  0
  8  5  1  0  0  0  0
 11  6  1  0  0  0  0
 12 11  1  0  0  0  0
 12 17  1  0  0  0  0
 13 20  1  0  0  0  0
 13 12  1  0  0  0  0
 14 15  1  0  0  0  0
 14 13  1  0  0  0  0
 15 16  1  0  0  0  0
 16 25  1  0  0  0  0
 16 24  1  0  0  0  0
 16 11  1  0  0  0  0
 18 12  1  0  0  0  0
 19 13  1  0  0  0  0
 21 14  1  0  0  0  0
 22 15  1  0  0  0  0
 23 15  1  0  0  0  0
 26 27  1  0  0  0  0
 26  1  1  0  0  0  0
 26 31  1  0  0  0  0
 28 26  1  0  0  0  0
 29 35  1  0  0  0  0
 30 36  1  0  0  0  0
 30 29  2  0  0  0  0
 31 30  1  0  0  0  0
 32 31  2  0  0  0  0
 32 33  1  0  0  0  0
 33 34  2  0  0  0  0
 34 29  1  0  0  0  0
 38 37  1  0  0  0  0
 39 38  1  0  0  0  0
 39 33  1  0  0  0  0
 40 39  2  0  0  0  0
 41 40  1  0  0  0  0
 42 44  2  0  0  0  0
 42 40  1  0  0  0  0
 43 42  1  0  0  0  0
 44 45  1  0  0  0  0
 45 38  2  0  0  0  0
M  END
>  <minimizedAffinity>
-5.82483053

$$$$

 OpenBabel03252502493D

 45 48  0  0  1  0  0  0  0  0999 V2000
   39.4160   28.4680   43.0170 C   0  0  0  0  0  0  0  0  0  0  0  0
   40.1610   28.3760   43.8440 H   0  0  0  0  0  0  0  0  0  0  0  0
   39.8300   27.8730   42.1860 H   0  0  0  0  0  0  0  0  0  0  0  0
   39.2360   29.8770   42.5500 C   0  0  1  0  0  0  0  0  0  0  0  0
   40.4320   30.7790   42.5800 C   0  0  0  0  0  0  0  0  0  0  0  0
   39.8740   30.2650   41.2950 C   0  0  2  0  0  0  0  0  0  0  0  0
   38.3150   30.3340   42.8950 H   0  0  0  0  0  0  0  0  0  0  0  0
   40.3010   31.8470   42.8740 H   0  0  0  0  0  0  0  0  0  0  0  0
   41.3890   30.3750   42.9720 H   0  0  0  0  0  0  0  0  0  0  0  0
   40.5730   29.6580   40.7310 H   0  0  0  0  0  0  0  0  0  0  0  0
   39.1280   31.2730   40.5570 N   0  0  0  0  0  0  0  0  0  0  0  0
   39.1120   32.5490   41.1630 C   0  0  0  0  0  0  0  0  0  0  0  0
   38.2700   33.4320   40.2610 C   0  0  0  0  0  0  0  0  0  0  0  0
   36.9340   32.9720   40.1480 N   0  0  0  0  0  0  0  0  0  0  0  0
   36.7690   31.5460   40.3660 C   0  0  0  0  0  0  0  0  0  0  0  0
   38.0080   30.8140   39.8520 C   0  0  0  0  0  0  0  0  0  0  0  0
   40.1390   32.9710   41.1460 H   0  0  0  0  0  0  0  0  0  0  0  0
   38.7890   32.5940   42.2170 H   0  0  0  0  0  0  0  0  0  0  0  0
   38.2360   34.4300   40.7890 H   0  0  0  0  0  0  0  0  0  0  0  0
   38.7990   33.6260   39.3210 H   0  0  0  0  0  0  0  0  0  0  0  0
   36.6140   33.1570   39.1620 H   0  0  0  0  0  0  0  0  0  0  0  0
   36.7560   31.3780   41.4630 H   0  0  0  0  0  0  0  0  0  0  0  0
   35.8550   31.1790   39.8750 H   0  0  0  0  0  0  0  0  0  0  0  0
   38.0180   31.0180   38.7540 H   0  0  0  0  0  0  0  0  0  0  0  0
   37.8380   29.7330   39.9740 H   0  0  0  0  0  0  0  0  0  0  0  0
   38.0460   27.9560   43.3830 C   0  0  0  0  0  0  0  0  0  0  0  0
   38.2160   27.2000   44.2000 H   0  0  0  0  0  0  0  0  0  0  0  0
   37.3520   28.6700   43.7930 H   0  0  0  0  0  0  0  0  0  0  0  0
   37.0530   25.0230   41.2630 C   0  0  0  0  0  0  0  0  0  0  0  0
   37.5410   25.7820   42.3580 C   0  0  0  0  0  0  0  0  0  0  0  0
   37.5300   27.1410   42.2390 C   0  0  0  0  0  0  0  0  0  0  0  0
   37.0600   27.7220   41.0930 N   0  0  0  0  0  0  0  0  0  0  0  0
   36.6120   27.0090   40.0870 C   0  0  0  0  0  0  0  0  0  0  0  0
   36.6000   25.6690   40.1540 N   0  0  0  0  0  0  0  0  0  0  0  0
   37.0370   23.9520   41.3040 H   0  0  0  0  0  0  0  0  0  0  0  0
   37.8970   25.2810   43.2350 H   0  0  0  0  0  0  0  0  0  0  0  0
   34.5500   28.8470   40.1200 F   0  0  0  0  0  0  0  0  0  0  0  0
   35.0820   28.5570   38.8880 C   0  0  0  0  0  0  0  0  0  0  0  0
   36.1140   27.6380   38.8690 C   0  0  0  0  0  0  0  0  0  0  0  0
   36.6390   27.3560   37.6250 C   0  0  0  0  0  0  0  0  0  0  0  0
   37.4380   26.6580   37.5160 H   0  0  0  0  0  0  0  0  0  0  0  0
   36.1320   27.9810   36.4900 C   0  0  0  0  0  0  0  0  0  0  0  0
   36.5020   27.8030   35.4860 H   0  0  0  0  0  0  0  0  0  0  0  0
   35.0880   28.9050   36.5590 C   0  0  0  0  0  3  0  0  0  0  0  0
   34.5680   29.1830   37.7900 C   0  0  0  0  0  3  0  0  0  0  0  0
  1 26  1  0  0  0  0
  1  2  1  0  0  0  0
  3  1  1  0  0  0  0
  4  5  1  0  0  0  0
  4  7  1  1  0  0  0
  4  1  1  0  0  0  0
  5  8  1  0  0  0  0
  5  9  1  0  0  0  0
  6 10  1  6  0  0  0
  6  4  1  0  0  0  0
  6  5  1  0  0  0  0
 11 12  1  0  0  0  0
 11  6  1  0  0  0  0
 12 18  1  0  0  0  0
 13 19  1  0  0  0  0
 13 12  1  0  0  0  0
 14 13  1  0  0  0  0
 14 15  1  0  0  0  0
 15 22  1  0  0  0  0
 16 25  1  0  0  0  0
 16 15  1  0  0  0  0
 16 11  1  0  0  0  0
 17 12  1  0  0  0  0
 20 13  1  0  0  0  0
 21 14  1  0  0  0  0
 23 15  1  0  0  0  0
 24 16  1  0  0  0  0
 26 28  1  0  0  0  0
 26 27  1  0  0  0  0
 29 35  1  0  0  0  0
 29 30  1  0  0  0  0
 30 36  1  0  0  0  0
 31 30  2  0  0  0  0
 31 26  1  0  0  0  0
 32 31  1  0  0  0  0
 33 34  1  0  0  0  0
 33 32  2  0  0  0  0
 34 29  2  0  0  0  0
 38 37  1  0  0  0  0
 39 38  1  0  0  0  0
 39 33  1  0  0  0  0
 40 39  2  0  0  0  0
 41 40  1  0  0  0  0
 42 44  2  0  0  0  0
 42 40  1  0  0  0  0
 43 42  1  0  0  0  0
 44 45  1  0  0  0  0
 45 38  2  0  0  0  0
M  END
>  <minimizedAffinity>
-5.81558418

$$$$

 OpenBabel03252502493D

 45 48  0  0  1  0  0  0  0  0999 V2000
   36.2250   26.9740   38.2110 C   0  0  0  0  0  0  0  0  0  0  0  0
   35.5940   26.1540   37.7890 H   0  0  0  0  0  0  0  0  0  0  0  0
   37.1940   26.8870   37.6950 H   0  0  0  0  0  0  0  0  0  0  0  0
   36.4540   26.8340   39.6810 C   0  0  1  0  0  0  0  0  0  0  0  0
   37.0670   25.5580   40.1730 C   0  0  0  0  0  0  0  0  0  0  0  0
   37.8340   26.8390   40.1590 C   0  0  2  0  0  0  0  0  0  0  0  0
   35.6330   27.2040   40.2860 H   0  0  0  0  0  0  0  0  0  0  0  0
   36.7090   25.1160   41.1320 H   0  0  0  0  0  0  0  0  0  0  0  0
   37.2980   24.7630   39.4330 H   0  0  0  0  0  0  0  0  0  0  0  0
   38.7160   26.8080   39.5310 H   0  0  0  0  0  0  0  0  0  0  0  0
   37.9830   27.4240   41.4820 N   0  0  0  0  0  0  0  0  0  0  0  0
   36.9480   27.0990   42.3870 C   0  0  0  0  0  0  0  0  0  0  0  0
   37.2760   27.8220   43.6800 C   0  0  0  0  0  0  0  0  0  0  0  0
   37.3060   29.2300   43.5190 N   0  0  0  0  0  0  0  0  0  0  0  0
   37.6170   29.6750   42.1720 C   0  0  0  0  0  0  0  0  0  0  0  0
   38.5890   28.6860   41.5300 C   0  0  0  0  0  0  0  0  0  0  0  0
   36.9940   26.0130   42.6140 H   0  0  0  0  0  0  0  0  0  0  0  0
   35.9150   27.2890   42.0480 H   0  0  0  0  0  0  0  0  0  0  0  0
   36.4130   27.5830   44.3680 H   0  0  0  0  0  0  0  0  0  0  0  0
   38.1530   27.3680   44.1550 H   0  0  0  0  0  0  0  0  0  0  0  0
   38.0700   29.6060   44.1370 H   0  0  0  0  0  0  0  0  0  0  0  0
   36.6840   29.6060   41.5770 H   0  0  0  0  0  0  0  0  0  0  0  0
   38.0330   30.6940   42.1840 H   0  0  0  0  0  0  0  0  0  0  0  0
   39.5100   28.7500   42.1590 H   0  0  0  0  0  0  0  0  0  0  0  0
   38.8570   29.0720   40.5340 H   0  0  0  0  0  0  0  0  0  0  0  0
   35.6460   28.3490   37.9920 C   0  0  0  0  0  0  0  0  0  0  0  0
   35.3610   28.7220   39.0150 H   0  0  0  0  0  0  0  0  0  0  0  0
   36.3080   29.0970   37.5880 H   0  0  0  0  0  0  0  0  0  0  0  0
   32.7300   26.8290   36.1850 C   0  0  0  0  0  0  0  0  0  0  0  0
   33.9720   26.9540   36.8590 C   0  0  0  0  0  0  0  0  0  0  0  0
   34.3370   28.1990   37.2840 C   0  0  0  0  0  0  0  0  0  0  0  0
   33.5140   29.2670   37.0540 N   0  0  0  0  0  0  0  0  0  0  0  0
   32.3670   29.1370   36.4290 C   0  0  0  0  0  0  0  0  0  0  0  0
   31.9620   27.9350   35.9910 N   0  0  0  0  0  0  0  0  0  0  0  0
   32.3940   25.8740   35.8310 H   0  0  0  0  0  0  0  0  0  0  0  0
   34.5810   26.0880   37.0160 H   0  0  0  0  0  0  0  0  0  0  0  0
   30.7440   30.1900   38.4000 F   0  0  0  0  0  0  0  0  0  0  0  0
   30.6860   30.8070   37.1740 C   0  0  0  0  0  0  0  0  0  0  0  0
   31.4970   30.2830   36.1870 C   0  0  0  0  0  0  0  0  0  0  0  0
   31.4290   30.9130   34.9620 C   0  0  0  0  0  0  0  0  0  0  0  0
   32.0210   30.5740   34.1410 H   0  0  0  0  0  0  0  0  0  0  0  0
   30.5840   32.0030   34.7780 C   0  0  0  0  0  0  0  0  0  0  0  0
   30.4860   32.5400   33.8410 H   0  0  0  0  0  0  0  0  0  0  0  0
   29.7820   32.4980   35.8070 C   0  0  0  0  0  3  0  0  0  0  0  0
   29.8490   31.8750   37.0190 C   0  0  0  0  0  3  0  0  0  0  0  0
  1  4  1  0  0  0  0
  2  1  1  0  0  0  0
  3  1  1  0  0  0  0
  4  6  1  0  0  0  0
  4  5  1  0  0  0  0
  4  7  1  1  0  0  0
  5  8  1  0  0  0  0
  6 10  1  6  0  0  0
  6  5  1  0  0  0  0
  6 11  1  0  0  0  0
  9  5  1  0  0  0  0
 11 16  1  0  0  0  0
 11 12  1  0  0  0  0
 12 17  1  0  0  0  0
 12 13  1  0  0  0  0
 13 20  1  0  0  0  0
 13 19  1  0  0  0  0
 14 13  1  0  0  0  0
 14 21  1  0  0  0  0
 15 23  1  0  0  0  0
 15 14  1  0  0  0  0
 16 24  1  0  0  0  0
 16 15  1  0  0  0  0
 18 12  1  0  0  0  0
 22 15  1  0  0  0  0
 25 16  1  0  0  0  0
 26  1  1  0  0  0  0
 26 27  1  0  0  0  0
 28 26  1  0  0  0  0
 29 30  1  0  0  0  0
 30 36  1  0  0  0  0
 30 31  2  0  0  0  0
 31 26  1  0  0  0  0
 32 31  1  0  0  0  0
 33 32  2  0  0  0  0
 34 29  2  0  0  0  0
 34 33  1  0  0  0  0
 35 29  1  0  0  0  0
 38 37  1  0  0  0  0
 39 33  1  0  0  0  0
 39 38  2  0  0  0  0
 40 39  1  0  0  0  0
 41 40  1  0  0  0  0
 42 40  2  0  0  0  0
 42 44  1  0  0  0  0
 43 42  1  0  0  0  0
 44 45  2  0  0  0  0
 45 38  1  0  0  0  0
M  END
>  <minimizedAffinity>
-5.67563391

$$$$

 OpenBabel03252502493D

 45 48  0  0  1  0  0  0  0  0999 V2000
   37.4490   25.2380   38.9820 C   0  0  0  0  0  0  0  0  0  0  0  0
   38.1480   24.4220   38.6770 H   0  0  0  0  0  0  0  0  0  0  0  0
   37.8860   26.1620   38.5710 H   0  0  0  0  0  0  0  0  0  0  0  0
   37.3350   25.3830   40.4650 C   0  0  1  0  0  0  0  0  0  0  0  0
   38.1820   24.4900   41.3200 C   0  0  0  0  0  0  0  0  0  0  0  0
   38.4750   25.9470   41.1830 C   0  0  2  0  0  0  0  0  0  0  0  0
   36.3150   25.5080   40.8120 H   0  0  0  0  0  0  0  0  0  0  0  0
   37.7580   24.0780   42.2650 H   0  0  0  0  0  0  0  0  0  0  0  0
   38.8340   23.7430   40.8200 H   0  0  0  0  0  0  0  0  0  0  0  0
   39.4480   26.1560   40.7540 H   0  0  0  0  0  0  0  0  0  0  0  0
   38.0920   26.7150   42.3590 N   0  0  0  0  0  0  0  0  0  0  0  0
   36.7250   27.0710   42.4070 C   0  0  0  0  0  0  0  0  0  0  0  0
   36.5460   27.8780   43.6790 C   0  0  0  0  0  0  0  0  0  0  0  0
   37.3190   29.0660   43.6790 N   0  0  0  0  0  0  0  0  0  0  0  0
   38.5090   29.0090   42.8480 C   0  0  0  0  0  0  0  0  0  0  0  0
   39.0650   27.5860   42.8660 C   0  0  0  0  0  0  0  0  0  0  0  0
   36.1160   26.1510   42.5300 H   0  0  0  0  0  0  0  0  0  0  0  0
   36.3160   27.5840   41.5200 H   0  0  0  0  0  0  0  0  0  0  0  0
   35.4600   28.1870   43.6700 H   0  0  0  0  0  0  0  0  0  0  0  0
   36.6490   27.2290   44.5560 H   0  0  0  0  0  0  0  0  0  0  0  0
   37.6560   29.2280   44.6630 H   0  0  0  0  0  0  0  0  0  0  0  0
   38.1900   29.1920   41.8010 H   0  0  0  0  0  0  0  0  0  0  0  0
   39.2600   29.7360   43.1920 H   0  0  0  0  0  0  0  0  0  0  0  0
   39.3530   27.4110   43.9310 H   0  0  0  0  0  0  0  0  0  0  0  0
   39.9960   27.5780   42.2790 H   0  0  0  0  0  0  0  0  0  0  0  0
   36.0470   25.0550   38.4570 C   0  0  0  0  0  0  0  0  0  0  0  0
   36.1630   24.5530   37.4560 H   0  0  0  0  0  0  0  0  0  0  0  0
   35.3930   24.4150   39.0250 H   0  0  0  0  0  0  0  0  0  0  0  0
   33.8870   27.7550   36.9980 C   0  0  0  0  0  0  0  0  0  0  0  0
   34.3970   26.4690   37.3110 C   0  0  0  0  0  0  0  0  0  0  0  0
   35.4930   26.4050   38.1220 C   0  0  0  0  0  0  0  0  0  0  0  0
   36.0580   27.5560   38.5990 N   0  0  0  0  0  0  0  0  0  0  0  0
   35.5760   28.7390   38.3020 C   0  0  0  0  0  0  0  0  0  0  0  0
   34.5000   28.8580   37.5100 N   0  0  0  0  0  0  0  0  0  0  0  0
   33.0270   27.8640   36.3680 H   0  0  0  0  0  0  0  0  0  0  0  0
   33.9190   25.5970   36.9140 H   0  0  0  0  0  0  0  0  0  0  0  0
   35.2920   29.5280   40.9330 F   0  0  0  0  0  0  0  0  0  0  0  0
   36.0430   30.3540   40.1320 C   0  0  0  0  0  0  0  0  0  0  0  0
   36.1860   29.9610   38.8160 C   0  0  0  0  0  0  0  0  0  0  0  0
   36.9420   30.7980   38.0220 C   0  0  0  0  0  0  0  0  0  0  0  0
   37.1050   30.5730   36.9920 H   0  0  0  0  0  0  0  0  0  0  0  0
   37.5050   31.9530   38.5560 C   0  0  0  0  0  0  0  0  0  0  0  0
   38.1080   32.6510   37.9850 H   0  0  0  0  0  0  0  0  0  0  0  0
   37.3330   32.3100   39.8940 C   0  0  0  0  0  3  0  0  0  0  0  0
   36.5840   31.4810   40.6800 C   0  0  0  0  0  3  0  0  0  0  0  0
  1  4  1  0  0  0  0
  2  1  1  0  0  0  0
  3  1  1  0  0  0  0
  4  7  1  1  0  0  0
  4  6  1  0  0  0  0
  4  5  1  0  0  0  0
  5  8  1  0  0  0  0
  6 10  1  6  0  0  0
  6  5  1  0  0  0  0
  6 11  1  0  0  0  0
  9  5  1  0  0  0  0
 11 12  1  0  0  0  0
 11 16  1  0  0  0  0
 12 17  1  0  0  0  0
 12 13  1  0  0  0  0
 13 20  1  0  0  0  0
 14 13  1  0  0  0  0
 14 21  1  0  0  0  0
 15 16  1  0  0  0  0
 15 23  1  0  0  0  0
 15 14  1  0  0  0  0
 16 24  1  0  0  0  0
 18 12  1  0  0  0  0
 19 13  1  0  0  0  0
 22 15  1  0  0  0  0
 25 16  1  0  0  0  0
 26  1  1  0  0  0  0
 26 28  1  0  0  0  0
 27 26  1  0  0  0  0
 29 30  2  0  0  0  0
 29 34  1  0  0  0  0
 30 31  1  0  0  0  0
 31 26  1  0  0  0  0
 31 32  2  0  0  0  0
 33 32  1  0  0  0  0
 33 39  1  0  0  0  0
 34 33  2  0  0  0  0
 35 29  1  0  0  0  0
 36 30  1  0  0  0  0
 38 45  1  0  0  0  0
 38 37  1  0  0  0  0
 39 38  2  0  0  0  0
 40 42  2  0  0  0  0
 40 39  1  0  0  0  0
 41 40  1  0  0  0  0
 42 44  1  0  0  0  0
 43 42  1  0  0  0  0
 44 45  2  0  0  0  0
M  END
>  <minimizedAffinity>
-5.64471912

$$$$

 OpenBabel03252502493D

 45 48  0  0  1  0  0  0  0  0999 V2000
   39.0890   29.1610   42.9930 C   0  0  0  0  0  0  0  0  0  0  0  0
   39.6510   29.0270   43.9490 H   0  0  0  0  0  0  0  0  0  0  0  0
   39.5510   28.4540   42.2850 H   0  0  0  0  0  0  0  0  0  0  0  0
   39.2080   30.5420   42.4350 C   0  0  1  0  0  0  0  0  0  0  0  0
   40.5850   31.1030   42.2520 C   0  0  0  0  0  0  0  0  0  0  0  0
   39.7490   30.6870   41.0870 C   0  0  2  0  0  0  0  0  0  0  0  0
   38.4860   31.2390   42.8460 H   0  0  0  0  0  0  0  0  0  0  0  0
   40.7670   32.1810   42.4690 H   0  0  0  0  0  0  0  0  0  0  0  0
   41.4540   30.4850   42.5620 H   0  0  0  0  0  0  0  0  0  0  0  0
   40.1910   29.8930   40.4980 H   0  0  0  0  0  0  0  0  0  0  0  0
   39.1890   31.8160   40.3600 N   0  0  0  0  0  0  0  0  0  0  0  0
   39.0630   33.0000   41.1220 C   0  0  0  0  0  0  0  0  0  0  0  0
   38.4430   34.0310   40.1990 C   0  0  0  0  0  0  0  0  0  0  0  0
   37.1540   33.6470   39.7490 N   0  0  0  0  0  0  0  0  0  0  0  0
   36.9270   32.2130   39.7260 C   0  0  0  0  0  0  0  0  0  0  0  0
   38.2370   31.5050   39.3820 C   0  0  0  0  0  0  0  0  0  0  0  0
   40.0770   33.3750   41.3770 H   0  0  0  0  0  0  0  0  0  0  0  0
   38.5260   32.9160   42.0820 H   0  0  0  0  0  0  0  0  0  0  0  0
   38.3110   34.9490   40.8430 H   0  0  0  0  0  0  0  0  0  0  0  0
   39.1600   34.3260   39.4250 H   0  0  0  0  0  0  0  0  0  0  0  0
   37.0520   33.9770   38.7550 H   0  0  0  0  0  0  0  0  0  0  0  0
   36.6810   31.9000   40.7620 H   0  0  0  0  0  0  0  0  0  0  0  0
   36.1320   31.9550   39.0100 H   0  0  0  0  0  0  0  0  0  0  0  0
   38.4810   31.8530   38.3490 H   0  0  0  0  0  0  0  0  0  0  0  0
   38.0300   30.4250   39.3130 H   0  0  0  0  0  0  0  0  0  0  0  0
   37.6140   28.8700   43.1190 C   0  0  0  0  0  0  0  0  0  0  0  0
   37.5290   28.0850   43.9210 H   0  0  0  0  0  0  0  0  0  0  0  0
   36.9840   29.6810   43.4440 H   0  0  0  0  0  0  0  0  0  0  0  0
   35.8470   28.1130   39.8960 C   0  0  0  0  0  0  0  0  0  0  0  0
   36.2630   28.7940   41.0690 C   0  0  0  0  0  0  0  0  0  0  0  0
   37.1680   28.1670   41.8750 C   0  0  0  0  0  0  0  0  0  0  0  0
   37.6380   26.9270   41.5390 N   0  0  0  0  0  0  0  0  0  0  0  0
   37.2450   26.3080   40.4510 C   0  0  0  0  0  0  0  0  0  0  0  0
   36.3570   26.8810   39.6240 N   0  0  0  0  0  0  0  0  0  0  0  0
   35.1390   28.5600   39.2260 H   0  0  0  0  0  0  0  0  0  0  0  0
   35.8670   29.7640   41.2890 H   0  0  0  0  0  0  0  0  0  0  0  0
   36.1620   23.9960   41.5040 F   0  0  0  0  0  0  0  0  0  0  0  0
   37.2080   23.8300   40.6290 C   0  0  0  0  0  0  0  0  0  0  0  0
   37.7510   24.9850   40.1020 C   0  0  0  0  0  0  0  0  0  0  0  0
   38.8000   24.8050   39.2250 C   0  0  0  0  0  0  0  0  0  0  0  0
   39.2810   25.6420   38.7700 H   0  0  0  0  0  0  0  0  0  0  0  0
   39.2490   23.5240   38.9210 C   0  0  0  0  0  0  0  0  0  0  0  0
   40.0680   23.3160   38.2400 H   0  0  0  0  0  0  0  0  0  0  0  0
   38.6680   22.3840   39.4790 C   0  0  0  0  0  3  0  0  0  0  0  0
   37.6290   22.5630   40.3470 C   0  0  0  0  0  3  0  0  0  0  0  0
  1 26  1  0  0  0  0
  1  2  1  0  0  0  0
  3  1  1  0  0  0  0
  4  7  1  1  0  0  0
  4  1  1  0  0  0  0
  5  4  1  0  0  0  0
  5  8  1  0  0  0  0
  5  9  1  0  0  0  0
  6 10  1  6  0  0  0
  6  5  1  0  0  0  0
  6  4  1  0  0  0  0
 11  6  1  0  0  0  0
 11 12  1  0  0  0  0
 12 17  1  0  0  0  0
 12 18  1  0  0  0  0
 13 19  1  0  0  0  0
 13 12  1  0  0  0  0
 14 13  1  0  0  0  0
 15 14  1  0  0  0  0
 15 22  1  0  0  0  0
 16 15  1  0  0  0  0
 16 11  1  0  0  0  0
 20 13  1  0  0  0  0
 21 14  1  0  0  0  0
 23 15  1  0  0  0  0
 24 16  1  0  0  0  0
 25 16  1  0  0  0  0
 26 28  1  0  0  0  0
 26 27  1  0  0  0  0
 29 30  1  0  0  0  0
 30 36  1  0  0  0  0
 30 31  2  0  0  0  0
 31 26  1  0  0  0  0
 32 31  1  0  0  0  0
 33 32  2  0  0  0  0
 34 29  2  0  0  0  0
 34 33  1  0  0  0  0
 35 29  1  0  0  0  0
 38 37  1  0  0  0  0
 39 33  1  0  0  0  0
 39 38  2  0  0  0  0
 40 39  1  0  0  0  0
 41 40  1  0  0  0  0
 42 40  2  0  0  0  0
 42 44  1  0  0  0  0
 43 42  1  0  0  0  0
 44 45  2  0  0  0  0
 45 38  1  0  0  0  0
M  END
>  <minimizedAffinity>
-5.602705

$$$$

 OpenBabel03252502493D

 45 48  0  0  1  0  0  0  0  0999 V2000
   40.8120   29.0300   41.0320 C   0  0  0  0  0  0  0  0  0  0  0  0
   41.8420   28.6840   40.7760 H   0  0  0  0  0  0  0  0  0  0  0  0
   40.1450   28.4890   40.3410 H   0  0  0  0  0  0  0  0  0  0  0  0
   40.6220   30.4980   40.8250 C   0  0  1  0  0  0  0  0  0  0  0  0
   41.7070   31.2470   40.1140 C   0  0  0  0  0  0  0  0  0  0  0  0
   40.3930   30.9690   39.4620 C   0  0  2  0  0  0  0  0  0  0  0  0
   40.2100   31.0080   41.6890 H   0  0  0  0  0  0  0  0  0  0  0  0
   41.9700   32.2760   40.4530 H   0  0  0  0  0  0  0  0  0  0  0  0
   42.6140   30.6910   39.7970 H   0  0  0  0  0  0  0  0  0  0  0  0
   40.4730   30.3650   38.5660 H   0  0  0  0  0  0  0  0  0  0  0  0
   39.5340   32.1420   39.3940 N   0  0  0  0  0  0  0  0  0  0  0  0
   39.4570   32.8810   40.5960 C   0  0  0  0  0  0  0  0  0  0  0  0
   38.5040   34.0290   40.3220 C   0  0  0  0  0  0  0  0  0  0  0  0
   37.2010   33.5810   39.9860 N   0  0  0  0  0  0  0  0  0  0  0  0
   37.1550   32.2550   39.3970 C   0  0  0  0  0  0  0  0  0  0  0  0
   38.4140   32.0350   38.5600 C   0  0  0  0  0  0  0  0  0  0  0  0
   40.4480   33.3380   40.8040 H   0  0  0  0  0  0  0  0  0  0  0  0
   39.1910   32.3200   41.5070 H   0  0  0  0  0  0  0  0  0  0  0  0
   38.4240   34.5750   41.3080 H   0  0  0  0  0  0  0  0  0  0  0  0
   38.9640   34.7480   39.6350 H   0  0  0  0  0  0  0  0  0  0  0  0
   36.8140   34.2390   39.2610 H   0  0  0  0  0  0  0  0  0  0  0  0
   37.2150   31.5210   40.2270 H   0  0  0  0  0  0  0  0  0  0  0  0
   36.2450   32.1290   38.7910 H   0  0  0  0  0  0  0  0  0  0  0  0
   38.3490   32.7990   37.7480 H   0  0  0  0  0  0  0  0  0  0  0  0
   38.3320   31.0490   38.0770 H   0  0  0  0  0  0  0  0  0  0  0  0
   40.4180   28.7400   42.4590 C   0  0  0  0  0  0  0  0  0  0  0  0
   40.9520   27.7870   42.7310 H   0  0  0  0  0  0  0  0  0  0  0  0
   40.7180   29.4580   43.2030 H   0  0  0  0  0  0  0  0  0  0  0  0
   37.0230   27.7080   43.6790 C   0  0  0  0  0  0  0  0  0  0  0  0
   38.3950   28.0700   43.6790 C   0  0  0  0  0  0  0  0  0  0  0  0
   38.9700   28.3610   42.4770 C   0  0  0  0  0  0  0  0  0  0  0  0
   38.2260   28.2980   41.3300 N   0  0  0  0  0  0  0  0  0  0  0  0
   36.9580   27.9620   41.3440 C   0  0  0  0  0  0  0  0  0  0  0  0
   36.3440   27.6650   42.5000 N   0  0  0  0  0  0  0  0  0  0  0  0
   36.5200   27.4700   44.5960 H   0  0  0  0  0  0  0  0  0  0  0  0
   38.9350   28.1060   44.6030 H   0  0  0  0  0  0  0  0  0  0  0  0
   35.1420   29.9250   40.6560 F   0  0  0  0  0  0  0  0  0  0  0  0
   35.2660   28.8790   39.7740 C   0  0  0  0  0  0  0  0  0  0  0  0
   36.1730   27.8960   40.1160 C   0  0  0  0  0  0  0  0  0  0  0  0
   36.2880   26.8530   39.2220 C   0  0  0  0  0  0  0  0  0  0  0  0
   36.9650   26.0480   39.4060 H   0  0  0  0  0  0  0  0  0  0  0  0
   35.5190   26.8330   38.0630 C   0  0  0  0  0  0  0  0  0  0  0  0
   35.5630   26.0420   37.3220 H   0  0  0  0  0  0  0  0  0  0  0  0
   34.6140   27.8500   37.7590 C   0  0  0  0  0  3  0  0  0  0  0  0
   34.5000   28.8840   38.6440 C   0  0  0  0  0  3  0  0  0  0  0  0
  1 26  1  0  0  0  0
  2  1  1  0  0  0  0
  3  1  1  0  0  0  0
  4  1  1  0  0  0  0
  4  7  1  1  0  0  0
  5  8  1  0  0  0  0
  5  4  1  0  0  0  0
  6 10  1  6  0  0  0
  6  5  1  0  0  0  0
  6  4  1  0  0  0  0
  9  5  1  0  0  0  0
 11  6  1  0  0  0  0
 11 12  1  0  0  0  0
 12 17  1  0  0  0  0
 12 18  1  0  0  0  0
 13 12  1  0  0  0  0
 13 19  1  0  0  0  0
 14 13  1  0  0  0  0
 15 14  1  0  0  0  0
 15 22  1  0  0  0  0
 16 11  1  0  0  0  0
 16 15  1  0  0  0  0
 20 13  1  0  0  0  0
 21 14  1  0  0  0  0
 23 15  1  0  0  0  0
 24 16  1  0  0  0  0
 25 16  1  0  0  0  0
 26 31  1  0  0  0  0
 26 27  1  0  0  0  0
 26 28  1  0  0  0  0
 29 30  1  0  0  0  0
 29 35  1  0  0  0  0
 30 36  1  0  0  0  0
 31 30  2  0  0  0  0
 32 33  2  0  0  0  0
 32 31  1  0  0  0  0
 33 34  1  0  0  0  0
 34 29  2  0  0  0  0
 38 39  1  0  0  0  0
 38 37  1  0  0  0  0
 39 33  1  0  0  0  0
 40 41  1  0  0  0  0
 40 39  2  0  0  0  0
 42 40  1  0  0  0  0
 43 42  1  0  0  0  0
 44 42  2  0  0  0  0
 44 45  1  0  0  0  0
 45 38  2  0  0  0  0
M  END
>  <minimizedAffinity>
-5.59693241

$$$$

 OpenBabel03252502493D

 45 48  0  0  1  0  0  0  0  0999 V2000
   36.0270   26.6190   38.4050 C   0  0  0  0  0  0  0  0  0  0  0  0
   35.5730   25.6560   38.0660 H   0  0  0  0  0  0  0  0  0  0  0  0
   36.9180   26.7580   37.7710 H   0  0  0  0  0  0  0  0  0  0  0  0
   36.4600   26.5880   39.8350 C   0  0  1  0  0  0  0  0  0  0  0  0
   37.3720   25.4780   40.2620 C   0  0  0  0  0  0  0  0  0  0  0  0
   37.8600   26.8820   40.1290 C   0  0  2  0  0  0  0  0  0  0  0  0
   35.6630   26.8140   40.5350 H   0  0  0  0  0  0  0  0  0  0  0  0
   37.2310   25.0140   41.2670 H   0  0  0  0  0  0  0  0  0  0  0  0
   37.6630   24.7140   39.5110 H   0  0  0  0  0  0  0  0  0  0  0  0
   38.6460   27.0000   39.3920 H   0  0  0  0  0  0  0  0  0  0  0  0
   38.0530   27.5400   41.4120 N   0  0  0  0  0  0  0  0  0  0  0  0
   37.2340   27.0450   42.4530 C   0  0  0  0  0  0  0  0  0  0  0  0
   37.5680   27.8730   43.6790 C   0  0  0  0  0  0  0  0  0  0  0  0
   37.2810   29.2490   43.4980 N   0  0  0  0  0  0  0  0  0  0  0  0
   37.3160   29.6930   42.1160 C   0  0  0  0  0  0  0  0  0  0  0  0
   38.3820   28.9000   41.3620 C   0  0  0  0  0  0  0  0  0  0  0  0
   37.5350   26.0020   42.6850 H   0  0  0  0  0  0  0  0  0  0  0  0
   36.1500   27.0050   42.2530 H   0  0  0  0  0  0  0  0  0  0  0  0
   36.8700   27.4900   44.4810 H   0  0  0  0  0  0  0  0  0  0  0  0
   38.5740   27.6280   44.0380 H   0  0  0  0  0  0  0  0  0  0  0  0
   38.0230   29.7990   44.0020 H   0  0  0  0  0  0  0  0  0  0  0  0
   36.3480   29.4090   41.6520 H   0  0  0  0  0  0  0  0  0  0  0  0
   37.5060   30.7760   42.0580 H   0  0  0  0  0  0  0  0  0  0  0  0
   39.3420   29.1780   41.8600 H   0  0  0  0  0  0  0  0  0  0  0  0
   38.4320   29.2910   40.3330 H   0  0  0  0  0  0  0  0  0  0  0  0
   35.1030   27.8020   38.2590 C   0  0  0  0  0  0  0  0  0  0  0  0
   34.3690   27.5130   37.4550 H   0  0  0  0  0  0  0  0  0  0  0  0
   34.5030   28.0610   39.1150 H   0  0  0  0  0  0  0  0  0  0  0  0
   36.7060   30.0670   35.7320 C   0  0  0  0  0  0  0  0  0  0  0  0
   35.9630   28.9950   36.2920 C   0  0  0  0  0  0  0  0  0  0  0  0
   35.8780   28.9290   37.6520 C   0  0  0  0  0  0  0  0  0  0  0  0
   36.4970   29.8760   38.4220 N   0  0  0  0  0  0  0  0  0  0  0  0
   37.1800   30.8620   37.8920 C   0  0  0  0  0  0  0  0  0  0  0  0
   37.2950   30.9730   36.5590 N   0  0  0  0  0  0  0  0  0  0  0  0
   36.8040   30.1680   34.6700 H   0  0  0  0  0  0  0  0  0  0  0  0
   35.4960   28.2790   35.6480 H   0  0  0  0  0  0  0  0  0  0  0  0
   39.8190   30.6250   38.6720 F   0  0  0  0  0  0  0  0  0  0  0  0
   39.1570   31.7460   39.1100 C   0  0  0  0  0  0  0  0  0  0  0  0
   37.8380   31.8670   38.7210 C   0  0  0  0  0  0  0  0  0  0  0  0
   37.1850   32.9970   39.1670 C   0  0  0  0  0  0  0  0  0  0  0  0
   36.1630   33.1720   38.9150 H   0  0  0  0  0  0  0  0  0  0  0  0
   37.8530   33.9290   39.9550 C   0  0  0  0  0  0  0  0  0  0  0  0
   37.3960   34.8360   40.3360 H   0  0  0  0  0  0  0  0  0  0  0  0
   39.1890   33.7640   40.3240 C   0  0  0  0  0  3  0  0  0  0  0  0
   39.8350   32.6450   39.8820 C   0  0  0  0  0  3  0  0  0  0  0  0
  1  4  1  0  0  0  0
  2  1  1  0  0  0  0
  3  1  1  0  0  0  0
  4  6  1  0  0  0  0
  4  5  1  0  0  0  0
  4  7  1  1  0  0  0
  5  8  1  0  0  0  0
  6 10  1  6  0  0  0
  6  5  1  0  0  0  0
  6 11  1  0  0  0  0
  9  5  1  0  0  0  0
 11 12  1  0  0  0  0
 12 17  1  0  0  0  0
 12 13  1  0  0  0  0
 13 20  1  0  0  0  0
 13 19  1  0  0  0  0
 14 13  1  0  0  0  0
 14 21  1  0  0  0  0
 15 14  1  0  0  0  0
 16 11  1  0  0  0  0
 16 24  1  0  0  0  0
 16 15  1  0  0  0  0
 18 12  1  0  0  0  0
 22 15  1  0  0  0  0
 23 15  1  0  0  0  0
 25 16  1  0  0  0  0
 26  1  1  0  0  0  0
 26 28  1  0  0  0  0
 27 26  1  0  0  0  0
 29 30  2  0  0  0  0
 29 34  1  0  0  0  0
 30 31  1  0  0  0  0
 31 26  1  0  0  0  0
 31 32  2  0  0  0  0
 33 32  1  0  0  0  0
 33 39  1  0  0  0  0
 34 33  2  0  0  0  0
 35 29  1  0  0  0  0
 36 30  1  0  0  0  0
 37 38  1  0  0  0  0
 38 45  1  0  0  0  0
 39 38  2  0  0  0  0
 39 40  1  0  0  0  0
 40 42  2  0  0  0  0
 41 40  1  0  0  0  0
 42 44  1  0  0  0  0
 42 43  1  0  0  0  0
 45 44  2  0  0  0  0
M  END
>  <minimizedAffinity>
-5.55744171

$$$$

 OpenBabel03252502493D

 45 48  0  0  1  0  0  0  0  0999 V2000
   36.1660   29.8990   38.8390 C   0  0  0  0  0  0  0  0  0  0  0  0
   36.2740   28.8610   38.4420 H   0  0  0  0  0  0  0  0  0  0  0  0
   35.4050   30.3760   38.1990 H   0  0  0  0  0  0  0  0  0  0  0  0
   37.4300   30.6920   38.7480 C   0  0  1  0  0  0  0  0  0  0  0  0
   37.6640   31.4870   37.5000 C   0  0  0  0  0  0  0  0  0  0  0  0
   37.3260   32.1470   38.7950 C   0  0  2  0  0  0  0  0  0  0  0  0
   38.3010   30.1630   39.1180 H   0  0  0  0  0  0  0  0  0  0  0  0
   38.6950   31.5490   37.0790 H   0  0  0  0  0  0  0  0  0  0  0  0
   36.9090   31.4340   36.6880 H   0  0  0  0  0  0  0  0  0  0  0  0
   36.4020   32.7130   38.7650 H   0  0  0  0  0  0  0  0  0  0  0  0
   38.4720   32.7860   39.4230 N   0  0  0  0  0  0  0  0  0  0  0  0
   39.7080   32.5280   38.7870 C   0  0  0  0  0  0  0  0  0  0  0  0
   40.7600   33.2540   39.6030 C   0  0  0  0  0  0  0  0  0  0  0  0
   40.8340   32.7780   40.9370 N   0  0  0  0  0  0  0  0  0  0  0  0
   39.6020   32.1910   41.4340 C   0  0  0  0  0  0  0  0  0  0  0  0
   38.4130   32.9240   40.8150 C   0  0  0  0  0  0  0  0  0  0  0  0
   39.7050   33.0040   37.7840 H   0  0  0  0  0  0  0  0  0  0  0  0
   39.9640   31.4690   38.6140 H   0  0  0  0  0  0  0  0  0  0  0  0
   41.7390   32.9940   39.1030 H   0  0  0  0  0  0  0  0  0  0  0  0
   40.6560   34.3370   39.4780 H   0  0  0  0  0  0  0  0  0  0  0  0
   41.0390   33.6010   41.5590 H   0  0  0  0  0  0  0  0  0  0  0  0
   39.5490   31.1530   41.0440 H   0  0  0  0  0  0  0  0  0  0  0  0
   39.5680   32.2280   42.5330 H   0  0  0  0  0  0  0  0  0  0  0  0
   38.5000   33.9700   41.1960 H   0  0  0  0  0  0  0  0  0  0  0  0
   37.4920   32.5030   41.2490 H   0  0  0  0  0  0  0  0  0  0  0  0
   35.7280   29.9480   40.2810 C   0  0  0  0  0  0  0  0  0  0  0  0
   35.9910   30.9820   40.6410 H   0  0  0  0  0  0  0  0  0  0  0  0
   34.6740   29.8380   40.4740 H   0  0  0  0  0  0  0  0  0  0  0  0
   38.0090   28.6690   42.9720 C   0  0  0  0  0  0  0  0  0  0  0  0
   37.1570   29.5310   42.2340 C   0  0  0  0  0  0  0  0  0  0  0  0
   36.6240   29.0500   41.0740 C   0  0  0  0  0  0  0  0  0  0  0  0
   36.9200   27.7790   40.6610 N   0  0  0  0  0  0  0  0  0  0  0  0
   37.7100   26.9920   41.3530 C   0  0  0  0  0  0  0  0  0  0  0  0
   38.2590   27.4160   42.5020 N   0  0  0  0  0  0  0  0  0  0  0  0
   38.4530   28.9940   43.8910 H   0  0  0  0  0  0  0  0  0  0  0  0
   36.9550   30.5170   42.5990 H   0  0  0  0  0  0  0  0  0  0  0  0
   36.4570   24.7710   42.4140 F   0  0  0  0  0  0  0  0  0  0  0  0
   37.3920   24.5290   41.4370 C   0  0  0  0  0  0  0  0  0  0  0  0
   38.0200   25.6380   40.9050 C   0  0  0  0  0  0  0  0  0  0  0  0
   38.9550   25.3820   39.9250 C   0  0  0  0  0  0  0  0  0  0  0  0
   39.4900   26.1790   39.4590 H   0  0  0  0  0  0  0  0  0  0  0  0
   39.2180   24.0740   39.5290 C   0  0  0  0  0  0  0  0  0  0  0  0
   39.9400   23.8080   38.7660 H   0  0  0  0  0  0  0  0  0  0  0  0
   38.5570   22.9840   40.0960 C   0  0  0  0  0  3  0  0  0  0  0  0
   37.6310   23.2380   41.0660 C   0  0  0  0  0  3  0  0  0  0  0  0
  1 26  1  0  0  0  0
  2  1  1  0  0  0  0
  3  1  1  0  0  0  0
  4  6  1  0  0  0  0
  4  1  1  0  0  0  0
  4  7  1  1  0  0  0
  5  4  1  0  0  0  0
  5  6  1  0  0  0  0
  6 10  1  1  0  0  0
  6 11  1  0  0  0  0
  8  5  1  0  0  0  0
  9  5  1  0  0  0  0
 11 16  1  0  0  0  0
 12 11  1  0  0  0  0
 12 13  1  0  0  0  0
 13 14  1  0  0  0  0
 14 15  1  0  0  0  0
 14 21  1  0  0  0  0
 15 23  1  0  0  0  0
 16 24  1  0  0  0  0
 16 25  1  0  0  0  0
 16 15  1  0  0  0  0
 17 12  1  0  0  0  0
 18 12  1  0  0  0  0
 19 13  1  0  0  0  0
 20 13  1  0  0  0  0
 22 15  1  0  0  0  0
 26 28  1  0  0  0  0
 26 27  1  0  0  0  0
 26 31  1  0  0  0  0
 29 35  1  0  0  0  0
 30 36  1  0  0  0  0
 30 29  2  0  0  0  0
 31 30  1  0  0  0  0
 32 31  2  0  0  0  0
 32 33  1  0  0  0  0
 33 34  2  0  0  0  0
 34 29  1  0  0  0  0
 38 37  1  0  0  0  0
 39 33  1  0  0  0  0
 39 38  2  0  0  0  0
 40 39  1  0  0  0  0
 41 40  1  0  0  0  0
 42 40  2  0  0  0  0
 42 44  1  0  0  0  0
 43 42  1  0  0  0  0
 44 45  2  0  0  0  0
 45 38  1  0  0  0  0
M  END
>  <minimizedAffinity>
-5.53087091

$$$$

 OpenBabel03252502493D

 45 48  0  0  1  0  0  0  0  0999 V2000
   35.0340   29.0960   39.5410 C   0  0  0  0  0  0  0  0  0  0  0  0
   34.3650   29.9360   39.2310 H   0  0  0  0  0  0  0  0  0  0  0  0
   34.5090   28.6000   40.3730 H   0  0  0  0  0  0  0  0  0  0  0  0
   36.3670   29.5630   40.0300 C   0  0  1  0  0  0  0  0  0  0  0  0
   36.4650   30.9610   40.5580 C   0  0  0  0  0  0  0  0  0  0  0  0
   36.5290   29.7780   41.4650 C   0  0  2  0  0  0  0  0  0  0  0  0
   37.1930   29.2600   39.3950 H   0  0  0  0  0  0  0  0  0  0  0  0
   37.3770   31.5640   40.3380 H   0  0  0  0  0  0  0  0  0  0  0  0
   35.5560   31.5990   40.5380 H   0  0  0  0  0  0  0  0  0  0  0  0
   35.7320   29.7500   42.1980 H   0  0  0  0  0  0  0  0  0  0  0  0
   37.8760   29.5000   41.9400 N   0  0  0  0  0  0  0  0  0  0  0  0
   38.7520   28.9930   40.9550 C   0  0  0  0  0  0  0  0  0  0  0  0
   40.0760   28.7500   41.6550 C   0  0  0  0  0  0  0  0  0  0  0  0
   39.9690   27.7930   42.6960 N   0  0  0  0  0  0  0  0  0  0  0  0
   38.6440   27.6880   43.2820 C   0  0  0  0  0  0  0  0  0  0  0  0
   37.9800   29.0640   43.2670 C   0  0  0  0  0  0  0  0  0  0  0  0
   38.9390   29.7830   40.1960 H   0  0  0  0  0  0  0  0  0  0  0  0
   38.4060   28.1120   40.3890 H   0  0  0  0  0  0  0  0  0  0  0  0
   40.7420   28.3040   40.8590 H   0  0  0  0  0  0  0  0  0  0  0  0
   40.5460   29.7040   41.9180 H   0  0  0  0  0  0  0  0  0  0  0  0
   40.6110   28.0930   43.4730 H   0  0  0  0  0  0  0  0  0  0  0  0
   38.0330   27.0540   42.6070 H   0  0  0  0  0  0  0  0  0  0  0  0
   38.7010   27.2810   44.3030 H   0  0  0  0  0  0  0  0  0  0  0  0
   38.6240   29.6930   43.9280 H   0  0  0  0  0  0  0  0  0  0  0  0
   37.0030   28.9740   43.7670 H   0  0  0  0  0  0  0  0  0  0  0  0
   35.3010   28.1030   38.4370 C   0  0  0  0  0  0  0  0  0  0  0  0
   36.0910   28.5780   37.7900 H   0  0  0  0  0  0  0  0  0  0  0  0
   35.7050   27.1480   38.7280 H   0  0  0  0  0  0  0  0  0  0  0  0
   32.6380   26.8270   36.1220 C   0  0  0  0  0  0  0  0  0  0  0  0
   33.7820   26.8610   36.9600 C   0  0  0  0  0  0  0  0  0  0  0  0
   34.0940   28.0490   37.5540 C   0  0  0  0  0  0  0  0  0  0  0  0
   33.3140   29.1510   37.3300 N   0  0  0  0  0  0  0  0  0  0  0  0
   32.2580   29.1060   36.5530 C   0  0  0  0  0  0  0  0  0  0  0  0
   31.9070   27.9620   35.9450 N   0  0  0  0  0  0  0  0  0  0  0  0
   32.3460   25.9200   35.6320 H   0  0  0  0  0  0  0  0  0  0  0  0
   34.3610   25.9720   37.1050 H   0  0  0  0  0  0  0  0  0  0  0  0
   32.4170   30.5710   34.2180 F   0  0  0  0  0  0  0  0  0  0  0  0
   31.5130   31.0170   35.1510 C   0  0  0  0  0  0  0  0  0  0  0  0
   31.4320   30.2860   36.3200 C   0  0  0  0  0  0  0  0  0  0  0  0
   30.5210   30.7440   37.2480 C   0  0  0  0  0  0  0  0  0  0  0  0
   30.3920   30.2400   38.1800 H   0  0  0  0  0  0  0  0  0  0  0  0
   29.7540   31.8730   36.9820 C   0  0  0  0  0  0  0  0  0  0  0  0
   29.0220   32.2820   37.6700 H   0  0  0  0  0  0  0  0  0  0  0  0
   29.8700   32.5810   35.7850 C   0  0  0  0  0  3  0  0  0  0  0  0
   30.7730   32.1270   34.8660 C   0  0  0  0  0  3  0  0  0  0  0  0
  1  4  1  0  0  0  0
  1  3  1  0  0  0  0
  2  1  1  0  0  0  0
  4  7  1  6  0  0  0
  4  5  1  0  0  0  0
  4  6  1  0  0  0  0
  5  6  1  0  0  0  0
  6 11  1  0  0  0  0
  6 10  1  1  0  0  0
  8  5  1  0  0  0  0
  9  5  1  0  0  0  0
 11 16  1  0  0  0  0
 12 13  1  0  0  0  0
 12 11  1  0  0  0  0
 13 20  1  0  0  0  0
 13 14  1  0  0  0  0
 14 15  1  0  0  0  0
 14 21  1  0  0  0  0
 15 23  1  0  0  0  0
 16 15  1  0  0  0  0
 16 25  1  0  0  0  0
 16 24  1  0  0  0  0
 17 12  1  0  0  0  0
 18 12  1  0  0  0  0
 19 13  1  0  0  0  0
 22 15  1  0  0  0  0
 26 28  1  0  0  0  0
 26  1  1  0  0  0  0
 27 26  1  0  0  0  0
 29 30  1  0  0  0  0
 30 36  1  0  0  0  0
 30 31  2  0  0  0  0
 31 26  1  0  0  0  0
 32 31  1  0  0  0  0
 33 32  2  0  0  0  0
 34 29  2  0  0  0  0
 34 33  1  0  0  0  0
 35 29  1  0  0  0  0
 37 38  1  0  0  0  0
 38 39  1  0  0  0  0
 39 33  1  0  0  0  0
 39 40  2  0  0  0  0
 40 41  1  0  0  0  0
 42 40  1  0  0  0  0
 42 43  1  0  0  0  0
 44 42  2  0  0  0  0
 45 38  2  0  0  0  0
 45 44  1  0  0  0  0
M  END
>  <minimizedAffinity>
-5.51818848

$$$$
