
 OpenBabel03252508293D

 39 42  0  0  1  0  0  0  0  0999 V2000
   39.9340   33.1160   42.3990 N   0  0  0  0  0  0  0  0  0  0  0  0
   40.0230   34.2920   41.5300 C   0  0  2  0  0  0  0  0  0  0  0  0
   39.0440   34.2550   40.4160 C   0  0  0  0  0  0  0  0  0  0  0  0
   38.0730   33.1800   40.5380 N   0  0  0  0  0  0  0  0  0  0  0  0
   38.6020   31.9100   40.8560 C   0  0  0  0  0  0  0  0  0  0  0  0
   39.9830   31.9720   41.4580 C   0  0  2  0  0  0  0  0  0  0  0  0
   40.8210   33.1000   42.9490 H   0  0  0  0  0  0  0  0  0  0  0  0
   39.9000   35.2020   42.1660 H   0  0  0  0  0  0  0  0  0  0  0  0
   39.4320   34.0560   39.4040 H   0  0  0  0  0  0  0  0  0  0  0  0
   38.4380   35.2000   40.4500 H   0  0  0  0  0  0  0  0  0  0  0  0
   37.2140   33.4600   41.0520 H   0  0  0  0  0  0  0  0  0  0  0  0
   37.9100   31.4110   41.5880 H   0  0  0  0  0  0  0  0  0  0  0  0
   38.6490   31.2350   39.9950 H   0  0  0  0  0  0  0  0  0  0  0  0
   40.6930   32.2420   40.6550 H   0  0  0  0  0  0  0  0  0  0  0  0
   40.9350   29.8090   40.0540 F   0  0  0  0  0  0  0  0  0  0  0  0
   40.8640   29.6510   41.4090 C   0  0  0  0  0  0  0  0  0  0  0  0
   40.3840   30.7390   42.1340 C   0  0  0  0  0  0  0  0  0  0  0  0
   40.3340   30.5240   43.4950 C   0  0  0  0  0  0  0  0  0  0  0  0
   39.9660   31.3410   44.1170 H   0  0  0  0  0  0  0  0  0  0  0  0
   40.7180   29.3570   44.0940 C   0  0  0  0  0  0  0  0  0  0  0  0
   40.6550   29.2480   45.1760 H   0  0  0  0  0  0  0  0  0  0  0  0
   41.1880   28.3160   43.2890 C   0  0  0  0  0  0  0  0  0  0  0  0
   41.2700   28.4500   41.9030 C   0  0  0  0  0  0  0  0  0  0  0  0
   43.5470   34.3790   40.7720 C   0  0  0  0  0  0  0  0  0  0  0  0
   42.9250   34.4760   39.5190 C   0  0  0  0  0  0  0  0  0  0  0  0
   41.5510   34.4610   39.6750 C   0  0  0  0  0  0  0  0  0  0  0  0
   41.3680   34.3550   40.9890 N   0  0  0  0  0  0  0  0  0  0  0  0
   42.5290   34.3070   41.6290 N   0  0  0  0  0  0  0  0  0  0  0  0
   43.5640   34.5470   38.6330 H   0  0  0  0  0  0  0  0  0  0  0  0
   41.0680   34.5430   38.7070 H   0  0  0  0  0  0  0  0  0  0  0  0
   47.2630   33.8910   40.4620 C   0  0  0  0  0  0  0  0  0  0  0  0
   45.8780   33.7930   40.1190 C   0  0  0  0  0  0  0  0  0  0  0  0
   44.9940   34.3810   40.9890 C   0  0  0  0  0  0  0  0  0  0  0  0
   45.4490   35.0160   42.1100 N   0  0  0  0  0  0  0  0  0  0  0  0
   46.7720   35.0840   42.3950 C   0  0  0  0  0  0  0  0  0  0  0  0
   47.6440   34.5230   41.5690 N   0  0  0  0  0  0  0  0  0  0  0  0
   47.9290   33.4170   39.7550 H   0  0  0  0  0  0  0  0  0  0  0  0
   45.5030   33.2940   39.2350 H   0  0  0  0  0  0  0  0  0  0  0  0
   47.0300   35.6110   43.3080 H   0  0  0  0  0  0  0  0  0  0  0  0
  1  7  1  0  0  0  0
  2  8  1  1  0  0  0
  2  1  1  0  0  0  0
  3 10  1  0  0  0  0
  3  4  1  0  0  0  0
  3  2  1  0  0  0  0
  4  5  1  0  0  0  0
  4 11  1  0  0  0  0
  5  6  1  0  0  0  0
  5 12  1  0  0  0  0
  6 14  1  6  0  0  0
  6 17  1  0  0  0  0
  6  1  1  0  0  0  0
  9  3  1  0  0  0  0
 13  5  1  0  0  0  0
 15 16  1  0  0  0  0
 16 23  2  0  0  0  0
 16 17  1  0  0  0  0
 17 18  2  0  0  0  0
 18 20  1  0  0  0  0
 18 19  1  0  0  0  0
 20 21  1  0  0  0  0
 22 20  2  0  0  0  0
 23 22  1  0  0  0  0
 24 33  1  0  0  0  0
 24 28  2  0  0  0  0
 25 26  2  0  0  0  0
 25 24  1  0  0  0  0
 26 27  1  0  0  0  0
 27  2  1  0  0  0  0
 27 28  1  0  0  0  0
 29 25  1  0  0  0  0
 30 26  1  0  0  0  0
 31 36  1  0  0  0  0
 32 31  2  0  0  0  0
 32 33  1  0  0  0  0
 33 34  2  0  0  0  0
 34 35  1  0  0  0  0
 35 39  1  0  0  0  0
 36 35  2  0  0  0  0
 37 31  1  0  0  0  0
 38 32  1  0  0  0  0
M  END
>  <minimizedAffinity>
-5.99899006

>  <minimizedRMSD>
5.49214029

$$$$
