
 OpenBabel03242521403D

 21 22  0  0  0  0  0  0  0  0999 V2000
   44.4100   35.1530   43.0440 C   0  0  0  0  0  0  0  0  0  0  0  0
   43.4990   35.4650   42.0400 C   0  0  0  0  0  0  0  0  0  0  0  0
   43.0080   34.4340   41.2350 C   0  0  0  0  0  0  0  0  0  0  0  0
   43.4530   33.1860   41.4850 N   0  0  0  0  0  0  0  0  0  0  0  0
   44.3380   32.9150   42.4670 C   0  0  0  0  0  0  0  0  0  0  0  0
   44.8150   33.9050   43.2480 N   0  0  0  0  0  0  0  0  0  0  0  0
   43.2000   36.4730   41.9100 H   0  0  0  0  0  0  0  0  0  0  0  0
   44.6510   31.8940   42.6110 H   0  0  0  0  0  0  0  0  0  0  0  0
   40.3420   34.0520   41.6680 F   0  0  0  0  0  0  0  0  0  0  0  0
   40.7110   34.4960   40.4240 C   0  0  0  0  0  0  0  0  0  0  0  0
   42.0510   34.7000   40.1670 C   0  0  0  0  0  0  0  0  0  0  0  0
   42.3720   35.1470   38.9030 C   0  0  0  0  0  0  0  0  0  0  0  0
   43.3990   35.3150   38.6720 H   0  0  0  0  0  0  0  0  0  0  0  0
   41.3990   35.3730   37.9540 C   0  0  0  0  0  0  0  0  0  0  0  0
   41.6970   35.7290   36.9550 H   0  0  0  0  0  0  0  0  0  0  0  0
   40.0700   35.1550   38.2550 C   0  0  0  0  0  0  0  0  0  0  0  0
   39.6950   34.7050   39.5150 C   0  0  0  0  0  0  0  0  0  0  0  0
   44.9170   36.2770   43.8880 C   0  0  0  0  0  0  0  0  0  0  0  0
   45.2120   35.9530   44.9020 H   0  0  0  0  0  0  0  0  0  0  0  0
   44.1600   37.0920   43.9160 H   0  0  0  0  0  0  0  0  0  0  0  0
   45.7930   36.7460   43.3550 H   0  0  0  0  0  0  0  0  0  0  0  0
  1  6  1  0  0  0  0
  1 18  1  0  0  0  0
  2  1  2  0  0  0  0
  3  4  2  0  0  0  0
  3  2  1  0  0  0  0
  4  5  1  0  0  0  0
  5  8  1  0  0  0  0
  5  6  2  0  0  0  0
  7  2  1  0  0  0  0
 10  9  1  0  0  0  0
 11 10  1  0  0  0  0
 11  3  1  0  0  0  0
 12 11  2  0  0  0  0
 13 12  1  0  0  0  0
 14 16  2  0  0  0  0
 14 12  1  0  0  0  0
 15 14  1  0  0  0  0
 16 17  1  0  0  0  0
 17 10  2  0  0  0  0
 18 20  1  0  0  0  0
 18 19  1  0  0  0  0
 21 18  1  0  0  0  0
M  END
>  <minimizedAffinity>
-4.51629639

>  <minimizedRMSD>
7.1824398

$$$$
