
 OpenBabel03252500383D

 46 49  0  0  1  0  0  0  0  0999 V2000
   35.7630   30.1640   40.4730 C   0  0  1  0  0  0  0  0  0  0  0  0
   35.0640   29.0960   39.9040 C   0  0  0  0  0  0  0  0  0  0  0  0
   35.8340   28.7470   41.1130 C   0  0  1  0  0  0  0  0  0  0  0  0
   35.2220   30.9340   41.0860 H   0  0  0  0  0  0  0  0  0  0  0  0
   35.4580   28.6280   38.9550 H   0  0  0  0  0  0  0  0  0  0  0  0
   33.9660   29.0410   39.9310 H   0  0  0  0  0  0  0  0  0  0  0  0
   35.4210   28.7760   42.1290 H   0  0  0  0  0  0  0  0  0  0  0  0
   37.2630   30.8120   38.5850 C   0  0  0  0  0  0  0  0  0  0  0  0
   37.0600   30.7380   40.0020 C   0  0  0  0  0  0  0  0  0  0  0  0
   38.0280   31.1780   40.8460 C   0  0  0  0  0  0  0  0  0  0  0  0
   39.1760   31.6820   40.2800 N   0  0  0  0  0  0  0  0  0  0  0  0
   39.3550   31.7470   38.9450 C   0  0  0  0  0  0  0  0  0  0  0  0
   38.4010   31.3120   38.0530 N   0  0  0  0  0  0  0  0  0  0  0  0
   36.5260   30.4760   37.8720 H   0  0  0  0  0  0  0  0  0  0  0  0
   37.8900   31.1290   41.9170 H   0  0  0  0  0  0  0  0  0  0  0  0
   40.1120   34.3460   39.4150 F   0  0  0  0  0  0  0  0  0  0  0  0
   40.9650   33.5900   38.6540 C   0  0  0  0  0  0  0  0  0  0  0  0
   40.5840   32.2870   38.4200 C   0  0  0  0  0  0  0  0  0  0  0  0
   41.4150   31.4950   37.6590 C   0  0  0  0  0  0  0  0  0  0  0  0
   41.2080   30.4660   37.4190 H   0  0  0  0  0  0  0  0  0  0  0  0
   42.6070   32.0070   37.1450 C   0  0  0  0  0  0  0  0  0  0  0  0
   43.3200   31.4570   36.5380 H   0  0  0  0  0  0  0  0  0  0  0  0
   42.9630   33.3280   37.4010 C   0  0  0  0  0  3  0  0  0  0  0  0
   42.1340   34.1080   38.1570 C   0  0  0  0  0  3  0  0  0  0  0  0
   37.0890   27.9610   40.9980 C   0  0  0  0  0  0  0  0  0  0  0  0
   37.9020   28.6620   40.6570 H   0  0  0  0  0  0  0  0  0  0  0  0
   36.9790   27.1670   40.2630 H   0  0  0  0  0  0  0  0  0  0  0  0
   37.3710   27.4360   42.2870 N   0  0  0  0  0  0  0  0  0  0  0  0
   38.0270   28.2600   43.2080 C   0  0  0  0  0  0  0  0  0  0  0  0
   39.5580   28.0930   43.1150 C   0  0  0  0  0  0  0  0  0  0  0  0
   39.8620   26.7080   43.6110 C   0  0  0  0  0  0  0  0  0  0  0  0
   39.1480   25.7560   42.6670 C   0  0  0  0  0  0  0  0  0  0  0  0
   37.7050   26.0830   42.4200 C   0  0  2  0  0  0  0  0  0  0  0  0
   37.7190   29.2970   43.3240 H   0  0  0  0  0  0  0  0  0  0  0  0
   37.8020   27.8160   44.2260 H   0  0  0  0  0  0  0  0  0  0  0  0
   40.0270   28.8730   43.7600 H   0  0  0  0  0  0  0  0  0  0  0  0
   39.8720   28.1620   42.0550 H   0  0  0  0  0  0  0  0  0  0  0  0
   40.9210   26.4570   43.5780 H   0  0  0  0  0  0  0  0  0  0  0  0
   39.4270   26.5730   44.6180 H   0  0  0  0  0  0  0  0  0  0  0  0
   39.6560   25.6640   41.6930 H   0  0  0  0  0  0  0  0  0  0  0  0
   39.2070   24.7440   43.1520 H   0  0  0  0  0  0  0  0  0  0  0  0
   37.1170   25.6450   43.2690 H   0  0  0  0  0  0  0  0  0  0  0  0
   37.2760   25.2660   41.2100 C   0  0  0  0  0  0  0  0  0  0  0  0
   37.8490   24.3180   41.2060 H   0  0  0  0  0  0  0  0  0  0  0  0
   36.1980   25.0240   41.2630 H   0  0  0  0  0  0  0  0  0  0  0  0
   37.5070   25.8170   40.2840 H   0  0  0  0  0  0  0  0  0  0  0  0
  1  4  1  1  0  0  0
  1  3  1  0  0  0  0
  2  6  1  0  0  0  0
  2  1  1  0  0  0  0
  2  3  1  0  0  0  0
  3  7  1  1  0  0  0
  5  2  1  0  0  0  0
  8  9  1  0  0  0  0
  9  1  1  0  0  0  0
  9 10  2  0  0  0  0
 10 15  1  0  0  0  0
 11 10  1  0  0  0  0
 12 11  2  0  0  0  0
 13  8  2  0  0  0  0
 13 12  1  0  0  0  0
 14  8  1  0  0  0  0
 17 16  1  0  0  0  0
 18 17  1  0  0  0  0
 18 12  1  0  0  0  0
 19 18  2  0  0  0  0
 20 19  1  0  0  0  0
 21 23  2  0  0  0  0
 21 19  1  0  0  0  0
 22 21  1  0  0  0  0
 23 24  1  0  0  0  0
 24 17  2  0  0  0  0
 25  3  1  0  0  0  0
 25 28  1  0  0  0  0
 26 25  1  0  0  0  0
 27 25  1  0  0  0  0
 28 33  1  0  0  0  0
 28 29  1  0  0  0  0
 29 34  1  0  0  0  0
 29 35  1  0  0  0  0
 30 29  1  0  0  0  0
 30 31  1  0  0  0  0
 30 36  1  0  0  0  0
 31 39  1  0  0  0  0
 32 41  1  0  0  0  0
 32 31  1  0  0  0  0
 33 32  1  0  0  0  0
 33 42  1  1  0  0  0
 37 30  1  0  0  0  0
 38 31  1  0  0  0  0
 40 32  1  0  0  0  0
 43 45  1  0  0  0  0
 43 33  1  0  0  0  0
 44 43  1  0  0  0  0
 46 43  1  0  0  0  0
M  END
>  <minimizedAffinity>
-5.91086626

$$$$

 OpenBabel03252500383D

 46 49  0  0  1  0  0  0  0  0999 V2000
   37.0500   25.7790   42.4890 C   0  0  1  0  0  0  0  0  0  0  0  0
   36.9310   24.6140   41.7270 C   0  0  0  0  0  0  0  0  0  0  0  0
   38.2550   24.8050   42.3470 C   0  0  1  0  0  0  0  0  0  0  0  0
   36.6030   25.8320   43.5180 H   0  0  0  0  0  0  0  0  0  0  0  0
   36.9320   24.6960   40.6000 H   0  0  0  0  0  0  0  0  0  0  0  0
   36.3010   23.7710   42.0490 H   0  0  0  0  0  0  0  0  0  0  0  0
   38.5310   24.4080   43.3320 H   0  0  0  0  0  0  0  0  0  0  0  0
   37.4260   28.2040   42.9530 C   0  0  0  0  0  0  0  0  0  0  0  0
   37.2620   27.1670   41.9770 C   0  0  0  0  0  0  0  0  0  0  0  0
   37.3010   27.4730   40.6540 C   0  0  0  0  0  0  0  0  0  0  0  0
   37.5000   28.7920   40.3190 N   0  0  0  0  0  0  0  0  0  0  0  0
   37.6540   29.7590   41.2460 C   0  0  0  0  0  0  0  0  0  0  0  0
   37.6210   29.4940   42.5970 N   0  0  0  0  0  0  0  0  0  0  0  0
   37.4030   28.0140   44.0150 H   0  0  0  0  0  0  0  0  0  0  0  0
   37.1790   26.7030   39.9060 H   0  0  0  0  0  0  0  0  0  0  0  0
   39.9010   31.1710   41.9550 F   0  0  0  0  0  0  0  0  0  0  0  0
   38.9860   31.8310   41.1770 C   0  0  0  0  0  0  0  0  0  0  0  0
   37.8600   31.1210   40.8240 C   0  0  0  0  0  0  0  0  0  0  0  0
   36.9160   31.7500   40.0430 C   0  0  0  0  0  0  0  0  0  0  0  0
   36.0030   31.2830   39.7130 H   0  0  0  0  0  0  0  0  0  0  0  0
   37.1040   33.0680   39.6280 C   0  0  0  0  0  0  0  0  0  0  0  0
   36.4150   33.6410   39.0130 H   0  0  0  0  0  0  0  0  0  0  0  0
   38.2530   33.7590   40.0030 C   0  0  0  0  0  3  0  0  0  0  0  0
   39.1860   33.1270   40.7770 C   0  0  0  0  0  3  0  0  0  0  0  0
   39.4190   25.2070   41.5160 C   0  0  0  0  0  0  0  0  0  0  0  0
   39.2130   26.2390   41.1140 H   0  0  0  0  0  0  0  0  0  0  0  0
   39.5460   24.5240   40.6790 H   0  0  0  0  0  0  0  0  0  0  0  0
   40.5570   25.2030   42.3640 N   0  0  0  0  0  0  0  0  0  0  0  0
   40.4230   25.7300   43.6540 C   0  0  0  0  0  0  0  0  0  0  0  0
   40.7590   27.2350   43.6800 C   0  0  0  0  0  0  0  0  0  0  0  0
   42.2340   27.3430   43.4120 C   0  0  0  0  0  0  0  0  0  0  0  0
   42.4560   26.7560   42.0290 C   0  0  0  0  0  0  0  0  0  0  0  0
   41.8270   25.4120   41.8110 C   0  0  2  0  0  0  0  0  0  0  0  0
   39.5520   25.4780   44.2540 H   0  0  0  0  0  0  0  0  0  0  0  0
   41.2780   25.2860   44.2520 H   0  0  0  0  0  0  0  0  0  0  0  0
   40.4940   27.6270   44.6900 H   0  0  0  0  0  0  0  0  0  0  0  0
   40.2170   27.7470   42.8610 H   0  0  0  0  0  0  0  0  0  0  0  0
   42.5970   28.3700   43.3870 H   0  0  0  0  0  0  0  0  0  0  0  0
   42.7860   26.7170   44.1370 H   0  0  0  0  0  0  0  0  0  0  0  0
   42.1240   27.4310   41.2240 H   0  0  0  0  0  0  0  0  0  0  0  0
   43.5690   26.6520   41.9180 H   0  0  0  0  0  0  0  0  0  0  0  0
   42.5340   24.6450   42.2250 H   0  0  0  0  0  0  0  0  0  0  0  0
   41.8450   25.1630   40.3100 C   0  0  0  0  0  0  0  0  0  0  0  0
   42.7390   25.6600   39.8830 H   0  0  0  0  0  0  0  0  0  0  0  0
   41.9090   24.0800   40.0930 H   0  0  0  0  0  0  0  0  0  0  0  0
   40.9480   25.6020   39.8460 H   0  0  0  0  0  0  0  0  0  0  0  0
  1  4  1  1  0  0  0
  2  6  1  0  0  0  0
  2  3  1  0  0  0  0
  2  1  1  0  0  0  0
  3  1  1  0  0  0  0
  3  7  1  1  0  0  0
  5  2  1  0  0  0  0
  8 14  1  0  0  0  0
  9  1  1  0  0  0  0
  9  8  2  0  0  0  0
 10  9  1  0  0  0  0
 11 10  2  0  0  0  0
 11 12  1  0  0  0  0
 12 13  2  0  0  0  0
 13  8  1  0  0  0  0
 15 10  1  0  0  0  0
 17 16  1  0  0  0  0
 18 17  1  0  0  0  0
 18 12  1  0  0  0  0
 19 18  2  0  0  0  0
 20 19  1  0  0  0  0
 21 23  2  0  0  0  0
 21 19  1  0  0  0  0
 22 21  1  0  0  0  0
 23 24  1  0  0  0  0
 24 17  2  0  0  0  0
 25  3  1  0  0  0  0
 25 28  1  0  0  0  0
 26 25  1  0  0  0  0
 27 25  1  0  0  0  0
 28 29  1  0  0  0  0
 29 30  1  0  0  0  0
 29 35  1  0  0  0  0
 29 34  1  0  0  0  0
 30 36  1  0  0  0  0
 31 30  1  0  0  0  0
 31 39  1  0  0  0  0
 32 31  1  0  0  0  0
 33 32  1  0  0  0  0
 33 42  1  1  0  0  0
 33 28  1  0  0  0  0
 37 30  1  0  0  0  0
 38 31  1  0  0  0  0
 40 32  1  0  0  0  0
 41 32  1  0  0  0  0
 43 33  1  0  0  0  0
 44 43  1  0  0  0  0
 45 43  1  0  0  0  0
 46 43  1  0  0  0  0
M  END
>  <minimizedAffinity>
-5.88090658

$$$$

 OpenBabel03252500383D

 46 49  0  0  1  0  0  0  0  0999 V2000
   37.4530   28.3530   43.6790 C   0  0  1  0  0  0  0  0  0  0  0  0
   36.3040   27.5930   43.4500 C   0  0  0  0  0  0  0  0  0  0  0  0
   37.5690   26.8590   43.2590 C   0  0  1  0  0  0  0  0  0  0  0  0
   37.7860   28.5770   44.7280 H   0  0  0  0  0  0  0  0  0  0  0  0
   35.7180   27.7590   42.4990 H   0  0  0  0  0  0  0  0  0  0  0  0
   35.6290   27.2990   44.2680 H   0  0  0  0  0  0  0  0  0  0  0  0
   38.0680   26.2870   44.0510 H   0  0  0  0  0  0  0  0  0  0  0  0
   39.4560   29.6510   42.9460 C   0  0  0  0  0  0  0  0  0  0  0  0
   38.0690   29.3470   42.7490 C   0  0  0  0  0  0  0  0  0  0  0  0
   37.3790   29.9600   41.7530 C   0  0  0  0  0  0  0  0  0  0  0  0
   38.0660   30.8580   40.9700 N   0  0  0  0  0  0  0  0  0  0  0  0
   39.3720   31.1350   41.1640 C   0  0  0  0  0  0  0  0  0  0  0  0
   40.1100   30.5380   42.1620 N   0  0  0  0  0  0  0  0  0  0  0  0
   40.0490   29.1930   43.7220 H   0  0  0  0  0  0  0  0  0  0  0  0
   36.3320   29.7420   41.5920 H   0  0  0  0  0  0  0  0  0  0  0  0
   38.8620   33.8290   41.3300 F   0  0  0  0  0  0  0  0  0  0  0  0
   39.7760   33.4380   40.3870 C   0  0  0  0  0  0  0  0  0  0  0  0
   40.0300   32.0870   40.3060 C   0  0  0  0  0  0  0  0  0  0  0  0
   40.9430   31.6540   39.3700 C   0  0  0  0  0  0  0  0  0  0  0  0
   41.2120   30.6210   39.2260 H   0  0  0  0  0  0  0  0  0  0  0  0
   41.5870   32.5660   38.5330 C   0  0  0  0  0  0  0  0  0  0  0  0
   42.3180   32.3160   37.7690 H   0  0  0  0  0  0  0  0  0  0  0  0
   41.3070   33.9260   38.6410 C   0  0  0  0  0  3  0  0  0  0  0  0
   40.4000   34.3480   39.5730 C   0  0  0  0  0  3  0  0  0  0  0  0
   38.0390   26.5250   41.8900 C   0  0  0  0  0  0  0  0  0  0  0  0
   39.0890   26.1260   41.9770 H   0  0  0  0  0  0  0  0  0  0  0  0
   38.0520   27.4120   41.2610 H   0  0  0  0  0  0  0  0  0  0  0  0
   37.1560   25.5390   41.3760 N   0  0  0  0  0  0  0  0  0  0  0  0
   37.2990   24.2220   41.8280 C   0  0  0  0  0  0  0  0  0  0  0  0
   38.2640   23.4240   40.9270 C   0  0  0  0  0  0  0  0  0  0  0  0
   37.5700   23.2630   39.6040 C   0  0  0  0  0  0  0  0  0  0  0  0
   37.3540   24.6670   39.0670 C   0  0  0  0  0  0  0  0  0  0  0  0
   36.7330   25.6220   40.0440 C   0  0  2  0  0  0  0  0  0  0  0  0
   37.4470   24.0260   42.8880 H   0  0  0  0  0  0  0  0  0  0  0  0
   36.3060   23.7200   41.6150 H   0  0  0  0  0  0  0  0  0  0  0  0
   38.4510   22.4390   41.4160 H   0  0  0  0  0  0  0  0  0  0  0  0
   39.1890   24.0110   40.7670 H   0  0  0  0  0  0  0  0  0  0  0  0
   38.1620   22.7250   38.8650 H   0  0  0  0  0  0  0  0  0  0  0  0
   36.5760   22.8070   39.7630 H   0  0  0  0  0  0  0  0  0  0  0  0
   38.2800   25.1190   38.6780 H   0  0  0  0  0  0  0  0  0  0  0  0
   36.6620   24.5550   38.1890 H   0  0  0  0  0  0  0  0  0  0  0  0
   35.6240   25.4620   40.0040 H   0  0  0  0  0  0  0  0  0  0  0  0
   36.9280   27.0180   39.4690 C   0  0  0  0  0  0  0  0  0  0  0  0
   36.9110   26.9470   38.3620 H   0  0  0  0  0  0  0  0  0  0  0  0
   36.1120   27.6910   39.7890 H   0  0  0  0  0  0  0  0  0  0  0  0
   37.9070   27.4180   39.7760 H   0  0  0  0  0  0  0  0  0  0  0  0
  1  4  1  1  0  0  0
  2  1  1  0  0  0  0
  2  6  1  0  0  0  0
  3  2  1  0  0  0  0
  3  1  1  0  0  0  0
  3  7  1  1  0  0  0
  5  2  1  0  0  0  0
  8 14  1  0  0  0  0
  9  8  1  0  0  0  0
  9  1  1  0  0  0  0
 10  9  2  0  0  0  0
 11 12  2  0  0  0  0
 11 10  1  0  0  0  0
 12 13  1  0  0  0  0
 13  8  2  0  0  0  0
 15 10  1  0  0  0  0
 17 16  1  0  0  0  0
 18 17  1  0  0  0  0
 18 12  1  0  0  0  0
 19 18  2  0  0  0  0
 20 19  1  0  0  0  0
 21 23  2  0  0  0  0
 21 19  1  0  0  0  0
 22 21  1  0  0  0  0
 23 24  1  0  0  0  0
 24 17  2  0  0  0  0
 25 26  1  0  0  0  0
 25  3  1  0  0  0  0
 27 25  1  0  0  0  0
 28 29  1  0  0  0  0
 28 25  1  0  0  0  0
 29 34  1  0  0  0  0
 30 36  1  0  0  0  0
 30 29  1  0  0  0  0
 31 39  1  0  0  0  0
 31 30  1  0  0  0  0
 32 31  1  0  0  0  0
 32 33  1  0  0  0  0
 33 42  1  6  0  0  0
 33 28  1  0  0  0  0
 35 29  1  0  0  0  0
 37 30  1  0  0  0  0
 38 31  1  0  0  0  0
 40 32  1  0  0  0  0
 41 32  1  0  0  0  0
 43 46  1  0  0  0  0
 43 45  1  0  0  0  0
 43 33  1  0  0  0  0
 44 43  1  0  0  0  0
M  END
>  <minimizedAffinity>
-5.67725658

$$$$

 OpenBabel03252500383D

 46 49  0  0  1  0  0  0  0  0999 V2000
   40.1460   31.1530   42.5570 C   0  0  1  0  0  0  0  0  0  0  0  0
   41.5240   31.3490   42.4400 C   0  0  0  0  0  0  0  0  0  0  0  0
   40.7240   31.9790   41.3730 C   0  0  1  0  0  0  0  0  0  0  0  0
   39.5490   31.7450   43.3020 H   0  0  0  0  0  0  0  0  0  0  0  0
   42.1700   30.4920   42.0880 H   0  0  0  0  0  0  0  0  0  0  0  0
   42.0820   31.9850   43.1430 H   0  0  0  0  0  0  0  0  0  0  0  0
   40.3490   33.0090   41.4190 H   0  0  0  0  0  0  0  0  0  0  0  0
   40.1260   28.7040   42.0690 C   0  0  0  0  0  0  0  0  0  0  0  0
   39.3810   29.9220   42.1890 C   0  0  0  0  0  0  0  0  0  0  0  0
   38.0420   29.9190   41.9660 C   0  0  0  0  0  0  0  0  0  0  0  0
   37.4620   28.7170   41.6300 N   0  0  0  0  0  0  0  0  0  0  0  0
   38.1740   27.5760   41.5220 C   0  0  0  0  0  0  0  0  0  0  0  0
   39.5330   27.5340   41.7390 N   0  0  0  0  0  0  0  0  0  0  0  0
   41.1910   28.6530   42.2360 H   0  0  0  0  0  0  0  0  0  0  0  0
   37.4660   30.8290   42.0510 H   0  0  0  0  0  0  0  0  0  0  0  0
   37.4090   27.0410   38.9390 F   0  0  0  0  0  0  0  0  0  0  0  0
   37.1170   26.0810   39.8730 C   0  0  0  0  0  0  0  0  0  0  0  0
   37.5010   26.3520   41.1670 C   0  0  0  0  0  0  0  0  0  0  0  0
   37.2250   25.4130   42.1350 C   0  0  0  0  0  0  0  0  0  0  0  0
   37.4830   25.5280   43.1750 H   0  0  0  0  0  0  0  0  0  0  0  0
   36.5750   24.2240   41.8040 C   0  0  0  0  0  0  0  0  0  0  0  0
   36.3180   23.4290   42.4990 H   0  0  0  0  0  0  0  0  0  0  0  0
   36.2000   23.9800   40.4850 C   0  0  0  0  0  3  0  0  0  0  0  0
   36.4780   24.9180   39.5300 C   0  0  0  0  0  3  0  0  0  0  0  0
   40.7110   31.3970   40.0070 C   0  0  0  0  0  0  0  0  0  0  0  0
   40.2380   30.3770   40.0730 H   0  0  0  0  0  0  0  0  0  0  0  0
   41.7240   31.2900   39.6250 H   0  0  0  0  0  0  0  0  0  0  0  0
   39.9400   32.2680   39.1910 N   0  0  0  0  0  0  0  0  0  0  0  0
   39.7590   33.5870   39.6190 C   0  0  0  0  0  0  0  0  0  0  0  0
   38.4860   33.7260   40.4790 C   0  0  0  0  0  0  0  0  0  0  0  0
   37.3240   33.4980   39.5550 C   0  0  0  0  0  0  0  0  0  0  0  0
   37.4770   32.0830   39.0260 C   0  0  0  0  0  0  0  0  0  0  0  0
   38.8400   31.7580   38.4900 C   0  0  2  0  0  0  0  0  0  0  0  0
   40.6020   34.1500   40.0130 H   0  0  0  0  0  0  0  0  0  0  0  0
   39.4800   34.1710   38.6880 H   0  0  0  0  0  0  0  0  0  0  0  0
   38.4750   34.7550   40.9090 H   0  0  0  0  0  0  0  0  0  0  0  0
   38.4770   32.9340   41.2530 H   0  0  0  0  0  0  0  0  0  0  0  0
   36.3560   33.5520   40.0510 H   0  0  0  0  0  0  0  0  0  0  0  0
   37.3980   34.1890   38.6950 H   0  0  0  0  0  0  0  0  0  0  0  0
   37.2050   31.3200   39.7720 H   0  0  0  0  0  0  0  0  0  0  0  0
   36.7330   31.9890   38.1890 H   0  0  0  0  0  0  0  0  0  0  0  0
   38.8780   32.1330   37.4330 H   0  0  0  0  0  0  0  0  0  0  0  0
   38.9020   30.2440   38.3510 C   0  0  0  0  0  0  0  0  0  0  0  0
   37.8850   29.8720   38.1130 H   0  0  0  0  0  0  0  0  0  0  0  0
   39.5830   29.9530   37.5300 H   0  0  0  0  0  0  0  0  0  0  0  0
   39.2230   29.7920   39.3030 H   0  0  0  0  0  0  0  0  0  0  0  0
  1  4  1  1  0  0  0
  2  1  1  0  0  0  0
  2  6  1  0  0  0  0
  3  7  1  1  0  0  0
  3  2  1  0  0  0  0
  3  1  1  0  0  0  0
  5  2  1  0  0  0  0
  8  9  1  0  0  0  0
  8 14  1  0  0  0  0
  9  1  1  0  0  0  0
 10 15  1  0  0  0  0
 10  9  2  0  0  0  0
 11 10  1  0  0  0  0
 12 11  2  0  0  0  0
 12 13  1  0  0  0  0
 13  8  2  0  0  0  0
 16 17  1  0  0  0  0
 17 18  1  0  0  0  0
 18 12  1  0  0  0  0
 18 19  2  0  0  0  0
 19 20  1  0  0  0  0
 21 19  1  0  0  0  0
 21 22  1  0  0  0  0
 23 21  2  0  0  0  0
 24 17  2  0  0  0  0
 24 23  1  0  0  0  0
 25 26  1  0  0  0  0
 25  3  1  0  0  0  0
 27 25  1  0  0  0  0
 28 29  1  0  0  0  0
 28 25  1  0  0  0  0
 29 34  1  0  0  0  0
 29 30  1  0  0  0  0
 30 36  1  0  0  0  0
 30 37  1  0  0  0  0
 31 38  1  0  0  0  0
 31 30  1  0  0  0  0
 32 31  1  0  0  0  0
 32 40  1  0  0  0  0
 33 42  1  6  0  0  0
 33 32  1  0  0  0  0
 33 28  1  0  0  0  0
 35 29  1  0  0  0  0
 39 31  1  0  0  0  0
 41 32  1  0  0  0  0
 43 33  1  0  0  0  0
 43 46  1  0  0  0  0
 44 43  1  0  0  0  0
 45 43  1  0  0  0  0
M  END
>  <minimizedAffinity>
-5.6265502

$$$$

 OpenBabel03252500383D

 46 49  0  0  1  0  0  0  0  0999 V2000
   37.4500   32.4000   38.9200 C   0  0  1  0  0  0  0  0  0  0  0  0
   37.0110   33.5660   39.5510 C   0  0  0  0  0  0  0  0  0  0  0  0
   38.4470   33.2790   39.7290 C   0  0  1  0  0  0  0  0  0  0  0  0
   37.6240   32.3850   37.8110 H   0  0  0  0  0  0  0  0  0  0  0  0
   36.4030   33.4790   40.4990 H   0  0  0  0  0  0  0  0  0  0  0  0
   36.7070   34.4560   38.9810 H   0  0  0  0  0  0  0  0  0  0  0  0
   39.2320   33.6600   39.0640 H   0  0  0  0  0  0  0  0  0  0  0  0
   38.1870   30.0130   38.9080 C   0  0  0  0  0  0  0  0  0  0  0  0
   37.2690   30.9970   39.4040 C   0  0  0  0  0  0  0  0  0  0  0  0
   36.2890   30.6310   40.2700 C   0  0  0  0  0  0  0  0  0  0  0  0
   36.2330   29.3050   40.6320 N   0  0  0  0  0  0  0  0  0  0  0  0
   37.1030   28.3880   40.1600 C   0  0  0  0  0  0  0  0  0  0  0  0
   38.1100   28.7160   39.2800 N   0  0  0  0  0  0  0  0  0  0  0  0
   38.9810   30.2520   38.2190 H   0  0  0  0  0  0  0  0  0  0  0  0
   35.5900   31.3600   40.6520 H   0  0  0  0  0  0  0  0  0  0  0  0
   37.6730   27.6100   42.7320 F   0  0  0  0  0  0  0  0  0  0  0  0
   37.2700   26.6230   41.8710 C   0  0  0  0  0  0  0  0  0  0  0  0
   36.9850   27.0150   40.5820 C   0  0  0  0  0  0  0  0  0  0  0  0
   36.5770   26.0520   39.6860 C   0  0  0  0  0  0  0  0  0  0  0  0
   36.3300   26.2550   38.6570 H   0  0  0  0  0  0  0  0  0  0  0  0
   36.4590   24.7200   40.0830 C   0  0  0  0  0  0  0  0  0  0  0  0
   36.1460   23.8970   39.4460 H   0  0  0  0  0  0  0  0  0  0  0  0
   36.7550   24.3560   41.3940 C   0  0  0  0  0  3  0  0  0  0  0  0
   37.1590   25.3180   42.2770 C   0  0  0  0  0  3  0  0  0  0  0  0
   38.9550   32.7870   41.0350 C   0  0  0  0  0  0  0  0  0  0  0  0
   38.4880   31.7790   41.2260 H   0  0  0  0  0  0  0  0  0  0  0  0
   38.6690   33.4640   41.8380 H   0  0  0  0  0  0  0  0  0  0  0  0
   40.3670   32.6860   40.9220 N   0  0  0  0  0  0  0  0  0  0  0  0
   40.9870   33.2910   39.8240 C   0  0  0  0  0  0  0  0  0  0  0  0
   41.1050   32.3110   38.6380 C   0  0  0  0  0  0  0  0  0  0  0  0
   42.0920   31.2590   39.0570 C   0  0  0  0  0  0  0  0  0  0  0  0
   41.4900   30.5770   40.2740 C   0  0  0  0  0  0  0  0  0  0  0  0
   41.0080   31.5140   41.3420 C   0  0  2  0  0  0  0  0  0  0  0  0
   40.6930   34.2940   39.5190 H   0  0  0  0  0  0  0  0  0  0  0  0
   42.0710   33.4280   40.1260 H   0  0  0  0  0  0  0  0  0  0  0  0
   41.4670   32.8870   37.7550 H   0  0  0  0  0  0  0  0  0  0  0  0
   40.1260   31.8240   38.4660 H   0  0  0  0  0  0  0  0  0  0  0  0
   42.2510   30.4880   38.3050 H   0  0  0  0  0  0  0  0  0  0  0  0
   43.0340   31.7420   39.3740 H   0  0  0  0  0  0  0  0  0  0  0  0
   40.6670   29.8930   40.0140 H   0  0  0  0  0  0  0  0  0  0  0  0
   42.3100   29.9400   40.7030 H   0  0  0  0  0  0  0  0  0  0  0  0
   41.8980   31.7910   41.9660 H   0  0  0  0  0  0  0  0  0  0  0  0
   40.1370   30.6910   42.2810 C   0  0  0  0  0  0  0  0  0  0  0  0
   40.5280   29.6540   42.3020 H   0  0  0  0  0  0  0  0  0  0  0  0
   40.1730   31.1000   43.3070 H   0  0  0  0  0  0  0  0  0  0  0  0
   39.1020   30.6650   41.9060 H   0  0  0  0  0  0  0  0  0  0  0  0
  1  4  1  6  0  0  0
  1  9  1  0  0  0  0
  1  2  1  0  0  0  0
  1  3  1  0  0  0  0
  2  3  1  0  0  0  0
  2  5  1  0  0  0  0
  3  7  1  6  0  0  0
  3 25  1  0  0  0  0
  6  2  1  0  0  0  0
  8 13  2  0  0  0  0
  8  9  1  0  0  0  0
  9 10  2  0  0  0  0
 10 11  1  0  0  0  0
 10 15  1  0  0  0  0
 12 18  1  0  0  0  0
 12 11  2  0  0  0  0
 13 12  1  0  0  0  0
 14  8  1  0  0  0  0
 17 24  1  0  0  0  0
 17 16  1  0  0  0  0
 18 17  2  0  0  0  0
 19 21  2  0  0  0  0
 19 18  1  0  0  0  0
 20 19  1  0  0  0  0
 21 23  1  0  0  0  0
 22 21  1  0  0  0  0
 23 24  2  0  0  0  0
 25 26  1  0  0  0  0
 25 27  1  0  0  0  0
 28 25  1  0  0  0  0
 28 33  1  0  0  0  0
 29 35  1  0  0  0  0
 29 28  1  0  0  0  0
 30 31  1  0  0  0  0
 30 29  1  0  0  0  0
 31 39  1  0  0  0  0
 31 32  1  0  0  0  0
 32 41  1  0  0  0  0
 32 33  1  0  0  0  0
 33 42  1  1  0  0  0
 33 43  1  0  0  0  0
 34 29  1  0  0  0  0
 36 30  1  0  0  0  0
 37 30  1  0  0  0  0
 38 31  1  0  0  0  0
 40 32  1  0  0  0  0
 43 44  1  0  0  0  0
 43 45  1  0  0  0  0
 46 43  1  0  0  0  0
M  END
>  <minimizedAffinity>
-5.52302885

$$$$

 OpenBabel03252500383D

 46 49  0  0  1  0  0  0  0  0999 V2000
   36.8930   31.5880   39.0420 C   0  0  1  0  0  0  0  0  0  0  0  0
   36.4570   30.2660   38.9260 C   0  0  0  0  0  0  0  0  0  0  0  0
   36.3470   30.8280   40.2850 C   0  0  1  0  0  0  0  0  0  0  0  0
   36.2470   32.4330   38.6820 H   0  0  0  0  0  0  0  0  0  0  0  0
   37.2250   29.4440   38.8270 H   0  0  0  0  0  0  0  0  0  0  0  0
   35.5420   30.0030   38.3760 H   0  0  0  0  0  0  0  0  0  0  0  0
   35.4500   31.3320   40.6660 H   0  0  0  0  0  0  0  0  0  0  0  0
   39.2960   31.2920   38.4310 C   0  0  0  0  0  0  0  0  0  0  0  0
   38.3090   32.0600   39.1300 C   0  0  0  0  0  0  0  0  0  0  0  0
   38.6820   33.1600   39.8340 C   0  0  0  0  0  0  0  0  0  0  0  0
   40.0200   33.4830   39.8340 N   0  0  0  0  0  0  0  0  0  0  0  0
   40.9400   32.7530   39.1710 C   0  0  0  0  0  0  0  0  0  0  0  0
   40.6050   31.6300   38.4470 N   0  0  0  0  0  0  0  0  0  0  0  0
   39.0520   30.4110   37.8590 H   0  0  0  0  0  0  0  0  0  0  0  0
   37.9500   33.7500   40.3660 H   0  0  0  0  0  0  0  0  0  0  0  0
   42.1300   34.0900   37.0880 F   0  0  0  0  0  0  0  0  0  0  0  0
   42.9240   33.8190   38.1720 C   0  0  0  0  0  0  0  0  0  0  0  0
   42.3250   33.1490   39.2150 C   0  0  0  0  0  0  0  0  0  0  0  0
   43.0890   32.8580   40.3230 C   0  0  0  0  0  0  0  0  0  0  0  0
   42.7170   32.3390   41.1900 H   0  0  0  0  0  0  0  0  0  0  0  0
   44.4310   33.2360   40.3770 C   0  0  0  0  0  0  0  0  0  0  0  0
   45.1070   33.0490   41.2070 H   0  0  0  0  0  0  0  0  0  0  0  0
   45.0070   33.9130   39.3050 C   0  0  0  0  0  3  0  0  0  0  0  0
   44.2410   34.1980   38.2090 C   0  0  0  0  0  3  0  0  0  0  0  0
   37.2920   30.4020   41.3490 C   0  0  0  0  0  0  0  0  0  0  0  0
   36.8170   30.6370   42.3430 H   0  0  0  0  0  0  0  0  0  0  0  0
   38.2300   30.9480   41.2700 H   0  0  0  0  0  0  0  0  0  0  0  0
   37.4920   29.0050   41.1930 N   0  0  0  0  0  0  0  0  0  0  0  0
   36.4510   28.1420   41.5540 C   0  0  0  0  0  0  0  0  0  0  0  0
   36.5710   27.7090   43.0290 C   0  0  0  0  0  0  0  0  0  0  0  0
   37.7900   26.8360   43.1160 C   0  0  0  0  0  0  0  0  0  0  0  0
   38.9630   27.7070   42.7030 C   0  0  0  0  0  0  0  0  0  0  0  0
   38.7630   28.4630   41.4230 C   0  0  2  0  0  0  0  0  0  0  0  0
   35.4290   28.3740   41.2600 H   0  0  0  0  0  0  0  0  0  0  0  0
   36.6570   27.1730   41.0050 H   0  0  0  0  0  0  0  0  0  0  0  0
   35.6440   27.1500   43.2970 H   0  0  0  0  0  0  0  0  0  0  0  0
   36.7350   28.6020   43.6630 H   0  0  0  0  0  0  0  0  0  0  0  0
   37.9960   26.4750   44.1220 H   0  0  0  0  0  0  0  0  0  0  0  0
   37.7060   26.0140   42.3810 H   0  0  0  0  0  0  0  0  0  0  0  0
   39.2560   28.4230   43.4880 H   0  0  0  0  0  0  0  0  0  0  0  0
   39.8320   27.0070   42.5720 H   0  0  0  0  0  0  0  0  0  0  0  0
   39.0170   27.7640   40.5830 H   0  0  0  0  0  0  0  0  0  0  0  0
   39.8540   29.5220   41.3690 C   0  0  0  0  0  0  0  0  0  0  0  0
   40.7530   29.1250   41.8830 H   0  0  0  0  0  0  0  0  0  0  0  0
   40.1240   29.7540   40.3220 H   0  0  0  0  0  0  0  0  0  0  0  0
   39.5230   30.4300   41.8980 H   0  0  0  0  0  0  0  0  0  0  0  0
  1  4  1  6  0  0  0
  1  9  1  0  0  0  0
  1  3  1  0  0  0  0
  2  1  1  0  0  0  0
  2  3  1  0  0  0  0
  3  7  1  1  0  0  0
  3 25  1  0  0  0  0
  5  2  1  0  0  0  0
  6  2  1  0  0  0  0
  8 13  2  0  0  0  0
  8  9  1  0  0  0  0
  9 10  2  0  0  0  0
 10 11  1  0  0  0  0
 10 15  1  0  0  0  0
 12 18  1  0  0  0  0
 12 11  2  0  0  0  0
 13 12  1  0  0  0  0
 14  8  1  0  0  0  0
 16 17  1  0  0  0  0
 17 24  2  0  0  0  0
 17 18  1  0  0  0  0
 18 19  2  0  0  0  0
 19 21  1  0  0  0  0
 19 20  1  0  0  0  0
 21 22  1  0  0  0  0
 23 21  2  0  0  0  0
 24 23  1  0  0  0  0
 25 26  1  0  0  0  0
 27 25  1  0  0  0  0
 28 25  1  0  0  0  0
 28 33  1  0  0  0  0
 28 29  1  0  0  0  0
 29 30  1  0  0  0  0
 30 31  1  0  0  0  0
 30 36  1  0  0  0  0
 30 37  1  0  0  0  0
 31 38  1  0  0  0  0
 32 31  1  0  0  0  0
 32 40  1  0  0  0  0
 33 42  1  6  0  0  0
 33 32  1  0  0  0  0
 34 29  1  0  0  0  0
 35 29  1  0  0  0  0
 39 31  1  0  0  0  0
 41 32  1  0  0  0  0
 43 33  1  0  0  0  0
 43 44  1  0  0  0  0
 43 46  1  0  0  0  0
 45 43  1  0  0  0  0
M  END
>  <minimizedAffinity>
-5.44778872

$$$$

 OpenBabel03252500383D

 46 49  0  0  1  0  0  0  0  0999 V2000
   37.7050   27.9760   43.5660 C   0  0  1  0  0  0  0  0  0  0  0  0
   36.4100   27.4770   43.4010 C   0  0  0  0  0  0  0  0  0  0  0  0
   37.4790   26.5610   42.9610 C   0  0  1  0  0  0  0  0  0  0  0  0
   38.1830   27.9860   44.5820 H   0  0  0  0  0  0  0  0  0  0  0  0
   35.7730   27.8800   42.5590 H   0  0  0  0  0  0  0  0  0  0  0  0
   35.7810   27.1990   44.2580 H   0  0  0  0  0  0  0  0  0  0  0  0
   37.9360   25.8020   43.6080 H   0  0  0  0  0  0  0  0  0  0  0  0
   37.5820   29.8150   41.8820 C   0  0  0  0  0  0  0  0  0  0  0  0
   38.4040   28.9630   42.6880 C   0  0  0  0  0  0  0  0  0  0  0  0
   39.7570   29.0740   42.6260 C   0  0  0  0  0  0  0  0  0  0  0  0
   40.2710   30.0220   41.7730 N   0  0  0  0  0  0  0  0  0  0  0  0
   39.4870   30.8200   41.0200 C   0  0  0  0  0  0  0  0  0  0  0  0
   38.1120   30.7400   41.0510 N   0  0  0  0  0  0  0  0  0  0  0  0
   36.5040   29.7660   41.8940 H   0  0  0  0  0  0  0  0  0  0  0  0
   40.3910   28.4380   43.2270 H   0  0  0  0  0  0  0  0  0  0  0  0
   40.1730   30.2140   38.4300 F   0  0  0  0  0  0  0  0  0  0  0  0
   40.4390   31.4920   38.8490 C   0  0  0  0  0  0  0  0  0  0  0  0
   40.0940   31.7930   40.1480 C   0  0  0  0  0  0  0  0  0  0  0  0
   40.3460   33.0670   40.6060 C   0  0  0  0  0  0  0  0  0  0  0  0
   40.1150   33.4030   41.6030 H   0  0  0  0  0  0  0  0  0  0  0  0
   40.9340   34.0180   39.7710 C   0  0  0  0  0  0  0  0  0  0  0  0
   41.1680   35.0420   40.0470 H   0  0  0  0  0  0  0  0  0  0  0  0
   41.2700   33.6810   38.4620 C   0  0  0  0  0  3  0  0  0  0  0  0
   41.0170   32.4140   38.0150 C   0  0  0  0  0  3  0  0  0  0  0  0
   37.7280   26.3420   41.5130 C   0  0  0  0  0  0  0  0  0  0  0  0
   38.0650   27.3220   41.0720 H   0  0  0  0  0  0  0  0  0  0  0  0
   36.8160   26.0260   41.0110 H   0  0  0  0  0  0  0  0  0  0  0  0
   38.7430   25.3550   41.4100 N   0  0  0  0  0  0  0  0  0  0  0  0
   39.0000   24.5500   42.5250 C   0  0  0  0  0  0  0  0  0  0  0  0
   40.0880   25.1710   43.4240 C   0  0  0  0  0  0  0  0  0  0  0  0
   41.3710   25.1020   42.6440 C   0  0  0  0  0  0  0  0  0  0  0  0
   41.1500   25.9370   41.3950 C   0  0  0  0  0  0  0  0  0  0  0  0
   39.8870   25.6240   40.6470 C   0  0  2  0  0  0  0  0  0  0  0  0
   38.1720   24.1270   43.0900 H   0  0  0  0  0  0  0  0  0  0  0  0
   39.5240   23.6300   42.1200 H   0  0  0  0  0  0  0  0  0  0  0  0
   40.1430   24.5680   44.3600 H   0  0  0  0  0  0  0  0  0  0  0  0
   39.8490   26.2370   43.6090 H   0  0  0  0  0  0  0  0  0  0  0  0
   42.2230   25.5310   43.1700 H   0  0  0  0  0  0  0  0  0  0  0  0
   41.5520   24.0600   42.3250 H   0  0  0  0  0  0  0  0  0  0  0  0
   41.1750   27.0190   41.5980 H   0  0  0  0  0  0  0  0  0  0  0  0
   42.0250   25.7190   40.7240 H   0  0  0  0  0  0  0  0  0  0  0  0
   40.1020   24.7390   39.9910 H   0  0  0  0  0  0  0  0  0  0  0  0
   39.6660   26.7690   39.6690 C   0  0  0  0  0  0  0  0  0  0  0  0
   40.6560   27.1570   39.3560 H   0  0  0  0  0  0  0  0  0  0  0  0
   39.1280   26.4170   38.7700 H   0  0  0  0  0  0  0  0  0  0  0  0
   39.1130   27.5830   40.1630 H   0  0  0  0  0  0  0  0  0  0  0  0
  1  4  1  1  0  0  0
  2  1  1  0  0  0  0
  2  6  1  0  0  0  0
  3  2  1  0  0  0  0
  3  1  1  0  0  0  0
  3  7  1  1  0  0  0
  5  2  1  0  0  0  0
  8 14  1  0  0  0  0
  8  9  1  0  0  0  0
  9  1  1  0  0  0  0
 10  9  2  0  0  0  0
 10 15  1  0  0  0  0
 11 10  1  0  0  0  0
 12 13  1  0  0  0  0
 12 11  2  0  0  0  0
 13  8  2  0  0  0  0
 16 17  1  0  0  0  0
 17 18  1  0  0  0  0
 18 19  2  0  0  0  0
 18 12  1  0  0  0  0
 19 20  1  0  0  0  0
 21 22  1  0  0  0  0
 21 19  1  0  0  0  0
 23 21  2  0  0  0  0
 24 23  1  0  0  0  0
 24 17  2  0  0  0  0
 25  3  1  0  0  0  0
 26 25  1  0  0  0  0
 27 25  1  0  0  0  0
 28 25  1  0  0  0  0
 28 29  1  0  0  0  0
 29 34  1  0  0  0  0
 29 30  1  0  0  0  0
 30 37  1  0  0  0  0
 30 36  1  0  0  0  0
 31 38  1  0  0  0  0
 31 30  1  0  0  0  0
 32 40  1  0  0  0  0
 32 31  1  0  0  0  0
 33 42  1  6  0  0  0
 33 32  1  0  0  0  0
 33 28  1  0  0  0  0
 35 29  1  0  0  0  0
 39 31  1  0  0  0  0
 41 32  1  0  0  0  0
 43 46  1  0  0  0  0
 43 33  1  0  0  0  0
 44 43  1  0  0  0  0
 45 43  1  0  0  0  0
M  END
>  <minimizedAffinity>
-5.41898632

$$$$

 OpenBabel03252500383D

 46 49  0  0  1  0  0  0  0  0999 V2000
   37.0410   31.5850   39.4070 C   0  0  1  0  0  0  0  0  0  0  0  0
   37.3120   32.8510   39.9320 C   0  0  0  0  0  0  0  0  0  0  0  0
   38.1810   32.4570   38.8070 C   0  0  1  0  0  0  0  0  0  0  0  0
   36.1580   31.4280   38.7310 H   0  0  0  0  0  0  0  0  0  0  0  0
   37.8480   32.9280   40.9240 H   0  0  0  0  0  0  0  0  0  0  0  0
   36.6160   33.6930   39.8060 H   0  0  0  0  0  0  0  0  0  0  0  0
   37.9600   32.6870   37.7570 H   0  0  0  0  0  0  0  0  0  0  0  0
   37.4290   30.1460   41.4100 C   0  0  0  0  0  0  0  0  0  0  0  0
   37.4540   30.2690   39.9830 C   0  0  0  0  0  0  0  0  0  0  0  0
   37.8440   29.2140   39.2210 C   0  0  0  0  0  0  0  0  0  0  0  0
   38.2020   28.0610   39.8790 N   0  0  0  0  0  0  0  0  0  0  0  0
   38.1740   27.9560   41.2230 C   0  0  0  0  0  0  0  0  0  0  0  0
   37.7860   29.0000   42.0340 N   0  0  0  0  0  0  0  0  0  0  0  0
   37.1280   30.9520   42.0600 H   0  0  0  0  0  0  0  0  0  0  0  0
   37.8690   29.2920   38.1430 H   0  0  0  0  0  0  0  0  0  0  0  0
   36.6610   25.6770   40.9780 F   0  0  0  0  0  0  0  0  0  0  0  0
   37.8050   25.5720   41.7250 C   0  0  0  0  0  0  0  0  0  0  0  0
   38.5620   26.7160   41.8470 C   0  0  0  0  0  0  0  0  0  0  0  0
   39.7190   26.6520   42.5900 C   0  0  0  0  0  0  0  0  0  0  0  0
   40.3800   27.4890   42.7460 H   0  0  0  0  0  0  0  0  0  0  0  0
   40.1060   25.4580   43.1980 C   0  0  0  0  0  0  0  0  0  0  0  0
   40.9990   25.3160   43.8000 H   0  0  0  0  0  0  0  0  0  0  0  0
   39.3180   24.3180   43.0560 C   0  0  0  0  0  3  0  0  0  0  0  0
   38.1710   24.3900   42.3160 C   0  0  0  0  0  3  0  0  0  0  0  0
   39.5950   32.0740   39.0520 C   0  0  0  0  0  0  0  0  0  0  0  0
   40.1280   32.0800   38.0600 H   0  0  0  0  0  0  0  0  0  0  0  0
   39.6530   31.0730   39.4760 H   0  0  0  0  0  0  0  0  0  0  0  0
   40.1410   33.0420   39.9360 N   0  0  0  0  0  0  0  0  0  0  0  0
   40.4630   34.3020   39.4190 C   0  0  0  0  0  0  0  0  0  0  0  0
   41.9220   34.3460   38.9200 C   0  0  0  0  0  0  0  0  0  0  0  0
   42.7890   34.2400   40.1420 C   0  0  0  0  0  0  0  0  0  0  0  0
   42.4660   32.8970   40.7740 C   0  0  0  0  0  0  0  0  0  0  0  0
   41.0020   32.6290   40.9600 C   0  0  2  0  0  0  0  0  0  0  0  0
   39.7690   34.8060   38.7500 H   0  0  0  0  0  0  0  0  0  0  0  0
   40.4980   34.9960   40.3150 H   0  0  0  0  0  0  0  0  0  0  0  0
   42.0730   35.3150   38.3910 H   0  0  0  0  0  0  0  0  0  0  0  0
   42.1170   33.4660   38.2760 H   0  0  0  0  0  0  0  0  0  0  0  0
   43.8550   34.2410   39.9200 H   0  0  0  0  0  0  0  0  0  0  0  0
   42.5070   35.0280   40.8630 H   0  0  0  0  0  0  0  0  0  0  0  0
   42.9080   32.0520   40.2230 H   0  0  0  0  0  0  0  0  0  0  0  0
   42.9580   32.9100   41.7840 H   0  0  0  0  0  0  0  0  0  0  0  0
   40.6930   33.1270   41.9170 H   0  0  0  0  0  0  0  0  0  0  0  0
   40.8680   31.1420   41.2550 C   0  0  0  0  0  0  0  0  0  0  0  0
   41.7750   30.8090   41.7990 H   0  0  0  0  0  0  0  0  0  0  0  0
   39.9860   30.9470   41.8930 H   0  0  0  0  0  0  0  0  0  0  0  0
   40.8000   30.5760   40.3120 H   0  0  0  0  0  0  0  0  0  0  0  0
  1  4  1  6  0  0  0
  1  2  1  0  0  0  0
  1  9  1  0  0  0  0
  2  5  1  0  0  0  0
  3  7  1  6  0  0  0
  3 25  1  0  0  0  0
  3  1  1  0  0  0  0
  3  2  1  0  0  0  0
  6  2  1  0  0  0  0
  8 13  1  0  0  0  0
  8 14  1  0  0  0  0
  9  8  2  0  0  0  0
 10 11  2  0  0  0  0
 10  9  1  0  0  0  0
 11 12  1  0  0  0  0
 12 18  1  0  0  0  0
 12 13  2  0  0  0  0
 15 10  1  0  0  0  0
 16 17  1  0  0  0  0
 17 18  2  0  0  0  0
 17 24  1  0  0  0  0
 18 19  1  0  0  0  0
 19 20  1  0  0  0  0
 19 21  2  0  0  0  0
 21 22  1  0  0  0  0
 23 21  1  0  0  0  0
 24 23  2  0  0  0  0
 25 27  1  0  0  0  0
 25 28  1  0  0  0  0
 26 25  1  0  0  0  0
 28 33  1  0  0  0  0
 29 28  1  0  0  0  0
 29 35  1  0  0  0  0
 30 29  1  0  0  0  0
 30 31  1  0  0  0  0
 31 32  1  0  0  0  0
 31 39  1  0  0  0  0
 32 33  1  0  0  0  0
 32 41  1  0  0  0  0
 33 43  1  0  0  0  0
 33 42  1  1  0  0  0
 34 29  1  0  0  0  0
 36 30  1  0  0  0  0
 37 30  1  0  0  0  0
 38 31  1  0  0  0  0
 40 32  1  0  0  0  0
 43 44  1  0  0  0  0
 43 45  1  0  0  0  0
 46 43  1  0  0  0  0
M  END
>  <minimizedAffinity>
-5.40649796

$$$$

 OpenBabel03252500383D

 46 49  0  0  1  0  0  0  0  0999 V2000
   39.6280   30.4950   42.7870 C   0  0  1  0  0  0  0  0  0  0  0  0
   40.9880   30.8110   42.8330 C   0  0  0  0  0  0  0  0  0  0  0  0
   40.2300   31.5250   41.7880 C   0  0  1  0  0  0  0  0  0  0  0  0
   38.9180   30.9260   43.5420 H   0  0  0  0  0  0  0  0  0  0  0  0
   41.7370   30.0670   42.4330 H   0  0  0  0  0  0  0  0  0  0  0  0
   41.4230   31.3810   43.6670 H   0  0  0  0  0  0  0  0  0  0  0  0
   39.7610   32.5050   41.9370 H   0  0  0  0  0  0  0  0  0  0  0  0
   37.5870   29.2670   42.0350 C   0  0  0  0  0  0  0  0  0  0  0  0
   39.0130   29.2740   42.1810 C   0  0  0  0  0  0  0  0  0  0  0  0
   39.7380   28.1990   41.7780 C   0  0  0  0  0  0  0  0  0  0  0  0
   39.0460   27.1390   41.2400 N   0  0  0  0  0  0  0  0  0  0  0  0
   37.7030   27.1450   41.1060 C   0  0  0  0  0  0  0  0  0  0  0  0
   36.9300   28.2130   41.5020 N   0  0  0  0  0  0  0  0  0  0  0  0
   36.9660   30.0950   42.3400 H   0  0  0  0  0  0  0  0  0  0  0  0
   40.8130   28.1880   41.8820 H   0  0  0  0  0  0  0  0  0  0  0  0
   37.3640   24.8120   42.5160 F   0  0  0  0  0  0  0  0  0  0  0  0
   36.8720   24.8290   41.2370 C   0  0  0  0  0  0  0  0  0  0  0  0
   37.0430   25.9990   40.5320 C   0  0  0  0  0  0  0  0  0  0  0  0
   36.5620   26.0560   39.2430 C   0  0  0  0  0  0  0  0  0  0  0  0
   36.6450   26.9230   38.6090 H   0  0  0  0  0  0  0  0  0  0  0  0
   35.9210   24.9540   38.6770 C   0  0  0  0  0  0  0  0  0  0  0  0
   35.5120   24.9090   37.6720 H   0  0  0  0  0  0  0  0  0  0  0  0
   35.7640   23.7850   39.4170 C   0  0  0  0  0  3  0  0  0  0  0  0
   36.2430   23.7370   40.6960 C   0  0  0  0  0  3  0  0  0  0  0  0
   40.3870   31.1460   40.3610 C   0  0  0  0  0  0  0  0  0  0  0  0
   39.9040   30.1380   40.2180 H   0  0  0  0  0  0  0  0  0  0  0  0
   41.4400   31.0700   40.0980 H   0  0  0  0  0  0  0  0  0  0  0  0
   39.7320   32.1430   39.5910 N   0  0  0  0  0  0  0  0  0  0  0  0
   38.5210   32.6580   40.0670 C   0  0  0  0  0  0  0  0  0  0  0  0
   37.3210   31.8530   39.5260 C   0  0  0  0  0  0  0  0  0  0  0  0
   37.2590   32.1280   38.0510 C   0  0  0  0  0  0  0  0  0  0  0  0
   38.5660   31.6180   37.4710 C   0  0  0  0  0  0  0  0  0  0  0  0
   39.7960   32.0850   38.1930 C   0  0  2  0  0  0  0  0  0  0  0  0
   38.4200   32.9190   41.1180 H   0  0  0  0  0  0  0  0  0  0  0  0
   38.3910   33.6560   39.5460 H   0  0  0  0  0  0  0  0  0  0  0  0
   36.4050   32.2120   40.0510 H   0  0  0  0  0  0  0  0  0  0  0  0
   37.5080   30.7720   39.6730 H   0  0  0  0  0  0  0  0  0  0  0  0
   36.4550   31.5980   37.5430 H   0  0  0  0  0  0  0  0  0  0  0  0
   37.2180   33.2200   37.8810 H   0  0  0  0  0  0  0  0  0  0  0  0
   38.5990   30.5190   37.4010 H   0  0  0  0  0  0  0  0  0  0  0  0
   38.6040   32.0050   36.4170 H   0  0  0  0  0  0  0  0  0  0  0  0
   40.0450   33.1050   37.7980 H   0  0  0  0  0  0  0  0  0  0  0  0
   40.9420   31.2080   37.7090 C   0  0  0  0  0  0  0  0  0  0  0  0
   40.7440   30.9210   36.6570 H   0  0  0  0  0  0  0  0  0  0  0  0
   41.9000   31.7590   37.7480 H   0  0  0  0  0  0  0  0  0  0  0  0
   40.9950   30.2900   38.3160 H   0  0  0  0  0  0  0  0  0  0  0  0
  1  2  1  0  0  0  0
  1  4  1  1  0  0  0
  2  6  1  0  0  0  0
  3  7  1  1  0  0  0
  3  1  1  0  0  0  0
  3  2  1  0  0  0  0
  5  2  1  0  0  0  0
  8  9  1  0  0  0  0
  8 14  1  0  0  0  0
  9  1  1  0  0  0  0
 10 15  1  0  0  0  0
 10  9  2  0  0  0  0
 11 10  1  0  0  0  0
 12 11  2  0  0  0  0
 12 13  1  0  0  0  0
 13  8  2  0  0  0  0
 17 16  1  0  0  0  0
 18 12  1  0  0  0  0
 18 17  2  0  0  0  0
 19 18  1  0  0  0  0
 20 19  1  0  0  0  0
 21 19  2  0  0  0  0
 21 23  1  0  0  0  0
 22 21  1  0  0  0  0
 23 24  2  0  0  0  0
 24 17  1  0  0  0  0
 25  3  1  0  0  0  0
 26 25  1  0  0  0  0
 27 25  1  0  0  0  0
 28 29  1  0  0  0  0
 28 25  1  0  0  0  0
 29 34  1  0  0  0  0
 30 37  1  0  0  0  0
 30 36  1  0  0  0  0
 30 29  1  0  0  0  0
 31 30  1  0  0  0  0
 32 31  1  0  0  0  0
 32 33  1  0  0  0  0
 33 42  1  6  0  0  0
 33 28  1  0  0  0  0
 35 29  1  0  0  0  0
 38 31  1  0  0  0  0
 39 31  1  0  0  0  0
 40 32  1  0  0  0  0
 41 32  1  0  0  0  0
 43 45  1  0  0  0  0
 43 33  1  0  0  0  0
 43 46  1  0  0  0  0
 44 43  1  0  0  0  0
M  END
>  <minimizedAffinity>
-5.34380102

$$$$
