
 OpenBabel03252508323D

 32 34  0  0  1  0  0  0  0  0999 V2000
   45.3090   34.0260   42.1410 N   0  0  0  0  0  0  0  0  0  0  0  0
   46.2900   33.3550   41.3320 C   0  0  1  0  0  0  0  0  0  0  0  0
   46.1220   33.5810   39.8660 C   0  0  0  0  0  0  0  0  0  0  0  0
   44.8000   33.6200   39.3820 N   0  0  0  0  0  0  0  0  0  0  0  0
   43.7850   34.0810   40.2390 C   0  0  0  0  0  0  0  0  0  0  0  0
   44.3880   34.8430   41.4100 C   0  0  0  0  0  0  0  0  0  0  0  0
   46.2730   32.2730   41.5700 H   0  0  0  0  0  0  0  0  0  0  0  0
   46.6350   34.5360   39.5980 H   0  0  0  0  0  0  0  0  0  0  0  0
   46.7220   32.7840   39.3520 H   0  0  0  0  0  0  0  0  0  0  0  0
   44.5230   32.8990   38.7030 H   0  0  0  0  0  0  0  0  0  0  0  0
   43.2630   33.1960   40.6740 H   0  0  0  0  0  0  0  0  0  0  0  0
   43.0130   34.7040   39.7800 H   0  0  0  0  0  0  0  0  0  0  0  0
   44.8550   35.7490   40.9760 H   0  0  0  0  0  0  0  0  0  0  0  0
   43.5430   35.1520   42.0380 H   0  0  0  0  0  0  0  0  0  0  0  0
   45.0070   34.9050   44.3320 C   0  0  0  0  0  0  0  0  0  0  0  0
   45.3590   33.8150   43.5410 C   0  0  0  0  0  0  0  0  0  0  0  0
   45.7170   32.6450   44.1860 C   0  0  0  0  0  0  0  0  0  0  0  0
   45.7190   32.5820   45.5460 N   0  0  0  0  0  0  0  0  0  0  0  0
   45.3700   33.6680   46.2850 C   0  0  0  0  0  0  0  0  0  0  0  0
   45.0170   34.8180   45.6720 N   0  0  0  0  0  0  0  0  0  0  0  0
   44.7020   35.9000   44.0490 H   0  0  0  0  0  0  0  0  0  0  0  0
   45.9850   31.8110   43.5540 H   0  0  0  0  0  0  0  0  0  0  0  0
   45.4110   33.4940   47.3600 H   0  0  0  0  0  0  0  0  0  0  0  0
   48.4530   31.8970   42.5110 F   0  0  0  0  0  0  0  0  0  0  0  0
   48.6600   33.2240   42.2640 C   0  0  0  0  0  0  0  0  0  0  0  0
   47.6300   33.9430   41.6970 C   0  0  0  0  0  0  0  0  0  0  0  0
   47.9090   35.2660   41.4780 C   0  0  0  0  0  0  0  0  0  0  0  0
   47.2020   35.9320   41.0470 H   0  0  0  0  0  0  0  0  0  0  0  0
   49.1250   35.8580   41.7950 C   0  0  0  0  0  0  0  0  0  0  0  0
   49.3210   36.9130   41.6110 H   0  0  0  0  0  0  0  0  0  0  0  0
   50.1130   35.0730   42.3630 C   0  0  0  0  0  3  0  0  0  0  0  0
   49.8660   33.7530   42.5930 C   0  0  0  0  0  3  0  0  0  0  0  0
  1 16  1  0  0  0  0
  2  7  1  1  0  0  0
  2 26  1  0  0  0  0
  2  1  1  0  0  0  0
  3  2  1  0  0  0  0
  4  3  1  0  0  0  0
  4  5  1  0  0  0  0
  5 11  1  0  0  0  0
  5  6  1  0  0  0  0
  6 14  1  0  0  0  0
  6  1  1  0  0  0  0
  8  3  1  0  0  0  0
  9  3  1  0  0  0  0
 10  4  1  0  0  0  0
 12  5  1  0  0  0  0
 13  6  1  0  0  0  0
 15 20  1  0  0  0  0
 16 17  1  0  0  0  0
 16 15  2  0  0  0  0
 17 18  2  0  0  0  0
 18 19  1  0  0  0  0
 19 23  1  0  0  0  0
 20 19  2  0  0  0  0
 21 15  1  0  0  0  0
 22 17  1  0  0  0  0
 25 24  1  0  0  0  0
 25 32  1  0  0  0  0
 26 25  2  0  0  0  0
 27 26  1  0  0  0  0
 27 29  2  0  0  0  0
 28 27  1  0  0  0  0
 29 31  1  0  0  0  0
 30 29  1  0  0  0  0
 31 32  2  0  0  0  0
M  END
>  <minimizedAffinity>
-5.33113289

>  <minimizedRMSD>
2.12488914

$$$$
