
 OpenBabel03242519233D

 34 36  0  0  0  0  0  0  0  0999 V2000
   36.7030   28.2920   41.6310 C   0  0  0  0  0  0  0  0  0  0  0  0
   37.0310   29.5680   42.1260 C   0  0  0  0  0  0  0  0  0  0  0  0
   36.7160   30.7110   41.3780 C   0  0  0  0  0  0  0  0  0  0  0  0
   36.0850   30.4980   40.1750 N   0  0  0  0  0  0  0  0  0  0  0  0
   35.7790   29.2530   39.7230 C   0  0  0  0  0  0  0  0  0  0  0  0
   36.0860   28.1740   40.4450 N   0  0  0  0  0  0  0  0  0  0  0  0
   37.5120   29.8120   43.0350 H   0  0  0  0  0  0  0  0  0  0  0  0
   36.9350   31.7140   41.6910 H   0  0  0  0  0  0  0  0  0  0  0  0
   37.0860   27.1440   42.4800 C   0  0  0  0  0  0  0  0  0  0  0  0
   37.9150   27.5370   43.6340 C   0  0  0  0  0  0  0  0  0  0  0  0
   39.3410   27.0730   43.5380 C   0  0  0  0  0  0  0  0  0  0  0  0
   39.4420   25.5710   43.3260 C   0  0  0  0  0  0  0  0  0  0  0  0
   38.4320   25.0350   42.3450 C   0  0  0  0  0  0  0  0  0  0  0  0
   37.7730   26.1400   41.5630 C   0  0  0  0  0  0  0  0  0  0  0  0
   36.1300   26.6230   42.7830 H   0  0  0  0  0  0  0  0  0  0  0  0
   37.9160   28.6010   43.8850 H   0  0  0  0  0  0  0  0  0  0  0  0
   37.4940   27.0220   44.5410 H   0  0  0  0  0  0  0  0  0  0  0  0
   39.8350   27.3140   44.5050 H   0  0  0  0  0  0  0  0  0  0  0  0
   39.9450   27.5260   42.7580 H   0  0  0  0  0  0  0  0  0  0  0  0
   39.3920   25.0140   44.2960 H   0  0  0  0  0  0  0  0  0  0  0  0
   40.4490   25.3340   42.9220 H   0  0  0  0  0  0  0  0  0  0  0  0
   37.6190   24.5680   42.9740 H   0  0  0  0  0  0  0  0  0  0  0  0
   38.7950   24.2670   41.6670 H   0  0  0  0  0  0  0  0  0  0  0  0
   36.9840   25.6830   40.9340 H   0  0  0  0  0  0  0  0  0  0  0  0
   38.4970   26.6350   40.8920 H   0  0  0  0  0  0  0  0  0  0  0  0
   33.0200   29.2460   39.5550 F   0  0  0  0  0  0  0  0  0  0  0  0
   33.7130   29.0910   38.3840 C   0  0  0  0  0  0  0  0  0  0  0  0
   35.1090   29.0900   38.4340 C   0  0  0  0  0  0  0  0  0  0  0  0
   35.8390   28.9360   37.2750 C   0  0  0  0  0  0  0  0  0  0  0  0
   36.9210   28.9310   37.2720 H   0  0  0  0  0  0  0  0  0  0  0  0
   35.1350   28.7850   36.0770 C   0  0  0  0  0  0  0  0  0  0  0  0
   35.6820   28.6640   35.1610 H   0  0  0  0  0  0  0  0  0  0  0  0
   33.7540   28.7840   36.0100 C   0  0  0  0  0  3  0  0  0  0  0  0
   33.0470   28.9390   37.1830 C   0  0  0  0  0  3  0  0  0  0  0  0
  1  2  1  0  0  0  0
  1  9  1  0  0  0  0
  2  7  1  0  0  0  0
  3  8  1  0  0  0  0
  3  2  2  0  0  0  0
  4  3  1  0  0  0  0
  5  4  2  0  0  0  0
  5  6  1  0  0  0  0
  6  1  2  0  0  0  0
  9 15  1  0  0  0  0
  9 10  1  0  0  0  0
 10 16  1  0  0  0  0
 10 17  1  0  0  0  0
 11 10  1  0  0  0  0
 11 18  1  0  0  0  0
 12 11  1  0  0  0  0
 12 20  1  0  0  0  0
 13 22  1  0  0  0  0
 13 12  1  0  0  0  0
 14 13  1  0  0  0  0
 14  9  1  0  0  0  0
 19 11  1  0  0  0  0
 21 12  1  0  0  0  0
 23 13  1  0  0  0  0
 24 14  1  0  0  0  0
 25 14  1  0  0  0  0
 27 28  1  0  0  0  0
 27 26  1  0  0  0  0
 28  5  1  0  0  0  0
 29 28  2  0  0  0  0
 30 29  1  0  0  0  0
 31 29  1  0  0  0  0
 32 31  1  0  0  0  0
 33 31  2  0  0  0  0
 33 34  1  0  0  0  0
 34 27  2  0  0  0  0
M  END
>  <minimizedAffinity>
-5.65781736

$$$$

 OpenBabel03242519233D

 34 36  0  0  0  0  0  0  0  0999 V2000
   37.3060   27.6990   41.1900 C   0  0  0  0  0  0  0  0  0  0  0  0
   36.5880   27.1450   40.1140 C   0  0  0  0  0  0  0  0  0  0  0  0
   36.2170   27.9530   39.0290 C   0  0  0  0  0  0  0  0  0  0  0  0
   36.5960   29.2730   39.0950 N   0  0  0  0  0  0  0  0  0  0  0  0
   37.2910   29.7810   40.1480 C   0  0  0  0  0  0  0  0  0  0  0  0
   37.6360   29.0000   41.1730 N   0  0  0  0  0  0  0  0  0  0  0  0
   36.2630   26.1470   39.9910 H   0  0  0  0  0  0  0  0  0  0  0  0
   35.6700   27.6010   38.1760 H   0  0  0  0  0  0  0  0  0  0  0  0
   37.6420   26.7760   42.2950 C   0  0  0  0  0  0  0  0  0  0  0  0
   38.3250   27.4500   43.4150 C   0  0  0  0  0  0  0  0  0  0  0  0
   39.7700   27.0650   43.5580 C   0  0  0  0  0  0  0  0  0  0  0  0
   39.9540   25.5620   43.6790 C   0  0  0  0  0  0  0  0  0  0  0  0
   39.0790   24.7740   42.7410 C   0  0  0  0  0  0  0  0  0  0  0  0
   38.4640   25.6500   41.6830 C   0  0  0  0  0  0  0  0  0  0  0  0
   36.6810   26.2710   42.6070 H   0  0  0  0  0  0  0  0  0  0  0  0
   38.2560   28.5410   43.4350 H   0  0  0  0  0  0  0  0  0  0  0  0
   37.8290   27.1070   44.3650 H   0  0  0  0  0  0  0  0  0  0  0  0
   40.1460   27.5320   44.4960 H   0  0  0  0  0  0  0  0  0  0  0  0
   40.4360   27.3850   42.7630 H   0  0  0  0  0  0  0  0  0  0  0  0
   39.8220   25.2140   44.7350 H   0  0  0  0  0  0  0  0  0  0  0  0
   41.0070   25.3100   43.4350 H   0  0  0  0  0  0  0  0  0  0  0  0
   38.2220   24.3960   43.3710 H   0  0  0  0  0  0  0  0  0  0  0  0
   39.5440   23.9060   42.2780 H   0  0  0  0  0  0  0  0  0  0  0  0
   37.7670   25.0250   41.0900 H   0  0  0  0  0  0  0  0  0  0  0  0
   39.2350   26.0410   40.9950 H   0  0  0  0  0  0  0  0  0  0  0  0
   39.4600   30.6550   41.6210 F   0  0  0  0  0  0  0  0  0  0  0  0
   38.7650   31.6040   40.9170 C   0  0  0  0  0  0  0  0  0  0  0  0
   37.6640   31.1940   40.1610 C   0  0  0  0  0  0  0  0  0  0  0  0
   36.9420   32.1210   39.4410 C   0  0  0  0  0  0  0  0  0  0  0  0
   36.0830   31.8430   38.8430 H   0  0  0  0  0  0  0  0  0  0  0  0
   37.3530   33.4550   39.4980 C   0  0  0  0  0  0  0  0  0  0  0  0
   36.8060   34.1940   38.9440 H   0  0  0  0  0  0  0  0  0  0  0  0
   38.4410   33.8770   40.2400 C   0  0  0  0  0  3  0  0  0  0  0  0
   39.1460   32.9310   40.9520 C   0  0  0  0  0  3  0  0  0  0  0  0
  1  9  1  0  0  0  0
  2  1  2  0  0  0  0
  3  4  2  0  0  0  0
  3  2  1  0  0  0  0
  4  5  1  0  0  0  0
  5 28  1  0  0  0  0
  5  6  2  0  0  0  0
  6  1  1  0  0  0  0
  7  2  1  0  0  0  0
  8  3  1  0  0  0  0
  9 15  1  0  0  0  0
  9 10  1  0  0  0  0
 10 16  1  0  0  0  0
 10 11  1  0  0  0  0
 10 17  1  0  0  0  0
 11 12  1  0  0  0  0
 11 18  1  0  0  0  0
 12 20  1  0  0  0  0
 13 22  1  0  0  0  0
 13 12  1  0  0  0  0
 14  9  1  0  0  0  0
 14 13  1  0  0  0  0
 19 11  1  0  0  0  0
 21 12  1  0  0  0  0
 23 13  1  0  0  0  0
 24 14  1  0  0  0  0
 25 14  1  0  0  0  0
 27 34  1  0  0  0  0
 27 26  1  0  0  0  0
 28 27  2  0  0  0  0
 29 31  2  0  0  0  0
 29 28  1  0  0  0  0
 30 29  1  0  0  0  0
 31 33  1  0  0  0  0
 32 31  1  0  0  0  0
 33 34  2  0  0  0  0
M  END
>  <minimizedAffinity>
-5.58195543

$$$$

 OpenBabel03242519233D

 34 36  0  0  0  0  0  0  0  0999 V2000
   37.2200   27.0320   41.5270 C   0  0  0  0  0  0  0  0  0  0  0  0
   37.1410   26.9930   42.9320 C   0  0  0  0  0  0  0  0  0  0  0  0
   37.3910   28.1520   43.6800 C   0  0  0  0  0  0  0  0  0  0  0  0
   37.7040   29.2840   42.9640 N   0  0  0  0  0  0  0  0  0  0  0  0
   37.7730   29.2920   41.6060 C   0  0  0  0  0  0  0  0  0  0  0  0
   37.5330   28.1810   40.9080 N   0  0  0  0  0  0  0  0  0  0  0  0
   36.9070   26.1680   43.5500 H   0  0  0  0  0  0  0  0  0  0  0  0
   37.3490   28.1980   44.7510 H   0  0  0  0  0  0  0  0  0  0  0  0
   36.9550   25.7600   40.8220 C   0  0  0  0  0  0  0  0  0  0  0  0
   36.9430   24.5960   41.7280 C   0  0  0  0  0  0  0  0  0  0  0  0
   38.1130   23.6720   41.5380 C   0  0  0  0  0  0  0  0  0  0  0  0
   38.2410   23.1980   40.1010 C   0  0  0  0  0  0  0  0  0  0  0  0
   37.9970   24.2850   39.0870 C   0  0  0  0  0  0  0  0  0  0  0  0
   38.0010   25.6500   39.7210 C   0  0  0  0  0  0  0  0  0  0  0  0
   35.9830   25.8890   40.2610 H   0  0  0  0  0  0  0  0  0  0  0  0
   36.8480   24.8170   42.7950 H   0  0  0  0  0  0  0  0  0  0  0  0
   36.0340   23.9830   41.4740 H   0  0  0  0  0  0  0  0  0  0  0  0
   37.9370   22.7790   42.1780 H   0  0  0  0  0  0  0  0  0  0  0  0
   39.0870   24.0650   41.8120 H   0  0  0  0  0  0  0  0  0  0  0  0
   37.5890   22.3110   39.8990 H   0  0  0  0  0  0  0  0  0  0  0  0
   39.2740   22.8240   39.9390 H   0  0  0  0  0  0  0  0  0  0  0  0
   36.9470   24.1170   38.7100 H   0  0  0  0  0  0  0  0  0  0  0  0
   38.6540   24.2780   38.2200 H   0  0  0  0  0  0  0  0  0  0  0  0
   37.7260   26.3860   38.9390 H   0  0  0  0  0  0  0  0  0  0  0  0
   39.0070   25.9110   40.0930 H   0  0  0  0  0  0  0  0  0  0  0  0
   35.8270   31.1630   41.0150 F   0  0  0  0  0  0  0  0  0  0  0  0
   37.1050   31.4510   40.6170 C   0  0  0  0  0  0  0  0  0  0  0  0
   38.1130   30.5260   40.9010 C   0  0  0  0  0  0  0  0  0  0  0  0
   39.4110   30.7830   40.5150 C   0  0  0  0  0  0  0  0  0  0  0  0
   40.2190   30.0910   40.7170 H   0  0  0  0  0  0  0  0  0  0  0  0
   39.6660   31.9820   39.8450 C   0  0  0  0  0  0  0  0  0  0  0  0
   40.6700   32.2040   39.5350 H   0  0  0  0  0  0  0  0  0  0  0  0
   38.6810   32.9080   39.5560 C   0  0  0  0  0  3  0  0  0  0  0  0
   37.3910   32.6270   39.9520 C   0  0  0  0  0  3  0  0  0  0  0  0
  1  2  1  0  0  0  0
  2  7  1  0  0  0  0
  2  3  2  0  0  0  0
  3  8  1  0  0  0  0
  4  3  1  0  0  0  0
  5  4  2  0  0  0  0
  6  1  2  0  0  0  0
  6  5  1  0  0  0  0
  9  1  1  0  0  0  0
  9 10  1  0  0  0  0
 10 16  1  0  0  0  0
 11 10  1  0  0  0  0
 11 19  1  0  0  0  0
 11 18  1  0  0  0  0
 12 11  1  0  0  0  0
 13 14  1  0  0  0  0
 13 12  1  0  0  0  0
 14 25  1  0  0  0  0
 14  9  1  0  0  0  0
 15  9  1  0  0  0  0
 17 10  1  0  0  0  0
 20 12  1  0  0  0  0
 21 12  1  0  0  0  0
 22 13  1  0  0  0  0
 23 13  1  0  0  0  0
 24 14  1  0  0  0  0
 27 28  1  0  0  0  0
 27 26  1  0  0  0  0
 28  5  1  0  0  0  0
 29 30  1  0  0  0  0
 29 28  2  0  0  0  0
 31 29  1  0  0  0  0
 32 31  1  0  0  0  0
 33 31  2  0  0  0  0
 33 34  1  0  0  0  0
 34 27  2  0  0  0  0
M  END
>  <minimizedAffinity>
-5.4652009

$$$$

 OpenBabel03242519233D

 34 36  0  0  0  0  0  0  0  0999 V2000
   37.0040   30.2380   40.8220 C   0  0  0  0  0  0  0  0  0  0  0  0
   37.2840   31.6170   40.7870 C   0  0  0  0  0  0  0  0  0  0  0  0
   37.2460   32.3080   39.5680 C   0  0  0  0  0  0  0  0  0  0  0  0
   36.9260   31.5650   38.4560 N   0  0  0  0  0  0  0  0  0  0  0  0
   36.6600   30.2340   38.5200 C   0  0  0  0  0  0  0  0  0  0  0  0
   36.7010   29.5890   39.6870 N   0  0  0  0  0  0  0  0  0  0  0  0
   37.5350   32.2530   41.5930 H   0  0  0  0  0  0  0  0  0  0  0  0
   37.4470   33.3570   39.4650 H   0  0  0  0  0  0  0  0  0  0  0  0
   37.0820   29.5890   42.1490 C   0  0  0  0  0  0  0  0  0  0  0  0
   38.4350   29.6400   42.7320 C   0  0  0  0  0  0  0  0  0  0  0  0
   39.1170   28.3020   42.7910 C   0  0  0  0  0  0  0  0  0  0  0  0
   38.2830   27.2660   43.5260 C   0  0  0  0  0  0  0  0  0  0  0  0
   36.8170   27.3240   43.1850 C   0  0  0  0  0  0  0  0  0  0  0  0
   36.5610   28.1690   41.9660 C   0  0  0  0  0  0  0  0  0  0  0  0
   36.3030   30.0800   42.8030 H   0  0  0  0  0  0  0  0  0  0  0  0
   39.1260   30.3580   42.2830 H   0  0  0  0  0  0  0  0  0  0  0  0
   38.3260   29.9670   43.8030 H   0  0  0  0  0  0  0  0  0  0  0  0
   40.0660   28.4380   43.3540 H   0  0  0  0  0  0  0  0  0  0  0  0
   39.3810   27.8520   41.8390 H   0  0  0  0  0  0  0  0  0  0  0  0
   38.4370   27.3230   44.6340 H   0  0  0  0  0  0  0  0  0  0  0  0
   38.6450   26.2530   43.2480 H   0  0  0  0  0  0  0  0  0  0  0  0
   36.3260   27.8610   44.0480 H   0  0  0  0  0  0  0  0  0  0  0  0
   36.3190   26.3630   43.0790 H   0  0  0  0  0  0  0  0  0  0  0  0
   35.4640   28.2420   41.8300 H   0  0  0  0  0  0  0  0  0  0  0  0
   36.9840   27.6980   41.0610 H   0  0  0  0  0  0  0  0  0  0  0  0
   34.0860   29.3320   38.0730 F   0  0  0  0  0  0  0  0  0  0  0  0
   35.0170   29.0550   37.1070 C   0  0  0  0  0  0  0  0  0  0  0  0
   36.3270   29.4970   37.3020 C   0  0  0  0  0  0  0  0  0  0  0  0
   37.2900   29.2360   36.3510 C   0  0  0  0  0  0  0  0  0  0  0  0
   38.3160   29.5630   36.4660 H   0  0  0  0  0  0  0  0  0  0  0  0
   36.9040   28.5280   35.2100 C   0  0  0  0  0  0  0  0  0  0  0  0
   37.6370   28.3140   34.4550 H   0  0  0  0  0  0  0  0  0  0  0  0
   35.6120   28.0830   35.0010 C   0  0  0  0  0  3  0  0  0  0  0  0
   34.6680   28.3560   35.9680 C   0  0  0  0  0  3  0  0  0  0  0  0
  1  9  1  0  0  0  0
  2  1  1  0  0  0  0
  2  7  1  0  0  0  0
  3  2  2  0  0  0  0
  4  5  2  0  0  0  0
  4  3  1  0  0  0  0
  5  6  1  0  0  0  0
  6  1  2  0  0  0  0
  8  3  1  0  0  0  0
  9 10  1  0  0  0  0
  9 15  1  0  0  0  0
 10 11  1  0  0  0  0
 10 17  1  0  0  0  0
 11 18  1  0  0  0  0
 11 12  1  0  0  0  0
 12 20  1  0  0  0  0
 13 12  1  0  0  0  0
 13 22  1  0  0  0  0
 14  9  1  0  0  0  0
 14 13  1  0  0  0  0
 16 10  1  0  0  0  0
 19 11  1  0  0  0  0
 21 12  1  0  0  0  0
 23 13  1  0  0  0  0
 24 14  1  0  0  0  0
 25 14  1  0  0  0  0
 27 28  1  0  0  0  0
 27 26  1  0  0  0  0
 28  5  1  0  0  0  0
 29 30  1  0  0  0  0
 29 28  2  0  0  0  0
 31 29  1  0  0  0  0
 32 31  1  0  0  0  0
 33 31  2  0  0  0  0
 33 34  1  0  0  0  0
 34 27  2  0  0  0  0
M  END
>  <minimizedAffinity>
-5.40311575

$$$$

 OpenBabel03242519233D

 34 36  0  0  0  0  0  0  0  0999 V2000
   38.2770   29.8150   41.5320 C   0  0  0  0  0  0  0  0  0  0  0  0
   39.4370   30.0920   42.2800 C   0  0  0  0  0  0  0  0  0  0  0  0
   40.2310   29.0390   42.7550 C   0  0  0  0  0  0  0  0  0  0  0  0
   39.8090   27.7680   42.4440 N   0  0  0  0  0  0  0  0  0  0  0  0
   38.6840   27.5310   41.7180 C   0  0  0  0  0  0  0  0  0  0  0  0
   37.9370   28.5430   41.2740 N   0  0  0  0  0  0  0  0  0  0  0  0
   39.8250   31.0350   42.5580 H   0  0  0  0  0  0  0  0  0  0  0  0
   41.1270   29.1730   43.3300 H   0  0  0  0  0  0  0  0  0  0  0  0
   37.4940   30.9860   41.0840 C   0  0  0  0  0  0  0  0  0  0  0  0
   36.6010   30.6790   39.9520 C   0  0  0  0  0  0  0  0  0  0  0  0
   37.0230   31.3200   38.6600 C   0  0  0  0  0  0  0  0  0  0  0  0
   37.1780   32.8260   38.7920 C   0  0  0  0  0  0  0  0  0  0  0  0
   37.8510   33.2500   40.0710 C   0  0  0  0  0  0  0  0  0  0  0  0
   38.5000   32.0860   40.7720 C   0  0  0  0  0  0  0  0  0  0  0  0
   36.9380   31.3770   41.9870 H   0  0  0  0  0  0  0  0  0  0  0  0
   36.4110   29.6190   39.7630 H   0  0  0  0  0  0  0  0  0  0  0  0
   35.5940   31.1200   40.1890 H   0  0  0  0  0  0  0  0  0  0  0  0
   36.2210   31.1240   37.9140 H   0  0  0  0  0  0  0  0  0  0  0  0
   37.9490   30.9620   38.2230 H   0  0  0  0  0  0  0  0  0  0  0  0
   36.2000   33.3550   38.6620 H   0  0  0  0  0  0  0  0  0  0  0  0
   37.8060   33.1950   37.9540 H   0  0  0  0  0  0  0  0  0  0  0  0
   37.0190   33.5990   40.7500 H   0  0  0  0  0  0  0  0  0  0  0  0
   38.5600   34.0700   39.9830 H   0  0  0  0  0  0  0  0  0  0  0  0
   38.8920   32.4510   41.7420 H   0  0  0  0  0  0  0  0  0  0  0  0
   39.3530   31.6980   40.1870 H   0  0  0  0  0  0  0  0  0  0  0  0
   36.5620   26.3570   43.0440 F   0  0  0  0  0  0  0  0  0  0  0  0
   37.2080   25.5930   42.1090 C   0  0  0  0  0  0  0  0  0  0  0  0
   38.2850   26.1570   41.4210 C   0  0  0  0  0  0  0  0  0  0  0  0
   38.9590   25.4160   40.4730 C   0  0  0  0  0  0  0  0  0  0  0  0
   39.7980   25.8170   39.9190 H   0  0  0  0  0  0  0  0  0  0  0  0
   38.5250   24.1080   40.2380 C   0  0  0  0  0  0  0  0  0  0  0  0
   39.0340   23.5130   39.5050 H   0  0  0  0  0  0  0  0  0  0  0  0
   37.4610   23.5360   40.9100 C   0  0  0  0  0  3  0  0  0  0  0  0
   36.8050   24.2970   41.8540 C   0  0  0  0  0  3  0  0  0  0  0  0
  1  2  1  0  0  0  0
  2  7  1  0  0  0  0
  2  3  2  0  0  0  0
  3  8  1  0  0  0  0
  4  3  1  0  0  0  0
  5  4  2  0  0  0  0
  6  1  2  0  0  0  0
  6  5  1  0  0  0  0
  9  1  1  0  0  0  0
  9 15  1  0  0  0  0
 10 17  1  0  0  0  0
 10  9  1  0  0  0  0
 11 12  1  0  0  0  0
 11 10  1  0  0  0  0
 12 13  1  0  0  0  0
 13 22  1  0  0  0  0
 13 14  1  0  0  0  0
 14  9  1  0  0  0  0
 14 24  1  0  0  0  0
 16 10  1  0  0  0  0
 18 11  1  0  0  0  0
 19 11  1  0  0  0  0
 20 12  1  0  0  0  0
 21 12  1  0  0  0  0
 23 13  1  0  0  0  0
 25 14  1  0  0  0  0
 27 26  1  0  0  0  0
 28  5  1  0  0  0  0
 28 27  2  0  0  0  0
 29 28  1  0  0  0  0
 30 29  1  0  0  0  0
 31 29  2  0  0  0  0
 31 33  1  0  0  0  0
 32 31  1  0  0  0  0
 33 34  2  0  0  0  0
 34 27  1  0  0  0  0
M  END
>  <minimizedAffinity>
-5.37230158

$$$$

 OpenBabel03242519233D

 34 36  0  0  0  0  0  0  0  0999 V2000
   37.7120   27.1040   41.4840 C   0  0  0  0  0  0  0  0  0  0  0  0
   37.4080   26.9400   42.8480 C   0  0  0  0  0  0  0  0  0  0  0  0
   37.2890   28.0640   43.6780 C   0  0  0  0  0  0  0  0  0  0  0  0
   37.4830   29.2870   43.0810 N   0  0  0  0  0  0  0  0  0  0  0  0
   37.7750   29.4140   41.7590 C   0  0  0  0  0  0  0  0  0  0  0  0
   37.8860   28.3360   40.9820 N   0  0  0  0  0  0  0  0  0  0  0  0
   37.2450   26.0400   43.3770 H   0  0  0  0  0  0  0  0  0  0  0  0
   37.0590   28.0160   44.7250 H   0  0  0  0  0  0  0  0  0  0  0  0
   37.8320   25.8630   40.6880 C   0  0  0  0  0  0  0  0  0  0  0  0
   37.4560   26.0520   39.2750 C   0  0  0  0  0  0  0  0  0  0  0  0
   36.1740   25.3670   38.8950 C   0  0  0  0  0  0  0  0  0  0  0  0
   36.1980   23.8830   39.2220 C   0  0  0  0  0  0  0  0  0  0  0  0
   36.8230   23.5740   40.5570 C   0  0  0  0  0  0  0  0  0  0  0  0
   36.9870   24.8130   41.3970 C   0  0  0  0  0  0  0  0  0  0  0  0
   38.8900   25.4900   40.8150 H   0  0  0  0  0  0  0  0  0  0  0  0
   37.4110   27.0860   38.9230 H   0  0  0  0  0  0  0  0  0  0  0  0
   38.2520   25.5640   38.6480 H   0  0  0  0  0  0  0  0  0  0  0  0
   36.0550   25.4710   37.7930 H   0  0  0  0  0  0  0  0  0  0  0  0
   35.2660   25.7570   39.3440 H   0  0  0  0  0  0  0  0  0  0  0  0
   36.6830   23.2890   38.4070 H   0  0  0  0  0  0  0  0  0  0  0  0
   35.1540   23.5080   39.2540 H   0  0  0  0  0  0  0  0  0  0  0  0
   37.8670   23.2120   40.3260 H   0  0  0  0  0  0  0  0  0  0  0  0
   36.3350   22.7960   41.1380 H   0  0  0  0  0  0  0  0  0  0  0  0
   37.5320   24.5260   42.3180 H   0  0  0  0  0  0  0  0  0  0  0  0
   36.0050   25.2200   41.6970 H   0  0  0  0  0  0  0  0  0  0  0  0
   40.1280   30.8030   42.1790 F   0  0  0  0  0  0  0  0  0  0  0  0
   39.1720   31.4180   41.4130 C   0  0  0  0  0  0  0  0  0  0  0  0
   37.9720   30.7420   41.1810 C   0  0  0  0  0  0  0  0  0  0  0  0
   36.9880   31.3310   40.4160 C   0  0  0  0  0  0  0  0  0  0  0  0
   36.0450   30.8400   40.2130 H   0  0  0  0  0  0  0  0  0  0  0  0
   37.2420   32.6020   39.8940 C   0  0  0  0  0  0  0  0  0  0  0  0
   36.4910   33.0800   39.2940 H   0  0  0  0  0  0  0  0  0  0  0  0
   38.4250   33.2840   40.1130 C   0  0  0  0  0  3  0  0  0  0  0  0
   39.3920   32.6740   40.8830 C   0  0  0  0  0  3  0  0  0  0  0  0
  1  2  1  0  0  0  0
  2  7  1  0  0  0  0
  2  3  2  0  0  0  0
  3  8  1  0  0  0  0
  4  3  1  0  0  0  0
  5  4  2  0  0  0  0
  6  1  2  0  0  0  0
  6  5  1  0  0  0  0
  9 15  1  0  0  0  0
  9 14  1  0  0  0  0
  9  1  1  0  0  0  0
 10  9  1  0  0  0  0
 11 12  1  0  0  0  0
 11 10  1  0  0  0  0
 11 19  1  0  0  0  0
 12 21  1  0  0  0  0
 12 13  1  0  0  0  0
 13 23  1  0  0  0  0
 13 14  1  0  0  0  0
 14 25  1  0  0  0  0
 14 24  1  0  0  0  0
 16 10  1  0  0  0  0
 17 10  1  0  0  0  0
 18 11  1  0  0  0  0
 20 12  1  0  0  0  0
 22 13  1  0  0  0  0
 27 26  1  0  0  0  0
 28 27  1  0  0  0  0
 28  5  1  0  0  0  0
 29 28  2  0  0  0  0
 30 29  1  0  0  0  0
 31 33  2  0  0  0  0
 31 29  1  0  0  0  0
 32 31  1  0  0  0  0
 33 34  1  0  0  0  0
 34 27  2  0  0  0  0
M  END
>  <minimizedAffinity>
-5.36676741

$$$$

 OpenBabel03242519233D

 34 36  0  0  0  0  0  0  0  0999 V2000
   37.6550   30.3630   40.7480 C   0  0  0  0  0  0  0  0  0  0  0  0
   36.5310   30.2190   39.9130 C   0  0  0  0  0  0  0  0  0  0  0  0
   36.5480   30.7540   38.6170 C   0  0  0  0  0  0  0  0  0  0  0  0
   37.7020   31.4010   38.2400 N   0  0  0  0  0  0  0  0  0  0  0  0
   38.7730   31.5240   39.0680 C   0  0  0  0  0  0  0  0  0  0  0  0
   38.7410   31.0100   40.2990 N   0  0  0  0  0  0  0  0  0  0  0  0
   35.6150   29.7390   40.1290 H   0  0  0  0  0  0  0  0  0  0  0  0
   35.7300   30.6840   37.9260 H   0  0  0  0  0  0  0  0  0  0  0  0
   37.5420   29.7800   42.1020 C   0  0  0  0  0  0  0  0  0  0  0  0
   38.8420   29.6720   42.7890 C   0  0  0  0  0  0  0  0  0  0  0  0
   39.3200   28.2580   42.9570 C   0  0  0  0  0  0  0  0  0  0  0  0
   38.2960   27.3870   43.6650 C   0  0  0  0  0  0  0  0  0  0  0  0
   36.8820   27.6300   43.2060 C   0  0  0  0  0  0  0  0  0  0  0  0
   36.8390   28.4380   41.9370 C   0  0  0  0  0  0  0  0  0  0  0  0
   36.7950   30.4080   42.6710 H   0  0  0  0  0  0  0  0  0  0  0  0
   39.6590   30.2630   42.3670 H   0  0  0  0  0  0  0  0  0  0  0  0
   38.7030   30.0660   43.8330 H   0  0  0  0  0  0  0  0  0  0  0  0
   40.2360   28.2890   43.5880 H   0  0  0  0  0  0  0  0  0  0  0  0
   39.5860   27.7270   42.0480 H   0  0  0  0  0  0  0  0  0  0  0  0
   38.3750   27.4790   44.7780 H   0  0  0  0  0  0  0  0  0  0  0  0
   38.5290   26.3210   43.4590 H   0  0  0  0  0  0  0  0  0  0  0  0
   36.4110   28.2740   44.0040 H   0  0  0  0  0  0  0  0  0  0  0  0
   36.2610   26.7440   43.1010 H   0  0  0  0  0  0  0  0  0  0  0  0
   35.7770   28.6550   41.7100 H   0  0  0  0  0  0  0  0  0  0  0  0
   37.2560   27.8660   41.0890 H   0  0  0  0  0  0  0  0  0  0  0  0
   39.4500   33.9930   40.1100 F   0  0  0  0  0  0  0  0  0  0  0  0
   40.2850   33.4710   39.1570 C   0  0  0  0  0  0  0  0  0  0  0  0
   39.9710   32.2240   38.6110 C   0  0  0  0  0  0  0  0  0  0  0  0
   40.7880   31.6700   37.6490 C   0  0  0  0  0  0  0  0  0  0  0  0
   40.5790   30.7060   37.2020 H   0  0  0  0  0  0  0  0  0  0  0  0
   41.9180   32.3930   37.2570 C   0  0  0  0  0  0  0  0  0  0  0  0
   42.5690   31.9810   36.5110 H   0  0  0  0  0  0  0  0  0  0  0  0
   42.2430   33.6280   37.7880 C   0  0  0  0  0  3  0  0  0  0  0  0
   41.4090   34.1610   38.7470 C   0  0  0  0  0  3  0  0  0  0  0  0
  1  9  1  0  0  0  0
  2  7  1  0  0  0  0
  2  1  2  0  0  0  0
  3  2  1  0  0  0  0
  4  3  2  0  0  0  0
  4  5  1  0  0  0  0
  5  6  2  0  0  0  0
  6  1  1  0  0  0  0
  8  3  1  0  0  0  0
  9 15  1  0  0  0  0
  9 10  1  0  0  0  0
 10 11  1  0  0  0  0
 10 17  1  0  0  0  0
 11 18  1  0  0  0  0
 11 12  1  0  0  0  0
 12 20  1  0  0  0  0
 13 12  1  0  0  0  0
 13 22  1  0  0  0  0
 14  9  1  0  0  0  0
 14 13  1  0  0  0  0
 16 10  1  0  0  0  0
 19 11  1  0  0  0  0
 21 12  1  0  0  0  0
 23 13  1  0  0  0  0
 24 14  1  0  0  0  0
 25 14  1  0  0  0  0
 27 26  1  0  0  0  0
 28  5  1  0  0  0  0
 28 27  2  0  0  0  0
 29 28  1  0  0  0  0
 30 29  1  0  0  0  0
 31 29  2  0  0  0  0
 31 33  1  0  0  0  0
 32 31  1  0  0  0  0
 33 34  2  0  0  0  0
 34 27  1  0  0  0  0
M  END
>  <minimizedAffinity>
-5.32565117

$$$$

 OpenBabel03242519233D

 34 36  0  0  0  0  0  0  0  0999 V2000
   37.5190   30.7360   38.4690 C   0  0  0  0  0  0  0  0  0  0  0  0
   36.9340   30.3650   37.2440 C   0  0  0  0  0  0  0  0  0  0  0  0
   36.3540   29.0960   37.1000 C   0  0  0  0  0  0  0  0  0  0  0  0
   36.3990   28.2770   38.2030 N   0  0  0  0  0  0  0  0  0  0  0  0
   36.9710   28.6630   39.3740 C   0  0  0  0  0  0  0  0  0  0  0  0
   37.5190   29.8720   39.4960 N   0  0  0  0  0  0  0  0  0  0  0  0
   36.8600   30.9350   36.3570 H   0  0  0  0  0  0  0  0  0  0  0  0
   35.8900   28.7460   36.1980 H   0  0  0  0  0  0  0  0  0  0  0  0
   38.1180   32.0860   38.5250 C   0  0  0  0  0  0  0  0  0  0  0  0
   39.5760   32.0570   38.7460 C   0  0  0  0  0  0  0  0  0  0  0  0
   39.9900   32.5560   40.1010 C   0  0  0  0  0  0  0  0  0  0  0  0
   39.4590   33.9520   40.3850 C   0  0  0  0  0  0  0  0  0  0  0  0
   38.0360   34.1550   39.9350 C   0  0  0  0  0  0  0  0  0  0  0  0
   37.3640   32.8490   39.6060 C   0  0  0  0  0  0  0  0  0  0  0  0
   37.8300   32.6160   37.5690 H   0  0  0  0  0  0  0  0  0  0  0  0
   40.0700   31.0980   38.5670 H   0  0  0  0  0  0  0  0  0  0  0  0
   40.0410   32.7690   38.0100 H   0  0  0  0  0  0  0  0  0  0  0  0
   41.1010   32.6060   40.1120 H   0  0  0  0  0  0  0  0  0  0  0  0
   39.6970   31.9470   40.9510 H   0  0  0  0  0  0  0  0  0  0  0  0
   40.1280   34.7420   39.9580 H   0  0  0  0  0  0  0  0  0  0  0  0
   39.4850   34.1290   41.4800 H   0  0  0  0  0  0  0  0  0  0  0  0
   38.1030   34.7260   38.9640 H   0  0  0  0  0  0  0  0  0  0  0  0
   37.4070   34.7350   40.6060 H   0  0  0  0  0  0  0  0  0  0  0  0
   36.3590   33.0800   39.1980 H   0  0  0  0  0  0  0  0  0  0  0  0
   37.2270   32.2340   40.5130 H   0  0  0  0  0  0  0  0  0  0  0  0
   36.2730   29.5350   41.9030 F   0  0  0  0  0  0  0  0  0  0  0  0
   36.6320   28.2180   41.7780 C   0  0  0  0  0  0  0  0  0  0  0  0
   36.9890   27.7460   40.5130 C   0  0  0  0  0  0  0  0  0  0  0  0
   37.3560   26.4270   40.3500 C   0  0  0  0  0  0  0  0  0  0  0  0
   37.6390   26.0230   39.3860 H   0  0  0  0  0  0  0  0  0  0  0  0
   37.3510   25.6050   41.4800 C   0  0  0  0  0  0  0  0  0  0  0  0
   37.6320   24.5740   41.3770 H   0  0  0  0  0  0  0  0  0  0  0  0
   37.0000   26.0570   42.7390 C   0  0  0  0  0  3  0  0  0  0  0  0
   36.6380   27.3800   42.8750 C   0  0  0  0  0  3  0  0  0  0  0  0
  1  9  1  0  0  0  0
  1  6  1  0  0  0  0
  2  1  2  0  0  0  0
  3  2  1  0  0  0  0
  3  4  2  0  0  0  0
  4  5  1  0  0  0  0
  5  6  2  0  0  0  0
  5 28  1  0  0  0  0
  7  2  1  0  0  0  0
  8  3  1  0  0  0  0
  9 10  1  0  0  0  0
  9 14  1  0  0  0  0
 10 11  1  0  0  0  0
 11 18  1  0  0  0  0
 11 12  1  0  0  0  0
 11 19  1  0  0  0  0
 12 21  1  0  0  0  0
 13 12  1  0  0  0  0
 13 23  1  0  0  0  0
 14 13  1  0  0  0  0
 14 25  1  0  0  0  0
 15  9  1  0  0  0  0
 16 10  1  0  0  0  0
 17 10  1  0  0  0  0
 20 12  1  0  0  0  0
 22 13  1  0  0  0  0
 24 14  1  0  0  0  0
 27 26  1  0  0  0  0
 27 34  1  0  0  0  0
 28 27  2  0  0  0  0
 29 28  1  0  0  0  0
 29 31  2  0  0  0  0
 30 29  1  0  0  0  0
 31 33  1  0  0  0  0
 32 31  1  0  0  0  0
 33 34  2  0  0  0  0
M  END
>  <minimizedAffinity>
-5.23484039

$$$$

 OpenBabel03242519233D

 34 36  0  0  0  0  0  0  0  0999 V2000
   37.0590   28.8030   41.6630 C   0  0  0  0  0  0  0  0  0  0  0  0
   37.4750   28.9130   43.0030 C   0  0  0  0  0  0  0  0  0  0  0  0
   37.9730   27.7880   43.6760 C   0  0  0  0  0  0  0  0  0  0  0  0
   38.0230   26.6190   42.9550 N   0  0  0  0  0  0  0  0  0  0  0  0
   37.6150   26.5430   41.6600 C   0  0  0  0  0  0  0  0  0  0  0  0
   37.1420   27.6210   41.0330 N   0  0  0  0  0  0  0  0  0  0  0  0
   37.4680   29.7710   43.6210 H   0  0  0  0  0  0  0  0  0  0  0  0
   38.3080   27.7970   44.6960 H   0  0  0  0  0  0  0  0  0  0  0  0
   36.5350   30.0370   41.0390 C   0  0  0  0  0  0  0  0  0  0  0  0
   35.9820   29.8050   39.6920 C   0  0  0  0  0  0  0  0  0  0  0  0
   36.8070   30.4080   38.5900 C   0  0  0  0  0  0  0  0  0  0  0  0
   37.0410   31.8950   38.7960 C   0  0  0  0  0  0  0  0  0  0  0  0
   37.3520   32.2600   40.2240 C   0  0  0  0  0  0  0  0  0  0  0  0
   37.6750   31.0460   41.0530 C   0  0  0  0  0  0  0  0  0  0  0  0
   35.7780   30.4740   41.7550 H   0  0  0  0  0  0  0  0  0  0  0  0
   35.7680   28.7650   39.4310 H   0  0  0  0  0  0  0  0  0  0  0  0
   34.9890   30.3310   39.6420 H   0  0  0  0  0  0  0  0  0  0  0  0
   36.2390   30.2810   37.6420 H   0  0  0  0  0  0  0  0  0  0  0  0
   37.7870   29.9710   38.4270 H   0  0  0  0  0  0  0  0  0  0  0  0
   36.1880   32.5050   38.4050 H   0  0  0  0  0  0  0  0  0  0  0  0
   37.9100   32.2090   38.1810 H   0  0  0  0  0  0  0  0  0  0  0  0
   36.3920   32.6800   40.6450 H   0  0  0  0  0  0  0  0  0  0  0  0
   38.1200   33.0170   40.3610 H   0  0  0  0  0  0  0  0  0  0  0  0
   37.8010   31.3780   42.1030 H   0  0  0  0  0  0  0  0  0  0  0  0
   38.6250   30.5860   40.7270 H   0  0  0  0  0  0  0  0  0  0  0  0
   39.9850   25.7100   40.5060 F   0  0  0  0  0  0  0  0  0  0  0  0
   38.9040   24.8790   40.3730 C   0  0  0  0  0  0  0  0  0  0  0  0
   37.6910   25.2700   40.9460 C   0  0  0  0  0  0  0  0  0  0  0  0
   36.5830   24.4580   40.8310 C   0  0  0  0  0  0  0  0  0  0  0  0
   35.6260   24.7260   41.2610 H   0  0  0  0  0  0  0  0  0  0  0  0
   36.7260   23.2550   40.1350 C   0  0  0  0  0  0  0  0  0  0  0  0
   35.8770   22.6070   40.0330 H   0  0  0  0  0  0  0  0  0  0  0  0
   37.9190   22.8530   39.5630 C   0  0  0  0  0  3  0  0  0  0  0  0
   39.0120   23.6830   39.6910 C   0  0  0  0  0  3  0  0  0  0  0  0
  1  2  1  0  0  0  0
  2  7  1  0  0  0  0
  2  3  2  0  0  0  0
  3  8  1  0  0  0  0
  4  3  1  0  0  0  0
  5  4  2  0  0  0  0
  6  5  1  0  0  0  0
  6  1  2  0  0  0  0
  9 14  1  0  0  0  0
  9  1  1  0  0  0  0
  9 15  1  0  0  0  0
 10  9  1  0  0  0  0
 11 12  1  0  0  0  0
 11 10  1  0  0  0  0
 12 13  1  0  0  0  0
 13 23  1  0  0  0  0
 13 22  1  0  0  0  0
 13 14  1  0  0  0  0
 14 24  1  0  0  0  0
 16 10  1  0  0  0  0
 17 10  1  0  0  0  0
 18 11  1  0  0  0  0
 19 11  1  0  0  0  0
 20 12  1  0  0  0  0
 21 12  1  0  0  0  0
 25 14  1  0  0  0  0
 27 26  1  0  0  0  0
 27 28  1  0  0  0  0
 28  5  1  0  0  0  0
 29 28  2  0  0  0  0
 29 30  1  0  0  0  0
 31 29  1  0  0  0  0
 32 31  1  0  0  0  0
 33 34  1  0  0  0  0
 33 31  2  0  0  0  0
 34 27  2  0  0  0  0
M  END
>  <minimizedAffinity>
-5.20705986

$$$$
