
 OpenBabel03252507073D

 24 25  0  0  0  0  0  0  0  0999 V2000
   44.5450   36.0260   44.4480 C   0  0  0  0  0  0  0  0  0  0  0  0
   45.1840   35.9740   43.1870 C   0  0  0  0  0  0  0  0  0  0  0  0
   46.0810   34.9290   42.9720 C   0  0  0  0  0  0  0  0  0  0  0  0
   46.3000   34.0260   43.9580 N   0  0  0  0  0  0  0  0  0  0  0  0
   45.6790   34.1010   45.1470 C   0  0  0  0  0  0  0  0  0  0  0  0
   44.8040   35.0920   45.4040 N   0  0  0  0  0  0  0  0  0  0  0  0
   43.8380   36.8430   44.6290 H   0  0  0  0  0  0  0  0  0  0  0  0
   44.9920   36.7040   42.4190 H   0  0  0  0  0  0  0  0  0  0  0  0
   44.3580   33.9500   47.6640 F   0  0  0  0  0  0  0  0  0  0  0  0
   45.3260   33.0280   47.3600 C   0  0  0  0  0  0  0  0  0  0  0  0
   45.9890   33.0760   46.1370 C   0  0  0  0  0  0  0  0  0  0  0  0
   46.9620   32.1470   45.8320 C   0  0  0  0  0  0  0  0  0  0  0  0
   47.5000   32.1580   44.8850 H   0  0  0  0  0  0  0  0  0  0  0  0
   47.2900   31.1530   46.7470 C   0  0  0  0  0  0  0  0  0  0  0  0
   48.0700   30.4330   46.4680 H   0  0  0  0  0  0  0  0  0  0  0  0
   46.6410   31.0870   47.9720 C   0  0  0  0  0  3  0  0  0  0  0  0
   45.6540   32.0300   48.2790 C   0  0  0  0  0  3  0  0  0  0  0  0
   46.7100   34.8800   41.7250 O   0  0  0  0  0  0  0  0  0  0  0  0
   48.6970   33.2790   41.0370 O   0  0  0  0  0  0  0  0  0  0  0  0
   48.4100   34.6430   41.6540 P   0  0  0  0  0  0  0  0  0  0  0  0
   49.1040   35.8880   40.7850 O   0  0  0  0  0  0  0  0  0  0  0  0
   49.8700   36.2250   41.2820 H   0  0  0  0  0  0  0  0  0  0  0  0
   48.9860   34.5920   43.2560 O   0  0  0  0  0  0  0  0  0  0  0  0
   49.0350   35.5610   43.5250 H   0  0  0  0  0  0  0  0  0  0  0  0
  1  7  1  0  0  0  0
  1  6  1  0  0  0  0
  2  1  2  0  0  0  0
  3  2  1  0  0  0  0
  3  4  2  0  0  0  0
  4  5  1  0  0  0  0
  5  6  2  0  0  0  0
  5 11  1  0  0  0  0
  8  2  1  0  0  0  0
 10  9  1  0  0  0  0
 10 17  1  0  0  0  0
 11 10  2  0  0  0  0
 12 11  1  0  0  0  0
 12 14  2  0  0  0  0
 13 12  1  0  0  0  0
 14 16  1  0  0  0  0
 15 14  1  0  0  0  0
 16 17  2  0  0  0  0
 18  3  1  0  0  0  0
 19 20  2  0  0  0  0
 20 18  1  0  0  0  0
 20 23  1  0  0  0  0
 21 22  1  0  0  0  0
 21 20  1  0  0  0  0
 23 24  1  0  0  0  0
M  END
>  <minimizedAffinity>
-6.14083099

>  <minimizedRMSD>
0.254511118

$$$$
