
 OpenBabel03252507093D

 24 25  0  0  0  0  0  0  0  0999 V2000
   38.6270   34.1600   40.2750 C   0  0  0  0  0  0  0  0  0  0  0  0
   39.9040   34.0460   39.6770 C   0  0  0  0  0  0  0  0  0  0  0  0
   40.4410   32.7640   39.5650 C   0  0  0  0  0  0  0  0  0  0  0  0
   39.7340   31.7040   40.0230 N   0  0  0  0  0  0  0  0  0  0  0  0
   38.5230   31.8420   40.5880 C   0  0  0  0  0  0  0  0  0  0  0  0
   37.9610   33.0590   40.7200 N   0  0  0  0  0  0  0  0  0  0  0  0
   38.1940   35.1620   40.3680 H   0  0  0  0  0  0  0  0  0  0  0  0
   40.4460   34.9050   39.3190 H   0  0  0  0  0  0  0  0  0  0  0  0
   36.1920   30.8080   39.3240 F   0  0  0  0  0  0  0  0  0  0  0  0
   36.7110   30.1510   40.4080 C   0  0  0  0  0  0  0  0  0  0  0  0
   37.8500   30.6320   41.0480 C   0  0  0  0  0  0  0  0  0  0  0  0
   38.3710   29.9700   42.1390 C   0  0  0  0  0  0  0  0  0  0  0  0
   39.2610   30.3210   42.6630 H   0  0  0  0  0  0  0  0  0  0  0  0
   37.7620   28.8120   42.6120 C   0  0  0  0  0  0  0  0  0  0  0  0
   38.2070   28.3150   43.4820 H   0  0  0  0  0  0  0  0  0  0  0  0
   36.6260   28.3170   41.9880 C   0  0  0  0  0  3  0  0  0  0  0  0
   36.0990   28.9900   40.8820 C   0  0  0  0  0  3  0  0  0  0  0  0
   41.7020   32.6560   38.9720 O   0  0  0  0  0  0  0  0  0  0  0  0
   42.8580   31.6040   36.8410 O   0  0  0  0  0  0  0  0  0  0  0  0
   41.8230   32.6410   37.2590 P   0  0  0  0  0  0  0  0  0  0  0  0
   40.3190   32.3320   36.6030 O   0  0  0  0  0  0  0  0  0  0  0  0
   40.1510   32.9770   35.8930 H   0  0  0  0  0  0  0  0  0  0  0  0
   42.4230   34.1610   36.7760 O   0  0  0  0  0  0  0  0  0  0  0  0
   41.6150   34.7610   36.8110 H   0  0  0  0  0  0  0  0  0  0  0  0
  1  7  1  0  0  0  0
  1  6  1  0  0  0  0
  2  1  2  0  0  0  0
  3  2  1  0  0  0  0
  3  4  2  0  0  0  0
  4  5  1  0  0  0  0
  5  6  2  0  0  0  0
  5 11  1  0  0  0  0
  8  2  1  0  0  0  0
  9 10  1  0  0  0  0
 10 17  2  0  0  0  0
 10 11  1  0  0  0  0
 11 12  2  0  0  0  0
 12 14  1  0  0  0  0
 12 13  1  0  0  0  0
 14 15  1  0  0  0  0
 16 14  2  0  0  0  0
 17 16  1  0  0  0  0
 18  3  1  0  0  0  0
 19 20  2  0  0  0  0
 20 18  1  0  0  0  0
 21 20  1  0  0  0  0
 22 21  1  0  0  0  0
 23 24  1  0  0  0  0
 23 20  1  0  0  0  0
M  END
>  <minimizedAffinity>
-5.64756727

$$$$

 OpenBabel03252507093D

 24 25  0  0  0  0  0  0  0  0999 V2000
   38.7680   34.0180   40.7950 C   0  0  0  0  0  0  0  0  0  0  0  0
   40.0560   33.8720   40.2280 C   0  0  0  0  0  0  0  0  0  0  0  0
   40.3160   32.6900   39.5360 C   0  0  0  0  0  0  0  0  0  0  0  0
   39.3450   31.7500   39.4370 N   0  0  0  0  0  0  0  0  0  0  0  0
   38.1300   31.9150   39.9860 C   0  0  0  0  0  0  0  0  0  0  0  0
   37.8310   33.0390   40.6650 N   0  0  0  0  0  0  0  0  0  0  0  0
   38.5520   34.9420   41.3410 H   0  0  0  0  0  0  0  0  0  0  0  0
   40.8110   34.6350   40.3200 H   0  0  0  0  0  0  0  0  0  0  0  0
   37.2820   30.2660   42.1450 F   0  0  0  0  0  0  0  0  0  0  0  0
   36.7660   30.0490   40.8950 C   0  0  0  0  0  0  0  0  0  0  0  0
   37.1610   30.8380   39.8190 C   0  0  0  0  0  0  0  0  0  0  0  0
   36.6400   30.6180   38.5620 C   0  0  0  0  0  0  0  0  0  0  0  0
   36.9290   31.2180   37.6990 H   0  0  0  0  0  0  0  0  0  0  0  0
   35.7130   29.6020   38.3560 C   0  0  0  0  0  0  0  0  0  0  0  0
   35.3220   29.4580   37.3420 H   0  0  0  0  0  0  0  0  0  0  0  0
   35.3060   28.8030   39.4160 C   0  0  0  0  0  3  0  0  0  0  0  0
   35.8350   29.0280   40.6900 C   0  0  0  0  0  3  0  0  0  0  0  0
   41.5890   32.5500   38.9770 O   0  0  0  0  0  0  0  0  0  0  0  0
   42.8060   31.5690   36.8460 O   0  0  0  0  0  0  0  0  0  0  0  0
   41.7610   32.5940   37.2690 P   0  0  0  0  0  0  0  0  0  0  0  0
   40.2770   32.3140   36.5570 O   0  0  0  0  0  0  0  0  0  0  0  0
   40.1320   32.9830   35.8650 H   0  0  0  0  0  0  0  0  0  0  0  0
   42.3790   34.1280   36.8570 O   0  0  0  0  0  0  0  0  0  0  0  0
   41.5710   34.7290   36.8890 H   0  0  0  0  0  0  0  0  0  0  0  0
  1  7  1  0  0  0  0
  2  8  1  0  0  0  0
  2  1  2  0  0  0  0
  3  2  1  0  0  0  0
  4  3  2  0  0  0  0
  4  5  1  0  0  0  0
  5  6  2  0  0  0  0
  6  1  1  0  0  0  0
 10  9  1  0  0  0  0
 11  5  1  0  0  0  0
 11 10  2  0  0  0  0
 12 11  1  0  0  0  0
 13 12  1  0  0  0  0
 14 12  2  0  0  0  0
 14 16  1  0  0  0  0
 15 14  1  0  0  0  0
 16 17  2  0  0  0  0
 17 10  1  0  0  0  0
 18  3  1  0  0  0  0
 19 20  2  0  0  0  0
 20 18  1  0  0  0  0
 21 20  1  0  0  0  0
 22 21  1  0  0  0  0
 23 24  1  0  0  0  0
 23 20  1  0  0  0  0
M  END
>  <minimizedAffinity>
-5.5569191

$$$$

 OpenBabel03252507093D

 24 25  0  0  0  0  0  0  0  0999 V2000
   37.3640   28.4220   42.9110 C   0  0  0  0  0  0  0  0  0  0  0  0
   38.1930   29.5650   42.7990 C   0  0  0  0  0  0  0  0  0  0  0  0
   38.1620   30.2560   41.5890 C   0  0  0  0  0  0  0  0  0  0  0  0
   37.3580   29.8150   40.5920 N   0  0  0  0  0  0  0  0  0  0  0  0
   36.5820   28.7260   40.7260 C   0  0  0  0  0  0  0  0  0  0  0  0
   36.5770   28.0240   41.8750 N   0  0  0  0  0  0  0  0  0  0  0  0
   37.3800   27.8710   43.8570 H   0  0  0  0  0  0  0  0  0  0  0  0
   38.8230   29.8950   43.6080 H   0  0  0  0  0  0  0  0  0  0  0  0
   37.1480   26.4450   39.1220 F   0  0  0  0  0  0  0  0  0  0  0  0
   36.0590   27.2190   38.8220 C   0  0  0  0  0  0  0  0  0  0  0  0
   35.7560   28.3410   39.5870 C   0  0  0  0  0  0  0  0  0  0  0  0
   34.6590   29.1190   39.2840 C   0  0  0  0  0  0  0  0  0  0  0  0
   34.3950   30.0040   39.8630 H   0  0  0  0  0  0  0  0  0  0  0  0
   33.8430   28.7890   38.2060 C   0  0  0  0  0  0  0  0  0  0  0  0
   32.9800   29.4330   37.9970 H   0  0  0  0  0  0  0  0  0  0  0  0
   34.1280   27.6740   37.4300 C   0  0  0  0  0  3  0  0  0  0  0  0
   35.2410   26.8860   37.7400 C   0  0  0  0  0  3  0  0  0  0  0  0
   38.9800   31.3830   41.4820 O   0  0  0  0  0  0  0  0  0  0  0  0
   39.1390   32.7900   39.2500 O   0  0  0  0  0  0  0  0  0  0  0  0
   38.4210   32.7420   40.5930 P   0  0  0  0  0  0  0  0  0  0  0  0
   36.7630   32.6420   40.4200 O   0  0  0  0  0  0  0  0  0  0  0  0
   36.3730   33.5050   40.6480 H   0  0  0  0  0  0  0  0  0  0  0  0
   38.8830   34.1390   41.4510 O   0  0  0  0  0  0  0  0  0  0  0  0
   38.1950   34.2110   42.1820 H   0  0  0  0  0  0  0  0  0  0  0  0
  1  7  1  0  0  0  0
  2  1  1  0  0  0  0
  2  8  1  0  0  0  0
  3  2  2  0  0  0  0
  4  5  2  0  0  0  0
  4  3  1  0  0  0  0
  5  6  1  0  0  0  0
  6  1  2  0  0  0  0
 10  9  1  0  0  0  0
 10 11  1  0  0  0  0
 11  5  1  0  0  0  0
 12 11  2  0  0  0  0
 12 13  1  0  0  0  0
 14 12  1  0  0  0  0
 15 14  1  0  0  0  0
 16 17  1  0  0  0  0
 16 14  2  0  0  0  0
 17 10  2  0  0  0  0
 18  3  1  0  0  0  0
 19 20  2  0  0  0  0
 20 23  1  0  0  0  0
 20 18  1  0  0  0  0
 21 20  1  0  0  0  0
 21 22  1  0  0  0  0
 23 24  1  0  0  0  0
M  END
>  <minimizedAffinity>
-5.36163664

$$$$

 OpenBabel03252507093D

 24 25  0  0  0  0  0  0  0  0999 V2000
   35.1050   28.2380   37.4760 C   0  0  0  0  0  0  0  0  0  0  0  0
   35.6350   29.5450   37.5970 C   0  0  0  0  0  0  0  0  0  0  0  0
   36.5290   29.7740   38.6420 C   0  0  0  0  0  0  0  0  0  0  0  0
   36.8460   28.7590   39.4800 N   0  0  0  0  0  0  0  0  0  0  0  0
   36.3280   27.5270   39.3420 C   0  0  0  0  0  0  0  0  0  0  0  0
   35.4600   27.2560   38.3490 N   0  0  0  0  0  0  0  0  0  0  0  0
   34.4020   28.0470   36.6590 H   0  0  0  0  0  0  0  0  0  0  0  0
   35.3660   30.3360   36.9160 H   0  0  0  0  0  0  0  0  0  0  0  0
   36.2800   27.9620   42.1540 F   0  0  0  0  0  0  0  0  0  0  0  0
   36.7040   26.7520   41.6720 C   0  0  0  0  0  0  0  0  0  0  0  0
   36.7390   26.5090   40.3020 C   0  0  0  0  0  0  0  0  0  0  0  0
   37.1660   25.2900   39.8180 C   0  0  0  0  0  0  0  0  0  0  0  0
   37.2060   25.0690   38.7510 H   0  0  0  0  0  0  0  0  0  0  0  0
   37.5680   24.2900   40.6970 C   0  0  0  0  0  0  0  0  0  0  0  0
   37.9010   23.3350   40.2730 H   0  0  0  0  0  0  0  0  0  0  0  0
   37.5410   24.5130   42.0670 C   0  0  0  0  0  3  0  0  0  0  0  0
   37.1070   25.7490   42.5550 C   0  0  0  0  0  3  0  0  0  0  0  0
   37.0500   31.0660   38.7580 O   0  0  0  0  0  0  0  0  0  0  0  0
   38.3960   31.4250   41.0040 O   0  0  0  0  0  0  0  0  0  0  0  0
   37.0990   31.8120   40.3040 P   0  0  0  0  0  0  0  0  0  0  0  0
   36.9490   33.4660   40.1220 O   0  0  0  0  0  0  0  0  0  0  0  0
   36.2840   33.7900   40.7540 H   0  0  0  0  0  0  0  0  0  0  0  0
   35.8240   31.1610   41.2270 O   0  0  0  0  0  0  0  0  0  0  0  0
   35.0130   31.6610   40.9030 H   0  0  0  0  0  0  0  0  0  0  0  0
  1  2  2  0  0  0  0
  1  6  1  0  0  0  0
  2  3  1  0  0  0  0
  3 18  1  0  0  0  0
  3  4  2  0  0  0  0
  5  4  1  0  0  0  0
  5 11  1  0  0  0  0
  6  5  2  0  0  0  0
  7  1  1  0  0  0  0
  8  2  1  0  0  0  0
 10  9  1  0  0  0  0
 10 17  1  0  0  0  0
 11 10  2  0  0  0  0
 12 11  1  0  0  0  0
 12 14  2  0  0  0  0
 13 12  1  0  0  0  0
 14 16  1  0  0  0  0
 15 14  1  0  0  0  0
 16 17  2  0  0  0  0
 18 20  1  0  0  0  0
 20 19  2  0  0  0  0
 20 23  1  0  0  0  0
 21 20  1  0  0  0  0
 21 22  1  0  0  0  0
 24 23  1  0  0  0  0
M  END
>  <minimizedAffinity>
-5.34152699

$$$$

 OpenBabel03252507093D

 24 25  0  0  0  0  0  0  0  0999 V2000
   35.4710   29.4160   40.6830 C   0  0  0  0  0  0  0  0  0  0  0  0
   36.1750   30.4240   39.9820 C   0  0  0  0  0  0  0  0  0  0  0  0
   37.5680   30.3680   40.0180 C   0  0  0  0  0  0  0  0  0  0  0  0
   38.1760   29.3720   40.7060 N   0  0  0  0  0  0  0  0  0  0  0  0
   37.4810   28.4280   41.3630 C   0  0  0  0  0  0  0  0  0  0  0  0
   36.1350   28.4400   41.3600 N   0  0  0  0  0  0  0  0  0  0  0  0
   34.3770   29.4500   40.6620 H   0  0  0  0  0  0  0  0  0  0  0  0
   35.6680   31.2050   39.4410 H   0  0  0  0  0  0  0  0  0  0  0  0
   39.4510   29.0540   43.3200 F   0  0  0  0  0  0  0  0  0  0  0  0
   39.1960   27.7410   43.0250 C   0  0  0  0  0  0  0  0  0  0  0  0
   38.2390   27.4030   42.0720 C   0  0  0  0  0  0  0  0  0  0  0  0
   37.9830   26.0810   41.7770 C   0  0  0  0  0  0  0  0  0  0  0  0
   37.2400   25.7830   41.0360 H   0  0  0  0  0  0  0  0  0  0  0  0
   38.6810   25.0700   42.4290 C   0  0  0  0  0  0  0  0  0  0  0  0
   38.4490   24.0310   42.1660 H   0  0  0  0  0  0  0  0  0  0  0  0
   39.6400   25.3860   43.3810 C   0  0  0  0  0  3  0  0  0  0  0  0
   39.8970   26.7280   43.6800 C   0  0  0  0  0  3  0  0  0  0  0  0
   38.2600   31.3640   39.3240 O   0  0  0  0  0  0  0  0  0  0  0  0
   39.8220   33.4960   39.3870 O   0  0  0  0  0  0  0  0  0  0  0  0
   38.6940   32.8080   40.1470 P   0  0  0  0  0  0  0  0  0  0  0  0
   37.3470   33.7830   40.2970 O   0  0  0  0  0  0  0  0  0  0  0  0
   37.2910   34.0980   41.2170 H   0  0  0  0  0  0  0  0  0  0  0  0
   39.3220   32.3620   41.6660 O   0  0  0  0  0  0  0  0  0  0  0  0
   38.5030   32.1760   42.2210 H   0  0  0  0  0  0  0  0  0  0  0  0
  1  6  1  0  0  0  0
  2  3  1  0  0  0  0
  2  1  2  0  0  0  0
  3  4  2  0  0  0  0
  4  5  1  0  0  0  0
  5 11  1  0  0  0  0
  6  5  2  0  0  0  0
  7  1  1  0  0  0  0
  8  2  1  0  0  0  0
 10  9  1  0  0  0  0
 10 17  1  0  0  0  0
 11 10  2  0  0  0  0
 12 11  1  0  0  0  0
 12 14  2  0  0  0  0
 13 12  1  0  0  0  0
 14 16  1  0  0  0  0
 15 14  1  0  0  0  0
 16 17  2  0  0  0  0
 18  3  1  0  0  0  0
 18 20  1  0  0  0  0
 19 20  2  0  0  0  0
 20 21  1  0  0  0  0
 20 23  1  0  0  0  0
 21 22  1  0  0  0  0
 23 24  1  0  0  0  0
M  END
>  <minimizedAffinity>
-5.23411751

$$$$

 OpenBabel03252507093D

 24 25  0  0  0  0  0  0  0  0999 V2000
   40.8510   28.5910   40.1400 C   0  0  0  0  0  0  0  0  0  0  0  0
   40.2850   29.8560   40.4260 C   0  0  0  0  0  0  0  0  0  0  0  0
   38.9520   29.8790   40.8350 C   0  0  0  0  0  0  0  0  0  0  0  0
   38.2690   28.7140   40.9400 N   0  0  0  0  0  0  0  0  0  0  0  0
   38.8320   27.5260   40.6610 C   0  0  0  0  0  0  0  0  0  0  0  0
   40.1150   27.4520   40.2610 N   0  0  0  0  0  0  0  0  0  0  0  0
   41.8960   28.5610   39.8170 H   0  0  0  0  0  0  0  0  0  0  0  0
   40.8500   30.7680   40.3350 H   0  0  0  0  0  0  0  0  0  0  0  0
   38.3410   26.2980   43.1810 F   0  0  0  0  0  0  0  0  0  0  0  0
   37.7810   25.7570   42.0540 C   0  0  0  0  0  0  0  0  0  0  0  0
   38.0030   26.3350   40.8070 C   0  0  0  0  0  0  0  0  0  0  0  0
   37.4380   25.7890   39.6740 C   0  0  0  0  0  0  0  0  0  0  0  0
   37.5920   26.2170   38.6830 H   0  0  0  0  0  0  0  0  0  0  0  0
   36.6410   24.6540   39.7660 C   0  0  0  0  0  0  0  0  0  0  0  0
   36.2100   24.2500   38.8420 H   0  0  0  0  0  0  0  0  0  0  0  0
   36.4080   24.0620   41.0000 C   0  0  0  0  0  3  0  0  0  0  0  0
   36.9810   24.6180   42.1480 C   0  0  0  0  0  3  0  0  0  0  0  0
   38.3980   31.1300   41.1170 O   0  0  0  0  0  0  0  0  0  0  0  0
   36.8640   30.9920   38.9680 O   0  0  0  0  0  0  0  0  0  0  0  0
   36.9130   31.5730   40.3770 P   0  0  0  0  0  0  0  0  0  0  0  0
   35.6450   31.0390   41.3230 O   0  0  0  0  0  0  0  0  0  0  0  0
   35.0090   31.7680   41.4330 H   0  0  0  0  0  0  0  0  0  0  0  0
   36.9080   33.2680   40.2140 O   0  0  0  0  0  0  0  0  0  0  0  0
   36.6610   33.5980   41.1330 H   0  0  0  0  0  0  0  0  0  0  0  0
  1  6  2  0  0  0  0
  1  2  1  0  0  0  0
  2  3  2  0  0  0  0
  3  4  1  0  0  0  0
  3 18  1  0  0  0  0
  5 11  1  0  0  0  0
  5  4  2  0  0  0  0
  6  5  1  0  0  0  0
  7  1  1  0  0  0  0
  8  2  1  0  0  0  0
 10 17  1  0  0  0  0
 10  9  1  0  0  0  0
 11 10  2  0  0  0  0
 12 14  2  0  0  0  0
 12 11  1  0  0  0  0
 13 12  1  0  0  0  0
 14 16  1  0  0  0  0
 15 14  1  0  0  0  0
 16 17  2  0  0  0  0
 19 20  2  0  0  0  0
 20 18  1  0  0  0  0
 20 21  1  0  0  0  0
 21 22  1  0  0  0  0
 23 20  1  0  0  0  0
 23 24  1  0  0  0  0
M  END
>  <minimizedAffinity>
-5.23232317

$$$$

 OpenBabel03252507093D

 24 25  0  0  0  0  0  0  0  0999 V2000
   35.6460   28.6330   37.2260 C   0  0  0  0  0  0  0  0  0  0  0  0
   36.2180   29.9260   37.1650 C   0  0  0  0  0  0  0  0  0  0  0  0
   36.9310   30.3580   38.2820 C   0  0  0  0  0  0  0  0  0  0  0  0
   37.0420   29.5420   39.3570 N   0  0  0  0  0  0  0  0  0  0  0  0
   36.4870   28.3180   39.3880 C   0  0  0  0  0  0  0  0  0  0  0  0
   35.7890   27.8550   38.3340 N   0  0  0  0  0  0  0  0  0  0  0  0
   35.0840   28.2820   36.3540 H   0  0  0  0  0  0  0  0  0  0  0  0
   36.1160   30.5550   36.2970 H   0  0  0  0  0  0  0  0  0  0  0  0
   37.4080   25.6260   39.3290 F   0  0  0  0  0  0  0  0  0  0  0  0
   37.1220   26.2090   40.5360 C   0  0  0  0  0  0  0  0  0  0  0  0
   36.6700   27.5240   40.5970 C   0  0  0  0  0  0  0  0  0  0  0  0
   36.3830   28.1080   41.8120 C   0  0  0  0  0  0  0  0  0  0  0  0
   36.0270   29.1360   41.8940 H   0  0  0  0  0  0  0  0  0  0  0  0
   36.5420   27.3880   42.9910 C   0  0  0  0  0  0  0  0  0  0  0  0
   36.3030   27.8880   43.9370 H   0  0  0  0  0  0  0  0  0  0  0  0
   36.9920   26.0750   42.9510 C   0  0  0  0  0  3  0  0  0  0  0  0
   37.2830   25.4840   41.7180 C   0  0  0  0  0  3  0  0  0  0  0  0
   37.4950   31.6350   38.2180 O   0  0  0  0  0  0  0  0  0  0  0  0
   38.8210   32.6930   40.2450 O   0  0  0  0  0  0  0  0  0  0  0  0
   37.4380   32.6460   39.6050 P   0  0  0  0  0  0  0  0  0  0  0  0
   36.8960   34.1610   39.1610 O   0  0  0  0  0  0  0  0  0  0  0  0
   36.2020   34.4390   39.7850 H   0  0  0  0  0  0  0  0  0  0  0  0
   36.3960   31.9080   40.7330 O   0  0  0  0  0  0  0  0  0  0  0  0
   35.4760   32.1460   40.4010 H   0  0  0  0  0  0  0  0  0  0  0  0
  1  6  1  0  0  0  0
  2  1  2  0  0  0  0
  2  3  1  0  0  0  0
  3  4  2  0  0  0  0
  4  5  1  0  0  0  0
  5 11  1  0  0  0  0
  6  5  2  0  0  0  0
  7  1  1  0  0  0  0
  8  2  1  0  0  0  0
  9 10  1  0  0  0  0
 10 11  2  0  0  0  0
 10 17  1  0  0  0  0
 11 12  1  0  0  0  0
 12 13  1  0  0  0  0
 12 14  2  0  0  0  0
 14 15  1  0  0  0  0
 16 14  1  0  0  0  0
 17 16  2  0  0  0  0
 18  3  1  0  0  0  0
 18 20  1  0  0  0  0
 20 19  2  0  0  0  0
 20 23  1  0  0  0  0
 21 20  1  0  0  0  0
 21 22  1  0  0  0  0
 24 23  1  0  0  0  0
M  END
>  <minimizedAffinity>
-5.15048647

$$$$

 OpenBabel03252507093D

 24 25  0  0  0  0  0  0  0  0999 V2000
   37.2570   32.6480   39.8060 C   0  0  0  0  0  0  0  0  0  0  0  0
   37.3490   32.2620   38.4470 C   0  0  0  0  0  0  0  0  0  0  0  0
   37.5150   30.9040   38.1820 C   0  0  0  0  0  0  0  0  0  0  0  0
   37.5800   30.0280   39.2130 N   0  0  0  0  0  0  0  0  0  0  0  0
   37.4900   30.4220   40.4940 C   0  0  0  0  0  0  0  0  0  0  0  0
   37.3300   31.7230   40.8020 N   0  0  0  0  0  0  0  0  0  0  0  0
   37.1270   33.7130   40.0260 H   0  0  0  0  0  0  0  0  0  0  0  0
   37.2940   32.9790   37.6450 H   0  0  0  0  0  0  0  0  0  0  0  0
   35.3110   28.7050   41.1270 F   0  0  0  0  0  0  0  0  0  0  0  0
   36.4900   28.5690   41.8110 C   0  0  0  0  0  0  0  0  0  0  0  0
   37.5730   29.3940   41.5250 C   0  0  0  0  0  0  0  0  0  0  0  0
   38.7590   29.2560   42.2150 C   0  0  0  0  0  0  0  0  0  0  0  0
   39.6260   29.8860   42.0150 H   0  0  0  0  0  0  0  0  0  0  0  0
   38.8830   28.2880   43.2070 C   0  0  0  0  0  0  0  0  0  0  0  0
   39.8420   28.2100   43.7330 H   0  0  0  0  0  0  0  0  0  0  0  0
   37.8140   27.4560   43.5080 C   0  0  0  0  0  3  0  0  0  0  0  0
   36.6130   27.5980   42.8060 C   0  0  0  0  0  3  0  0  0  0  0  0
   37.6050   30.5270   36.8390 O   0  0  0  0  0  0  0  0  0  0  0  0
   35.5140   28.9380   36.5350 O   0  0  0  0  0  0  0  0  0  0  0  0
   37.0280   28.9810   36.3640 P   0  0  0  0  0  0  0  0  0  0  0  0
   37.4940   28.6790   34.7890 O   0  0  0  0  0  0  0  0  0  0  0  0
   37.8750   27.7840   34.7430 H   0  0  0  0  0  0  0  0  0  0  0  0
   37.6800   27.8370   37.4450 O   0  0  0  0  0  0  0  0  0  0  0  0
   38.6200   27.6980   37.1110 H   0  0  0  0  0  0  0  0  0  0  0  0
  1  7  1  0  0  0  0
  1  6  1  0  0  0  0
  2  1  2  0  0  0  0
  3  2  1  0  0  0  0
  3  4  2  0  0  0  0
  4  5  1  0  0  0  0
  5  6  2  0  0  0  0
  5 11  1  0  0  0  0
  8  2  1  0  0  0  0
  9 10  1  0  0  0  0
 10 17  1  0  0  0  0
 11 10  2  0  0  0  0
 11 12  1  0  0  0  0
 12 14  2  0  0  0  0
 13 12  1  0  0  0  0
 14 16  1  0  0  0  0
 14 15  1  0  0  0  0
 17 16  2  0  0  0  0
 18  3  1  0  0  0  0
 20 19  2  0  0  0  0
 20 18  1  0  0  0  0
 20 23  1  0  0  0  0
 21 20  1  0  0  0  0
 22 21  1  0  0  0  0
 24 23  1  0  0  0  0
M  END
>  <minimizedAffinity>
-5.11200476

$$$$

 OpenBabel03252507093D

 24 25  0  0  0  0  0  0  0  0999 V2000
   41.0870   28.8920   42.9190 C   0  0  0  0  0  0  0  0  0  0  0  0
   40.5310   30.0530   42.3320 C   0  0  0  0  0  0  0  0  0  0  0  0
   39.3640   29.8910   41.5850 C   0  0  0  0  0  0  0  0  0  0  0  0
   38.8240   28.6560   41.4550 N   0  0  0  0  0  0  0  0  0  0  0  0
   39.3750   27.5700   42.0240 C   0  0  0  0  0  0  0  0  0  0  0  0
   40.5010   27.6750   42.7540 N   0  0  0  0  0  0  0  0  0  0  0  0
   42.0030   29.0070   43.5070 H   0  0  0  0  0  0  0  0  0  0  0  0
   40.9790   31.0250   42.4510 H   0  0  0  0  0  0  0  0  0  0  0  0
   36.8060   26.9860   43.1000 F   0  0  0  0  0  0  0  0  0  0  0  0
   37.4520   26.0330   42.3580 C   0  0  0  0  0  0  0  0  0  0  0  0
   38.7090   26.2890   41.8180 C   0  0  0  0  0  0  0  0  0  0  0  0
   39.3580   25.3280   41.0710 C   0  0  0  0  0  0  0  0  0  0  0  0
   40.3430   25.4970   40.6360 H   0  0  0  0  0  0  0  0  0  0  0  0
   38.7600   24.0920   40.8500 C   0  0  0  0  0  0  0  0  0  0  0  0
   39.3090   23.3550   40.2510 H   0  0  0  0  0  0  0  0  0  0  0  0
   37.5070   23.8170   41.3790 C   0  0  0  0  0  3  0  0  0  0  0  0
   36.8510   24.7930   42.1360 C   0  0  0  0  0  3  0  0  0  0  0  0
   38.8170   31.0400   41.0080 O   0  0  0  0  0  0  0  0  0  0  0  0
   37.0060   30.4220   39.1850 O   0  0  0  0  0  0  0  0  0  0  0  0
   37.1570   31.0460   40.5670 P   0  0  0  0  0  0  0  0  0  0  0  0
   36.2760   30.2300   41.7280 O   0  0  0  0  0  0  0  0  0  0  0  0
   35.5000   30.7680   41.9660 H   0  0  0  0  0  0  0  0  0  0  0  0
   36.6700   32.6720   40.4320 O   0  0  0  0  0  0  0  0  0  0  0  0
   36.5190   32.9580   41.3860 H   0  0  0  0  0  0  0  0  0  0  0  0
  1  7  1  0  0  0  0
  2  8  1  0  0  0  0
  2  1  2  0  0  0  0
  3  2  1  0  0  0  0
  4  3  2  0  0  0  0
  4  5  1  0  0  0  0
  5  6  2  0  0  0  0
  6  1  1  0  0  0  0
 10  9  1  0  0  0  0
 11  5  1  0  0  0  0
 11 10  2  0  0  0  0
 12 11  1  0  0  0  0
 13 12  1  0  0  0  0
 14 12  2  0  0  0  0
 14 16  1  0  0  0  0
 15 14  1  0  0  0  0
 16 17  2  0  0  0  0
 17 10  1  0  0  0  0
 18  3  1  0  0  0  0
 19 20  2  0  0  0  0
 20 18  1  0  0  0  0
 20 21  1  0  0  0  0
 21 22  1  0  0  0  0
 23 20  1  0  0  0  0
 23 24  1  0  0  0  0
M  END
>  <minimizedAffinity>
-5.08212662

$$$$
