
 OpenBabel03252506253D

 45 49  0  0  0  0  0  0  0  0999 V2000
   45.5520   27.9720   47.8940 C   0  0  0  0  0  0  0  0  0  0  0  0
   45.0650   29.2590   47.9050 C   0  0  0  0  0  0  0  0  0  0  0  0
   44.1930   29.5950   46.8630 C   0  0  0  0  0  0  0  0  0  0  0  0
   43.8410   28.6950   45.8820 C   0  0  0  0  0  0  0  0  0  0  0  0
   43.0540   28.7300   44.7930 N   0  0  0  0  0  0  0  0  0  0  0  0
   43.0520   27.5520   44.1540 C   0  0  0  0  0  0  0  0  0  0  0  0
   43.8770   26.6750   44.8400 C   0  0  0  0  0  0  0  0  0  0  0  0
   44.3390   27.4220   45.8910 C   0  0  0  0  0  0  0  0  0  0  0  0
   45.1970   27.0780   46.9110 C   0  0  0  0  0  0  0  0  0  0  0  0
   46.2260   27.7700   48.7320 H   0  0  0  0  0  0  0  0  0  0  0  0
   43.7320   30.5670   46.7400 H   0  0  0  0  0  0  0  0  0  0  0  0
   42.5060   29.5630   44.4740 H   0  0  0  0  0  0  0  0  0  0  0  0
   42.5070   27.2890   43.2460 H   0  0  0  0  0  0  0  0  0  0  0  0
   44.1110   25.6380   44.6080 H   0  0  0  0  0  0  0  0  0  0  0  0
   43.8380   25.2300   48.3930 F   0  0  0  0  0  0  0  0  0  0  0  0
   45.0430   24.8990   47.8310 C   0  0  0  0  0  0  0  0  0  0  0  0
   45.8100   25.7640   47.0630 C   0  0  0  0  0  0  0  0  0  0  0  0
   47.0050   25.3620   46.5330 C   0  0  0  0  0  0  0  0  0  0  0  0
   47.5390   26.1040   45.9440 H   0  0  0  0  0  0  0  0  0  0  0  0
   47.4300   24.0880   46.7760 C   0  0  0  0  0  0  0  0  0  0  0  0
   48.3770   23.7650   46.3580 H   0  0  0  0  0  0  0  0  0  0  0  0
   46.6690   23.2140   47.5450 C   0  0  0  0  0  0  0  0  0  0  0  0
   45.4650   23.6120   48.0800 C   0  0  0  0  0  0  0  0  0  0  0  0
   45.3040   30.3550   48.8330 C   0  0  0  0  0  0  0  0  0  0  0  0
   45.2930   29.9230   49.8760 H   0  0  0  0  0  0  0  0  0  0  0  0
   44.4740   31.0840   48.8400 H   0  0  0  0  0  0  0  0  0  0  0  0
   46.5930   31.0850   48.6900 C   0  0  0  0  0  0  0  0  0  0  0  0
   46.6220   31.9130   49.4110 H   0  0  0  0  0  0  0  0  0  0  0  0
   47.4080   30.3810   48.8560 H   0  0  0  0  0  0  0  0  0  0  0  0
   46.3270   33.0440   45.7110 C   0  0  0  0  0  0  0  0  0  0  0  0
   47.2240   32.0440   45.3170 C   0  0  0  0  0  0  0  0  0  0  0  0
   47.4310   31.2020   46.3630 C   0  0  0  0  0  0  0  0  0  0  0  0
   46.6830   31.6750   47.3650 N   0  0  0  0  0  0  0  0  0  0  0  0
   46.0190   32.7760   46.9880 N   0  0  0  0  0  0  0  0  0  0  0  0
   47.6570   31.9810   44.3440 H   0  0  0  0  0  0  0  0  0  0  0  0
   48.0810   30.3480   46.3170 H   0  0  0  0  0  0  0  0  0  0  0  0
   44.4720   35.9490   44.5010 C   0  0  0  0  0  0  0  0  0  0  0  0
   44.9990   36.1630   43.2380 C   0  0  0  0  0  0  0  0  0  0  0  0
   45.9980   35.3020   42.8040 C   0  0  0  0  0  0  0  0  0  0  0  0
   46.3950   34.3090   43.6380 N   0  0  0  0  0  0  0  0  0  0  0  0
   45.8710   34.1240   44.8490 C   0  0  0  0  0  0  0  0  0  0  0  0
   44.9030   34.9470   45.2870 N   0  0  0  0  0  0  0  0  0  0  0  0
   43.6780   36.5950   44.9020 H   0  0  0  0  0  0  0  0  0  0  0  0
   44.6180   36.9780   42.6510 H   0  0  0  0  0  0  0  0  0  0  0  0
   46.4260   35.4490   41.8210 H   0  0  0  0  0  0  0  0  0  0  0  0
  1  2  1  0  0  0  0
  1 10  1  0  0  0  0
  2 24  1  0  0  0  0
  3  2  2  0  0  0  0
  4  8  2  0  0  0  0
  4  3  1  0  0  0  0
  5  4  1  0  0  0  0
  6  5  1  0  0  0  0
  6  7  2  0  0  0  0
  7  8  1  0  0  0  0
  8  9  1  0  0  0  0
  9 17  1  0  0  0  0
  9  1  2  0  0  0  0
 11  3  1  0  0  0  0
 12  5  1  0  0  0  0
 13  6  1  0  0  0  0
 14  7  1  0  0  0  0
 16 23  1  0  0  0  0
 16 15  1  0  0  0  0
 17 16  2  0  0  0  0
 18 20  2  0  0  0  0
 18 17  1  0  0  0  0
 19 18  1  0  0  0  0
 20 22  1  0  0  0  0
 21 20  1  0  0  0  0
 22 23  2  0  0  0  0
 24 26  1  0  0  0  0
 24 25  1  0  0  0  0
 27 24  1  0  0  0  0
 27 29  1  0  0  0  0
 27 28  1  0  0  0  0
 30 34  2  0  0  0  0
 31 30  1  0  0  0  0
 31 32  2  0  0  0  0
 32 33  1  0  0  0  0
 33 27  1  0  0  0  0
 34 33  1  0  0  0  0
 35 31  1  0  0  0  0
 36 32  1  0  0  0  0
 37 43  1  0  0  0  0
 37 42  1  0  0  0  0
 38 37  2  0  0  0  0
 39 38  1  0  0  0  0
 39 40  2  0  0  0  0
 40 41  1  0  0  0  0
 41 42  2  0  0  0  0
 41 30  1  0  0  0  0
 44 38  1  0  0  0  0
 45 39  1  0  0  0  0
M  END
>  <minimizedAffinity>
-5.56507683

>  <minimizedRMSD>
1.35460138

$$$$
