
 OpenBabel03242518433D

 19 20  0  0  0  0  0  0  0  0999 V2000
   37.2060   32.4150   39.6670 C   0  0  0  0  0  0  0  0  0  0  0  0
   37.3560   32.0260   38.3270 C   0  0  0  0  0  0  0  0  0  0  0  0
   37.6000   30.6520   38.0810 C   0  0  0  0  0  0  0  0  0  0  0  0
   37.6720   29.8100   39.1500 N   0  0  0  0  0  0  0  0  0  0  0  0
   37.5200   30.2390   40.4120 C   0  0  0  0  0  0  0  0  0  0  0  0
   37.2880   31.5340   40.6700 N   0  0  0  0  0  0  0  0  0  0  0  0
   37.2930   32.7200   37.4980 H   0  0  0  0  0  0  0  0  0  0  0  0
   37.7230   30.2960   37.0800 H   0  0  0  0  0  0  0  0  0  0  0  0
   35.3630   28.6100   41.1580 F   0  0  0  0  0  0  0  0  0  0  0  0
   36.5280   28.4930   41.8510 C   0  0  0  0  0  0  0  0  0  0  0  0
   37.6100   29.2760   41.5150 C   0  0  0  0  0  0  0  0  0  0  0  0
   38.8010   29.1650   42.2140 C   0  0  0  0  0  0  0  0  0  0  0  0
   39.6290   29.7970   41.9190 H   0  0  0  0  0  0  0  0  0  0  0  0
   38.8800   28.2540   43.2560 C   0  0  0  0  0  0  0  0  0  0  0  0
   39.7920   28.1570   43.8040 H   0  0  0  0  0  0  0  0  0  0  0  0
   37.8120   27.4600   43.6120 C   0  0  0  0  0  3  0  0  0  0  0  0
   36.6420   27.5950   42.8950 C   0  0  0  0  0  3  0  0  0  0  0  0
   36.9700   33.7490   39.8990 O   0  0  0  0  0  0  0  0  0  0  0  0
   36.0570   33.9800   40.3120 H   0  0  0  0  0  0  0  0  0  0  0  0
  1 18  1  0  0  0  0
  1  6  1  0  0  0  0
  2  1  2  0  0  0  0
  3  2  1  0  0  0  0
  3  4  2  0  0  0  0
  4  5  1  0  0  0  0
  5  6  2  0  0  0  0
  5 11  1  0  0  0  0
  7  2  1  0  0  0  0
  8  3  1  0  0  0  0
  9 10  1  0  0  0  0
 10 17  1  0  0  0  0
 11 10  2  0  0  0  0
 11 12  1  0  0  0  0
 12 14  2  0  0  0  0
 13 12  1  0  0  0  0
 14 16  1  0  0  0  0
 14 15  1  0  0  0  0
 17 16  2  0  0  0  0
 18 19  1  0  0  0  0
M  END
>  <minimizedAffinity>
-5.10697794

$$$$

 OpenBabel03242518433D

 19 20  0  0  0  0  0  0  0  0999 V2000
   37.1700   32.4330   39.7070 C   0  0  0  0  0  0  0  0  0  0  0  0
   37.4810   32.0430   38.3960 C   0  0  0  0  0  0  0  0  0  0  0  0
   37.7460   30.6680   38.1810 C   0  0  0  0  0  0  0  0  0  0  0  0
   37.6810   29.8250   39.2500 N   0  0  0  0  0  0  0  0  0  0  0  0
   37.3770   30.2550   40.4840 C   0  0  0  0  0  0  0  0  0  0  0  0
   37.1230   31.5520   40.7120 N   0  0  0  0  0  0  0  0  0  0  0  0
   37.5250   32.7370   37.5660 H   0  0  0  0  0  0  0  0  0  0  0  0
   37.9890   30.3110   37.2020 H   0  0  0  0  0  0  0  0  0  0  0  0
   39.1460   30.3700   42.6570 F   0  0  0  0  0  0  0  0  0  0  0  0
   38.2110   29.3820   42.6390 C   0  0  0  0  0  0  0  0  0  0  0  0
   37.3250   29.2920   41.5890 C   0  0  0  0  0  0  0  0  0  0  0  0
   36.3690   28.2900   41.5610 C   0  0  0  0  0  0  0  0  0  0  0  0
   35.6900   28.2530   40.7190 H   0  0  0  0  0  0  0  0  0  0  0  0
   36.3240   27.3820   42.6080 C   0  0  0  0  0  0  0  0  0  0  0  0
   35.5920   26.6040   42.6010 H   0  0  0  0  0  0  0  0  0  0  0  0
   37.1990   27.4500   43.6700 C   0  0  0  0  0  3  0  0  0  0  0  0
   38.1380   28.4610   43.6660 C   0  0  0  0  0  3  0  0  0  0  0  0
   36.9150   33.7680   39.9090 O   0  0  0  0  0  0  0  0  0  0  0  0
   35.9600   34.0050   40.2060 H   0  0  0  0  0  0  0  0  0  0  0  0
  1 18  1  0  0  0  0
  1  6  1  0  0  0  0
  2  1  2  0  0  0  0
  3  2  1  0  0  0  0
  3  4  2  0  0  0  0
  4  5  1  0  0  0  0
  5  6  2  0  0  0  0
  5 11  1  0  0  0  0
  7  2  1  0  0  0  0
  8  3  1  0  0  0  0
 10  9  1  0  0  0  0
 10 17  1  0  0  0  0
 11 10  2  0  0  0  0
 12 11  1  0  0  0  0
 12 14  2  0  0  0  0
 13 12  1  0  0  0  0
 14 16  1  0  0  0  0
 15 14  1  0  0  0  0
 17 16  2  0  0  0  0
 18 19  1  0  0  0  0
M  END
>  <minimizedAffinity>
-5.04224157

$$$$

 OpenBabel03242518433D

 19 20  0  0  0  0  0  0  0  0999 V2000
   36.5900   30.2800   41.2080 C   0  0  0  0  0  0  0  0  0  0  0  0
   37.8860   30.7930   41.0380 C   0  0  0  0  0  0  0  0  0  0  0  0
   38.9260   29.8540   40.8330 C   0  0  0  0  0  0  0  0  0  0  0  0
   38.6040   28.5300   40.8160 N   0  0  0  0  0  0  0  0  0  0  0  0
   37.3460   28.0970   40.9850 C   0  0  0  0  0  0  0  0  0  0  0  0
   36.3440   28.9660   41.1800 N   0  0  0  0  0  0  0  0  0  0  0  0
   38.1100   31.8530   41.0560 H   0  0  0  0  0  0  0  0  0  0  0  0
   39.9340   30.1860   40.6970 H   0  0  0  0  0  0  0  0  0  0  0  0
   37.7200   26.4530   43.2260 F   0  0  0  0  0  0  0  0  0  0  0  0
   37.2680   25.8820   42.0760 C   0  0  0  0  0  0  0  0  0  0  0  0
   37.0710   26.6560   40.9550 C   0  0  0  0  0  0  0  0  0  0  0  0
   36.6100   26.0850   39.7800 C   0  0  0  0  0  0  0  0  0  0  0  0
   36.4680   26.7270   38.9200 H   0  0  0  0  0  0  0  0  0  0  0  0
   36.3520   24.7230   39.7570 C   0  0  0  0  0  0  0  0  0  0  0  0
   35.9960   24.2690   38.8570 H   0  0  0  0  0  0  0  0  0  0  0  0
   36.5400   23.9270   40.8650 C   0  0  0  0  0  3  0  0  0  0  0  0
   37.0000   24.5270   42.0180 C   0  0  0  0  0  3  0  0  0  0  0  0
   35.5860   31.1970   41.4070 O   0  0  0  0  0  0  0  0  0  0  0  0
   34.8680   31.2440   40.6730 H   0  0  0  0  0  0  0  0  0  0  0  0
  1 18  1  0  0  0  0
  2  7  1  0  0  0  0
  2  1  2  0  0  0  0
  3  2  1  0  0  0  0
  4  3  2  0  0  0  0
  4  5  1  0  0  0  0
  5  6  2  0  0  0  0
  6  1  1  0  0  0  0
  8  3  1  0  0  0  0
 10  9  1  0  0  0  0
 11  5  1  0  0  0  0
 11 10  2  0  0  0  0
 12 11  1  0  0  0  0
 13 12  1  0  0  0  0
 14 12  2  0  0  0  0
 14 16  1  0  0  0  0
 15 14  1  0  0  0  0
 16 17  2  0  0  0  0
 17 10  1  0  0  0  0
 19 18  1  0  0  0  0
M  END
>  <minimizedAffinity>
-4.92498159

$$$$

 OpenBabel03242518433D

 19 20  0  0  0  0  0  0  0  0999 V2000
   39.4330   32.5380   41.0410 C   0  0  0  0  0  0  0  0  0  0  0  0
   39.2060   33.8780   40.6890 C   0  0  0  0  0  0  0  0  0  0  0  0
   38.0420   34.1550   39.9320 C   0  0  0  0  0  0  0  0  0  0  0  0
   37.2280   33.1140   39.5990 N   0  0  0  0  0  0  0  0  0  0  0  0
   37.4950   31.8510   39.9640 C   0  0  0  0  0  0  0  0  0  0  0  0
   38.5910   31.5630   40.6800 N   0  0  0  0  0  0  0  0  0  0  0  0
   39.8730   34.6850   40.9690 H   0  0  0  0  0  0  0  0  0  0  0  0
   37.8160   35.1570   39.6350 H   0  0  0  0  0  0  0  0  0  0  0  0
   37.2460   30.9890   37.3060 F   0  0  0  0  0  0  0  0  0  0  0  0
   36.4810   30.3830   38.2550 C   0  0  0  0  0  0  0  0  0  0  0  0
   36.5750   30.7780   39.5700 C   0  0  0  0  0  0  0  0  0  0  0  0
   35.8000   30.1680   40.5440 C   0  0  0  0  0  0  0  0  0  0  0  0
   35.9030   30.5060   41.5670 H   0  0  0  0  0  0  0  0  0  0  0  0
   34.9320   29.1540   40.1660 C   0  0  0  0  0  0  0  0  0  0  0  0
   34.3290   28.6740   40.9060 H   0  0  0  0  0  0  0  0  0  0  0  0
   34.8200   28.7410   38.8570 C   0  0  0  0  0  3  0  0  0  0  0  0
   35.6050   29.3700   37.9140 C   0  0  0  0  0  3  0  0  0  0  0  0
   40.5650   32.2770   41.7750 O   0  0  0  0  0  0  0  0  0  0  0  0
   40.4120   31.9180   42.7260 H   0  0  0  0  0  0  0  0  0  0  0  0
  1 18  1  0  0  0  0
  2  7  1  0  0  0  0
  2  1  1  0  0  0  0
  3  2  2  0  0  0  0
  4  3  1  0  0  0  0
  4  5  2  0  0  0  0
  5  6  1  0  0  0  0
  6  1  2  0  0  0  0
  8  3  1  0  0  0  0
  9 10  1  0  0  0  0
 10 11  1  0  0  0  0
 11  5  1  0  0  0  0
 11 12  2  0  0  0  0
 12 13  1  0  0  0  0
 14 12  1  0  0  0  0
 14 15  1  0  0  0  0
 16 14  2  0  0  0  0
 17 10  2  0  0  0  0
 17 16  1  0  0  0  0
 18 19  1  0  0  0  0
M  END
>  <minimizedAffinity>
-4.6799159

$$$$

 OpenBabel03242518433D

 19 20  0  0  0  0  0  0  0  0999 V2000
   37.8740   30.8250   38.1720 C   0  0  0  0  0  0  0  0  0  0  0  0
   37.4720   32.1530   38.3810 C   0  0  0  0  0  0  0  0  0  0  0  0
   37.1110   32.5140   39.7030 C   0  0  0  0  0  0  0  0  0  0  0  0
   37.1760   31.5580   40.6720 N   0  0  0  0  0  0  0  0  0  0  0  0
   37.5690   30.3010   40.4130 C   0  0  0  0  0  0  0  0  0  0  0  0
   37.9160   29.9360   39.1710 N   0  0  0  0  0  0  0  0  0  0  0  0
   37.4310   32.8910   37.5900 H   0  0  0  0  0  0  0  0  0  0  0  0
   36.7960   33.5120   39.9240 H   0  0  0  0  0  0  0  0  0  0  0  0
   35.3840   28.6630   41.0530 F   0  0  0  0  0  0  0  0  0  0  0  0
   36.5220   28.5360   41.7880 C   0  0  0  0  0  0  0  0  0  0  0  0
   37.6160   29.3230   41.5050 C   0  0  0  0  0  0  0  0  0  0  0  0
   38.7790   29.2010   42.2480 C   0  0  0  0  0  0  0  0  0  0  0  0
   39.6180   29.8370   41.9930 H   0  0  0  0  0  0  0  0  0  0  0  0
   38.8180   28.2750   43.2780 C   0  0  0  0  0  0  0  0  0  0  0  0
   39.7080   28.1700   43.8600 H   0  0  0  0  0  0  0  0  0  0  0  0
   37.7370   27.4770   43.5820 C   0  0  0  0  0  3  0  0  0  0  0  0
   36.5960   27.6230   42.8230 C   0  0  0  0  0  3  0  0  0  0  0  0
   38.2230   30.4820   36.8880 O   0  0  0  0  0  0  0  0  0  0  0  0
   39.2050   30.2140   36.7440 H   0  0  0  0  0  0  0  0  0  0  0  0
  1  2  2  0  0  0  0
  1  6  1  0  0  0  0
  2  3  1  0  0  0  0
  3  8  1  0  0  0  0
  3  4  2  0  0  0  0
  5  4  1  0  0  0  0
  5 11  1  0  0  0  0
  6  5  2  0  0  0  0
  7  2  1  0  0  0  0
  9 10  1  0  0  0  0
 10 17  1  0  0  0  0
 11 10  2  0  0  0  0
 11 12  1  0  0  0  0
 12 14  2  0  0  0  0
 13 12  1  0  0  0  0
 14 16  1  0  0  0  0
 14 15  1  0  0  0  0
 17 16  2  0  0  0  0
 18  1  1  0  0  0  0
 19 18  1  0  0  0  0
M  END
>  <minimizedAffinity>
-4.67935801

$$$$

 OpenBabel03242518433D

 19 20  0  0  0  0  0  0  0  0999 V2000
   38.8810   33.0100   40.7350 C   0  0  0  0  0  0  0  0  0  0  0  0
   40.1710   32.6310   40.3300 C   0  0  0  0  0  0  0  0  0  0  0  0
   40.2800   31.4460   39.5630 C   0  0  0  0  0  0  0  0  0  0  0  0
   39.1390   30.7590   39.2730 N   0  0  0  0  0  0  0  0  0  0  0  0
   37.9310   31.1690   39.6880 C   0  0  0  0  0  0  0  0  0  0  0  0
   37.8020   32.2880   40.4150 N   0  0  0  0  0  0  0  0  0  0  0  0
   41.0590   33.1990   40.5770 H   0  0  0  0  0  0  0  0  0  0  0  0
   41.2370   31.1070   39.2260 H   0  0  0  0  0  0  0  0  0  0  0  0
   36.1640   30.1820   41.6290 F   0  0  0  0  0  0  0  0  0  0  0  0
   35.9010   29.9130   40.3220 C   0  0  0  0  0  0  0  0  0  0  0  0
   36.7450   30.3800   39.3390 C   0  0  0  0  0  0  0  0  0  0  0  0
   36.4850   30.1130   38.0050 C   0  0  0  0  0  0  0  0  0  0  0  0
   37.1710   30.4980   37.2620 H   0  0  0  0  0  0  0  0  0  0  0  0
   35.3620   29.3670   37.6810 C   0  0  0  0  0  0  0  0  0  0  0  0
   35.1490   29.1520   36.6560 H   0  0  0  0  0  0  0  0  0  0  0  0
   34.5020   28.8880   38.6450 C   0  0  0  0  0  3  0  0  0  0  0  0
   34.7900   29.1730   39.9630 C   0  0  0  0  0  3  0  0  0  0  0  0
   38.7820   34.1610   41.4790 O   0  0  0  0  0  0  0  0  0  0  0  0
   38.2680   34.9370   41.0430 H   0  0  0  0  0  0  0  0  0  0  0  0
  1 18  1  0  0  0  0
  2  7  1  0  0  0  0
  2  1  2  0  0  0  0
  3  2  1  0  0  0  0
  4  3  2  0  0  0  0
  4  5  1  0  0  0  0
  5  6  2  0  0  0  0
  6  1  1  0  0  0  0
  8  3  1  0  0  0  0
 10  9  1  0  0  0  0
 11  5  1  0  0  0  0
 11 10  2  0  0  0  0
 12 11  1  0  0  0  0
 13 12  1  0  0  0  0
 14 12  2  0  0  0  0
 14 16  1  0  0  0  0
 15 14  1  0  0  0  0
 16 17  2  0  0  0  0
 17 10  1  0  0  0  0
 19 18  1  0  0  0  0
M  END
>  <minimizedAffinity>
-4.65876198

$$$$

 OpenBabel03242518433D

 19 20  0  0  0  0  0  0  0  0999 V2000
   37.0490   28.3730   42.5370 C   0  0  0  0  0  0  0  0  0  0  0  0
   37.7000   27.3510   41.8290 C   0  0  0  0  0  0  0  0  0  0  0  0
   38.4730   27.7380   40.7070 C   0  0  0  0  0  0  0  0  0  0  0  0
   38.5320   29.0630   40.3930 N   0  0  0  0  0  0  0  0  0  0  0  0
   37.8880   29.9980   41.1070 C   0  0  0  0  0  0  0  0  0  0  0  0
   37.1500   29.6560   42.1730 N   0  0  0  0  0  0  0  0  0  0  0  0
   37.6330   26.3050   42.1040 H   0  0  0  0  0  0  0  0  0  0  0  0
   38.9920   27.0030   40.1290 H   0  0  0  0  0  0  0  0  0  0  0  0
   39.8990   31.6830   42.0980 F   0  0  0  0  0  0  0  0  0  0  0  0
   38.9980   32.2020   41.2200 C   0  0  0  0  0  0  0  0  0  0  0  0
   37.9960   31.4060   40.7110 C   0  0  0  0  0  0  0  0  0  0  0  0
   37.0750   31.9250   39.8160 C   0  0  0  0  0  0  0  0  0  0  0  0
   36.3020   31.2680   39.4380 H   0  0  0  0  0  0  0  0  0  0  0  0
   37.1820   33.2570   39.4460 C   0  0  0  0  0  0  0  0  0  0  0  0
   36.4780   33.6710   38.7560 H   0  0  0  0  0  0  0  0  0  0  0  0
   38.1740   34.0730   39.9410 C   0  0  0  0  0  3  0  0  0  0  0  0
   39.0750   33.5250   40.8290 C   0  0  0  0  0  3  0  0  0  0  0  0
   36.3000   27.9910   43.6240 O   0  0  0  0  0  0  0  0  0  0  0  0
   36.6270   28.3300   44.5370 H   0  0  0  0  0  0  0  0  0  0  0  0
  1 18  1  0  0  0  0
  2  7  1  0  0  0  0
  2  1  2  0  0  0  0
  3  2  1  0  0  0  0
  4  3  2  0  0  0  0
  4  5  1  0  0  0  0
  5  6  2  0  0  0  0
  6  1  1  0  0  0  0
  8  3  1  0  0  0  0
 10  9  1  0  0  0  0
 11  5  1  0  0  0  0
 11 10  2  0  0  0  0
 12 11  1  0  0  0  0
 13 12  1  0  0  0  0
 14 12  2  0  0  0  0
 14 16  1  0  0  0  0
 15 14  1  0  0  0  0
 16 17  2  0  0  0  0
 17 10  1  0  0  0  0
 18 19  1  0  0  0  0
M  END
>  <minimizedAffinity>
-4.55361128

$$$$

 OpenBabel03242518433D

 19 20  0  0  0  0  0  0  0  0999 V2000
   37.0250   28.2450   42.4580 C   0  0  0  0  0  0  0  0  0  0  0  0
   37.8460   27.2600   41.8870 C   0  0  0  0  0  0  0  0  0  0  0  0
   38.7580   27.6840   40.8900 C   0  0  0  0  0  0  0  0  0  0  0  0
   38.7790   29.0040   40.5550 N   0  0  0  0  0  0  0  0  0  0  0  0
   37.9690   29.9030   41.1350 C   0  0  0  0  0  0  0  0  0  0  0  0
   37.0970   29.5260   42.0810 N   0  0  0  0  0  0  0  0  0  0  0  0
   37.8060   26.2160   42.1750 H   0  0  0  0  0  0  0  0  0  0  0  0
   39.4100   26.9780   40.4190 H   0  0  0  0  0  0  0  0  0  0  0  0
   36.1560   31.0330   39.3180 F   0  0  0  0  0  0  0  0  0  0  0  0
   37.1350   31.8280   39.8310 C   0  0  0  0  0  0  0  0  0  0  0  0
   38.0440   31.3090   40.7260 C   0  0  0  0  0  0  0  0  0  0  0  0
   39.0440   32.1100   41.2530 C   0  0  0  0  0  0  0  0  0  0  0  0
   39.7390   31.6660   41.9550 H   0  0  0  0  0  0  0  0  0  0  0  0
   39.1100   33.4390   40.8630 C   0  0  0  0  0  0  0  0  0  0  0  0
   39.8760   34.0680   41.2610 H   0  0  0  0  0  0  0  0  0  0  0  0
   38.2130   33.9810   39.9690 C   0  0  0  0  0  3  0  0  0  0  0  0
   37.2300   33.1570   39.4640 C   0  0  0  0  0  3  0  0  0  0  0  0
   36.1410   27.8270   43.4240 O   0  0  0  0  0  0  0  0  0  0  0  0
   36.2970   28.2010   44.3680 H   0  0  0  0  0  0  0  0  0  0  0  0
  1 18  1  0  0  0  0
  2  7  1  0  0  0  0
  2  1  2  0  0  0  0
  3  2  1  0  0  0  0
  4  3  2  0  0  0  0
  4  5  1  0  0  0  0
  5  6  2  0  0  0  0
  6  1  1  0  0  0  0
  8  3  1  0  0  0  0
  9 10  1  0  0  0  0
 10 11  1  0  0  0  0
 11  5  1  0  0  0  0
 11 12  2  0  0  0  0
 12 13  1  0  0  0  0
 14 12  1  0  0  0  0
 14 15  1  0  0  0  0
 16 14  2  0  0  0  0
 17 10  2  0  0  0  0
 17 16  1  0  0  0  0
 18 19  1  0  0  0  0
M  END
>  <minimizedAffinity>
-4.48996019

$$$$

 OpenBabel03242518433D

 19 20  0  0  0  0  0  0  0  0999 V2000
   39.1220   32.8760   40.9300 C   0  0  0  0  0  0  0  0  0  0  0  0
   40.0220   32.7310   39.8630 C   0  0  0  0  0  0  0  0  0  0  0  0
   40.3500   31.4080   39.4750 C   0  0  0  0  0  0  0  0  0  0  0  0
   39.7780   30.3770   40.1570 N   0  0  0  0  0  0  0  0  0  0  0  0
   38.9230   30.5760   41.1710 C   0  0  0  0  0  0  0  0  0  0  0  0
   38.5960   31.8180   41.5570 N   0  0  0  0  0  0  0  0  0  0  0  0
   40.4610   33.5720   39.3400 H   0  0  0  0  0  0  0  0  0  0  0  0
   41.0310   31.2350   38.6680 H   0  0  0  0  0  0  0  0  0  0  0  0
   40.3610   29.0820   43.0590 F   0  0  0  0  0  0  0  0  0  0  0  0
   39.0820   28.7090   42.7820 C   0  0  0  0  0  0  0  0  0  0  0  0
   38.3430   29.4180   41.8610 C   0  0  0  0  0  0  0  0  0  0  0  0
   37.0400   29.0480   41.5730 C   0  0  0  0  0  0  0  0  0  0  0  0
   36.4910   29.6300   40.8440 H   0  0  0  0  0  0  0  0  0  0  0  0
   36.4970   27.9530   42.2280 C   0  0  0  0  0  0  0  0  0  0  0  0
   35.4930   27.6560   42.0160 H   0  0  0  0  0  0  0  0  0  0  0  0
   37.2150   27.2280   43.1530 C   0  0  0  0  0  3  0  0  0  0  0  0
   38.5090   27.6240   43.4170 C   0  0  0  0  0  3  0  0  0  0  0  0
   38.8080   34.1610   41.3010 O   0  0  0  0  0  0  0  0  0  0  0  0
   37.8290   34.4420   41.1680 H   0  0  0  0  0  0  0  0  0  0  0  0
  1 18  1  0  0  0  0
  1  6  1  0  0  0  0
  2  1  2  0  0  0  0
  3  2  1  0  0  0  0
  3  4  2  0  0  0  0
  4  5  1  0  0  0  0
  5  6  2  0  0  0  0
  5 11  1  0  0  0  0
  7  2  1  0  0  0  0
  8  3  1  0  0  0  0
 10  9  1  0  0  0  0
 10 17  1  0  0  0  0
 11 10  2  0  0  0  0
 12 11  1  0  0  0  0
 12 14  2  0  0  0  0
 13 12  1  0  0  0  0
 14 16  1  0  0  0  0
 15 14  1  0  0  0  0
 16 17  2  0  0  0  0
 19 18  1  0  0  0  0
M  END
>  <minimizedAffinity>
-4.47316647

$$$$
