
 OpenBabel03252507073D

 24 25  0  0  0  0  0  0  0  0999 V2000
   44.5180   36.0380   44.5110 C   0  0  0  0  0  0  0  0  0  0  0  0
   45.1480   35.9920   43.2440 C   0  0  0  0  0  0  0  0  0  0  0  0
   46.0420   34.9470   43.0160 C   0  0  0  0  0  0  0  0  0  0  0  0
   46.2660   34.0380   43.9960 N   0  0  0  0  0  0  0  0  0  0  0  0
   45.6540   34.1070   45.1900 C   0  0  0  0  0  0  0  0  0  0  0  0
   44.7830   35.0980   45.4580 N   0  0  0  0  0  0  0  0  0  0  0  0
   43.8140   36.8550   44.7010 H   0  0  0  0  0  0  0  0  0  0  0  0
   44.9520   36.7270   42.4810 H   0  0  0  0  0  0  0  0  0  0  0  0
   47.6120   32.0940   44.7240 F   0  0  0  0  0  0  0  0  0  0  0  0
   46.9340   32.1050   45.9150 C   0  0  0  0  0  0  0  0  0  0  0  0
   45.9710   33.0760   46.1720 C   0  0  0  0  0  0  0  0  0  0  0  0
   45.2880   33.0840   47.3710 C   0  0  0  0  0  0  0  0  0  0  0  0
   44.5290   33.8320   47.6030 H   0  0  0  0  0  0  0  0  0  0  0  0
   45.5580   32.1200   48.3350 C   0  0  0  0  0  0  0  0  0  0  0  0
   44.9940   32.1610   49.2760 H   0  0  0  0  0  0  0  0  0  0  0  0
   46.5150   31.1420   48.0990 C   0  0  0  0  0  3  0  0  0  0  0  0
   47.2050   31.1360   46.8830 C   0  0  0  0  0  3  0  0  0  0  0  0
   46.6610   34.9040   41.7650 O   0  0  0  0  0  0  0  0  0  0  0  0
   48.5850   33.2180   41.1000 O   0  0  0  0  0  0  0  0  0  0  0  0
   48.3510   34.6090   41.6760 P   0  0  0  0  0  0  0  0  0  0  0  0
   49.0720   35.8030   40.7570 O   0  0  0  0  0  0  0  0  0  0  0  0
   49.8560   36.1310   41.2320 H   0  0  0  0  0  0  0  0  0  0  0  0
   48.9510   34.5920   43.2710 O   0  0  0  0  0  0  0  0  0  0  0  0
   49.0340   35.5670   43.5070 H   0  0  0  0  0  0  0  0  0  0  0  0
  1  7  1  0  0  0  0
  1  6  1  0  0  0  0
  2  1  2  0  0  0  0
  3  2  1  0  0  0  0
  3  4  2  0  0  0  0
  4  5  1  0  0  0  0
  5  6  2  0  0  0  0
  5 11  1  0  0  0  0
  8  2  1  0  0  0  0
  9 10  1  0  0  0  0
 10 11  2  0  0  0  0
 10 17  1  0  0  0  0
 11 12  1  0  0  0  0
 12 13  1  0  0  0  0
 12 14  2  0  0  0  0
 14 15  1  0  0  0  0
 16 14  1  0  0  0  0
 17 16  2  0  0  0  0
 18  3  1  0  0  0  0
 19 20  2  0  0  0  0
 20 18  1  0  0  0  0
 20 23  1  0  0  0  0
 21 22  1  0  0  0  0
 21 20  1  0  0  0  0
 23 24  1  0  0  0  0
M  END
>  <minimizedAffinity>
-5.98631716

>  <minimizedRMSD>
0.353793502

$$$$
