
 OpenBabel03242517093D

 34 36  0  0  1  0  0  0  0  0999 V2000
   36.5070   30.2920   40.2910 C   0  0  2  0  0  0  0  0  0  0  0  0
   36.8740   29.7070   38.9750 C   0  0  2  0  0  0  0  0  0  0  0  0
   37.9250   30.4660   38.2570 C   0  0  0  0  0  0  0  0  0  0  0  0
   37.6400   31.9330   38.1070 C   0  0  0  0  0  0  0  0  0  0  0  0
   37.0310   32.5450   39.3310 C   0  0  0  0  0  0  0  0  0  0  0  0
   37.1310   31.6530   40.5420 C   0  0  0  0  0  0  0  0  0  0  0  0
   35.3910   30.3950   40.3630 H   0  0  0  0  0  0  0  0  0  0  0  0
   37.3370   28.6590   39.1830 H   0  0  0  0  0  0  0  0  0  0  0  0
   38.9270   30.4400   38.7780 H   0  0  0  0  0  0  0  0  0  0  0  0
   38.1310   30.0200   37.2590 H   0  0  0  0  0  0  0  0  0  0  0  0
   37.0080   32.1280   37.2300 H   0  0  0  0  0  0  0  0  0  0  0  0
   38.6280   32.4310   37.8500 H   0  0  0  0  0  0  0  0  0  0  0  0
   37.6080   33.4670   39.5540 H   0  0  0  0  0  0  0  0  0  0  0  0
   35.9910   32.8970   39.1800 H   0  0  0  0  0  0  0  0  0  0  0  0
   38.1600   31.5250   40.8830 H   0  0  0  0  0  0  0  0  0  0  0  0
   36.5470   32.1240   41.3590 H   0  0  0  0  0  0  0  0  0  0  0  0
   36.9080   29.4070   41.4050 C   0  0  0  0  0  0  0  0  0  0  0  0
   38.0300   29.8160   42.1600 C   0  0  0  0  0  0  0  0  0  0  0  0
   38.4580   29.0280   43.2300 C   0  0  0  0  0  0  0  0  0  0  0  0
   37.7340   27.8780   43.4770 N   0  0  0  0  0  0  0  0  0  0  0  0
   36.6690   27.5120   42.7440 C   0  0  0  0  0  0  0  0  0  0  0  0
   36.2570   28.2800   41.7050 N   0  0  0  0  0  0  0  0  0  0  0  0
   38.6360   30.6670   42.0420 H   0  0  0  0  0  0  0  0  0  0  0  0
   39.3020   29.2570   43.8640 H   0  0  0  0  0  0  0  0  0  0  0  0
   36.1900   26.5870   43.0430 H   0  0  0  0  0  0  0  0  0  0  0  0
   34.1930   29.2960   39.8920 F   0  0  0  0  0  0  0  0  0  0  0  0
   34.4340   29.1750   38.5450 C   0  0  0  0  0  0  0  0  0  0  0  0
   35.7490   29.3610   38.0860 C   0  0  0  0  0  0  0  0  0  0  0  0
   35.8010   29.2030   36.7280 C   0  0  0  0  0  0  0  0  0  0  0  0
   36.7300   29.3310   36.2060 H   0  0  0  0  0  0  0  0  0  0  0  0
   34.7480   28.9080   35.8970 C   0  0  0  0  0  0  0  0  0  0  0  0
   34.8480   28.7940   34.8270 H   0  0  0  0  0  0  0  0  0  0  0  0
   33.5030   28.7440   36.4340 C   0  0  0  0  0  3  0  0  0  0  0  0
   33.3300   28.8780   37.7850 C   0  0  0  0  0  3  0  0  0  0  0  0
  1  7  1  1  0  0  0
  1  6  1  0  0  0  0
  1 17  1  0  0  0  0
  2  8  1  1  0  0  0
  2  1  1  0  0  0  0
  3  9  1  0  0  0  0
  3  2  1  0  0  0  0
  4  3  1  0  0  0  0
  4  5  1  0  0  0  0
  5 13  1  0  0  0  0
  5  6  1  0  0  0  0
  6 15  1  0  0  0  0
  6 16  1  0  0  0  0
 10  3  1  0  0  0  0
 11  4  1  0  0  0  0
 12  4  1  0  0  0  0
 14  5  1  0  0  0  0
 17 22  2  0  0  0  0
 17 18  1  0  0  0  0
 18 19  2  0  0  0  0
 19 20  1  0  0  0  0
 19 24  1  0  0  0  0
 21 25  1  0  0  0  0
 21 20  2  0  0  0  0
 22 21  1  0  0  0  0
 23 18  1  0  0  0  0
 27 26  1  0  0  0  0
 28 27  1  0  0  0  0
 28  2  1  0  0  0  0
 29 28  2  0  0  0  0
 30 29  1  0  0  0  0
 31 33  2  0  0  0  0
 31 29  1  0  0  0  0
 32 31  1  0  0  0  0
 33 34  1  0  0  0  0
 34 27  2  0  0  0  0
M  END
>  <minimizedAffinity>
-5.66687679

$$$$

 OpenBabel03242517093D

 34 36  0  0  1  0  0  0  0  0999 V2000
   36.1980   27.6620   38.9860 C   0  0  2  0  0  0  0  0  0  0  0  0
   35.5650   28.8940   39.5250 C   0  0  2  0  0  0  0  0  0  0  0  0
   34.1310   29.0280   39.1780 C   0  0  0  0  0  0  0  0  0  0  0  0
   33.8310   28.8950   37.7120 C   0  0  0  0  0  0  0  0  0  0  0  0
   34.6270   27.8170   37.0420 C   0  0  0  0  0  0  0  0  0  0  0  0
   35.3080   26.8970   38.0220 C   0  0  0  0  0  0  0  0  0  0  0  0
   37.1510   27.9270   38.4530 H   0  0  0  0  0  0  0  0  0  0  0  0
   35.5960   28.8130   40.6860 H   0  0  0  0  0  0  0  0  0  0  0  0
   33.4810   28.2380   39.6570 H   0  0  0  0  0  0  0  0  0  0  0  0
   33.7130   29.9850   39.5610 H   0  0  0  0  0  0  0  0  0  0  0  0
   33.9680   29.8500   37.1890 H   0  0  0  0  0  0  0  0  0  0  0  0
   32.7160   28.6910   37.6270 H   0  0  0  0  0  0  0  0  0  0  0  0
   33.9120   27.2020   36.4570 H   0  0  0  0  0  0  0  0  0  0  0  0
   35.3450   28.2010   36.2900 H   0  0  0  0  0  0  0  0  0  0  0  0
   34.5990   26.2880   38.5860 H   0  0  0  0  0  0  0  0  0  0  0  0
   35.9710   26.2200   37.4460 H   0  0  0  0  0  0  0  0  0  0  0  0
   36.5810   26.7320   40.0700 C   0  0  0  0  0  0  0  0  0  0  0  0
   36.8970   27.3180   41.3160 C   0  0  0  0  0  0  0  0  0  0  0  0
   37.2600   26.4950   42.3840 C   0  0  0  0  0  0  0  0  0  0  0  0
   37.2850   25.1370   42.1360 N   0  0  0  0  0  0  0  0  0  0  0  0
   36.9790   24.6060   40.9400 C   0  0  0  0  0  0  0  0  0  0  0  0
   36.6270   25.4080   39.9060 N   0  0  0  0  0  0  0  0  0  0  0  0
   36.9060   28.3320   41.5910 H   0  0  0  0  0  0  0  0  0  0  0  0
   37.5190   26.8480   43.3720 H   0  0  0  0  0  0  0  0  0  0  0  0
   37.0380   23.5250   40.8790 H   0  0  0  0  0  0  0  0  0  0  0  0
   35.9790   30.8800   41.5440 F   0  0  0  0  0  0  0  0  0  0  0  0
   36.5100   31.1130   40.3000 C   0  0  0  0  0  0  0  0  0  0  0  0
   36.3010   30.1510   39.2970 C   0  0  0  0  0  0  0  0  0  0  0  0
   36.8970   30.5480   38.1310 C   0  0  0  0  0  0  0  0  0  0  0  0
   36.8530   29.9180   37.2620 H   0  0  0  0  0  0  0  0  0  0  0  0
   37.6050   31.7060   37.9260 C   0  0  0  0  0  0  0  0  0  0  0  0
   38.0560   31.9690   36.9800 H   0  0  0  0  0  0  0  0  0  0  0  0
   37.7570   32.5850   38.9610 C   0  0  0  0  0  3  0  0  0  0  0  0
   37.2030   32.2920   40.1780 C   0  0  0  0  0  3  0  0  0  0  0  0
  1  7  1  6  0  0  0
  1  2  1  0  0  0  0
  1 17  1  0  0  0  0
  2  8  1  1  0  0  0
  3  2  1  0  0  0  0
  3 10  1  0  0  0  0
  3  9  1  0  0  0  0
  4  3  1  0  0  0  0
  5  4  1  0  0  0  0
  5  6  1  0  0  0  0
  6 15  1  0  0  0  0
  6  1  1  0  0  0  0
 11  4  1  0  0  0  0
 12  4  1  0  0  0  0
 13  5  1  0  0  0  0
 14  5  1  0  0  0  0
 16  6  1  0  0  0  0
 17 18  1  0  0  0  0
 18 23  1  0  0  0  0
 18 19  2  0  0  0  0
 19 24  1  0  0  0  0
 20 19  1  0  0  0  0
 21 20  2  0  0  0  0
 22 17  2  0  0  0  0
 22 21  1  0  0  0  0
 25 21  1  0  0  0  0
 27 26  1  0  0  0  0
 28  2  1  0  0  0  0
 28 27  2  0  0  0  0
 29 28  1  0  0  0  0
 30 29  1  0  0  0  0
 31 29  2  0  0  0  0
 31 33  1  0  0  0  0
 32 31  1  0  0  0  0
 33 34  2  0  0  0  0
 34 27  1  0  0  0  0
M  END
>  <minimizedAffinity>
-5.59260082

$$$$

 OpenBabel03242517093D

 34 36  0  0  1  0  0  0  0  0999 V2000
   38.1150   28.4430   40.7960 C   0  0  2  0  0  0  0  0  0  0  0  0
   36.9350   27.6290   41.1890 C   0  0  2  0  0  0  0  0  0  0  0  0
   36.3630   28.0050   42.5040 C   0  0  0  0  0  0  0  0  0  0  0  0
   37.3600   28.0420   43.6270 C   0  0  0  0  0  0  0  0  0  0  0  0
   38.6770   28.6350   43.2290 C   0  0  0  0  0  0  0  0  0  0  0  0
   38.6190   29.3510   41.9040 C   0  0  0  0  0  0  0  0  0  0  0  0
   38.9550   27.7670   40.4830 H   0  0  0  0  0  0  0  0  0  0  0  0
   36.0950   27.8480   40.4130 H   0  0  0  0  0  0  0  0  0  0  0  0
   35.9100   29.0390   42.5130 H   0  0  0  0  0  0  0  0  0  0  0  0
   35.5150   27.3390   42.7770 H   0  0  0  0  0  0  0  0  0  0  0  0
   37.5080   27.0450   44.0620 H   0  0  0  0  0  0  0  0  0  0  0  0
   36.8800   28.6400   44.4660 H   0  0  0  0  0  0  0  0  0  0  0  0
   38.9390   29.3910   43.9990 H   0  0  0  0  0  0  0  0  0  0  0  0
   39.5140   27.9090   43.2540 H   0  0  0  0  0  0  0  0  0  0  0  0
   38.0070   30.2540   41.9420 H   0  0  0  0  0  0  0  0  0  0  0  0
   39.6540   29.6410   41.6300 H   0  0  0  0  0  0  0  0  0  0  0  0
   37.8170   29.2950   39.6250 C   0  0  0  0  0  0  0  0  0  0  0  0
   37.3390   30.5960   39.9000 C   0  0  0  0  0  0  0  0  0  0  0  0
   37.0440   31.4530   38.8380 C   0  0  0  0  0  0  0  0  0  0  0  0
   37.2470   30.9530   37.5670 N   0  0  0  0  0  0  0  0  0  0  0  0
   37.7030   29.7110   37.3330 C   0  0  0  0  0  0  0  0  0  0  0  0
   37.9880   28.8810   38.3660 N   0  0  0  0  0  0  0  0  0  0  0  0
   37.1550   31.0540   40.8270 H   0  0  0  0  0  0  0  0  0  0  0  0
   36.6740   32.4620   38.9470 H   0  0  0  0  0  0  0  0  0  0  0  0
   37.8180   29.4430   36.2890 H   0  0  0  0  0  0  0  0  0  0  0  0
   35.9350   26.1240   38.9690 F   0  0  0  0  0  0  0  0  0  0  0  0
   36.6030   25.4410   39.9560 C   0  0  0  0  0  0  0  0  0  0  0  0
   37.0850   26.1680   41.0570 C   0  0  0  0  0  0  0  0  0  0  0  0
   37.7180   25.3310   41.9340 C   0  0  0  0  0  0  0  0  0  0  0  0
   38.1670   25.7250   42.8270 H   0  0  0  0  0  0  0  0  0  0  0  0
   37.8820   23.9740   41.7980 C   0  0  0  0  0  0  0  0  0  0  0  0
   38.3930   23.3600   42.5250 H   0  0  0  0  0  0  0  0  0  0  0  0
   37.3780   23.3510   40.6920 C   0  0  0  0  0  3  0  0  0  0  0  0
   36.7230   24.0900   39.7440 C   0  0  0  0  0  3  0  0  0  0  0  0
  1  7  1  6  0  0  0
  1  2  1  0  0  0  0
  1  6  1  0  0  0  0
  2  8  1  6  0  0  0
  2  3  1  0  0  0  0
  3  9  1  0  0  0  0
  3 10  1  0  0  0  0
  3  4  1  0  0  0  0
  4 11  1  0  0  0  0
  4 12  1  0  0  0  0
  5 14  1  0  0  0  0
  5  4  1  0  0  0  0
  5 13  1  0  0  0  0
  6 15  1  0  0  0  0
  6  5  1  0  0  0  0
 16  6  1  0  0  0  0
 17 18  1  0  0  0  0
 17  1  1  0  0  0  0
 18 23  1  0  0  0  0
 19 24  1  0  0  0  0
 19 18  2  0  0  0  0
 20 19  1  0  0  0  0
 21 20  2  0  0  0  0
 21 22  1  0  0  0  0
 22 17  2  0  0  0  0
 25 21  1  0  0  0  0
 26 27  1  0  0  0  0
 27 28  1  0  0  0  0
 28  2  1  0  0  0  0
 28 29  2  0  0  0  0
 29 30  1  0  0  0  0
 31 29  1  0  0  0  0
 31 32  1  0  0  0  0
 33 31  2  0  0  0  0
 34 27  2  0  0  0  0
 34 33  1  0  0  0  0
M  END
>  <minimizedAffinity>
-5.27869463

$$$$

 OpenBabel03242517093D

 34 36  0  0  1  0  0  0  0  0999 V2000
   36.8640   29.2310   39.0900 C   0  0  2  0  0  0  0  0  0  0  0  0
   36.5750   29.3610   40.5420 C   0  0  2  0  0  0  0  0  0  0  0  0
   36.1150   30.7120   40.9400 C   0  0  0  0  0  0  0  0  0  0  0  0
   37.0120   31.8310   40.4920 C   0  0  0  0  0  0  0  0  0  0  0  0
   37.5460   31.6400   39.1060 C   0  0  0  0  0  0  0  0  0  0  0  0
   36.8290   30.5550   38.3470 C   0  0  0  0  0  0  0  0  0  0  0  0
   37.8780   28.7700   38.9450 H   0  0  0  0  0  0  0  0  0  0  0  0
   35.6830   28.6500   40.7780 H   0  0  0  0  0  0  0  0  0  0  0  0
   35.1090   30.9860   40.5060 H   0  0  0  0  0  0  0  0  0  0  0  0
   35.9580   30.7750   42.0400 H   0  0  0  0  0  0  0  0  0  0  0  0
   37.8370   31.9860   41.1990 H   0  0  0  0  0  0  0  0  0  0  0  0
   36.4010   32.7860   40.5670 H   0  0  0  0  0  0  0  0  0  0  0  0
   37.3750   32.5910   38.5590 H   0  0  0  0  0  0  0  0  0  0  0  0
   38.6440   31.4930   39.0710 H   0  0  0  0  0  0  0  0  0  0  0  0
   35.7940   30.8160   38.1190 H   0  0  0  0  0  0  0  0  0  0  0  0
   37.3690   30.3960   37.3900 H   0  0  0  0  0  0  0  0  0  0  0  0
   35.9040   28.3230   38.4280 C   0  0  0  0  0  0  0  0  0  0  0  0
   34.7080   28.9090   37.9560 C   0  0  0  0  0  0  0  0  0  0  0  0
   33.7610   28.1080   37.3160 C   0  0  0  0  0  0  0  0  0  0  0  0
   34.0730   26.7680   37.1870 N   0  0  0  0  0  0  0  0  0  0  0  0
   35.2190   26.2360   37.6440 C   0  0  0  0  0  0  0  0  0  0  0  0
   36.1350   27.0170   38.2660 N   0  0  0  0  0  0  0  0  0  0  0  0
   34.3910   29.9090   38.0120 H   0  0  0  0  0  0  0  0  0  0  0  0
   32.8200   28.4620   36.9230 H   0  0  0  0  0  0  0  0  0  0  0  0
   35.3390   25.1720   37.4790 H   0  0  0  0  0  0  0  0  0  0  0  0
   36.0080   27.7750   42.8570 F   0  0  0  0  0  0  0  0  0  0  0  0
   37.3230   28.0570   42.5820 C   0  0  0  0  0  0  0  0  0  0  0  0
   37.6120   28.8470   41.4560 C   0  0  0  0  0  0  0  0  0  0  0  0
   38.9630   29.0240   41.3390 C   0  0  0  0  0  0  0  0  0  0  0  0
   39.3630   29.5890   40.5180 H   0  0  0  0  0  0  0  0  0  0  0  0
   39.9300   28.5230   42.1750 C   0  0  0  0  0  0  0  0  0  0  0  0
   40.9880   28.6950   42.0330 H   0  0  0  0  0  0  0  0  0  0  0  0
   39.5550   27.7640   43.2470 C   0  0  0  0  0  3  0  0  0  0  0  0
   38.2260   27.5190   43.4650 C   0  0  0  0  0  3  0  0  0  0  0  0
  1  7  1  6  0  0  0
  1  2  1  0  0  0  0
  2  8  1  1  0  0  0
  2  3  1  0  0  0  0
  2 28  1  0  0  0  0
  3 10  1  0  0  0  0
  4 12  1  0  0  0  0
  4  3  1  0  0  0  0
  4 11  1  0  0  0  0
  5  4  1  0  0  0  0
  6  1  1  0  0  0  0
  6  5  1  0  0  0  0
  9  3  1  0  0  0  0
 13  5  1  0  0  0  0
 14  5  1  0  0  0  0
 15  6  1  0  0  0  0
 16  6  1  0  0  0  0
 17  1  1  0  0  0  0
 18 23  1  0  0  0  0
 18 17  2  0  0  0  0
 19 18  1  0  0  0  0
 20 19  2  0  0  0  0
 20 21  1  0  0  0  0
 21 22  2  0  0  0  0
 22 17  1  0  0  0  0
 24 19  1  0  0  0  0
 25 21  1  0  0  0  0
 27 26  1  0  0  0  0
 27 34  1  0  0  0  0
 28 27  2  0  0  0  0
 29 28  1  0  0  0  0
 29 31  2  0  0  0  0
 30 29  1  0  0  0  0
 31 33  1  0  0  0  0
 32 31  1  0  0  0  0
 33 34  2  0  0  0  0
M  END
>  <minimizedAffinity>
-5.26550055

$$$$

 OpenBabel03242517093D

 34 36  0  0  1  0  0  0  0  0999 V2000
   37.7070   28.2640   40.2600 C   0  0  2  0  0  0  0  0  0  0  0  0
   36.9010   29.3670   40.8470 C   0  0  2  0  0  0  0  0  0  0  0  0
   35.4390   29.1780   40.7020 C   0  0  0  0  0  0  0  0  0  0  0  0
   34.9840   28.9010   39.2980 C   0  0  0  0  0  0  0  0  0  0  0  0
   35.8970   27.9760   38.5530 C   0  0  0  0  0  0  0  0  0  0  0  0
   36.8830   27.2770   39.4530 C   0  0  0  0  0  0  0  0  0  0  0  0
   38.5020   28.6910   39.5910 H   0  0  0  0  0  0  0  0  0  0  0  0
   37.1010   29.3620   41.9940 H   0  0  0  0  0  0  0  0  0  0  0  0
   35.0420   28.2990   41.2910 H   0  0  0  0  0  0  0  0  0  0  0  0
   34.8790   30.0480   41.1120 H   0  0  0  0  0  0  0  0  0  0  0  0
   34.8430   29.8320   38.7340 H   0  0  0  0  0  0  0  0  0  0  0  0
   33.9380   28.4650   39.3760 H   0  0  0  0  0  0  0  0  0  0  0  0
   35.2600   27.1920   38.0920 H   0  0  0  0  0  0  0  0  0  0  0  0
   36.4110   28.4570   37.6970 H   0  0  0  0  0  0  0  0  0  0  0  0
   36.4010   26.5670   40.1290 H   0  0  0  0  0  0  0  0  0  0  0  0
   37.5940   26.7200   38.8090 H   0  0  0  0  0  0  0  0  0  0  0  0
   38.4190   27.5000   41.3050 C   0  0  0  0  0  0  0  0  0  0  0  0
   38.0990   27.8180   42.6440 C   0  0  0  0  0  0  0  0  0  0  0  0
   38.7310   27.1280   43.6800 C   0  0  0  0  0  0  0  0  0  0  0  0
   39.6470   26.1620   43.3090 N   0  0  0  0  0  0  0  0  0  0  0  0
   39.9330   25.8790   42.0270 C   0  0  0  0  0  0  0  0  0  0  0  0
   39.3170   26.5510   41.0240 N   0  0  0  0  0  0  0  0  0  0  0  0
   37.4230   28.5320   43.0140 H   0  0  0  0  0  0  0  0  0  0  0  0
   38.5540   27.2990   44.7310 H   0  0  0  0  0  0  0  0  0  0  0  0
   40.6700   25.0990   41.8730 H   0  0  0  0  0  0  0  0  0  0  0  0
   38.9710   30.8150   42.1940 F   0  0  0  0  0  0  0  0  0  0  0  0
   38.3410   31.4310   41.1410 C   0  0  0  0  0  0  0  0  0  0  0  0
   37.3140   30.7340   40.4820 C   0  0  0  0  0  0  0  0  0  0  0  0
   36.8040   31.4960   39.4660 C   0  0  0  0  0  0  0  0  0  0  0  0
   36.0210   31.1080   38.8430 H   0  0  0  0  0  0  0  0  0  0  0  0
   37.2070   32.7590   39.1090 C   0  0  0  0  0  0  0  0  0  0  0  0
   36.7660   33.3160   38.2940 H   0  0  0  0  0  0  0  0  0  0  0  0
   38.2150   33.3590   39.8080 C   0  0  0  0  0  3  0  0  0  0  0  0
   38.8020   32.6900   40.8480 C   0  0  0  0  0  3  0  0  0  0  0  0
  1  7  1  6  0  0  0
  1  2  1  0  0  0  0
  1 17  1  0  0  0  0
  2  8  1  1  0  0  0
  3  2  1  0  0  0  0
  3 10  1  0  0  0  0
  3  9  1  0  0  0  0
  4 12  1  0  0  0  0
  4  3  1  0  0  0  0
  5  4  1  0  0  0  0
  5  6  1  0  0  0  0
  6 15  1  0  0  0  0
  6  1  1  0  0  0  0
 11  4  1  0  0  0  0
 13  5  1  0  0  0  0
 14  5  1  0  0  0  0
 16  6  1  0  0  0  0
 17 18  1  0  0  0  0
 18 23  1  0  0  0  0
 18 19  2  0  0  0  0
 19 24  1  0  0  0  0
 20 19  1  0  0  0  0
 21 20  2  0  0  0  0
 22 17  2  0  0  0  0
 22 21  1  0  0  0  0
 25 21  1  0  0  0  0
 27 26  1  0  0  0  0
 28  2  1  0  0  0  0
 28 27  2  0  0  0  0
 29 28  1  0  0  0  0
 30 29  1  0  0  0  0
 31 29  2  0  0  0  0
 31 33  1  0  0  0  0
 32 31  1  0  0  0  0
 33 34  2  0  0  0  0
 34 27  1  0  0  0  0
M  END
>  <minimizedAffinity>
-5.18047523

$$$$

 OpenBabel03242517093D

 34 36  0  0  1  0  0  0  0  0999 V2000
   38.4460   30.2610   38.8750 C   0  0  2  0  0  0  0  0  0  0  0  0
   37.3630   30.2800   39.8930 C   0  0  2  0  0  0  0  0  0  0  0  0
   36.8860   31.6420   40.2300 C   0  0  0  0  0  0  0  0  0  0  0  0
   37.9720   32.6040   40.6160 C   0  0  0  0  0  0  0  0  0  0  0  0
   39.2060   32.4700   39.7760 C   0  0  0  0  0  0  0  0  0  0  0  0
   38.9830   31.6410   38.5380 C   0  0  0  0  0  0  0  0  0  0  0  0
   39.2990   29.6280   39.2400 H   0  0  0  0  0  0  0  0  0  0  0  0
   36.4450   29.7380   39.4260 H   0  0  0  0  0  0  0  0  0  0  0  0
   36.3650   32.1570   39.3700 H   0  0  0  0  0  0  0  0  0  0  0  0
   36.1120   31.6100   41.0290 H   0  0  0  0  0  0  0  0  0  0  0  0
   38.2260   32.5130   41.6810 H   0  0  0  0  0  0  0  0  0  0  0  0
   37.5300   33.6470   40.5270 H   0  0  0  0  0  0  0  0  0  0  0  0
   39.4830   33.4920   39.4410 H   0  0  0  0  0  0  0  0  0  0  0  0
   40.0890   32.1140   40.3420 H   0  0  0  0  0  0  0  0  0  0  0  0
   38.3160   32.1270   37.8230 H   0  0  0  0  0  0  0  0  0  0  0  0
   39.9680   31.4880   38.0510 H   0  0  0  0  0  0  0  0  0  0  0  0
   37.9880   29.6420   37.6130 C   0  0  0  0  0  0  0  0  0  0  0  0
   38.6440   28.4540   37.2220 C   0  0  0  0  0  0  0  0  0  0  0  0
   38.2560   27.8150   36.0430 C   0  0  0  0  0  0  0  0  0  0  0  0
   37.2340   28.4080   35.3280 N   0  0  0  0  0  0  0  0  0  0  0  0
   36.6260   29.5400   35.7230 C   0  0  0  0  0  0  0  0  0  0  0  0
   37.0060   30.1570   36.8680 N   0  0  0  0  0  0  0  0  0  0  0  0
   39.4260   27.9380   37.7000 H   0  0  0  0  0  0  0  0  0  0  0  0
   38.6960   26.9050   35.6620 H   0  0  0  0  0  0  0  0  0  0  0  0
   35.8390   29.9000   35.0700 H   0  0  0  0  0  0  0  0  0  0  0  0
   35.3400   28.7140   41.1780 F   0  0  0  0  0  0  0  0  0  0  0  0
   36.6020   28.6950   41.7170 C   0  0  0  0  0  0  0  0  0  0  0  0
   37.6000   29.4710   41.1030 C   0  0  0  0  0  0  0  0  0  0  0  0
   38.7850   29.3300   41.7710 C   0  0  0  0  0  0  0  0  0  0  0  0
   39.6630   29.8410   41.4230 H   0  0  0  0  0  0  0  0  0  0  0  0
   39.0120   28.5550   42.8820 C   0  0  0  0  0  0  0  0  0  0  0  0
   39.9730   28.4810   43.3700 H   0  0  0  0  0  0  0  0  0  0  0  0
   37.9800   27.8330   43.4110 C   0  0  0  0  0  3  0  0  0  0  0  0
   36.7450   27.8960   42.8250 C   0  0  0  0  0  3  0  0  0  0  0  0
  1  7  1  1  0  0  0
  1  2  1  0  0  0  0
  2  8  1  6  0  0  0
  2  3  1  0  0  0  0
  2 28  1  0  0  0  0
  3  4  1  0  0  0  0
  3 10  1  0  0  0  0
  4 11  1  0  0  0  0
  5 14  1  0  0  0  0
  5  4  1  0  0  0  0
  6  1  1  0  0  0  0
  6  5  1  0  0  0  0
  9  3  1  0  0  0  0
 12  4  1  0  0  0  0
 13  5  1  0  0  0  0
 15  6  1  0  0  0  0
 16  6  1  0  0  0  0
 17  1  1  0  0  0  0
 18 17  1  0  0  0  0
 18 23  1  0  0  0  0
 19 18  2  0  0  0  0
 20 21  2  0  0  0  0
 20 19  1  0  0  0  0
 21 22  1  0  0  0  0
 22 17  2  0  0  0  0
 24 19  1  0  0  0  0
 25 21  1  0  0  0  0
 26 27  1  0  0  0  0
 27 34  1  0  0  0  0
 28 27  2  0  0  0  0
 28 29  1  0  0  0  0
 29 31  2  0  0  0  0
 30 29  1  0  0  0  0
 31 32  1  0  0  0  0
 31 33  1  0  0  0  0
 34 33  2  0  0  0  0
M  END
>  <minimizedAffinity>
-5.11370945

$$$$

 OpenBabel03242517093D

 34 36  0  0  1  0  0  0  0  0999 V2000
   39.0220   25.6330   41.1780 C   0  0  2  0  0  0  0  0  0  0  0  0
   37.7160   26.0270   41.7680 C   0  0  2  0  0  0  0  0  0  0  0  0
   36.8650   24.8760   42.1530 C   0  0  0  0  0  0  0  0  0  0  0  0
   36.6520   23.8680   41.0600 C   0  0  0  0  0  0  0  0  0  0  0  0
   37.8860   23.6010   40.2540 C   0  0  0  0  0  0  0  0  0  0  0  0
   39.1350   24.1440   40.8990 C   0  0  0  0  0  0  0  0  0  0  0  0
   39.1850   26.1870   40.2140 H   0  0  0  0  0  0  0  0  0  0  0  0
   37.9460   26.5870   42.7630 H   0  0  0  0  0  0  0  0  0  0  0  0
   37.2960   24.2660   43.0000 H   0  0  0  0  0  0  0  0  0  0  0  0
   35.8810   25.2180   42.5440 H   0  0  0  0  0  0  0  0  0  0  0  0
   35.8240   24.1620   40.4010 H   0  0  0  0  0  0  0  0  0  0  0  0
   36.2800   22.9190   41.5620 H   0  0  0  0  0  0  0  0  0  0  0  0
   38.0020   22.4990   40.1920 H   0  0  0  0  0  0  0  0  0  0  0  0
   37.8060   23.9320   39.1990 H   0  0  0  0  0  0  0  0  0  0  0  0
   39.3920   23.6200   41.8210 H   0  0  0  0  0  0  0  0  0  0  0  0
   39.9700   24.0180   40.1800 H   0  0  0  0  0  0  0  0  0  0  0  0
   40.1480   26.0070   42.0600 C   0  0  0  0  0  0  0  0  0  0  0  0
   40.2340   27.3690   42.4250 C   0  0  0  0  0  0  0  0  0  0  0  0
   41.2700   27.7870   43.2620 C   0  0  0  0  0  0  0  0  0  0  0  0
   42.1570   26.8130   43.6800 N   0  0  0  0  0  0  0  0  0  0  0  0
   42.0510   25.5240   43.3170 C   0  0  0  0  0  0  0  0  0  0  0  0
   41.0440   25.1220   42.5050 N   0  0  0  0  0  0  0  0  0  0  0  0
   39.6100   28.1700   42.1550 H   0  0  0  0  0  0  0  0  0  0  0  0
   41.4200   28.8030   43.5950 H   0  0  0  0  0  0  0  0  0  0  0  0
   42.8130   24.8620   43.7150 H   0  0  0  0  0  0  0  0  0  0  0  0
   36.7070   28.4300   42.9510 F   0  0  0  0  0  0  0  0  0  0  0  0
   36.4740   28.2290   41.6130 C   0  0  0  0  0  0  0  0  0  0  0  0
   36.9520   27.0460   41.0250 C   0  0  0  0  0  0  0  0  0  0  0  0
   36.6300   27.0160   39.6960 C   0  0  0  0  0  0  0  0  0  0  0  0
   36.9380   26.1880   39.0860 H   0  0  0  0  0  0  0  0  0  0  0  0
   35.9420   27.9780   38.9980 C   0  0  0  0  0  0  0  0  0  0  0  0
   35.7150   27.9010   37.9450 H   0  0  0  0  0  0  0  0  0  0  0  0
   35.5140   29.0980   39.6540 C   0  0  0  0  0  3  0  0  0  0  0  0
   35.7800   29.2370   40.9900 C   0  0  0  0  0  3  0  0  0  0  0  0
  1  7  1  6  0  0  0
  1  2  1  0  0  0  0
  1 17  1  0  0  0  0
  2  3  1  0  0  0  0
  2  8  1  1  0  0  0
  3 10  1  0  0  0  0
  3  9  1  0  0  0  0
  4 12  1  0  0  0  0
  4  3  1  0  0  0  0
  5  6  1  0  0  0  0
  5  4  1  0  0  0  0
  6  1  1  0  0  0  0
  6 15  1  0  0  0  0
 11  4  1  0  0  0  0
 13  5  1  0  0  0  0
 14  5  1  0  0  0  0
 16  6  1  0  0  0  0
 17 18  2  0  0  0  0
 17 22  1  0  0  0  0
 18 19  1  0  0  0  0
 19 24  1  0  0  0  0
 19 20  2  0  0  0  0
 21 20  1  0  0  0  0
 21 25  1  0  0  0  0
 22 21  2  0  0  0  0
 23 18  1  0  0  0  0
 27 26  1  0  0  0  0
 28 27  1  0  0  0  0
 28  2  1  0  0  0  0
 29 28  2  0  0  0  0
 30 29  1  0  0  0  0
 31 33  2  0  0  0  0
 31 29  1  0  0  0  0
 32 31  1  0  0  0  0
 33 34  1  0  0  0  0
 34 27  2  0  0  0  0
M  END
>  <minimizedAffinity>
-5.11210442

$$$$

 OpenBabel03242517093D

 34 36  0  0  1  0  0  0  0  0999 V2000
   36.6950   28.0160   39.0860 C   0  0  2  0  0  0  0  0  0  0  0  0
   36.4040   28.2020   40.5320 C   0  0  2  0  0  0  0  0  0  0  0  0
   35.6220   29.4250   40.8300 C   0  0  0  0  0  0  0  0  0  0  0  0
   36.1990   30.6870   40.2560 C   0  0  0  0  0  0  0  0  0  0  0  0
   36.7430   30.5110   38.8710 C   0  0  0  0  0  0  0  0  0  0  0  0
   36.3140   29.2150   38.2340 C   0  0  0  0  0  0  0  0  0  0  0  0
   37.7900   27.8140   38.9420 H   0  0  0  0  0  0  0  0  0  0  0  0
   35.7260   27.3140   40.8610 H   0  0  0  0  0  0  0  0  0  0  0  0
   34.5730   29.3960   40.4130 H   0  0  0  0  0  0  0  0  0  0  0  0
   35.4710   29.5470   41.9260 H   0  0  0  0  0  0  0  0  0  0  0  0
   36.9690   31.1100   40.9150 H   0  0  0  0  0  0  0  0  0  0  0  0
   35.3670   31.4610   40.2720 H   0  0  0  0  0  0  0  0  0  0  0  0
   36.3280   31.3340   38.2520 H   0  0  0  0  0  0  0  0  0  0  0  0
   37.8420   30.6420   38.8080 H   0  0  0  0  0  0  0  0  0  0  0  0
   35.2430   29.1860   38.0250 H   0  0  0  0  0  0  0  0  0  0  0  0
   36.8620   29.1100   37.2760 H   0  0  0  0  0  0  0  0  0  0  0  0
   35.9870   26.8390   38.5400 C   0  0  0  0  0  0  0  0  0  0  0  0
   36.3780   25.5800   39.0460 C   0  0  0  0  0  0  0  0  0  0  0  0
   35.7450   24.4280   38.5760 C   0  0  0  0  0  0  0  0  0  0  0  0
   34.7580   24.6110   37.6270 N   0  0  0  0  0  0  0  0  0  0  0  0
   34.4050   25.8210   37.1620 C   0  0  0  0  0  0  0  0  0  0  0  0
   35.0220   26.9360   37.6210 N   0  0  0  0  0  0  0  0  0  0  0  0
   37.1130   25.3500   39.7610 H   0  0  0  0  0  0  0  0  0  0  0  0
   35.9740   23.4240   38.9020 H   0  0  0  0  0  0  0  0  0  0  0  0
   33.6160   25.8240   36.4190 H   0  0  0  0  0  0  0  0  0  0  0  0
   36.1660   27.3240   43.2460 F   0  0  0  0  0  0  0  0  0  0  0  0
   37.4240   27.6060   42.7730 C   0  0  0  0  0  0  0  0  0  0  0  0
   37.5510   28.0510   41.4460 C   0  0  0  0  0  0  0  0  0  0  0  0
   38.8670   28.2810   41.1500 C   0  0  0  0  0  0  0  0  0  0  0  0
   39.1480   28.6090   40.1670 H   0  0  0  0  0  0  0  0  0  0  0  0
   39.9370   28.1150   41.9930 C   0  0  0  0  0  0  0  0  0  0  0  0
   40.9590   28.3130   41.7040 H   0  0  0  0  0  0  0  0  0  0  0  0
   39.7180   27.6770   43.2690 C   0  0  0  0  0  3  0  0  0  0  0  0
   38.4380   27.4140   43.6780 C   0  0  0  0  0  3  0  0  0  0  0  0
  1  7  1  6  0  0  0
  1  2  1  0  0  0  0
  2  3  1  0  0  0  0
  2  8  1  1  0  0  0
  2 28  1  0  0  0  0
  3 10  1  0  0  0  0
  4 12  1  0  0  0  0
  4  3  1  0  0  0  0
  4 11  1  0  0  0  0
  5  4  1  0  0  0  0
  6  5  1  0  0  0  0
  6  1  1  0  0  0  0
  9  3  1  0  0  0  0
 13  5  1  0  0  0  0
 14  5  1  0  0  0  0
 15  6  1  0  0  0  0
 16  6  1  0  0  0  0
 17 18  1  0  0  0  0
 17  1  1  0  0  0  0
 18 23  1  0  0  0  0
 19 24  1  0  0  0  0
 19 18  2  0  0  0  0
 20 19  1  0  0  0  0
 21 22  1  0  0  0  0
 21 20  2  0  0  0  0
 22 17  2  0  0  0  0
 25 21  1  0  0  0  0
 27 26  1  0  0  0  0
 27 34  1  0  0  0  0
 28 27  2  0  0  0  0
 29 28  1  0  0  0  0
 29 31  2  0  0  0  0
 30 29  1  0  0  0  0
 31 33  1  0  0  0  0
 32 31  1  0  0  0  0
 33 34  2  0  0  0  0
M  END
>  <minimizedAffinity>
-5.09426498

$$$$

 OpenBabel03242517093D

 34 36  0  0  1  0  0  0  0  0999 V2000
   39.3010   27.4150   42.2420 C   0  0  2  0  0  0  0  0  0  0  0  0
   38.6320   28.6410   42.7510 C   0  0  2  0  0  0  0  0  0  0  0  0
   37.5100   28.3660   43.6790 C   0  0  0  0  0  0  0  0  0  0  0  0
   36.4860   27.4040   43.1490 C   0  0  0  0  0  0  0  0  0  0  0  0
   37.0870   26.2540   42.4000 C   0  0  0  0  0  0  0  0  0  0  0  0
   38.5740   26.1330   42.6100 C   0  0  0  0  0  0  0  0  0  0  0  0
   39.3840   27.4650   41.1230 H   0  0  0  0  0  0  0  0  0  0  0  0
   39.4190   29.2230   43.3810 H   0  0  0  0  0  0  0  0  0  0  0  0
   37.8410   27.8960   44.6510 H   0  0  0  0  0  0  0  0  0  0  0  0
   37.0110   29.3090   43.9950 H   0  0  0  0  0  0  0  0  0  0  0  0
   35.7430   27.9180   42.5240 H   0  0  0  0  0  0  0  0  0  0  0  0
   35.8890   27.0400   44.0440 H   0  0  0  0  0  0  0  0  0  0  0  0
   36.6230   25.3290   42.8000 H   0  0  0  0  0  0  0  0  0  0  0  0
   36.8350   26.2490   41.3210 H   0  0  0  0  0  0  0  0  0  0  0  0
   38.8310   25.8510   43.6330 H   0  0  0  0  0  0  0  0  0  0  0  0
   38.9510   25.3460   41.9250 H   0  0  0  0  0  0  0  0  0  0  0  0
   40.6840   27.3040   42.7500 C   0  0  0  0  0  0  0  0  0  0  0  0
   41.1350   26.0020   43.0670 C   0  0  0  0  0  0  0  0  0  0  0  0
   42.4340   25.8270   43.5460 C   0  0  0  0  0  0  0  0  0  0  0  0
   43.2010   26.9680   43.6800 N   0  0  0  0  0  0  0  0  0  0  0  0
   42.7480   28.1940   43.3710 C   0  0  0  0  0  0  0  0  0  0  0  0
   41.4860   28.3610   42.9060 N   0  0  0  0  0  0  0  0  0  0  0  0
   40.6230   25.0870   42.9990 H   0  0  0  0  0  0  0  0  0  0  0  0
   42.8670   24.8750   43.8150 H   0  0  0  0  0  0  0  0  0  0  0  0
   43.4520   29.0050   43.5210 H   0  0  0  0  0  0  0  0  0  0  0  0
   39.8520   31.2240   42.5610 F   0  0  0  0  0  0  0  0  0  0  0  0
   38.8820   30.9060   41.6430 C   0  0  0  0  0  0  0  0  0  0  0  0
   38.2660   29.6460   41.7360 C   0  0  0  0  0  0  0  0  0  0  0  0
   37.3310   29.5040   40.7470 C   0  0  0  0  0  0  0  0  0  0  0  0
   36.7770   28.5890   40.6570 H   0  0  0  0  0  0  0  0  0  0  0  0
   37.0100   30.4300   39.7850 C   0  0  0  0  0  0  0  0  0  0  0  0
   36.2600   30.2630   39.0260 H   0  0  0  0  0  0  0  0  0  0  0  0
   37.6620   31.6300   39.7730 C   0  0  0  0  0  3  0  0  0  0  0  0
   38.6200   31.8850   40.7170 C   0  0  0  0  0  3  0  0  0  0  0  0
  1  7  1  6  0  0  0
  1  6  1  0  0  0  0
  1 17  1  0  0  0  0
  1  2  1  0  0  0  0
  2  8  1  1  0  0  0
  2  3  1  0  0  0  0
  3 10  1  0  0  0  0
  3  9  1  0  0  0  0
  4  3  1  0  0  0  0
  4 12  1  0  0  0  0
  5  6  1  0  0  0  0
  5 13  1  0  0  0  0
  5  4  1  0  0  0  0
  6 15  1  0  0  0  0
 11  4  1  0  0  0  0
 14  5  1  0  0  0  0
 16  6  1  0  0  0  0
 17 22  2  0  0  0  0
 17 18  1  0  0  0  0
 18 19  2  0  0  0  0
 19 20  1  0  0  0  0
 19 24  1  0  0  0  0
 21 25  1  0  0  0  0
 21 20  2  0  0  0  0
 22 21  1  0  0  0  0
 23 18  1  0  0  0  0
 27 28  1  0  0  0  0
 27 26  1  0  0  0  0
 28  2  1  0  0  0  0
 29 28  2  0  0  0  0
 30 29  1  0  0  0  0
 31 29  1  0  0  0  0
 32 31  1  0  0  0  0
 33 31  2  0  0  0  0
 33 34  1  0  0  0  0
 34 27  2  0  0  0  0
M  END
>  <minimizedAffinity>
-5.06657171

$$$$
