
 OpenBabel03252506273D

 45 49  0  0  0  0  0  0  0  0999 V2000
   36.3210   27.1910   39.6510 C   0  0  0  0  0  0  0  0  0  0  0  0
   35.7970   28.4640   39.6720 C   0  0  0  0  0  0  0  0  0  0  0  0
   35.9290   29.1620   40.8770 C   0  0  0  0  0  0  0  0  0  0  0  0
   36.5440   28.6140   41.9800 C   0  0  0  0  0  0  0  0  0  0  0  0
   36.8090   29.0300   43.2310 N   0  0  0  0  0  0  0  0  0  0  0  0
   37.4490   28.0850   43.9340 C   0  0  0  0  0  0  0  0  0  0  0  0
   37.6280   26.9750   43.1240 C   0  0  0  0  0  0  0  0  0  0  0  0
   37.0560   27.3470   41.9360 C   0  0  0  0  0  0  0  0  0  0  0  0
   36.9340   26.6490   40.7560 C   0  0  0  0  0  0  0  0  0  0  0  0
   36.1870   26.6970   38.6840 H   0  0  0  0  0  0  0  0  0  0  0  0
   35.5670   30.1700   41.0440 H   0  0  0  0  0  0  0  0  0  0  0  0
   36.5530   29.9680   43.6180 H   0  0  0  0  0  0  0  0  0  0  0  0
   37.7880   28.1430   44.9690 H   0  0  0  0  0  0  0  0  0  0  0  0
   38.1060   26.0280   43.3630 H   0  0  0  0  0  0  0  0  0  0  0  0
   39.4730   26.3770   39.7880 F   0  0  0  0  0  0  0  0  0  0  0  0
   38.7230   25.2620   40.0560 C   0  0  0  0  0  0  0  0  0  0  0  0
   37.4270   25.2920   40.5480 C   0  0  0  0  0  0  0  0  0  0  0  0
   36.7390   24.1350   40.7920 C   0  0  0  0  0  0  0  0  0  0  0  0
   35.7290   24.2520   41.1780 H   0  0  0  0  0  0  0  0  0  0  0  0
   37.3580   22.9450   40.5400 C   0  0  0  0  0  0  0  0  0  0  0  0
   36.8170   22.0240   40.7310 H   0  0  0  0  0  0  0  0  0  0  0  0
   38.6570   22.9040   40.0460 C   0  0  0  0  0  3  0  0  0  0  0  0
   39.3540   24.0650   39.7990 C   0  0  0  0  0  3  0  0  0  0  0  0
   35.1160   29.2250   38.6350 C   0  0  0  0  0  0  0  0  0  0  0  0
   34.8140   30.2150   39.0860 H   0  0  0  0  0  0  0  0  0  0  0  0
   34.1560   28.7630   38.3410 H   0  0  0  0  0  0  0  0  0  0  0  0
   35.9020   29.5390   37.4100 C   0  0  0  0  0  0  0  0  0  0  0  0
   36.1830   28.6030   36.9100 H   0  0  0  0  0  0  0  0  0  0  0  0
   35.2930   30.1710   36.7630 H   0  0  0  0  0  0  0  0  0  0  0  0
   38.4770   31.7320   38.5680 C   0  0  0  0  0  0  0  0  0  0  0  0
   39.2210   30.6670   38.0450 C   0  0  0  0  0  0  0  0  0  0  0  0
   38.3660   29.7310   37.5550 C   0  0  0  0  0  0  0  0  0  0  0  0
   37.1380   30.2120   37.7740 N   0  0  0  0  0  0  0  0  0  0  0  0
   37.1900   31.4060   38.3780 N   0  0  0  0  0  0  0  0  0  0  0  0
   40.2870   30.6280   38.0460 H   0  0  0  0  0  0  0  0  0  0  0  0
   38.6890   28.8150   37.0980 H   0  0  0  0  0  0  0  0  0  0  0  0
   40.9120   34.2730   39.5460 C   0  0  0  0  0  0  0  0  0  0  0  0
   40.1680   35.1480   40.3230 C   0  0  0  0  0  0  0  0  0  0  0  0
   38.8240   34.8580   40.5080 C   0  0  0  0  0  0  0  0  0  0  0  0
   38.3220   33.7440   39.9200 N   0  0  0  0  0  0  0  0  0  0  0  0
   39.0580   32.9170   39.1780 C   0  0  0  0  0  0  0  0  0  0  0  0
   40.3620   33.1810   38.9880 N   0  0  0  0  0  0  0  0  0  0  0  0
   41.9820   34.4470   39.3630 H   0  0  0  0  0  0  0  0  0  0  0  0
   40.6570   36.0050   40.7460 H   0  0  0  0  0  0  0  0  0  0  0  0
   38.2210   35.5260   41.1100 H   0  0  0  0  0  0  0  0  0  0  0  0
  1  2  2  0  0  0  0
  1  9  1  0  0  0  0
  2  3  1  0  0  0  0
  3 11  1  0  0  0  0
  3  4  2  0  0  0  0
  4  5  1  0  0  0  0
  5 12  1  0  0  0  0
  5  6  1  0  0  0  0
  6 13  1  0  0  0  0
  7 14  1  0  0  0  0
  7  6  2  0  0  0  0
  8  4  1  0  0  0  0
  8  7  1  0  0  0  0
  9  8  2  0  0  0  0
 10  1  1  0  0  0  0
 15 16  1  0  0  0  0
 16 17  1  0  0  0  0
 17  9  1  0  0  0  0
 17 18  2  0  0  0  0
 18 19  1  0  0  0  0
 20 21  1  0  0  0  0
 20 18  1  0  0  0  0
 22 20  2  0  0  0  0
 23 22  1  0  0  0  0
 23 16  2  0  0  0  0
 24 25  1  0  0  0  0
 24  2  1  0  0  0  0
 26 24  1  0  0  0  0
 27 33  1  0  0  0  0
 27 24  1  0  0  0  0
 28 27  1  0  0  0  0
 29 27  1  0  0  0  0
 30 41  1  0  0  0  0
 31 35  1  0  0  0  0
 31 30  1  0  0  0  0
 32 33  1  0  0  0  0
 32 31  2  0  0  0  0
 33 34  1  0  0  0  0
 34 30  2  0  0  0  0
 36 32  1  0  0  0  0
 37 38  1  0  0  0  0
 38 39  2  0  0  0  0
 38 44  1  0  0  0  0
 39 45  1  0  0  0  0
 40 39  1  0  0  0  0
 41 40  2  0  0  0  0
 42 41  1  0  0  0  0
 42 37  2  0  0  0  0
 43 37  1  0  0  0  0
M  END
>  <minimizedAffinity>
-7.06132984

$$$$

 OpenBabel03252506273D

 45 49  0  0  0  0  0  0  0  0999 V2000
   37.3950   30.2100   40.1020 C   0  0  0  0  0  0  0  0  0  0  0  0
   37.1330   30.9010   38.9410 C   0  0  0  0  0  0  0  0  0  0  0  0
   36.6260   30.1460   37.8780 C   0  0  0  0  0  0  0  0  0  0  0  0
   36.4000   28.7920   37.9810 C   0  0  0  0  0  0  0  0  0  0  0  0
   35.9360   27.8360   37.1580 N   0  0  0  0  0  0  0  0  0  0  0  0
   35.9110   26.6400   37.7630 C   0  0  0  0  0  0  0  0  0  0  0  0
   36.3810   26.7900   39.0590 C   0  0  0  0  0  0  0  0  0  0  0  0
   36.6680   28.1260   39.1450 C   0  0  0  0  0  0  0  0  0  0  0  0
   37.1670   28.8570   40.1990 C   0  0  0  0  0  0  0  0  0  0  0  0
   37.7890   30.8530   40.8950 H   0  0  0  0  0  0  0  0  0  0  0  0
   36.3730   30.5510   36.9050 H   0  0  0  0  0  0  0  0  0  0  0  0
   35.6290   27.9920   36.1690 H   0  0  0  0  0  0  0  0  0  0  0  0
   35.5840   25.6890   37.3410 H   0  0  0  0  0  0  0  0  0  0  0  0
   36.4980   26.0340   39.8310 H   0  0  0  0  0  0  0  0  0  0  0  0
   39.7520   28.0680   40.5920 F   0  0  0  0  0  0  0  0  0  0  0  0
   38.8370   27.9280   41.6020 C   0  0  0  0  0  0  0  0  0  0  0  0
   37.5030   28.2970   41.5030 C   0  0  0  0  0  0  0  0  0  0  0  0
   36.6460   28.1280   42.5560 C   0  0  0  0  0  0  0  0  0  0  0  0
   35.6190   28.4450   42.3910 H   0  0  0  0  0  0  0  0  0  0  0  0
   37.1330   27.5850   43.7100 C   0  0  0  0  0  0  0  0  0  0  0  0
   36.4570   27.4480   44.5480 H   0  0  0  0  0  0  0  0  0  0  0  0
   38.4670   27.2120   43.8190 C   0  0  0  0  0  3  0  0  0  0  0  0
   39.3350   27.3800   42.7630 C   0  0  0  0  0  3  0  0  0  0  0  0
   37.2960   32.3120   38.6210 C   0  0  0  0  0  0  0  0  0  0  0  0
   36.4250   32.6130   37.9690 H   0  0  0  0  0  0  0  0  0  0  0  0
   38.1800   32.4950   37.9850 H   0  0  0  0  0  0  0  0  0  0  0  0
   37.3160   33.2610   39.7680 C   0  0  0  0  0  0  0  0  0  0  0  0
   36.5850   34.0610   39.5890 H   0  0  0  0  0  0  0  0  0  0  0  0
   37.0870   32.7060   40.6780 H   0  0  0  0  0  0  0  0  0  0  0  0
   40.7610   34.2060   39.6260 C   0  0  0  0  0  0  0  0  0  0  0  0
   40.1960   35.2850   40.3180 C   0  0  0  0  0  0  0  0  0  0  0  0
   38.8610   35.0690   40.4550 C   0  0  0  0  0  0  0  0  0  0  0  0
   38.6200   33.8940   39.8640 N   0  0  0  0  0  0  0  0  0  0  0  0
   39.7460   33.3680   39.3650 N   0  0  0  0  0  0  0  0  0  0  0  0
   40.7520   36.1250   40.6680 H   0  0  0  0  0  0  0  0  0  0  0  0
   38.1980   35.7530   40.9510 H   0  0  0  0  0  0  0  0  0  0  0  0
   43.8350   33.8210   37.6920 C   0  0  0  0  0  0  0  0  0  0  0  0
   44.8300   33.8720   38.6550 C   0  0  0  0  0  0  0  0  0  0  0  0
   44.4360   34.0420   39.9750 C   0  0  0  0  0  0  0  0  0  0  0  0
   43.1100   34.1450   40.2410 N   0  0  0  0  0  0  0  0  0  0  0  0
   42.1730   34.0910   39.2960 C   0  0  0  0  0  0  0  0  0  0  0  0
   42.5340   33.9280   38.0110 N   0  0  0  0  0  0  0  0  0  0  0  0
   44.0820   33.6880   36.6280 H   0  0  0  0  0  0  0  0  0  0  0  0
   45.8530   33.7820   38.3450 H   0  0  0  0  0  0  0  0  0  0  0  0
   45.1940   34.0860   40.7480 H   0  0  0  0  0  0  0  0  0  0  0  0
  1  9  1  0  0  0  0
  1 10  1  0  0  0  0
  2  1  2  0  0  0  0
  3  4  2  0  0  0  0
  3  2  1  0  0  0  0
  4  8  1  0  0  0  0
  5  6  1  0  0  0  0
  5  4  1  0  0  0  0
  6  7  2  0  0  0  0
  7  8  1  0  0  0  0
  7 14  1  0  0  0  0
  8  9  2  0  0  0  0
  9 17  1  0  0  0  0
 11  3  1  0  0  0  0
 12  5  1  0  0  0  0
 13  6  1  0  0  0  0
 15 16  1  0  0  0  0
 16 23  1  0  0  0  0
 17 16  2  0  0  0  0
 17 18  1  0  0  0  0
 18 20  2  0  0  0  0
 19 18  1  0  0  0  0
 20 22  1  0  0  0  0
 20 21  1  0  0  0  0
 23 22  2  0  0  0  0
 24  2  1  0  0  0  0
 24 27  1  0  0  0  0
 25 24  1  0  0  0  0
 26 24  1  0  0  0  0
 27 33  1  0  0  0  0
 27 29  1  0  0  0  0
 28 27  1  0  0  0  0
 30 31  1  0  0  0  0
 31 32  2  0  0  0  0
 31 35  1  0  0  0  0
 32 36  1  0  0  0  0
 33 32  1  0  0  0  0
 34 30  2  0  0  0  0
 34 33  1  0  0  0  0
 37 42  2  0  0  0  0
 37 38  1  0  0  0  0
 38 39  2  0  0  0  0
 39 40  1  0  0  0  0
 39 45  1  0  0  0  0
 41 30  1  0  0  0  0
 41 40  2  0  0  0  0
 42 41  1  0  0  0  0
 43 37  1  0  0  0  0
 44 38  1  0  0  0  0
M  END
>  <minimizedAffinity>
-6.70115566

$$$$

 OpenBabel03252506273D

 45 49  0  0  0  0  0  0  0  0999 V2000
   37.4760   28.5640   39.6960 C   0  0  0  0  0  0  0  0  0  0  0  0
   37.4170   29.8970   40.0300 C   0  0  0  0  0  0  0  0  0  0  0  0
   37.2800   30.1840   41.3920 C   0  0  0  0  0  0  0  0  0  0  0  0
   37.2060   29.1950   42.3470 C   0  0  0  0  0  0  0  0  0  0  0  0
   37.0760   29.1670   43.6850 N   0  0  0  0  0  0  0  0  0  0  0  0
   37.0550   27.9090   44.1470 C   0  0  0  0  0  0  0  0  0  0  0  0
   37.1760   27.0410   43.0740 C   0  0  0  0  0  0  0  0  0  0  0  0
   37.2650   27.8760   41.9920 C   0  0  0  0  0  0  0  0  0  0  0  0
   37.4020   27.5800   40.6540 C   0  0  0  0  0  0  0  0  0  0  0  0
   37.5840   28.4030   38.6190 H   0  0  0  0  0  0  0  0  0  0  0  0
   37.2200   31.1840   41.8050 H   0  0  0  0  0  0  0  0  0  0  0  0
   37.0000   30.0120   44.2990 H   0  0  0  0  0  0  0  0  0  0  0  0
   36.9600   27.5840   45.1840 H   0  0  0  0  0  0  0  0  0  0  0  0
   37.1970   25.9540   43.0770 H   0  0  0  0  0  0  0  0  0  0  0  0
   39.8790   26.4420   40.4950 F   0  0  0  0  0  0  0  0  0  0  0  0
   38.7790   25.7400   40.0770 C   0  0  0  0  0  0  0  0  0  0  0  0
   37.4810   26.2270   40.1150 C   0  0  0  0  0  0  0  0  0  0  0  0
   36.4310   25.4670   39.6790 C   0  0  0  0  0  0  0  0  0  0  0  0
   35.4480   25.9280   39.7460 H   0  0  0  0  0  0  0  0  0  0  0  0
   36.6870   24.2140   39.2030 C   0  0  0  0  0  0  0  0  0  0  0  0
   35.8580   23.6070   38.8560 H   0  0  0  0  0  0  0  0  0  0  0  0
   37.9850   23.7160   39.1600 C   0  0  0  0  0  3  0  0  0  0  0  0
   39.0460   24.4760   39.5980 C   0  0  0  0  0  3  0  0  0  0  0  0
   37.4760   31.0870   39.1930 C   0  0  0  0  0  0  0  0  0  0  0  0
   36.7030   30.9660   38.3790 H   0  0  0  0  0  0  0  0  0  0  0  0
   38.4310   31.1620   38.6420 H   0  0  0  0  0  0  0  0  0  0  0  0
   37.1930   32.3890   39.8570 C   0  0  0  0  0  0  0  0  0  0  0  0
   36.4230   32.9260   39.2880 H   0  0  0  0  0  0  0  0  0  0  0  0
   36.8710   32.1910   40.8800 H   0  0  0  0  0  0  0  0  0  0  0  0
   40.4570   33.8140   39.5410 C   0  0  0  0  0  0  0  0  0  0  0  0
   39.7260   34.8870   40.0670 C   0  0  0  0  0  0  0  0  0  0  0  0
   38.4370   34.4940   40.2470 C   0  0  0  0  0  0  0  0  0  0  0  0
   38.3850   33.2200   39.8440 N   0  0  0  0  0  0  0  0  0  0  0  0
   39.5850   32.8020   39.4190 N   0  0  0  0  0  0  0  0  0  0  0  0
   40.1420   35.8440   40.2800 H   0  0  0  0  0  0  0  0  0  0  0  0
   37.6710   35.1360   40.6400 H   0  0  0  0  0  0  0  0  0  0  0  0
   44.0840   33.9980   39.9330 C   0  0  0  0  0  0  0  0  0  0  0  0
   44.5500   33.9680   38.6280 C   0  0  0  0  0  0  0  0  0  0  0  0
   43.6080   33.8830   37.6120 C   0  0  0  0  0  0  0  0  0  0  0  0
   42.2970   33.8360   37.9560 N   0  0  0  0  0  0  0  0  0  0  0  0
   41.8740   33.8670   39.2190 C   0  0  0  0  0  0  0  0  0  0  0  0
   42.7710   33.9480   40.2170 N   0  0  0  0  0  0  0  0  0  0  0  0
   44.7790   34.0640   40.7820 H   0  0  0  0  0  0  0  0  0  0  0  0
   45.6090   34.0100   38.4580 H   0  0  0  0  0  0  0  0  0  0  0  0
   43.9460   33.8570   36.5840 H   0  0  0  0  0  0  0  0  0  0  0  0
  1  2  2  0  0  0  0
  1  9  1  0  0  0  0
  2  3  1  0  0  0  0
  3 11  1  0  0  0  0
  3  4  2  0  0  0  0
  4  5  1  0  0  0  0
  5  6  1  0  0  0  0
  5 12  1  0  0  0  0
  6 13  1  0  0  0  0
  7 14  1  0  0  0  0
  7  6  2  0  0  0  0
  8  4  1  0  0  0  0
  8  7  1  0  0  0  0
  9  8  2  0  0  0  0
 10  1  1  0  0  0  0
 16 17  1  0  0  0  0
 16 15  1  0  0  0  0
 17  9  1  0  0  0  0
 18 19  1  0  0  0  0
 18 17  2  0  0  0  0
 20 18  1  0  0  0  0
 21 20  1  0  0  0  0
 22 20  2  0  0  0  0
 22 23  1  0  0  0  0
 23 16  2  0  0  0  0
 24 27  1  0  0  0  0
 24  2  1  0  0  0  0
 25 24  1  0  0  0  0
 26 24  1  0  0  0  0
 27 29  1  0  0  0  0
 28 27  1  0  0  0  0
 30 31  1  0  0  0  0
 31 32  2  0  0  0  0
 31 35  1  0  0  0  0
 32 36  1  0  0  0  0
 33 27  1  0  0  0  0
 33 32  1  0  0  0  0
 34 30  2  0  0  0  0
 34 33  1  0  0  0  0
 37 42  1  0  0  0  0
 37 43  1  0  0  0  0
 38 37  2  0  0  0  0
 39 40  2  0  0  0  0
 39 38  1  0  0  0  0
 40 41  1  0  0  0  0
 41 30  1  0  0  0  0
 41 42  2  0  0  0  0
 44 38  1  0  0  0  0
 45 39  1  0  0  0  0
M  END
>  <minimizedAffinity>
-6.6965518

$$$$

 OpenBabel03252506273D

 45 49  0  0  0  0  0  0  0  0999 V2000
   38.0620   29.3080   40.7560 C   0  0  0  0  0  0  0  0  0  0  0  0
   38.9790   29.5750   41.7470 C   0  0  0  0  0  0  0  0  0  0  0  0
   39.2920   30.9240   41.9480 C   0  0  0  0  0  0  0  0  0  0  0  0
   38.7200   31.9290   41.2000 C   0  0  0  0  0  0  0  0  0  0  0  0
   38.8220   33.2690   41.1650 N   0  0  0  0  0  0  0  0  0  0  0  0
   38.0280   33.7950   40.2220 C   0  0  0  0  0  0  0  0  0  0  0  0
   37.3550   32.7640   39.5850 C   0  0  0  0  0  0  0  0  0  0  0  0
   37.8130   31.6390   40.2190 C   0  0  0  0  0  0  0  0  0  0  0  0
   37.4950   30.3160   40.0120 C   0  0  0  0  0  0  0  0  0  0  0  0
   37.8590   28.2380   40.6470 H   0  0  0  0  0  0  0  0  0  0  0  0
   39.9930   31.2860   42.6900 H   0  0  0  0  0  0  0  0  0  0  0  0
   39.4390   33.8410   41.7890 H   0  0  0  0  0  0  0  0  0  0  0  0
   37.9060   34.8480   39.9680 H   0  0  0  0  0  0  0  0  0  0  0  0
   36.6330   32.8220   38.7740 H   0  0  0  0  0  0  0  0  0  0  0  0
   35.0680   29.4370   40.9020 F   0  0  0  0  0  0  0  0  0  0  0  0
   35.3480   29.4210   39.5610 C   0  0  0  0  0  0  0  0  0  0  0  0
   36.5480   29.8440   39.0090 C   0  0  0  0  0  0  0  0  0  0  0  0
   36.7560   29.7990   37.6570 C   0  0  0  0  0  0  0  0  0  0  0  0
   37.7250   30.1510   37.3110 H   0  0  0  0  0  0  0  0  0  0  0  0
   35.7540   29.3260   36.8600 C   0  0  0  0  0  0  0  0  0  0  0  0
   35.9140   29.2880   35.7880 H   0  0  0  0  0  0  0  0  0  0  0  0
   34.5480   28.8990   37.4040 C   0  0  0  0  0  3  0  0  0  0  0  0
   34.3320   28.9430   38.7630 C   0  0  0  0  0  3  0  0  0  0  0  0
   39.6930   28.6780   42.6430 C   0  0  0  0  0  0  0  0  0  0  0  0
   40.3190   29.3160   43.3330 H   0  0  0  0  0  0  0  0  0  0  0  0
   40.4360   28.0580   42.1090 H   0  0  0  0  0  0  0  0  0  0  0  0
   38.8640   27.8000   43.5150 C   0  0  0  0  0  0  0  0  0  0  0  0
   39.3140   27.7540   44.5160 H   0  0  0  0  0  0  0  0  0  0  0  0
   37.8520   28.2060   43.5490 H   0  0  0  0  0  0  0  0  0  0  0  0
   38.2550   24.7090   41.8250 C   0  0  0  0  0  0  0  0  0  0  0  0
   39.3630   24.3880   42.6190 C   0  0  0  0  0  0  0  0  0  0  0  0
   39.7220   25.4850   43.3370 C   0  0  0  0  0  0  0  0  0  0  0  0
   38.8580   26.4450   42.9910 N   0  0  0  0  0  0  0  0  0  0  0  0
   37.9770   25.9950   42.0880 N   0  0  0  0  0  0  0  0  0  0  0  0
   39.8270   23.4290   42.6340 H   0  0  0  0  0  0  0  0  0  0  0  0
   40.5470   25.4990   44.0250 H   0  0  0  0  0  0  0  0  0  0  0  0
   37.6250   21.7720   39.7460 C   0  0  0  0  0  0  0  0  0  0  0  0
   36.3660   22.0160   39.2200 C   0  0  0  0  0  0  0  0  0  0  0  0
   35.7350   23.1960   39.5860 C   0  0  0  0  0  0  0  0  0  0  0  0
   36.3840   24.0350   40.4310 N   0  0  0  0  0  0  0  0  0  0  0  0
   37.5950   23.7790   40.9220 C   0  0  0  0  0  0  0  0  0  0  0  0
   38.2230   22.6410   40.5800 N   0  0  0  0  0  0  0  0  0  0  0  0
   38.1770   20.8560   39.4950 H   0  0  0  0  0  0  0  0  0  0  0  0
   35.9340   21.2890   38.5590 H   0  0  0  0  0  0  0  0  0  0  0  0
   34.7500   23.4090   39.1890 H   0  0  0  0  0  0  0  0  0  0  0  0
  1  2  1  0  0  0  0
  2  3  2  0  0  0  0
  2 24  1  0  0  0  0
  3 11  1  0  0  0  0
  4  3  1  0  0  0  0
  5  4  1  0  0  0  0
  5 12  1  0  0  0  0
  6  5  1  0  0  0  0
  7  8  1  0  0  0  0
  7  6  2  0  0  0  0
  8  4  2  0  0  0  0
  9  8  1  0  0  0  0
  9  1  2  0  0  0  0
 10  1  1  0  0  0  0
 13  6  1  0  0  0  0
 14  7  1  0  0  0  0
 16 15  1  0  0  0  0
 17 16  1  0  0  0  0
 17  9  1  0  0  0  0
 18 17  2  0  0  0  0
 19 18  1  0  0  0  0
 20 22  2  0  0  0  0
 20 18  1  0  0  0  0
 21 20  1  0  0  0  0
 22 23  1  0  0  0  0
 23 16  2  0  0  0  0
 24 25  1  0  0  0  0
 24 27  1  0  0  0  0
 26 24  1  0  0  0  0
 27 29  1  0  0  0  0
 27 28  1  0  0  0  0
 30 34  2  0  0  0  0
 30 31  1  0  0  0  0
 31 35  1  0  0  0  0
 31 32  2  0  0  0  0
 32 36  1  0  0  0  0
 33 32  1  0  0  0  0
 33 27  1  0  0  0  0
 34 33  1  0  0  0  0
 37 42  1  0  0  0  0
 38 39  1  0  0  0  0
 38 37  2  0  0  0  0
 39 40  2  0  0  0  0
 40 41  1  0  0  0  0
 41 30  1  0  0  0  0
 42 41  2  0  0  0  0
 43 37  1  0  0  0  0
 44 38  1  0  0  0  0
 45 39  1  0  0  0  0
M  END
>  <minimizedAffinity>
-6.68173933

$$$$

 OpenBabel03252506273D

 45 49  0  0  0  0  0  0  0  0999 V2000
   36.6430   28.6480   39.8770 C   0  0  0  0  0  0  0  0  0  0  0  0
   36.6440   28.9490   41.2200 C   0  0  0  0  0  0  0  0  0  0  0  0
   36.8150   30.2990   41.5470 C   0  0  0  0  0  0  0  0  0  0  0  0
   36.9740   31.2720   40.5860 C   0  0  0  0  0  0  0  0  0  0  0  0
   37.1530   32.6040   40.5980 N   0  0  0  0  0  0  0  0  0  0  0  0
   37.2550   33.0940   39.3540 C   0  0  0  0  0  0  0  0  0  0  0  0
   37.1420   32.0460   38.4550 C   0  0  0  0  0  0  0  0  0  0  0  0
   36.9710   30.9490   39.2580 C   0  0  0  0  0  0  0  0  0  0  0  0
   36.8030   29.6250   38.9220 C   0  0  0  0  0  0  0  0  0  0  0  0
   36.5060   27.5800   39.6850 H   0  0  0  0  0  0  0  0  0  0  0  0
   36.8370   30.6860   42.5590 H   0  0  0  0  0  0  0  0  0  0  0  0
   37.2060   33.1960   41.4610 H   0  0  0  0  0  0  0  0  0  0  0  0
   37.4030   34.1340   39.0600 H   0  0  0  0  0  0  0  0  0  0  0  0
   37.1780   32.0750   37.3690 H   0  0  0  0  0  0  0  0  0  0  0  0
   34.3730   29.5130   37.6800 F   0  0  0  0  0  0  0  0  0  0  0  0
   35.4980   29.1040   37.0140 C   0  0  0  0  0  0  0  0  0  0  0  0
   36.7760   29.1200   37.5550 C   0  0  0  0  0  0  0  0  0  0  0  0
   37.8530   28.6950   36.8270 C   0  0  0  0  0  0  0  0  0  0  0  0
   38.8170   28.7430   37.3290 H   0  0  0  0  0  0  0  0  0  0  0  0
   37.6440   28.2520   35.5530 C   0  0  0  0  0  0  0  0  0  0  0  0
   38.4950   27.9130   34.9720 H   0  0  0  0  0  0  0  0  0  0  0  0
   36.3680   28.2310   35.0020 C   0  0  0  0  0  3  0  0  0  0  0  0
   35.2800   28.6580   35.7290 C   0  0  0  0  0  3  0  0  0  0  0  0
   36.4940   28.0880   42.3840 C   0  0  0  0  0  0  0  0  0  0  0  0
   35.8760   27.1970   42.0670 H   0  0  0  0  0  0  0  0  0  0  0  0
   35.8890   28.5620   43.1770 H   0  0  0  0  0  0  0  0  0  0  0  0
   37.7450   27.5450   42.9820 C   0  0  0  0  0  0  0  0  0  0  0  0
   38.5930   28.1720   42.6780 H   0  0  0  0  0  0  0  0  0  0  0  0
   37.6280   27.5250   44.0650 H   0  0  0  0  0  0  0  0  0  0  0  0
   37.7130   24.3600   41.3560 C   0  0  0  0  0  0  0  0  0  0  0  0
   38.9170   24.3060   42.0690 C   0  0  0  0  0  0  0  0  0  0  0  0
   39.0760   25.4700   42.7540 C   0  0  0  0  0  0  0  0  0  0  0  0
   38.0010   26.2100   42.4660 N   0  0  0  0  0  0  0  0  0  0  0  0
   37.1790   25.5600   41.6320 N   0  0  0  0  0  0  0  0  0  0  0  0
   39.5800   23.4710   42.0560 H   0  0  0  0  0  0  0  0  0  0  0  0
   39.9230   25.6780   43.3800 H   0  0  0  0  0  0  0  0  0  0  0  0
   37.5040   21.1850   39.5620 C   0  0  0  0  0  0  0  0  0  0  0  0
   36.2830   21.2640   38.9110 C   0  0  0  0  0  0  0  0  0  0  0  0
   35.5320   22.4170   39.0930 C   0  0  0  0  0  0  0  0  0  0  0  0
   36.0350   23.3900   39.8930 N   0  0  0  0  0  0  0  0  0  0  0  0
   37.2120   23.2900   40.5080 C   0  0  0  0  0  0  0  0  0  0  0  0
   37.9550   22.1820   40.3440 N   0  0  0  0  0  0  0  0  0  0  0  0
   38.1460   20.2990   39.4580 H   0  0  0  0  0  0  0  0  0  0  0  0
   35.9710   20.4400   38.2990 H   0  0  0  0  0  0  0  0  0  0  0  0
   34.5740   22.5030   38.5960 H   0  0  0  0  0  0  0  0  0  0  0  0
  1  2  1  0  0  0  0
  2  3  2  0  0  0  0
  2 24  1  0  0  0  0
  3 11  1  0  0  0  0
  4  5  1  0  0  0  0
  4  3  1  0  0  0  0
  5 12  1  0  0  0  0
  6  5  1  0  0  0  0
  7  8  1  0  0  0  0
  7  6  2  0  0  0  0
  8  4  2  0  0  0  0
  9  8  1  0  0  0  0
  9  1  2  0  0  0  0
 10  1  1  0  0  0  0
 13  6  1  0  0  0  0
 14  7  1  0  0  0  0
 16 17  1  0  0  0  0
 16 15  1  0  0  0  0
 17  9  1  0  0  0  0
 18 19  1  0  0  0  0
 18 17  2  0  0  0  0
 20 18  1  0  0  0  0
 21 20  1  0  0  0  0
 22 20  2  0  0  0  0
 22 23  1  0  0  0  0
 23 16  2  0  0  0  0
 24 27  1  0  0  0  0
 24 26  1  0  0  0  0
 25 24  1  0  0  0  0
 27 29  1  0  0  0  0
 28 27  1  0  0  0  0
 30 34  2  0  0  0  0
 30 31  1  0  0  0  0
 31 32  2  0  0  0  0
 32 36  1  0  0  0  0
 33 32  1  0  0  0  0
 33 27  1  0  0  0  0
 34 33  1  0  0  0  0
 35 31  1  0  0  0  0
 37 42  1  0  0  0  0
 38 39  1  0  0  0  0
 38 37  2  0  0  0  0
 39 40  2  0  0  0  0
 40 41  1  0  0  0  0
 41 30  1  0  0  0  0
 42 41  2  0  0  0  0
 43 37  1  0  0  0  0
 44 38  1  0  0  0  0
 45 39  1  0  0  0  0
M  END
>  <minimizedAffinity>
-6.5455122

$$$$

 OpenBabel03252506273D

 45 49  0  0  0  0  0  0  0  0999 V2000
   37.8800   26.5260   41.5980 C   0  0  0  0  0  0  0  0  0  0  0  0
   37.8290   27.6980   42.3180 C   0  0  0  0  0  0  0  0  0  0  0  0
   38.8880   27.9210   43.2050 C   0  0  0  0  0  0  0  0  0  0  0  0
   39.9220   27.0240   43.3540 C   0  0  0  0  0  0  0  0  0  0  0  0
   41.0380   26.9690   44.1010 N   0  0  0  0  0  0  0  0  0  0  0  0
   41.7300   25.8460   43.8640 C   0  0  0  0  0  0  0  0  0  0  0  0
   41.0530   25.1020   42.9100 C   0  0  0  0  0  0  0  0  0  0  0  0
   39.9510   25.8650   42.6280 C   0  0  0  0  0  0  0  0  0  0  0  0
   38.9160   25.6340   41.7510 C   0  0  0  0  0  0  0  0  0  0  0  0
   37.0270   26.4090   40.9240 H   0  0  0  0  0  0  0  0  0  0  0  0
   38.9850   28.7960   43.8370 H   0  0  0  0  0  0  0  0  0  0  0  0
   41.3390   27.7020   44.7860 H   0  0  0  0  0  0  0  0  0  0  0  0
   42.6690   25.5340   44.3230 H   0  0  0  0  0  0  0  0  0  0  0  0
   41.3230   24.1410   42.4790 H   0  0  0  0  0  0  0  0  0  0  0  0
   40.2770   25.6510   39.3840 F   0  0  0  0  0  0  0  0  0  0  0  0
   39.5280   24.5580   39.7310 C   0  0  0  0  0  0  0  0  0  0  0  0
   38.8010   24.4510   40.9070 C   0  0  0  0  0  0  0  0  0  0  0  0
   38.0750   23.3250   41.1860 C   0  0  0  0  0  0  0  0  0  0  0  0
   37.5370   23.3260   42.1310 H   0  0  0  0  0  0  0  0  0  0  0  0
   38.0810   22.3050   40.2780 C   0  0  0  0  0  0  0  0  0  0  0  0
   37.5070   21.4110   40.4950 H   0  0  0  0  0  0  0  0  0  0  0  0
   38.8060   22.4030   39.0960 C   0  0  0  0  0  3  0  0  0  0  0  0
   39.5390   23.5330   38.8100 C   0  0  0  0  0  3  0  0  0  0  0  0
   36.8440   28.7690   42.3160 C   0  0  0  0  0  0  0  0  0  0  0  0
   37.3950   29.7370   42.4990 H   0  0  0  0  0  0  0  0  0  0  0  0
   36.1460   28.6960   43.1690 H   0  0  0  0  0  0  0  0  0  0  0  0
   36.0620   28.9580   41.0620 C   0  0  0  0  0  0  0  0  0  0  0  0
   36.1460   28.0540   40.4440 H   0  0  0  0  0  0  0  0  0  0  0  0
   35.0270   29.1670   41.3300 H   0  0  0  0  0  0  0  0  0  0  0  0
   37.7840   31.8330   39.8140 C   0  0  0  0  0  0  0  0  0  0  0  0
   37.1060   31.3870   38.6730 C   0  0  0  0  0  0  0  0  0  0  0  0
   36.3900   30.2760   38.9920 C   0  0  0  0  0  0  0  0  0  0  0  0
   36.6260   30.0520   40.2890 N   0  0  0  0  0  0  0  0  0  0  0  0
   37.4570   30.9740   40.7920 N   0  0  0  0  0  0  0  0  0  0  0  0
   37.1620   31.8650   37.7220 H   0  0  0  0  0  0  0  0  0  0  0  0
   35.7800   29.7420   38.2880 H   0  0  0  0  0  0  0  0  0  0  0  0
   38.9140   35.2860   40.1900 C   0  0  0  0  0  0  0  0  0  0  0  0
   40.2710   35.2100   39.9220 C   0  0  0  0  0  0  0  0  0  0  0  0
   40.7960   33.9630   39.6120 C   0  0  0  0  0  0  0  0  0  0  0  0
   39.9540   32.9010   39.5900 N   0  0  0  0  0  0  0  0  0  0  0  0
   38.6510   33.0000   39.8510 C   0  0  0  0  0  0  0  0  0  0  0  0
   38.1230   34.1990   40.1530 N   0  0  0  0  0  0  0  0  0  0  0  0
   38.4370   36.2440   40.4420 H   0  0  0  0  0  0  0  0  0  0  0  0
   40.8560   36.1090   39.9660 H   0  0  0  0  0  0  0  0  0  0  0  0
   41.8550   33.8780   39.4000 H   0  0  0  0  0  0  0  0  0  0  0  0
  1  9  2  0  0  0  0
  1  2  1  0  0  0  0
  2  3  2  0  0  0  0
  3  4  1  0  0  0  0
  3 11  1  0  0  0  0
  4  5  1  0  0  0  0
  5 12  1  0  0  0  0
  6  5  1  0  0  0  0
  6 13  1  0  0  0  0
  7  6  2  0  0  0  0
  8  7  1  0  0  0  0
  8  4  2  0  0  0  0
  9  8  1  0  0  0  0
 10  1  1  0  0  0  0
 14  7  1  0  0  0  0
 15 16  1  0  0  0  0
 16 17  1  0  0  0  0
 17 18  2  0  0  0  0
 17  9  1  0  0  0  0
 18 19  1  0  0  0  0
 20 21  1  0  0  0  0
 20 18  1  0  0  0  0
 22 20  2  0  0  0  0
 23 22  1  0  0  0  0
 23 16  2  0  0  0  0
 24  2  1  0  0  0  0
 24 25  1  0  0  0  0
 24 26  1  0  0  0  0
 27 29  1  0  0  0  0
 27 24  1  0  0  0  0
 28 27  1  0  0  0  0
 30 41  1  0  0  0  0
 30 34  2  0  0  0  0
 31 32  2  0  0  0  0
 31 30  1  0  0  0  0
 32 33  1  0  0  0  0
 33 34  1  0  0  0  0
 33 27  1  0  0  0  0
 35 31  1  0  0  0  0
 36 32  1  0  0  0  0
 37 43  1  0  0  0  0
 38 44  1  0  0  0  0
 38 37  2  0  0  0  0
 39 38  1  0  0  0  0
 40 39  2  0  0  0  0
 40 41  1  0  0  0  0
 41 42  2  0  0  0  0
 42 37  1  0  0  0  0
 45 39  1  0  0  0  0
M  END
>  <minimizedAffinity>
-6.51501703

$$$$

 OpenBabel03252506273D

 45 49  0  0  0  0  0  0  0  0999 V2000
   36.9270   26.9480   40.5020 C   0  0  0  0  0  0  0  0  0  0  0  0
   36.6940   28.1340   41.1590 C   0  0  0  0  0  0  0  0  0  0  0  0
   37.4150   28.3330   42.3420 C   0  0  0  0  0  0  0  0  0  0  0  0
   38.3040   27.4000   42.8250 C   0  0  0  0  0  0  0  0  0  0  0  0
   39.1110   27.3160   43.8970 N   0  0  0  0  0  0  0  0  0  0  0  0
   39.7950   26.1630   43.9050 C   0  0  0  0  0  0  0  0  0  0  0  0
   39.4350   25.4280   42.7860 C   0  0  0  0  0  0  0  0  0  0  0  0
   38.5190   26.2270   42.1560 C   0  0  0  0  0  0  0  0  0  0  0  0
   37.8170   26.0200   40.9900 C   0  0  0  0  0  0  0  0  0  0  0  0
   36.3360   26.8510   39.5860 H   0  0  0  0  0  0  0  0  0  0  0  0
   37.3370   29.2160   42.9650 H   0  0  0  0  0  0  0  0  0  0  0  0
   39.2040   28.0500   44.6380 H   0  0  0  0  0  0  0  0  0  0  0  0
   40.5180   25.8250   44.6470 H   0  0  0  0  0  0  0  0  0  0  0  0
   39.7890   24.4480   42.4730 H   0  0  0  0  0  0  0  0  0  0  0  0
   36.0620   23.9850   41.4780 F   0  0  0  0  0  0  0  0  0  0  0  0
   36.9990   23.8530   40.4870 C   0  0  0  0  0  0  0  0  0  0  0  0
   37.9330   24.8250   40.1620 C   0  0  0  0  0  0  0  0  0  0  0  0
   38.8390   24.6220   39.1570 C   0  0  0  0  0  0  0  0  0  0  0  0
   39.5350   25.4360   38.9690 H   0  0  0  0  0  0  0  0  0  0  0  0
   38.8050   23.4370   38.4800 C   0  0  0  0  0  0  0  0  0  0  0  0
   39.5220   23.2710   37.6830 H   0  0  0  0  0  0  0  0  0  0  0  0
   37.8730   22.4560   38.7990 C   0  0  0  0  0  3  0  0  0  0  0  0
   36.9580   22.6550   39.8080 C   0  0  0  0  0  3  0  0  0  0  0  0
   35.8100   29.2420   40.8290 C   0  0  0  0  0  0  0  0  0  0  0  0
   34.8410   29.0780   41.3840 H   0  0  0  0  0  0  0  0  0  0  0  0
   35.5110   29.2340   39.7650 H   0  0  0  0  0  0  0  0  0  0  0  0
   36.2810   30.6070   41.1930 C   0  0  0  0  0  0  0  0  0  0  0  0
   35.4140   31.2720   41.3030 H   0  0  0  0  0  0  0  0  0  0  0  0
   36.8540   30.5390   42.1170 H   0  0  0  0  0  0  0  0  0  0  0  0
   38.7340   32.1780   39.1200 C   0  0  0  0  0  0  0  0  0  0  0  0
   37.8270   31.6910   38.1710 C   0  0  0  0  0  0  0  0  0  0  0  0
   36.8140   31.0550   38.8170 C   0  0  0  0  0  0  0  0  0  0  0  0
   37.0970   31.1510   40.1200 N   0  0  0  0  0  0  0  0  0  0  0  0
   38.2410   31.8200   40.3150 N   0  0  0  0  0  0  0  0  0  0  0  0
   37.9410   31.8170   37.1180 H   0  0  0  0  0  0  0  0  0  0  0  0
   35.9870   30.5920   38.3110 H   0  0  0  0  0  0  0  0  0  0  0  0
   41.8190   33.1870   37.4430 C   0  0  0  0  0  0  0  0  0  0  0  0
   42.2320   34.2930   38.1690 C   0  0  0  0  0  0  0  0  0  0  0  0
   41.4420   34.6890   39.2390 C   0  0  0  0  0  0  0  0  0  0  0  0
   40.3210   33.9760   39.5080 N   0  0  0  0  0  0  0  0  0  0  0  0
   39.9450   32.9150   38.7950 C   0  0  0  0  0  0  0  0  0  0  0  0
   40.6970   32.5150   37.7540 N   0  0  0  0  0  0  0  0  0  0  0  0
   42.4010   32.8220   36.5850 H   0  0  0  0  0  0  0  0  0  0  0  0
   43.1360   34.7930   37.8780 H   0  0  0  0  0  0  0  0  0  0  0  0
   41.7430   35.5510   39.8220 H   0  0  0  0  0  0  0  0  0  0  0  0
  1  9  2  0  0  0  0
  1  2  1  0  0  0  0
  2  3  2  0  0  0  0
  3  4  1  0  0  0  0
  3 11  1  0  0  0  0
  4  5  1  0  0  0  0
  5  6  1  0  0  0  0
  5 12  1  0  0  0  0
  6 13  1  0  0  0  0
  7  6  2  0  0  0  0
  8  7  1  0  0  0  0
  8  4  2  0  0  0  0
  9  8  1  0  0  0  0
 10  1  1  0  0  0  0
 14  7  1  0  0  0  0
 16 15  1  0  0  0  0
 17 16  1  0  0  0  0
 17  9  1  0  0  0  0
 18 17  2  0  0  0  0
 19 18  1  0  0  0  0
 20 22  2  0  0  0  0
 20 18  1  0  0  0  0
 21 20  1  0  0  0  0
 22 23  1  0  0  0  0
 23 16  2  0  0  0  0
 24  2  1  0  0  0  0
 24 27  1  0  0  0  0
 24 25  1  0  0  0  0
 26 24  1  0  0  0  0
 27 28  1  0  0  0  0
 27 29  1  0  0  0  0
 30 34  2  0  0  0  0
 31 32  2  0  0  0  0
 31 30  1  0  0  0  0
 32 33  1  0  0  0  0
 33 34  1  0  0  0  0
 33 27  1  0  0  0  0
 35 31  1  0  0  0  0
 36 32  1  0  0  0  0
 37 42  2  0  0  0  0
 37 38  1  0  0  0  0
 38 39  2  0  0  0  0
 39 40  1  0  0  0  0
 39 45  1  0  0  0  0
 41 30  1  0  0  0  0
 41 40  2  0  0  0  0
 42 41  1  0  0  0  0
 43 37  1  0  0  0  0
 44 38  1  0  0  0  0
M  END
>  <minimizedAffinity>
-6.49089861

$$$$

 OpenBabel03252506273D

 45 49  0  0  0  0  0  0  0  0999 V2000
   38.7780   27.3970   41.8760 C   0  0  0  0  0  0  0  0  0  0  0  0
   39.6610   26.7430   42.7050 C   0  0  0  0  0  0  0  0  0  0  0  0
   39.5760   25.3470   42.7150 C   0  0  0  0  0  0  0  0  0  0  0  0
   38.6650   24.6610   41.9430 C   0  0  0  0  0  0  0  0  0  0  0  0
   38.3600   23.3670   41.7510 N   0  0  0  0  0  0  0  0  0  0  0  0
   37.3620   23.2260   40.8670 C   0  0  0  0  0  0  0  0  0  0  0  0
   36.9690   24.4840   40.4390 C   0  0  0  0  0  0  0  0  0  0  0  0
   37.7970   25.3320   41.1270 C   0  0  0  0  0  0  0  0  0  0  0  0
   37.8700   26.7060   41.1070 C   0  0  0  0  0  0  0  0  0  0  0  0
   38.8930   28.4840   41.9110 H   0  0  0  0  0  0  0  0  0  0  0  0
   40.2040   24.6990   43.3160 H   0  0  0  0  0  0  0  0  0  0  0  0
   38.8340   22.5610   42.2240 H   0  0  0  0  0  0  0  0  0  0  0  0
   36.9090   22.2970   40.5200 H   0  0  0  0  0  0  0  0  0  0  0  0
   36.1910   24.7490   39.7270 H   0  0  0  0  0  0  0  0  0  0  0  0
   35.8820   28.0710   42.3890 F   0  0  0  0  0  0  0  0  0  0  0  0
   36.0410   28.2120   41.0350 C   0  0  0  0  0  0  0  0  0  0  0  0
   37.0180   27.5640   40.2920 C   0  0  0  0  0  0  0  0  0  0  0  0
   37.1160   27.7540   38.9420 C   0  0  0  0  0  0  0  0  0  0  0  0
   37.9110   27.2080   38.4390 H   0  0  0  0  0  0  0  0  0  0  0  0
   36.2300   28.5990   38.3370 C   0  0  0  0  0  0  0  0  0  0  0  0
   36.3040   28.7530   37.2650 H   0  0  0  0  0  0  0  0  0  0  0  0
   35.2480   29.2520   39.0720 C   0  0  0  0  0  3  0  0  0  0  0  0
   35.1440   29.0650   40.4320 C   0  0  0  0  0  3  0  0  0  0  0  0
   40.6900   27.2660   43.5920 C   0  0  0  0  0  0  0  0  0  0  0  0
   41.1060   26.3940   44.1780 H   0  0  0  0  0  0  0  0  0  0  0  0
   40.2720   27.9310   44.3690 H   0  0  0  0  0  0  0  0  0  0  0  0
   41.8530   27.9370   42.9480 C   0  0  0  0  0  0  0  0  0  0  0  0
   42.6950   27.9570   43.6520 H   0  0  0  0  0  0  0  0  0  0  0  0
   42.1040   27.3920   42.0380 H   0  0  0  0  0  0  0  0  0  0  0  0
   40.4540   31.0320   41.8300 C   0  0  0  0  0  0  0  0  0  0  0  0
   41.5670   31.4670   42.5600 C   0  0  0  0  0  0  0  0  0  0  0  0
   42.2170   30.3830   43.0600 C   0  0  0  0  0  0  0  0  0  0  0  0
   41.5210   29.3190   42.6470 N   0  0  0  0  0  0  0  0  0  0  0  0
   40.4650   29.6930   41.9110 N   0  0  0  0  0  0  0  0  0  0  0  0
   41.8340   32.4920   42.6850 H   0  0  0  0  0  0  0  0  0  0  0  0
   43.1060   30.4490   43.6590 H   0  0  0  0  0  0  0  0  0  0  0  0
   37.4120   32.2800   40.2400 C   0  0  0  0  0  0  0  0  0  0  0  0
   37.7520   33.5700   39.8650 C   0  0  0  0  0  0  0  0  0  0  0  0
   39.0340   34.0090   40.1640 C   0  0  0  0  0  0  0  0  0  0  0  0
   39.8720   33.1530   40.8000 N   0  0  0  0  0  0  0  0  0  0  0  0
   39.5220   31.9160   41.1490 C   0  0  0  0  0  0  0  0  0  0  0  0
   38.2840   31.4730   40.8690 N   0  0  0  0  0  0  0  0  0  0  0  0
   36.4120   31.8730   40.0320 H   0  0  0  0  0  0  0  0  0  0  0  0
   37.0170   34.1730   39.3660 H   0  0  0  0  0  0  0  0  0  0  0  0
   39.3240   35.0140   39.8830 H   0  0  0  0  0  0  0  0  0  0  0  0
  1 10  1  0  0  0  0
  1  2  1  0  0  0  0
  2  3  2  0  0  0  0
  2 24  1  0  0  0  0
  3 11  1  0  0  0  0
  4  3  1  0  0  0  0
  5  4  1  0  0  0  0
  5 12  1  0  0  0  0
  6  5  1  0  0  0  0
  7  6  2  0  0  0  0
  7  8  1  0  0  0  0
  8  4  2  0  0  0  0
  9  8  1  0  0  0  0
  9  1  2  0  0  0  0
 13  6  1  0  0  0  0
 14  7  1  0  0  0  0
 16 15  1  0  0  0  0
 17 16  2  0  0  0  0
 17  9  1  0  0  0  0
 18 17  1  0  0  0  0
 19 18  1  0  0  0  0
 20 18  2  0  0  0  0
 20 22  1  0  0  0  0
 21 20  1  0  0  0  0
 22 23  2  0  0  0  0
 23 16  1  0  0  0  0
 24 25  1  0  0  0  0
 24 26  1  0  0  0  0
 27 24  1  0  0  0  0
 27 28  1  0  0  0  0
 29 27  1  0  0  0  0
 30 34  2  0  0  0  0
 30 31  1  0  0  0  0
 31 35  1  0  0  0  0
 31 32  2  0  0  0  0
 32 36  1  0  0  0  0
 33 27  1  0  0  0  0
 33 32  1  0  0  0  0
 34 33  1  0  0  0  0
 37 42  1  0  0  0  0
 38 39  1  0  0  0  0
 38 37  2  0  0  0  0
 39 40  2  0  0  0  0
 40 41  1  0  0  0  0
 41 30  1  0  0  0  0
 42 41  2  0  0  0  0
 43 37  1  0  0  0  0
 44 38  1  0  0  0  0
 45 39  1  0  0  0  0
M  END
>  <minimizedAffinity>
-6.48123455

$$$$

 OpenBabel03252506273D

 45 49  0  0  0  0  0  0  0  0999 V2000
   36.3550   27.2100   39.6650 C   0  0  0  0  0  0  0  0  0  0  0  0
   35.8410   28.4860   39.6980 C   0  0  0  0  0  0  0  0  0  0  0  0
   35.9750   29.1720   40.9100 C   0  0  0  0  0  0  0  0  0  0  0  0
   36.5840   28.6080   42.0080 C   0  0  0  0  0  0  0  0  0  0  0  0
   36.8490   29.0100   43.2630 N   0  0  0  0  0  0  0  0  0  0  0  0
   37.4810   28.0540   43.9590 C   0  0  0  0  0  0  0  0  0  0  0  0
   37.6530   26.9500   43.1380 C   0  0  0  0  0  0  0  0  0  0  0  0
   37.0870   27.3380   41.9530 C   0  0  0  0  0  0  0  0  0  0  0  0
   36.9610   26.6520   40.7660 C   0  0  0  0  0  0  0  0  0  0  0  0
   36.2200   26.7270   38.6930 H   0  0  0  0  0  0  0  0  0  0  0  0
   35.6210   30.1810   41.0850 H   0  0  0  0  0  0  0  0  0  0  0  0
   36.6000   29.9470   43.6600 H   0  0  0  0  0  0  0  0  0  0  0  0
   37.8180   28.0990   44.9950 H   0  0  0  0  0  0  0  0  0  0  0  0
   38.1240   25.9980   43.3690 H   0  0  0  0  0  0  0  0  0  0  0  0
   39.5180   26.3700   39.8500 F   0  0  0  0  0  0  0  0  0  0  0  0
   38.7520   25.2580   40.0820 C   0  0  0  0  0  0  0  0  0  0  0  0
   37.4450   25.2940   40.5460 C   0  0  0  0  0  0  0  0  0  0  0  0
   36.7400   24.1410   40.7540 C   0  0  0  0  0  0  0  0  0  0  0  0
   35.7230   24.2620   41.1190 H   0  0  0  0  0  0  0  0  0  0  0  0
   37.3520   22.9480   40.4960 C   0  0  0  0  0  0  0  0  0  0  0  0
   36.7970   22.0300   40.6590 H   0  0  0  0  0  0  0  0  0  0  0  0
   38.6610   22.9010   40.0290 C   0  0  0  0  0  3  0  0  0  0  0  0
   39.3760   24.0590   39.8180 C   0  0  0  0  0  3  0  0  0  0  0  0
   35.1680   29.2630   38.6670 C   0  0  0  0  0  0  0  0  0  0  0  0
   34.9110   30.2670   39.1140 H   0  0  0  0  0  0  0  0  0  0  0  0
   34.1860   28.8340   38.3960 H   0  0  0  0  0  0  0  0  0  0  0  0
   35.9400   29.5380   37.4230 C   0  0  0  0  0  0  0  0  0  0  0  0
   36.3130   28.5900   37.0120 H   0  0  0  0  0  0  0  0  0  0  0  0
   35.2860   30.0510   36.7180 H   0  0  0  0  0  0  0  0  0  0  0  0
   39.1880   30.9590   37.8880 C   0  0  0  0  0  0  0  0  0  0  0  0
   38.3600   31.9580   38.4130 C   0  0  0  0  0  0  0  0  0  0  0  0
   37.0650   31.5580   38.3070 C   0  0  0  0  0  0  0  0  0  0  0  0
   37.1040   30.3510   37.7340 N   0  0  0  0  0  0  0  0  0  0  0  0
   38.3660   29.9810   37.4780 N   0  0  0  0  0  0  0  0  0  0  0  0
   38.7190   32.8740   38.8230 H   0  0  0  0  0  0  0  0  0  0  0  0
   36.2330   32.1500   38.6400 H   0  0  0  0  0  0  0  0  0  0  0  0
   42.7140   30.1900   38.4530 C   0  0  0  0  0  0  0  0  0  0  0  0
   43.3760   31.1770   37.7410 C   0  0  0  0  0  0  0  0  0  0  0  0
   42.6010   32.1090   37.0640 C   0  0  0  0  0  0  0  0  0  0  0  0
   41.2520   31.9980   37.1410 N   0  0  0  0  0  0  0  0  0  0  0  0
   40.6390   31.0390   37.8330 C   0  0  0  0  0  0  0  0  0  0  0  0
   41.3710   30.1270   38.4950 N   0  0  0  0  0  0  0  0  0  0  0  0
   43.2700   29.4220   39.0100 H   0  0  0  0  0  0  0  0  0  0  0  0
   44.4490   31.1810   37.7410 H   0  0  0  0  0  0  0  0  0  0  0  0
   43.0950   32.8910   36.5000 H   0  0  0  0  0  0  0  0  0  0  0  0
  1  2  2  0  0  0  0
  1  9  1  0  0  0  0
  2  3  1  0  0  0  0
  3 11  1  0  0  0  0
  3  4  2  0  0  0  0
  4  5  1  0  0  0  0
  5 12  1  0  0  0  0
  5  6  1  0  0  0  0
  6 13  1  0  0  0  0
  7 14  1  0  0  0  0
  7  6  2  0  0  0  0
  8  4  1  0  0  0  0
  8  7  1  0  0  0  0
  9  8  2  0  0  0  0
 10  1  1  0  0  0  0
 15 16  1  0  0  0  0
 16 17  1  0  0  0  0
 17 18  2  0  0  0  0
 17  9  1  0  0  0  0
 18 19  1  0  0  0  0
 20 21  1  0  0  0  0
 20 18  1  0  0  0  0
 22 20  2  0  0  0  0
 23 22  1  0  0  0  0
 23 16  2  0  0  0  0
 24 25  1  0  0  0  0
 24  2  1  0  0  0  0
 26 24  1  0  0  0  0
 27 33  1  0  0  0  0
 27 24  1  0  0  0  0
 28 27  1  0  0  0  0
 29 27  1  0  0  0  0
 30 31  1  0  0  0  0
 31 35  1  0  0  0  0
 32 31  2  0  0  0  0
 32 36  1  0  0  0  0
 33 32  1  0  0  0  0
 34 33  1  0  0  0  0
 34 30  2  0  0  0  0
 37 42  1  0  0  0  0
 37 43  1  0  0  0  0
 38 37  2  0  0  0  0
 39 40  2  0  0  0  0
 39 38  1  0  0  0  0
 40 41  1  0  0  0  0
 41 30  1  0  0  0  0
 41 42  2  0  0  0  0
 44 38  1  0  0  0  0
 45 39  1  0  0  0  0
M  END
>  <minimizedAffinity>
-6.47031307

$$$$
