
 OpenBabel03242522273D

 38 41  0  0  0  0  0  0  0  0999 V2000
   45.4810   33.1460   41.2350 F   0  0  0  0  0  0  0  0  0  0  0  0
   46.5490   33.9830   41.0600 C   0  0  0  0  0  0  0  0  0  0  0  0
   46.9420   34.8110   42.0590 C   0  0  0  0  0  0  0  0  0  0  0  0
   48.0760   35.5650   41.8210 C   0  0  0  0  0  0  0  0  0  0  0  0
   48.7850   35.4880   40.6430 C   0  0  0  0  0  0  0  0  0  0  0  0
   48.3100   34.6200   39.6970 C   0  0  0  0  0  0  0  0  0  0  0  0
   47.1930   33.8550   39.8650 C   0  0  0  0  0  0  0  0  0  0  0  0
   48.2910   36.2020   42.6980 H   0  0  0  0  0  0  0  0  0  0  0  0
   49.6060   36.1530   40.6990 H   0  0  0  0  0  0  0  0  0  0  0  0
   49.0750   34.7370   38.9810 H   0  0  0  0  0  0  0  0  0  0  0  0
   46.7780   33.0300   38.7640 C   0  0  0  0  0  0  0  0  0  0  0  0
   45.5760   33.2950   38.1360 C   0  0  0  0  0  0  0  0  0  0  0  0
   45.1680   32.4610   37.1260 C   0  0  0  0  0  0  0  0  0  0  0  0
   45.9260   31.3700   36.7260 C   0  0  0  0  0  0  0  0  0  0  0  0
   47.1450   31.1490   37.4010 C   0  0  0  0  0  0  0  0  0  0  0  0
   47.5620   31.9800   38.4090 C   0  0  0  0  0  0  0  0  0  0  0  0
   44.8600   34.0570   38.2980 H   0  0  0  0  0  0  0  0  0  0  0  0
   44.2340   32.6010   36.5810 H   0  0  0  0  0  0  0  0  0  0  0  0
   45.5430   30.7350   35.9140 H   0  0  0  0  0  0  0  0  0  0  0  0
   47.6260   30.2730   36.9930 H   0  0  0  0  0  0  0  0  0  0  0  0
   47.8010   30.5210   40.7000 F   0  0  0  0  0  0  0  0  0  0  0  0
   48.8870   30.8030   39.9690 C   0  0  0  0  0  0  0  0  0  0  0  0
   48.8710   31.5200   38.7480 C   0  0  0  0  0  0  0  0  0  0  0  0
   50.0740   31.7700   38.0470 C   0  0  0  0  0  0  0  0  0  0  0  0
   49.9500   32.3270   37.1270 H   0  0  0  0  0  0  0  0  0  0  0  0
   51.2430   31.2870   38.6010 C   0  0  0  0  0  0  0  0  0  0  0  0
   52.1470   31.4950   38.0400 H   0  0  0  0  0  0  0  0  0  0  0  0
   51.2580   30.5890   39.7910 C   0  0  0  0  0  0  0  0  0  0  0  0
   50.0970   30.3370   40.4890 C   0  0  0  0  0  0  0  0  0  0  0  0
   44.5320   35.6660   44.8380 C   0  0  0  0  0  0  0  0  0  0  0  0
   45.2100   35.7280   43.6120 C   0  0  0  0  0  0  0  0  0  0  0  0
   46.1940   34.8140   43.3080 C   0  0  0  0  0  0  0  0  0  0  0  0
   46.4380   33.8800   44.2720 N   0  0  0  0  0  0  0  0  0  0  0  0
   45.7870   33.8290   45.4370 C   0  0  0  0  0  0  0  0  0  0  0  0
   44.8410   34.7190   45.7140 N   0  0  0  0  0  0  0  0  0  0  0  0
   43.8010   36.4900   44.8490 H   0  0  0  0  0  0  0  0  0  0  0  0
   45.0590   36.4480   42.8110 H   0  0  0  0  0  0  0  0  0  0  0  0
   45.9850   33.0880   46.1950 H   0  0  0  0  0  0  0  0  0  0  0  0
  2  1  1  0  0  0  0
  2  3  1  0  0  0  0
  3 32  1  0  0  0  0
  4  3  2  0  0  0  0
  4  8  1  0  0  0  0
  5  9  1  0  0  0  0
  5  4  1  0  0  0  0
  6  7  1  0  0  0  0
  6  5  2  0  0  0  0
  7  2  2  0  0  0  0
 10  6  1  0  0  0  0
 11  7  1  0  0  0  0
 12 17  1  0  0  0  0
 12 11  2  0  0  0  0
 13 12  1  0  0  0  0
 14 13  2  0  0  0  0
 14 15  1  0  0  0  0
 15 16  2  0  0  0  0
 16 23  1  0  0  0  0
 16 11  1  0  0  0  0
 18 13  1  0  0  0  0
 19 14  1  0  0  0  0
 20 15  1  0  0  0  0
 22 29  1  0  0  0  0
 22 21  1  0  0  0  0
 23 22  2  0  0  0  0
 24 26  2  0  0  0  0
 24 23  1  0  0  0  0
 25 24  1  0  0  0  0
 26 28  1  0  0  0  0
 27 26  1  0  0  0  0
 28 29  2  0  0  0  0
 30 36  1  0  0  0  0
 30 35  1  0  0  0  0
 31 30  2  0  0  0  0
 32 31  1  0  0  0  0
 32 33  2  0  0  0  0
 33 34  1  0  0  0  0
 34 35  2  0  0  0  0
 34 38  1  0  0  0  0
 37 31  1  0  0  0  0
M  END
>  <minimizedAffinity>
-5.87972116

>  <minimizedRMSD>
2.82269835

$$$$
