
 OpenBabel03242519583D

 28 30  0  0  0  0  0  0  0  0999 V2000
   44.8190   32.8940   41.1560 Br  0  0  0  0  0  0  0  0  0  0  0  0
   46.4510   33.8820   40.9460 C   0  0  0  0  0  0  0  0  0  0  0  0
   46.9300   34.7430   41.9120 C   0  0  0  0  0  0  0  0  0  0  0  0
   48.1090   35.4000   41.6590 C   0  0  0  0  0  0  0  0  0  0  0  0
   48.8260   35.2400   40.4900 C   0  0  0  0  0  0  0  0  0  0  0  0
   48.3550   34.3820   39.5160 C   0  0  0  0  0  0  0  0  0  0  0  0
   47.1750   33.7240   39.7740 C   0  0  0  0  0  0  0  0  0  0  0  0
   48.4640   36.0660   42.4270 H   0  0  0  0  0  0  0  0  0  0  0  0
   49.7530   35.7730   40.3190 H   0  0  0  0  0  0  0  0  0  0  0  0
   48.8940   34.2300   38.5820 H   0  0  0  0  0  0  0  0  0  0  0  0
   44.4800   36.0510   44.4900 C   0  0  0  0  0  0  0  0  0  0  0  0
   45.2290   35.9300   43.3080 C   0  0  0  0  0  0  0  0  0  0  0  0
   46.1400   34.8860   43.1390 C   0  0  0  0  0  0  0  0  0  0  0  0
   46.2520   34.0100   44.1730 N   0  0  0  0  0  0  0  0  0  0  0  0
   45.5260   34.1390   45.3010 C   0  0  0  0  0  0  0  0  0  0  0  0
   44.6570   35.1400   45.4570 N   0  0  0  0  0  0  0  0  0  0  0  0
   43.8050   36.8820   44.5360 H   0  0  0  0  0  0  0  0  0  0  0  0
   45.1780   36.6000   42.4550 H   0  0  0  0  0  0  0  0  0  0  0  0
   45.7250   33.3630   46.0360 H   0  0  0  0  0  0  0  0  0  0  0  0
   47.1240   34.5950   37.1900 F   0  0  0  0  0  0  0  0  0  0  0  0
   46.6760   33.3560   37.4790 C   0  0  0  0  0  0  0  0  0  0  0  0
   46.6510   32.8040   38.7500 C   0  0  0  0  0  0  0  0  0  0  0  0
   46.1800   31.5290   38.9870 C   0  0  0  0  0  0  0  0  0  0  0  0
   46.2060   31.1900   40.0270 H   0  0  0  0  0  0  0  0  0  0  0  0
   45.7160   30.7700   37.9320 C   0  0  0  0  0  0  0  0  0  0  0  0
   45.3480   29.7590   38.1470 H   0  0  0  0  0  0  0  0  0  0  0  0
   45.7240   31.2840   36.6490 C   0  0  0  0  0  0  0  0  0  0  0  0
   46.2020   32.5720   36.4310 C   0  0  0  0  0  0  0  0  0  0  0  0
  2  1  1  0  0  0  0
  2  3  1  0  0  0  0
  3 13  1  0  0  0  0
  4  3  2  0  0  0  0
  4  8  1  0  0  0  0
  5  4  1  0  0  0  0
  6  7  1  0  0  0  0
  6  5  2  0  0  0  0
  7  2  2  0  0  0  0
  9  5  1  0  0  0  0
 10  6  1  0  0  0  0
 11 17  1  0  0  0  0
 11 16  1  0  0  0  0
 12 11  2  0  0  0  0
 13 12  1  0  0  0  0
 13 14  2  0  0  0  0
 14 15  1  0  0  0  0
 15 16  2  0  0  0  0
 15 19  1  0  0  0  0
 18 12  1  0  0  0  0
 20 21  1  0  0  0  0
 21 22  1  0  0  0  0
 22 23  2  0  0  0  0
 22  7  1  0  0  0  0
 23 24  1  0  0  0  0
 25 26  1  0  0  0  0
 25 23  1  0  0  0  0
 27 25  2  0  0  0  0
 28 27  1  0  0  0  0
 28 21  2  0  0  0  0
M  END
>  <minimizedAffinity>
-5.60227919

>  <minimizedRMSD>
0.425850093

$$$$
