
 OpenBabel03242516493D

 43 46  0  0  1  0  0  0  0  0999 V2000
   47.6810   32.6140   41.3230 C   0  0  1  0  0  0  0  0  0  0  0  0
   47.1030   31.9940   40.1110 C   0  0  0  0  0  0  0  0  0  0  0  0
   48.0390   32.3670   38.9590 C   0  0  0  0  0  0  0  0  0  0  0  0
   47.8810   33.8640   38.7400 C   0  0  0  0  0  0  0  0  0  0  0  0
   48.0630   34.6940   39.9530 C   0  0  0  0  0  0  0  0  0  0  0  0
   47.6720   34.1260   41.2570 C   0  0  1  0  0  0  0  0  0  0  0  0
   48.7830   32.3600   41.3610 H   0  0  0  0  0  0  0  0  0  0  0  0
   46.0530   32.2730   39.9130 H   0  0  0  0  0  0  0  0  0  0  0  0
   47.2120   30.8780   40.2120 H   0  0  0  0  0  0  0  0  0  0  0  0
   49.0610   32.1630   39.2760 H   0  0  0  0  0  0  0  0  0  0  0  0
   47.7400   31.8770   38.0170 H   0  0  0  0  0  0  0  0  0  0  0  0
   48.6550   34.1310   37.9810 H   0  0  0  0  0  0  0  0  0  0  0  0
   46.9150   34.0090   38.2170 H   0  0  0  0  0  0  0  0  0  0  0  0
   47.4340   35.6190   39.7900 H   0  0  0  0  0  0  0  0  0  0  0  0
   49.1020   35.0920   39.9690 H   0  0  0  0  0  0  0  0  0  0  0  0
   48.4260   34.4560   42.0240 H   0  0  0  0  0  0  0  0  0  0  0  0
   45.3640   30.9900   43.8220 C   0  0  0  0  0  0  0  0  0  0  0  0
   45.9430   31.4350   42.6350 C   0  0  0  0  0  0  0  0  0  0  0  0
   47.1150   32.1640   42.5880 C   0  0  0  0  0  0  0  0  0  0  0  0
   47.6770   32.4280   43.7810 N   0  0  0  0  0  0  0  0  0  0  0  0
   47.1320   32.0070   44.9450 C   0  0  0  0  0  0  0  0  0  0  0  0
   46.0020   31.3040   44.9760 N   0  0  0  0  0  0  0  0  0  0  0  0
   44.4450   30.4250   43.7580 H   0  0  0  0  0  0  0  0  0  0  0  0
   45.4730   31.2130   41.6700 H   0  0  0  0  0  0  0  0  0  0  0  0
   47.5710   32.2090   45.9170 H   0  0  0  0  0  0  0  0  0  0  0  0
   46.3900   34.6730   41.7410 C   0  0  0  0  0  0  0  0  0  0  0  0
   46.1950   35.4210   42.9120 C   0  0  0  0  0  0  0  0  0  0  0  0
   44.8800   35.8520   43.1240 C   0  0  0  0  0  0  0  0  0  0  0  0
   43.9180   35.5260   42.2080 C   0  0  0  0  0  0  0  0  0  0  0  0
   44.1230   34.7980   41.0740 C   0  0  0  0  0  0  0  0  0  0  0  0
   45.3930   34.3770   40.8630 N   0  0  0  0  0  0  0  0  0  0  0  0
   47.0610   35.5790   43.5110 H   0  0  0  0  0  0  0  0  0  0  0  0
   44.7310   36.4160   44.0070 H   0  0  0  0  0  0  0  0  0  0  0  0
   42.9660   35.8980   42.4600 H   0  0  0  0  0  0  0  0  0  0  0  0
   43.9690   32.3780   39.4940 F   0  0  0  0  0  0  0  0  0  0  0  0
   43.0150   33.3170   39.3420 C   0  0  0  0  0  0  0  0  0  0  0  0
   43.1070   34.4410   40.0900 C   0  0  0  0  0  0  0  0  0  0  0  0
   42.0880   35.3490   39.8720 C   0  0  0  0  0  0  0  0  0  0  0  0
   42.0010   36.2990   40.3790 H   0  0  0  0  0  0  0  0  0  0  0  0
   41.0700   35.1260   38.9700 C   0  0  0  0  0  0  0  0  0  0  0  0
   40.2760   35.8210   38.7920 H   0  0  0  0  0  0  0  0  0  0  0  0
   41.0220   33.9630   38.2310 C   0  0  0  0  0  0  0  0  0  0  0  0
   42.0240   33.0370   38.4270 C   0  0  0  0  0  0  0  0  0  0  0  0
  1  7  1  1  0  0  0
  1 19  1  0  0  0  0
  2  9  1  0  0  0  0
  2  1  1  0  0  0  0
  3 10  1  0  0  0  0
  3  2  1  0  0  0  0
  4  3  1  0  0  0  0
  4  5  1  0  0  0  0
  5 15  1  0  0  0  0
  5  6  1  0  0  0  0
  6  1  1  0  0  0  0
  6 26  1  0  0  0  0
  6 16  1  1  0  0  0
  8  2  1  0  0  0  0
 11  3  1  0  0  0  0
 12  4  1  0  0  0  0
 13  4  1  0  0  0  0
 14  5  1  0  0  0  0
 17 22  1  0  0  0  0
 18 17  2  0  0  0  0
 19 18  1  0  0  0  0
 19 20  2  0  0  0  0
 20 21  1  0  0  0  0
 21 22  2  0  0  0  0
 21 25  1  0  0  0  0
 23 17  1  0  0  0  0
 24 18  1  0  0  0  0
 26 27  1  0  0  0  0
 27 28  2  0  0  0  0
 27 32  1  0  0  0  0
 28 33  1  0  0  0  0
 29 34  1  0  0  0  0
 29 28  1  0  0  0  0
 30 29  2  0  0  0  0
 31 30  1  0  0  0  0
 31 26  2  0  0  0  0
 36 35  1  0  0  0  0
 36 37  1  0  0  0  0
 37 30  1  0  0  0  0
 38 37  2  0  0  0  0
 38 39  1  0  0  0  0
 40 38  1  0  0  0  0
 41 40  1  0  0  0  0
 42 43  1  0  0  0  0
 42 40  2  0  0  0  0
 43 36  2  0  0  0  0
M  END
>  <minimizedAffinity>
-5.80043173

>  <minimizedRMSD>
0.993608236

$$$$
