
 OpenBabel03252506183D

 23 24  0  0  0  0  0  0  0  0999 V2000
   44.8920   35.7970   43.4660 C   0  0  0  0  0  0  0  0  0  0  0  0
   44.4210   35.8130   42.1290 C   0  0  0  0  0  0  0  0  0  0  0  0
   44.4290   34.6080   41.4200 C   0  0  0  0  0  0  0  0  0  0  0  0
   44.8800   33.4930   42.0340 N   0  0  0  0  0  0  0  0  0  0  0  0
   45.3280   33.5070   43.3230 C   0  0  0  0  0  0  0  0  0  0  0  0
   45.3190   34.6630   44.0030 N   0  0  0  0  0  0  0  0  0  0  0  0
   44.0810   36.7590   41.7320 H   0  0  0  0  0  0  0  0  0  0  0  0
   44.0740   34.6250   40.4140 H   0  0  0  0  0  0  0  0  0  0  0  0
   43.9370   31.0930   43.0560 F   0  0  0  0  0  0  0  0  0  0  0  0
   45.0820   31.1190   43.7930 C   0  0  0  0  0  0  0  0  0  0  0  0
   45.8090   32.2840   43.9590 C   0  0  0  0  0  0  0  0  0  0  0  0
   46.9720   32.3070   44.7110 C   0  0  0  0  0  0  0  0  0  0  0  0
   47.5620   33.2080   44.8570 H   0  0  0  0  0  0  0  0  0  0  0  0
   47.3890   31.1190   45.2960 C   0  0  0  0  0  0  0  0  0  0  0  0
   48.2860   31.0940   45.8860 H   0  0  0  0  0  0  0  0  0  0  0  0
   46.6750   29.9560   45.1380 C   0  0  0  0  0  3  0  0  0  0  0  0
   45.5180   29.9530   44.3860 C   0  0  0  0  0  3  0  0  0  0  0  0
   44.8860   37.0480   44.2100 C   0  0  0  0  0  3  0  0  0  0  0  0
   45.3480   38.1380   43.6390 C   0  0  0  0  0  3  0  0  0  0  0  0
   45.3690   39.4450   44.3470 C   0  0  0  0  0  0  0  0  0  0  0  0
   46.1040   39.4640   45.1770 H   0  0  0  0  0  0  0  0  0  0  0  0
   45.4980   40.2800   43.6390 H   0  0  0  0  0  0  0  0  0  0  0  0
   44.3480   39.5650   44.8090 H   0  0  0  0  0  0  0  0  0  0  0  0
  1  6  1  0  0  0  0
  1 18  1  0  0  0  0
  2  1  2  0  0  0  0
  3  4  2  0  0  0  0
  3  2  1  0  0  0  0
  4  5  1  0  0  0  0
  5 11  1  0  0  0  0
  5  6  2  0  0  0  0
  7  2  1  0  0  0  0
  8  3  1  0  0  0  0
  9 10  1  0  0  0  0
 10 11  2  0  0  0  0
 10 17  1  0  0  0  0
 11 12  1  0  0  0  0
 12 13  1  0  0  0  0
 12 14  2  0  0  0  0
 14 15  1  0  0  0  0
 16 14  1  0  0  0  0
 17 16  2  0  0  0  0
 19 18  2  0  0  0  0
 19 20  1  0  0  0  0
 20 23  1  0  0  0  0
 20 21  1  0  0  0  0
 22 20  1  0  0  0  0
M  END
>  <minimizedAffinity>
-3.20227265

>  <minimizedRMSD>
0.53567636

$$$$
