
 OpenBabel03252506183D

 23 24  0  0  0  0  0  0  0  0999 V2000
   44.8160   35.6160   43.7810 C   0  0  0  0  0  0  0  0  0  0  0  0
   44.0440   35.3280   42.6290 C   0  0  0  0  0  0  0  0  0  0  0  0
   44.0160   34.0050   42.1760 C   0  0  0  0  0  0  0  0  0  0  0  0
   44.7190   33.0700   42.8500 N   0  0  0  0  0  0  0  0  0  0  0  0
   45.4530   33.3760   43.9580 C   0  0  0  0  0  0  0  0  0  0  0  0
   45.4800   34.6450   44.3930 N   0  0  0  0  0  0  0  0  0  0  0  0
   43.5190   36.1500   42.1630 H   0  0  0  0  0  0  0  0  0  0  0  0
   43.4330   33.7930   41.3070 H   0  0  0  0  0  0  0  0  0  0  0  0
   47.4390   31.8880   42.6660 F   0  0  0  0  0  0  0  0  0  0  0  0
   47.1730   31.6360   43.9770 C   0  0  0  0  0  0  0  0  0  0  0  0
   46.2020   32.3410   44.6660 C   0  0  0  0  0  0  0  0  0  0  0  0
   45.9340   32.0830   46.0000 C   0  0  0  0  0  0  0  0  0  0  0  0
   45.1770   32.6210   46.5650 H   0  0  0  0  0  0  0  0  0  0  0  0
   46.6720   31.0890   46.6300 C   0  0  0  0  0  0  0  0  0  0  0  0
   46.4950   30.8590   47.6620 H   0  0  0  0  0  0  0  0  0  0  0  0
   47.6390   30.3840   45.9550 C   0  0  0  0  0  3  0  0  0  0  0  0
   47.8910   30.6560   44.6260 C   0  0  0  0  0  3  0  0  0  0  0  0
   44.8500   36.9910   44.2590 C   0  0  0  0  0  3  0  0  0  0  0  0
   45.3540   37.9270   43.4870 C   0  0  0  0  0  3  0  0  0  0  0  0
   45.4170   39.3480   43.9180 C   0  0  0  0  0  0  0  0  0  0  0  0
   46.1470   39.5100   44.7370 H   0  0  0  0  0  0  0  0  0  0  0  0
   45.5800   40.0180   43.0580 H   0  0  0  0  0  0  0  0  0  0  0  0
   44.3970   39.5930   44.3320 H   0  0  0  0  0  0  0  0  0  0  0  0
  1 18  1  0  0  0  0
  1  6  1  0  0  0  0
  2  1  2  0  0  0  0
  3  2  1  0  0  0  0
  3  4  2  0  0  0  0
  4  5  1  0  0  0  0
  5  6  2  0  0  0  0
  5 11  1  0  0  0  0
  7  2  1  0  0  0  0
  8  3  1  0  0  0  0
  9 10  1  0  0  0  0
 10 17  2  0  0  0  0
 10 11  1  0  0  0  0
 11 12  2  0  0  0  0
 12 13  1  0  0  0  0
 12 14  1  0  0  0  0
 14 15  1  0  0  0  0
 16 14  2  0  0  0  0
 17 16  1  0  0  0  0
 19 20  1  0  0  0  0
 19 18  2  0  0  0  0
 20 23  1  0  0  0  0
 20 21  1  0  0  0  0
 22 20  1  0  0  0  0
M  END
>  <minimizedAffinity>
-3.4919138

>  <minimizedRMSD>
0.73837471

$$$$
