
 OpenBabel03252506193D

 23 24  0  0  0  0  0  0  0  0999 V2000
   45.1030   36.1470   42.9840 C   0  0  0  0  0  0  0  0  0  0  0  0
   44.0350   35.9450   42.0750 C   0  0  0  0  0  0  0  0  0  0  0  0
   44.1470   34.8930   41.1610 C   0  0  0  0  0  0  0  0  0  0  0  0
   45.2570   34.1240   41.1840 N   0  0  0  0  0  0  0  0  0  0  0  0
   46.2700   34.3410   42.0710 C   0  0  0  0  0  0  0  0  0  0  0  0
   46.1620   35.3500   42.9490 N   0  0  0  0  0  0  0  0  0  0  0  0
   43.1920   36.6180   42.1400 H   0  0  0  0  0  0  0  0  0  0  0  0
   43.3410   34.7440   40.4770 H   0  0  0  0  0  0  0  0  0  0  0  0
   46.5470   32.2460   43.9060 F   0  0  0  0  0  0  0  0  0  0  0  0
   47.5410   32.4700   43.0010 C   0  0  0  0  0  0  0  0  0  0  0  0
   47.4570   33.4910   42.0720 C   0  0  0  0  0  0  0  0  0  0  0  0
   48.4700   33.7160   41.1540 C   0  0  0  0  0  0  0  0  0  0  0  0
   48.4280   34.5110   40.4140 H   0  0  0  0  0  0  0  0  0  0  0  0
   49.5780   32.8810   41.1940 C   0  0  0  0  0  0  0  0  0  0  0  0
   50.3840   33.0210   40.5000 H   0  0  0  0  0  0  0  0  0  0  0  0
   49.6720   31.8630   42.1140 C   0  0  0  0  0  3  0  0  0  0  0  0
   48.6530   31.6560   43.0200 C   0  0  0  0  0  3  0  0  0  0  0  0
   44.9940   37.2410   43.9390 C   0  0  0  0  0  3  0  0  0  0  0  0
   45.4120   38.4380   43.5950 C   0  0  0  0  0  3  0  0  0  0  0  0
   45.3270   39.5950   44.5260 C   0  0  0  0  0  0  0  0  0  0  0  0
   46.0260   39.5020   45.3810 H   0  0  0  0  0  0  0  0  0  0  0  0
   45.4320   40.5490   43.9850 H   0  0  0  0  0  0  0  0  0  0  0  0
   44.2820   39.5760   44.9500 H   0  0  0  0  0  0  0  0  0  0  0  0
  1 18  1  0  0  0  0
  2  7  1  0  0  0  0
  2  1  2  0  0  0  0
  3  4  2  0  0  0  0
  3  2  1  0  0  0  0
  4  5  1  0  0  0  0
  5 11  1  0  0  0  0
  5  6  2  0  0  0  0
  6  1  1  0  0  0  0
  8  3  1  0  0  0  0
 10 17  1  0  0  0  0
 10  9  1  0  0  0  0
 11 10  2  0  0  0  0
 12 14  2  0  0  0  0
 12 11  1  0  0  0  0
 13 12  1  0  0  0  0
 14 16  1  0  0  0  0
 15 14  1  0  0  0  0
 16 17  2  0  0  0  0
 19 18  2  0  0  0  0
 19 20  1  0  0  0  0
 20 23  1  0  0  0  0
 20 21  1  0  0  0  0
 22 20  1  0  0  0  0
M  END
>  <minimizedAffinity>
-3.68644404

>  <minimizedRMSD>
2.83264279

$$$$
