
 OpenBabel03252501303D

 38 40  0  0  0  0  0  0  0  0999 V2000
   36.3130   29.2320   40.4370 C   0  0  0  0  0  0  0  0  0  0  0  0
   36.1760   28.4540   39.3120 C   0  0  0  0  0  0  0  0  0  0  0  0
   36.4210   27.1150   39.2810 C   0  0  0  0  0  0  0  0  0  0  0  0
   36.8240   26.5040   40.4130 C   0  0  0  0  0  0  0  0  0  0  0  0
   36.9740   27.2600   41.5790 C   0  0  0  0  0  0  0  0  0  0  0  0
   36.7200   28.6130   41.5870 C   0  0  0  0  0  0  0  0  0  0  0  0
   35.8450   29.0160   38.4230 H   0  0  0  0  0  0  0  0  0  0  0  0
   36.2630   26.6540   38.3150 H   0  0  0  0  0  0  0  0  0  0  0  0
   37.3040   26.6010   42.3870 H   0  0  0  0  0  0  0  0  0  0  0  0
   39.2350   25.3340   41.1490 F   0  0  0  0  0  0  0  0  0  0  0  0
   38.2780   24.4870   40.6740 C   0  0  0  0  0  0  0  0  0  0  0  0
   37.0730   25.0500   40.3020 C   0  0  0  0  0  0  0  0  0  0  0  0
   36.0690   24.2060   39.8090 C   0  0  0  0  0  0  0  0  0  0  0  0
   35.1270   24.6290   39.5170 H   0  0  0  0  0  0  0  0  0  0  0  0
   36.3200   22.8530   39.7130 C   0  0  0  0  0  0  0  0  0  0  0  0
   35.5030   22.2310   39.3210 H   0  0  0  0  0  0  0  0  0  0  0  0
   37.5480   22.3180   40.0970 C   0  0  0  0  0  3  0  0  0  0  0  0
   38.5560   23.1440   40.5890 C   0  0  0  0  0  3  0  0  0  0  0  0
   38.3200   29.3700   43.2340 C   0  0  0  0  0  0  0  0  0  0  0  0
   39.4930   29.3370   42.7060 O   0  0  0  0  0  0  0  0  0  0  0  0
   36.9530   29.0500   42.9300 N   0  0  0  0  0  0  0  0  0  0  0  0
   38.7650   29.7870   44.1380 H   0  0  0  0  0  0  0  0  0  0  0  0
   36.3510   29.1980   43.7690 H   0  0  0  0  0  0  0  0  0  0  0  0
   36.1040   30.6690   40.6000 C   0  0  0  0  0  0  0  0  0  0  0  0
   35.0210   30.8120   40.7910 H   0  0  0  0  0  0  0  0  0  0  0  0
   36.5960   31.0820   41.5270 H   0  0  0  0  0  0  0  0  0  0  0  0
   36.6070   31.4410   39.3930 C   0  0  0  0  0  0  0  0  0  0  0  0
   35.7790   32.0600   38.9860 H   0  0  0  0  0  0  0  0  0  0  0  0
   36.8830   30.7190   38.5900 H   0  0  0  0  0  0  0  0  0  0  0  0
   38.6770   34.3460   40.2490 C   0  0  0  0  0  0  0  0  0  0  0  0
   39.9120   33.7430   40.6010 C   0  0  0  0  0  0  0  0  0  0  0  0
   39.9750   32.3430   40.5280 C   0  0  0  0  0  0  0  0  0  0  0  0
   38.9020   31.6450   40.1420 N   0  0  0  0  0  0  0  0  0  0  0  0
   37.7480   32.2730   39.8170 C   0  0  0  0  0  0  0  0  0  0  0  0
   37.6220   33.5750   39.8640 N   0  0  0  0  0  0  0  0  0  0  0  0
   38.5650   35.4260   40.2850 H   0  0  0  0  0  0  0  0  0  0  0  0
   40.7390   34.3680   40.9040 H   0  0  0  0  0  0  0  0  0  0  0  0
   40.9190   31.8600   40.7960 H   0  0  0  0  0  0  0  0  0  0  0  0
  1 24  1  0  0  0  0
  1  6  1  0  0  0  0
  2  1  2  0  0  0  0
  3  2  1  0  0  0  0
  3  4  2  0  0  0  0
  4  5  1  0  0  0  0
  5  6  2  0  0  0  0
  5  9  1  0  0  0  0
  6 21  1  0  0  0  0
  7  2  1  0  0  0  0
  8  3  1  0  0  0  0
 11 10  1  0  0  0  0
 12  4  1  0  0  0  0
 12 11  2  0  0  0  0
 13 12  1  0  0  0  0
 14 13  1  0  0  0  0
 15 13  2  0  0  0  0
 15 17  1  0  0  0  0
 16 15  1  0  0  0  0
 17 18  2  0  0  0  0
 18 11  1  0  0  0  0
 19 22  1  0  0  0  0
 20 19  2  0  0  0  0
 21 19  1  0  0  0  0
 21 23  1  0  0  0  0
 24 25  1  0  0  0  0
 24 26  1  0  0  0  0
 27 34  1  0  0  0  0
 27 24  1  0  0  0  0
 28 27  1  0  0  0  0
 29 27  1  0  0  0  0
 30 36  1  0  0  0  0
 30 31  1  0  0  0  0
 31 37  1  0  0  0  0
 32 31  2  0  0  0  0
 32 38  1  0  0  0  0
 33 32  1  0  0  0  0
 34 35  1  0  0  0  0
 34 33  2  0  0  0  0
 35 30  2  0  0  0  0
M  END
>  <minimizedAffinity>
-5.79953098

$$$$

 OpenBabel03252501303D

 38 40  0  0  0  0  0  0  0  0999 V2000
   36.6230   28.8140   40.9110 C   0  0  0  0  0  0  0  0  0  0  0  0
   36.3300   27.7390   40.1080 C   0  0  0  0  0  0  0  0  0  0  0  0
   35.6090   27.8260   38.9550 C   0  0  0  0  0  0  0  0  0  0  0  0
   35.1500   29.0330   38.5680 C   0  0  0  0  0  0  0  0  0  0  0  0
   35.4290   30.1520   39.3570 C   0  0  0  0  0  0  0  0  0  0  0  0
   36.1610   30.0400   40.5190 C   0  0  0  0  0  0  0  0  0  0  0  0
   36.7340   26.7830   40.4820 H   0  0  0  0  0  0  0  0  0  0  0  0
   35.4700   26.8830   38.4430 H   0  0  0  0  0  0  0  0  0  0  0  0
   34.9810   31.0340   38.8900 H   0  0  0  0  0  0  0  0  0  0  0  0
   36.3570   29.0890   36.0660 F   0  0  0  0  0  0  0  0  0  0  0  0
   34.9930   29.0760   36.0740 C   0  0  0  0  0  0  0  0  0  0  0  0
   34.3750   29.0490   37.3090 C   0  0  0  0  0  0  0  0  0  0  0  0
   32.9750   29.0350   37.3520 C   0  0  0  0  0  0  0  0  0  0  0  0
   32.4800   29.0130   38.3030 H   0  0  0  0  0  0  0  0  0  0  0  0
   32.2690   29.0490   36.1660 C   0  0  0  0  0  0  0  0  0  0  0  0
   31.1740   29.0370   36.2490 H   0  0  0  0  0  0  0  0  0  0  0  0
   32.9250   29.0770   34.9360 C   0  0  0  0  0  3  0  0  0  0  0  0
   34.3170   29.0910   34.8780 C   0  0  0  0  0  3  0  0  0  0  0  0
   37.3120   32.1660   40.4710 C   0  0  0  0  0  0  0  0  0  0  0  0
   38.2910   32.0800   39.6400 O   0  0  0  0  0  0  0  0  0  0  0  0
   36.2670   31.3670   41.0470 N   0  0  0  0  0  0  0  0  0  0  0  0
   37.5700   33.2140   40.6290 H   0  0  0  0  0  0  0  0  0  0  0  0
   35.7510   31.9120   41.7720 H   0  0  0  0  0  0  0  0  0  0  0  0
   37.3620   28.8550   42.1710 C   0  0  0  0  0  0  0  0  0  0  0  0
   38.4400   28.8570   41.9070 H   0  0  0  0  0  0  0  0  0  0  0  0
   37.2230   29.8240   42.7310 H   0  0  0  0  0  0  0  0  0  0  0  0
   36.9700   27.7030   43.0790 C   0  0  0  0  0  0  0  0  0  0  0  0
   36.0190   27.2590   42.7140 H   0  0  0  0  0  0  0  0  0  0  0  0
   36.7600   28.1000   44.0990 H   0  0  0  0  0  0  0  0  0  0  0  0
   40.2070   26.0830   43.6730 C   0  0  0  0  0  0  0  0  0  0  0  0
   40.0470   24.8380   43.0120 C   0  0  0  0  0  0  0  0  0  0  0  0
   38.8120   24.6100   42.3850 C   0  0  0  0  0  0  0  0  0  0  0  0
   37.8570   25.5450   42.4300 N   0  0  0  0  0  0  0  0  0  0  0  0
   38.0650   26.7160   43.0750 C   0  0  0  0  0  0  0  0  0  0  0  0
   39.1920   26.9910   43.6800 N   0  0  0  0  0  0  0  0  0  0  0  0
   41.1400   26.3180   44.1770 H   0  0  0  0  0  0  0  0  0  0  0  0
   40.8610   24.1280   43.0150 H   0  0  0  0  0  0  0  0  0  0  0  0
   38.6700   23.6550   41.8700 H   0  0  0  0  0  0  0  0  0  0  0  0
  1 24  1  0  0  0  0
  2  7  1  0  0  0  0
  2  1  2  0  0  0  0
  3  2  1  0  0  0  0
  4  3  2  0  0  0  0
  4  5  1  0  0  0  0
  5  6  2  0  0  0  0
  6  1  1  0  0  0  0
  6 21  1  0  0  0  0
  8  3  1  0  0  0  0
  9  5  1  0  0  0  0
 10 11  1  0  0  0  0
 11 12  1  0  0  0  0
 12 13  2  0  0  0  0
 12  4  1  0  0  0  0
 13 14  1  0  0  0  0
 15 16  1  0  0  0  0
 15 13  1  0  0  0  0
 17 15  2  0  0  0  0
 18 17  1  0  0  0  0
 18 11  2  0  0  0  0
 19 22  1  0  0  0  0
 19 21  1  0  0  0  0
 20 19  2  0  0  0  0
 21 23  1  0  0  0  0
 24 26  1  0  0  0  0
 24 27  1  0  0  0  0
 25 24  1  0  0  0  0
 27 29  1  0  0  0  0
 28 27  1  0  0  0  0
 30 35  1  0  0  0  0
 30 36  1  0  0  0  0
 31 37  1  0  0  0  0
 31 30  2  0  0  0  0
 32 33  2  0  0  0  0
 32 31  1  0  0  0  0
 33 34  1  0  0  0  0
 34 27  1  0  0  0  0
 34 35  2  0  0  0  0
 38 32  1  0  0  0  0
M  END
>  <minimizedAffinity>
-5.72439718

$$$$

 OpenBabel03252501303D

 38 40  0  0  0  0  0  0  0  0999 V2000
   36.8460   29.1990   41.2390 C   0  0  0  0  0  0  0  0  0  0  0  0
   36.5440   28.0460   40.5560 C   0  0  0  0  0  0  0  0  0  0  0  0
   35.9010   28.0210   39.3560 C   0  0  0  0  0  0  0  0  0  0  0  0
   35.5310   29.1890   38.7940 C   0  0  0  0  0  0  0  0  0  0  0  0
   35.8210   30.3850   39.4570 C   0  0  0  0  0  0  0  0  0  0  0  0
   36.4740   30.3860   40.6700 C   0  0  0  0  0  0  0  0  0  0  0  0
   36.8730   27.1270   41.0700 H   0  0  0  0  0  0  0  0  0  0  0  0
   35.7420   27.0280   38.9540 H   0  0  0  0  0  0  0  0  0  0  0  0
   35.4510   31.2200   38.8560 H   0  0  0  0  0  0  0  0  0  0  0  0
   32.7620   29.1240   38.5760 F   0  0  0  0  0  0  0  0  0  0  0  0
   33.4580   29.0520   37.4050 C   0  0  0  0  0  0  0  0  0  0  0  0
   34.8360   29.0820   37.4930 C   0  0  0  0  0  0  0  0  0  0  0  0
   35.5800   29.0100   36.3080 C   0  0  0  0  0  0  0  0  0  0  0  0
   36.6510   29.0340   36.3610 H   0  0  0  0  0  0  0  0  0  0  0  0
   34.9130   28.9110   35.1050 C   0  0  0  0  0  0  0  0  0  0  0  0
   35.5370   28.8580   34.2030 H   0  0  0  0  0  0  0  0  0  0  0  0
   33.5210   28.8830   35.0510 C   0  0  0  0  0  3  0  0  0  0  0  0
   32.7670   28.9540   36.2210 C   0  0  0  0  0  3  0  0  0  0  0  0
   37.6870   32.4560   40.3750 C   0  0  0  0  0  0  0  0  0  0  0  0
   38.6630   32.2440   39.5630 O   0  0  0  0  0  0  0  0  0  0  0  0
   36.6190   31.7620   41.0380 N   0  0  0  0  0  0  0  0  0  0  0  0
   37.9760   33.5080   40.4080 H   0  0  0  0  0  0  0  0  0  0  0  0
   36.1200   32.4040   41.6910 H   0  0  0  0  0  0  0  0  0  0  0  0
   37.5080   29.3640   42.5310 C   0  0  0  0  0  0  0  0  0  0  0  0
   38.5090   29.7940   42.3220 H   0  0  0  0  0  0  0  0  0  0  0  0
   37.0140   30.1420   43.1820 H   0  0  0  0  0  0  0  0  0  0  0  0
   37.5660   28.0530   43.2930 C   0  0  0  0  0  0  0  0  0  0  0  0
   36.8880   27.3180   42.8080 H   0  0  0  0  0  0  0  0  0  0  0  0
   37.1700   28.2130   44.3230 H   0  0  0  0  0  0  0  0  0  0  0  0
   40.5240   25.9170   43.6800 C   0  0  0  0  0  0  0  0  0  0  0  0
   41.5750   26.7830   43.2820 C   0  0  0  0  0  0  0  0  0  0  0  0
   41.2110   28.0810   42.8920 C   0  0  0  0  0  0  0  0  0  0  0  0
   39.9240   28.4470   42.9060 N   0  0  0  0  0  0  0  0  0  0  0  0
   38.9620   27.5790   43.2960 C   0  0  0  0  0  0  0  0  0  0  0  0
   39.2340   26.3550   43.6710 N   0  0  0  0  0  0  0  0  0  0  0  0
   40.7420   24.9010   43.9930 H   0  0  0  0  0  0  0  0  0  0  0  0
   42.5930   26.4220   43.2940 H   0  0  0  0  0  0  0  0  0  0  0  0
   42.0070   28.7640   42.5810 H   0  0  0  0  0  0  0  0  0  0  0  0
  1 24  1  0  0  0  0
  2  7  1  0  0  0  0
  2  1  2  0  0  0  0
  3  2  1  0  0  0  0
  4  3  2  0  0  0  0
  4  5  1  0  0  0  0
  5  6  2  0  0  0  0
  6 21  1  0  0  0  0
  6  1  1  0  0  0  0
  8  3  1  0  0  0  0
  9  5  1  0  0  0  0
 11 12  1  0  0  0  0
 11 10  1  0  0  0  0
 12  4  1  0  0  0  0
 13 14  1  0  0  0  0
 13 12  2  0  0  0  0
 15 13  1  0  0  0  0
 16 15  1  0  0  0  0
 17 15  2  0  0  0  0
 17 18  1  0  0  0  0
 18 11  2  0  0  0  0
 19 22  1  0  0  0  0
 19 21  1  0  0  0  0
 20 19  2  0  0  0  0
 21 23  1  0  0  0  0
 24 26  1  0  0  0  0
 24 27  1  0  0  0  0
 25 24  1  0  0  0  0
 27 34  1  0  0  0  0
 27 29  1  0  0  0  0
 28 27  1  0  0  0  0
 30 36  1  0  0  0  0
 31 37  1  0  0  0  0
 31 30  2  0  0  0  0
 32 33  2  0  0  0  0
 32 31  1  0  0  0  0
 33 34  1  0  0  0  0
 34 35  2  0  0  0  0
 35 30  1  0  0  0  0
 38 32  1  0  0  0  0
M  END
>  <minimizedAffinity>
-5.64773083

$$$$

 OpenBabel03252501303D

 38 40  0  0  0  0  0  0  0  0999 V2000
   38.7130   28.9120   42.0380 C   0  0  0  0  0  0  0  0  0  0  0  0
   39.3380   27.7340   41.7060 C   0  0  0  0  0  0  0  0  0  0  0  0
   38.7170   26.6950   41.0820 C   0  0  0  0  0  0  0  0  0  0  0  0
   37.4110   26.8150   40.7680 C   0  0  0  0  0  0  0  0  0  0  0  0
   36.7400   27.9980   41.0870 C   0  0  0  0  0  0  0  0  0  0  0  0
   37.3890   29.0370   41.7170 C   0  0  0  0  0  0  0  0  0  0  0  0
   40.4020   27.7020   41.9920 H   0  0  0  0  0  0  0  0  0  0  0  0
   39.3550   25.8410   40.8930 H   0  0  0  0  0  0  0  0  0  0  0  0
   35.7000   27.9140   40.7580 H   0  0  0  0  0  0  0  0  0  0  0  0
   36.6260   24.5330   42.1460 F   0  0  0  0  0  0  0  0  0  0  0  0
   36.4200   24.5200   40.7970 C   0  0  0  0  0  0  0  0  0  0  0  0
   36.8050   25.6450   40.0950 C   0  0  0  0  0  0  0  0  0  0  0  0
   36.6080   25.6630   38.7080 C   0  0  0  0  0  0  0  0  0  0  0  0
   36.9010   26.5300   38.1490 H   0  0  0  0  0  0  0  0  0  0  0  0
   36.0410   24.5630   38.0990 C   0  0  0  0  0  0  0  0  0  0  0  0
   35.9060   24.6220   37.0100 H   0  0  0  0  0  0  0  0  0  0  0  0
   35.6640   23.4430   38.8380 C   0  0  0  0  0  3  0  0  0  0  0  0
   35.8540   23.4110   40.2180 C   0  0  0  0  0  3  0  0  0  0  0  0
   36.1370   30.8200   40.6690 C   0  0  0  0  0  0  0  0  0  0  0  0
   36.5270   30.9280   39.4470 O   0  0  0  0  0  0  0  0  0  0  0  0
   36.4160   30.0770   41.8660 N   0  0  0  0  0  0  0  0  0  0  0  0
   35.4020   31.6040   40.4780 H   0  0  0  0  0  0  0  0  0  0  0  0
   35.8420   30.4360   42.6590 H   0  0  0  0  0  0  0  0  0  0  0  0
   39.2520   30.0870   42.7190 C   0  0  0  0  0  0  0  0  0  0  0  0
   38.4670   30.8690   42.6720 H   0  0  0  0  0  0  0  0  0  0  0  0
   39.3990   29.9230   43.8260 H   0  0  0  0  0  0  0  0  0  0  0  0
   40.5710   30.5230   42.1080 C   0  0  0  0  0  0  0  0  0  0  0  0
   40.9240   29.7380   41.4050 H   0  0  0  0  0  0  0  0  0  0  0  0
   41.3390   30.5920   42.9130 H   0  0  0  0  0  0  0  0  0  0  0  0
   41.1870   33.6350   40.2650 C   0  0  0  0  0  0  0  0  0  0  0  0
   39.8870   34.1930   40.1730 C   0  0  0  0  0  0  0  0  0  0  0  0
   38.8420   33.4600   40.7560 C   0  0  0  0  0  0  0  0  0  0  0  0
   39.0980   32.2950   41.3610 N   0  0  0  0  0  0  0  0  0  0  0  0
   40.3600   31.8100   41.4200 C   0  0  0  0  0  0  0  0  0  0  0  0
   41.3790   32.4430   40.8960 N   0  0  0  0  0  0  0  0  0  0  0  0
   42.0380   34.1540   39.8340 H   0  0  0  0  0  0  0  0  0  0  0  0
   39.7510   35.1390   39.6690 H   0  0  0  0  0  0  0  0  0  0  0  0
   37.8310   33.8750   40.6950 H   0  0  0  0  0  0  0  0  0  0  0  0
  1 24  1  0  0  0  0
  2  7  1  0  0  0  0
  2  1  2  0  0  0  0
  3  2  1  0  0  0  0
  4  3  2  0  0  0  0
  4  5  1  0  0  0  0
  5  6  2  0  0  0  0
  6 21  1  0  0  0  0
  6  1  1  0  0  0  0
  8  3  1  0  0  0  0
  9  5  1  0  0  0  0
 11 10  1  0  0  0  0
 12  4  1  0  0  0  0
 12 11  2  0  0  0  0
 13 12  1  0  0  0  0
 14 13  1  0  0  0  0
 15 13  2  0  0  0  0
 15 17  1  0  0  0  0
 16 15  1  0  0  0  0
 17 18  2  0  0  0  0
 18 11  1  0  0  0  0
 19 21  1  0  0  0  0
 20 19  2  0  0  0  0
 21 23  1  0  0  0  0
 22 19  1  0  0  0  0
 24 26  1  0  0  0  0
 25 24  1  0  0  0  0
 27 24  1  0  0  0  0
 27 29  1  0  0  0  0
 28 27  1  0  0  0  0
 30 35  1  0  0  0  0
 31 30  2  0  0  0  0
 31 32  1  0  0  0  0
 32 33  2  0  0  0  0
 33 34  1  0  0  0  0
 34 27  1  0  0  0  0
 35 34  2  0  0  0  0
 36 30  1  0  0  0  0
 37 31  1  0  0  0  0
 38 32  1  0  0  0  0
M  END
>  <minimizedAffinity>
-5.59395552

$$$$

 OpenBabel03252501303D

 38 40  0  0  0  0  0  0  0  0999 V2000
   34.3200   28.3920   37.6600 C   0  0  0  0  0  0  0  0  0  0  0  0
   33.9910   29.1450   38.7610 C   0  0  0  0  0  0  0  0  0  0  0  0
   34.7210   29.1680   39.9110 C   0  0  0  0  0  0  0  0  0  0  0  0
   35.8330   28.4100   39.9870 C   0  0  0  0  0  0  0  0  0  0  0  0
   36.2020   27.6310   38.8880 C   0  0  0  0  0  0  0  0  0  0  0  0
   35.4500   27.6240   37.7350 C   0  0  0  0  0  0  0  0  0  0  0  0
   33.0720   29.7400   38.6330 H   0  0  0  0  0  0  0  0  0  0  0  0
   34.3220   29.8160   40.6810 H   0  0  0  0  0  0  0  0  0  0  0  0
   37.1220   27.0900   39.1310 H   0  0  0  0  0  0  0  0  0  0  0  0
   37.7230   30.3780   40.5150 F   0  0  0  0  0  0  0  0  0  0  0  0
   37.5070   29.4710   41.5110 C   0  0  0  0  0  0  0  0  0  0  0  0
   36.5720   28.4850   41.2670 C   0  0  0  0  0  0  0  0  0  0  0  0
   36.3270   27.5370   42.2700 C   0  0  0  0  0  0  0  0  0  0  0  0
   35.6030   26.7660   42.0950 H   0  0  0  0  0  0  0  0  0  0  0  0
   37.0250   27.6240   43.4560 C   0  0  0  0  0  0  0  0  0  0  0  0
   36.8000   26.8600   44.2130 H   0  0  0  0  0  0  0  0  0  0  0  0
   37.9630   28.6330   43.6700 C   0  0  0  0  0  3  0  0  0  0  0  0
   38.2170   29.5820   42.6820 C   0  0  0  0  0  3  0  0  0  0  0  0
   37.1550   27.3620   36.0410 C   0  0  0  0  0  0  0  0  0  0  0  0
   37.6740   28.5170   35.8040 O   0  0  0  0  0  0  0  0  0  0  0  0
   36.1250   26.7450   36.8280 N   0  0  0  0  0  0  0  0  0  0  0  0
   37.8650   26.9260   35.3370 H   0  0  0  0  0  0  0  0  0  0  0  0
   36.0480   25.7320   36.5940 H   0  0  0  0  0  0  0  0  0  0  0  0
   33.6200   28.2620   36.3850 C   0  0  0  0  0  0  0  0  0  0  0  0
   34.0650   29.0140   35.7010 H   0  0  0  0  0  0  0  0  0  0  0  0
   33.8240   27.2790   35.8690 H   0  0  0  0  0  0  0  0  0  0  0  0
   32.1210   28.4230   36.5580 C   0  0  0  0  0  0  0  0  0  0  0  0
   31.8720   28.3770   37.6400 H   0  0  0  0  0  0  0  0  0  0  0  0
   31.6050   27.5570   36.0810 H   0  0  0  0  0  0  0  0  0  0  0  0
   31.7140   31.1970   34.1930 C   0  0  0  0  0  0  0  0  0  0  0  0
   30.9490   32.1250   34.9450 C   0  0  0  0  0  0  0  0  0  0  0  0
   30.6000   31.7450   36.2500 C   0  0  0  0  0  0  0  0  0  0  0  0
   30.9900   30.5580   36.7280 N   0  0  0  0  0  0  0  0  0  0  0  0
   31.7210   29.7120   35.9650 C   0  0  0  0  0  0  0  0  0  0  0  0
   32.0780   30.0050   34.7410 N   0  0  0  0  0  0  0  0  0  0  0  0
   32.0150   31.4330   33.1760 H   0  0  0  0  0  0  0  0  0  0  0  0
   30.6680   33.0670   34.4970 H   0  0  0  0  0  0  0  0  0  0  0  0
   30.0090   32.4470   36.8460 H   0  0  0  0  0  0  0  0  0  0  0  0
  1  6  2  0  0  0  0
  1  2  1  0  0  0  0
  2  3  2  0  0  0  0
  3  4  1  0  0  0  0
  3  8  1  0  0  0  0
  4 12  1  0  0  0  0
  5  9  1  0  0  0  0
  5  4  2  0  0  0  0
  6  5  1  0  0  0  0
  7  2  1  0  0  0  0
 10 11  1  0  0  0  0
 11 18  1  0  0  0  0
 12 11  2  0  0  0  0
 12 13  1  0  0  0  0
 13 15  2  0  0  0  0
 14 13  1  0  0  0  0
 15 17  1  0  0  0  0
 15 16  1  0  0  0  0
 18 17  2  0  0  0  0
 19 21  1  0  0  0  0
 20 19  2  0  0  0  0
 21  6  1  0  0  0  0
 22 19  1  0  0  0  0
 23 21  1  0  0  0  0
 24 27  1  0  0  0  0
 24  1  1  0  0  0  0
 25 24  1  0  0  0  0
 26 24  1  0  0  0  0
 27 28  1  0  0  0  0
 29 27  1  0  0  0  0
 30 35  2  0  0  0  0
 30 31  1  0  0  0  0
 31 32  2  0  0  0  0
 32 33  1  0  0  0  0
 32 38  1  0  0  0  0
 34 27  1  0  0  0  0
 34 33  2  0  0  0  0
 35 34  1  0  0  0  0
 36 30  1  0  0  0  0
 37 31  1  0  0  0  0
M  END
>  <minimizedAffinity>
-5.51813793

$$$$

 OpenBabel03252501303D

 38 40  0  0  0  0  0  0  0  0999 V2000
   37.7090   27.9520   42.2530 C   0  0  0  0  0  0  0  0  0  0  0  0
   38.3960   28.8100   43.0780 C   0  0  0  0  0  0  0  0  0  0  0  0
   38.9000   30.0100   42.6750 C   0  0  0  0  0  0  0  0  0  0  0  0
   38.7230   30.3900   41.3930 C   0  0  0  0  0  0  0  0  0  0  0  0
   38.0290   29.5450   40.5230 C   0  0  0  0  0  0  0  0  0  0  0  0
   37.5260   28.3370   40.9530 C   0  0  0  0  0  0  0  0  0  0  0  0
   38.5060   28.4400   44.1100 H   0  0  0  0  0  0  0  0  0  0  0  0
   39.4130   30.5630   43.4510 H   0  0  0  0  0  0  0  0  0  0  0  0
   37.9840   30.0150   39.5360 H   0  0  0  0  0  0  0  0  0  0  0  0
   37.1550   32.5720   40.6870 F   0  0  0  0  0  0  0  0  0  0  0  0
   38.5040   32.7760   40.6820 C   0  0  0  0  0  0  0  0  0  0  0  0
   39.3000   31.7020   41.0290 C   0  0  0  0  0  0  0  0  0  0  0  0
   40.6900   31.8780   41.0330 C   0  0  0  0  0  0  0  0  0  0  0  0
   41.3210   31.0540   41.3020 H   0  0  0  0  0  0  0  0  0  0  0  0
   41.2090   33.1100   40.6920 C   0  0  0  0  0  0  0  0  0  0  0  0
   42.3030   33.2010   40.7090 H   0  0  0  0  0  0  0  0  0  0  0  0
   40.3770   34.1730   40.3450 C   0  0  0  0  0  3  0  0  0  0  0  0
   38.9920   34.0120   40.3360 C   0  0  0  0  0  3  0  0  0  0  0  0
   35.5670   28.2940   39.5380 C   0  0  0  0  0  0  0  0  0  0  0  0
   34.7020   29.1190   40.0160 O   0  0  0  0  0  0  0  0  0  0  0  0
   36.8680   27.7580   39.8210 N   0  0  0  0  0  0  0  0  0  0  0  0
   34.8830   28.0950   38.7110 H   0  0  0  0  0  0  0  0  0  0  0  0
   37.1150   27.0180   39.1280 H   0  0  0  0  0  0  0  0  0  0  0  0
   37.1390   26.6400   42.5500 C   0  0  0  0  0  0  0  0  0  0  0  0
   36.6990   26.7090   43.5660 H   0  0  0  0  0  0  0  0  0  0  0  0
   36.2580   26.3850   41.8940 H   0  0  0  0  0  0  0  0  0  0  0  0
   38.1810   25.5440   42.4220 C   0  0  0  0  0  0  0  0  0  0  0  0
   38.3360   25.0700   43.4150 H   0  0  0  0  0  0  0  0  0  0  0  0
   39.1560   26.0010   42.1360 H   0  0  0  0  0  0  0  0  0  0  0  0
   36.1330   23.8700   39.8800 C   0  0  0  0  0  0  0  0  0  0  0  0
   36.8890   22.7020   39.6030 C   0  0  0  0  0  0  0  0  0  0  0  0
   38.0890   22.5440   40.3140 C   0  0  0  0  0  0  0  0  0  0  0  0
   38.4680   23.4710   41.2010 N   0  0  0  0  0  0  0  0  0  0  0  0
   37.7050   24.5660   41.4250 C   0  0  0  0  0  0  0  0  0  0  0  0
   36.5770   24.7740   40.7960 N   0  0  0  0  0  0  0  0  0  0  0  0
   35.1950   24.0490   39.3610 H   0  0  0  0  0  0  0  0  0  0  0  0
   36.5250   21.9950   38.8740 H   0  0  0  0  0  0  0  0  0  0  0  0
   38.6870   21.6500   40.1150 H   0  0  0  0  0  0  0  0  0  0  0  0
  1 24  1  0  0  0  0
  1  2  1  0  0  0  0
  2  7  1  0  0  0  0
  3  2  2  0  0  0  0
  3  8  1  0  0  0  0
  4  3  1  0  0  0  0
  5  6  1  0  0  0  0
  5  4  2  0  0  0  0
  6  1  2  0  0  0  0
  9  5  1  0  0  0  0
 11 10  1  0  0  0  0
 11 12  1  0  0  0  0
 12 13  2  0  0  0  0
 12  4  1  0  0  0  0
 13 14  1  0  0  0  0
 15 16  1  0  0  0  0
 15 13  1  0  0  0  0
 17 15  2  0  0  0  0
 18 17  1  0  0  0  0
 18 11  2  0  0  0  0
 19 21  1  0  0  0  0
 19 20  2  0  0  0  0
 21  6  1  0  0  0  0
 22 19  1  0  0  0  0
 23 21  1  0  0  0  0
 24 25  1  0  0  0  0
 26 24  1  0  0  0  0
 27 24  1  0  0  0  0
 27 28  1  0  0  0  0
 29 27  1  0  0  0  0
 30 35  1  0  0  0  0
 31 30  2  0  0  0  0
 31 32  1  0  0  0  0
 32 33  2  0  0  0  0
 33 34  1  0  0  0  0
 34 27  1  0  0  0  0
 35 34  2  0  0  0  0
 36 30  1  0  0  0  0
 37 31  1  0  0  0  0
 38 32  1  0  0  0  0
M  END
>  <minimizedAffinity>
-5.43229723

$$$$

 OpenBabel03252501303D

 38 40  0  0  0  0  0  0  0  0999 V2000
   37.1110   31.2600   39.9070 C   0  0  0  0  0  0  0  0  0  0  0  0
   36.9730   31.0990   38.5490 C   0  0  0  0  0  0  0  0  0  0  0  0
   36.3490   30.0370   37.9690 C   0  0  0  0  0  0  0  0  0  0  0  0
   35.8320   29.0770   38.7630 C   0  0  0  0  0  0  0  0  0  0  0  0
   35.9500   29.2040   40.1490 C   0  0  0  0  0  0  0  0  0  0  0  0
   36.5850   30.2880   40.7130 C   0  0  0  0  0  0  0  0  0  0  0  0
   37.4180   31.9180   37.9590 H   0  0  0  0  0  0  0  0  0  0  0  0
   36.3270   30.0660   36.8870 H   0  0  0  0  0  0  0  0  0  0  0  0
   35.4760   28.3400   40.6250 H   0  0  0  0  0  0  0  0  0  0  0  0
   33.3680   29.3360   37.5040 F   0  0  0  0  0  0  0  0  0  0  0  0
   33.9470   28.1030   37.4410 C   0  0  0  0  0  0  0  0  0  0  0  0
   35.1720   27.9540   38.0620 C   0  0  0  0  0  0  0  0  0  0  0  0
   35.7930   26.6990   38.0170 C   0  0  0  0  0  0  0  0  0  0  0  0
   36.7450   26.5680   38.4930 H   0  0  0  0  0  0  0  0  0  0  0  0
   35.1620   25.6650   37.3580 C   0  0  0  0  0  0  0  0  0  0  0  0
   35.6860   24.6990   37.3470 H   0  0  0  0  0  0  0  0  0  0  0  0
   33.9250   25.8490   36.7420 C   0  0  0  0  0  3  0  0  0  0  0  0
   33.2950   27.0910   36.7790 C   0  0  0  0  0  3  0  0  0  0  0  0
   37.5780   29.3450   42.7060 C   0  0  0  0  0  0  0  0  0  0  0  0
   38.6250   28.6800   42.3620 O   0  0  0  0  0  0  0  0  0  0  0  0
   36.5010   30.1010   42.1300 N   0  0  0  0  0  0  0  0  0  0  0  0
   37.8040   29.1150   43.7480 H   0  0  0  0  0  0  0  0  0  0  0  0
   35.8260   30.3910   42.8700 H   0  0  0  0  0  0  0  0  0  0  0  0
   37.7690   32.3310   40.6500 C   0  0  0  0  0  0  0  0  0  0  0  0
   37.0610   32.6470   41.4440 H   0  0  0  0  0  0  0  0  0  0  0  0
   38.6730   31.9760   41.2250 H   0  0  0  0  0  0  0  0  0  0  0  0
   38.1860   33.4660   39.7330 C   0  0  0  0  0  0  0  0  0  0  0  0
   37.7830   34.4220   40.1290 H   0  0  0  0  0  0  0  0  0  0  0  0
   37.7140   33.3170   38.7340 H   0  0  0  0  0  0  0  0  0  0  0  0
   41.6390   32.7650   38.7110 C   0  0  0  0  0  0  0  0  0  0  0  0
   42.3870   33.5780   39.6000 C   0  0  0  0  0  0  0  0  0  0  0  0
   41.6570   34.3440   40.5230 C   0  0  0  0  0  0  0  0  0  0  0  0
   40.3210   34.2830   40.5330 N   0  0  0  0  0  0  0  0  0  0  0  0
   39.6580   33.4880   39.6610 C   0  0  0  0  0  0  0  0  0  0  0  0
   40.2780   32.7500   38.7760 N   0  0  0  0  0  0  0  0  0  0  0  0
   42.1460   32.1500   37.9740 H   0  0  0  0  0  0  0  0  0  0  0  0
   43.4650   33.5800   39.5370 H   0  0  0  0  0  0  0  0  0  0  0  0
   42.2170   34.9780   41.2170 H   0  0  0  0  0  0  0  0  0  0  0  0
  1 24  1  0  0  0  0
  1  6  1  0  0  0  0
  2  1  2  0  0  0  0
  3  2  1  0  0  0  0
  3  4  2  0  0  0  0
  4  5  1  0  0  0  0
  5  9  1  0  0  0  0
  5  6  2  0  0  0  0
  6 21  1  0  0  0  0
  7  2  1  0  0  0  0
  8  3  1  0  0  0  0
 11 10  1  0  0  0  0
 11 12  1  0  0  0  0
 12  4  1  0  0  0  0
 13 12  2  0  0  0  0
 13 14  1  0  0  0  0
 15 13  1  0  0  0  0
 16 15  1  0  0  0  0
 17 18  1  0  0  0  0
 17 15  2  0  0  0  0
 18 11  2  0  0  0  0
 19 22  1  0  0  0  0
 20 19  2  0  0  0  0
 21 19  1  0  0  0  0
 21 23  1  0  0  0  0
 24 26  1  0  0  0  0
 24 25  1  0  0  0  0
 27 28  1  0  0  0  0
 27 24  1  0  0  0  0
 29 27  1  0  0  0  0
 30 35  2  0  0  0  0
 30 31  1  0  0  0  0
 31 32  2  0  0  0  0
 32 33  1  0  0  0  0
 32 38  1  0  0  0  0
 34 27  1  0  0  0  0
 34 33  2  0  0  0  0
 35 34  1  0  0  0  0
 36 30  1  0  0  0  0
 37 31  1  0  0  0  0
M  END
>  <minimizedAffinity>
-5.4177928

$$$$

 OpenBabel03252501303D

 38 40  0  0  0  0  0  0  0  0999 V2000
   38.3280   29.4200   40.6890 C   0  0  0  0  0  0  0  0  0  0  0  0
   38.4220   29.6400   39.3360 C   0  0  0  0  0  0  0  0  0  0  0  0
   37.3720   29.5390   38.4750 C   0  0  0  0  0  0  0  0  0  0  0  0
   36.1620   29.2020   38.9650 C   0  0  0  0  0  0  0  0  0  0  0  0
   36.0240   28.9720   40.3360 C   0  0  0  0  0  0  0  0  0  0  0  0
   37.1000   29.0810   41.1890 C   0  0  0  0  0  0  0  0  0  0  0  0
   39.4370   29.9110   39.0010 H   0  0  0  0  0  0  0  0  0  0  0  0
   37.6190   29.7460   37.4410 H   0  0  0  0  0  0  0  0  0  0  0  0
   34.9820   28.7140   40.5480 H   0  0  0  0  0  0  0  0  0  0  0  0
   33.4770   29.2100   39.6800 F   0  0  0  0  0  0  0  0  0  0  0  0
   33.7420   29.1160   38.3450 C   0  0  0  0  0  0  0  0  0  0  0  0
   35.0720   29.1090   37.9710 C   0  0  0  0  0  0  0  0  0  0  0  0
   35.3780   29.0130   36.6070 C   0  0  0  0  0  0  0  0  0  0  0  0
   36.4060   29.0080   36.3000 H   0  0  0  0  0  0  0  0  0  0  0  0
   34.3470   28.9280   35.6940 C   0  0  0  0  0  0  0  0  0  0  0  0
   34.6350   28.8550   34.6370 H   0  0  0  0  0  0  0  0  0  0  0  0
   33.0150   28.9370   36.1060 C   0  0  0  0  0  3  0  0  0  0  0  0
   32.6950   29.0320   37.4600 C   0  0  0  0  0  3  0  0  0  0  0  0
   36.6850   27.4270   42.9020 C   0  0  0  0  0  0  0  0  0  0  0  0
   37.0220   26.2720   42.4420 O   0  0  0  0  0  0  0  0  0  0  0  0
   36.5950   28.8020   42.4990 N   0  0  0  0  0  0  0  0  0  0  0  0
   36.4480   26.9510   43.8540 H   0  0  0  0  0  0  0  0  0  0  0  0
   36.1650   29.3740   43.2570 H   0  0  0  0  0  0  0  0  0  0  0  0
   39.3700   29.4760   41.7110 C   0  0  0  0  0  0  0  0  0  0  0  0
   39.1840   28.6250   42.3990 H   0  0  0  0  0  0  0  0  0  0  0  0
   40.3990   29.2660   41.3000 H   0  0  0  0  0  0  0  0  0  0  0  0
   39.3850   30.8210   42.4130 C   0  0  0  0  0  0  0  0  0  0  0  0
   40.0480   30.7610   43.3030 H   0  0  0  0  0  0  0  0  0  0  0  0
   38.3630   31.0420   42.7970 H   0  0  0  0  0  0  0  0  0  0  0  0
   41.5110   32.7080   40.0940 C   0  0  0  0  0  0  0  0  0  0  0  0
   40.6580   33.7680   39.6960 C   0  0  0  0  0  0  0  0  0  0  0  0
   39.3680   33.7830   40.2510 C   0  0  0  0  0  0  0  0  0  0  0  0
   38.9990   32.8270   41.1110 N   0  0  0  0  0  0  0  0  0  0  0  0
   39.8570   31.8380   41.4550 C   0  0  0  0  0  0  0  0  0  0  0  0
   41.0720   31.7660   40.9740 N   0  0  0  0  0  0  0  0  0  0  0  0
   42.5210   32.6410   39.6990 H   0  0  0  0  0  0  0  0  0  0  0  0
   41.0200   34.5080   38.9980 H   0  0  0  0  0  0  0  0  0  0  0  0
   38.6950   34.5930   39.9560 H   0  0  0  0  0  0  0  0  0  0  0  0
  1  6  1  0  0  0  0
  1 24  1  0  0  0  0
  2  1  2  0  0  0  0
  3  4  2  0  0  0  0
  3  2  1  0  0  0  0
  4  5  1  0  0  0  0
  5  9  1  0  0  0  0
  5  6  2  0  0  0  0
  6 21  1  0  0  0  0
  7  2  1  0  0  0  0
  8  3  1  0  0  0  0
 11 10  1  0  0  0  0
 12 11  1  0  0  0  0
 12  4  1  0  0  0  0
 13 12  2  0  0  0  0
 14 13  1  0  0  0  0
 15 17  2  0  0  0  0
 15 13  1  0  0  0  0
 16 15  1  0  0  0  0
 17 18  1  0  0  0  0
 18 11  2  0  0  0  0
 19 22  1  0  0  0  0
 20 19  2  0  0  0  0
 21 19  1  0  0  0  0
 21 23  1  0  0  0  0
 24 25  1  0  0  0  0
 24 27  1  0  0  0  0
 26 24  1  0  0  0  0
 27 29  1  0  0  0  0
 27 28  1  0  0  0  0
 30 35  1  0  0  0  0
 31 30  2  0  0  0  0
 31 32  1  0  0  0  0
 32 33  2  0  0  0  0
 33 34  1  0  0  0  0
 34 27  1  0  0  0  0
 35 34  2  0  0  0  0
 36 30  1  0  0  0  0
 37 31  1  0  0  0  0
 38 32  1  0  0  0  0
M  END
>  <minimizedAffinity>
-5.39128923

$$$$

 OpenBabel03252501303D

 38 40  0  0  0  0  0  0  0  0999 V2000
   33.5720   28.6900   37.0900 C   0  0  0  0  0  0  0  0  0  0  0  0
   32.3640   29.2920   37.3520 C   0  0  0  0  0  0  0  0  0  0  0  0
   31.6150   29.9300   36.4100 C   0  0  0  0  0  0  0  0  0  0  0  0
   32.0740   29.9840   35.1440 C   0  0  0  0  0  0  0  0  0  0  0  0
   33.2980   29.3830   34.8380 C   0  0  0  0  0  0  0  0  0  0  0  0
   34.0380   28.7410   35.8050 C   0  0  0  0  0  0  0  0  0  0  0  0
   32.0480   29.2110   38.4050 H   0  0  0  0  0  0  0  0  0  0  0  0
   30.6890   30.3480   36.7840 H   0  0  0  0  0  0  0  0  0  0  0  0
   33.5050   29.5270   33.7730 H   0  0  0  0  0  0  0  0  0  0  0  0
   30.6250   28.6660   33.1740 F   0  0  0  0  0  0  0  0  0  0  0  0
   30.4940   30.0230   33.2070 C   0  0  0  0  0  0  0  0  0  0  0  0
   31.2080   30.6960   34.1790 C   0  0  0  0  0  0  0  0  0  0  0  0
   31.0970   32.0920   34.2400 C   0  0  0  0  0  0  0  0  0  0  0  0
   31.6440   32.6290   34.9900 H   0  0  0  0  0  0  0  0  0  0  0  0
   30.2830   32.7370   33.3320 C   0  0  0  0  0  0  0  0  0  0  0  0
   30.2260   33.8310   33.4180 H   0  0  0  0  0  0  0  0  0  0  0  0
   29.5760   32.0270   32.3630 C   0  0  0  0  0  3  0  0  0  0  0  0
   29.6780   30.6390   32.2900 C   0  0  0  0  0  3  0  0  0  0  0  0
   36.3470   29.0990   35.1860 C   0  0  0  0  0  0  0  0  0  0  0  0
   36.6990   30.2720   35.5830 O   0  0  0  0  0  0  0  0  0  0  0  0
   35.2010   28.2350   35.1410 N   0  0  0  0  0  0  0  0  0  0  0  0
   37.3680   28.9400   34.8330 H   0  0  0  0  0  0  0  0  0  0  0  0
   35.4250   27.3620   34.6160 H   0  0  0  0  0  0  0  0  0  0  0  0
   34.4770   27.9960   38.0030 C   0  0  0  0  0  0  0  0  0  0  0  0
   33.8650   27.2460   38.5470 H   0  0  0  0  0  0  0  0  0  0  0  0
   35.2490   27.3720   37.4670 H   0  0  0  0  0  0  0  0  0  0  0  0
   35.1870   28.9700   38.9240 C   0  0  0  0  0  0  0  0  0  0  0  0
   34.4410   29.6670   39.3630 H   0  0  0  0  0  0  0  0  0  0  0  0
   35.8860   29.5960   38.3220 H   0  0  0  0  0  0  0  0  0  0  0  0
   37.0320   26.3080   40.6470 C   0  0  0  0  0  0  0  0  0  0  0  0
   37.1500   26.8250   41.9630 C   0  0  0  0  0  0  0  0  0  0  0  0
   36.5820   28.0870   42.1990 C   0  0  0  0  0  0  0  0  0  0  0  0
   35.9680   28.7400   41.2060 N   0  0  0  0  0  0  0  0  0  0  0  0
   35.8840   28.1970   39.9690 C   0  0  0  0  0  0  0  0  0  0  0  0
   36.3930   27.0260   39.6830 N   0  0  0  0  0  0  0  0  0  0  0  0
   37.4510   25.3370   40.4020 H   0  0  0  0  0  0  0  0  0  0  0  0
   37.6600   26.2450   42.7170 H   0  0  0  0  0  0  0  0  0  0  0  0
   36.6630   28.5030   43.2070 H   0  0  0  0  0  0  0  0  0  0  0  0
  1  2  1  0  0  0  0
  1 24  1  0  0  0  0
  2  7  1  0  0  0  0
  3  8  1  0  0  0  0
  3  2  2  0  0  0  0
  4  3  1  0  0  0  0
  5  4  2  0  0  0  0
  5  6  1  0  0  0  0
  6  1  2  0  0  0  0
  9  5  1  0  0  0  0
 10 11  1  0  0  0  0
 11 12  1  0  0  0  0
 12 13  2  0  0  0  0
 12  4  1  0  0  0  0
 13 14  1  0  0  0  0
 15 16  1  0  0  0  0
 15 13  1  0  0  0  0
 17 15  2  0  0  0  0
 18 17  1  0  0  0  0
 18 11  2  0  0  0  0
 19 20  2  0  0  0  0
 21 19  1  0  0  0  0
 21  6  1  0  0  0  0
 22 19  1  0  0  0  0
 23 21  1  0  0  0  0
 24 25  1  0  0  0  0
 24 27  1  0  0  0  0
 26 24  1  0  0  0  0
 27 28  1  0  0  0  0
 27 34  1  0  0  0  0
 29 27  1  0  0  0  0
 30 31  1  0  0  0  0
 31 32  2  0  0  0  0
 31 37  1  0  0  0  0
 32 38  1  0  0  0  0
 33 32  1  0  0  0  0
 34 33  2  0  0  0  0
 35 34  1  0  0  0  0
 35 30  2  0  0  0  0
 36 30  1  0  0  0  0
M  END
>  <minimizedAffinity>
-5.38911533

$$$$
