
 OpenBabel03242519183D

 42 45  0  0  1  0  0  0  0  0999 V2000
   37.2180   28.8670   42.4180 C   0  0  0  0  0  0  0  0  0  0  0  0
   36.2040   28.2330   41.7480 C   0  0  0  0  0  0  0  0  0  0  0  0
   35.5280   28.7910   40.6670 C   0  0  0  0  0  0  0  0  0  0  0  0
   35.9430   30.0340   40.3050 N   0  0  0  0  0  0  0  0  0  0  0  0
   36.9330   30.6610   40.9530 C   0  0  0  0  0  0  0  0  0  0  0  0
   37.5530   30.0820   41.9880 N   0  0  0  0  0  0  0  0  0  0  0  0
   35.9170   27.2460   42.0830 H   0  0  0  0  0  0  0  0  0  0  0  0
   34.7390   28.2730   40.1620 H   0  0  0  0  0  0  0  0  0  0  0  0
   37.4190   32.0170   40.5430 C   0  0  2  0  0  0  0  0  0  0  0  0
   37.0980   32.5020   39.1630 C   0  0  0  0  0  0  0  0  0  0  0  0
   38.5130   32.0470   39.5330 C   0  0  1  0  0  0  0  0  0  0  0  0
   37.4790   32.6900   41.4220 H   0  0  0  0  0  0  0  0  0  0  0  0
   36.8810   33.5500   38.9720 H   0  0  0  0  0  0  0  0  0  0  0  0
   36.5760   31.7620   38.4870 H   0  0  0  0  0  0  0  0  0  0  0  0
   38.8650   31.0610   39.1560 H   0  0  0  0  0  0  0  0  0  0  0  0
   38.7610   34.4870   41.1060 F   0  0  0  0  0  0  0  0  0  0  0  0
   39.7060   34.2530   40.1810 C   0  0  0  0  0  0  0  0  0  0  0  0
   39.5270   33.0920   39.4700 C   0  0  0  0  0  0  0  0  0  0  0  0
   40.4820   32.8080   38.4870 C   0  0  0  0  0  0  0  0  0  0  0  0
   40.5040   31.9390   37.8270 H   0  0  0  0  0  0  0  0  0  0  0  0
   41.5620   33.6570   38.2400 C   0  0  0  0  0  0  0  0  0  0  0  0
   42.3130   33.4810   37.5040 H   0  0  0  0  0  0  0  0  0  0  0  0
   41.7150   34.8230   38.9780 C   0  0  0  0  0  3  0  0  0  0  0  0
   40.7660   35.0940   39.9440 C   0  0  0  0  0  3  0  0  0  0  0  0
   37.9180   28.2600   43.5340 C   0  0  0  0  0  0  0  0  0  0  0  0
   37.2000   28.0850   44.3620 H   0  0  0  0  0  0  0  0  0  0  0  0
   38.6960   28.9420   43.9340 H   0  0  0  0  0  0  0  0  0  0  0  0
   38.5430   26.9730   43.1000 C   0  0  0  0  0  0  0  0  0  0  0  0
   38.1610   26.1220   43.6980 H   0  0  0  0  0  0  0  0  0  0  0  0
   38.2790   26.7380   42.0360 H   0  0  0  0  0  0  0  0  0  0  0  0
   39.8870   24.3110   43.2360 Cl  0  0  0  0  0  0  0  0  0  0  0  0
   40.7680   25.8220   43.2860 C   0  0  0  0  0  0  0  0  0  0  0  0
   40.0260   26.9820   43.2110 C   0  0  0  0  0  0  0  0  0  0  0  0
   40.7190   28.1850   43.2470 C   0  0  0  0  0  0  0  0  0  0  0  0
   42.0960   28.2180   43.3520 C   0  0  0  0  0  0  0  0  0  0  0  0
   42.8270   27.0170   43.4250 C   0  0  0  0  0  0  0  0  0  0  0  0
   42.1420   25.8360   43.3900 C   0  0  0  0  0  0  0  0  0  0  0  0
   40.1890   29.1260   43.1920 H   0  0  0  0  0  0  0  0  0  0  0  0
   42.5980   29.1540   43.3760 H   0  0  0  0  0  0  0  0  0  0  0  0
   43.9070   27.0410   43.5080 H   0  0  0  0  0  0  0  0  0  0  0  0
   42.7790   24.6030   43.4580 O   0  0  0  0  0  0  0  0  0  0  0  0
   43.4490   24.3960   44.1730 H   0  0  0  0  0  0  0  0  0  0  0  0
  1 25  1  0  0  0  0
  2  7  1  0  0  0  0
  2  1  2  0  0  0  0
  3  2  1  0  0  0  0
  4  3  2  0  0  0  0
  4  5  1  0  0  0  0
  5  6  2  0  0  0  0
  6  1  1  0  0  0  0
  8  3  1  0  0  0  0
  9  5  1  0  0  0  0
  9 12  1  1  0  0  0
 10 11  1  0  0  0  0
 10  9  1  0  0  0  0
 11 15  1  6  0  0  0
 11  9  1  0  0  0  0
 13 10  1  0  0  0  0
 14 10  1  0  0  0  0
 17 16  1  0  0  0  0
 18 11  1  0  0  0  0
 18 17  2  0  0  0  0
 19 18  1  0  0  0  0
 20 19  1  0  0  0  0
 21 19  2  0  0  0  0
 21 23  1  0  0  0  0
 22 21  1  0  0  0  0
 23 24  2  0  0  0  0
 24 17  1  0  0  0  0
 25 27  1  0  0  0  0
 25 26  1  0  0  0  0
 28 33  1  0  0  0  0
 28 25  1  0  0  0  0
 28 29  1  0  0  0  0
 30 28  1  0  0  0  0
 31 32  1  0  0  0  0
 32 37  1  0  0  0  0
 33 34  1  0  0  0  0
 33 32  2  0  0  0  0
 34 35  2  0  0  0  0
 35 39  1  0  0  0  0
 35 36  1  0  0  0  0
 36 40  1  0  0  0  0
 37 36  2  0  0  0  0
 37 41  1  0  0  0  0
 38 34  1  0  0  0  0
 41 42  1  0  0  0  0
M  END
>  <minimizedAffinity>
-7.16247654

$$$$

 OpenBabel03242519183D

 42 45  0  0  1  0  0  0  0  0999 V2000
   37.0840   29.4030   41.8510 C   0  0  0  0  0  0  0  0  0  0  0  0
   35.9800   28.7620   41.3480 C   0  0  0  0  0  0  0  0  0  0  0  0
   35.3800   29.0960   40.1390 C   0  0  0  0  0  0  0  0  0  0  0  0
   35.9650   30.1230   39.4670 N   0  0  0  0  0  0  0  0  0  0  0  0
   37.0430   30.7550   39.9500 C   0  0  0  0  0  0  0  0  0  0  0  0
   37.5850   30.3960   41.1190 N   0  0  0  0  0  0  0  0  0  0  0  0
   35.5580   27.9530   41.9290 H   0  0  0  0  0  0  0  0  0  0  0  0
   34.5180   28.5780   39.7700 H   0  0  0  0  0  0  0  0  0  0  0  0
   37.7130   31.8670   39.2040 C   0  0  2  0  0  0  0  0  0  0  0  0
   37.9860   31.6820   37.7430 C   0  0  0  0  0  0  0  0  0  0  0  0
   39.1170   31.6180   38.7740 C   0  0  1  0  0  0  0  0  0  0  0  0
   37.4540   32.8480   39.6520 H   0  0  0  0  0  0  0  0  0  0  0  0
   37.9120   32.5150   37.0480 H   0  0  0  0  0  0  0  0  0  0  0  0
   37.7380   30.6650   37.3180 H   0  0  0  0  0  0  0  0  0  0  0  0
   39.5420   30.6210   39.0280 H   0  0  0  0  0  0  0  0  0  0  0  0
   41.2880   31.8790   36.8480 F   0  0  0  0  0  0  0  0  0  0  0  0
   41.1580   32.8520   37.7640 C   0  0  0  0  0  0  0  0  0  0  0  0
   40.1220   32.6650   38.6450 C   0  0  0  0  0  0  0  0  0  0  0  0
   39.9510   33.6500   39.6260 C   0  0  0  0  0  0  0  0  0  0  0  0
   39.1890   33.6710   40.4060 H   0  0  0  0  0  0  0  0  0  0  0  0
   40.7880   34.7650   39.7060 C   0  0  0  0  0  0  0  0  0  0  0  0
   40.6940   35.5390   40.4330 H   0  0  0  0  0  0  0  0  0  0  0  0
   41.8260   34.9240   38.7970 C   0  0  0  0  0  3  0  0  0  0  0  0
   41.9850   33.9460   37.8350 C   0  0  0  0  0  3  0  0  0  0  0  0
   37.7010   29.0270   43.1080 C   0  0  0  0  0  0  0  0  0  0  0  0
   37.4000   29.7510   43.8930 H   0  0  0  0  0  0  0  0  0  0  0  0
   38.8070   29.0830   43.0400 H   0  0  0  0  0  0  0  0  0  0  0  0
   37.2840   27.6420   43.4830 C   0  0  0  0  0  0  0  0  0  0  0  0
   36.9630   27.5950   44.5430 H   0  0  0  0  0  0  0  0  0  0  0  0
   36.3950   27.3140   42.8830 H   0  0  0  0  0  0  0  0  0  0  0  0
   36.5730   25.2110   41.9030 Cl  0  0  0  0  0  0  0  0  0  0  0  0
   38.1660   25.4700   42.5790 C   0  0  0  0  0  0  0  0  0  0  0  0
   38.3630   26.6380   43.2870 C   0  0  0  0  0  0  0  0  0  0  0  0
   39.6260   26.8510   43.8240 C   0  0  0  0  0  0  0  0  0  0  0  0
   40.6430   25.9320   43.6560 C   0  0  0  0  0  0  0  0  0  0  0  0
   40.4120   24.7490   42.9290 C   0  0  0  0  0  0  0  0  0  0  0  0
   39.1690   24.5420   42.4020 C   0  0  0  0  0  0  0  0  0  0  0  0
   39.8380   27.7490   44.3880 H   0  0  0  0  0  0  0  0  0  0  0  0
   41.5990   26.1240   44.0790 H   0  0  0  0  0  0  0  0  0  0  0  0
   41.2090   24.0270   42.7960 H   0  0  0  0  0  0  0  0  0  0  0  0
   38.8500   23.4040   41.6700 O   0  0  0  0  0  0  0  0  0  0  0  0
   39.0500   22.4850   42.0140 H   0  0  0  0  0  0  0  0  0  0  0  0
  1 25  1  0  0  0  0
  2  1  1  0  0  0  0
  2  7  1  0  0  0  0
  3  2  2  0  0  0  0
  4  5  2  0  0  0  0
  4  3  1  0  0  0  0
  5  6  1  0  0  0  0
  6  1  2  0  0  0  0
  8  3  1  0  0  0  0
  9 12  1  1  0  0  0
  9  5  1  0  0  0  0
 10 11  1  0  0  0  0
 10  9  1  0  0  0  0
 11 15  1  1  0  0  0
 11  9  1  0  0  0  0
 13 10  1  0  0  0  0
 14 10  1  0  0  0  0
 16 17  1  0  0  0  0
 17 24  2  0  0  0  0
 17 18  1  0  0  0  0
 18 11  1  0  0  0  0
 18 19  2  0  0  0  0
 19 21  1  0  0  0  0
 19 20  1  0  0  0  0
 21 22  1  0  0  0  0
 23 21  2  0  0  0  0
 24 23  1  0  0  0  0
 25 28  1  0  0  0  0
 25 26  1  0  0  0  0
 27 25  1  0  0  0  0
 28 29  1  0  0  0  0
 30 28  1  0  0  0  0
 31 32  1  0  0  0  0
 32 33  1  0  0  0  0
 33 28  1  0  0  0  0
 33 34  2  0  0  0  0
 34 38  1  0  0  0  0
 35 34  1  0  0  0  0
 35 39  1  0  0  0  0
 36 35  2  0  0  0  0
 37 32  2  0  0  0  0
 37 36  1  0  0  0  0
 40 36  1  0  0  0  0
 41 42  1  0  0  0  0
 41 37  1  0  0  0  0
M  END
>  <minimizedAffinity>
-6.73518419

$$$$

 OpenBabel03242519183D

 42 45  0  0  1  0  0  0  0  0999 V2000
   38.2270   32.0940   40.1420 C   0  0  0  0  0  0  0  0  0  0  0  0
   37.5110   32.1750   38.9750 C   0  0  0  0  0  0  0  0  0  0  0  0
   36.6820   31.1600   38.5070 C   0  0  0  0  0  0  0  0  0  0  0  0
   36.6210   30.0540   39.2960 N   0  0  0  0  0  0  0  0  0  0  0  0
   37.3160   29.9660   40.4380 C   0  0  0  0  0  0  0  0  0  0  0  0
   38.1010   30.9710   40.8450 N   0  0  0  0  0  0  0  0  0  0  0  0
   37.6010   33.0800   38.3890 H   0  0  0  0  0  0  0  0  0  0  0  0
   36.1350   31.2500   37.5910 H   0  0  0  0  0  0  0  0  0  0  0  0
   37.2330   28.7660   41.3290 C   0  0  2  0  0  0  0  0  0  0  0  0
   37.3210   28.9710   42.8100 C   0  0  0  0  0  0  0  0  0  0  0  0
   38.4910   28.3730   42.0220 C   0  0  1  0  0  0  0  0  0  0  0  0
   36.6070   27.9780   40.8640 H   0  0  0  0  0  0  0  0  0  0  0  0
   36.7420   28.3590   43.4970 H   0  0  0  0  0  0  0  0  0  0  0  0
   37.5330   30.0270   43.1520 H   0  0  0  0  0  0  0  0  0  0  0  0
   39.3800   29.0140   41.8330 H   0  0  0  0  0  0  0  0  0  0  0  0
   37.0610   25.9050   41.4260 F   0  0  0  0  0  0  0  0  0  0  0  0
   38.2060   25.8010   42.1200 C   0  0  0  0  0  0  0  0  0  0  0  0
   38.8260   26.9990   42.3740 C   0  0  0  0  0  0  0  0  0  0  0  0
   40.0200   26.9420   43.1030 C   0  0  0  0  0  0  0  0  0  0  0  0
   40.6470   27.7850   43.3980 H   0  0  0  0  0  0  0  0  0  0  0  0
   40.5560   25.7330   43.5480 C   0  0  0  0  0  0  0  0  0  0  0  0
   41.4610   25.6420   44.1040 H   0  0  0  0  0  0  0  0  0  0  0  0
   39.9040   24.5380   43.2730 C   0  0  0  0  0  3  0  0  0  0  0  0
   38.7270   24.6060   42.5540 C   0  0  0  0  0  3  0  0  0  0  0  0
   39.0740   33.1710   40.6160 C   0  0  0  0  0  0  0  0  0  0  0  0
   38.6970   33.5260   41.5970 H   0  0  0  0  0  0  0  0  0  0  0  0
   39.0310   34.0420   39.9300 H   0  0  0  0  0  0  0  0  0  0  0  0
   40.4840   32.6890   40.7380 C   0  0  0  0  0  0  0  0  0  0  0  0
   41.1090   33.4190   41.2910 H   0  0  0  0  0  0  0  0  0  0  0  0
   40.5340   31.7380   41.3290 H   0  0  0  0  0  0  0  0  0  0  0  0
   41.3790   35.0980   39.2170 Cl  0  0  0  0  0  0  0  0  0  0  0  0
   41.5840   33.4670   38.6170 C   0  0  0  0  0  0  0  0  0  0  0  0
   41.1290   32.4420   39.4200 C   0  0  0  0  0  0  0  0  0  0  0  0
   41.2910   31.1460   38.9510 C   0  0  0  0  0  0  0  0  0  0  0  0
   41.8850   30.8920   37.7300 C   0  0  0  0  0  0  0  0  0  0  0  0
   42.3400   31.9580   36.9320 C   0  0  0  0  0  0  0  0  0  0  0  0
   42.1790   33.2330   37.3960 C   0  0  0  0  0  0  0  0  0  0  0  0
   40.9530   30.3020   39.5390 H   0  0  0  0  0  0  0  0  0  0  0  0
   41.9960   29.8880   37.3990 H   0  0  0  0  0  0  0  0  0  0  0  0
   42.8060   31.7620   35.9740 H   0  0  0  0  0  0  0  0  0  0  0  0
   42.5970   34.3460   36.6770 O   0  0  0  0  0  0  0  0  0  0  0  0
   42.3450   34.4760   35.7160 H   0  0  0  0  0  0  0  0  0  0  0  0
  1 25  1  0  0  0  0
  1  6  1  0  0  0  0
  2  1  2  0  0  0  0
  3  2  1  0  0  0  0
  3  4  2  0  0  0  0
  4  5  1  0  0  0  0
  5  6  2  0  0  0  0
  5  9  1  0  0  0  0
  7  2  1  0  0  0  0
  8  3  1  0  0  0  0
  9 12  1  6  0  0  0
  9 11  1  0  0  0  0
  9 10  1  0  0  0  0
 10 14  1  0  0  0  0
 10 13  1  0  0  0  0
 11 15  1  6  0  0  0
 11 18  1  0  0  0  0
 11 10  1  0  0  0  0
 16 17  1  0  0  0  0
 17 18  2  0  0  0  0
 17 24  1  0  0  0  0
 18 19  1  0  0  0  0
 19 20  1  0  0  0  0
 19 21  2  0  0  0  0
 21 22  1  0  0  0  0
 23 21  1  0  0  0  0
 24 23  2  0  0  0  0
 25 28  1  0  0  0  0
 25 26  1  0  0  0  0
 27 25  1  0  0  0  0
 28 29  1  0  0  0  0
 28 30  1  0  0  0  0
 32 31  1  0  0  0  0
 32 33  1  0  0  0  0
 33 28  1  0  0  0  0
 34 33  2  0  0  0  0
 34 38  1  0  0  0  0
 35 34  1  0  0  0  0
 36 37  1  0  0  0  0
 36 35  2  0  0  0  0
 37 32  2  0  0  0  0
 39 35  1  0  0  0  0
 40 36  1  0  0  0  0
 41 37  1  0  0  0  0
 42 41  1  0  0  0  0
M  END
>  <minimizedAffinity>
-6.43472672

$$$$

 OpenBabel03242519183D

 42 45  0  0  1  0  0  0  0  0999 V2000
   36.4180   26.7040   37.5930 C   0  0  0  0  0  0  0  0  0  0  0  0
   35.3340   25.9530   37.2170 C   0  0  0  0  0  0  0  0  0  0  0  0
   34.9200   24.8070   37.8890 C   0  0  0  0  0  0  0  0  0  0  0  0
   35.6730   24.4660   38.9680 N   0  0  0  0  0  0  0  0  0  0  0  0
   36.7330   25.1940   39.3440 C   0  0  0  0  0  0  0  0  0  0  0  0
   37.0910   26.2890   38.6640 N   0  0  0  0  0  0  0  0  0  0  0  0
   34.7750   26.2740   36.3480 H   0  0  0  0  0  0  0  0  0  0  0  0
   34.0700   24.2390   37.5720 H   0  0  0  0  0  0  0  0  0  0  0  0
   37.5510   24.8450   40.5490 C   0  0  2  0  0  0  0  0  0  0  0  0
   36.8630   24.7590   41.8760 C   0  0  0  0  0  0  0  0  0  0  0  0
   37.7740   25.9400   41.5320 C   0  0  1  0  0  0  0  0  0  0  0  0
   38.4030   24.1940   40.2660 H   0  0  0  0  0  0  0  0  0  0  0  0
   37.1620   24.0210   42.6180 H   0  0  0  0  0  0  0  0  0  0  0  0
   35.7710   25.0520   41.8880 H   0  0  0  0  0  0  0  0  0  0  0  0
   37.3010   26.9200   41.2970 H   0  0  0  0  0  0  0  0  0  0  0  0
   38.2050   27.4870   43.9630 F   0  0  0  0  0  0  0  0  0  0  0  0
   39.2340   26.7510   43.5120 C   0  0  0  0  0  0  0  0  0  0  0  0
   38.9680   26.0530   42.3600 C   0  0  0  0  0  0  0  0  0  0  0  0
   40.0140   25.2780   41.8450 C   0  0  0  0  0  0  0  0  0  0  0  0
   39.9890   24.6600   40.9450 H   0  0  0  0  0  0  0  0  0  0  0  0
   41.2620   25.2130   42.4670 C   0  0  0  0  0  0  0  0  0  0  0  0
   42.0840   24.6360   42.1120 H   0  0  0  0  0  0  0  0  0  0  0  0
   41.4970   25.9310   43.6330 C   0  0  0  0  0  3  0  0  0  0  0  0
   40.4590   26.6930   44.1310 C   0  0  0  0  0  3  0  0  0  0  0  0
   36.8220   27.9040   36.8850 C   0  0  0  0  0  0  0  0  0  0  0  0
   36.8810   27.6830   35.7990 H   0  0  0  0  0  0  0  0  0  0  0  0
   37.8380   28.2240   37.1940 H   0  0  0  0  0  0  0  0  0  0  0  0
   35.8410   29.0010   37.1470 C   0  0  0  0  0  0  0  0  0  0  0  0
   35.5970   29.5480   36.2150 H   0  0  0  0  0  0  0  0  0  0  0  0
   34.8670   28.5880   37.5200 H   0  0  0  0  0  0  0  0  0  0  0  0
   34.5370   28.9430   39.8320 Cl  0  0  0  0  0  0  0  0  0  0  0  0
   35.8100   30.0710   39.4200 C   0  0  0  0  0  0  0  0  0  0  0  0
   36.3290   29.9900   38.1440 C   0  0  0  0  0  0  0  0  0  0  0  0
   37.3420   30.8800   37.8120 C   0  0  0  0  0  0  0  0  0  0  0  0
   37.8100   31.8080   38.7210 C   0  0  0  0  0  0  0  0  0  0  0  0
   37.2610   31.8670   40.0150 C   0  0  0  0  0  0  0  0  0  0  0  0
   36.2650   30.9900   40.3400 C   0  0  0  0  0  0  0  0  0  0  0  0
   37.7870   30.8620   36.8260 H   0  0  0  0  0  0  0  0  0  0  0  0
   38.5870   32.4760   38.4360 H   0  0  0  0  0  0  0  0  0  0  0  0
   37.6270   32.5950   40.7300 H   0  0  0  0  0  0  0  0  0  0  0  0
   35.6640   30.9760   41.5920 O   0  0  0  0  0  0  0  0  0  0  0  0
   35.3060   31.8110   42.0130 H   0  0  0  0  0  0  0  0  0  0  0  0
  1  6  1  0  0  0  0
  2  1  2  0  0  0  0
  2  3  1  0  0  0  0
  3  4  2  0  0  0  0
  4  5  1  0  0  0  0
  5  9  1  0  0  0  0
  6  5  2  0  0  0  0
  7  2  1  0  0  0  0
  8  3  1  0  0  0  0
  9 12  1  6  0  0  0
  9 11  1  0  0  0  0
  9 10  1  0  0  0  0
 10 14  1  0  0  0  0
 10 13  1  0  0  0  0
 11 15  1  6  0  0  0
 11 10  1  0  0  0  0
 11 18  1  0  0  0  0
 17 16  1  0  0  0  0
 17 24  1  0  0  0  0
 18 17  2  0  0  0  0
 19 18  1  0  0  0  0
 19 21  2  0  0  0  0
 20 19  1  0  0  0  0
 21 23  1  0  0  0  0
 22 21  1  0  0  0  0
 23 24  2  0  0  0  0
 25 28  1  0  0  0  0
 25 27  1  0  0  0  0
 25  1  1  0  0  0  0
 26 25  1  0  0  0  0
 28 30  1  0  0  0  0
 28 33  1  0  0  0  0
 29 28  1  0  0  0  0
 32 31  1  0  0  0  0
 32 37  1  0  0  0  0
 33 32  2  0  0  0  0
 34 33  1  0  0  0  0
 34 35  2  0  0  0  0
 35 36  1  0  0  0  0
 36 37  2  0  0  0  0
 36 40  1  0  0  0  0
 37 41  1  0  0  0  0
 38 34  1  0  0  0  0
 39 35  1  0  0  0  0
 41 42  1  0  0  0  0
M  END
>  <minimizedAffinity>
-6.40250587

$$$$

 OpenBabel03242519183D

 42 45  0  0  1  0  0  0  0  0999 V2000
   36.6630   27.9730   41.2060 C   0  0  0  0  0  0  0  0  0  0  0  0
   36.5740   27.0470   40.1990 C   0  0  0  0  0  0  0  0  0  0  0  0
   36.6780   27.3650   38.8480 C   0  0  0  0  0  0  0  0  0  0  0  0
   36.8770   28.6830   38.5780 N   0  0  0  0  0  0  0  0  0  0  0  0
   36.9650   29.5950   39.5550 C   0  0  0  0  0  0  0  0  0  0  0  0
   36.8590   29.2380   40.8410 N   0  0  0  0  0  0  0  0  0  0  0  0
   36.4140   26.0140   40.4750 H   0  0  0  0  0  0  0  0  0  0  0  0
   36.6040   26.6210   38.0820 H   0  0  0  0  0  0  0  0  0  0  0  0
   37.2140   31.0440   39.2710 C   0  0  2  0  0  0  0  0  0  0  0  0
   37.6420   31.4360   37.8900 C   0  0  0  0  0  0  0  0  0  0  0  0
   38.6350   31.4380   39.0560 C   0  0  1  0  0  0  0  0  0  0  0  0
   36.5700   31.6820   39.9090 H   0  0  0  0  0  0  0  0  0  0  0  0
   37.3070   32.3680   37.4410 H   0  0  0  0  0  0  0  0  0  0  0  0
   37.8310   30.5850   37.1700 H   0  0  0  0  0  0  0  0  0  0  0  0
   39.3870   30.6190   39.1080 H   0  0  0  0  0  0  0  0  0  0  0  0
   37.2910   33.7450   40.2220 F   0  0  0  0  0  0  0  0  0  0  0  0
   38.6010   33.8660   39.9540 C   0  0  0  0  0  0  0  0  0  0  0  0
   39.1720   32.7480   39.4000 C   0  0  0  0  0  0  0  0  0  0  0  0
   40.5350   32.8290   39.0930 C   0  0  0  0  0  0  0  0  0  0  0  0
   41.1550   32.0470   38.6510 H   0  0  0  0  0  0  0  0  0  0  0  0
   41.2800   33.9850   39.3390 C   0  0  0  0  0  0  0  0  0  0  0  0
   42.3180   34.0910   39.1240 H   0  0  0  0  0  0  0  0  0  0  0  0
   40.6710   35.0990   39.9030 C   0  0  0  0  0  3  0  0  0  0  0  0
   39.3250   35.0070   40.1990 C   0  0  0  0  0  3  0  0  0  0  0  0
   36.5660   27.6160   42.6080 C   0  0  0  0  0  0  0  0  0  0  0  0
   36.7970   26.5370   42.7260 H   0  0  0  0  0  0  0  0  0  0  0  0
   35.5320   27.7560   42.9840 H   0  0  0  0  0  0  0  0  0  0  0  0
   37.5160   28.4470   43.4090 C   0  0  0  0  0  0  0  0  0  0  0  0
   37.5030   29.5030   43.0740 H   0  0  0  0  0  0  0  0  0  0  0  0
   37.2170   28.4680   44.4900 H   0  0  0  0  0  0  0  0  0  0  0  0
   39.5600   30.4100   42.4720 Cl  0  0  0  0  0  0  0  0  0  0  0  0
   39.9580   28.7640   42.9140 C   0  0  0  0  0  0  0  0  0  0  0  0
   38.9190   27.9600   43.3330 C   0  0  0  0  0  0  0  0  0  0  0  0
   39.2280   26.6530   43.6880 C   0  0  0  0  0  0  0  0  0  0  0  0
   40.5240   26.1780   43.6240 C   0  0  0  0  0  0  0  0  0  0  0  0
   41.5640   27.0230   43.1920 C   0  0  0  0  0  0  0  0  0  0  0  0
   41.2570   28.3070   42.8430 C   0  0  0  0  0  0  0  0  0  0  0  0
   38.4530   25.9770   44.0250 H   0  0  0  0  0  0  0  0  0  0  0  0
   40.7290   25.1740   43.9020 H   0  0  0  0  0  0  0  0  0  0  0  0
   42.5810   26.6520   43.1400 H   0  0  0  0  0  0  0  0  0  0  0  0
   42.2170   29.2110   42.4050 O   0  0  0  0  0  0  0  0  0  0  0  0
   42.8610   28.9790   41.6740 H   0  0  0  0  0  0  0  0  0  0  0  0
  1 25  1  0  0  0  0
  2  7  1  0  0  0  0
  2  1  2  0  0  0  0
  3  2  1  0  0  0  0
  4  3  2  0  0  0  0
  4  5  1  0  0  0  0
  5  6  2  0  0  0  0
  6  1  1  0  0  0  0
  8  3  1  0  0  0  0
  9  5  1  0  0  0  0
  9 12  1  1  0  0  0
 10 11  1  0  0  0  0
 10  9  1  0  0  0  0
 11 15  1  1  0  0  0
 11  9  1  0  0  0  0
 11 18  1  0  0  0  0
 13 10  1  0  0  0  0
 14 10  1  0  0  0  0
 17 24  1  0  0  0  0
 17 16  1  0  0  0  0
 18 17  2  0  0  0  0
 19 21  2  0  0  0  0
 19 18  1  0  0  0  0
 20 19  1  0  0  0  0
 21 23  1  0  0  0  0
 22 21  1  0  0  0  0
 23 24  2  0  0  0  0
 25 26  1  0  0  0  0
 25 27  1  0  0  0  0
 25 28  1  0  0  0  0
 28 30  1  0  0  0  0
 29 28  1  0  0  0  0
 31 32  1  0  0  0  0
 32 33  1  0  0  0  0
 33 28  1  0  0  0  0
 33 34  2  0  0  0  0
 34 38  1  0  0  0  0
 35 34  1  0  0  0  0
 35 39  1  0  0  0  0
 36 35  2  0  0  0  0
 37 32  2  0  0  0  0
 37 36  1  0  0  0  0
 40 36  1  0  0  0  0
 41 37  1  0  0  0  0
 42 41  1  0  0  0  0
M  END
>  <minimizedAffinity>
-6.3523941

$$$$

 OpenBabel03242519183D

 42 45  0  0  1  0  0  0  0  0999 V2000
   40.3520   32.1430   38.7060 C   0  0  0  0  0  0  0  0  0  0  0  0
   40.9940   33.3550   38.6850 C   0  0  0  0  0  0  0  0  0  0  0  0
   41.6230   33.9120   39.7940 C   0  0  0  0  0  0  0  0  0  0  0  0
   41.5630   33.1660   40.9290 N   0  0  0  0  0  0  0  0  0  0  0  0
   40.9400   31.9810   40.9580 C   0  0  0  0  0  0  0  0  0  0  0  0
   40.3490   31.4870   39.8640 N   0  0  0  0  0  0  0  0  0  0  0  0
   41.0070   33.9030   37.7530 H   0  0  0  0  0  0  0  0  0  0  0  0
   42.1160   34.8620   39.7500 H   0  0  0  0  0  0  0  0  0  0  0  0
   40.8940   31.1370   42.1940 C   0  0  2  0  0  0  0  0  0  0  0  0
   42.1350   31.0210   43.0250 C   0  0  0  0  0  0  0  0  0  0  0  0
   41.6580   29.8590   42.1480 C   0  0  1  0  0  0  0  0  0  0  0  0
   39.8730   31.1370   42.6280 H   0  0  0  0  0  0  0  0  0  0  0  0
   42.0820   30.9590   44.1090 H   0  0  0  0  0  0  0  0  0  0  0  0
   43.0590   31.5200   42.6060 H   0  0  0  0  0  0  0  0  0  0  0  0
   42.2120   29.6490   41.2050 H   0  0  0  0  0  0  0  0  0  0  0  0
   43.3130   28.0000   43.6620 F   0  0  0  0  0  0  0  0  0  0  0  0
   41.9940   27.7510   43.6140 C   0  0  0  0  0  0  0  0  0  0  0  0
   41.2730   28.6590   42.8790 C   0  0  0  0  0  0  0  0  0  0  0  0
   39.8940   28.4360   42.7910 C   0  0  0  0  0  0  0  0  0  0  0  0
   39.1650   29.0460   42.2540 H   0  0  0  0  0  0  0  0  0  0  0  0
   39.2790   27.3500   43.4180 C   0  0  0  0  0  0  0  0  0  0  0  0
   38.2350   27.1430   43.3790 H   0  0  0  0  0  0  0  0  0  0  0  0
   40.0390   26.4510   44.1550 C   0  0  0  0  0  3  0  0  0  0  0  0
   41.3980   26.6800   44.2340 C   0  0  0  0  0  3  0  0  0  0  0  0
   39.7160   31.5750   37.5330 C   0  0  0  0  0  0  0  0  0  0  0  0
   39.8040   30.4690   37.5700 H   0  0  0  0  0  0  0  0  0  0  0  0
   40.2300   31.8990   36.6050 H   0  0  0  0  0  0  0  0  0  0  0  0
   38.2790   31.9860   37.4880 C   0  0  0  0  0  0  0  0  0  0  0  0
   38.1440   33.0100   37.8910 H   0  0  0  0  0  0  0  0  0  0  0  0
   37.9050   32.0240   36.4320 H   0  0  0  0  0  0  0  0  0  0  0  0
   37.2650   32.9980   40.1070 Cl  0  0  0  0  0  0  0  0  0  0  0  0
   36.8570   31.4170   39.4790 C   0  0  0  0  0  0  0  0  0  0  0  0
   37.3910   31.0720   38.2550 C   0  0  0  0  0  0  0  0  0  0  0  0
   37.0680   29.8200   37.7490 C   0  0  0  0  0  0  0  0  0  0  0  0
   36.2460   28.9540   38.4440 C   0  0  0  0  0  0  0  0  0  0  0  0
   35.7160   29.3330   39.6920 C   0  0  0  0  0  0  0  0  0  0  0  0
   36.0350   30.5660   40.1860 C   0  0  0  0  0  0  0  0  0  0  0  0
   37.4580   29.4960   36.7930 H   0  0  0  0  0  0  0  0  0  0  0  0
   36.0180   28.0020   38.0310 H   0  0  0  0  0  0  0  0  0  0  0  0
   35.0710   28.6550   40.2390 H   0  0  0  0  0  0  0  0  0  0  0  0
   35.5590   31.0240   41.4090 O   0  0  0  0  0  0  0  0  0  0  0  0
   35.6370   30.4740   42.2430 H   0  0  0  0  0  0  0  0  0  0  0  0
  1  6  1  0  0  0  0
  2  1  2  0  0  0  0
  2  3  1  0  0  0  0
  3  4  2  0  0  0  0
  4  5  1  0  0  0  0
  5  9  1  0  0  0  0
  6  5  2  0  0  0  0
  7  2  1  0  0  0  0
  8  3  1  0  0  0  0
  9 12  1  1  0  0  0
  9 10  1  0  0  0  0
 10 13  1  0  0  0  0
 11 15  1  6  0  0  0
 11  9  1  0  0  0  0
 11 18  1  0  0  0  0
 11 10  1  0  0  0  0
 14 10  1  0  0  0  0
 17 16  1  0  0  0  0
 17 24  1  0  0  0  0
 18 17  2  0  0  0  0
 19 18  1  0  0  0  0
 19 21  2  0  0  0  0
 20 19  1  0  0  0  0
 21 23  1  0  0  0  0
 22 21  1  0  0  0  0
 23 24  2  0  0  0  0
 25 26  1  0  0  0  0
 25  1  1  0  0  0  0
 27 25  1  0  0  0  0
 28 25  1  0  0  0  0
 28 29  1  0  0  0  0
 28 33  1  0  0  0  0
 30 28  1  0  0  0  0
 32 31  1  0  0  0  0
 32 37  1  0  0  0  0
 33 32  2  0  0  0  0
 34 33  1  0  0  0  0
 34 35  2  0  0  0  0
 35 36  1  0  0  0  0
 36 37  2  0  0  0  0
 36 40  1  0  0  0  0
 37 41  1  0  0  0  0
 38 34  1  0  0  0  0
 39 35  1  0  0  0  0
 41 42  1  0  0  0  0
M  END
>  <minimizedAffinity>
-6.35188055

$$$$

 OpenBabel03242519183D

 42 45  0  0  1  0  0  0  0  0999 V2000
   37.1800   32.1210   38.8090 C   0  0  0  0  0  0  0  0  0  0  0  0
   37.4720   31.9980   37.4750 C   0  0  0  0  0  0  0  0  0  0  0  0
   37.3280   30.8120   36.7600 C   0  0  0  0  0  0  0  0  0  0  0  0
   36.8700   29.7550   37.4820 N   0  0  0  0  0  0  0  0  0  0  0  0
   36.5820   29.8650   38.7850 C   0  0  0  0  0  0  0  0  0  0  0  0
   36.7370   31.0290   39.4280 N   0  0  0  0  0  0  0  0  0  0  0  0
   37.8340   32.8740   36.9540 H   0  0  0  0  0  0  0  0  0  0  0  0
   37.5650   30.7450   35.7180 H   0  0  0  0  0  0  0  0  0  0  0  0
   36.0480   28.7150   39.5820 C   0  0  2  0  0  0  0  0  0  0  0  0
   35.8320   28.9070   41.0520 C   0  0  0  0  0  0  0  0  0  0  0  0
   37.0020   28.0710   40.5270 C   0  0  1  0  0  0  0  0  0  0  0  0
   35.3980   28.0740   38.9530 H   0  0  0  0  0  0  0  0  0  0  0  0
   34.9950   28.4360   41.5620 H   0  0  0  0  0  0  0  0  0  0  0  0
   36.1720   29.8970   41.4770 H   0  0  0  0  0  0  0  0  0  0  0  0
   38.0250   28.5090   40.5720 H   0  0  0  0  0  0  0  0  0  0  0  0
   37.4140   26.8030   43.1170 F   0  0  0  0  0  0  0  0  0  0  0  0
   37.1300   26.0010   42.0780 C   0  0  0  0  0  0  0  0  0  0  0  0
   36.9550   26.6590   40.8870 C   0  0  0  0  0  0  0  0  0  0  0  0
   36.6660   25.8650   39.7710 C   0  0  0  0  0  0  0  0  0  0  0  0
   36.4970   26.2080   38.7480 H   0  0  0  0  0  0  0  0  0  0  0  0
   36.5580   24.4750   39.8620 C   0  0  0  0  0  0  0  0  0  0  0  0
   36.3390   23.8320   39.0410 H   0  0  0  0  0  0  0  0  0  0  0  0
   36.7390   23.8410   41.0840 C   0  0  0  0  0  3  0  0  0  0  0  0
   37.0260   24.6350   42.1770 C   0  0  0  0  0  3  0  0  0  0  0  0
   37.3250   33.3710   39.5290 C   0  0  0  0  0  0  0  0  0  0  0  0
   36.3350   33.6790   39.9270 H   0  0  0  0  0  0  0  0  0  0  0  0
   37.6550   34.1850   38.8510 H   0  0  0  0  0  0  0  0  0  0  0  0
   38.3100   33.2040   40.6410 C   0  0  0  0  0  0  0  0  0  0  0  0
   38.0620   33.8630   41.4960 H   0  0  0  0  0  0  0  0  0  0  0  0
   38.2840   32.1590   41.0460 H   0  0  0  0  0  0  0  0  0  0  0  0
   40.1750   30.8790   40.4870 Cl  0  0  0  0  0  0  0  0  0  0  0  0
   40.6690   32.5160   40.1190 C   0  0  0  0  0  0  0  0  0  0  0  0
   39.7070   33.4990   40.2260 C   0  0  0  0  0  0  0  0  0  0  0  0
   40.0920   34.8000   39.9320 C   0  0  0  0  0  0  0  0  0  0  0  0
   41.3840   35.0990   39.5470 C   0  0  0  0  0  0  0  0  0  0  0  0
   42.3440   34.0740   39.4460 C   0  0  0  0  0  0  0  0  0  0  0  0
   41.9630   32.7950   39.7360 C   0  0  0  0  0  0  0  0  0  0  0  0
   39.3800   35.6120   40.0000 H   0  0  0  0  0  0  0  0  0  0  0  0
   41.6480   36.1040   39.3280 H   0  0  0  0  0  0  0  0  0  0  0  0
   43.3590   34.3060   39.1440 H   0  0  0  0  0  0  0  0  0  0  0  0
   42.8420   31.7210   39.6640 O   0  0  0  0  0  0  0  0  0  0  0  0
   43.7370   31.7440   40.1130 H   0  0  0  0  0  0  0  0  0  0  0  0
  1  6  1  0  0  0  0
  1 25  1  0  0  0  0
  2  1  2  0  0  0  0
  3  2  1  0  0  0  0
  3  4  2  0  0  0  0
  4  5  1  0  0  0  0
  5  6  2  0  0  0  0
  5  9  1  0  0  0  0
  7  2  1  0  0  0  0
  8  3  1  0  0  0  0
  9 12  1  6  0  0  0
  9 11  1  0  0  0  0
  9 10  1  0  0  0  0
 10 14  1  0  0  0  0
 10 13  1  0  0  0  0
 11 15  1  1  0  0  0
 11 18  1  0  0  0  0
 11 10  1  0  0  0  0
 17 24  1  0  0  0  0
 17 16  1  0  0  0  0
 18 17  2  0  0  0  0
 19 21  2  0  0  0  0
 19 18  1  0  0  0  0
 20 19  1  0  0  0  0
 21 23  1  0  0  0  0
 22 21  1  0  0  0  0
 23 24  2  0  0  0  0
 25 26  1  0  0  0  0
 25 28  1  0  0  0  0
 27 25  1  0  0  0  0
 28 30  1  0  0  0  0
 28 29  1  0  0  0  0
 32 33  1  0  0  0  0
 32 31  1  0  0  0  0
 33 28  1  0  0  0  0
 34 38  1  0  0  0  0
 34 33  2  0  0  0  0
 35 34  1  0  0  0  0
 36 35  2  0  0  0  0
 36 37  1  0  0  0  0
 37 32  2  0  0  0  0
 39 35  1  0  0  0  0
 40 36  1  0  0  0  0
 41 37  1  0  0  0  0
 41 42  1  0  0  0  0
M  END
>  <minimizedAffinity>
-6.24531984

$$$$

 OpenBabel03242519183D

 42 45  0  0  1  0  0  0  0  0999 V2000
   37.0800   26.3040   39.6590 C   0  0  0  0  0  0  0  0  0  0  0  0
   36.5990   25.0840   40.0610 C   0  0  0  0  0  0  0  0  0  0  0  0
   36.8100   24.5530   41.3300 C   0  0  0  0  0  0  0  0  0  0  0  0
   37.5390   25.3350   42.1700 N   0  0  0  0  0  0  0  0  0  0  0  0
   38.0110   26.5280   41.7870 C   0  0  0  0  0  0  0  0  0  0  0  0
   37.7820   26.9950   40.5540 N   0  0  0  0  0  0  0  0  0  0  0  0
   36.0270   24.5060   39.3470 H   0  0  0  0  0  0  0  0  0  0  0  0
   36.4230   23.5970   41.6160 H   0  0  0  0  0  0  0  0  0  0  0  0
   38.7900   27.4100   42.7130 C   0  0  2  0  0  0  0  0  0  0  0  0
   38.1020   28.6000   43.3090 C   0  0  0  0  0  0  0  0  0  0  0  0
   39.1410   28.7610   42.1940 C   0  0  1  0  0  0  0  0  0  0  0  0
   39.5610   26.8240   43.2530 H   0  0  0  0  0  0  0  0  0  0  0  0
   38.3180   28.9240   44.3230 H   0  0  0  0  0  0  0  0  0  0  0  0
   37.0510   28.7990   42.9430 H   0  0  0  0  0  0  0  0  0  0  0  0
   38.7810   29.0060   41.1700 H   0  0  0  0  0  0  0  0  0  0  0  0
   39.6130   31.6340   42.3130 F   0  0  0  0  0  0  0  0  0  0  0  0
   40.6280   30.8290   42.6650 C   0  0  0  0  0  0  0  0  0  0  0  0
   40.3430   29.4890   42.5800 C   0  0  0  0  0  0  0  0  0  0  0  0
   41.3740   28.6080   42.9290 C   0  0  0  0  0  0  0  0  0  0  0  0
   41.3340   27.5170   42.9220 H   0  0  0  0  0  0  0  0  0  0  0  0
   42.6270   29.0650   43.3430 C   0  0  0  0  0  0  0  0  0  0  0  0
   43.4390   28.4320   43.6190 H   0  0  0  0  0  0  0  0  0  0  0  0
   42.8810   30.4280   43.4200 C   0  0  0  0  0  3  0  0  0  0  0  0
   41.8570   31.2870   43.0720 C   0  0  0  0  0  3  0  0  0  0  0  0
   36.8350   26.8430   38.3350 C   0  0  0  0  0  0  0  0  0  0  0  0
   36.5140   26.0220   37.6610 H   0  0  0  0  0  0  0  0  0  0  0  0
   37.7660   27.2600   37.8980 H   0  0  0  0  0  0  0  0  0  0  0  0
   35.7860   27.9050   38.4060 C   0  0  0  0  0  0  0  0  0  0  0  0
   35.0740   27.8210   37.5610 H   0  0  0  0  0  0  0  0  0  0  0  0
   35.1670   27.7960   39.3350 H   0  0  0  0  0  0  0  0  0  0  0  0
   35.4900   29.4930   40.9160 Cl  0  0  0  0  0  0  0  0  0  0  0  0
   36.2790   30.1190   39.4860 C   0  0  0  0  0  0  0  0  0  0  0  0
   36.3510   29.2810   38.3930 C   0  0  0  0  0  0  0  0  0  0  0  0
   36.9790   29.7700   37.2550 C   0  0  0  0  0  0  0  0  0  0  0  0
   37.5100   31.0450   37.2190 C   0  0  0  0  0  0  0  0  0  0  0  0
   37.4210   31.8780   38.3500 C   0  0  0  0  0  0  0  0  0  0  0  0
   36.8030   31.3940   39.4670 C   0  0  0  0  0  0  0  0  0  0  0  0
   37.0650   29.1560   36.3680 H   0  0  0  0  0  0  0  0  0  0  0  0
   37.9840   31.3910   36.3330 H   0  0  0  0  0  0  0  0  0  0  0  0
   37.8370   32.8780   38.3230 H   0  0  0  0  0  0  0  0  0  0  0  0
   36.6690   32.1450   40.6290 O   0  0  0  0  0  0  0  0  0  0  0  0
   36.3000   33.0760   40.6130 H   0  0  0  0  0  0  0  0  0  0  0  0
  1  2  2  0  0  0  0
  1  6  1  0  0  0  0
  2  3  1  0  0  0  0
  3  8  1  0  0  0  0
  3  4  2  0  0  0  0
  5  4  1  0  0  0  0
  5  9  1  0  0  0  0
  6  5  2  0  0  0  0
  7  2  1  0  0  0  0
  9 12  1  1  0  0  0
  9 10  1  0  0  0  0
 10 13  1  0  0  0  0
 11 15  1  6  0  0  0
 11 18  1  0  0  0  0
 11  9  1  0  0  0  0
 11 10  1  0  0  0  0
 14 10  1  0  0  0  0
 16 17  1  0  0  0  0
 17 24  1  0  0  0  0
 18 17  2  0  0  0  0
 18 19  1  0  0  0  0
 19 21  2  0  0  0  0
 20 19  1  0  0  0  0
 21 23  1  0  0  0  0
 21 22  1  0  0  0  0
 24 23  2  0  0  0  0
 25 28  1  0  0  0  0
 25  1  1  0  0  0  0
 26 25  1  0  0  0  0
 27 25  1  0  0  0  0
 28 30  1  0  0  0  0
 29 28  1  0  0  0  0
 32 31  1  0  0  0  0
 33 28  1  0  0  0  0
 33 32  2  0  0  0  0
 34 33  1  0  0  0  0
 35 34  2  0  0  0  0
 35 36  1  0  0  0  0
 36 37  2  0  0  0  0
 37 32  1  0  0  0  0
 37 41  1  0  0  0  0
 38 34  1  0  0  0  0
 39 35  1  0  0  0  0
 40 36  1  0  0  0  0
 42 41  1  0  0  0  0
M  END
>  <minimizedAffinity>
-6.23924255

$$$$

 OpenBabel03242519183D

 42 45  0  0  1  0  0  0  0  0999 V2000
   36.9540   29.5420   38.6680 C   0  0  0  0  0  0  0  0  0  0  0  0
   35.5820   29.5350   38.6660 C   0  0  0  0  0  0  0  0  0  0  0  0
   34.8120   29.1750   39.7680 C   0  0  0  0  0  0  0  0  0  0  0  0
   35.5170   28.8220   40.8750 N   0  0  0  0  0  0  0  0  0  0  0  0
   36.8560   28.8270   40.8870 C   0  0  0  0  0  0  0  0  0  0  0  0
   37.5530   29.1810   39.8010 N   0  0  0  0  0  0  0  0  0  0  0  0
   35.0770   29.8240   37.7540 H   0  0  0  0  0  0  0  0  0  0  0  0
   33.7420   29.1780   39.7380 H   0  0  0  0  0  0  0  0  0  0  0  0
   37.6420   28.4700   42.1110 C   0  0  2  0  0  0  0  0  0  0  0  0
   38.0790   29.5730   43.0250 C   0  0  0  0  0  0  0  0  0  0  0  0
   39.0790   28.8620   42.1080 C   0  0  1  0  0  0  0  0  0  0  0  0
   37.3610   27.4600   42.4730 H   0  0  0  0  0  0  0  0  0  0  0  0
   38.1120   29.4300   44.1020 H   0  0  0  0  0  0  0  0  0  0  0  0
   37.8530   30.6240   42.6750 H   0  0  0  0  0  0  0  0  0  0  0  0
   39.4410   29.4020   41.2040 H   0  0  0  0  0  0  0  0  0  0  0  0
   41.7870   29.6790   42.8060 F   0  0  0  0  0  0  0  0  0  0  0  0
   41.4050   28.4430   43.1660 C   0  0  0  0  0  0  0  0  0  0  0  0
   40.1220   28.1180   42.8010 C   0  0  0  0  0  0  0  0  0  0  0  0
   39.6810   26.8350   43.1460 C   0  0  0  0  0  0  0  0  0  0  0  0
   38.7000   26.4020   42.9400 H   0  0  0  0  0  0  0  0  0  0  0  0
   40.4990   25.9310   43.8280 C   0  0  0  0  0  0  0  0  0  0  0  0
   40.2050   24.9470   44.1110 H   0  0  0  0  0  0  0  0  0  0  0  0
   41.7910   26.2930   44.1840 C   0  0  0  0  0  3  0  0  0  0  0  0
   42.2160   27.5600   43.8370 C   0  0  0  0  0  3  0  0  0  0  0  0
   37.7350   29.9340   37.5110 C   0  0  0  0  0  0  0  0  0  0  0  0
   37.1750   29.6780   36.5890 H   0  0  0  0  0  0  0  0  0  0  0  0
   38.6880   29.3680   37.4650 H   0  0  0  0  0  0  0  0  0  0  0  0
   38.0170   31.4020   37.5650 C   0  0  0  0  0  0  0  0  0  0  0  0
   38.5030   31.7490   36.6310 H   0  0  0  0  0  0  0  0  0  0  0  0
   37.0660   31.9900   37.6480 H   0  0  0  0  0  0  0  0  0  0  0  0
   36.9940   33.5470   39.3710 Cl  0  0  0  0  0  0  0  0  0  0  0  0
   38.5390   32.7610   39.6110 C   0  0  0  0  0  0  0  0  0  0  0  0
   38.8920   31.7830   38.7050 C   0  0  0  0  0  0  0  0  0  0  0  0
   40.1150   31.1530   38.8920 C   0  0  0  0  0  0  0  0  0  0  0  0
   40.9450   31.4920   39.9430 C   0  0  0  0  0  0  0  0  0  0  0  0
   40.5580   32.4940   40.8520 C   0  0  0  0  0  0  0  0  0  0  0  0
   39.3540   33.1120   40.6660 C   0  0  0  0  0  0  0  0  0  0  0  0
   40.4440   30.3790   38.2120 H   0  0  0  0  0  0  0  0  0  0  0  0
   41.8750   30.9920   40.0590 H   0  0  0  0  0  0  0  0  0  0  0  0
   41.2080   32.7620   41.6770 H   0  0  0  0  0  0  0  0  0  0  0  0
   38.8910   34.1120   41.5120 O   0  0  0  0  0  0  0  0  0  0  0  0
   39.4580   34.9020   41.7520 H   0  0  0  0  0  0  0  0  0  0  0  0
  1  6  1  0  0  0  0
  2  1  2  0  0  0  0
  2  3  1  0  0  0  0
  3  4  2  0  0  0  0
  4  5  1  0  0  0  0
  5  9  1  0  0  0  0
  6  5  2  0  0  0  0
  7  2  1  0  0  0  0
  8  3  1  0  0  0  0
  9 12  1  1  0  0  0
  9 10  1  0  0  0  0
 10 13  1  0  0  0  0
 11 15  1  6  0  0  0
 11  9  1  0  0  0  0
 11 18  1  0  0  0  0
 11 10  1  0  0  0  0
 14 10  1  0  0  0  0
 16 17  1  0  0  0  0
 17 24  1  0  0  0  0
 18 19  1  0  0  0  0
 18 17  2  0  0  0  0
 19 21  2  0  0  0  0
 20 19  1  0  0  0  0
 21 22  1  0  0  0  0
 21 23  1  0  0  0  0
 24 23  2  0  0  0  0
 25 28  1  0  0  0  0
 25  1  1  0  0  0  0
 26 25  1  0  0  0  0
 27 25  1  0  0  0  0
 28 30  1  0  0  0  0
 28 33  1  0  0  0  0
 29 28  1  0  0  0  0
 31 32  1  0  0  0  0
 32 37  1  0  0  0  0
 33 34  1  0  0  0  0
 33 32  2  0  0  0  0
 34 35  2  0  0  0  0
 35 39  1  0  0  0  0
 35 36  1  0  0  0  0
 36 40  1  0  0  0  0
 37 36  2  0  0  0  0
 37 41  1  0  0  0  0
 38 34  1  0  0  0  0
 41 42  1  0  0  0  0
M  END
>  <minimizedAffinity>
-6.22749853

$$$$
