
 OpenBabel03252506193D

 23 24  0  0  0  0  0  0  0  0999 V2000
   45.0370   34.9070   44.3380 C   0  0  0  0  0  0  0  0  0  0  0  0
   44.8600   34.1950   43.1260 C   0  0  0  0  0  0  0  0  0  0  0  0
   45.1270   32.8220   43.1310 C   0  0  0  0  0  0  0  0  0  0  0  0
   45.5360   32.2410   44.2790 N   0  0  0  0  0  0  0  0  0  0  0  0
   45.6980   32.9520   45.4320 C   0  0  0  0  0  0  0  0  0  0  0  0
   45.4410   34.2690   45.4280 N   0  0  0  0  0  0  0  0  0  0  0  0
   44.5290   34.7560   42.2630 H   0  0  0  0  0  0  0  0  0  0  0  0
   44.9920   32.2900   42.2150 H   0  0  0  0  0  0  0  0  0  0  0  0
   44.4080   33.4170   47.8710 F   0  0  0  0  0  0  0  0  0  0  0  0
   45.4670   32.5620   47.8360 C   0  0  0  0  0  0  0  0  0  0  0  0
   46.1410   32.2940   46.6580 C   0  0  0  0  0  0  0  0  0  0  0  0
   47.2180   31.4230   46.6250 C   0  0  0  0  0  0  0  0  0  0  0  0
   47.7640   31.1950   45.7140 H   0  0  0  0  0  0  0  0  0  0  0  0
   47.6030   30.8220   47.8160 C   0  0  0  0  0  0  0  0  0  0  0  0
   48.4310   30.1420   47.8350 H   0  0  0  0  0  0  0  0  0  0  0  0
   46.9390   31.0810   48.9930 C   0  0  0  0  0  3  0  0  0  0  0  0
   45.8700   31.9520   49.0040 C   0  0  0  0  0  3  0  0  0  0  0  0
   44.7620   36.3360   44.3410 C   0  0  0  0  0  3  0  0  0  0  0  0
   45.3920   37.1130   43.4880 C   0  0  0  0  0  3  0  0  0  0  0  0
   45.1540   38.5800   43.4420 C   0  0  0  0  0  0  0  0  0  0  0  0
   45.5460   39.1010   44.3390 H   0  0  0  0  0  0  0  0  0  0  0  0
   45.5210   39.0140   42.4980 H   0  0  0  0  0  0  0  0  0  0  0  0
   44.0340   38.7150   43.4470 H   0  0  0  0  0  0  0  0  0  0  0  0
  1 18  1  0  0  0  0
  1  6  1  0  0  0  0
  2  3  1  0  0  0  0
  2  1  2  0  0  0  0
  3  4  2  0  0  0  0
  4  5  1  0  0  0  0
  5 11  1  0  0  0  0
  6  5  2  0  0  0  0
  7  2  1  0  0  0  0
  8  3  1  0  0  0  0
 10  9  1  0  0  0  0
 10 17  1  0  0  0  0
 11 10  2  0  0  0  0
 12 11  1  0  0  0  0
 12 14  2  0  0  0  0
 13 12  1  0  0  0  0
 14 15  1  0  0  0  0
 14 16  1  0  0  0  0
 16 17  2  0  0  0  0
 19 18  2  0  0  0  0
 20 23  1  0  0  0  0
 20 19  1  0  0  0  0
 20 21  1  0  0  0  0
 22 20  1  0  0  0  0
M  END
>  <minimizedAffinity>
-4.39761829

>  <minimizedRMSD>
2.38042593

$$$$
