
 OpenBabel03242511553D

 34 36  0  0  1  0  0  0  0  0999 V2000
   38.9140   31.3100   39.8420 C   0  0  2  0  0  0  0  0  0  0  0  0
   39.8010   32.3790   40.3440 C   0  0  0  0  0  0  0  0  0  0  0  0
   39.0910   33.5530   40.9200 C   0  0  0  0  0  0  0  0  0  0  0  0
   38.0330   34.1290   39.9980 C   0  0  0  0  0  0  0  0  0  0  0  0
   37.2700   33.0860   39.2220 C   0  0  0  0  0  0  0  0  0  0  0  0
   37.4470   31.7300   39.8590 C   0  0  1  0  0  0  0  0  0  0  0  0
   39.2300   31.0410   38.8110 H   0  0  0  0  0  0  0  0  0  0  0  0
   40.4990   32.0120   41.1270 H   0  0  0  0  0  0  0  0  0  0  0  0
   40.4870   32.7760   39.5410 H   0  0  0  0  0  0  0  0  0  0  0  0
   39.8740   34.3600   41.0320 H   0  0  0  0  0  0  0  0  0  0  0  0
   38.6570   33.4480   41.9080 H   0  0  0  0  0  0  0  0  0  0  0  0
   37.3200   34.7290   40.6210 H   0  0  0  0  0  0  0  0  0  0  0  0
   38.5040   34.8580   39.3210 H   0  0  0  0  0  0  0  0  0  0  0  0
   36.1990   33.3200   39.2260 H   0  0  0  0  0  0  0  0  0  0  0  0
   37.6530   33.1110   38.1800 H   0  0  0  0  0  0  0  0  0  0  0  0
   37.2510   31.9070   40.9390 H   0  0  0  0  0  0  0  0  0  0  0  0
   39.0140   30.0810   40.6550 C   0  0  0  0  0  0  0  0  0  0  0  0
   38.8380   30.2420   42.0430 C   0  0  0  0  0  0  0  0  0  0  0  0
   38.9100   29.1330   42.8950 C   0  0  0  0  0  0  0  0  0  0  0  0
   39.1570   27.9190   42.2910 N   0  0  0  0  0  0  0  0  0  0  0  0
   39.3220   27.7920   40.9540 C   0  0  0  0  0  0  0  0  0  0  0  0
   39.2490   28.8710   40.1470 N   0  0  0  0  0  0  0  0  0  0  0  0
   38.6430   31.1610   42.5790 H   0  0  0  0  0  0  0  0  0  0  0  0
   38.7830   29.2080   43.9660 H   0  0  0  0  0  0  0  0  0  0  0  0
   39.5140   26.7840   40.5780 H   0  0  0  0  0  0  0  0  0  0  0  0
   37.2990   30.7310   37.1780 F   0  0  0  0  0  0  0  0  0  0  0  0
   36.4520   30.1990   38.0890 C   0  0  0  0  0  0  0  0  0  0  0  0
   36.5450   30.6990   39.3800 C   0  0  0  0  0  0  0  0  0  0  0  0
   35.6410   30.1060   40.2720 C   0  0  0  0  0  0  0  0  0  0  0  0
   35.6660   30.4620   41.3130 H   0  0  0  0  0  0  0  0  0  0  0  0
   34.7330   29.1290   39.9740 C   0  0  0  0  0  0  0  0  0  0  0  0
   34.0840   28.7460   40.7540 H   0  0  0  0  0  0  0  0  0  0  0  0
   34.6920   28.6780   38.6870 C   0  0  0  0  0  3  0  0  0  0  0  0
   35.5490   29.2120   37.7480 C   0  0  0  0  0  3  0  0  0  0  0  0
  1  7  1  6  0  0  0
  1  6  1  0  0  0  0
  1  2  1  0  0  0  0
  1 17  1  0  0  0  0
  2  3  1  0  0  0  0
  2  8  1  0  0  0  0
  3 10  1  0  0  0  0
  3 11  1  0  0  0  0
  4 12  1  0  0  0  0
  4  3  1  0  0  0  0
  5 14  1  0  0  0  0
  5  6  1  0  0  0  0
  5  4  1  0  0  0  0
  6 16  1  1  0  0  0
  9  2  1  0  0  0  0
 13  4  1  0  0  0  0
 15  5  1  0  0  0  0
 17 18  1  0  0  0  0
 18 23  1  0  0  0  0
 18 19  2  0  0  0  0
 19 24  1  0  0  0  0
 20 19  1  0  0  0  0
 21 20  2  0  0  0  0
 22 17  2  0  0  0  0
 22 21  1  0  0  0  0
 25 21  1  0  0  0  0
 26 27  1  0  0  0  0
 27 28  1  0  0  0  0
 28  6  1  0  0  0  0
 28 29  2  0  0  0  0
 29 30  1  0  0  0  0
 31 29  1  0  0  0  0
 31 32  1  0  0  0  0
 33 31  2  0  0  0  0
 34 27  2  0  0  0  0
 34 33  1  0  0  0  0
M  END
>  <minimizedAffinity>
-5.40403175

$$$$

 OpenBabel03242511553D

 34 36  0  0  1  0  0  0  0  0999 V2000
   37.5300   29.7800   41.8840 C   0  0  2  0  0  0  0  0  0  0  0  0
   38.4720   29.6050   43.0090 C   0  0  0  0  0  0  0  0  0  0  0  0
   39.0630   28.2440   43.1150 C   0  0  0  0  0  0  0  0  0  0  0  0
   38.0290   27.1350   43.1110 C   0  0  0  0  0  0  0  0  0  0  0  0
   36.8700   27.3880   42.1800 C   0  0  0  0  0  0  0  0  0  0  0  0
   37.2290   28.4600   41.1800 C   0  0  1  0  0  0  0  0  0  0  0  0
   36.5940   30.2360   42.2720 H   0  0  0  0  0  0  0  0  0  0  0  0
   39.3200   30.3200   42.9600 H   0  0  0  0  0  0  0  0  0  0  0  0
   37.9920   29.8290   44.0050 H   0  0  0  0  0  0  0  0  0  0  0  0
   39.5550   28.2030   44.1320 H   0  0  0  0  0  0  0  0  0  0  0  0
   39.8470   27.9770   42.4160 H   0  0  0  0  0  0  0  0  0  0  0  0
   38.5430   26.1830   42.8190 H   0  0  0  0  0  0  0  0  0  0  0  0
   37.6780   26.9660   44.1410 H   0  0  0  0  0  0  0  0  0  0  0  0
   36.6280   26.4770   41.6210 H   0  0  0  0  0  0  0  0  0  0  0  0
   36.0040   27.6800   42.8110 H   0  0  0  0  0  0  0  0  0  0  0  0
   38.2260   28.1510   40.7940 H   0  0  0  0  0  0  0  0  0  0  0  0
   38.0610   30.6980   40.8570 C   0  0  0  0  0  0  0  0  0  0  0  0
   37.2760   31.8340   40.5780 C   0  0  0  0  0  0  0  0  0  0  0  0
   37.7010   32.7660   39.6230 C   0  0  0  0  0  0  0  0  0  0  0  0
   38.9000   32.4930   39.0000 N   0  0  0  0  0  0  0  0  0  0  0  0
   39.6340   31.3930   39.2870 C   0  0  0  0  0  0  0  0  0  0  0  0
   39.2110   30.5060   40.2110 N   0  0  0  0  0  0  0  0  0  0  0  0
   36.3310   32.1060   41.0280 H   0  0  0  0  0  0  0  0  0  0  0  0
   37.1320   33.6510   39.3750 H   0  0  0  0  0  0  0  0  0  0  0  0
   40.5700   31.2730   38.7350 H   0  0  0  0  0  0  0  0  0  0  0  0
   37.8610   28.0180   38.4220 F   0  0  0  0  0  0  0  0  0  0  0  0
   36.5950   28.3870   38.7190 C   0  0  0  0  0  0  0  0  0  0  0  0
   36.3140   28.5950   40.0630 C   0  0  0  0  0  0  0  0  0  0  0  0
   34.9860   28.9750   40.3010 C   0  0  0  0  0  0  0  0  0  0  0  0
   34.7030   29.1550   41.3500 H   0  0  0  0  0  0  0  0  0  0  0  0
   34.0110   29.1440   39.3590 C   0  0  0  0  0  0  0  0  0  0  0  0
   33.0150   29.4410   39.6670 H   0  0  0  0  0  0  0  0  0  0  0  0
   34.3490   28.9240   38.0550 C   0  0  0  0  0  3  0  0  0  0  0  0
   35.6370   28.5470   37.7370 C   0  0  0  0  0  3  0  0  0  0  0  0
  1  7  1  1  0  0  0
  1  2  1  0  0  0  0
  2  3  1  0  0  0  0
  2  9  1  0  0  0  0
  3 10  1  0  0  0  0
  4  3  1  0  0  0  0
  4 13  1  0  0  0  0
  5 15  1  0  0  0  0
  5  4  1  0  0  0  0
  6 16  1  6  0  0  0
  6  1  1  0  0  0  0
  6  5  1  0  0  0  0
  8  2  1  0  0  0  0
 11  3  1  0  0  0  0
 12  4  1  0  0  0  0
 14  5  1  0  0  0  0
 17  1  1  0  0  0  0
 18 17  1  0  0  0  0
 18 23  1  0  0  0  0
 19 18  2  0  0  0  0
 20 21  2  0  0  0  0
 20 19  1  0  0  0  0
 21 22  1  0  0  0  0
 22 17  2  0  0  0  0
 24 19  1  0  0  0  0
 25 21  1  0  0  0  0
 26 27  1  0  0  0  0
 27 28  1  0  0  0  0
 28 29  2  0  0  0  0
 28  6  1  0  0  0  0
 29 30  1  0  0  0  0
 31 32  1  0  0  0  0
 31 29  1  0  0  0  0
 33 31  2  0  0  0  0
 34 33  1  0  0  0  0
 34 27  2  0  0  0  0
M  END
>  <minimizedAffinity>
-5.3909502

$$$$

 OpenBabel03242511553D

 34 36  0  0  1  0  0  0  0  0999 V2000
   37.3570   29.6110   41.7300 C   0  0  2  0  0  0  0  0  0  0  0  0
   38.1590   29.4180   42.9550 C   0  0  0  0  0  0  0  0  0  0  0  0
   38.8830   28.1180   43.0230 C   0  0  0  0  0  0  0  0  0  0  0  0
   37.9900   26.9180   42.7760 C   0  0  0  0  0  0  0  0  0  0  0  0
   36.9400   27.1480   41.7190 C   0  0  0  0  0  0  0  0  0  0  0  0
   37.3020   28.3470   40.8770 C   0  0  1  0  0  0  0  0  0  0  0  0
   36.3340   29.9290   42.0220 H   0  0  0  0  0  0  0  0  0  0  0  0
   38.9210   30.2150   43.0890 H   0  0  0  0  0  0  0  0  0  0  0  0
   37.5330   29.4890   43.8910 H   0  0  0  0  0  0  0  0  0  0  0  0
   39.2400   28.0220   44.0910 H   0  0  0  0  0  0  0  0  0  0  0  0
   39.7760   28.0050   42.4190 H   0  0  0  0  0  0  0  0  0  0  0  0
   38.6420   26.0570   42.4760 H   0  0  0  0  0  0  0  0  0  0  0  0
   37.5300   26.6090   43.7280 H   0  0  0  0  0  0  0  0  0  0  0  0
   36.8770   26.2800   41.0530 H   0  0  0  0  0  0  0  0  0  0  0  0
   35.9720   27.2850   42.2460 H   0  0  0  0  0  0  0  0  0  0  0  0
   38.3680   28.1810   40.6080 H   0  0  0  0  0  0  0  0  0  0  0  0
   37.9090   30.6790   40.8720 C   0  0  0  0  0  0  0  0  0  0  0  0
   37.0410   31.7500   40.5830 C   0  0  0  0  0  0  0  0  0  0  0  0
   37.4780   32.8130   39.7810 C   0  0  0  0  0  0  0  0  0  0  0  0
   38.7720   32.7300   39.3160 N   0  0  0  0  0  0  0  0  0  0  0  0
   39.5850   31.6890   39.6090 C   0  0  0  0  0  0  0  0  0  0  0  0
   39.1490   30.6730   40.3830 N   0  0  0  0  0  0  0  0  0  0  0  0
   36.0200   31.8760   40.9140 H   0  0  0  0  0  0  0  0  0  0  0  0
   36.8470   33.6550   39.5320 H   0  0  0  0  0  0  0  0  0  0  0  0
   40.5940   31.7220   39.1890 H   0  0  0  0  0  0  0  0  0  0  0  0
   34.5100   28.9710   40.7200 F   0  0  0  0  0  0  0  0  0  0  0  0
   35.1780   28.8050   39.5560 C   0  0  0  0  0  0  0  0  0  0  0  0
   36.5290   28.5040   39.6590 C   0  0  0  0  0  0  0  0  0  0  0  0
   37.1600   28.3450   38.4180 C   0  0  0  0  0  0  0  0  0  0  0  0
   38.2340   28.1040   38.4350 H   0  0  0  0  0  0  0  0  0  0  0  0
   36.5710   28.4600   37.1900 C   0  0  0  0  0  0  0  0  0  0  0  0
   37.1660   28.3140   36.2950 H   0  0  0  0  0  0  0  0  0  0  0  0
   35.2390   28.7580   37.1550 C   0  0  0  0  0  3  0  0  0  0  0  0
   34.5460   28.9300   38.3340 C   0  0  0  0  0  3  0  0  0  0  0  0
  1  7  1  1  0  0  0
  1  2  1  0  0  0  0
  2  3  1  0  0  0  0
  2  8  1  0  0  0  0
  2  9  1  0  0  0  0
  3 10  1  0  0  0  0
  4  3  1  0  0  0  0
  4 13  1  0  0  0  0
  5 15  1  0  0  0  0
  5  4  1  0  0  0  0
  6 16  1  6  0  0  0
  6  5  1  0  0  0  0
  6  1  1  0  0  0  0
 11  3  1  0  0  0  0
 12  4  1  0  0  0  0
 14  5  1  0  0  0  0
 17  1  1  0  0  0  0
 18 17  1  0  0  0  0
 18 23  1  0  0  0  0
 19 18  2  0  0  0  0
 20 21  2  0  0  0  0
 20 19  1  0  0  0  0
 21 22  1  0  0  0  0
 22 17  2  0  0  0  0
 24 19  1  0  0  0  0
 25 21  1  0  0  0  0
 27 28  1  0  0  0  0
 27 26  1  0  0  0  0
 28  6  1  0  0  0  0
 29 30  1  0  0  0  0
 29 28  2  0  0  0  0
 31 29  1  0  0  0  0
 32 31  1  0  0  0  0
 33 31  2  0  0  0  0
 33 34  1  0  0  0  0
 34 27  2  0  0  0  0
M  END
>  <minimizedAffinity>
-5.31134129

$$$$

 OpenBabel03242511553D

 34 36  0  0  1  0  0  0  0  0999 V2000
   36.9770   31.1350   40.6960 C   0  0  2  0  0  0  0  0  0  0  0  0
   37.3570   32.4420   40.1210 C   0  0  0  0  0  0  0  0  0  0  0  0
   38.8130   32.6010   39.8560 C   0  0  0  0  0  0  0  0  0  0  0  0
   39.6830   32.2750   41.0540 C   0  0  0  0  0  0  0  0  0  0  0  0
   39.1830   31.1090   41.8690 C   0  0  0  0  0  0  0  0  0  0  0  0
   38.1970   30.2970   41.0650 C   0  0  1  0  0  0  0  0  0  0  0  0
   36.3420   31.3120   41.5900 H   0  0  0  0  0  0  0  0  0  0  0  0
   36.8330   32.6470   39.1630 H   0  0  0  0  0  0  0  0  0  0  0  0
   37.0510   33.3040   40.7810 H   0  0  0  0  0  0  0  0  0  0  0  0
   38.9680   33.7030   39.6540 H   0  0  0  0  0  0  0  0  0  0  0  0
   39.2280   32.0980   38.9900 H   0  0  0  0  0  0  0  0  0  0  0  0
   40.7170   32.0560   40.6820 H   0  0  0  0  0  0  0  0  0  0  0  0
   39.7890   33.1750   41.6790 H   0  0  0  0  0  0  0  0  0  0  0  0
   40.0170   30.4500   42.1380 H   0  0  0  0  0  0  0  0  0  0  0  0
   38.7260   31.5280   42.7900 H   0  0  0  0  0  0  0  0  0  0  0  0
   38.7010   30.1460   40.0850 H   0  0  0  0  0  0  0  0  0  0  0  0
   36.1760   30.3290   39.7540 C   0  0  0  0  0  0  0  0  0  0  0  0
   36.6420   30.2860   38.4260 C   0  0  0  0  0  0  0  0  0  0  0  0
   35.9510   29.5410   37.4610 C   0  0  0  0  0  0  0  0  0  0  0  0
   34.8230   28.8810   37.8980 N   0  0  0  0  0  0  0  0  0  0  0  0
   34.3970   28.9400   39.1810 C   0  0  0  0  0  0  0  0  0  0  0  0
   35.0740   29.6610   40.0980 N   0  0  0  0  0  0  0  0  0  0  0  0
   37.5150   30.7770   38.0190 H   0  0  0  0  0  0  0  0  0  0  0  0
   36.2700   29.4790   36.4300 H   0  0  0  0  0  0  0  0  0  0  0  0
   33.4900   28.3790   39.4210 H   0  0  0  0  0  0  0  0  0  0  0  0
   38.4940   27.7670   39.7560 F   0  0  0  0  0  0  0  0  0  0  0  0
   37.9950   27.7630   41.0130 C   0  0  0  0  0  0  0  0  0  0  0  0
   37.8610   29.0010   41.6250 C   0  0  0  0  0  0  0  0  0  0  0  0
   37.3390   28.9260   42.9240 C   0  0  0  0  0  0  0  0  0  0  0  0
   37.2090   29.8780   43.4620 H   0  0  0  0  0  0  0  0  0  0  0  0
   36.9760   27.7860   43.5850 C   0  0  0  0  0  0  0  0  0  0  0  0
   36.5820   27.8550   44.5940 H   0  0  0  0  0  0  0  0  0  0  0  0
   37.1320   26.6000   42.9300 C   0  0  0  0  0  3  0  0  0  0  0  0
   37.6390   26.5890   41.6480 C   0  0  0  0  0  3  0  0  0  0  0  0
  1  6  1  0  0  0  0
  1  7  1  1  0  0  0
  2  1  1  0  0  0  0
  2  9  1  0  0  0  0
  3  2  1  0  0  0  0
  3  4  1  0  0  0  0
  4 13  1  0  0  0  0
  4  5  1  0  0  0  0
  5 14  1  0  0  0  0
  5 15  1  0  0  0  0
  6 16  1  6  0  0  0
  6 28  1  0  0  0  0
  6  5  1  0  0  0  0
  8  2  1  0  0  0  0
 10  3  1  0  0  0  0
 11  3  1  0  0  0  0
 12  4  1  0  0  0  0
 17 22  1  0  0  0  0
 17  1  1  0  0  0  0
 18 17  2  0  0  0  0
 19 20  2  0  0  0  0
 19 18  1  0  0  0  0
 20 21  1  0  0  0  0
 21 25  1  0  0  0  0
 21 22  2  0  0  0  0
 23 18  1  0  0  0  0
 24 19  1  0  0  0  0
 26 27  1  0  0  0  0
 27 28  2  0  0  0  0
 27 34  1  0  0  0  0
 28 29  1  0  0  0  0
 29 30  1  0  0  0  0
 29 31  2  0  0  0  0
 31 32  1  0  0  0  0
 33 31  1  0  0  0  0
 34 33  2  0  0  0  0
M  END
>  <minimizedAffinity>
-5.25245142

$$$$

 OpenBabel03242511553D

 34 36  0  0  1  0  0  0  0  0999 V2000
   38.7840   30.9820   39.9230 C   0  0  2  0  0  0  0  0  0  0  0  0
   39.6260   32.0260   40.5420 C   0  0  0  0  0  0  0  0  0  0  0  0
   38.8820   33.2330   40.9950 C   0  0  0  0  0  0  0  0  0  0  0  0
   37.9960   33.8330   39.9210 C   0  0  0  0  0  0  0  0  0  0  0  0
   37.3180   32.8060   39.0490 C   0  0  0  0  0  0  0  0  0  0  0  0
   37.3480   31.4540   39.7170 C   0  0  1  0  0  0  0  0  0  0  0  0
   39.2390   30.6870   38.9530 H   0  0  0  0  0  0  0  0  0  0  0  0
   40.1860   31.6450   41.4230 H   0  0  0  0  0  0  0  0  0  0  0  0
   40.4380   32.3860   39.8470 H   0  0  0  0  0  0  0  0  0  0  0  0
   39.6700   34.0130   41.2150 H   0  0  0  0  0  0  0  0  0  0  0  0
   38.3030   33.1570   41.9080 H   0  0  0  0  0  0  0  0  0  0  0  0
   37.2210   34.4660   40.4250 H   0  0  0  0  0  0  0  0  0  0  0  0
   38.5890   34.5350   39.3140 H   0  0  0  0  0  0  0  0  0  0  0  0
   36.2680   33.0780   38.8920 H   0  0  0  0  0  0  0  0  0  0  0  0
   37.8520   32.8020   38.0760 H   0  0  0  0  0  0  0  0  0  0  0  0
   37.0000   31.6530   40.7550 H   0  0  0  0  0  0  0  0  0  0  0  0
   38.7160   29.7620   40.7530 C   0  0  0  0  0  0  0  0  0  0  0  0
   38.4220   29.9580   42.1160 C   0  0  0  0  0  0  0  0  0  0  0  0
   38.3310   28.8600   42.9810 C   0  0  0  0  0  0  0  0  0  0  0  0
   38.5450   27.6220   42.4150 N   0  0  0  0  0  0  0  0  0  0  0  0
   38.8260   27.4620   41.1010 C   0  0  0  0  0  0  0  0  0  0  0  0
   38.9090   28.5310   40.2810 N   0  0  0  0  0  0  0  0  0  0  0  0
   38.2440   30.8970   42.6220 H   0  0  0  0  0  0  0  0  0  0  0  0
   38.1090   28.9610   44.0350 H   0  0  0  0  0  0  0  0  0  0  0  0
   38.9780   26.4360   40.7540 H   0  0  0  0  0  0  0  0  0  0  0  0
   35.3380   29.9300   41.0750 F   0  0  0  0  0  0  0  0  0  0  0  0
   35.5080   29.6980   39.7540 C   0  0  0  0  0  0  0  0  0  0  0  0
   36.4880   30.4490   39.1190 C   0  0  0  0  0  0  0  0  0  0  0  0
   36.6130   30.1590   37.7540 C   0  0  0  0  0  0  0  0  0  0  0  0
   37.3760   30.7240   37.1950 H   0  0  0  0  0  0  0  0  0  0  0  0
   35.8810   29.2450   37.0500 C   0  0  0  0  0  0  0  0  0  0  0  0
   36.0700   29.1090   35.9910 H   0  0  0  0  0  0  0  0  0  0  0  0
   34.9320   28.5380   37.7310 C   0  0  0  0  0  3  0  0  0  0  0  0
   34.7470   28.7650   39.0780 C   0  0  0  0  0  3  0  0  0  0  0  0
  1  7  1  6  0  0  0
  1  2  1  0  0  0  0
  1 17  1  0  0  0  0
  2  3  1  0  0  0  0
  2  8  1  0  0  0  0
  3 10  1  0  0  0  0
  3 11  1  0  0  0  0
  4 12  1  0  0  0  0
  4  3  1  0  0  0  0
  5  6  1  0  0  0  0
  5  4  1  0  0  0  0
  6  1  1  0  0  0  0
  6 16  1  1  0  0  0
  9  2  1  0  0  0  0
 13  4  1  0  0  0  0
 14  5  1  0  0  0  0
 15  5  1  0  0  0  0
 17 18  1  0  0  0  0
 18 23  1  0  0  0  0
 18 19  2  0  0  0  0
 19 24  1  0  0  0  0
 20 19  1  0  0  0  0
 21 20  2  0  0  0  0
 22 17  2  0  0  0  0
 22 21  1  0  0  0  0
 25 21  1  0  0  0  0
 27 26  1  0  0  0  0
 28  6  1  0  0  0  0
 28 27  1  0  0  0  0
 29 28  2  0  0  0  0
 30 29  1  0  0  0  0
 31 33  2  0  0  0  0
 31 29  1  0  0  0  0
 32 31  1  0  0  0  0
 33 34  1  0  0  0  0
 34 27  2  0  0  0  0
M  END
>  <minimizedAffinity>
-5.21983147

$$$$

 OpenBabel03242511553D

 34 36  0  0  1  0  0  0  0  0999 V2000
   38.9170   27.2080   43.0080 C   0  0  2  0  0  0  0  0  0  0  0  0
   39.8400   26.2700   43.6790 C   0  0  0  0  0  0  0  0  0  0  0  0
   40.1380   25.0340   42.9050 C   0  0  0  0  0  0  0  0  0  0  0  0
   38.8950   24.3080   42.4280 C   0  0  0  0  0  0  0  0  0  0  0  0
   37.7830   25.2280   41.9920 C   0  0  0  0  0  0  0  0  0  0  0  0
   38.3230   26.6140   41.7350 C   0  0  1  0  0  0  0  0  0  0  0  0
   38.1110   27.4850   43.7210 H   0  0  0  0  0  0  0  0  0  0  0  0
   40.8180   26.7420   43.9180 H   0  0  0  0  0  0  0  0  0  0  0  0
   39.4530   25.9370   44.6850 H   0  0  0  0  0  0  0  0  0  0  0  0
   40.6450   24.3330   43.6320 H   0  0  0  0  0  0  0  0  0  0  0  0
   40.8240   25.1140   42.0690 H   0  0  0  0  0  0  0  0  0  0  0  0
   39.1880   23.6440   41.5750 H   0  0  0  0  0  0  0  0  0  0  0  0
   38.5520   23.6230   43.2190 H   0  0  0  0  0  0  0  0  0  0  0  0
   37.3370   24.8660   41.0590 H   0  0  0  0  0  0  0  0  0  0  0  0
   37.0200   25.2210   42.7980 H   0  0  0  0  0  0  0  0  0  0  0  0
   39.2190   26.4440   41.0980 H   0  0  0  0  0  0  0  0  0  0  0  0
   39.5920   28.4630   42.6170 C   0  0  0  0  0  0  0  0  0  0  0  0
   40.7830   28.3190   41.8790 C   0  0  0  0  0  0  0  0  0  0  0  0
   41.4910   29.4530   41.4580 C   0  0  0  0  0  0  0  0  0  0  0  0
   40.9510   30.6710   41.8100 N   0  0  0  0  0  0  0  0  0  0  0  0
   39.8040   30.7800   42.5210 C   0  0  0  0  0  0  0  0  0  0  0  0
   39.1340   29.6780   42.9180 N   0  0  0  0  0  0  0  0  0  0  0  0
   41.2590   27.3990   41.5700 H   0  0  0  0  0  0  0  0  0  0  0  0
   42.4090   29.3930   40.8910 H   0  0  0  0  0  0  0  0  0  0  0  0
   39.4630   31.7930   42.7470 H   0  0  0  0  0  0  0  0  0  0  0  0
   35.9540   27.7910   42.8310 F   0  0  0  0  0  0  0  0  0  0  0  0
   36.2650   28.0950   41.5510 C   0  0  0  0  0  0  0  0  0  0  0  0
   37.4180   27.5120   41.0440 C   0  0  0  0  0  0  0  0  0  0  0  0
   37.6820   27.8680   39.7140 C   0  0  0  0  0  0  0  0  0  0  0  0
   38.5840   27.4350   39.2550 H   0  0  0  0  0  0  0  0  0  0  0  0
   36.9280   28.6980   38.9330 C   0  0  0  0  0  0  0  0  0  0  0  0
   37.2360   28.9000   37.9130 H   0  0  0  0  0  0  0  0  0  0  0  0
   35.8060   29.2410   39.4900 C   0  0  0  0  0  3  0  0  0  0  0  0
   35.4770   28.9400   40.7950 C   0  0  0  0  0  3  0  0  0  0  0  0
  1  2  1  0  0  0  0
  1  7  1  1  0  0  0
  2  8  1  0  0  0  0
  2  9  1  0  0  0  0
  3 10  1  0  0  0  0
  3  2  1  0  0  0  0
  4  3  1  0  0  0  0
  4 13  1  0  0  0  0
  5  4  1  0  0  0  0
  5 15  1  0  0  0  0
  6 16  1  6  0  0  0
  6  5  1  0  0  0  0
  6  1  1  0  0  0  0
 11  3  1  0  0  0  0
 12  4  1  0  0  0  0
 14  5  1  0  0  0  0
 17 22  1  0  0  0  0
 17  1  1  0  0  0  0
 18 17  2  0  0  0  0
 19 20  2  0  0  0  0
 19 18  1  0  0  0  0
 20 21  1  0  0  0  0
 21 25  1  0  0  0  0
 21 22  2  0  0  0  0
 23 18  1  0  0  0  0
 24 19  1  0  0  0  0
 27 26  1  0  0  0  0
 28 27  1  0  0  0  0
 28  6  1  0  0  0  0
 29 28  2  0  0  0  0
 30 29  1  0  0  0  0
 31 33  2  0  0  0  0
 31 29  1  0  0  0  0
 32 31  1  0  0  0  0
 33 34  1  0  0  0  0
 34 27  2  0  0  0  0
M  END
>  <minimizedAffinity>
-5.21191692

$$$$

 OpenBabel03242511553D

 34 36  0  0  1  0  0  0  0  0999 V2000
   38.9690   31.3230   39.9380 C   0  0  2  0  0  0  0  0  0  0  0  0
   39.8690   32.4040   40.3900 C   0  0  0  0  0  0  0  0  0  0  0  0
   39.1730   33.6110   40.9120 C   0  0  0  0  0  0  0  0  0  0  0  0
   38.1210   34.1560   39.9650 C   0  0  0  0  0  0  0  0  0  0  0  0
   37.3440   33.0870   39.2390 C   0  0  0  0  0  0  0  0  0  0  0  0
   37.5070   31.7590   39.9370 C   0  0  1  0  0  0  0  0  0  0  0  0
   39.2800   31.0030   38.9210 H   0  0  0  0  0  0  0  0  0  0  0  0
   40.5650   32.0650   41.1870 H   0  0  0  0  0  0  0  0  0  0  0  0
   40.5580   32.7560   39.5690 H   0  0  0  0  0  0  0  0  0  0  0  0
   39.9660   34.4140   40.9850 H   0  0  0  0  0  0  0  0  0  0  0  0
   38.7390   33.5560   41.9030 H   0  0  0  0  0  0  0  0  0  0  0  0
   37.4150   34.7920   40.5610 H   0  0  0  0  0  0  0  0  0  0  0  0
   38.5980   34.8480   39.2540 H   0  0  0  0  0  0  0  0  0  0  0  0
   36.2760   33.3320   39.2340 H   0  0  0  0  0  0  0  0  0  0  0  0
   37.7260   33.0590   38.1960 H   0  0  0  0  0  0  0  0  0  0  0  0
   37.3150   31.9880   41.0090 H   0  0  0  0  0  0  0  0  0  0  0  0
   39.0570   30.1320   40.8070 C   0  0  0  0  0  0  0  0  0  0  0  0
   39.3570   28.9170   40.1620 C   0  0  0  0  0  0  0  0  0  0  0  0
   39.4660   27.7340   40.9050 C   0  0  0  0  0  0  0  0  0  0  0  0
   39.2650   27.8500   42.2630 N   0  0  0  0  0  0  0  0  0  0  0  0
   38.9780   29.0300   42.8580 C   0  0  0  0  0  0  0  0  0  0  0  0
   38.8760   30.1610   42.1280 N   0  0  0  0  0  0  0  0  0  0  0  0
   39.5260   28.7570   39.1060 H   0  0  0  0  0  0  0  0  0  0  0  0
   39.6940   26.7780   40.4530 H   0  0  0  0  0  0  0  0  0  0  0  0
   38.8370   29.0110   43.9420 H   0  0  0  0  0  0  0  0  0  0  0  0
   35.7290   30.2770   41.6240 F   0  0  0  0  0  0  0  0  0  0  0  0
   35.7220   29.9860   40.3040 C   0  0  0  0  0  0  0  0  0  0  0  0
   36.5930   30.7180   39.5080 C   0  0  0  0  0  0  0  0  0  0  0  0
   36.5350   30.3660   38.1530 C   0  0  0  0  0  0  0  0  0  0  0  0
   37.2050   30.9130   37.4700 H   0  0  0  0  0  0  0  0  0  0  0  0
   35.7310   29.4110   37.5980 C   0  0  0  0  0  0  0  0  0  0  0  0
   35.7760   29.2280   36.5290 H   0  0  0  0  0  0  0  0  0  0  0  0
   34.8970   28.7260   38.4330 C   0  0  0  0  0  3  0  0  0  0  0  0
   34.8930   29.0130   39.7810 C   0  0  0  0  0  3  0  0  0  0  0  0
  1  7  1  6  0  0  0
  1  2  1  0  0  0  0
  1 17  1  0  0  0  0
  2  3  1  0  0  0  0
  2  8  1  0  0  0  0
  3 10  1  0  0  0  0
  3 11  1  0  0  0  0
  4 12  1  0  0  0  0
  4  3  1  0  0  0  0
  5  6  1  0  0  0  0
  5  4  1  0  0  0  0
  6  1  1  0  0  0  0
  6 16  1  1  0  0  0
  9  2  1  0  0  0  0
 13  4  1  0  0  0  0
 14  5  1  0  0  0  0
 15  5  1  0  0  0  0
 17 22  1  0  0  0  0
 18 17  2  0  0  0  0
 18 19  1  0  0  0  0
 19 20  2  0  0  0  0
 20 21  1  0  0  0  0
 21 25  1  0  0  0  0
 22 21  2  0  0  0  0
 23 18  1  0  0  0  0
 24 19  1  0  0  0  0
 27 26  1  0  0  0  0
 28  6  1  0  0  0  0
 28 27  2  0  0  0  0
 29 28  1  0  0  0  0
 30 29  1  0  0  0  0
 31 29  2  0  0  0  0
 31 33  1  0  0  0  0
 32 31  1  0  0  0  0
 33 34  2  0  0  0  0
 34 27  1  0  0  0  0
M  END
>  <minimizedAffinity>
-5.20519543

$$$$

 OpenBabel03242511553D

 34 36  0  0  1  0  0  0  0  0999 V2000
   37.6510   28.2310   40.7260 C   0  0  2  0  0  0  0  0  0  0  0  0
   37.2160   27.0120   41.4390 C   0  0  0  0  0  0  0  0  0  0  0  0
   36.7040   27.2490   42.8160 C   0  0  0  0  0  0  0  0  0  0  0  0
   37.6510   28.0600   43.6790 C   0  0  0  0  0  0  0  0  0  0  0  0
   38.3610   29.1610   42.9340 C   0  0  0  0  0  0  0  0  0  0  0  0
   37.6490   29.4560   41.6360 C   0  0  1  0  0  0  0  0  0  0  0  0
   38.6660   28.0570   40.3110 H   0  0  0  0  0  0  0  0  0  0  0  0
   36.4180   26.4680   40.8900 H   0  0  0  0  0  0  0  0  0  0  0  0
   38.0440   26.2520   41.5270 H   0  0  0  0  0  0  0  0  0  0  0  0
   36.6430   26.2300   43.3000 H   0  0  0  0  0  0  0  0  0  0  0  0
   35.7090   27.6670   42.9210 H   0  0  0  0  0  0  0  0  0  0  0  0
   37.0590   28.5010   44.5230 H   0  0  0  0  0  0  0  0  0  0  0  0
   38.3720   27.3810   44.1600 H   0  0  0  0  0  0  0  0  0  0  0  0
   38.3640   30.0810   43.5290 H   0  0  0  0  0  0  0  0  0  0  0  0
   39.4050   28.8210   42.7680 H   0  0  0  0  0  0  0  0  0  0  0  0
   36.5790   29.5490   41.9260 H   0  0  0  0  0  0  0  0  0  0  0  0
   36.7690   28.5480   39.5850 C   0  0  0  0  0  0  0  0  0  0  0  0
   35.3950   28.6480   39.8740 C   0  0  0  0  0  0  0  0  0  0  0  0
   34.4810   28.9510   38.8560 C   0  0  0  0  0  0  0  0  0  0  0  0
   35.0130   29.1360   37.5990 N   0  0  0  0  0  0  0  0  0  0  0  0
   36.3390   29.0340   37.3480 C   0  0  0  0  0  0  0  0  0  0  0  0
   37.2060   28.7420   38.3400 N   0  0  0  0  0  0  0  0  0  0  0  0
   34.9130   28.5160   40.8330 H   0  0  0  0  0  0  0  0  0  0  0  0
   33.4170   29.0360   39.0310 H   0  0  0  0  0  0  0  0  0  0  0  0
   36.6560   29.1990   36.3150 H   0  0  0  0  0  0  0  0  0  0  0  0
   35.9650   31.6840   41.0020 F   0  0  0  0  0  0  0  0  0  0  0  0
   37.2670   31.7670   40.6480 C   0  0  0  0  0  0  0  0  0  0  0  0
   38.0620   30.6750   40.9670 C   0  0  0  0  0  0  0  0  0  0  0  0
   39.3980   30.8260   40.5730 C   0  0  0  0  0  0  0  0  0  0  0  0
   40.0790   29.9910   40.7980 H   0  0  0  0  0  0  0  0  0  0  0  0
   39.9370   31.9090   39.9360 C   0  0  0  0  0  0  0  0  0  0  0  0
   40.9910   31.9100   39.6810 H   0  0  0  0  0  0  0  0  0  0  0  0
   39.1040   32.9510   39.6500 C   0  0  0  0  0  3  0  0  0  0  0  0
   37.7740   32.8800   40.0050 C   0  0  0  0  0  3  0  0  0  0  0  0
  1  7  1  6  0  0  0
  1  2  1  0  0  0  0
  1  6  1  0  0  0  0
  2  9  1  0  0  0  0
  2  3  1  0  0  0  0
  3 11  1  0  0  0  0
  3 10  1  0  0  0  0
  3  4  1  0  0  0  0
  4 13  1  0  0  0  0
  4 12  1  0  0  0  0
  5 14  1  0  0  0  0
  5  4  1  0  0  0  0
  6 16  1  1  0  0  0
  6  5  1  0  0  0  0
  8  2  1  0  0  0  0
 15  5  1  0  0  0  0
 17 18  1  0  0  0  0
 17  1  1  0  0  0  0
 18 23  1  0  0  0  0
 19 24  1  0  0  0  0
 19 18  2  0  0  0  0
 20 19  1  0  0  0  0
 21 20  2  0  0  0  0
 21 22  1  0  0  0  0
 22 17  2  0  0  0  0
 25 21  1  0  0  0  0
 27 28  1  0  0  0  0
 27 26  1  0  0  0  0
 28  6  1  0  0  0  0
 29 30  1  0  0  0  0
 29 28  2  0  0  0  0
 31 29  1  0  0  0  0
 32 31  1  0  0  0  0
 33 31  2  0  0  0  0
 33 34  1  0  0  0  0
 34 27  2  0  0  0  0
M  END
>  <minimizedAffinity>
-5.20121336

$$$$

 OpenBabel03242511553D

 34 36  0  0  1  0  0  0  0  0999 V2000
   37.0080   29.4690   39.0340 C   0  0  2  0  0  0  0  0  0  0  0  0
   36.9490   30.4210   37.9060 C   0  0  0  0  0  0  0  0  0  0  0  0
   37.5700   31.7460   38.1810 C   0  0  0  0  0  0  0  0  0  0  0  0
   37.0620   32.3970   39.4530 C   0  0  0  0  0  0  0  0  0  0  0  0
   36.8200   31.4240   40.5790 C   0  0  0  0  0  0  0  0  0  0  0  0
   37.5360   30.1230   40.3070 C   0  0  1  0  0  0  0  0  0  0  0  0
   35.9910   29.0550   39.2030 H   0  0  0  0  0  0  0  0  0  0  0  0
   37.4390   30.0210   36.9930 H   0  0  0  0  0  0  0  0  0  0  0  0
   35.8900   30.6220   37.5720 H   0  0  0  0  0  0  0  0  0  0  0  0
   37.2380   32.4200   37.3360 H   0  0  0  0  0  0  0  0  0  0  0  0
   38.6520   31.8080   38.1780 H   0  0  0  0  0  0  0  0  0  0  0  0
   37.8150   33.1620   39.7740 H   0  0  0  0  0  0  0  0  0  0  0  0
   36.1510   32.9710   39.2250 H   0  0  0  0  0  0  0  0  0  0  0  0
   37.2100   31.8290   41.5190 H   0  0  0  0  0  0  0  0  0  0  0  0
   35.7210   31.2860   40.6590 H   0  0  0  0  0  0  0  0  0  0  0  0
   38.5650   30.4330   40.0190 H   0  0  0  0  0  0  0  0  0  0  0  0
   37.8950   28.3240   38.7450 C   0  0  0  0  0  0  0  0  0  0  0  0
   37.2780   27.0590   38.7090 C   0  0  0  0  0  0  0  0  0  0  0  0
   38.0370   25.9130   38.4370 C   0  0  0  0  0  0  0  0  0  0  0  0
   39.3820   26.1160   38.2150 N   0  0  0  0  0  0  0  0  0  0  0  0
   39.9490   27.3430   38.2560 C   0  0  0  0  0  0  0  0  0  0  0  0
   39.2040   28.4370   38.5190 N   0  0  0  0  0  0  0  0  0  0  0  0
   36.2340   26.8310   38.8720 H   0  0  0  0  0  0  0  0  0  0  0  0
   37.6080   24.9210   38.4000 H   0  0  0  0  0  0  0  0  0  0  0  0
   41.0250   27.3920   38.0660 H   0  0  0  0  0  0  0  0  0  0  0  0
   35.3840   28.5600   41.3690 F   0  0  0  0  0  0  0  0  0  0  0  0
   36.5900   28.4470   41.9680 C   0  0  0  0  0  0  0  0  0  0  0  0
   37.6170   29.2140   41.4340 C   0  0  0  0  0  0  0  0  0  0  0  0
   38.8380   29.0500   42.1010 C   0  0  0  0  0  0  0  0  0  0  0  0
   39.6920   29.6340   41.7240 H   0  0  0  0  0  0  0  0  0  0  0  0
   39.0720   28.2360   43.1740 C   0  0  0  0  0  0  0  0  0  0  0  0
   40.0660   28.1920   43.6070 H   0  0  0  0  0  0  0  0  0  0  0  0
   38.0220   27.5060   43.6520 C   0  0  0  0  0  3  0  0  0  0  0  0
   36.7860   27.6120   43.0510 C   0  0  0  0  0  3  0  0  0  0  0  0
  1  7  1  1  0  0  0
  1  6  1  0  0  0  0
  2  3  1  0  0  0  0
  2  1  1  0  0  0  0
  3  4  1  0  0  0  0
  4 12  1  0  0  0  0
  4  5  1  0  0  0  0
  5 15  1  0  0  0  0
  5 14  1  0  0  0  0
  6 16  1  6  0  0  0
  6  5  1  0  0  0  0
  6 28  1  0  0  0  0
  8  2  1  0  0  0  0
  9  2  1  0  0  0  0
 10  3  1  0  0  0  0
 11  3  1  0  0  0  0
 13  4  1  0  0  0  0
 17  1  1  0  0  0  0
 18 17  1  0  0  0  0
 18 23  1  0  0  0  0
 19 18  2  0  0  0  0
 20 21  2  0  0  0  0
 20 19  1  0  0  0  0
 21 22  1  0  0  0  0
 22 17  2  0  0  0  0
 24 19  1  0  0  0  0
 25 21  1  0  0  0  0
 26 27  1  0  0  0  0
 27 34  1  0  0  0  0
 28 27  2  0  0  0  0
 28 29  1  0  0  0  0
 29 31  2  0  0  0  0
 30 29  1  0  0  0  0
 31 32  1  0  0  0  0
 31 33  1  0  0  0  0
 34 33  2  0  0  0  0
M  END
>  <minimizedAffinity>
-5.07553577

$$$$
