
 OpenBabel03252501303D

 38 40  0  0  0  0  0  0  0  0999 V2000
   46.1760   30.5040   45.5090 C   0  0  0  0  0  0  0  0  0  0  0  0
   46.8140   30.3230   44.3060 C   0  0  0  0  0  0  0  0  0  0  0  0
   47.3350   31.3380   43.5630 C   0  0  0  0  0  0  0  0  0  0  0  0
   47.2240   32.6010   44.0220 C   0  0  0  0  0  0  0  0  0  0  0  0
   46.5830   32.8260   45.2430 C   0  0  0  0  0  0  0  0  0  0  0  0
   46.0640   31.7840   45.9780 C   0  0  0  0  0  0  0  0  0  0  0  0
   46.8700   29.2680   43.9880 H   0  0  0  0  0  0  0  0  0  0  0  0
   47.8060   31.0220   42.6410 H   0  0  0  0  0  0  0  0  0  0  0  0
   46.5880   33.9000   45.4520 H   0  0  0  0  0  0  0  0  0  0  0  0
   49.8970   32.5950   43.2640 F   0  0  0  0  0  0  0  0  0  0  0  0
   49.1420   33.6290   42.7930 C   0  0  0  0  0  0  0  0  0  0  0  0
   47.8110   33.6500   43.1610 C   0  0  0  0  0  0  0  0  0  0  0  0
   47.0090   34.6990   42.6940 C   0  0  0  0  0  0  0  0  0  0  0  0
   45.9730   34.7280   42.9700 H   0  0  0  0  0  0  0  0  0  0  0  0
   47.5740   35.6670   41.8900 C   0  0  0  0  0  0  0  0  0  0  0  0
   46.9070   36.4700   41.5490 H   0  0  0  0  0  0  0  0  0  0  0  0
   48.9220   35.6170   41.5390 C   0  0  0  0  0  0  0  0  0  0  0  0
   49.7330   34.5790   41.9960 C   0  0  0  0  0  0  0  0  0  0  0  0
   46.3860   32.3910   48.2970 C   0  0  0  0  0  0  0  0  0  0  0  0
   47.5480   31.9780   48.6680 O   0  0  0  0  0  0  0  0  0  0  0  0
   45.5090   32.3730   47.1600 N   0  0  0  0  0  0  0  0  0  0  0  0
   46.2550   32.8330   49.2850 H   0  0  0  0  0  0  0  0  0  0  0  0
   44.5920   32.8070   47.4020 H   0  0  0  0  0  0  0  0  0  0  0  0
   45.5600   29.5130   46.3890 C   0  0  0  0  0  0  0  0  0  0  0  0
   46.3780   28.8520   46.7440 H   0  0  0  0  0  0  0  0  0  0  0  0
   45.1500   29.9630   47.3380 H   0  0  0  0  0  0  0  0  0  0  0  0
   44.4470   28.7620   45.6810 C   0  0  0  0  0  0  0  0  0  0  0  0
   44.8180   28.4030   44.6970 H   0  0  0  0  0  0  0  0  0  0  0  0
   43.6130   29.4690   45.4630 H   0  0  0  0  0  0  0  0  0  0  0  0
   44.2880   26.3500   48.4400 C   0  0  0  0  0  0  0  0  0  0  0  0
   43.1820   25.5420   48.0710 C   0  0  0  0  0  0  0  0  0  0  0  0
   42.5310   25.8710   46.8720 C   0  0  0  0  0  0  0  0  0  0  0  0
   42.9620   26.9040   46.1400 N   0  0  0  0  0  0  0  0  0  0  0  0
   44.0240   27.6420   46.5410 C   0  0  0  0  0  0  0  0  0  0  0  0
   44.6740   27.3880   47.6480 N   0  0  0  0  0  0  0  0  0  0  0  0
   44.8320   26.1450   49.3570 H   0  0  0  0  0  0  0  0  0  0  0  0
   42.8880   24.7220   48.7100 H   0  0  0  0  0  0  0  0  0  0  0  0
   41.6760   25.2590   46.5700 H   0  0  0  0  0  0  0  0  0  0  0  0
  1  6  1  0  0  0  0
  1 24  1  0  0  0  0
  2  1  2  0  0  0  0
  3  4  2  0  0  0  0
  3  2  1  0  0  0  0
  4  5  1  0  0  0  0
  5  9  1  0  0  0  0
  5  6  2  0  0  0  0
  6 21  1  0  0  0  0
  7  2  1  0  0  0  0
  8  3  1  0  0  0  0
 11 12  1  0  0  0  0
 11 10  1  0  0  0  0
 12  4  1  0  0  0  0
 13 14  1  0  0  0  0
 13 12  2  0  0  0  0
 15 13  1  0  0  0  0
 16 15  1  0  0  0  0
 17 15  2  0  0  0  0
 17 18  1  0  0  0  0
 18 11  2  0  0  0  0
 19 20  2  0  0  0  0
 19 22  1  0  0  0  0
 21 23  1  0  0  0  0
 21 19  1  0  0  0  0
 24 25  1  0  0  0  0
 24 26  1  0  0  0  0
 27 24  1  0  0  0  0
 27 34  1  0  0  0  0
 28 27  1  0  0  0  0
 29 27  1  0  0  0  0
 30 36  1  0  0  0  0
 31 30  1  0  0  0  0
 31 37  1  0  0  0  0
 32 31  2  0  0  0  0
 33 34  2  0  0  0  0
 33 32  1  0  0  0  0
 34 35  1  0  0  0  0
 35 30  2  0  0  0  0
 38 32  1  0  0  0  0
M  END
>  <minimizedAffinity>
-5.07500362

>  <minimizedRMSD>
8.30524254

$$$$
