
 OpenBabel03252506193D

 23 24  0  0  0  0  0  0  0  0999 V2000
   37.2190   27.1950   41.4530 C   0  0  0  0  0  0  0  0  0  0  0  0
   37.1640   26.9970   42.8540 C   0  0  0  0  0  0  0  0  0  0  0  0
   37.4140   28.0980   43.6790 C   0  0  0  0  0  0  0  0  0  0  0  0
   37.6940   29.2900   43.1090 N   0  0  0  0  0  0  0  0  0  0  0  0
   37.7390   29.4520   41.7560 C   0  0  0  0  0  0  0  0  0  0  0  0
   37.4990   28.3960   40.9640 N   0  0  0  0  0  0  0  0  0  0  0  0
   36.9320   26.0020   43.2080 H   0  0  0  0  0  0  0  0  0  0  0  0
   37.3720   27.9440   44.7350 H   0  0  0  0  0  0  0  0  0  0  0  0
   35.7860   30.9130   40.3850 F   0  0  0  0  0  0  0  0  0  0  0  0
   37.0390   31.4320   40.5020 C   0  0  0  0  0  0  0  0  0  0  0  0
   38.0430   30.7550   41.1690 C   0  0  0  0  0  0  0  0  0  0  0  0
   39.3170   31.2860   41.2870 C   0  0  0  0  0  0  0  0  0  0  0  0
   40.1240   30.7750   41.8060 H   0  0  0  0  0  0  0  0  0  0  0  0
   39.5590   32.5270   40.7130 C   0  0  0  0  0  0  0  0  0  0  0  0
   40.5310   32.9730   40.7810 H   0  0  0  0  0  0  0  0  0  0  0  0
   38.5670   33.2100   40.0480 C   0  0  0  0  0  3  0  0  0  0  0  0
   37.3050   32.6630   39.9410 C   0  0  0  0  0  3  0  0  0  0  0  0
   36.9600   26.0530   40.5870 C   0  0  0  0  0  3  0  0  0  0  0  0
   36.9530   24.8450   41.1040 C   0  0  0  0  0  3  0  0  0  0  0  0
   36.6950   23.6400   40.2720 C   0  0  0  0  0  0  0  0  0  0  0  0
   37.5240   23.4270   39.5670 H   0  0  0  0  0  0  0  0  0  0  0  0
   36.4300   22.7730   40.8990 H   0  0  0  0  0  0  0  0  0  0  0  0
   35.7860   23.8800   39.6490 H   0  0  0  0  0  0  0  0  0  0  0  0
  1  2  1  0  0  0  0
  2  7  1  0  0  0  0
  2  3  2  0  0  0  0
  3  8  1  0  0  0  0
  4  3  1  0  0  0  0
  5  4  2  0  0  0  0
  6  1  2  0  0  0  0
  6  5  1  0  0  0  0
  9 10  1  0  0  0  0
 10 11  1  0  0  0  0
 11 12  2  0  0  0  0
 11  5  1  0  0  0  0
 12 13  1  0  0  0  0
 14 15  1  0  0  0  0
 14 12  1  0  0  0  0
 16 14  2  0  0  0  0
 17 16  1  0  0  0  0
 17 10  2  0  0  0  0
 18 19  2  0  0  0  0
 18  1  1  0  0  0  0
 20 22  1  0  0  0  0
 20 19  1  0  0  0  0
 21 20  1  0  0  0  0
 23 20  1  0  0  0  0
M  END
>  <minimizedAffinity>
-4.92553186

$$$$

 OpenBabel03252506193D

 23 24  0  0  0  0  0  0  0  0999 V2000
   37.3470   30.9160   38.2570 C   0  0  0  0  0  0  0  0  0  0  0  0
   37.2840   32.2980   38.5640 C   0  0  0  0  0  0  0  0  0  0  0  0
   37.3400   32.6710   39.9110 C   0  0  0  0  0  0  0  0  0  0  0  0
   37.4520   31.7070   40.8500 N   0  0  0  0  0  0  0  0  0  0  0  0
   37.5110   30.3830   40.5260 C   0  0  0  0  0  0  0  0  0  0  0  0
   37.4580   30.0260   39.2330 N   0  0  0  0  0  0  0  0  0  0  0  0
   37.1950   32.9880   37.7370 H   0  0  0  0  0  0  0  0  0  0  0  0
   37.2910   33.7130   40.1370 H   0  0  0  0  0  0  0  0  0  0  0  0
   35.3600   28.7170   41.1760 F   0  0  0  0  0  0  0  0  0  0  0  0
   36.5360   28.5690   41.8450 C   0  0  0  0  0  0  0  0  0  0  0  0
   37.6330   29.3650   41.5650 C   0  0  0  0  0  0  0  0  0  0  0  0
   38.8290   29.2120   42.2470 C   0  0  0  0  0  0  0  0  0  0  0  0
   39.7040   29.8230   42.0460 H   0  0  0  0  0  0  0  0  0  0  0  0
   38.8960   28.2310   43.2270 C   0  0  0  0  0  0  0  0  0  0  0  0
   39.8020   28.0800   43.7780 H   0  0  0  0  0  0  0  0  0  0  0  0
   37.8120   27.4330   43.5130 C   0  0  0  0  0  3  0  0  0  0  0  0
   36.6300   27.6010   42.8230 C   0  0  0  0  0  3  0  0  0  0  0  0
   37.2890   30.5210   36.8570 C   0  0  0  0  0  3  0  0  0  0  0  0
   36.8160   29.3350   36.5440 C   0  0  0  0  0  3  0  0  0  0  0  0
   36.7310   28.8740   35.1330 C   0  0  0  0  0  0  0  0  0  0  0  0
   37.7300   28.6890   34.6880 H   0  0  0  0  0  0  0  0  0  0  0  0
   36.0510   28.0130   35.0350 H   0  0  0  0  0  0  0  0  0  0  0  0
   36.2650   29.7230   34.5550 H   0  0  0  0  0  0  0  0  0  0  0  0
  1  2  2  0  0  0  0
  1  6  1  0  0  0  0
  2  3  1  0  0  0  0
  3  8  1  0  0  0  0
  3  4  2  0  0  0  0
  5  4  1  0  0  0  0
  5 11  1  0  0  0  0
  6  5  2  0  0  0  0
  7  2  1  0  0  0  0
  9 10  1  0  0  0  0
 10 17  1  0  0  0  0
 11 10  2  0  0  0  0
 11 12  1  0  0  0  0
 12 14  2  0  0  0  0
 13 12  1  0  0  0  0
 14 16  1  0  0  0  0
 14 15  1  0  0  0  0
 17 16  2  0  0  0  0
 18  1  1  0  0  0  0
 19 18  2  0  0  0  0
 20 19  1  0  0  0  0
 21 20  1  0  0  0  0
 22 20  1  0  0  0  0
 23 20  1  0  0  0  0
M  END
>  <minimizedAffinity>
-4.89404345

$$$$

 OpenBabel03252506193D

 23 24  0  0  0  0  0  0  0  0999 V2000
   35.8220   28.5520   39.7470 C   0  0  0  0  0  0  0  0  0  0  0  0
   35.6690   29.8840   40.2050 C   0  0  0  0  0  0  0  0  0  0  0  0
   36.3820   30.2680   41.3450 C   0  0  0  0  0  0  0  0  0  0  0  0
   37.1790   29.3620   41.9520 N   0  0  0  0  0  0  0  0  0  0  0  0
   37.3080   28.0860   41.4880 C   0  0  0  0  0  0  0  0  0  0  0  0
   36.6230   27.7180   40.3940 N   0  0  0  0  0  0  0  0  0  0  0  0
   35.0060   30.5300   39.6470 H   0  0  0  0  0  0  0  0  0  0  0  0
   36.2630   31.2730   41.6870 H   0  0  0  0  0  0  0  0  0  0  0  0
   39.2990   28.9440   43.2560 F   0  0  0  0  0  0  0  0  0  0  0  0
   39.1460   27.6100   43.0290 C   0  0  0  0  0  0  0  0  0  0  0  0
   38.1780   27.1300   42.1660 C   0  0  0  0  0  0  0  0  0  0  0  0
   38.0240   25.7720   41.9380 C   0  0  0  0  0  0  0  0  0  0  0  0
   37.2720   25.3680   41.2660 H   0  0  0  0  0  0  0  0  0  0  0  0
   38.8760   24.9010   42.6050 C   0  0  0  0  0  0  0  0  0  0  0  0
   38.7900   23.8430   42.4570 H   0  0  0  0  0  0  0  0  0  0  0  0
   39.8410   25.3680   43.4670 C   0  0  0  0  0  3  0  0  0  0  0  0
   39.9790   26.7240   43.6800 C   0  0  0  0  0  3  0  0  0  0  0  0
   35.0820   28.1450   38.5620 C   0  0  0  0  0  3  0  0  0  0  0  0
   34.0570   28.8660   38.1650 C   0  0  0  0  0  3  0  0  0  0  0  0
   33.2630   28.5020   36.9620 C   0  0  0  0  0  0  0  0  0  0  0  0
   32.6660   27.5790   37.1130 H   0  0  0  0  0  0  0  0  0  0  0  0
   32.6570   29.3530   36.6120 H   0  0  0  0  0  0  0  0  0  0  0  0
   34.0120   28.2800   36.1490 H   0  0  0  0  0  0  0  0  0  0  0  0
  1  2  2  0  0  0  0
  1  6  1  0  0  0  0
  2  3  1  0  0  0  0
  3  8  1  0  0  0  0
  3  4  2  0  0  0  0
  5  4  1  0  0  0  0
  5 11  1  0  0  0  0
  6  5  2  0  0  0  0
  7  2  1  0  0  0  0
 10  9  1  0  0  0  0
 10 17  1  0  0  0  0
 11 10  2  0  0  0  0
 12 11  1  0  0  0  0
 12 14  2  0  0  0  0
 13 12  1  0  0  0  0
 14 16  1  0  0  0  0
 15 14  1  0  0  0  0
 16 17  2  0  0  0  0
 18  1  1  0  0  0  0
 19 18  2  0  0  0  0
 20 21  1  0  0  0  0
 20 19  1  0  0  0  0
 22 20  1  0  0  0  0
 23 20  1  0  0  0  0
M  END
>  <minimizedAffinity>
-4.80918789

$$$$

 OpenBabel03252506193D

 23 24  0  0  0  0  0  0  0  0999 V2000
   37.2200   27.1820   41.4520 C   0  0  0  0  0  0  0  0  0  0  0  0
   37.1780   26.9800   42.8540 C   0  0  0  0  0  0  0  0  0  0  0  0
   37.4010   28.0860   43.6790 C   0  0  0  0  0  0  0  0  0  0  0  0
   37.6450   29.2870   43.1100 N   0  0  0  0  0  0  0  0  0  0  0  0
   37.6790   29.4520   41.7560 C   0  0  0  0  0  0  0  0  0  0  0  0
   37.4630   28.3900   40.9640 N   0  0  0  0  0  0  0  0  0  0  0  0
   36.9750   25.9790   43.2070 H   0  0  0  0  0  0  0  0  0  0  0  0
   37.3690   27.9300   44.7350 H   0  0  0  0  0  0  0  0  0  0  0  0
   40.1900   30.6620   41.9940 F   0  0  0  0  0  0  0  0  0  0  0  0
   39.2030   31.3140   41.3200 C   0  0  0  0  0  0  0  0  0  0  0  0
   37.9430   30.7630   41.1700 C   0  0  0  0  0  0  0  0  0  0  0  0
   36.9410   31.4280   40.4830 C   0  0  0  0  0  0  0  0  0  0  0  0
   35.9440   31.0180   40.3510 H   0  0  0  0  0  0  0  0  0  0  0  0
   37.2400   32.6720   39.9440 C   0  0  0  0  0  0  0  0  0  0  0  0
   36.4940   33.2210   39.4050 H   0  0  0  0  0  0  0  0  0  0  0  0
   38.4900   33.2290   40.0860 C   0  0  0  0  0  3  0  0  0  0  0  0
   39.4740   32.5510   40.7740 C   0  0  0  0  0  3  0  0  0  0  0  0
   36.9880   26.0340   40.5870 C   0  0  0  0  0  3  0  0  0  0  0  0
   36.9690   24.8290   41.1100 C   0  0  0  0  0  3  0  0  0  0  0  0
   36.7370   23.6180   40.2780 C   0  0  0  0  0  0  0  0  0  0  0  0
   37.5860   23.4030   39.5980 H   0  0  0  0  0  0  0  0  0  0  0  0
   36.4570   22.7540   40.9020 H   0  0  0  0  0  0  0  0  0  0  0  0
   35.8450   23.8520   39.6280 H   0  0  0  0  0  0  0  0  0  0  0  0
  1  2  1  0  0  0  0
  2  7  1  0  0  0  0
  2  3  2  0  0  0  0
  3  8  1  0  0  0  0
  4  3  1  0  0  0  0
  5  4  2  0  0  0  0
  6  1  2  0  0  0  0
  6  5  1  0  0  0  0
 10  9  1  0  0  0  0
 11 10  1  0  0  0  0
 11  5  1  0  0  0  0
 12 11  2  0  0  0  0
 13 12  1  0  0  0  0
 14 16  2  0  0  0  0
 14 12  1  0  0  0  0
 15 14  1  0  0  0  0
 16 17  1  0  0  0  0
 17 10  2  0  0  0  0
 18 19  2  0  0  0  0
 18  1  1  0  0  0  0
 20 22  1  0  0  0  0
 20 19  1  0  0  0  0
 21 20  1  0  0  0  0
 23 20  1  0  0  0  0
M  END
>  <minimizedAffinity>
-4.78523159

$$$$

 OpenBabel03252506193D

 23 24  0  0  0  0  0  0  0  0999 V2000
   39.4950   31.8190   39.5260 C   0  0  0  0  0  0  0  0  0  0  0  0
   38.6060   32.8990   39.2980 C   0  0  0  0  0  0  0  0  0  0  0  0
   37.3370   32.8330   39.8800 C   0  0  0  0  0  0  0  0  0  0  0  0
   37.0170   31.7540   40.6270 N   0  0  0  0  0  0  0  0  0  0  0  0
   37.8940   30.7290   40.8300 C   0  0  0  0  0  0  0  0  0  0  0  0
   39.1120   30.7930   40.2720 N   0  0  0  0  0  0  0  0  0  0  0  0
   38.9610   33.7150   38.6840 H   0  0  0  0  0  0  0  0  0  0  0  0
   36.6700   33.6480   39.7060 H   0  0  0  0  0  0  0  0  0  0  0  0
   39.0560   30.2880   43.3370 F   0  0  0  0  0  0  0  0  0  0  0  0
   38.1260   29.4070   42.8750 C   0  0  0  0  0  0  0  0  0  0  0  0
   37.5190   29.5760   41.6440 C   0  0  0  0  0  0  0  0  0  0  0  0
   36.5730   28.6780   41.1770 C   0  0  0  0  0  0  0  0  0  0  0  0
   36.0810   28.7870   40.2140 H   0  0  0  0  0  0  0  0  0  0  0  0
   36.2500   27.5970   41.9860 C   0  0  0  0  0  0  0  0  0  0  0  0
   35.5230   26.8780   41.6620 H   0  0  0  0  0  0  0  0  0  0  0  0
   36.8470   27.4200   43.2130 C   0  0  0  0  0  3  0  0  0  0  0  0
   37.7860   28.3250   43.6590 C   0  0  0  0  0  3  0  0  0  0  0  0
   40.8180   31.8810   38.9220 C   0  0  0  0  0  3  0  0  0  0  0  0
   41.0030   32.6250   37.8540 C   0  0  0  0  0  3  0  0  0  0  0  0
   42.3310   32.7280   37.1930 C   0  0  0  0  0  0  0  0  0  0  0  0
   42.6300   31.7850   36.6930 H   0  0  0  0  0  0  0  0  0  0  0  0
   42.3750   33.6020   36.5220 H   0  0  0  0  0  0  0  0  0  0  0  0
   43.0760   32.9150   38.0180 H   0  0  0  0  0  0  0  0  0  0  0  0
  1  6  1  0  0  0  0
  2  1  2  0  0  0  0
  2  3  1  0  0  0  0
  3  4  2  0  0  0  0
  4  5  1  0  0  0  0
  5 11  1  0  0  0  0
  6  5  2  0  0  0  0
  7  2  1  0  0  0  0
  8  3  1  0  0  0  0
 10  9  1  0  0  0  0
 10 17  1  0  0  0  0
 11 10  2  0  0  0  0
 12 11  1  0  0  0  0
 12 14  2  0  0  0  0
 13 12  1  0  0  0  0
 14 16  1  0  0  0  0
 15 14  1  0  0  0  0
 16 17  2  0  0  0  0
 18  1  1  0  0  0  0
 19 18  2  0  0  0  0
 20 19  1  0  0  0  0
 20 23  1  0  0  0  0
 21 20  1  0  0  0  0
 22 20  1  0  0  0  0
M  END
>  <minimizedAffinity>
-4.7132287

$$$$

 OpenBabel03252506193D

 23 24  0  0  0  0  0  0  0  0999 V2000
   36.7780   27.9430   41.3640 C   0  0  0  0  0  0  0  0  0  0  0  0
   37.0430   29.1640   42.0320 C   0  0  0  0  0  0  0  0  0  0  0  0
   36.6010   30.3460   41.4290 C   0  0  0  0  0  0  0  0  0  0  0  0
   35.9480   30.2720   40.2490 N   0  0  0  0  0  0  0  0  0  0  0  0
   35.7070   29.0820   39.6290 C   0  0  0  0  0  0  0  0  0  0  0  0
   36.1300   27.9480   40.2070 N   0  0  0  0  0  0  0  0  0  0  0  0
   37.5730   29.1130   42.9720 H   0  0  0  0  0  0  0  0  0  0  0  0
   36.8030   31.2640   41.9360 H   0  0  0  0  0  0  0  0  0  0  0  0
   32.9160   29.2420   39.5200 F   0  0  0  0  0  0  0  0  0  0  0  0
   33.6170   29.1170   38.3600 C   0  0  0  0  0  0  0  0  0  0  0  0
   34.9970   29.0350   38.3540 C   0  0  0  0  0  0  0  0  0  0  0  0
   35.7080   28.9080   37.1710 C   0  0  0  0  0  0  0  0  0  0  0  0
   36.7920   28.8420   37.1380 H   0  0  0  0  0  0  0  0  0  0  0  0
   34.9890   28.8670   35.9840 C   0  0  0  0  0  0  0  0  0  0  0  0
   35.5000   28.7700   35.0460 H   0  0  0  0  0  0  0  0  0  0  0  0
   33.6160   28.9500   35.9780 C   0  0  0  0  0  3  0  0  0  0  0  0
   32.9270   29.0750   37.1660 C   0  0  0  0  0  3  0  0  0  0  0  0
   37.2360   26.7080   41.9850 C   0  0  0  0  0  3  0  0  0  0  0  0
   36.9760   25.5600   41.4000 C   0  0  0  0  0  3  0  0  0  0  0  0
   37.4160   24.2660   41.9850 C   0  0  0  0  0  0  0  0  0  0  0  0
   36.8690   24.0150   42.9160 H   0  0  0  0  0  0  0  0  0  0  0  0
   37.3850   23.4590   41.2360 H   0  0  0  0  0  0  0  0  0  0  0  0
   38.4990   24.4050   42.2680 H   0  0  0  0  0  0  0  0  0  0  0  0
  1 18  1  0  0  0  0
  1  2  1  0  0  0  0
  2  7  1  0  0  0  0
  3  8  1  0  0  0  0
  3  2  2  0  0  0  0
  4  3  1  0  0  0  0
  5  6  1  0  0  0  0
  5  4  2  0  0  0  0
  6  1  2  0  0  0  0
 10  9  1  0  0  0  0
 11 10  1  0  0  0  0
 11  5  1  0  0  0  0
 12 11  2  0  0  0  0
 13 12  1  0  0  0  0
 14 12  1  0  0  0  0
 15 14  1  0  0  0  0
 16 14  2  0  0  0  0
 16 17  1  0  0  0  0
 17 10  2  0  0  0  0
 19 18  2  0  0  0  0
 19 20  1  0  0  0  0
 20 23  1  0  0  0  0
 20 21  1  0  0  0  0
 22 20  1  0  0  0  0
M  END
>  <minimizedAffinity>
-4.59215736

$$$$

 OpenBabel03252506193D

 23 24  0  0  0  0  0  0  0  0999 V2000
   34.8330   28.9430   38.2440 C   0  0  0  0  0  0  0  0  0  0  0  0
   35.7600   29.3420   37.2500 C   0  0  0  0  0  0  0  0  0  0  0  0
   37.1150   29.3720   37.5950 C   0  0  0  0  0  0  0  0  0  0  0  0
   37.4770   29.0220   38.8480 N   0  0  0  0  0  0  0  0  0  0  0  0
   36.5620   28.6410   39.7850 C   0  0  0  0  0  0  0  0  0  0  0  0
   35.2620   28.6110   39.4540 N   0  0  0  0  0  0  0  0  0  0  0  0
   35.3660   29.6030   36.2770 H   0  0  0  0  0  0  0  0  0  0  0  0
   37.8100   29.6740   36.8430 H   0  0  0  0  0  0  0  0  0  0  0  0
   37.2360   30.5840   41.6820 F   0  0  0  0  0  0  0  0  0  0  0  0
   37.3070   29.2700   42.0280 C   0  0  0  0  0  0  0  0  0  0  0  0
   36.9850   28.2670   41.1320 C   0  0  0  0  0  0  0  0  0  0  0  0
   37.0570   26.9300   41.4880 C   0  0  0  0  0  0  0  0  0  0  0  0
   36.8100   26.1230   40.8040 H   0  0  0  0  0  0  0  0  0  0  0  0
   37.4650   26.6240   42.7800 C   0  0  0  0  0  0  0  0  0  0  0  0
   37.5350   25.6020   43.0960 H   0  0  0  0  0  0  0  0  0  0  0  0
   37.7870   27.6130   43.6800 C   0  0  0  0  0  3  0  0  0  0  0  0
   37.7080   28.9380   43.3050 C   0  0  0  0  0  3  0  0  0  0  0  0
   33.4210   28.9090   37.8920 C   0  0  0  0  0  3  0  0  0  0  0  0
   33.0590   29.1920   36.6600 C   0  0  0  0  0  3  0  0  0  0  0  0
   31.6330   29.1750   36.2400 C   0  0  0  0  0  0  0  0  0  0  0  0
   31.0490   30.0010   36.6930 H   0  0  0  0  0  0  0  0  0  0  0  0
   31.5420   29.1340   35.1420 H   0  0  0  0  0  0  0  0  0  0  0  0
   31.2030   28.2110   36.6360 H   0  0  0  0  0  0  0  0  0  0  0  0
  1  6  1  0  0  0  0
  2  3  1  0  0  0  0
  2  1  2  0  0  0  0
  3  4  2  0  0  0  0
  4  5  1  0  0  0  0
  5 11  1  0  0  0  0
  6  5  2  0  0  0  0
  7  2  1  0  0  0  0
  8  3  1  0  0  0  0
  9 10  1  0  0  0  0
 10 17  1  0  0  0  0
 11 12  1  0  0  0  0
 11 10  2  0  0  0  0
 12 14  2  0  0  0  0
 13 12  1  0  0  0  0
 14 15  1  0  0  0  0
 14 16  1  0  0  0  0
 17 16  2  0  0  0  0
 18  1  1  0  0  0  0
 19 18  2  0  0  0  0
 20 23  1  0  0  0  0
 20 19  1  0  0  0  0
 20 21  1  0  0  0  0
 22 20  1  0  0  0  0
M  END
>  <minimizedAffinity>
-4.53671694

$$$$

 OpenBabel03252506193D

 23 24  0  0  0  0  0  0  0  0999 V2000
   37.1750   29.5010   41.4870 C   0  0  0  0  0  0  0  0  0  0  0  0
   37.9280   29.4620   42.6870 C   0  0  0  0  0  0  0  0  0  0  0  0
   38.3640   28.2140   43.1430 C   0  0  0  0  0  0  0  0  0  0  0  0
   38.0510   27.1120   42.4270 N   0  0  0  0  0  0  0  0  0  0  0  0
   37.3240   27.1800   41.2750 C   0  0  0  0  0  0  0  0  0  0  0  0
   36.9070   28.3780   40.8370 N   0  0  0  0  0  0  0  0  0  0  0  0
   38.1230   30.4020   43.1830 H   0  0  0  0  0  0  0  0  0  0  0  0
   38.9300   28.1890   44.0470 H   0  0  0  0  0  0  0  0  0  0  0  0
   36.5280   24.8360   42.5770 F   0  0  0  0  0  0  0  0  0  0  0  0
   36.6150   24.8400   41.2190 C   0  0  0  0  0  0  0  0  0  0  0  0
   37.0030   25.9710   40.5220 C   0  0  0  0  0  0  0  0  0  0  0  0
   37.0910   25.9720   39.1400 C   0  0  0  0  0  0  0  0  0  0  0  0
   37.3920   26.8460   38.5690 H   0  0  0  0  0  0  0  0  0  0  0  0
   36.7760   24.7980   38.4680 C   0  0  0  0  0  0  0  0  0  0  0  0
   36.8300   24.7570   37.3990 H   0  0  0  0  0  0  0  0  0  0  0  0
   36.3880   23.6680   39.1510 C   0  0  0  0  0  3  0  0  0  0  0  0
   36.3080   23.6870   40.5270 C   0  0  0  0  0  3  0  0  0  0  0  0
   36.7180   30.7970   41.0060 C   0  0  0  0  0  3  0  0  0  0  0  0
   37.5260   31.5340   40.2790 C   0  0  0  0  0  3  0  0  0  0  0  0
   37.1180   32.8660   39.7590 C   0  0  0  0  0  0  0  0  0  0  0  0
   37.0140   33.6210   40.5640 H   0  0  0  0  0  0  0  0  0  0  0  0
   37.7810   33.1960   38.9430 H   0  0  0  0  0  0  0  0  0  0  0  0
   36.0940   32.7230   39.3070 H   0  0  0  0  0  0  0  0  0  0  0  0
  1  2  1  0  0  0  0
  2  3  2  0  0  0  0
  2  7  1  0  0  0  0
  3  8  1  0  0  0  0
  4  3  1  0  0  0  0
  5  4  2  0  0  0  0
  6  5  1  0  0  0  0
  6  1  2  0  0  0  0
 10  9  1  0  0  0  0
 11 10  2  0  0  0  0
 11  5  1  0  0  0  0
 12 11  1  0  0  0  0
 13 12  1  0  0  0  0
 14 12  2  0  0  0  0
 14 16  1  0  0  0  0
 15 14  1  0  0  0  0
 16 17  2  0  0  0  0
 17 10  1  0  0  0  0
 18  1  1  0  0  0  0
 19 18  2  0  0  0  0
 20 19  1  0  0  0  0
 20 21  1  0  0  0  0
 22 20  1  0  0  0  0
 23 20  1  0  0  0  0
M  END
>  <minimizedAffinity>
-4.51407242

$$$$

 OpenBabel03252506193D

 23 24  0  0  0  0  0  0  0  0999 V2000
   39.3360   31.6790   39.2840 C   0  0  0  0  0  0  0  0  0  0  0  0
   38.4530   32.7810   39.1660 C   0  0  0  0  0  0  0  0  0  0  0  0
   37.2620   32.7440   39.8990 C   0  0  0  0  0  0  0  0  0  0  0  0
   37.0090   31.6710   40.6790 N   0  0  0  0  0  0  0  0  0  0  0  0
   37.8780   30.6240   40.7740 C   0  0  0  0  0  0  0  0  0  0  0  0
   39.0210   30.6600   40.0710 N   0  0  0  0  0  0  0  0  0  0  0  0
   38.7500   33.5900   38.5140 H   0  0  0  0  0  0  0  0  0  0  0  0
   36.5990   33.5760   39.8070 H   0  0  0  0  0  0  0  0  0  0  0  0
   36.2360   28.5440   39.8750 F   0  0  0  0  0  0  0  0  0  0  0  0
   36.7580   28.4790   41.1310 C   0  0  0  0  0  0  0  0  0  0  0  0
   37.5770   29.4780   41.6270 C   0  0  0  0  0  0  0  0  0  0  0  0
   38.1060   29.4090   42.9050 C   0  0  0  0  0  0  0  0  0  0  0  0
   38.7520   30.1790   43.3180 H   0  0  0  0  0  0  0  0  0  0  0  0
   37.7910   28.3000   43.6790 C   0  0  0  0  0  0  0  0  0  0  0  0
   38.1800   28.2070   44.6730 H   0  0  0  0  0  0  0  0  0  0  0  0
   36.9790   27.3000   43.1950 C   0  0  0  0  0  3  0  0  0  0  0  0
   36.4610   27.3890   41.9210 C   0  0  0  0  0  3  0  0  0  0  0  0
   40.5770   31.7100   38.5250 C   0  0  0  0  0  3  0  0  0  0  0  0
   40.9990   32.8530   38.0300 C   0  0  0  0  0  3  0  0  0  0  0  0
   42.2590   32.9490   37.2460 C   0  0  0  0  0  0  0  0  0  0  0  0
   42.1810   32.4510   36.2590 H   0  0  0  0  0  0  0  0  0  0  0  0
   42.6060   33.9920   37.1760 H   0  0  0  0  0  0  0  0  0  0  0  0
   43.0380   32.3870   37.8380 H   0  0  0  0  0  0  0  0  0  0  0  0
  1  6  1  0  0  0  0
  2  1  2  0  0  0  0
  2  3  1  0  0  0  0
  3  4  2  0  0  0  0
  4  5  1  0  0  0  0
  5 11  1  0  0  0  0
  6  5  2  0  0  0  0
  7  2  1  0  0  0  0
  8  3  1  0  0  0  0
  9 10  1  0  0  0  0
 10 11  2  0  0  0  0
 10 17  1  0  0  0  0
 11 12  1  0  0  0  0
 12 13  1  0  0  0  0
 12 14  2  0  0  0  0
 14 15  1  0  0  0  0
 16 14  1  0  0  0  0
 17 16  2  0  0  0  0
 18  1  1  0  0  0  0
 19 18  2  0  0  0  0
 20 23  1  0  0  0  0
 20 19  1  0  0  0  0
 21 20  1  0  0  0  0
 22 20  1  0  0  0  0
M  END
>  <minimizedAffinity>
-4.51270199

$$$$
