
 OpenBabel03242523383D

 19 20  0  0  0  0  0  0  0  0999 V2000
   44.5250   35.7260   44.8510 C   0  0  0  0  0  0  0  0  0  0  0  0
   45.1870   35.6730   43.6090 C   0  0  0  0  0  0  0  0  0  0  0  0
   46.1200   34.6450   43.4120 C   0  0  0  0  0  0  0  0  0  0  0  0
   46.3220   33.7730   44.4310 N   0  0  0  0  0  0  0  0  0  0  0  0
   45.6750   33.8490   45.6040 C   0  0  0  0  0  0  0  0  0  0  0  0
   44.7810   34.8210   45.8120 N   0  0  0  0  0  0  0  0  0  0  0  0
   43.8060   36.5150   45.0060 H   0  0  0  0  0  0  0  0  0  0  0  0
   44.9850   36.3930   42.8390 H   0  0  0  0  0  0  0  0  0  0  0  0
   47.6000   31.8470   45.2190 F   0  0  0  0  0  0  0  0  0  0  0  0
   46.9300   31.8910   46.3910 C   0  0  0  0  0  0  0  0  0  0  0  0
   45.9710   32.8520   46.6370 C   0  0  0  0  0  0  0  0  0  0  0  0
   45.2670   32.9260   47.8230 C   0  0  0  0  0  0  0  0  0  0  0  0
   44.5090   33.6820   48.0260 H   0  0  0  0  0  0  0  0  0  0  0  0
   45.5120   31.9990   48.8400 C   0  0  0  0  0  0  0  0  0  0  0  0
   45.0140   31.9750   49.7990 H   0  0  0  0  0  0  0  0  0  0  0  0
   46.4790   31.0490   48.5570 C   0  0  0  0  0  3  0  0  0  0  0  0
   47.1880   30.9620   47.3860 C   0  0  0  0  0  3  0  0  0  0  0  0
   46.9960   34.5190   41.8590 S   0  0  0  0  0  0  0  0  0  0  0  0
   48.3770   34.7560   42.0980 H   0  0  0  0  0  0  0  0  0  0  0  0
  1  7  1  0  0  0  0
  1  6  1  0  0  0  0
  2  1  2  0  0  0  0
  3  2  1  0  0  0  0
  3  4  2  0  0  0  0
  4  5  1  0  0  0  0
  5  6  2  0  0  0  0
  5 11  1  0  0  0  0
  8  2  1  0  0  0  0
  9 10  1  0  0  0  0
 10 11  2  0  0  0  0
 10 17  1  0  0  0  0
 11 12  1  0  0  0  0
 12 13  1  0  0  0  0
 12 14  2  0  0  0  0
 14 15  1  0  0  0  0
 16 14  1  0  0  0  0
 17 16  2  0  0  0  0
 18 19  1  0  0  0  0
 18  3  1  0  0  0  0
M  END
>  <minimizedAffinity>
-4.96691513

>  <minimizedRMSD>
0.683164954

$$$$
