
 OpenBabel03242523203D

 37 40  0  0  0  0  0  0  0  0999 V2000
   44.3650   32.0270   42.7610 Cl  0  0  0  0  0  0  0  0  0  0  0  0
   44.4660   33.7860   42.6670 C   0  0  0  0  0  0  0  0  0  0  0  0
   45.2520   34.4010   43.6640 C   0  0  0  0  0  0  0  0  0  0  0  0
   45.2660   35.7770   43.4850 C   0  0  0  0  0  0  0  0  0  0  0  0
   44.6750   36.5320   42.5510 C   0  0  0  0  0  0  0  0  0  0  0  0
   43.9330   35.8560   41.6220 C   0  0  0  0  0  0  0  0  0  0  0  0
   43.8150   34.5100   41.6590 C   0  0  0  0  0  0  0  0  0  0  0  0
   45.8110   36.4220   44.2060 H   0  0  0  0  0  0  0  0  0  0  0  0
   44.7140   37.5920   42.4470 H   0  0  0  0  0  0  0  0  0  0  0  0
   43.3860   36.2950   40.7980 H   0  0  0  0  0  0  0  0  0  0  0  0
   41.0880   34.4540   41.9930 F   0  0  0  0  0  0  0  0  0  0  0  0
   41.6730   33.7240   40.9970 C   0  0  0  0  0  0  0  0  0  0  0  0
   43.0440   33.6630   40.7200 C   0  0  0  0  0  0  0  0  0  0  0  0
   43.4970   32.8950   39.6960 C   0  0  0  0  0  0  0  0  0  0  0  0
   44.5710   32.9240   39.5740 H   0  0  0  0  0  0  0  0  0  0  0  0
   42.5900   32.1830   38.9430 C   0  0  0  0  0  0  0  0  0  0  0  0
   43.0050   31.5880   38.1410 H   0  0  0  0  0  0  0  0  0  0  0  0
   41.2350   32.2270   39.1980 C   0  0  0  0  0  3  0  0  0  0  0  0
   40.7610   33.0050   40.2360 C   0  0  0  0  0  3  0  0  0  0  0  0
   45.9890   33.7210   44.7600 C   0  0  0  0  0  0  0  0  0  0  0  0
   45.3630   34.1680   45.6870 O   0  0  0  0  0  0  0  0  0  0  0  0
   47.0500   32.8960   44.1680 C   0  0  0  0  0  0  0  0  0  0  0  0
   47.9590   33.2890   43.2660 C   0  0  0  0  0  0  0  0  0  0  0  0
   48.7830   32.2840   42.8010 C   0  0  0  0  0  0  0  0  0  0  0  0
   48.6070   30.9810   43.3010 N   0  0  0  0  0  0  0  0  0  0  0  0
   47.6930   30.6720   44.1900 C   0  0  0  0  0  0  0  0  0  0  0  0
   46.8490   31.6460   44.6760 N   0  0  0  0  0  0  0  0  0  0  0  0
   49.5720   32.4180   42.0680 H   0  0  0  0  0  0  0  0  0  0  0  0
   47.6750   29.6270   44.4840 H   0  0  0  0  0  0  0  0  0  0  0  0
   48.2100   34.6240   42.8520 C   0  0  0  0  0  0  0  0  0  0  0  0
   49.2750   35.1010   42.1540 C   0  0  0  0  0  0  0  0  0  0  0  0
   48.0500   34.9260   41.2970 C   0  0  0  0  0  0  0  0  0  0  0  0
   47.7720   35.3990   43.5090 H   0  0  0  0  0  0  0  0  0  0  0  0
   50.1080   34.3960   41.8790 H   0  0  0  0  0  0  0  0  0  0  0  0
   49.6810   36.1390   42.0880 H   0  0  0  0  0  0  0  0  0  0  0  0
   47.3800   35.7730   41.0790 H   0  0  0  0  0  0  0  0  0  0  0  0
   47.9550   34.0210   40.6890 H   0  0  0  0  0  0  0  0  0  0  0  0
  2  1  1  0  0  0  0
  2  3  1  0  0  0  0
  3 20  1  0  0  0  0
  4  3  2  0  0  0  0
  4  8  1  0  0  0  0
  5  4  1  0  0  0  0
  6  7  1  0  0  0  0
  6  5  2  0  0  0  0
  7  2  2  0  0  0  0
  9  5  1  0  0  0  0
 10  6  1  0  0  0  0
 12 11  1  0  0  0  0
 13 12  1  0  0  0  0
 13  7  1  0  0  0  0
 14 13  2  0  0  0  0
 15 14  1  0  0  0  0
 16 18  2  0  0  0  0
 16 14  1  0  0  0  0
 17 16  1  0  0  0  0
 18 19  1  0  0  0  0
 19 12  2  0  0  0  0
 20 21  2  0  0  0  0
 22 27  1  0  0  0  0
 22 20  1  0  0  0  0
 23 22  2  0  0  0  0
 24 23  1  0  0  0  0
 24 25  2  0  0  0  0
 25 26  1  0  0  0  0
 26 29  1  0  0  0  0
 26 27  2  0  0  0  0
 28 24  1  0  0  0  0
 30 23  1  0  0  0  0
 30 33  1  0  0  0  0
 31 30  1  0  0  0  0
 32 31  1  0  0  0  0
 32 30  1  0  0  0  0
 34 31  1  0  0  0  0
 35 31  1  0  0  0  0
 36 32  1  0  0  0  0
 37 32  1  0  0  0  0
M  END
>  <minimizedAffinity>
-5.57669926

>  <minimizedRMSD>
0.781199992

$$$$
