
 OpenBabel03242520233D

 44 47  0  0  0  0  0  0  0  0999 V2000
   36.0730   29.7310   39.3040 C   0  0  0  0  0  0  0  0  0  0  0  0
   36.7470   28.9940   38.8300 H   0  0  0  0  0  0  0  0  0  0  0  0
   35.2460   29.8840   38.5690 H   0  0  0  0  0  0  0  0  0  0  0  0
   37.9730   31.2260   38.9630 C   0  0  0  0  0  0  0  0  0  0  0  0
   38.5580   30.4200   38.1780 O   0  0  0  0  0  0  0  0  0  0  0  0
   36.6910   31.0170   39.5130 N   0  0  0  0  0  0  0  0  0  0  0  0
   36.1510   31.7070   40.0550 H   0  0  0  0  0  0  0  0  0  0  0  0
   38.6670   32.4720   39.3370 C   0  0  0  0  0  0  0  0  0  0  0  0
   37.8970   33.5640   39.7450 C   0  0  0  0  0  0  0  0  0  0  0  0
   38.4010   34.7870   40.1260 C   0  0  0  0  0  0  0  0  0  0  0  0
   39.8000   34.9110   40.0890 C   0  0  0  0  0  0  0  0  0  0  0  0
   40.5080   33.8130   39.6830 C   0  0  0  0  0  0  0  0  0  0  0  0
   39.9860   32.6420   39.3200 N   0  0  0  0  0  0  0  0  0  0  0  0
   36.8140   33.4320   39.7610 H   0  0  0  0  0  0  0  0  0  0  0  0
   37.7030   35.5700   40.4260 H   0  0  0  0  0  0  0  0  0  0  0  0
   40.1860   35.8690   40.3880 H   0  0  0  0  0  0  0  0  0  0  0  0
   41.9800   34.0180   37.2560 F   0  0  0  0  0  0  0  0  0  0  0  0
   42.6620   34.0180   38.4310 C   0  0  0  0  0  0  0  0  0  0  0  0
   41.9650   33.9180   39.6380 C   0  0  0  0  0  0  0  0  0  0  0  0
   42.7780   33.9310   40.7240 C   0  0  0  0  0  0  0  0  0  0  0  0
   42.3800   33.8620   41.7030 H   0  0  0  0  0  0  0  0  0  0  0  0
   44.1490   34.0310   40.6850 C   0  0  0  0  0  0  0  0  0  0  0  0
   44.7760   34.0380   41.5700 H   0  0  0  0  0  0  0  0  0  0  0  0
   44.7830   34.1270   39.4500 C   0  0  0  0  0  3  0  0  0  0  0  0
   44.0130   34.1190   38.3100 C   0  0  0  0  0  3  0  0  0  0  0  0
   35.4970   29.1330   40.5890 C   0  0  0  0  0  0  0  0  0  0  0  0
   34.9070   29.9200   41.0780 H   0  0  0  0  0  0  0  0  0  0  0  0
   34.8880   28.2690   40.2780 H   0  0  0  0  0  0  0  0  0  0  0  0
   38.0460   27.0730   42.4880 C   0  0  0  0  0  0  0  0  0  0  0  0
   36.9750   27.4090   41.6200 C   0  0  0  0  0  0  0  0  0  0  0  0
   36.6030   28.7330   41.4890 C   0  0  0  0  0  0  0  0  0  0  0  0
   37.3160   29.6470   42.2270 N   0  0  0  0  0  0  0  0  0  0  0  0
   38.3400   29.2670   43.0490 C   0  0  0  0  0  0  0  0  0  0  0  0
   38.6980   27.9900   43.1740 N   0  0  0  0  0  0  0  0  0  0  0  0
   36.4550   26.6320   41.0660 H   0  0  0  0  0  0  0  0  0  0  0  0
   38.8740   30.0230   43.6120 H   0  0  0  0  0  0  0  0  0  0  0  0
   38.4270   25.6360   42.6220 C   0  0  0  0  0  0  0  0  0  0  0  0
   39.6200   25.2680   41.6650 C   0  0  0  0  0  0  0  0  0  0  0  0
   39.6420   25.1400   43.1290 C   0  0  0  0  0  0  0  0  0  0  0  0
   37.5370   24.9780   42.4880 H   0  0  0  0  0  0  0  0  0  0  0  0
   40.0950   26.0770   41.1160 H   0  0  0  0  0  0  0  0  0  0  0  0
   39.4320   24.3710   41.0430 H   0  0  0  0  0  0  0  0  0  0  0  0
   40.3590   25.8390   43.6490 H   0  0  0  0  0  0  0  0  0  0  0  0
   39.6790   24.1320   43.5810 H   0  0  0  0  0  0  0  0  0  0  0  0
  1  6  1  0  0  0  0
  1 26  1  0  0  0  0
  2  1  1  0  0  0  0
  3  1  1  0  0  0  0
  4  8  1  0  0  0  0
  4  6  1  0  0  0  0
  5  4  2  0  0  0  0
  6  7  1  0  0  0  0
  8  9  1  0  0  0  0
  9 14  1  0  0  0  0
  9 10  2  0  0  0  0
 10 15  1  0  0  0  0
 11 10  1  0  0  0  0
 11 16  1  0  0  0  0
 12 11  2  0  0  0  0
 13  8  2  0  0  0  0
 13 12  1  0  0  0  0
 17 18  1  0  0  0  0
 18 19  1  0  0  0  0
 19 12  1  0  0  0  0
 19 20  2  0  0  0  0
 20 21  1  0  0  0  0
 22 20  1  0  0  0  0
 22 23  1  0  0  0  0
 24 22  2  0  0  0  0
 25 18  2  0  0  0  0
 25 24  1  0  0  0  0
 26 27  1  0  0  0  0
 26 31  1  0  0  0  0
 28 26  1  0  0  0  0
 29 37  1  0  0  0  0
 29 34  1  0  0  0  0
 30 29  2  0  0  0  0
 31 30  1  0  0  0  0
 31 32  2  0  0  0  0
 32 33  1  0  0  0  0
 33 34  2  0  0  0  0
 33 36  1  0  0  0  0
 35 30  1  0  0  0  0
 37 39  1  0  0  0  0
 38 37  1  0  0  0  0
 38 39  1  0  0  0  0
 39 44  1  0  0  0  0
 39 43  1  0  0  0  0
 40 37  1  0  0  0  0
 41 38  1  0  0  0  0
 42 38  1  0  0  0  0
M  END
>  <minimizedAffinity>
-6.08979177

$$$$

 OpenBabel03242520233D

 44 47  0  0  0  0  0  0  0  0999 V2000
   39.0540   33.9570   40.6220 C   0  0  0  0  0  0  0  0  0  0  0  0
   39.8860   34.2390   39.9510 H   0  0  0  0  0  0  0  0  0  0  0  0
   38.9690   34.8010   41.3500 H   0  0  0  0  0  0  0  0  0  0  0  0
   40.5460   32.1050   41.1750 C   0  0  0  0  0  0  0  0  0  0  0  0
   41.4920   32.5610   40.4620 O   0  0  0  0  0  0  0  0  0  0  0  0
   39.3200   32.7670   41.3910 N   0  0  0  0  0  0  0  0  0  0  0  0
   38.5890   32.4730   42.0560 H   0  0  0  0  0  0  0  0  0  0  0  0
   40.7260   30.7960   41.8280 C   0  0  0  0  0  0  0  0  0  0  0  0
   41.9380   30.5350   42.4700 C   0  0  0  0  0  0  0  0  0  0  0  0
   42.2500   29.3640   43.1230 C   0  0  0  0  0  0  0  0  0  0  0  0
   41.2480   28.3790   43.1250 C   0  0  0  0  0  0  0  0  0  0  0  0
   40.0790   28.6840   42.4820 C   0  0  0  0  0  0  0  0  0  0  0  0
   39.8110   29.8300   41.8590 N   0  0  0  0  0  0  0  0  0  0  0  0
   42.6930   31.3220   42.4480 H   0  0  0  0  0  0  0  0  0  0  0  0
   43.2310   29.2700   43.5900 H   0  0  0  0  0  0  0  0  0  0  0  0
   41.4980   27.4670   43.6360 H   0  0  0  0  0  0  0  0  0  0  0  0
   37.6560   28.9510   43.9500 F   0  0  0  0  0  0  0  0  0  0  0  0
   37.8420   27.8320   43.2010 C   0  0  0  0  0  0  0  0  0  0  0  0
   39.0220   27.6750   42.4710 C   0  0  0  0  0  0  0  0  0  0  0  0
   39.0640   26.5110   41.7740 C   0  0  0  0  0  0  0  0  0  0  0  0
   39.9030   26.2640   41.1770 H   0  0  0  0  0  0  0  0  0  0  0  0
   38.0700   25.5600   41.7610 C   0  0  0  0  0  0  0  0  0  0  0  0
   38.1310   24.6380   41.1950 H   0  0  0  0  0  0  0  0  0  0  0  0
   36.9190   25.7780   42.5110 C   0  0  0  0  0  3  0  0  0  0  0  0
   36.8160   26.9400   43.2410 C   0  0  0  0  0  3  0  0  0  0  0  0
   37.7610   33.8640   39.8100 C   0  0  0  0  0  0  0  0  0  0  0  0
   36.9260   33.9570   40.5170 H   0  0  0  0  0  0  0  0  0  0  0  0
   37.8000   34.6880   39.0790 H   0  0  0  0  0  0  0  0  0  0  0  0
   36.6450   30.3930   38.7850 C   0  0  0  0  0  0  0  0  0  0  0  0
   36.6810   31.6450   39.4520 C   0  0  0  0  0  0  0  0  0  0  0  0
   37.6860   32.5420   39.1480 C   0  0  0  0  0  0  0  0  0  0  0  0
   38.5990   32.1440   38.2000 N   0  0  0  0  0  0  0  0  0  0  0  0
   38.5170   30.9240   37.5890 C   0  0  0  0  0  0  0  0  0  0  0  0
   37.5460   30.0600   37.8830 N   0  0  0  0  0  0  0  0  0  0  0  0
   35.9240   31.8940   40.1920 H   0  0  0  0  0  0  0  0  0  0  0  0
   39.2590   30.6530   36.8480 H   0  0  0  0  0  0  0  0  0  0  0  0
   35.5550   29.4340   39.1330 C   0  0  0  0  0  0  0  0  0  0  0  0
   36.1320   28.1260   39.7900 C   0  0  0  0  0  0  0  0  0  0  0  0
   35.1750   29.0400   40.4280 C   0  0  0  0  0  0  0  0  0  0  0  0
   34.9080   29.2330   38.2470 H   0  0  0  0  0  0  0  0  0  0  0  0
   37.1940   28.1000   40.0150 H   0  0  0  0  0  0  0  0  0  0  0  0
   35.7620   27.1930   39.3210 H   0  0  0  0  0  0  0  0  0  0  0  0
   35.5820   29.5920   41.3250 H   0  0  0  0  0  0  0  0  0  0  0  0
   34.1420   28.6930   40.6180 H   0  0  0  0  0  0  0  0  0  0  0  0
  1  3  1  0  0  0  0
  1  6  1  0  0  0  0
  2  1  1  0  0  0  0
  4  6  1  0  0  0  0
  4  8  1  0  0  0  0
  5  4  2  0  0  0  0
  6  7  1  0  0  0  0
  8 13  2  0  0  0  0
  8  9  1  0  0  0  0
  9 10  2  0  0  0  0
 10 11  1  0  0  0  0
 10 15  1  0  0  0  0
 11 16  1  0  0  0  0
 12 11  2  0  0  0  0
 13 12  1  0  0  0  0
 14  9  1  0  0  0  0
 18 25  1  0  0  0  0
 18 17  1  0  0  0  0
 19 12  1  0  0  0  0
 19 18  2  0  0  0  0
 20 19  1  0  0  0  0
 21 20  1  0  0  0  0
 22 20  2  0  0  0  0
 22 24  1  0  0  0  0
 23 22  1  0  0  0  0
 24 25  2  0  0  0  0
 26 27  1  0  0  0  0
 26  1  1  0  0  0  0
 28 26  1  0  0  0  0
 29 37  1  0  0  0  0
 29 30  1  0  0  0  0
 30 35  1  0  0  0  0
 31 30  2  0  0  0  0
 31 26  1  0  0  0  0
 32 31  1  0  0  0  0
 33 34  1  0  0  0  0
 33 32  2  0  0  0  0
 34 29  2  0  0  0  0
 36 33  1  0  0  0  0
 37 38  1  0  0  0  0
 37 39  1  0  0  0  0
 38 41  1  0  0  0  0
 38 39  1  0  0  0  0
 39 44  1  0  0  0  0
 39 43  1  0  0  0  0
 40 37  1  0  0  0  0
 42 38  1  0  0  0  0
M  END
>  <minimizedAffinity>
-6.08521748

$$$$

 OpenBabel03242520233D

 44 47  0  0  0  0  0  0  0  0999 V2000
   41.3620   28.2330   43.1130 C   0  0  0  0  0  0  0  0  0  0  0  0
   41.8230   28.9160   43.8500 H   0  0  0  0  0  0  0  0  0  0  0  0
   42.2140   27.8450   42.5030 H   0  0  0  0  0  0  0  0  0  0  0  0
   40.4130   30.3080   42.2450 C   0  0  0  0  0  0  0  0  0  0  0  0
   41.2020   31.0360   42.9210 O   0  0  0  0  0  0  0  0  0  0  0  0
   40.4640   28.8990   42.2030 N   0  0  0  0  0  0  0  0  0  0  0  0
   39.9130   28.2970   41.5730 H   0  0  0  0  0  0  0  0  0  0  0  0
   39.3630   30.9640   41.4440 C   0  0  0  0  0  0  0  0  0  0  0  0
   39.4290   32.3490   41.2700 C   0  0  0  0  0  0  0  0  0  0  0  0
   38.5270   33.0980   40.5480 C   0  0  0  0  0  0  0  0  0  0  0  0
   37.4740   32.3810   39.9550 C   0  0  0  0  0  0  0  0  0  0  0  0
   37.4550   31.0280   40.1560 C   0  0  0  0  0  0  0  0  0  0  0  0
   38.3460   30.3350   40.8620 N   0  0  0  0  0  0  0  0  0  0  0  0
   40.2610   32.8710   41.7440 H   0  0  0  0  0  0  0  0  0  0  0  0
   38.6780   34.1750   40.4800 H   0  0  0  0  0  0  0  0  0  0  0  0
   36.7730   32.9730   39.3930 H   0  0  0  0  0  0  0  0  0  0  0  0
   37.3160   30.4630   37.3700 F   0  0  0  0  0  0  0  0  0  0  0  0
   36.3260   29.9990   38.1770 C   0  0  0  0  0  0  0  0  0  0  0  0
   36.3680   30.2630   39.5480 C   0  0  0  0  0  0  0  0  0  0  0  0
   35.3140   29.7370   40.2230 C   0  0  0  0  0  0  0  0  0  0  0  0
   35.2210   29.8620   41.2700 H   0  0  0  0  0  0  0  0  0  0  0  0
   34.2910   29.0150   39.6530 C   0  0  0  0  0  0  0  0  0  0  0  0
   33.4600   28.6080   40.2170 H   0  0  0  0  0  0  0  0  0  0  0  0
   34.3080   28.7890   38.2800 C   0  0  0  0  0  3  0  0  0  0  0  0
   35.3510   29.2960   37.5410 C   0  0  0  0  0  3  0  0  0  0  0  0
   40.7020   27.0660   43.8510 C   0  0  0  0  0  0  0  0  0  0  0  0
   41.2120   26.1480   43.5280 H   0  0  0  0  0  0  0  0  0  0  0  0
   40.8290   27.2730   44.9260 H   0  0  0  0  0  0  0  0  0  0  0  0
   37.4370   25.9570   42.2850 C   0  0  0  0  0  0  0  0  0  0  0  0
   38.8170   26.0010   42.6140 C   0  0  0  0  0  0  0  0  0  0  0  0
   39.2740   26.9840   43.4710 C   0  0  0  0  0  0  0  0  0  0  0  0
   38.3350   27.8670   43.9500 N   0  0  0  0  0  0  0  0  0  0  0  0
   37.0170   27.7780   43.5980 C   0  0  0  0  0  0  0  0  0  0  0  0
   36.5780   26.8290   42.7730 N   0  0  0  0  0  0  0  0  0  0  0  0
   39.5030   25.2690   42.1970 H   0  0  0  0  0  0  0  0  0  0  0  0
   36.3140   28.4960   44.0000 H   0  0  0  0  0  0  0  0  0  0  0  0
   36.9640   24.8930   41.3510 C   0  0  0  0  0  0  0  0  0  0  0  0
   36.6640   25.4770   39.9220 C   0  0  0  0  0  0  0  0  0  0  0  0
   37.6430   24.4210   40.2140 C   0  0  0  0  0  0  0  0  0  0  0  0
   36.1010   24.3390   41.7900 H   0  0  0  0  0  0  0  0  0  0  0  0
   36.9240   26.5150   39.7360 H   0  0  0  0  0  0  0  0  0  0  0  0
   35.6660   25.2000   39.5280 H   0  0  0  0  0  0  0  0  0  0  0  0
   38.7170   24.7170   40.0390 H   0  0  0  0  0  0  0  0  0  0  0  0
   37.4540   23.3950   39.8470 H   0  0  0  0  0  0  0  0  0  0  0  0
  1  2  1  0  0  0  0
  1 26  1  0  0  0  0
  3  1  1  0  0  0  0
  4  5  2  0  0  0  0
  6  4  1  0  0  0  0
  6  1  1  0  0  0  0
  7  6  1  0  0  0  0
  8  4  1  0  0  0  0
  9  8  1  0  0  0  0
  9 14  1  0  0  0  0
 10  9  2  0  0  0  0
 11 12  2  0  0  0  0
 11 10  1  0  0  0  0
 12 13  1  0  0  0  0
 13  8  2  0  0  0  0
 15 10  1  0  0  0  0
 16 11  1  0  0  0  0
 17 18  1  0  0  0  0
 18 19  1  0  0  0  0
 19 12  1  0  0  0  0
 19 20  2  0  0  0  0
 20 21  1  0  0  0  0
 22 23  1  0  0  0  0
 22 20  1  0  0  0  0
 24 22  2  0  0  0  0
 25 18  2  0  0  0  0
 25 24  1  0  0  0  0
 26 28  1  0  0  0  0
 27 26  1  0  0  0  0
 29 30  2  0  0  0  0
 29 34  1  0  0  0  0
 30 31  1  0  0  0  0
 31 26  1  0  0  0  0
 31 32  2  0  0  0  0
 33 32  1  0  0  0  0
 33 36  1  0  0  0  0
 34 33  2  0  0  0  0
 35 30  1  0  0  0  0
 37 40  1  0  0  0  0
 37 29  1  0  0  0  0
 38 39  1  0  0  0  0
 38 37  1  0  0  0  0
 39 37  1  0  0  0  0
 41 38  1  0  0  0  0
 42 38  1  0  0  0  0
 43 39  1  0  0  0  0
 44 39  1  0  0  0  0
M  END
>  <minimizedAffinity>
-6.06369066

$$$$

 OpenBabel03242520233D

 44 47  0  0  0  0  0  0  0  0999 V2000
   36.8430   23.3030   39.6640 C   0  0  0  0  0  0  0  0  0  0  0  0
   37.4700   23.0020   38.8040 H   0  0  0  0  0  0  0  0  0  0  0  0
   36.0740   22.4990   39.7590 H   0  0  0  0  0  0  0  0  0  0  0  0
   36.0760   25.0400   38.1290 C   0  0  0  0  0  0  0  0  0  0  0  0
   36.4770   24.4110   37.1030 O   0  0  0  0  0  0  0  0  0  0  0  0
   36.1330   24.5390   39.4460 N   0  0  0  0  0  0  0  0  0  0  0  0
   35.7070   24.9800   40.2750 H   0  0  0  0  0  0  0  0  0  0  0  0
   35.5080   26.3890   37.9490 C   0  0  0  0  0  0  0  0  0  0  0  0
   34.3540   26.5260   37.1750 C   0  0  0  0  0  0  0  0  0  0  0  0
   33.7100   27.7160   36.9210 C   0  0  0  0  0  0  0  0  0  0  0  0
   34.2850   28.8580   37.5020 C   0  0  0  0  0  0  0  0  0  0  0  0
   35.4140   28.6710   38.2510 C   0  0  0  0  0  0  0  0  0  0  0  0
   36.0120   27.5020   38.4760 N   0  0  0  0  0  0  0  0  0  0  0  0
   33.9360   25.6170   36.7400 H   0  0  0  0  0  0  0  0  0  0  0  0
   32.8140   27.7040   36.3000 H   0  0  0  0  0  0  0  0  0  0  0  0
   33.7770   29.7850   37.3000 H   0  0  0  0  0  0  0  0  0  0  0  0
   35.2100   29.2630   41.0270 F   0  0  0  0  0  0  0  0  0  0  0  0
   35.9130   30.1110   40.2320 C   0  0  0  0  0  0  0  0  0  0  0  0
   36.0290   29.8450   38.8660 C   0  0  0  0  0  0  0  0  0  0  0  0
   36.7590   30.7780   38.2030 C   0  0  0  0  0  0  0  0  0  0  0  0
   36.9260   30.6990   37.1610 H   0  0  0  0  0  0  0  0  0  0  0  0
   37.3400   31.8830   38.7800 C   0  0  0  0  0  0  0  0  0  0  0  0
   37.9180   32.6140   38.2250 H   0  0  0  0  0  0  0  0  0  0  0  0
   37.1860   32.0910   40.1470 C   0  0  0  0  0  3  0  0  0  0  0  0
   36.4560   31.1800   40.8740 C   0  0  0  0  0  3  0  0  0  0  0  0
   37.7020   23.3270   40.9300 C   0  0  0  0  0  0  0  0  0  0  0  0
   37.0400   23.0980   41.7760 H   0  0  0  0  0  0  0  0  0  0  0  0
   38.4870   22.5690   40.7800 H   0  0  0  0  0  0  0  0  0  0  0  0
   38.6160   26.6910   42.4110 C   0  0  0  0  0  0  0  0  0  0  0  0
   38.0430   25.4000   42.2740 C   0  0  0  0  0  0  0  0  0  0  0  0
   38.2720   24.6810   41.1170 C   0  0  0  0  0  0  0  0  0  0  0  0
   39.0550   25.2850   40.1630 N   0  0  0  0  0  0  0  0  0  0  0  0
   39.5830   26.5320   40.3480 C   0  0  0  0  0  0  0  0  0  0  0  0
   39.3620   27.2250   41.4650 N   0  0  0  0  0  0  0  0  0  0  0  0
   37.4320   24.9840   43.0710 H   0  0  0  0  0  0  0  0  0  0  0  0
   40.1950   26.9690   39.5680 H   0  0  0  0  0  0  0  0  0  0  0  0
   38.3510   27.4550   43.6660 C   0  0  0  0  0  0  0  0  0  0  0  0
   37.7990   28.8950   43.3530 C   0  0  0  0  0  0  0  0  0  0  0  0
   37.0930   27.8720   44.1360 C   0  0  0  0  0  0  0  0  0  0  0  0
   39.2530   27.4630   44.3210 H   0  0  0  0  0  0  0  0  0  0  0  0
   37.5720   29.1350   42.3180 H   0  0  0  0  0  0  0  0  0  0  0  0
   38.3430   29.7040   43.8790 H   0  0  0  0  0  0  0  0  0  0  0  0
   36.1540   27.4770   43.6520 H   0  0  0  0  0  0  0  0  0  0  0  0
   36.9370   28.0350   45.2190 H   0  0  0  0  0  0  0  0  0  0  0  0
  1  3  1  0  0  0  0
  1 26  1  0  0  0  0
  2  1  1  0  0  0  0
  4  6  1  0  0  0  0
  5  4  2  0  0  0  0
  6  1  1  0  0  0  0
  6  7  1  0  0  0  0
  8  4  1  0  0  0  0
  8 13  1  0  0  0  0
  9  8  2  0  0  0  0
 10  9  1  0  0  0  0
 10 11  2  0  0  0  0
 11 12  1  0  0  0  0
 12 13  2  0  0  0  0
 12 19  1  0  0  0  0
 14  9  1  0  0  0  0
 15 10  1  0  0  0  0
 16 11  1  0  0  0  0
 18 25  1  0  0  0  0
 18 17  1  0  0  0  0
 19 18  2  0  0  0  0
 20 22  2  0  0  0  0
 20 19  1  0  0  0  0
 21 20  1  0  0  0  0
 22 24  1  0  0  0  0
 23 22  1  0  0  0  0
 24 25  2  0  0  0  0
 26 31  1  0  0  0  0
 26 27  1  0  0  0  0
 28 26  1  0  0  0  0
 29 37  1  0  0  0  0
 30 29  1  0  0  0  0
 30 35  1  0  0  0  0
 31 30  2  0  0  0  0
 32 33  2  0  0  0  0
 32 31  1  0  0  0  0
 33 34  1  0  0  0  0
 34 29  2  0  0  0  0
 36 33  1  0  0  0  0
 37 39  1  0  0  0  0
 37 40  1  0  0  0  0
 38 37  1  0  0  0  0
 38 42  1  0  0  0  0
 38 39  1  0  0  0  0
 39 44  1  0  0  0  0
 41 38  1  0  0  0  0
 43 39  1  0  0  0  0
M  END
>  <minimizedAffinity>
-6.06106949

$$$$

 OpenBabel03242520233D

 44 47  0  0  0  0  0  0  0  0999 V2000
   41.5350   31.5250   42.1490 C   0  0  0  0  0  0  0  0  0  0  0  0
   42.3800   30.8150   42.2180 H   0  0  0  0  0  0  0  0  0  0  0  0
   41.6800   32.2340   43.0000 H   0  0  0  0  0  0  0  0  0  0  0  0
   40.2030   29.4900   42.3680 C   0  0  0  0  0  0  0  0  0  0  0  0
   41.2240   28.7380   42.3850 O   0  0  0  0  0  0  0  0  0  0  0  0
   40.2500   30.8990   42.3390 N   0  0  0  0  0  0  0  0  0  0  0  0
   39.4400   31.5290   42.4440 H   0  0  0  0  0  0  0  0  0  0  0  0
   38.8680   28.8640   42.3790 C   0  0  0  0  0  0  0  0  0  0  0  0
   38.4400   28.2330   43.5490 C   0  0  0  0  0  0  0  0  0  0  0  0
   37.2220   27.6100   43.7100 C   0  0  0  0  0  0  0  0  0  0  0  0
   36.3720   27.6310   42.5920 C   0  0  0  0  0  0  0  0  0  0  0  0
   36.8380   28.2620   41.4710 C   0  0  0  0  0  0  0  0  0  0  0  0
   38.0240   28.8560   41.3500 N   0  0  0  0  0  0  0  0  0  0  0  0
   39.1260   28.2360   44.3960 H   0  0  0  0  0  0  0  0  0  0  0  0
   36.9940   27.1480   44.6710 H   0  0  0  0  0  0  0  0  0  0  0  0
   35.4230   27.1420   42.7250 H   0  0  0  0  0  0  0  0  0  0  0  0
   37.1680   26.5290   39.2380 F   0  0  0  0  0  0  0  0  0  0  0  0
   36.1550   27.4340   39.2140 C   0  0  0  0  0  0  0  0  0  0  0  0
   35.9700   28.2970   40.2960 C   0  0  0  0  0  0  0  0  0  0  0  0
   34.9210   29.1420   40.1280 C   0  0  0  0  0  0  0  0  0  0  0  0
   34.6680   29.8510   40.8730 H   0  0  0  0  0  0  0  0  0  0  0  0
   34.1020   29.1770   39.0240 C   0  0  0  0  0  0  0  0  0  0  0  0
   33.2700   29.8640   38.9160 H   0  0  0  0  0  0  0  0  0  0  0  0
   34.3400   28.2890   37.9790 C   0  0  0  0  0  3  0  0  0  0  0  0
   35.3900   27.4070   38.0890 C   0  0  0  0  0  3  0  0  0  0  0  0
   41.6310   32.2970   40.8320 C   0  0  0  0  0  0  0  0  0  0  0  0
   42.2360   33.1930   41.0240 H   0  0  0  0  0  0  0  0  0  0  0  0
   42.0970   31.6090   40.1080 H   0  0  0  0  0  0  0  0  0  0  0  0
   38.1820   32.3160   39.2660 C   0  0  0  0  0  0  0  0  0  0  0  0
   39.4760   31.8770   39.6480 C   0  0  0  0  0  0  0  0  0  0  0  0
   40.2760   32.7130   40.4020 C   0  0  0  0  0  0  0  0  0  0  0  0
   39.7460   33.9370   40.7330 N   0  0  0  0  0  0  0  0  0  0  0  0
   38.4920   34.3090   40.3370 C   0  0  0  0  0  0  0  0  0  0  0  0
   37.7200   33.5010   39.6100 N   0  0  0  0  0  0  0  0  0  0  0  0
   39.8310   30.8940   39.3500 H   0  0  0  0  0  0  0  0  0  0  0  0
   38.1150   35.2840   40.6210 H   0  0  0  0  0  0  0  0  0  0  0  0
   37.3360   31.4010   38.4440 C   0  0  0  0  0  0  0  0  0  0  0  0
   37.5880   31.6150   36.9070 C   0  0  0  0  0  0  0  0  0  0  0  0
   37.7940   30.3520   37.6290 C   0  0  0  0  0  0  0  0  0  0  0  0
   36.2620   31.4940   38.7310 H   0  0  0  0  0  0  0  0  0  0  0  0
   38.3890   32.2880   36.6150 H   0  0  0  0  0  0  0  0  0  0  0  0
   36.6600   31.7610   36.3190 H   0  0  0  0  0  0  0  0  0  0  0  0
   38.8700   30.0190   37.6930 H   0  0  0  0  0  0  0  0  0  0  0  0
   37.1310   29.4930   37.4120 H   0  0  0  0  0  0  0  0  0  0  0  0
  1  2  1  0  0  0  0
  1  6  1  0  0  0  0
  1  3  1  0  0  0  0
  4  8  1  0  0  0  0
  4  5  2  0  0  0  0
  6  4  1  0  0  0  0
  6  7  1  0  0  0  0
  8  9  1  0  0  0  0
  9 10  2  0  0  0  0
  9 14  1  0  0  0  0
 10 15  1  0  0  0  0
 11 16  1  0  0  0  0
 11 10  1  0  0  0  0
 12 11  2  0  0  0  0
 13 12  1  0  0  0  0
 13  8  2  0  0  0  0
 18 17  1  0  0  0  0
 18 19  1  0  0  0  0
 19 12  1  0  0  0  0
 20 19  2  0  0  0  0
 20 21  1  0  0  0  0
 22 20  1  0  0  0  0
 23 22  1  0  0  0  0
 24 25  1  0  0  0  0
 24 22  2  0  0  0  0
 25 18  2  0  0  0  0
 26 27  1  0  0  0  0
 26  1  1  0  0  0  0
 28 26  1  0  0  0  0
 29 34  2  0  0  0  0
 29 30  1  0  0  0  0
 30 31  2  0  0  0  0
 31 32  1  0  0  0  0
 31 26  1  0  0  0  0
 33 36  1  0  0  0  0
 33 32  2  0  0  0  0
 34 33  1  0  0  0  0
 35 30  1  0  0  0  0
 37 40  1  0  0  0  0
 37 29  1  0  0  0  0
 38 39  1  0  0  0  0
 38 37  1  0  0  0  0
 39 43  1  0  0  0  0
 39 37  1  0  0  0  0
 41 38  1  0  0  0  0
 42 38  1  0  0  0  0
 44 39  1  0  0  0  0
M  END
>  <minimizedAffinity>
-5.97090816

$$$$

 OpenBabel03242520233D

 44 47  0  0  0  0  0  0  0  0999 V2000
   41.0590   31.4940   42.0980 C   0  0  0  0  0  0  0  0  0  0  0  0
   42.0170   31.0520   42.4280 H   0  0  0  0  0  0  0  0  0  0  0  0
   40.9610   32.4420   42.6800 H   0  0  0  0  0  0  0  0  0  0  0  0
   40.0860   29.2820   42.4430 C   0  0  0  0  0  0  0  0  0  0  0  0
   41.2050   28.6940   42.3370 O   0  0  0  0  0  0  0  0  0  0  0  0
   39.9140   30.6810   42.4250 N   0  0  0  0  0  0  0  0  0  0  0  0
   39.0350   31.1810   42.6270 H   0  0  0  0  0  0  0  0  0  0  0  0
   38.8710   28.4600   42.5970 C   0  0  0  0  0  0  0  0  0  0  0  0
   38.0720   28.6600   43.7250 C   0  0  0  0  0  0  0  0  0  0  0  0
   36.9120   27.9730   44.0030 C   0  0  0  0  0  0  0  0  0  0  0  0
   36.5330   27.0060   43.0580 C   0  0  0  0  0  0  0  0  0  0  0  0
   37.3490   26.8480   41.9720 C   0  0  0  0  0  0  0  0  0  0  0  0
   38.4670   27.5310   41.7340 N   0  0  0  0  0  0  0  0  0  0  0  0
   38.3980   29.4200   44.4370 H   0  0  0  0  0  0  0  0  0  0  0  0
   36.3680   28.2140   44.9180 H   0  0  0  0  0  0  0  0  0  0  0  0
   35.6260   26.4730   43.2820 H   0  0  0  0  0  0  0  0  0  0  0  0
   37.4780   24.0460   42.4530 F   0  0  0  0  0  0  0  0  0  0  0  0
   37.0470   24.4770   41.2390 C   0  0  0  0  0  0  0  0  0  0  0  0
   36.9740   25.8470   40.9750 C   0  0  0  0  0  0  0  0  0  0  0  0
   36.5270   26.1250   39.7240 C   0  0  0  0  0  0  0  0  0  0  0  0
   36.4230   27.1240   39.3920 H   0  0  0  0  0  0  0  0  0  0  0  0
   36.1720   25.1850   38.7840 C   0  0  0  0  0  0  0  0  0  0  0  0
   35.8180   25.4350   37.7900 H   0  0  0  0  0  0  0  0  0  0  0  0
   36.2680   23.8350   39.1100 C   0  0  0  0  0  3  0  0  0  0  0  0
   36.7160   23.4900   40.3640 C   0  0  0  0  0  3  0  0  0  0  0  0
   41.1440   31.8280   40.6070 C   0  0  0  0  0  0  0  0  0  0  0  0
   41.6930   32.7750   40.5180 H   0  0  0  0  0  0  0  0  0  0  0  0
   41.6670   30.9820   40.1340 H   0  0  0  0  0  0  0  0  0  0  0  0
   38.0060   31.4430   38.5230 C   0  0  0  0  0  0  0  0  0  0  0  0
   39.3240   31.2400   39.0070 C   0  0  0  0  0  0  0  0  0  0  0  0
   39.7800   32.0080   40.0610 C   0  0  0  0  0  0  0  0  0  0  0  0
   38.9010   32.9330   40.5720 N   0  0  0  0  0  0  0  0  0  0  0  0
   37.6410   33.0870   40.0650 C   0  0  0  0  0  0  0  0  0  0  0  0
   37.2020   32.3450   39.0490 N   0  0  0  0  0  0  0  0  0  0  0  0
   39.9650   30.4890   38.5540 H   0  0  0  0  0  0  0  0  0  0  0  0
   36.9830   33.8290   40.5000 H   0  0  0  0  0  0  0  0  0  0  0  0
   37.5350   30.6080   37.3780 C   0  0  0  0  0  0  0  0  0  0  0  0
   37.5710   29.0760   37.7330 C   0  0  0  0  0  0  0  0  0  0  0  0
   36.3680   29.8250   37.3430 C   0  0  0  0  0  0  0  0  0  0  0  0
   38.1000   30.8580   36.4490 H   0  0  0  0  0  0  0  0  0  0  0  0
   37.8130   28.8000   38.7560 H   0  0  0  0  0  0  0  0  0  0  0  0
   38.0940   28.4560   36.9790 H   0  0  0  0  0  0  0  0  0  0  0  0
   35.5970   29.9300   38.1610 H   0  0  0  0  0  0  0  0  0  0  0  0
   35.8840   29.6000   36.3750 H   0  0  0  0  0  0  0  0  0  0  0  0
  1  6  1  0  0  0  0
  1  2  1  0  0  0  0
  1  3  1  0  0  0  0
  4  8  1  0  0  0  0
  5  4  2  0  0  0  0
  6  4  1  0  0  0  0
  6  7  1  0  0  0  0
  8  9  1  0  0  0  0
  9 10  2  0  0  0  0
  9 14  1  0  0  0  0
 10 15  1  0  0  0  0
 11 16  1  0  0  0  0
 11 10  1  0  0  0  0
 12 11  2  0  0  0  0
 13 12  1  0  0  0  0
 13  8  2  0  0  0  0
 18 17  1  0  0  0  0
 19 18  1  0  0  0  0
 19 12  1  0  0  0  0
 20 19  2  0  0  0  0
 21 20  1  0  0  0  0
 22 24  2  0  0  0  0
 22 20  1  0  0  0  0
 23 22  1  0  0  0  0
 24 25  1  0  0  0  0
 25 18  2  0  0  0  0
 26  1  1  0  0  0  0
 27 26  1  0  0  0  0
 28 26  1  0  0  0  0
 29 30  2  0  0  0  0
 29 34  1  0  0  0  0
 30 31  1  0  0  0  0
 31 32  2  0  0  0  0
 31 26  1  0  0  0  0
 33 36  1  0  0  0  0
 33 32  1  0  0  0  0
 34 33  2  0  0  0  0
 35 30  1  0  0  0  0
 37 38  1  0  0  0  0
 37 29  1  0  0  0  0
 38 41  1  0  0  0  0
 39 37  1  0  0  0  0
 39 38  1  0  0  0  0
 39 43  1  0  0  0  0
 40 37  1  0  0  0  0
 42 38  1  0  0  0  0
 44 39  1  0  0  0  0
M  END
>  <minimizedAffinity>
-5.9540205

$$$$

 OpenBabel03242520233D

 44 47  0  0  0  0  0  0  0  0999 V2000
   39.0680   34.1020   40.4290 C   0  0  0  0  0  0  0  0  0  0  0  0
   39.8490   34.2730   39.6650 H   0  0  0  0  0  0  0  0  0  0  0  0
   39.1220   34.9910   41.1030 H   0  0  0  0  0  0  0  0  0  0  0  0
   40.4470   32.1540   40.9460 C   0  0  0  0  0  0  0  0  0  0  0  0
   41.3400   32.4740   40.1030 O   0  0  0  0  0  0  0  0  0  0  0  0
   39.3160   32.9410   41.2470 N   0  0  0  0  0  0  0  0  0  0  0  0
   38.6440   32.7590   42.0080 H   0  0  0  0  0  0  0  0  0  0  0  0
   40.5850   30.8760   41.6680 C   0  0  0  0  0  0  0  0  0  0  0  0
   41.8160   30.5750   42.2550 C   0  0  0  0  0  0  0  0  0  0  0  0
   42.0950   29.4270   42.9610 C   0  0  0  0  0  0  0  0  0  0  0  0
   41.0370   28.5100   43.0800 C   0  0  0  0  0  0  0  0  0  0  0  0
   39.8520   28.8520   42.4870 C   0  0  0  0  0  0  0  0  0  0  0  0
   39.6170   29.9750   41.8100 N   0  0  0  0  0  0  0  0  0  0  0  0
   42.6140   31.3100   42.1430 H   0  0  0  0  0  0  0  0  0  0  0  0
   43.0950   29.2970   43.3770 H   0  0  0  0  0  0  0  0  0  0  0  0
   41.2610   27.6150   43.6320 H   0  0  0  0  0  0  0  0  0  0  0  0
   39.6730   26.4570   40.9600 F   0  0  0  0  0  0  0  0  0  0  0  0
   38.6750   26.7450   41.8360 C   0  0  0  0  0  0  0  0  0  0  0  0
   38.7370   27.9130   42.5980 C   0  0  0  0  0  0  0  0  0  0  0  0
   37.6720   28.0650   43.4250 C   0  0  0  0  0  0  0  0  0  0  0  0
   37.5920   28.9090   44.0600 H   0  0  0  0  0  0  0  0  0  0  0  0
   36.6220   27.1830   43.5330 C   0  0  0  0  0  0  0  0  0  0  0  0
   35.7820   27.3300   44.2030 H   0  0  0  0  0  0  0  0  0  0  0  0
   36.6210   26.0370   42.7450 C   0  0  0  0  0  3  0  0  0  0  0  0
   37.6730   25.8270   41.8840 C   0  0  0  0  0  3  0  0  0  0  0  0
   37.6970   34.0700   39.7510 C   0  0  0  0  0  0  0  0  0  0  0  0
   36.9900   34.5720   40.4230 H   0  0  0  0  0  0  0  0  0  0  0  0
   37.8210   34.5920   38.7880 H   0  0  0  0  0  0  0  0  0  0  0  0
   37.0330   30.6660   38.2290 C   0  0  0  0  0  0  0  0  0  0  0  0
   37.4510   32.0160   38.3580 C   0  0  0  0  0  0  0  0  0  0  0  0
   37.2700   32.6640   39.5640 C   0  0  0  0  0  0  0  0  0  0  0  0
   36.6840   31.9360   40.5720 N   0  0  0  0  0  0  0  0  0  0  0  0
   36.2990   30.6370   40.3920 C   0  0  0  0  0  0  0  0  0  0  0  0
   36.4750   30.0120   39.2280 N   0  0  0  0  0  0  0  0  0  0  0  0
   37.9090   32.5300   37.5170 H   0  0  0  0  0  0  0  0  0  0  0  0
   35.8410   30.1020   41.2140 H   0  0  0  0  0  0  0  0  0  0  0  0
   37.2300   29.9840   36.9150 C   0  0  0  0  0  0  0  0  0  0  0  0
   38.3490   28.8820   37.0040 C   0  0  0  0  0  0  0  0  0  0  0  0
   36.9500   28.6370   36.6260 C   0  0  0  0  0  0  0  0  0  0  0  0
   37.4110   30.7310   36.1070 H   0  0  0  0  0  0  0  0  0  0  0  0
   38.7640   28.6610   37.9830 H   0  0  0  0  0  0  0  0  0  0  0  0
   39.1200   28.9660   36.2130 H   0  0  0  0  0  0  0  0  0  0  0  0
   36.3680   28.0140   37.3650 H   0  0  0  0  0  0  0  0  0  0  0  0
   36.7180   28.3330   35.5880 H   0  0  0  0  0  0  0  0  0  0  0  0
  1  3  1  0  0  0  0
  1  6  1  0  0  0  0
  2  1  1  0  0  0  0
  4  6  1  0  0  0  0
  4  8  1  0  0  0  0
  5  4  2  0  0  0  0
  6  7  1  0  0  0  0
  8 13  2  0  0  0  0
  8  9  1  0  0  0  0
  9 10  2  0  0  0  0
 10 11  1  0  0  0  0
 10 15  1  0  0  0  0
 11 16  1  0  0  0  0
 12 19  1  0  0  0  0
 12 11  2  0  0  0  0
 13 12  1  0  0  0  0
 14  9  1  0  0  0  0
 17 18  1  0  0  0  0
 18 25  2  0  0  0  0
 18 19  1  0  0  0  0
 19 20  2  0  0  0  0
 20 22  1  0  0  0  0
 20 21  1  0  0  0  0
 22 23  1  0  0  0  0
 24 22  2  0  0  0  0
 25 24  1  0  0  0  0
 26 27  1  0  0  0  0
 26  1  1  0  0  0  0
 28 26  1  0  0  0  0
 29 30  2  0  0  0  0
 29 34  1  0  0  0  0
 30 31  1  0  0  0  0
 31 26  1  0  0  0  0
 31 32  2  0  0  0  0
 33 32  1  0  0  0  0
 33 36  1  0  0  0  0
 34 33  2  0  0  0  0
 35 30  1  0  0  0  0
 37 38  1  0  0  0  0
 37 29  1  0  0  0  0
 38 41  1  0  0  0  0
 39 37  1  0  0  0  0
 39 38  1  0  0  0  0
 39 43  1  0  0  0  0
 40 37  1  0  0  0  0
 42 38  1  0  0  0  0
 44 39  1  0  0  0  0
M  END
>  <minimizedAffinity>
-5.88965178

$$$$

 OpenBabel03242520233D

 44 47  0  0  0  0  0  0  0  0999 V2000
   37.3890   31.9060   39.1330 C   0  0  0  0  0  0  0  0  0  0  0  0
   36.3000   32.0200   38.9800 H   0  0  0  0  0  0  0  0  0  0  0  0
   37.8260   31.8880   38.1050 H   0  0  0  0  0  0  0  0  0  0  0  0
   36.8950   30.1640   40.7710 C   0  0  0  0  0  0  0  0  0  0  0  0
   35.7620   30.6570   41.0590 O   0  0  0  0  0  0  0  0  0  0  0  0
   37.7480   30.6610   39.7630 N   0  0  0  0  0  0  0  0  0  0  0  0
   38.6140   30.2080   39.4330 H   0  0  0  0  0  0  0  0  0  0  0  0
   37.3670   28.9920   41.5300 C   0  0  0  0  0  0  0  0  0  0  0  0
   37.5940   29.1360   42.9010 C   0  0  0  0  0  0  0  0  0  0  0  0
   38.0310   28.1350   43.7390 C   0  0  0  0  0  0  0  0  0  0  0  0
   38.2550   26.8870   43.1350 C   0  0  0  0  0  0  0  0  0  0  0  0
   38.0190   26.7980   41.7910 C   0  0  0  0  0  0  0  0  0  0  0  0
   37.5950   27.7890   41.0090 N   0  0  0  0  0  0  0  0  0  0  0  0
   37.4100   30.1200   43.3350 H   0  0  0  0  0  0  0  0  0  0  0  0
   38.1750   28.3630   44.7960 H   0  0  0  0  0  0  0  0  0  0  0  0
   38.5970   26.1100   43.7960 H   0  0  0  0  0  0  0  0  0  0  0  0
   36.3890   24.5120   42.2570 F   0  0  0  0  0  0  0  0  0  0  0  0
   37.4280   24.4020   41.3890 C   0  0  0  0  0  0  0  0  0  0  0  0
   38.2440   25.5080   41.1410 C   0  0  0  0  0  0  0  0  0  0  0  0
   39.2380   25.2470   40.2540 C   0  0  0  0  0  0  0  0  0  0  0  0
   39.9300   25.9980   39.9760 H   0  0  0  0  0  0  0  0  0  0  0  0
   39.4520   24.0350   39.6410 C   0  0  0  0  0  0  0  0  0  0  0  0
   40.2550   23.8530   38.9350 H   0  0  0  0  0  0  0  0  0  0  0  0
   38.6020   22.9720   39.9310 C   0  0  0  0  0  3  0  0  0  0  0  0
   37.5750   23.1740   40.8240 C   0  0  0  0  0  3  0  0  0  0  0  0
   37.9240   33.1280   39.8830 C   0  0  0  0  0  0  0  0  0  0  0  0
   37.7910   33.9970   39.2250 H   0  0  0  0  0  0  0  0  0  0  0  0
   37.3340   33.1980   40.8120 H   0  0  0  0  0  0  0  0  0  0  0  0
   41.6980   33.3600   39.6820 C   0  0  0  0  0  0  0  0  0  0  0  0
   40.3270   33.5560   39.3740 C   0  0  0  0  0  0  0  0  0  0  0  0
   39.3670   32.9470   40.1590 C   0  0  0  0  0  0  0  0  0  0  0  0
   39.8240   32.1780   41.2020 N   0  0  0  0  0  0  0  0  0  0  0  0
   41.1590   32.0230   41.4530 C   0  0  0  0  0  0  0  0  0  0  0  0
   42.0840   32.6120   40.6960 N   0  0  0  0  0  0  0  0  0  0  0  0
   40.0380   34.1780   38.5310 H   0  0  0  0  0  0  0  0  0  0  0  0
   41.4720   31.4080   42.2870 H   0  0  0  0  0  0  0  0  0  0  0  0
   42.7210   34.0200   38.8170 C   0  0  0  0  0  0  0  0  0  0  0  0
   43.2620   33.0340   37.7170 C   0  0  0  0  0  0  0  0  0  0  0  0
   42.5900   34.3130   37.4480 C   0  0  0  0  0  0  0  0  0  0  0  0
   43.5290   34.4730   39.4370 H   0  0  0  0  0  0  0  0  0  0  0  0
   42.7830   32.0630   37.6290 H   0  0  0  0  0  0  0  0  0  0  0  0
   44.3680   32.9810   37.6710 H   0  0  0  0  0  0  0  0  0  0  0  0
   41.5830   34.2160   36.9470 H   0  0  0  0  0  0  0  0  0  0  0  0
   43.1690   35.1440   37.0040 H   0  0  0  0  0  0  0  0  0  0  0  0
  1  6  1  0  0  0  0
  1 26  1  0  0  0  0
  2  1  1  0  0  0  0
  3  1  1  0  0  0  0
  4  5  2  0  0  0  0
  4  8  1  0  0  0  0
  6  4  1  0  0  0  0
  7  6  1  0  0  0  0
  8  9  1  0  0  0  0
  9 14  1  0  0  0  0
  9 10  2  0  0  0  0
 10 15  1  0  0  0  0
 11 10  1  0  0  0  0
 11 16  1  0  0  0  0
 12 11  2  0  0  0  0
 13  8  2  0  0  0  0
 13 12  1  0  0  0  0
 18 17  1  0  0  0  0
 19 18  1  0  0  0  0
 19 12  1  0  0  0  0
 20 19  2  0  0  0  0
 21 20  1  0  0  0  0
 22 24  2  0  0  0  0
 22 20  1  0  0  0  0
 23 22  1  0  0  0  0
 24 25  1  0  0  0  0
 25 18  2  0  0  0  0
 26 31  1  0  0  0  0
 26 28  1  0  0  0  0
 27 26  1  0  0  0  0
 29 34  1  0  0  0  0
 30 29  2  0  0  0  0
 30 31  1  0  0  0  0
 31 32  2  0  0  0  0
 32 33  1  0  0  0  0
 33 36  1  0  0  0  0
 34 33  2  0  0  0  0
 35 30  1  0  0  0  0
 37 40  1  0  0  0  0
 37 29  1  0  0  0  0
 38 37  1  0  0  0  0
 39 38  1  0  0  0  0
 39 37  1  0  0  0  0
 41 38  1  0  0  0  0
 42 38  1  0  0  0  0
 43 39  1  0  0  0  0
 44 39  1  0  0  0  0
M  END
>  <minimizedAffinity>
-5.88306618

$$$$

 OpenBabel03242520233D

 44 47  0  0  0  0  0  0  0  0999 V2000
   37.1790   28.4370   36.2760 C   0  0  0  0  0  0  0  0  0  0  0  0
   36.9360   27.8780   35.3540 H   0  0  0  0  0  0  0  0  0  0  0  0
   38.1670   28.9190   36.0730 H   0  0  0  0  0  0  0  0  0  0  0  0
   36.6280   26.3810   37.4720 C   0  0  0  0  0  0  0  0  0  0  0  0
   35.9410   25.9210   36.5100 O   0  0  0  0  0  0  0  0  0  0  0  0
   37.3580   27.5870   37.4270 N   0  0  0  0  0  0  0  0  0  0  0  0
   38.0140   27.9190   38.1500 H   0  0  0  0  0  0  0  0  0  0  0  0
   36.6790   25.6140   38.7310 C   0  0  0  0  0  0  0  0  0  0  0  0
   35.8630   24.4870   38.8540 C   0  0  0  0  0  0  0  0  0  0  0  0
   35.8030   23.6730   39.9640 C   0  0  0  0  0  0  0  0  0  0  0  0
   36.6410   24.0340   41.0320 C   0  0  0  0  0  0  0  0  0  0  0  0
   37.4200   25.1450   40.8610 C   0  0  0  0  0  0  0  0  0  0  0  0
   37.4520   25.9110   39.7710 N   0  0  0  0  0  0  0  0  0  0  0  0
   35.2260   24.2380   38.0050 H   0  0  0  0  0  0  0  0  0  0  0  0
   35.1270   22.8180   39.9490 H   0  0  0  0  0  0  0  0  0  0  0  0
   36.5890   23.3940   41.8950 H   0  0  0  0  0  0  0  0  0  0  0  0
   36.9660   27.4460   42.4720 F   0  0  0  0  0  0  0  0  0  0  0  0
   38.0520   26.6740   42.7350 C   0  0  0  0  0  0  0  0  0  0  0  0
   38.3000   25.5390   41.9590 C   0  0  0  0  0  0  0  0  0  0  0  0
   39.4180   24.8700   42.3390 C   0  0  0  0  0  0  0  0  0  0  0  0
   39.7230   23.9900   41.8350 H   0  0  0  0  0  0  0  0  0  0  0  0
   40.2470   25.2370   43.3730 C   0  0  0  0  0  0  0  0  0  0  0  0
   41.1360   24.6840   43.6540 H   0  0  0  0  0  0  0  0  0  0  0  0
   39.9440   26.3800   44.1060 C   0  0  0  0  0  3  0  0  0  0  0  0
   38.8230   27.1030   43.7700 C   0  0  0  0  0  3  0  0  0  0  0  0
   36.1270   29.5250   36.4990 C   0  0  0  0  0  0  0  0  0  0  0  0
   36.4200   30.3890   35.8870 H   0  0  0  0  0  0  0  0  0  0  0  0
   35.1640   29.0860   36.1910 H   0  0  0  0  0  0  0  0  0  0  0  0
   36.7990   31.3670   39.7390 C   0  0  0  0  0  0  0  0  0  0  0  0
   36.8420   31.0180   38.3640 C   0  0  0  0  0  0  0  0  0  0  0  0
   36.1210   29.9240   37.9240 C   0  0  0  0  0  0  0  0  0  0  0  0
   35.4010   29.2400   38.8740 N   0  0  0  0  0  0  0  0  0  0  0  0
   35.3960   29.6210   40.1870 C   0  0  0  0  0  0  0  0  0  0  0  0
   36.0910   30.6770   40.6100 N   0  0  0  0  0  0  0  0  0  0  0  0
   37.4340   31.6050   37.6680 H   0  0  0  0  0  0  0  0  0  0  0  0
   34.8140   29.0520   40.9010 H   0  0  0  0  0  0  0  0  0  0  0  0
   37.5900   32.5480   40.1960 C   0  0  0  0  0  0  0  0  0  0  0  0
   38.9230   32.1030   40.9040 C   0  0  0  0  0  0  0  0  0  0  0  0
   38.8450   32.9490   39.7050 C   0  0  0  0  0  0  0  0  0  0  0  0
   36.9640   33.2230   40.8240 H   0  0  0  0  0  0  0  0  0  0  0  0
   39.1750   31.0460   40.8890 H   0  0  0  0  0  0  0  0  0  0  0  0
   39.0810   32.5750   41.8940 H   0  0  0  0  0  0  0  0  0  0  0  0
   39.2590   32.4750   38.7690 H   0  0  0  0  0  0  0  0  0  0  0  0
   39.1490   34.0100   39.7740 H   0  0  0  0  0  0  0  0  0  0  0  0
  1 26  1  0  0  0  0
  1  6  1  0  0  0  0
  2  1  1  0  0  0  0
  3  1  1  0  0  0  0
  4  8  1  0  0  0  0
  5  4  2  0  0  0  0
  6  4  1  0  0  0  0
  6  7  1  0  0  0  0
  8  9  2  0  0  0  0
  8 13  1  0  0  0  0
  9 10  1  0  0  0  0
 10 11  2  0  0  0  0
 11 16  1  0  0  0  0
 12 11  1  0  0  0  0
 12 19  1  0  0  0  0
 13 12  2  0  0  0  0
 14  9  1  0  0  0  0
 15 10  1  0  0  0  0
 17 18  1  0  0  0  0
 18 25  1  0  0  0  0
 19 20  1  0  0  0  0
 19 18  2  0  0  0  0
 20 22  2  0  0  0  0
 21 20  1  0  0  0  0
 22 23  1  0  0  0  0
 22 24  1  0  0  0  0
 25 24  2  0  0  0  0
 26 31  1  0  0  0  0
 27 26  1  0  0  0  0
 28 26  1  0  0  0  0
 29 37  1  0  0  0  0
 29 34  1  0  0  0  0
 30 29  2  0  0  0  0
 31 30  1  0  0  0  0
 31 32  2  0  0  0  0
 32 33  1  0  0  0  0
 33 34  2  0  0  0  0
 33 36  1  0  0  0  0
 35 30  1  0  0  0  0
 37 40  1  0  0  0  0
 37 38  1  0  0  0  0
 38 42  1  0  0  0  0
 39 44  1  0  0  0  0
 39 37  1  0  0  0  0
 39 38  1  0  0  0  0
 41 38  1  0  0  0  0
 43 39  1  0  0  0  0
M  END
>  <minimizedAffinity>
-5.86437464

$$$$
