
 OpenBabel03242523383D

 19 20  0  0  0  0  0  0  0  0999 V2000
   44.5190   35.8370   44.7200 C   0  0  0  0  0  0  0  0  0  0  0  0
   45.1930   35.7980   43.4840 C   0  0  0  0  0  0  0  0  0  0  0  0
   46.1310   34.7730   43.2860 C   0  0  0  0  0  0  0  0  0  0  0  0
   46.3240   33.8920   44.2980 N   0  0  0  0  0  0  0  0  0  0  0  0
   45.6660   33.9550   45.4650 C   0  0  0  0  0  0  0  0  0  0  0  0
   44.7680   34.9230   45.6740 N   0  0  0  0  0  0  0  0  0  0  0  0
   43.7960   36.6230   44.8750 H   0  0  0  0  0  0  0  0  0  0  0  0
   44.9970   36.5250   42.7190 H   0  0  0  0  0  0  0  0  0  0  0  0
   47.6060   31.9680   45.0830 F   0  0  0  0  0  0  0  0  0  0  0  0
   46.9210   31.9940   46.2470 C   0  0  0  0  0  0  0  0  0  0  0  0
   45.9540   32.9490   46.4910 C   0  0  0  0  0  0  0  0  0  0  0  0
   45.2350   33.0060   47.6680 C   0  0  0  0  0  0  0  0  0  0  0  0
   44.4690   33.7560   47.8710 H   0  0  0  0  0  0  0  0  0  0  0  0
   45.4720   32.0690   48.6780 C   0  0  0  0  0  0  0  0  0  0  0  0
   44.9620   32.0330   49.6300 H   0  0  0  0  0  0  0  0  0  0  0  0
   46.4470   31.1280   48.3990 C   0  0  0  0  0  3  0  0  0  0  0  0
   47.1720   31.0570   47.2360 C   0  0  0  0  0  3  0  0  0  0  0  0
   47.0220   34.6650   41.7400 S   0  0  0  0  0  0  0  0  0  0  0  0
   48.3990   34.9040   41.9950 H   0  0  0  0  0  0  0  0  0  0  0  0
  1  7  1  0  0  0  0
  1  6  1  0  0  0  0
  2  1  2  0  0  0  0
  3  2  1  0  0  0  0
  3  4  2  0  0  0  0
  4  5  1  0  0  0  0
  5  6  2  0  0  0  0
  5 11  1  0  0  0  0
  8  2  1  0  0  0  0
  9 10  1  0  0  0  0
 10 11  2  0  0  0  0
 10 17  1  0  0  0  0
 11 12  1  0  0  0  0
 12 13  1  0  0  0  0
 12 14  2  0  0  0  0
 14 15  1  0  0  0  0
 16 14  1  0  0  0  0
 17 16  2  0  0  0  0
 18 19  1  0  0  0  0
 18  3  1  0  0  0  0
M  END
>  <minimizedAffinity>
-4.95594215

>  <minimizedRMSD>
0.325011581

$$$$
