
 OpenBabel03242523383D

 19 20  0  0  0  0  0  0  0  0999 V2000
   44.5050   35.7240   44.8110 C   0  0  0  0  0  0  0  0  0  0  0  0
   44.6360   35.3220   43.4680 C   0  0  0  0  0  0  0  0  0  0  0  0
   45.2010   34.0620   43.2190 C   0  0  0  0  0  0  0  0  0  0  0  0
   45.5810   33.3200   44.2870 N   0  0  0  0  0  0  0  0  0  0  0  0
   45.4430   33.7300   45.5560 C   0  0  0  0  0  0  0  0  0  0  0  0
   44.9060   34.9270   45.8160 N   0  0  0  0  0  0  0  0  0  0  0  0
   44.0700   36.6920   45.0070 H   0  0  0  0  0  0  0  0  0  0  0  0
   44.3160   35.9550   42.6620 H   0  0  0  0  0  0  0  0  0  0  0  0
   47.6730   32.0570   45.2700 F   0  0  0  0  0  0  0  0  0  0  0  0
   46.9940   32.0420   46.4380 C   0  0  0  0  0  0  0  0  0  0  0  0
   45.8880   32.8440   46.6360 C   0  0  0  0  0  0  0  0  0  0  0  0
   45.1690   32.8550   47.8150 C   0  0  0  0  0  0  0  0  0  0  0  0
   44.2950   33.4840   47.9810 H   0  0  0  0  0  0  0  0  0  0  0  0
   45.5540   32.0290   48.8750 C   0  0  0  0  0  0  0  0  0  0  0  0
   45.0570   31.9680   49.8330 H   0  0  0  0  0  0  0  0  0  0  0  0
   46.6660   31.2390   48.6400 C   0  0  0  0  0  3  0  0  0  0  0  0
   47.3920   31.2160   47.4760 C   0  0  0  0  0  3  0  0  0  0  0  0
   45.3970   33.4890   41.5370 S   0  0  0  0  0  0  0  0  0  0  0  0
   46.7860   33.3750   41.2580 H   0  0  0  0  0  0  0  0  0  0  0  0
  1  7  1  0  0  0  0
  1  6  1  0  0  0  0
  2  1  2  0  0  0  0
  3  2  1  0  0  0  0
  3  4  2  0  0  0  0
  4  5  1  0  0  0  0
  5  6  2  0  0  0  0
  5 11  1  0  0  0  0
  8  2  1  0  0  0  0
  9 10  1  0  0  0  0
 10 11  2  0  0  0  0
 10 17  1  0  0  0  0
 11 12  1  0  0  0  0
 12 13  1  0  0  0  0
 12 14  2  0  0  0  0
 14 15  1  0  0  0  0
 16 14  1  0  0  0  0
 17 16  2  0  0  0  0
 18  3  1  0  0  0  0
 19 18  1  0  0  0  0
M  END
>  <minimizedAffinity>
-4.60883808

>  <minimizedRMSD>
1.13646626

$$$$
