
 OpenBabel03242523383D

 19 20  0  0  0  0  0  0  0  0999 V2000
   44.5190   35.8370   44.7210 C   0  0  0  0  0  0  0  0  0  0  0  0
   45.1930   35.7980   43.4850 C   0  0  0  0  0  0  0  0  0  0  0  0
   46.1300   34.7740   43.2870 C   0  0  0  0  0  0  0  0  0  0  0  0
   46.3230   33.8920   44.2980 N   0  0  0  0  0  0  0  0  0  0  0  0
   45.6660   33.9550   45.4650 C   0  0  0  0  0  0  0  0  0  0  0  0
   44.7680   34.9230   45.6750 N   0  0  0  0  0  0  0  0  0  0  0  0
   43.7970   36.6240   44.8770 H   0  0  0  0  0  0  0  0  0  0  0  0
   44.9970   36.5260   42.7200 H   0  0  0  0  0  0  0  0  0  0  0  0
   47.6060   31.9680   45.0830 F   0  0  0  0  0  0  0  0  0  0  0  0
   46.9200   31.9940   46.2470 C   0  0  0  0  0  0  0  0  0  0  0  0
   45.9540   32.9480   46.4910 C   0  0  0  0  0  0  0  0  0  0  0  0
   45.2340   33.0060   47.6680 C   0  0  0  0  0  0  0  0  0  0  0  0
   44.4700   33.7550   47.8700 H   0  0  0  0  0  0  0  0  0  0  0  0
   45.4710   32.0680   48.6780 C   0  0  0  0  0  0  0  0  0  0  0  0
   44.9610   32.0300   49.6300 H   0  0  0  0  0  0  0  0  0  0  0  0
   46.4470   31.1270   48.3970 C   0  0  0  0  0  3  0  0  0  0  0  0
   47.1710   31.0550   47.2350 C   0  0  0  0  0  3  0  0  0  0  0  0
   47.0210   34.6650   41.7400 S   0  0  0  0  0  0  0  0  0  0  0  0
   48.3980   34.9030   41.9950 H   0  0  0  0  0  0  0  0  0  0  0  0
  1  7  1  0  0  0  0
  1  6  1  0  0  0  0
  2  1  2  0  0  0  0
  3  2  1  0  0  0  0
  3  4  2  0  0  0  0
  4  5  1  0  0  0  0
  5  6  2  0  0  0  0
  5 11  1  0  0  0  0
  8  2  1  0  0  0  0
  9 10  1  0  0  0  0
 10 11  2  0  0  0  0
 10 17  1  0  0  0  0
 11 12  1  0  0  0  0
 12 13  1  0  0  0  0
 12 14  2  0  0  0  0
 14 15  1  0  0  0  0
 16 14  1  0  0  0  0
 17 16  2  0  0  0  0
 18 19  1  0  0  0  0
 18  3  1  0  0  0  0
M  END
>  <minimizedAffinity>
-4.96187449

>  <minimizedRMSD>
0.841210902

$$$$
