
 OpenBabel03242523203D

 37 40  0  0  0  0  0  0  0  0999 V2000
   44.7270   31.9650   42.2810 Cl  0  0  0  0  0  0  0  0  0  0  0  0
   44.7060   33.7190   42.4740 C   0  0  0  0  0  0  0  0  0  0  0  0
   45.3850   34.2110   43.6090 C   0  0  0  0  0  0  0  0  0  0  0  0
   45.3110   35.5960   43.6510 C   0  0  0  0  0  0  0  0  0  0  0  0
   44.7240   36.4550   42.8090 C   0  0  0  0  0  0  0  0  0  0  0  0
   44.0890   35.8950   41.7350 C   0  0  0  0  0  0  0  0  0  0  0  0
   44.0660   34.5550   41.5500 C   0  0  0  0  0  0  0  0  0  0  0  0
   45.7640   36.1480   44.5010 H   0  0  0  0  0  0  0  0  0  0  0  0
   44.6930   37.5180   42.8770 H   0  0  0  0  0  0  0  0  0  0  0  0
   43.5620   36.4270   40.9540 H   0  0  0  0  0  0  0  0  0  0  0  0
   41.3640   34.1060   41.7740 F   0  0  0  0  0  0  0  0  0  0  0  0
   42.0460   33.6650   40.6740 C   0  0  0  0  0  0  0  0  0  0  0  0
   43.4160   33.8270   40.4370 C   0  0  0  0  0  0  0  0  0  0  0  0
   43.9710   33.3400   39.2970 C   0  0  0  0  0  0  0  0  0  0  0  0
   45.0330   33.5220   39.2200 H   0  0  0  0  0  0  0  0  0  0  0  0
   43.1660   32.6880   38.3890 C   0  0  0  0  0  0  0  0  0  0  0  0
   43.6600   32.3200   37.4990 H   0  0  0  0  0  0  0  0  0  0  0  0
   41.8150   32.5160   38.6010 C   0  0  0  0  0  3  0  0  0  0  0  0
   41.2370   33.0080   39.7550 C   0  0  0  0  0  3  0  0  0  0  0  0
   46.1030   33.4090   44.6330 C   0  0  0  0  0  0  0  0  0  0  0  0
   45.4350   33.7180   45.5870 O   0  0  0  0  0  0  0  0  0  0  0  0
   47.2020   32.6900   43.9770 C   0  0  0  0  0  0  0  0  0  0  0  0
   48.1100   33.2080   43.1390 C   0  0  0  0  0  0  0  0  0  0  0  0
   48.9770   32.2880   42.5860 C   0  0  0  0  0  0  0  0  0  0  0  0
   48.8420   30.9340   42.9410 N   0  0  0  0  0  0  0  0  0  0  0  0
   47.9270   30.5000   43.7750 C   0  0  0  0  0  0  0  0  0  0  0  0
   47.0400   31.3860   44.3460 N   0  0  0  0  0  0  0  0  0  0  0  0
   49.7710   32.5270   41.8860 H   0  0  0  0  0  0  0  0  0  0  0  0
   47.9430   29.4290   43.9560 H   0  0  0  0  0  0  0  0  0  0  0  0
   48.3170   34.5880   42.8740 C   0  0  0  0  0  0  0  0  0  0  0  0
   49.3610   35.1710   42.2270 C   0  0  0  0  0  0  0  0  0  0  0  0
   48.1340   35.0550   41.3630 C   0  0  0  0  0  0  0  0  0  0  0  0
   47.8630   35.2720   43.6150 H   0  0  0  0  0  0  0  0  0  0  0  0
   50.2120   34.5260   41.8710 H   0  0  0  0  0  0  0  0  0  0  0  0
   49.7360   36.2220   42.2730 H   0  0  0  0  0  0  0  0  0  0  0  0
   47.4370   35.9000   41.2430 H   0  0  0  0  0  0  0  0  0  0  0  0
   48.0600   34.2200   40.6590 H   0  0  0  0  0  0  0  0  0  0  0  0
  1  2  1  0  0  0  0
  2  3  1  0  0  0  0
  3  4  2  0  0  0  0
  3 20  1  0  0  0  0
  4  8  1  0  0  0  0
  5  9  1  0  0  0  0
  5  4  1  0  0  0  0
  6  5  2  0  0  0  0
  7  6  1  0  0  0  0
  7  2  2  0  0  0  0
 10  6  1  0  0  0  0
 12 11  1  0  0  0  0
 13 12  1  0  0  0  0
 13  7  1  0  0  0  0
 14 13  2  0  0  0  0
 15 14  1  0  0  0  0
 16 18  2  0  0  0  0
 16 14  1  0  0  0  0
 17 16  1  0  0  0  0
 18 19  1  0  0  0  0
 19 12  2  0  0  0  0
 20 21  2  0  0  0  0
 22 27  1  0  0  0  0
 22 20  1  0  0  0  0
 23 22  2  0  0  0  0
 24 25  2  0  0  0  0
 24 23  1  0  0  0  0
 25 26  1  0  0  0  0
 26 29  1  0  0  0  0
 26 27  2  0  0  0  0
 28 24  1  0  0  0  0
 30 23  1  0  0  0  0
 30 33  1  0  0  0  0
 31 35  1  0  0  0  0
 31 30  1  0  0  0  0
 32 31  1  0  0  0  0
 32 30  1  0  0  0  0
 34 31  1  0  0  0  0
 36 32  1  0  0  0  0
 37 32  1  0  0  0  0
M  END
>  <minimizedAffinity>
-5.54702091

>  <minimizedRMSD>
1.17956913

$$$$
