
 OpenBabel03242523213D

 37 40  0  0  0  0  0  0  0  0999 V2000
   36.4570   26.8450   39.1480 Cl  0  0  0  0  0  0  0  0  0  0  0  0
   37.0900   27.4280   40.6880 C   0  0  0  0  0  0  0  0  0  0  0  0
   36.6470   28.7080   41.0790 C   0  0  0  0  0  0  0  0  0  0  0  0
   37.1990   29.0560   42.3030 C   0  0  0  0  0  0  0  0  0  0  0  0
   38.0320   28.3750   43.1000 C   0  0  0  0  0  0  0  0  0  0  0  0
   38.4120   27.1420   42.6460 C   0  0  0  0  0  0  0  0  0  0  0  0
   37.9640   26.6570   41.4660 C   0  0  0  0  0  0  0  0  0  0  0  0
   36.9820   30.0520   42.7440 H   0  0  0  0  0  0  0  0  0  0  0  0
   38.4320   28.6790   44.0390 H   0  0  0  0  0  0  0  0  0  0  0  0
   39.0770   26.4530   43.1490 H   0  0  0  0  0  0  0  0  0  0  0  0
   36.4060   24.5180   42.2070 F   0  0  0  0  0  0  0  0  0  0  0  0
   37.4330   24.3470   41.3240 C   0  0  0  0  0  0  0  0  0  0  0  0
   38.3000   25.3460   40.8650 C   0  0  0  0  0  0  0  0  0  0  0  0
   39.2850   25.0390   39.9830 C   0  0  0  0  0  0  0  0  0  0  0  0
   39.8930   25.8870   39.6980 H   0  0  0  0  0  0  0  0  0  0  0  0
   39.4150   23.7360   39.5520 C   0  0  0  0  0  0  0  0  0  0  0  0
   40.2170   23.5490   38.8500 H   0  0  0  0  0  0  0  0  0  0  0  0
   38.5740   22.7360   39.9900 C   0  0  0  0  0  3  0  0  0  0  0  0
   37.5680   23.0340   40.8880 C   0  0  0  0  0  3  0  0  0  0  0  0
   35.7140   29.5930   40.3330 C   0  0  0  0  0  0  0  0  0  0  0  0
   34.6890   29.0210   40.6010 O   0  0  0  0  0  0  0  0  0  0  0  0
   36.4950   30.6570   39.6880 C   0  0  0  0  0  0  0  0  0  0  0  0
   36.8980   30.6900   38.4100 C   0  0  0  0  0  0  0  0  0  0  0  0
   37.7040   31.7630   38.0870 C   0  0  0  0  0  0  0  0  0  0  0  0
   38.0180   32.6980   39.0900 N   0  0  0  0  0  0  0  0  0  0  0  0
   37.5810   32.6000   40.3230 C   0  0  0  0  0  0  0  0  0  0  0  0
   36.7760   31.5420   40.6860 N   0  0  0  0  0  0  0  0  0  0  0  0
   38.1240   31.9490   37.1040 H   0  0  0  0  0  0  0  0  0  0  0  0
   37.9040   33.3960   40.9880 H   0  0  0  0  0  0  0  0  0  0  0  0
   36.4840   29.8100   37.3760 C   0  0  0  0  0  0  0  0  0  0  0  0
   36.6950   29.9300   36.0380 C   0  0  0  0  0  0  0  0  0  0  0  0
   37.6260   28.9410   36.6860 C   0  0  0  0  0  0  0  0  0  0  0  0
   35.5590   29.2460   37.5940 H   0  0  0  0  0  0  0  0  0  0  0  0
   37.2250   30.8430   35.6470 H   0  0  0  0  0  0  0  0  0  0  0  0
   36.1400   29.4750   35.1810 H   0  0  0  0  0  0  0  0  0  0  0  0
   37.4110   27.8610   36.6730 H   0  0  0  0  0  0  0  0  0  0  0  0
   38.6360   29.2650   36.9540 H   0  0  0  0  0  0  0  0  0  0  0  0
  1  2  1  0  0  0  0
  2  3  2  0  0  0  0
  2  7  1  0  0  0  0
  3  4  1  0  0  0  0
  4  8  1  0  0  0  0
  4  5  2  0  0  0  0
  5  9  1  0  0  0  0
  6  5  1  0  0  0  0
  6 10  1  0  0  0  0
  7  6  2  0  0  0  0
 12 11  1  0  0  0  0
 13 12  2  0  0  0  0
 13  7  1  0  0  0  0
 14 13  1  0  0  0  0
 15 14  1  0  0  0  0
 16 14  2  0  0  0  0
 16 18  1  0  0  0  0
 17 16  1  0  0  0  0
 18 19  2  0  0  0  0
 19 12  1  0  0  0  0
 20 21  2  0  0  0  0
 20  3  1  0  0  0  0
 22 20  1  0  0  0  0
 22 27  1  0  0  0  0
 23 22  2  0  0  0  0
 24 23  1  0  0  0  0
 24 25  2  0  0  0  0
 25 26  1  0  0  0  0
 26 27  2  0  0  0  0
 26 29  1  0  0  0  0
 28 24  1  0  0  0  0
 30 33  1  0  0  0  0
 30 23  1  0  0  0  0
 31 32  1  0  0  0  0
 31 30  1  0  0  0  0
 32 37  1  0  0  0  0
 32 30  1  0  0  0  0
 34 31  1  0  0  0  0
 35 31  1  0  0  0  0
 36 32  1  0  0  0  0
M  END
>  <minimizedAffinity>
-6.18188906

$$$$

 OpenBabel03242523213D

 37 40  0  0  0  0  0  0  0  0999 V2000
   36.0730   26.5940   38.8720 Cl  0  0  0  0  0  0  0  0  0  0  0  0
   36.5880   27.3430   40.3840 C   0  0  0  0  0  0  0  0  0  0  0  0
   36.1730   28.6790   40.5710 C   0  0  0  0  0  0  0  0  0  0  0  0
   36.6250   29.1580   41.7910 C   0  0  0  0  0  0  0  0  0  0  0  0
   37.3470   28.5530   42.7430 C   0  0  0  0  0  0  0  0  0  0  0  0
   37.7070   27.2590   42.4820 C   0  0  0  0  0  0  0  0  0  0  0  0
   37.3480   26.6460   41.3320 C   0  0  0  0  0  0  0  0  0  0  0  0
   36.4170   30.2080   42.0840 H   0  0  0  0  0  0  0  0  0  0  0  0
   37.6730   28.9580   43.6720 H   0  0  0  0  0  0  0  0  0  0  0  0
   38.2880   26.6150   43.1290 H   0  0  0  0  0  0  0  0  0  0  0  0
   39.7100   26.2680   39.9810 F   0  0  0  0  0  0  0  0  0  0  0  0
   38.8970   25.2050   40.2540 C   0  0  0  0  0  0  0  0  0  0  0  0
   37.6740   25.2580   40.9310 C   0  0  0  0  0  0  0  0  0  0  0  0
   36.9610   24.1200   41.1380 C   0  0  0  0  0  0  0  0  0  0  0  0
   36.0330   24.2800   41.6700 H   0  0  0  0  0  0  0  0  0  0  0  0
   37.4610   22.9240   40.6720 C   0  0  0  0  0  0  0  0  0  0  0  0
   36.8530   22.0510   40.8650 H   0  0  0  0  0  0  0  0  0  0  0  0
   38.6640   22.8480   40.0030 C   0  0  0  0  0  3  0  0  0  0  0  0
   39.3990   23.9970   39.7860 C   0  0  0  0  0  3  0  0  0  0  0  0
   35.3570   29.4950   39.6350 C   0  0  0  0  0  0  0  0  0  0  0  0
   34.2740   29.2660   40.1110 O   0  0  0  0  0  0  0  0  0  0  0  0
   36.2560   30.1280   38.6610 C   0  0  0  0  0  0  0  0  0  0  0  0
   36.9340   31.2720   38.8250 C   0  0  0  0  0  0  0  0  0  0  0  0
   37.6330   31.6930   37.7110 C   0  0  0  0  0  0  0  0  0  0  0  0
   37.5790   30.9110   36.5430 N   0  0  0  0  0  0  0  0  0  0  0  0
   36.8920   29.7960   36.4600 C   0  0  0  0  0  0  0  0  0  0  0  0
   36.1790   29.3430   37.5480 N   0  0  0  0  0  0  0  0  0  0  0  0
   38.2330   32.5970   37.6610 H   0  0  0  0  0  0  0  0  0  0  0  0
   36.9440   29.2980   35.4960 H   0  0  0  0  0  0  0  0  0  0  0  0
   37.0810   31.9960   40.0380 C   0  0  0  0  0  0  0  0  0  0  0  0
   38.2310   32.3760   40.6550 C   0  0  0  0  0  0  0  0  0  0  0  0
   37.5730   33.5040   39.9090 C   0  0  0  0  0  0  0  0  0  0  0  0
   36.2580   31.8510   40.7620 H   0  0  0  0  0  0  0  0  0  0  0  0
   39.2180   32.0690   40.2080 H   0  0  0  0  0  0  0  0  0  0  0  0
   38.4170   32.6400   41.7240 H   0  0  0  0  0  0  0  0  0  0  0  0
   36.9210   34.2270   40.4240 H   0  0  0  0  0  0  0  0  0  0  0  0
   37.9340   33.7560   38.9060 H   0  0  0  0  0  0  0  0  0  0  0  0
  1  2  1  0  0  0  0
  2  3  2  0  0  0  0
  2  7  1  0  0  0  0
  3  4  1  0  0  0  0
  4  8  1  0  0  0  0
  4  5  2  0  0  0  0
  5  9  1  0  0  0  0
  6  5  1  0  0  0  0
  6 10  1  0  0  0  0
  7  6  2  0  0  0  0
 11 12  1  0  0  0  0
 12 13  1  0  0  0  0
 13 14  2  0  0  0  0
 13  7  1  0  0  0  0
 14 15  1  0  0  0  0
 16 17  1  0  0  0  0
 16 14  1  0  0  0  0
 18 16  2  0  0  0  0
 19 18  1  0  0  0  0
 19 12  2  0  0  0  0
 20 21  2  0  0  0  0
 20  3  1  0  0  0  0
 22 23  1  0  0  0  0
 22 20  1  0  0  0  0
 23 30  1  0  0  0  0
 24 23  2  0  0  0  0
 25 24  1  0  0  0  0
 26 25  2  0  0  0  0
 26 27  1  0  0  0  0
 27 22  2  0  0  0  0
 28 24  1  0  0  0  0
 29 26  1  0  0  0  0
 30 31  1  0  0  0  0
 30 33  1  0  0  0  0
 31 35  1  0  0  0  0
 32 30  1  0  0  0  0
 32 36  1  0  0  0  0
 32 31  1  0  0  0  0
 34 31  1  0  0  0  0
 37 32  1  0  0  0  0
M  END
>  <minimizedAffinity>
-6.00427723

$$$$

 OpenBabel03242523213D

 37 40  0  0  0  0  0  0  0  0999 V2000
   39.5120   27.3980   39.7890 Cl  0  0  0  0  0  0  0  0  0  0  0  0
   38.7610   27.9280   41.2950 C   0  0  0  0  0  0  0  0  0  0  0  0
   38.9980   29.2720   41.6500 C   0  0  0  0  0  0  0  0  0  0  0  0
   38.3530   29.5770   42.8400 C   0  0  0  0  0  0  0  0  0  0  0  0
   37.5890   28.8120   43.6290 C   0  0  0  0  0  0  0  0  0  0  0  0
   37.4090   27.5220   43.2120 C   0  0  0  0  0  0  0  0  0  0  0  0
   37.9750   27.0660   42.0710 C   0  0  0  0  0  0  0  0  0  0  0  0
   38.4640   30.5890   43.2840 H   0  0  0  0  0  0  0  0  0  0  0  0
   37.1080   29.0880   44.5380 H   0  0  0  0  0  0  0  0  0  0  0  0
   36.8280   26.7620   43.7160 H   0  0  0  0  0  0  0  0  0  0  0  0
   36.1330   26.6950   40.0660 F   0  0  0  0  0  0  0  0  0  0  0  0
   36.8910   25.6470   40.5050 C   0  0  0  0  0  0  0  0  0  0  0  0
   37.8600   25.6980   41.5140 C   0  0  0  0  0  0  0  0  0  0  0  0
   38.5460   24.5770   41.8550 C   0  0  0  0  0  0  0  0  0  0  0  0
   39.2680   24.7340   42.6450 H   0  0  0  0  0  0  0  0  0  0  0  0
   38.2720   23.3990   41.1960 C   0  0  0  0  0  0  0  0  0  0  0  0
   38.8480   22.5390   41.5080 H   0  0  0  0  0  0  0  0  0  0  0  0
   37.3230   23.3250   40.1990 C   0  0  0  0  0  3  0  0  0  0  0  0
   36.6170   24.4570   39.8420 C   0  0  0  0  0  3  0  0  0  0  0  0
   39.8020   30.2640   40.8890 C   0  0  0  0  0  0  0  0  0  0  0  0
   40.8630   29.6980   40.9420 O   0  0  0  0  0  0  0  0  0  0  0  0
   38.9210   31.3690   40.4860 C   0  0  0  0  0  0  0  0  0  0  0  0
   37.9070   31.3050   39.6120 C   0  0  0  0  0  0  0  0  0  0  0  0
   37.3020   32.5160   39.3410 C   0  0  0  0  0  0  0  0  0  0  0  0
   37.7820   33.6700   39.9860 N   0  0  0  0  0  0  0  0  0  0  0  0
   38.7810   33.6530   40.8360 C   0  0  0  0  0  0  0  0  0  0  0  0
   39.4130   32.4650   41.1310 N   0  0  0  0  0  0  0  0  0  0  0  0
   36.4700   32.6540   38.6570 H   0  0  0  0  0  0  0  0  0  0  0  0
   39.0410   34.6200   41.2570 H   0  0  0  0  0  0  0  0  0  0  0  0
   37.3520   30.1240   39.0540 C   0  0  0  0  0  0  0  0  0  0  0  0
   36.4450   30.0170   38.0470 C   0  0  0  0  0  0  0  0  0  0  0  0
   37.8510   29.7270   37.5950 C   0  0  0  0  0  0  0  0  0  0  0  0
   37.2860   29.2710   39.7550 H   0  0  0  0  0  0  0  0  0  0  0  0
   36.0210   30.9550   37.5920 H   0  0  0  0  0  0  0  0  0  0  0  0
   35.7490   29.1800   37.7950 H   0  0  0  0  0  0  0  0  0  0  0  0
   38.2260   28.6940   37.5220 H   0  0  0  0  0  0  0  0  0  0  0  0
   38.4220   30.5220   37.1040 H   0  0  0  0  0  0  0  0  0  0  0  0
  1  2  1  0  0  0  0
  2  3  2  0  0  0  0
  2  7  1  0  0  0  0
  3  4  1  0  0  0  0
  4  8  1  0  0  0  0
  4  5  2  0  0  0  0
  5  9  1  0  0  0  0
  6  5  1  0  0  0  0
  6 10  1  0  0  0  0
  7  6  2  0  0  0  0
 11 12  1  0  0  0  0
 12 13  1  0  0  0  0
 13 14  2  0  0  0  0
 13  7  1  0  0  0  0
 14 15  1  0  0  0  0
 16 17  1  0  0  0  0
 16 14  1  0  0  0  0
 18 16  2  0  0  0  0
 19 18  1  0  0  0  0
 19 12  2  0  0  0  0
 20 21  2  0  0  0  0
 20  3  1  0  0  0  0
 22 20  1  0  0  0  0
 22 27  1  0  0  0  0
 23 22  2  0  0  0  0
 24 23  1  0  0  0  0
 24 25  2  0  0  0  0
 25 26  1  0  0  0  0
 26 27  2  0  0  0  0
 26 29  1  0  0  0  0
 28 24  1  0  0  0  0
 30 23  1  0  0  0  0
 30 33  1  0  0  0  0
 31 30  1  0  0  0  0
 32 31  1  0  0  0  0
 32 30  1  0  0  0  0
 34 31  1  0  0  0  0
 35 31  1  0  0  0  0
 36 32  1  0  0  0  0
 37 32  1  0  0  0  0
M  END
>  <minimizedAffinity>
-5.96595812

$$$$

 OpenBabel03242523213D

 37 40  0  0  0  0  0  0  0  0999 V2000
   39.7130   28.8200   39.7020 Cl  0  0  0  0  0  0  0  0  0  0  0  0
   37.9910   29.0690   39.9980 C   0  0  0  0  0  0  0  0  0  0  0  0
   37.3790   30.0650   39.2080 C   0  0  0  0  0  0  0  0  0  0  0  0
   36.0310   30.1650   39.5180 C   0  0  0  0  0  0  0  0  0  0  0  0
   35.2960   29.4820   40.4040 C   0  0  0  0  0  0  0  0  0  0  0  0
   35.9670   28.5350   41.1280 C   0  0  0  0  0  0  0  0  0  0  0  0
   37.2890   28.3160   40.9470 C   0  0  0  0  0  0  0  0  0  0  0  0
   35.4030   30.9280   39.0120 H   0  0  0  0  0  0  0  0  0  0  0  0
   34.2560   29.5890   40.6110 H   0  0  0  0  0  0  0  0  0  0  0  0
   35.5420   27.8900   41.8860 H   0  0  0  0  0  0  0  0  0  0  0  0
   38.4220   29.1360   43.3120 F   0  0  0  0  0  0  0  0  0  0  0  0
   38.6410   27.8700   42.8470 C   0  0  0  0  0  0  0  0  0  0  0  0
   38.1270   27.3280   41.6640 C   0  0  0  0  0  0  0  0  0  0  0  0
   38.4240   26.0490   41.3170 C   0  0  0  0  0  0  0  0  0  0  0  0
   37.9740   25.7370   40.3840 H   0  0  0  0  0  0  0  0  0  0  0  0
   39.2350   25.3030   42.1430 C   0  0  0  0  0  0  0  0  0  0  0  0
   39.4380   24.2910   41.8180 H   0  0  0  0  0  0  0  0  0  0  0  0
   39.7520   25.8150   43.3140 C   0  0  0  0  0  3  0  0  0  0  0  0
   39.4590   27.1140   43.6790 C   0  0  0  0  0  3  0  0  0  0  0  0
   38.0340   30.9040   38.1700 C   0  0  0  0  0  0  0  0  0  0  0  0
   37.6140   30.3280   37.1980 O   0  0  0  0  0  0  0  0  0  0  0  0
   38.8150   31.9510   38.8400 C   0  0  0  0  0  0  0  0  0  0  0  0
   40.0520   32.3550   38.5190 C   0  0  0  0  0  0  0  0  0  0  0  0
   40.5940   33.2910   39.3770 C   0  0  0  0  0  0  0  0  0  0  0  0
   39.8260   33.7300   40.4700 N   0  0  0  0  0  0  0  0  0  0  0  0
   38.6150   33.2900   40.7180 C   0  0  0  0  0  0  0  0  0  0  0  0
   38.0400   32.3520   39.8880 N   0  0  0  0  0  0  0  0  0  0  0  0
   41.5830   33.7270   39.2740 H   0  0  0  0  0  0  0  0  0  0  0  0
   38.1440   33.7190   41.5970 H   0  0  0  0  0  0  0  0  0  0  0  0
   40.7760   31.9970   37.3510 C   0  0  0  0  0  0  0  0  0  0  0  0
   42.1020   32.1660   37.1010 C   0  0  0  0  0  0  0  0  0  0  0  0
   41.7580   30.7510   37.4790 C   0  0  0  0  0  0  0  0  0  0  0  0
   40.1800   32.0080   36.4200 H   0  0  0  0  0  0  0  0  0  0  0  0
   42.7410   32.6840   37.8690 H   0  0  0  0  0  0  0  0  0  0  0  0
   42.6470   32.2130   36.1270 H   0  0  0  0  0  0  0  0  0  0  0  0
   41.5930   29.9780   36.7120 H   0  0  0  0  0  0  0  0  0  0  0  0
   41.9130   30.4280   38.5140 H   0  0  0  0  0  0  0  0  0  0  0  0
  1  2  1  0  0  0  0
  2  7  1  0  0  0  0
  3  4  1  0  0  0  0
  3  2  2  0  0  0  0
  4  5  2  0  0  0  0
  5  9  1  0  0  0  0
  5  6  1  0  0  0  0
  6 10  1  0  0  0  0
  7  6  2  0  0  0  0
  7 13  1  0  0  0  0
  8  4  1  0  0  0  0
 12 11  1  0  0  0  0
 12 19  1  0  0  0  0
 13 12  2  0  0  0  0
 14 13  1  0  0  0  0
 14 16  2  0  0  0  0
 15 14  1  0  0  0  0
 16 18  1  0  0  0  0
 17 16  1  0  0  0  0
 18 19  2  0  0  0  0
 20 22  1  0  0  0  0
 20  3  1  0  0  0  0
 21 20  2  0  0  0  0
 22 27  1  0  0  0  0
 23 22  2  0  0  0  0
 23 24  1  0  0  0  0
 24 25  2  0  0  0  0
 25 26  1  0  0  0  0
 26 29  1  0  0  0  0
 27 26  2  0  0  0  0
 28 24  1  0  0  0  0
 30 32  1  0  0  0  0
 30 23  1  0  0  0  0
 31 30  1  0  0  0  0
 31 32  1  0  0  0  0
 31 34  1  0  0  0  0
 32 37  1  0  0  0  0
 33 30  1  0  0  0  0
 35 31  1  0  0  0  0
 36 32  1  0  0  0  0
M  END
>  <minimizedAffinity>
-5.87041903

$$$$

 OpenBabel03242523213D

 37 40  0  0  0  0  0  0  0  0999 V2000
   36.9160   26.0300   40.6900 Cl  0  0  0  0  0  0  0  0  0  0  0  0
   38.2540   25.9570   41.8370 C   0  0  0  0  0  0  0  0  0  0  0  0
   38.2970   27.0010   42.7850 C   0  0  0  0  0  0  0  0  0  0  0  0
   39.3790   26.8350   43.6360 C   0  0  0  0  0  0  0  0  0  0  0  0
   40.3140   25.8770   43.6680 C   0  0  0  0  0  0  0  0  0  0  0  0
   40.1990   24.9030   42.7150 C   0  0  0  0  0  0  0  0  0  0  0  0
   39.1980   24.9220   41.8060 C   0  0  0  0  0  0  0  0  0  0  0  0
   39.5830   27.5910   44.4240 H   0  0  0  0  0  0  0  0  0  0  0  0
   41.1320   25.7850   44.3440 H   0  0  0  0  0  0  0  0  0  0  0  0
   40.8580   24.0550   42.5850 H   0  0  0  0  0  0  0  0  0  0  0  0
   40.5880   25.2920   39.4640 F   0  0  0  0  0  0  0  0  0  0  0  0
   39.7300   24.2370   39.5950 C   0  0  0  0  0  0  0  0  0  0  0  0
   38.9650   23.9340   40.7270 C   0  0  0  0  0  0  0  0  0  0  0  0
   38.1480   22.8500   40.7260 C   0  0  0  0  0  0  0  0  0  0  0  0
   37.6060   22.7140   41.6520 H   0  0  0  0  0  0  0  0  0  0  0  0
   38.0870   22.0600   39.5990 C   0  0  0  0  0  0  0  0  0  0  0  0
   37.4200   21.2100   39.6530 H   0  0  0  0  0  0  0  0  0  0  0  0
   38.8310   22.3380   38.4720 C   0  0  0  0  0  3  0  0  0  0  0  0
   39.6660   23.4380   38.4590 C   0  0  0  0  0  3  0  0  0  0  0  0
   37.3380   28.1300   42.9080 C   0  0  0  0  0  0  0  0  0  0  0  0
   36.4800   27.5560   43.5280 O   0  0  0  0  0  0  0  0  0  0  0  0
   37.9120   29.3050   42.2390 C   0  0  0  0  0  0  0  0  0  0  0  0
   37.5490   29.8060   41.0510 C   0  0  0  0  0  0  0  0  0  0  0  0
   38.3220   30.8620   40.6090 C   0  0  0  0  0  0  0  0  0  0  0  0
   39.3810   31.3090   41.4190 N   0  0  0  0  0  0  0  0  0  0  0  0
   39.6750   30.7680   42.5780 C   0  0  0  0  0  0  0  0  0  0  0  0
   38.9300   29.7100   43.0520 N   0  0  0  0  0  0  0  0  0  0  0  0
   38.1750   31.3870   39.6710 H   0  0  0  0  0  0  0  0  0  0  0  0
   40.5190   31.2180   43.0920 H   0  0  0  0  0  0  0  0  0  0  0  0
   36.4100   29.4290   40.2930 C   0  0  0  0  0  0  0  0  0  0  0  0
   35.8560   30.0740   39.2320 C   0  0  0  0  0  0  0  0  0  0  0  0
   36.6840   28.8860   38.8220 C   0  0  0  0  0  0  0  0  0  0  0  0
   35.6560   28.8470   40.8550 H   0  0  0  0  0  0  0  0  0  0  0  0
   36.2970   31.0540   38.8970 H   0  0  0  0  0  0  0  0  0  0  0  0
   34.8190   30.0180   38.8200 H   0  0  0  0  0  0  0  0  0  0  0  0
   36.2190   27.9090   38.6180 H   0  0  0  0  0  0  0  0  0  0  0  0
   37.7130   29.0500   38.4870 H   0  0  0  0  0  0  0  0  0  0  0  0
  1  2  1  0  0  0  0
  2  3  1  0  0  0  0
  3 20  1  0  0  0  0
  3  4  2  0  0  0  0
  4  5  1  0  0  0  0
  4  8  1  0  0  0  0
  5  9  1  0  0  0  0
  6  5  2  0  0  0  0
  7  2  2  0  0  0  0
  7  6  1  0  0  0  0
 10  6  1  0  0  0  0
 11 12  1  0  0  0  0
 12 13  1  0  0  0  0
 13  7  1  0  0  0  0
 14 13  2  0  0  0  0
 14 15  1  0  0  0  0
 16 17  1  0  0  0  0
 16 14  1  0  0  0  0
 18 16  2  0  0  0  0
 19 18  1  0  0  0  0
 19 12  2  0  0  0  0
 20 21  2  0  0  0  0
 22 20  1  0  0  0  0
 22 27  1  0  0  0  0
 23 22  2  0  0  0  0
 24 23  1  0  0  0  0
 24 25  2  0  0  0  0
 25 26  1  0  0  0  0
 26 27  2  0  0  0  0
 26 29  1  0  0  0  0
 28 24  1  0  0  0  0
 30 33  1  0  0  0  0
 30 23  1  0  0  0  0
 31 30  1  0  0  0  0
 32 31  1  0  0  0  0
 32 30  1  0  0  0  0
 34 31  1  0  0  0  0
 35 31  1  0  0  0  0
 36 32  1  0  0  0  0
 37 32  1  0  0  0  0
M  END
>  <minimizedAffinity>
-5.76695061

$$$$

 OpenBabel03242523213D

 37 40  0  0  0  0  0  0  0  0999 V2000
   39.8340   26.7740   40.3170 Cl  0  0  0  0  0  0  0  0  0  0  0  0
   38.8110   27.3550   41.6320 C   0  0  0  0  0  0  0  0  0  0  0  0
   39.2000   28.5850   42.2030 C   0  0  0  0  0  0  0  0  0  0  0  0
   38.3220   28.9450   43.2140 C   0  0  0  0  0  0  0  0  0  0  0  0
   37.2310   28.3200   43.6750 C   0  0  0  0  0  0  0  0  0  0  0  0
   36.9250   27.1340   43.0660 C   0  0  0  0  0  0  0  0  0  0  0  0
   37.6850   26.6410   42.0630 C   0  0  0  0  0  0  0  0  0  0  0  0
   38.5010   29.8740   43.7970 H   0  0  0  0  0  0  0  0  0  0  0  0
   36.5790   28.6340   44.4560 H   0  0  0  0  0  0  0  0  0  0  0  0
   36.0870   26.4910   43.3020 H   0  0  0  0  0  0  0  0  0  0  0  0
   36.1560   26.7840   39.7840 F   0  0  0  0  0  0  0  0  0  0  0  0
   36.6730   25.5870   40.1900 C   0  0  0  0  0  0  0  0  0  0  0  0
   37.4640   25.3750   41.3260 C   0  0  0  0  0  0  0  0  0  0  0  0
   37.9150   24.1280   41.6170 C   0  0  0  0  0  0  0  0  0  0  0  0
   38.5150   24.0830   42.5150 H   0  0  0  0  0  0  0  0  0  0  0  0
   37.5820   23.0840   40.7820 C   0  0  0  0  0  0  0  0  0  0  0  0
   37.9680   22.1140   41.0610 H   0  0  0  0  0  0  0  0  0  0  0  0
   36.8040   23.2690   39.6580 C   0  0  0  0  0  3  0  0  0  0  0  0
   36.3390   24.5320   39.3500 C   0  0  0  0  0  3  0  0  0  0  0  0
   40.3640   29.4200   41.8080 C   0  0  0  0  0  0  0  0  0  0  0  0
   40.9950   29.3240   42.8290 O   0  0  0  0  0  0  0  0  0  0  0  0
   40.1470   29.9060   40.4390 C   0  0  0  0  0  0  0  0  0  0  0  0
   39.0970   30.6120   39.9980 C   0  0  0  0  0  0  0  0  0  0  0  0
   39.0960   30.8560   38.6390 C   0  0  0  0  0  0  0  0  0  0  0  0
   40.1610   30.3640   37.8630 N   0  0  0  0  0  0  0  0  0  0  0  0
   41.1590   29.6800   38.3690 C   0  0  0  0  0  0  0  0  0  0  0  0
   41.1960   29.4130   39.7200 N   0  0  0  0  0  0  0  0  0  0  0  0
   38.3250   31.4080   38.1090 H   0  0  0  0  0  0  0  0  0  0  0  0
   41.9090   29.3660   37.6490 H   0  0  0  0  0  0  0  0  0  0  0  0
   38.0870   31.2050   40.8000 C   0  0  0  0  0  0  0  0  0  0  0  0
   37.1100   32.0700   40.4160 C   0  0  0  0  0  0  0  0  0  0  0  0
   36.6050   30.6630   40.5910 C   0  0  0  0  0  0  0  0  0  0  0  0
   38.3680   31.3510   41.8600 H   0  0  0  0  0  0  0  0  0  0  0  0
   37.0790   32.4200   39.3470 H   0  0  0  0  0  0  0  0  0  0  0  0
   36.5200   32.7990   41.0230 H   0  0  0  0  0  0  0  0  0  0  0  0
   36.1160   30.3430   41.5240 H   0  0  0  0  0  0  0  0  0  0  0  0
   36.5000   30.0270   39.7060 H   0  0  0  0  0  0  0  0  0  0  0  0
  1  2  1  0  0  0  0
  2  7  2  0  0  0  0
  2  3  1  0  0  0  0
  3  4  2  0  0  0  0
  4  5  1  0  0  0  0
  4  8  1  0  0  0  0
  5  9  1  0  0  0  0
  6 10  1  0  0  0  0
  6  5  2  0  0  0  0
  7  6  1  0  0  0  0
 11 12  1  0  0  0  0
 12 13  1  0  0  0  0
 13 14  2  0  0  0  0
 13  7  1  0  0  0  0
 14 15  1  0  0  0  0
 16 17  1  0  0  0  0
 16 14  1  0  0  0  0
 18 16  2  0  0  0  0
 19 18  1  0  0  0  0
 19 12  2  0  0  0  0
 20  3  1  0  0  0  0
 20 21  2  0  0  0  0
 22 20  1  0  0  0  0
 23 22  1  0  0  0  0
 23 30  1  0  0  0  0
 24 23  2  0  0  0  0
 25 26  2  0  0  0  0
 25 24  1  0  0  0  0
 26 27  1  0  0  0  0
 27 22  2  0  0  0  0
 28 24  1  0  0  0  0
 29 26  1  0  0  0  0
 30 33  1  0  0  0  0
 31 32  1  0  0  0  0
 31 30  1  0  0  0  0
 31 35  1  0  0  0  0
 32 30  1  0  0  0  0
 32 36  1  0  0  0  0
 34 31  1  0  0  0  0
 37 32  1  0  0  0  0
M  END
>  <minimizedAffinity>
-5.75609827

$$$$

 OpenBabel03242523213D

 37 40  0  0  0  0  0  0  0  0999 V2000
   34.7760   28.9100   40.1080 Cl  0  0  0  0  0  0  0  0  0  0  0  0
   35.9970   29.6410   39.0640 C   0  0  0  0  0  0  0  0  0  0  0  0
   36.9870   30.3950   39.7280 C   0  0  0  0  0  0  0  0  0  0  0  0
   37.8940   30.9100   38.8130 C   0  0  0  0  0  0  0  0  0  0  0  0
   37.9420   30.7850   37.4810 C   0  0  0  0  0  0  0  0  0  0  0  0
   36.9450   30.0380   36.9180 C   0  0  0  0  0  0  0  0  0  0  0  0
   35.9790   29.4680   37.6740 C   0  0  0  0  0  0  0  0  0  0  0  0
   38.7230   31.5610   39.1630 H   0  0  0  0  0  0  0  0  0  0  0  0
   38.6610   31.1970   36.8120 H   0  0  0  0  0  0  0  0  0  0  0  0
   36.8190   29.8280   35.8640 H   0  0  0  0  0  0  0  0  0  0  0  0
   36.3970   26.7560   37.5350 F   0  0  0  0  0  0  0  0  0  0  0  0
   35.1930   27.2850   37.1680 C   0  0  0  0  0  0  0  0  0  0  0  0
   34.8490   28.6420   37.1900 C   0  0  0  0  0  0  0  0  0  0  0  0
   33.6110   29.0360   36.7970 C   0  0  0  0  0  0  0  0  0  0  0  0
   33.4580   30.1050   36.8550 H   0  0  0  0  0  0  0  0  0  0  0  0
   32.7080   28.0840   36.3780 C   0  0  0  0  0  0  0  0  0  0  0  0
   31.7370   28.4540   36.0770 H   0  0  0  0  0  0  0  0  0  0  0  0
   33.0230   26.7420   36.3480 C   0  0  0  0  0  3  0  0  0  0  0  0
   34.2790   26.3270   36.7450 C   0  0  0  0  0  3  0  0  0  0  0  0
   37.0990   30.6240   41.1920 C   0  0  0  0  0  0  0  0  0  0  0  0
   36.1110   31.2990   41.3330 O   0  0  0  0  0  0  0  0  0  0  0  0
   38.3020   29.9370   41.6820 C   0  0  0  0  0  0  0  0  0  0  0  0
   38.3820   28.6670   42.1010 C   0  0  0  0  0  0  0  0  0  0  0  0
   39.6150   28.3020   42.6040 C   0  0  0  0  0  0  0  0  0  0  0  0
   40.6460   29.2590   42.6260 N   0  0  0  0  0  0  0  0  0  0  0  0
   40.4910   30.4880   42.1930 C   0  0  0  0  0  0  0  0  0  0  0  0
   39.2750   30.8920   41.6870 N   0  0  0  0  0  0  0  0  0  0  0  0
   39.8610   27.3180   42.9900 H   0  0  0  0  0  0  0  0  0  0  0  0
   41.3740   31.1150   42.2720 H   0  0  0  0  0  0  0  0  0  0  0  0
   37.3770   27.6730   41.9690 C   0  0  0  0  0  0  0  0  0  0  0  0
   37.3510   26.4270   42.5130 C   0  0  0  0  0  0  0  0  0  0  0  0
   36.4750   27.4020   43.2530 C   0  0  0  0  0  0  0  0  0  0  0  0
   36.8090   27.7170   41.0210 H   0  0  0  0  0  0  0  0  0  0  0  0
   38.2320   26.0780   43.1200 H   0  0  0  0  0  0  0  0  0  0  0  0
   36.7840   25.5190   42.1960 H   0  0  0  0  0  0  0  0  0  0  0  0
   35.3940   27.4630   43.0540 H   0  0  0  0  0  0  0  0  0  0  0  0
   36.8630   27.8760   44.1600 H   0  0  0  0  0  0  0  0  0  0  0  0
  2  3  1  0  0  0  0
  2  1  1  0  0  0  0
  3 20  1  0  0  0  0
  4  8  1  0  0  0  0
  4  3  2  0  0  0  0
  5  4  1  0  0  0  0
  6  5  2  0  0  0  0
  6  7  1  0  0  0  0
  7  2  2  0  0  0  0
  9  5  1  0  0  0  0
 10  6  1  0  0  0  0
 12 13  1  0  0  0  0
 12 11  1  0  0  0  0
 13  7  1  0  0  0  0
 14 15  1  0  0  0  0
 14 13  2  0  0  0  0
 16 14  1  0  0  0  0
 17 16  1  0  0  0  0
 18 16  2  0  0  0  0
 18 19  1  0  0  0  0
 19 12  2  0  0  0  0
 20 21  2  0  0  0  0
 20 22  1  0  0  0  0
 22 27  2  0  0  0  0
 22 23  1  0  0  0  0
 23 24  2  0  0  0  0
 24 25  1  0  0  0  0
 24 28  1  0  0  0  0
 26 29  1  0  0  0  0
 26 25  2  0  0  0  0
 27 26  1  0  0  0  0
 30 23  1  0  0  0  0
 30 31  1  0  0  0  0
 30 32  1  0  0  0  0
 31 34  1  0  0  0  0
 31 32  1  0  0  0  0
 32 37  1  0  0  0  0
 33 30  1  0  0  0  0
 35 31  1  0  0  0  0
 36 32  1  0  0  0  0
M  END
>  <minimizedAffinity>
-5.69195604

$$$$

 OpenBabel03242523213D

 37 40  0  0  0  0  0  0  0  0999 V2000
   36.1970   26.8340   39.6990 Cl  0  0  0  0  0  0  0  0  0  0  0  0
   36.4020   28.5070   40.2210 C   0  0  0  0  0  0  0  0  0  0  0  0
   36.9540   28.6760   41.5080 C   0  0  0  0  0  0  0  0  0  0  0  0
   37.0780   30.0250   41.8060 C   0  0  0  0  0  0  0  0  0  0  0  0
   36.7660   31.1030   41.0750 C   0  0  0  0  0  0  0  0  0  0  0  0
   36.2360   30.8500   39.8400 C   0  0  0  0  0  0  0  0  0  0  0  0
   36.0470   29.5850   39.4000 C   0  0  0  0  0  0  0  0  0  0  0  0
   37.4640   30.3380   42.7980 H   0  0  0  0  0  0  0  0  0  0  0  0
   36.8800   32.1270   41.3420 H   0  0  0  0  0  0  0  0  0  0  0  0
   35.9250   31.5890   39.1140 H   0  0  0  0  0  0  0  0  0  0  0  0
   33.3370   29.1470   39.2980 F   0  0  0  0  0  0  0  0  0  0  0  0
   34.1010   28.9890   38.1770 C   0  0  0  0  0  0  0  0  0  0  0  0
   35.4850   29.1790   38.0910 C   0  0  0  0  0  0  0  0  0  0  0  0
   36.1260   28.9880   36.9090 C   0  0  0  0  0  0  0  0  0  0  0  0
   37.1920   29.1620   36.9610 H   0  0  0  0  0  0  0  0  0  0  0  0
   35.3940   28.6060   35.8060 C   0  0  0  0  0  0  0  0  0  0  0  0
   35.9550   28.4680   34.8920 H   0  0  0  0  0  0  0  0  0  0  0  0
   34.0300   28.4130   35.8670 C   0  0  0  0  0  3  0  0  0  0  0  0
   33.3660   28.6040   37.0620 C   0  0  0  0  0  3  0  0  0  0  0  0
   37.3730   27.6000   42.4440 C   0  0  0  0  0  0  0  0  0  0  0  0
   36.3210   27.4510   43.0120 O   0  0  0  0  0  0  0  0  0  0  0  0
   38.7880   27.2930   42.1990 C   0  0  0  0  0  0  0  0  0  0  0  0
   39.2790   26.1760   41.6450 C   0  0  0  0  0  0  0  0  0  0  0  0
   40.6580   26.1020   41.6210 C   0  0  0  0  0  0  0  0  0  0  0  0
   41.4010   27.1690   42.1570 N   0  0  0  0  0  0  0  0  0  0  0  0
   40.8470   28.2360   42.6820 C   0  0  0  0  0  0  0  0  0  0  0  0
   39.4740   28.3470   42.7280 N   0  0  0  0  0  0  0  0  0  0  0  0
   41.2270   25.2720   41.2140 H   0  0  0  0  0  0  0  0  0  0  0  0
   41.5460   28.9780   43.0560 H   0  0  0  0  0  0  0  0  0  0  0  0
   38.5290   25.1570   41.0010 C   0  0  0  0  0  0  0  0  0  0  0  0
   38.8530   23.8460   40.8490 C   0  0  0  0  0  0  0  0  0  0  0  0
   37.8490   24.0720   41.9470 C   0  0  0  0  0  0  0  0  0  0  0  0
   37.8760   25.5150   40.1830 H   0  0  0  0  0  0  0  0  0  0  0  0
   39.8470   23.4800   41.2290 H   0  0  0  0  0  0  0  0  0  0  0  0
   38.4870   23.0990   40.1020 H   0  0  0  0  0  0  0  0  0  0  0  0
   36.7700   23.9460   41.7690 H   0  0  0  0  0  0  0  0  0  0  0  0
   38.2020   24.1210   42.9820 H   0  0  0  0  0  0  0  0  0  0  0  0
  1  2  1  0  0  0  0
  2  3  1  0  0  0  0
  3  4  2  0  0  0  0
  3 20  1  0  0  0  0
  4  8  1  0  0  0  0
  5  9  1  0  0  0  0
  5  4  1  0  0  0  0
  6  5  2  0  0  0  0
  7  6  1  0  0  0  0
  7  2  2  0  0  0  0
 10  6  1  0  0  0  0
 12 11  1  0  0  0  0
 13 12  1  0  0  0  0
 13  7  1  0  0  0  0
 14 15  1  0  0  0  0
 14 13  2  0  0  0  0
 16 18  2  0  0  0  0
 16 14  1  0  0  0  0
 17 16  1  0  0  0  0
 18 19  1  0  0  0  0
 19 12  2  0  0  0  0
 20 21  2  0  0  0  0
 22 20  1  0  0  0  0
 22 27  1  0  0  0  0
 23 22  2  0  0  0  0
 24 23  1  0  0  0  0
 24 25  2  0  0  0  0
 25 26  1  0  0  0  0
 26 27  2  0  0  0  0
 26 29  1  0  0  0  0
 28 24  1  0  0  0  0
 30 23  1  0  0  0  0
 30 32  1  0  0  0  0
 31 30  1  0  0  0  0
 31 34  1  0  0  0  0
 31 32  1  0  0  0  0
 32 37  1  0  0  0  0
 33 30  1  0  0  0  0
 35 31  1  0  0  0  0
 36 32  1  0  0  0  0
M  END
>  <minimizedAffinity>
-5.68515158

$$$$

 OpenBabel03242523213D

 37 40  0  0  0  0  0  0  0  0999 V2000
   37.1710   27.0920   38.7930 Cl  0  0  0  0  0  0  0  0  0  0  0  0
   37.0040   26.9430   40.5430 C   0  0  0  0  0  0  0  0  0  0  0  0
   36.5350   28.0960   41.2070 C   0  0  0  0  0  0  0  0  0  0  0  0
   36.4340   27.8610   42.5700 C   0  0  0  0  0  0  0  0  0  0  0  0
   36.7040   26.7570   43.2770 C   0  0  0  0  0  0  0  0  0  0  0  0
   37.1540   25.6840   42.5570 C   0  0  0  0  0  0  0  0  0  0  0  0
   37.3100   25.7530   41.2160 C   0  0  0  0  0  0  0  0  0  0  0  0
   36.1120   28.6770   43.2500 H   0  0  0  0  0  0  0  0  0  0  0  0
   36.6100   26.6160   44.3290 H   0  0  0  0  0  0  0  0  0  0  0  0
   37.4220   24.7140   42.9540 H   0  0  0  0  0  0  0  0  0  0  0  0
   35.4570   23.8810   40.4350 F   0  0  0  0  0  0  0  0  0  0  0  0
   36.7500   23.7890   40.0040 C   0  0  0  0  0  0  0  0  0  0  0  0
   37.7890   24.6710   40.3250 C   0  0  0  0  0  0  0  0  0  0  0  0
   39.0350   24.4630   39.8270 C   0  0  0  0  0  0  0  0  0  0  0  0
   39.7560   25.2050   40.1410 H   0  0  0  0  0  0  0  0  0  0  0  0
   39.2560   23.3780   39.0080 C   0  0  0  0  0  0  0  0  0  0  0  0
   40.2660   23.2620   38.6410 H   0  0  0  0  0  0  0  0  0  0  0  0
   38.2490   22.4960   38.6780 C   0  0  0  0  0  3  0  0  0  0  0  0
   36.9760   22.6950   39.1780 C   0  0  0  0  0  3  0  0  0  0  0  0
   36.1710   29.3950   40.5830 C   0  0  0  0  0  0  0  0  0  0  0  0
   35.0010   29.1730   40.3990 O   0  0  0  0  0  0  0  0  0  0  0  0
   37.3740   30.2360   40.5190 C   0  0  0  0  0  0  0  0  0  0  0  0
   37.8160   30.9200   39.4550 C   0  0  0  0  0  0  0  0  0  0  0  0
   39.0290   31.5530   39.6400 C   0  0  0  0  0  0  0  0  0  0  0  0
   39.6720   31.4320   40.8850 N   0  0  0  0  0  0  0  0  0  0  0  0
   39.1730   30.7440   41.8850 C   0  0  0  0  0  0  0  0  0  0  0  0
   37.9660   30.0960   41.7400 N   0  0  0  0  0  0  0  0  0  0  0  0
   39.5390   32.1470   38.8880 H   0  0  0  0  0  0  0  0  0  0  0  0
   39.7800   30.7410   42.7860 H   0  0  0  0  0  0  0  0  0  0  0  0
   37.1100   31.1350   38.2420 C   0  0  0  0  0  0  0  0  0  0  0  0
   37.6020   31.5680   37.0510 C   0  0  0  0  0  0  0  0  0  0  0  0
   37.3670   30.0820   37.0770 C   0  0  0  0  0  0  0  0  0  0  0  0
   36.0480   31.4150   38.3710 H   0  0  0  0  0  0  0  0  0  0  0  0
   38.6920   31.8400   36.9750 H   0  0  0  0  0  0  0  0  0  0  0  0
   37.0770   32.0550   36.1930 H   0  0  0  0  0  0  0  0  0  0  0  0
   36.4430   29.6420   36.6680 H   0  0  0  0  0  0  0  0  0  0  0  0
   38.2130   29.4160   37.2750 H   0  0  0  0  0  0  0  0  0  0  0  0
  1  2  1  0  0  0  0
  2  3  2  0  0  0  0
  2  7  1  0  0  0  0
  3  4  1  0  0  0  0
  4  8  1  0  0  0  0
  4  5  2  0  0  0  0
  5  9  1  0  0  0  0
  6 10  1  0  0  0  0
  6  5  1  0  0  0  0
  7  6  2  0  0  0  0
 12 13  1  0  0  0  0
 12 11  1  0  0  0  0
 13  7  1  0  0  0  0
 14 15  1  0  0  0  0
 14 13  2  0  0  0  0
 16 14  1  0  0  0  0
 17 16  1  0  0  0  0
 18 16  2  0  0  0  0
 18 19  1  0  0  0  0
 19 12  2  0  0  0  0
 20  3  1  0  0  0  0
 21 20  2  0  0  0  0
 22 20  1  0  0  0  0
 22 27  1  0  0  0  0
 23 24  1  0  0  0  0
 23 22  2  0  0  0  0
 24 25  2  0  0  0  0
 25 26  1  0  0  0  0
 26 29  1  0  0  0  0
 27 26  2  0  0  0  0
 28 24  1  0  0  0  0
 30 33  1  0  0  0  0
 30 23  1  0  0  0  0
 31 32  1  0  0  0  0
 31 30  1  0  0  0  0
 32 37  1  0  0  0  0
 32 30  1  0  0  0  0
 34 31  1  0  0  0  0
 35 31  1  0  0  0  0
 36 32  1  0  0  0  0
M  END
>  <minimizedAffinity>
-5.67730427

$$$$
