
 OpenBabel03242521433D

 38 40  0  0  1  0  0  0  0  0999 V2000
   45.4660   35.7770   43.7850 C   0  0  0  0  0  0  0  0  0  0  0  0
   46.4690   34.9360   43.3070 C   0  0  0  0  0  0  0  0  0  0  0  0
   46.8120   33.7910   44.0150 C   0  0  0  0  0  0  0  0  0  0  0  0
   46.1440   33.5550   45.1410 N   0  0  0  0  0  0  0  0  0  0  0  0
   45.1730   34.3680   45.6040 C   0  0  0  0  0  0  0  0  0  0  0  0
   44.8220   35.4830   44.9370 N   0  0  0  0  0  0  0  0  0  0  0  0
   46.9090   35.2550   42.3950 H   0  0  0  0  0  0  0  0  0  0  0  0
   44.7150   34.0530   46.5330 H   0  0  0  0  0  0  0  0  0  0  0  0
   48.8900   33.6960   42.6550 C   0  0  2  0  0  0  0  0  0  0  0  0
   47.8690   32.9640   43.4520 C   0  0  2  0  0  0  0  0  0  0  0  0
   47.4150   32.0070   42.4970 O   0  0  0  0  0  0  0  0  0  0  0  0
   48.6070   31.4660   42.0480 C   0  0  0  0  0  0  0  0  0  0  0  0
   49.6970   32.4790   42.1600 C   0  0  1  0  0  0  0  0  0  0  0  0
   48.4360   34.1680   41.7550 H   0  0  0  0  0  0  0  0  0  0  0  0
   48.3970   32.3150   44.2110 H   0  0  0  0  0  0  0  0  0  0  0  0
   48.4730   31.1250   40.9840 H   0  0  0  0  0  0  0  0  0  0  0  0
   48.8280   30.5640   42.6360 H   0  0  0  0  0  0  0  0  0  0  0  0
   50.4430   32.1910   42.9250 H   0  0  0  0  0  0  0  0  0  0  0  0
   49.6310   34.5970   43.3570 O   0  0  0  0  0  0  0  0  0  0  0  0
   50.0520   34.1260   44.1130 H   0  0  0  0  0  0  0  0  0  0  0  0
   50.2910   32.8090   40.9430 O   0  0  0  0  0  0  0  0  0  0  0  0
   49.5540   33.2660   40.4240 H   0  0  0  0  0  0  0  0  0  0  0  0
   45.1070   37.0170   43.0300 C   0  0  0  0  0  0  0  0  0  0  0  0
   45.9230   37.2800   42.3460 H   0  0  0  0  0  0  0  0  0  0  0  0
   44.1680   36.7930   42.4810 H   0  0  0  0  0  0  0  0  0  0  0  0
   45.2230   39.3970   44.0070 C   0  0  0  0  0  0  0  0  0  0  0  0
   45.9600   39.7270   43.0100 O   0  0  0  0  0  0  0  0  0  0  0  0
   44.8070   38.0520   43.9830 N   0  0  0  0  0  0  0  0  0  0  0  0
   44.1890   37.7250   44.7510 H   0  0  0  0  0  0  0  0  0  0  0  0
   45.0720   39.0500   46.8770 F   0  0  0  0  0  0  0  0  0  0  0  0
   44.8410   40.2770   46.3660 C   0  0  0  0  0  0  0  0  0  0  0  0
   44.9200   40.4090   45.0000 C   0  0  0  0  0  0  0  0  0  0  0  0
   44.6680   41.7020   44.5650 C   0  0  0  0  0  0  0  0  0  0  0  0
   44.6980   41.9500   43.5020 H   0  0  0  0  0  0  0  0  0  0  0  0
   44.3700   42.7420   45.4170 C   0  0  0  0  0  0  0  0  0  0  0  0
   44.1810   43.7300   45.0250 H   0  0  0  0  0  0  0  0  0  0  0  0
   44.3080   42.5300   46.7760 C   0  0  0  0  0  3  0  0  0  0  0  0
   44.5480   41.2680   47.2720 C   0  0  0  0  0  3  0  0  0  0  0  0
  1  6  1  0  0  0  0
  2  1  2  0  0  0  0
  2  3  1  0  0  0  0
  3  4  2  0  0  0  0
  4  5  1  0  0  0  0
  5  8  1  0  0  0  0
  6  5  2  0  0  0  0
  7  2  1  0  0  0  0
  9 14  1  6  0  0  0
  9 19  1  0  0  0  0
  9 10  1  0  0  0  0
 10  3  1  0  0  0  0
 10 15  1  1  0  0  0
 11 10  1  0  0  0  0
 12 13  1  0  0  0  0
 12 11  1  0  0  0  0
 12 17  1  0  0  0  0
 13  9  1  0  0  0  0
 13 18  1  1  0  0  0
 16 12  1  0  0  0  0
 19 20  1  0  0  0  0
 21 13  1  0  0  0  0
 22 21  1  0  0  0  0
 23  1  1  0  0  0  0
 23 28  1  0  0  0  0
 24 23  1  0  0  0  0
 25 23  1  0  0  0  0
 26 32  1  0  0  0  0
 27 26  2  0  0  0  0
 28 26  1  0  0  0  0
 28 29  1  0  0  0  0
 31 30  1  0  0  0  0
 31 38  1  0  0  0  0
 32 31  2  0  0  0  0
 33 32  1  0  0  0  0
 33 35  2  0  0  0  0
 34 33  1  0  0  0  0
 35 37  1  0  0  0  0
 36 35  1  0  0  0  0
 37 38  2  0  0  0  0
M  END
>  <minimizedAffinity>
-4.02423048

>  <minimizedRMSD>
0.779938042

$$$$
