
 OpenBabel03242521433D

 38 40  0  0  1  0  0  0  0  0999 V2000
   45.5000   35.7270   43.8030 C   0  0  0  0  0  0  0  0  0  0  0  0
   46.4990   34.8960   43.3030 C   0  0  0  0  0  0  0  0  0  0  0  0
   46.8440   33.7350   43.9830 C   0  0  0  0  0  0  0  0  0  0  0  0
   46.1830   33.4760   45.1070 N   0  0  0  0  0  0  0  0  0  0  0  0
   45.2150   34.2800   45.5930 C   0  0  0  0  0  0  0  0  0  0  0  0
   44.8620   35.4090   44.9530 N   0  0  0  0  0  0  0  0  0  0  0  0
   46.9350   35.2350   42.3940 H   0  0  0  0  0  0  0  0  0  0  0  0
   44.7610   33.9440   46.5170 H   0  0  0  0  0  0  0  0  0  0  0  0
   48.9190   33.6690   42.6160 C   0  0  2  0  0  0  0  0  0  0  0  0
   47.8980   32.9200   43.3960 C   0  0  2  0  0  0  0  0  0  0  0  0
   47.4380   31.9890   42.4180 O   0  0  0  0  0  0  0  0  0  0  0  0
   48.6280   31.4560   41.9530 C   0  0  0  0  0  0  0  0  0  0  0  0
   49.7210   32.4630   42.0880 C   0  0  1  0  0  0  0  0  0  0  0  0
   48.4650   34.1650   41.7290 H   0  0  0  0  0  0  0  0  0  0  0  0
   48.4250   32.2500   44.1370 H   0  0  0  0  0  0  0  0  0  0  0  0
   48.4900   31.1430   40.8800 H   0  0  0  0  0  0  0  0  0  0  0  0
   48.8470   30.5390   42.5170 H   0  0  0  0  0  0  0  0  0  0  0  0
   50.4680   32.1530   42.8430 H   0  0  0  0  0  0  0  0  0  0  0  0
   49.6650   34.5490   43.3390 O   0  0  0  0  0  0  0  0  0  0  0  0
   50.0860   34.0570   44.0820 H   0  0  0  0  0  0  0  0  0  0  0  0
   50.3130   32.8220   40.8780 O   0  0  0  0  0  0  0  0  0  0  0  0
   49.5770   33.2940   40.3730 H   0  0  0  0  0  0  0  0  0  0  0  0
   45.1390   36.9840   43.0780 C   0  0  0  0  0  0  0  0  0  0  0  0
   45.9510   37.2610   42.3960 H   0  0  0  0  0  0  0  0  0  0  0  0
   44.1970   36.7730   42.5290 H   0  0  0  0  0  0  0  0  0  0  0  0
   45.2600   39.3420   44.1060 C   0  0  0  0  0  0  0  0  0  0  0  0
   45.9910   39.6940   43.1120 O   0  0  0  0  0  0  0  0  0  0  0  0
   44.8440   37.9980   44.0550 N   0  0  0  0  0  0  0  0  0  0  0  0
   44.2310   37.6540   44.8200 H   0  0  0  0  0  0  0  0  0  0  0  0
   44.6560   42.1430   43.6990 F   0  0  0  0  0  0  0  0  0  0  0  0
   44.6730   41.6670   44.9610 C   0  0  0  0  0  0  0  0  0  0  0  0
   44.9630   40.3320   45.1220 C   0  0  0  0  0  0  0  0  0  0  0  0
   44.9580   39.9330   46.4500 C   0  0  0  0  0  0  0  0  0  0  0  0
   45.1730   38.8970   46.7220 H   0  0  0  0  0  0  0  0  0  0  0  0
   44.6910   40.7870   47.4960 C   0  0  0  0  0  0  0  0  0  0  0  0
   44.7010   40.4230   48.5120 H   0  0  0  0  0  0  0  0  0  0  0  0
   44.4090   42.1130   47.2560 C   0  0  0  0  0  3  0  0  0  0  0  0
   44.3980   42.5730   45.9580 C   0  0  0  0  0  3  0  0  0  0  0  0
  1  6  1  0  0  0  0
  2  1  2  0  0  0  0
  2  3  1  0  0  0  0
  3  4  2  0  0  0  0
  4  5  1  0  0  0  0
  5  8  1  0  0  0  0
  6  5  2  0  0  0  0
  7  2  1  0  0  0  0
  9 14  1  6  0  0  0
  9 19  1  0  0  0  0
  9 10  1  0  0  0  0
 10  3  1  0  0  0  0
 10 15  1  1  0  0  0
 11 10  1  0  0  0  0
 12 13  1  0  0  0  0
 12 11  1  0  0  0  0
 12 17  1  0  0  0  0
 13  9  1  0  0  0  0
 13 18  1  1  0  0  0
 16 12  1  0  0  0  0
 19 20  1  0  0  0  0
 21 13  1  0  0  0  0
 22 21  1  0  0  0  0
 23  1  1  0  0  0  0
 23 28  1  0  0  0  0
 24 23  1  0  0  0  0
 25 23  1  0  0  0  0
 26 32  1  0  0  0  0
 27 26  2  0  0  0  0
 28 26  1  0  0  0  0
 28 29  1  0  0  0  0
 30 31  1  0  0  0  0
 31 32  2  0  0  0  0
 31 38  1  0  0  0  0
 32 33  1  0  0  0  0
 33 34  1  0  0  0  0
 33 35  2  0  0  0  0
 35 36  1  0  0  0  0
 37 35  1  0  0  0  0
 38 37  2  0  0  0  0
M  END
>  <minimizedAffinity>
-3.99384093

>  <minimizedRMSD>
0.690794945

$$$$
