
 OpenBabel03242521433D

 38 40  0  0  1  0  0  0  0  0999 V2000
   45.4990   35.7280   43.8020 C   0  0  0  0  0  0  0  0  0  0  0  0
   46.4980   34.8960   43.3020 C   0  0  0  0  0  0  0  0  0  0  0  0
   46.8440   33.7360   43.9820 C   0  0  0  0  0  0  0  0  0  0  0  0
   46.1820   33.4770   45.1070 N   0  0  0  0  0  0  0  0  0  0  0  0
   45.2140   34.2810   45.5930 C   0  0  0  0  0  0  0  0  0  0  0  0
   44.8610   35.4100   44.9520 N   0  0  0  0  0  0  0  0  0  0  0  0
   46.9340   35.2350   42.3940 H   0  0  0  0  0  0  0  0  0  0  0  0
   44.7610   33.9460   46.5170 H   0  0  0  0  0  0  0  0  0  0  0  0
   48.9190   33.6700   42.6160 C   0  0  2  0  0  0  0  0  0  0  0  0
   47.8970   32.9210   43.3970 C   0  0  2  0  0  0  0  0  0  0  0  0
   47.4380   31.9900   42.4190 O   0  0  0  0  0  0  0  0  0  0  0  0
   48.6280   31.4570   41.9530 C   0  0  0  0  0  0  0  0  0  0  0  0
   49.7210   32.4640   42.0890 C   0  0  1  0  0  0  0  0  0  0  0  0
   48.4640   34.1660   41.7300 H   0  0  0  0  0  0  0  0  0  0  0  0
   48.4240   32.2510   44.1370 H   0  0  0  0  0  0  0  0  0  0  0  0
   48.4900   31.1440   40.8800 H   0  0  0  0  0  0  0  0  0  0  0  0
   48.8460   30.5400   42.5170 H   0  0  0  0  0  0  0  0  0  0  0  0
   50.4680   32.1540   42.8440 H   0  0  0  0  0  0  0  0  0  0  0  0
   49.6640   34.5500   43.3400 O   0  0  0  0  0  0  0  0  0  0  0  0
   50.0860   34.0580   44.0830 H   0  0  0  0  0  0  0  0  0  0  0  0
   50.3130   32.8220   40.8790 O   0  0  0  0  0  0  0  0  0  0  0  0
   49.5770   33.2950   40.3730 H   0  0  0  0  0  0  0  0  0  0  0  0
   45.1380   36.9840   43.0770 C   0  0  0  0  0  0  0  0  0  0  0  0
   45.9500   37.2620   42.3950 H   0  0  0  0  0  0  0  0  0  0  0  0
   44.1960   36.7730   42.5270 H   0  0  0  0  0  0  0  0  0  0  0  0
   45.2610   39.3420   44.1060 C   0  0  0  0  0  0  0  0  0  0  0  0
   45.9960   39.6930   43.1150 O   0  0  0  0  0  0  0  0  0  0  0  0
   44.8420   37.9980   44.0530 N   0  0  0  0  0  0  0  0  0  0  0  0
   44.2260   37.6560   44.8160 H   0  0  0  0  0  0  0  0  0  0  0  0
   44.6550   42.1420   43.6980 F   0  0  0  0  0  0  0  0  0  0  0  0
   44.6740   41.6660   44.9600 C   0  0  0  0  0  0  0  0  0  0  0  0
   44.9630   40.3320   45.1220 C   0  0  0  0  0  0  0  0  0  0  0  0
   44.9590   39.9340   46.4510 C   0  0  0  0  0  0  0  0  0  0  0  0
   45.1750   38.8980   46.7230 H   0  0  0  0  0  0  0  0  0  0  0  0
   44.6910   40.7870   47.4960 C   0  0  0  0  0  0  0  0  0  0  0  0
   44.7010   40.4230   48.5120 H   0  0  0  0  0  0  0  0  0  0  0  0
   44.4080   42.1130   47.2550 C   0  0  0  0  0  3  0  0  0  0  0  0
   44.3960   42.5730   45.9570 C   0  0  0  0  0  3  0  0  0  0  0  0
  1  6  1  0  0  0  0
  2  1  2  0  0  0  0
  2  3  1  0  0  0  0
  3  4  2  0  0  0  0
  4  5  1  0  0  0  0
  5  8  1  0  0  0  0
  6  5  2  0  0  0  0
  7  2  1  0  0  0  0
  9 14  1  6  0  0  0
  9 19  1  0  0  0  0
  9 10  1  0  0  0  0
 10  3  1  0  0  0  0
 10 15  1  1  0  0  0
 11 10  1  0  0  0  0
 12 13  1  0  0  0  0
 12 11  1  0  0  0  0
 12 17  1  0  0  0  0
 13  9  1  0  0  0  0
 13 18  1  1  0  0  0
 16 12  1  0  0  0  0
 19 20  1  0  0  0  0
 21 13  1  0  0  0  0
 22 21  1  0  0  0  0
 23  1  1  0  0  0  0
 23 28  1  0  0  0  0
 24 23  1  0  0  0  0
 25 23  1  0  0  0  0
 26 32  1  0  0  0  0
 27 26  2  0  0  0  0
 28 26  1  0  0  0  0
 28 29  1  0  0  0  0
 30 31  1  0  0  0  0
 31 32  2  0  0  0  0
 31 38  1  0  0  0  0
 32 33  1  0  0  0  0
 33 34  1  0  0  0  0
 33 35  2  0  0  0  0
 35 36  1  0  0  0  0
 37 35  1  0  0  0  0
 38 37  2  0  0  0  0
M  END
>  <minimizedAffinity>
-3.99067855

>  <minimizedRMSD>
0.766797483

$$$$
