
 OpenBabel03242521433D

 38 40  0  0  1  0  0  0  0  0999 V2000
   45.4980   35.7290   43.8030 C   0  0  0  0  0  0  0  0  0  0  0  0
   46.4970   34.8970   43.3030 C   0  0  0  0  0  0  0  0  0  0  0  0
   46.8430   33.7360   43.9830 C   0  0  0  0  0  0  0  0  0  0  0  0
   46.1810   33.4780   45.1080 N   0  0  0  0  0  0  0  0  0  0  0  0
   45.2130   34.2810   45.5940 C   0  0  0  0  0  0  0  0  0  0  0  0
   44.8600   35.4110   44.9530 N   0  0  0  0  0  0  0  0  0  0  0  0
   46.9330   35.2350   42.3940 H   0  0  0  0  0  0  0  0  0  0  0  0
   44.7600   33.9460   46.5180 H   0  0  0  0  0  0  0  0  0  0  0  0
   48.9180   33.6700   42.6170 C   0  0  2  0  0  0  0  0  0  0  0  0
   47.8960   32.9210   43.3970 C   0  0  2  0  0  0  0  0  0  0  0  0
   47.4370   31.9900   42.4200 O   0  0  0  0  0  0  0  0  0  0  0  0
   48.6270   31.4570   41.9540 C   0  0  0  0  0  0  0  0  0  0  0  0
   49.7200   32.4640   42.0900 C   0  0  1  0  0  0  0  0  0  0  0  0
   48.4630   34.1660   41.7300 H   0  0  0  0  0  0  0  0  0  0  0  0
   48.4240   32.2520   44.1380 H   0  0  0  0  0  0  0  0  0  0  0  0
   48.4900   31.1440   40.8810 H   0  0  0  0  0  0  0  0  0  0  0  0
   48.8460   30.5400   42.5180 H   0  0  0  0  0  0  0  0  0  0  0  0
   50.4670   32.1540   42.8450 H   0  0  0  0  0  0  0  0  0  0  0  0
   49.6630   34.5510   43.3400 O   0  0  0  0  0  0  0  0  0  0  0  0
   50.0850   34.0590   44.0830 H   0  0  0  0  0  0  0  0  0  0  0  0
   50.3120   32.8230   40.8800 O   0  0  0  0  0  0  0  0  0  0  0  0
   49.5760   33.2950   40.3740 H   0  0  0  0  0  0  0  0  0  0  0  0
   45.1370   36.9850   43.0770 C   0  0  0  0  0  0  0  0  0  0  0  0
   45.9490   37.2620   42.3950 H   0  0  0  0  0  0  0  0  0  0  0  0
   44.1950   36.7730   42.5280 H   0  0  0  0  0  0  0  0  0  0  0  0
   45.2610   39.3420   44.1070 C   0  0  0  0  0  0  0  0  0  0  0  0
   45.9970   39.6930   43.1160 O   0  0  0  0  0  0  0  0  0  0  0  0
   44.8420   37.9990   44.0540 N   0  0  0  0  0  0  0  0  0  0  0  0
   44.2250   37.6570   44.8160 H   0  0  0  0  0  0  0  0  0  0  0  0
   44.6550   42.1430   43.6990 F   0  0  0  0  0  0  0  0  0  0  0  0
   44.6730   41.6670   44.9610 C   0  0  0  0  0  0  0  0  0  0  0  0
   44.9630   40.3330   45.1220 C   0  0  0  0  0  0  0  0  0  0  0  0
   44.9590   39.9340   46.4500 C   0  0  0  0  0  0  0  0  0  0  0  0
   45.1750   38.8990   46.7240 H   0  0  0  0  0  0  0  0  0  0  0  0
   44.6910   40.7880   47.4960 C   0  0  0  0  0  0  0  0  0  0  0  0
   44.7010   40.4240   48.5120 H   0  0  0  0  0  0  0  0  0  0  0  0
   44.4080   42.1140   47.2550 C   0  0  0  0  0  3  0  0  0  0  0  0
   44.3970   42.5740   45.9570 C   0  0  0  0  0  3  0  0  0  0  0  0
  1  6  1  0  0  0  0
  2  1  2  0  0  0  0
  2  3  1  0  0  0  0
  3  4  2  0  0  0  0
  4  5  1  0  0  0  0
  5  8  1  0  0  0  0
  6  5  2  0  0  0  0
  7  2  1  0  0  0  0
  9 14  1  6  0  0  0
  9 19  1  0  0  0  0
  9 10  1  0  0  0  0
 10  3  1  0  0  0  0
 10 15  1  1  0  0  0
 11 10  1  0  0  0  0
 12 13  1  0  0  0  0
 12 11  1  0  0  0  0
 12 17  1  0  0  0  0
 13  9  1  0  0  0  0
 13 18  1  1  0  0  0
 16 12  1  0  0  0  0
 19 20  1  0  0  0  0
 21 13  1  0  0  0  0
 22 21  1  0  0  0  0
 23  1  1  0  0  0  0
 23 28  1  0  0  0  0
 24 23  1  0  0  0  0
 25 23  1  0  0  0  0
 26 32  1  0  0  0  0
 27 26  2  0  0  0  0
 28 26  1  0  0  0  0
 28 29  1  0  0  0  0
 30 31  1  0  0  0  0
 31 32  2  0  0  0  0
 31 38  1  0  0  0  0
 32 33  1  0  0  0  0
 33 34  1  0  0  0  0
 33 35  2  0  0  0  0
 35 36  1  0  0  0  0
 37 35  1  0  0  0  0
 38 37  2  0  0  0  0
M  END
>  <minimizedAffinity>
-3.99298573

>  <minimizedRMSD>
0.667197824

$$$$
