
 OpenBabel03252507593D

 29 31  0  0  1  0  0  0  0  0999 V2000
   46.2240   34.8050   43.2640 C   0  0  0  0  0  0  0  0  0  0  0  0
   45.2910   35.8390   43.5700 C   0  0  0  0  0  0  0  0  0  0  0  0
   44.6190   35.7050   44.7820 C   0  0  0  0  0  0  0  0  0  0  0  0
   44.8820   34.6360   45.5700 N   0  0  0  0  0  0  0  0  0  0  0  0
   45.7990   33.6770   45.2050 C   0  0  0  0  0  0  0  0  0  0  0  0
   46.4720   33.7380   44.0740 N   0  0  0  0  0  0  0  0  0  0  0  0
   45.1550   36.6500   42.8700 H   0  0  0  0  0  0  0  0  0  0  0  0
   43.9020   36.4670   45.0530 H   0  0  0  0  0  0  0  0  0  0  0  0
   46.0400   32.5380   46.1340 C   0  0  1  0  0  0  0  0  0  0  0  0
   46.8420   32.7760   47.3920 C   0  0  0  0  0  0  0  0  0  0  0  0
   45.3460   32.6450   47.4360 C   0  0  1  0  0  0  0  0  0  0  0  0
   46.1260   31.5600   45.6450 H   0  0  0  0  0  0  0  0  0  0  0  0
   47.3830   31.8800   47.7550 H   0  0  0  0  0  0  0  0  0  0  0  0
   47.3400   33.7510   47.5260 H   0  0  0  0  0  0  0  0  0  0  0  0
   44.9000   31.7430   47.8890 H   0  0  0  0  0  0  0  0  0  0  0  0
   44.7040   33.9120   47.8040 N   0  0  0  0  0  0  0  0  0  0  0  0
   45.3790   34.7010   47.8910 H   0  0  0  0  0  0  0  0  0  0  0  0
   44.3280   33.7730   48.7680 H   0  0  0  0  0  0  0  0  0  0  0  0
   46.9330   34.9570   42.0050 C   0  0  0  0  0  0  0  0  0  0  0  0
   48.0170   35.6360   41.9020 O   0  0  0  0  0  0  0  0  0  0  0  0
   48.5940   34.0210   40.0500 F   0  0  0  0  0  0  0  0  0  0  0  0
   47.2420   33.8440   39.9480 C   0  0  0  0  0  0  0  0  0  0  0  0
   46.3080   34.2720   40.8700 C   0  0  0  0  0  0  0  0  0  0  0  0
   44.9760   34.0450   40.6770 C   0  0  0  0  0  0  0  0  0  0  0  0
   44.3190   34.4110   41.4410 H   0  0  0  0  0  0  0  0  0  0  0  0
   44.5670   33.3720   39.5250 C   0  0  0  0  0  0  0  0  0  0  0  0
   43.5000   33.2360   39.4550 H   0  0  0  0  0  0  0  0  0  0  0  0
   45.4760   32.9390   38.6000 C   0  0  0  0  0  3  0  0  0  0  0  0
   46.8180   33.1700   38.8000 C   0  0  0  0  0  3  0  0  0  0  0  0
  1  2  2  0  0  0  0
  1  6  1  0  0  0  0
  2  3  1  0  0  0  0
  3  8  1  0  0  0  0
  3  4  2  0  0  0  0
  5  4  1  0  0  0  0
  5  9  1  0  0  0  0
  6  5  2  0  0  0  0
  7  2  1  0  0  0  0
  9 12  1  6  0  0  0
  9 10  1  0  0  0  0
  9 11  1  0  0  0  0
 10 11  1  0  0  0  0
 10 14  1  0  0  0  0
 10 13  1  0  0  0  0
 11 16  1  0  0  0  0
 11 15  1  1  0  0  0
 16 17  1  0  0  0  0
 16 18  1  0  0  0  0
 19  1  1  0  0  0  0
 20 19  2  0  0  0  0
 22 21  1  0  0  0  0
 22 23  1  0  0  0  0
 23 19  1  0  0  0  0
 24 23  2  0  0  0  0
 24 25  1  0  0  0  0
 26 24  1  0  0  0  0
 27 26  1  0  0  0  0
 28 29  1  0  0  0  0
 28 26  2  0  0  0  0
 29 22  2  0  0  0  0
M  END
>  <minimizedAffinity>
-5.87794018

>  <minimizedRMSD>
0.330855399

$$$$
