
 OpenBabel03252507593D

 29 31  0  0  1  0  0  0  0  0999 V2000
   46.2650   34.7090   43.3000 C   0  0  0  0  0  0  0  0  0  0  0  0
   45.3220   35.7430   43.5730 C   0  0  0  0  0  0  0  0  0  0  0  0
   44.6390   35.6320   44.7820 C   0  0  0  0  0  0  0  0  0  0  0  0
   44.9010   34.5830   45.5960 N   0  0  0  0  0  0  0  0  0  0  0  0
   45.8270   33.6220   45.2620 C   0  0  0  0  0  0  0  0  0  0  0  0
   46.5120   33.6620   44.1360 N   0  0  0  0  0  0  0  0  0  0  0  0
   45.1890   36.5370   42.8540 H   0  0  0  0  0  0  0  0  0  0  0  0
   43.9150   36.3950   45.0280 H   0  0  0  0  0  0  0  0  0  0  0  0
   46.0660   32.5060   46.2190 C   0  0  1  0  0  0  0  0  0  0  0  0
   46.8510   32.7780   47.4810 C   0  0  0  0  0  0  0  0  0  0  0  0
   45.3560   32.6360   47.5100 C   0  0  1  0  0  0  0  0  0  0  0  0
   46.1670   31.5180   45.7530 H   0  0  0  0  0  0  0  0  0  0  0  0
   47.3940   31.8960   47.8700 H   0  0  0  0  0  0  0  0  0  0  0  0
   47.3400   33.7610   47.6000 H   0  0  0  0  0  0  0  0  0  0  0  0
   44.9110   31.7410   47.9770 H   0  0  0  0  0  0  0  0  0  0  0  0
   44.6990   33.9050   47.8420 N   0  0  0  0  0  0  0  0  0  0  0  0
   45.3660   34.7020   47.9190 H   0  0  0  0  0  0  0  0  0  0  0  0
   44.3120   33.7850   48.8040 H   0  0  0  0  0  0  0  0  0  0  0  0
   46.9850   34.8360   42.0450 C   0  0  0  0  0  0  0  0  0  0  0  0
   47.9540   35.6630   41.8870 O   0  0  0  0  0  0  0  0  0  0  0  0
   48.6990   32.8780   41.2150 F   0  0  0  0  0  0  0  0  0  0  0  0
   47.4600   32.9980   40.6440 C   0  0  0  0  0  0  0  0  0  0  0  0
   46.5140   33.9450   40.9820 C   0  0  0  0  0  0  0  0  0  0  0  0
   45.3040   33.9830   40.3520 C   0  0  0  0  0  0  0  0  0  0  0  0
   44.6280   34.7490   40.6730 H   0  0  0  0  0  0  0  0  0  0  0  0
   45.0340   33.0440   39.3550 C   0  0  0  0  0  0  0  0  0  0  0  0
   44.0570   33.1480   38.9130 H   0  0  0  0  0  0  0  0  0  0  0  0
   45.9590   32.0980   39.0070 C   0  0  0  0  0  3  0  0  0  0  0  0
   47.1760   32.0660   39.6450 C   0  0  0  0  0  3  0  0  0  0  0  0
  1  2  2  0  0  0  0
  1  6  1  0  0  0  0
  2  3  1  0  0  0  0
  3  8  1  0  0  0  0
  3  4  2  0  0  0  0
  5  4  1  0  0  0  0
  5  9  1  0  0  0  0
  6  5  2  0  0  0  0
  7  2  1  0  0  0  0
  9 12  1  6  0  0  0
  9 10  1  0  0  0  0
  9 11  1  0  0  0  0
 10 11  1  0  0  0  0
 10 14  1  0  0  0  0
 10 13  1  0  0  0  0
 11 16  1  0  0  0  0
 11 15  1  1  0  0  0
 16 17  1  0  0  0  0
 16 18  1  0  0  0  0
 19  1  1  0  0  0  0
 20 19  2  0  0  0  0
 22 23  1  0  0  0  0
 22 21  1  0  0  0  0
 23 19  1  0  0  0  0
 24 25  1  0  0  0  0
 24 23  2  0  0  0  0
 26 24  1  0  0  0  0
 27 26  1  0  0  0  0
 28 26  2  0  0  0  0
 28 29  1  0  0  0  0
 29 22  2  0  0  0  0
M  END
>  <minimizedAffinity>
-5.44397354

>  <minimizedRMSD>
0.691497445

$$$$
