
 OpenBabel03252507593D

 29 31  0  0  1  0  0  0  0  0999 V2000
   46.4080   34.6210   43.3140 C   0  0  0  0  0  0  0  0  0  0  0  0
   45.4400   35.6470   43.5200 C   0  0  0  0  0  0  0  0  0  0  0  0
   44.6930   35.5440   44.6900 C   0  0  0  0  0  0  0  0  0  0  0  0
   44.9230   34.5100   45.5330 N   0  0  0  0  0  0  0  0  0  0  0  0
   45.8770   33.5570   45.2640 C   0  0  0  0  0  0  0  0  0  0  0  0
   46.6210   33.5900   44.1770 N   0  0  0  0  0  0  0  0  0  0  0  0
   45.3370   36.4290   42.7820 H   0  0  0  0  0  0  0  0  0  0  0  0
   43.9470   36.3020   44.8850 H   0  0  0  0  0  0  0  0  0  0  0  0
   46.0760   32.4570   46.2490 C   0  0  1  0  0  0  0  0  0  0  0  0
   46.8400   32.7430   47.5210 C   0  0  0  0  0  0  0  0  0  0  0  0
   45.3430   32.6270   47.5230 C   0  0  1  0  0  0  0  0  0  0  0  0
   46.1680   31.4580   45.8060 H   0  0  0  0  0  0  0  0  0  0  0  0
   47.3600   31.8590   47.9400 H   0  0  0  0  0  0  0  0  0  0  0  0
   47.3440   33.7180   47.6290 H   0  0  0  0  0  0  0  0  0  0  0  0
   44.8730   31.7510   47.9990 H   0  0  0  0  0  0  0  0  0  0  0  0
   44.7020   33.9150   47.8140 N   0  0  0  0  0  0  0  0  0  0  0  0
   45.3820   34.7010   47.8880 H   0  0  0  0  0  0  0  0  0  0  0  0
   44.2940   33.8220   48.7710 H   0  0  0  0  0  0  0  0  0  0  0  0
   47.1950   34.7400   42.0970 C   0  0  0  0  0  0  0  0  0  0  0  0
   47.9560   35.7470   41.8650 O   0  0  0  0  0  0  0  0  0  0  0  0
   44.9770   34.7370   40.5030 F   0  0  0  0  0  0  0  0  0  0  0  0
   45.8920   33.7230   40.4140 C   0  0  0  0  0  0  0  0  0  0  0  0
   47.0450   33.6200   41.1660 C   0  0  0  0  0  0  0  0  0  0  0  0
   47.8980   32.5660   41.0020 C   0  0  0  0  0  0  0  0  0  0  0  0
   48.7690   32.5620   41.6260 H   0  0  0  0  0  0  0  0  0  0  0  0
   47.5850   31.5880   40.0570 C   0  0  0  0  0  0  0  0  0  0  0  0
   48.3120   30.7930   39.9960 H   0  0  0  0  0  0  0  0  0  0  0  0
   46.4480   31.6730   39.3030 C   0  0  0  0  0  3  0  0  0  0  0  0
   45.5930   32.7360   39.4720 C   0  0  0  0  0  3  0  0  0  0  0  0
  1  2  2  0  0  0  0
  1  6  1  0  0  0  0
  2  3  1  0  0  0  0
  3  8  1  0  0  0  0
  3  4  2  0  0  0  0
  5  4  1  0  0  0  0
  5  9  1  0  0  0  0
  6  5  2  0  0  0  0
  7  2  1  0  0  0  0
  9 12  1  6  0  0  0
  9 10  1  0  0  0  0
  9 11  1  0  0  0  0
 10 11  1  0  0  0  0
 10 14  1  0  0  0  0
 10 13  1  0  0  0  0
 11 16  1  0  0  0  0
 11 15  1  1  0  0  0
 16 17  1  0  0  0  0
 16 18  1  0  0  0  0
 19  1  1  0  0  0  0
 20 19  2  0  0  0  0
 22 21  1  0  0  0  0
 22 23  1  0  0  0  0
 23 19  1  0  0  0  0
 24 23  2  0  0  0  0
 24 25  1  0  0  0  0
 26 24  1  0  0  0  0
 27 26  1  0  0  0  0
 28 29  1  0  0  0  0
 28 26  2  0  0  0  0
 29 22  2  0  0  0  0
M  END
>  <minimizedAffinity>
-5.3088212

>  <minimizedRMSD>
1.25728238

$$$$
