
 OpenBabel03252507593D

 29 31  0  0  1  0  0  0  0  0999 V2000
   47.3380   34.5190   42.9630 C   0  0  0  0  0  0  0  0  0  0  0  0
   46.1260   35.1810   42.6110 C   0  0  0  0  0  0  0  0  0  0  0  0
   45.0030   34.8140   43.3470 C   0  0  0  0  0  0  0  0  0  0  0  0
   45.1250   33.8800   44.3190 N   0  0  0  0  0  0  0  0  0  0  0  0
   46.3330   33.2840   44.6010 C   0  0  0  0  0  0  0  0  0  0  0  0
   47.4370   33.5820   43.9460 N   0  0  0  0  0  0  0  0  0  0  0  0
   46.1380   35.9130   41.8160 H   0  0  0  0  0  0  0  0  0  0  0  0
   44.0630   35.2920   43.1120 H   0  0  0  0  0  0  0  0  0  0  0  0
   46.3850   32.2740   45.6950 C   0  0  1  0  0  0  0  0  0  0  0  0
   47.0680   32.6350   46.9930 C   0  0  0  0  0  0  0  0  0  0  0  0
   45.5700   32.6070   46.8840 C   0  0  1  0  0  0  0  0  0  0  0  0
   46.4450   31.2330   45.3530 H   0  0  0  0  0  0  0  0  0  0  0  0
   47.4960   31.7670   47.5310 H   0  0  0  0  0  0  0  0  0  0  0  0
   47.6250   33.5860   47.0520 H   0  0  0  0  0  0  0  0  0  0  0  0
   45.0100   31.8090   47.3980 H   0  0  0  0  0  0  0  0  0  0  0  0
   44.9950   33.9520   47.0040 N   0  0  0  0  0  0  0  0  0  0  0  0
   45.7170   34.7010   47.0610 H   0  0  0  0  0  0  0  0  0  0  0  0
   44.5100   33.9750   47.9290 H   0  0  0  0  0  0  0  0  0  0  0  0
   48.5110   34.9150   42.2010 C   0  0  0  0  0  0  0  0  0  0  0  0
   48.7920   36.1440   41.9580 O   0  0  0  0  0  0  0  0  0  0  0  0
   47.6410   33.5530   40.0000 F   0  0  0  0  0  0  0  0  0  0  0  0
   48.8040   33.1880   40.6220 C   0  0  0  0  0  0  0  0  0  0  0  0
   49.3390   33.8000   41.7370 C   0  0  0  0  0  0  0  0  0  0  0  0
   50.5090   33.3590   42.2860 C   0  0  0  0  0  0  0  0  0  0  0  0
   50.8540   33.8910   43.1510 H   0  0  0  0  0  0  0  0  0  0  0  0
   51.1610   32.2730   41.7010 C   0  0  0  0  0  0  0  0  0  0  0  0
   52.0750   31.9940   42.1980 H   0  0  0  0  0  0  0  0  0  0  0  0
   50.6460   31.6540   40.5960 C   0  0  0  0  0  3  0  0  0  0  0  0
   49.4670   32.1020   40.0470 C   0  0  0  0  0  3  0  0  0  0  0  0
  1  6  1  0  0  0  0
  2  1  2  0  0  0  0
  2  3  1  0  0  0  0
  3  4  2  0  0  0  0
  4  5  1  0  0  0  0
  5  9  1  0  0  0  0
  6  5  2  0  0  0  0
  7  2  1  0  0  0  0
  8  3  1  0  0  0  0
  9 12  1  6  0  0  0
  9 11  1  0  0  0  0
  9 10  1  0  0  0  0
 10 14  1  0  0  0  0
 10 13  1  0  0  0  0
 11 10  1  0  0  0  0
 11 16  1  0  0  0  0
 11 15  1  1  0  0  0
 16 17  1  0  0  0  0
 16 18  1  0  0  0  0
 19  1  1  0  0  0  0
 20 19  2  0  0  0  0
 21 22  1  0  0  0  0
 22 23  1  0  0  0  0
 23 19  1  0  0  0  0
 23 24  2  0  0  0  0
 24 25  1  0  0  0  0
 26 27  1  0  0  0  0
 26 24  1  0  0  0  0
 28 26  2  0  0  0  0
 29 28  1  0  0  0  0
 29 22  2  0  0  0  0
M  END
>  <minimizedAffinity>
-5.34876013

>  <minimizedRMSD>
3.13105297

$$$$
