
 OpenBabel03252507593D

 29 31  0  0  1  0  0  0  0  0999 V2000
   46.4170   34.6570   43.2530 C   0  0  0  0  0  0  0  0  0  0  0  0
   45.4190   35.6350   43.5310 C   0  0  0  0  0  0  0  0  0  0  0  0
   44.7260   35.4660   44.7270 C   0  0  0  0  0  0  0  0  0  0  0  0
   45.0320   34.4180   45.5260 N   0  0  0  0  0  0  0  0  0  0  0  0
   46.0110   33.5130   45.1880 C   0  0  0  0  0  0  0  0  0  0  0  0
   46.7080   33.6090   44.0730 N   0  0  0  0  0  0  0  0  0  0  0  0
   45.2530   36.4340   42.8240 H   0  0  0  0  0  0  0  0  0  0  0  0
   43.9590   36.1860   44.9760 H   0  0  0  0  0  0  0  0  0  0  0  0
   46.2950   32.3930   46.1290 C   0  0  1  0  0  0  0  0  0  0  0  0
   47.0020   32.6910   47.4310 C   0  0  0  0  0  0  0  0  0  0  0  0
   45.5230   32.4330   47.3900 C   0  0  1  0  0  0  0  0  0  0  0  0
   46.4930   31.4290   45.6440 H   0  0  0  0  0  0  0  0  0  0  0  0
   47.5960   31.8430   47.8230 H   0  0  0  0  0  0  0  0  0  0  0  0
   47.4070   33.7050   47.5940 H   0  0  0  0  0  0  0  0  0  0  0  0
   45.1300   31.4950   47.8150 H   0  0  0  0  0  0  0  0  0  0  0  0
   44.7550   33.6390   47.7210 N   0  0  0  0  0  0  0  0  0  0  0  0
   45.3540   34.4830   47.8470 H   0  0  0  0  0  0  0  0  0  0  0  0
   44.3380   33.4630   48.6620 H   0  0  0  0  0  0  0  0  0  0  0  0
   47.1470   34.8450   42.0100 C   0  0  0  0  0  0  0  0  0  0  0  0
   48.0730   35.7250   41.8810 O   0  0  0  0  0  0  0  0  0  0  0  0
   48.9860   33.0210   41.1450 F   0  0  0  0  0  0  0  0  0  0  0  0
   47.7450   33.0740   40.5710 C   0  0  0  0  0  0  0  0  0  0  0  0
   46.7380   33.9510   40.9250 C   0  0  0  0  0  0  0  0  0  0  0  0
   45.5310   33.9250   40.2900 C   0  0  0  0  0  0  0  0  0  0  0  0
   44.8050   34.6390   40.6260 H   0  0  0  0  0  0  0  0  0  0  0  0
   45.3250   32.9940   39.2710 C   0  0  0  0  0  0  0  0  0  0  0  0
   44.3440   33.0450   38.8260 H   0  0  0  0  0  0  0  0  0  0  0  0
   46.3100   32.1180   38.9050 C   0  0  0  0  0  3  0  0  0  0  0  0
   47.5240   32.1490   39.5490 C   0  0  0  0  0  3  0  0  0  0  0  0
  1  2  2  0  0  0  0
  1  6  1  0  0  0  0
  2  3  1  0  0  0  0
  3  8  1  0  0  0  0
  3  4  2  0  0  0  0
  5  4  1  0  0  0  0
  5  9  1  0  0  0  0
  6  5  2  0  0  0  0
  7  2  1  0  0  0  0
  9 12  1  6  0  0  0
  9 11  1  0  0  0  0
  9 10  1  0  0  0  0
 10 14  1  0  0  0  0
 10 13  1  0  0  0  0
 11 10  1  0  0  0  0
 11 16  1  0  0  0  0
 11 15  1  1  0  0  0
 16 17  1  0  0  0  0
 16 18  1  0  0  0  0
 19  1  1  0  0  0  0
 20 19  2  0  0  0  0
 22 23  1  0  0  0  0
 22 21  1  0  0  0  0
 23 19  1  0  0  0  0
 24 25  1  0  0  0  0
 24 23  2  0  0  0  0
 26 24  1  0  0  0  0
 27 26  1  0  0  0  0
 28 26  2  0  0  0  0
 28 29  1  0  0  0  0
 29 22  2  0  0  0  0
M  END
>  <minimizedAffinity>
-5.46123648

>  <minimizedRMSD>
0.942493856

$$$$
