
 OpenBabel03252507593D

 29 31  0  0  1  0  0  0  0  0999 V2000
   46.3370   34.5340   43.3900 C   0  0  0  0  0  0  0  0  0  0  0  0
   45.3660   35.5220   43.7270 C   0  0  0  0  0  0  0  0  0  0  0  0
   44.7480   35.3620   44.9650 C   0  0  0  0  0  0  0  0  0  0  0  0
   45.0950   34.3120   45.7460 N   0  0  0  0  0  0  0  0  0  0  0  0
   46.0430   33.3980   45.3500 C   0  0  0  0  0  0  0  0  0  0  0  0
   46.6690   33.4860   44.1940 N   0  0  0  0  0  0  0  0  0  0  0  0
   45.1630   36.3210   43.0290 H   0  0  0  0  0  0  0  0  0  0  0  0
   44.0050   36.0890   45.2590 H   0  0  0  0  0  0  0  0  0  0  0  0
   46.3760   32.2780   46.2740 C   0  0  1  0  0  0  0  0  0  0  0  0
   47.0580   32.5890   47.5870 C   0  0  0  0  0  0  0  0  0  0  0  0
   45.5940   32.2580   47.5300 C   0  0  1  0  0  0  0  0  0  0  0  0
   46.6250   31.3330   45.7760 H   0  0  0  0  0  0  0  0  0  0  0  0
   47.6910   31.7650   47.9690 H   0  0  0  0  0  0  0  0  0  0  0  0
   47.4110   33.6190   47.7690 H   0  0  0  0  0  0  0  0  0  0  0  0
   45.2460   31.2940   47.9360 H   0  0  0  0  0  0  0  0  0  0  0  0
   44.7650   33.4190   47.8750 N   0  0  0  0  0  0  0  0  0  0  0  0
   45.3200   34.2890   48.0190 H   0  0  0  0  0  0  0  0  0  0  0  0
   44.3500   33.2070   48.8100 H   0  0  0  0  0  0  0  0  0  0  0  0
   46.9890   34.7130   42.1030 C   0  0  0  0  0  0  0  0  0  0  0  0
   47.7920   35.6870   41.8680 O   0  0  0  0  0  0  0  0  0  0  0  0
   44.6410   35.0300   40.7450 F   0  0  0  0  0  0  0  0  0  0  0  0
   45.4500   33.9570   40.4840 C   0  0  0  0  0  0  0  0  0  0  0  0
   46.6530   33.6950   41.1060 C   0  0  0  0  0  0  0  0  0  0  0  0
   47.3890   32.5930   40.7750 C   0  0  0  0  0  0  0  0  0  0  0  0
   48.3110   32.4640   41.3050 H   0  0  0  0  0  0  0  0  0  0  0  0
   46.9030   31.7300   39.7920 C   0  0  0  0  0  0  0  0  0  0  0  0
   47.5470   30.8880   39.5950 H   0  0  0  0  0  0  0  0  0  0  0  0
   45.7130   31.9730   39.1640 C   0  0  0  0  0  3  0  0  0  0  0  0
   44.9770   33.0830   39.5020 C   0  0  0  0  0  3  0  0  0  0  0  0
  1  2  2  0  0  0  0
  1  6  1  0  0  0  0
  2  3  1  0  0  0  0
  3  8  1  0  0  0  0
  3  4  2  0  0  0  0
  5  4  1  0  0  0  0
  5  9  1  0  0  0  0
  6  5  2  0  0  0  0
  7  2  1  0  0  0  0
  9 12  1  6  0  0  0
  9 11  1  0  0  0  0
  9 10  1  0  0  0  0
 10 14  1  0  0  0  0
 10 13  1  0  0  0  0
 11 10  1  0  0  0  0
 11 16  1  0  0  0  0
 11 15  1  1  0  0  0
 16 17  1  0  0  0  0
 16 18  1  0  0  0  0
 19  1  1  0  0  0  0
 20 19  2  0  0  0  0
 22 21  1  0  0  0  0
 22 23  1  0  0  0  0
 23 19  1  0  0  0  0
 24 23  2  0  0  0  0
 24 25  1  0  0  0  0
 26 24  1  0  0  0  0
 27 26  1  0  0  0  0
 28 29  1  0  0  0  0
 28 26  2  0  0  0  0
 29 22  2  0  0  0  0
M  END
>  <minimizedAffinity>
-5.41224766

>  <minimizedRMSD>
0.938771904

$$$$
