
 OpenBabel03252507593D

 29 31  0  0  1  0  0  0  0  0999 V2000
   46.2680   34.7070   43.3010 C   0  0  0  0  0  0  0  0  0  0  0  0
   45.3250   35.7400   43.5730 C   0  0  0  0  0  0  0  0  0  0  0  0
   44.6400   35.6300   44.7810 C   0  0  0  0  0  0  0  0  0  0  0  0
   44.9030   34.5810   45.5960 N   0  0  0  0  0  0  0  0  0  0  0  0
   45.8300   33.6210   45.2620 C   0  0  0  0  0  0  0  0  0  0  0  0
   46.5150   33.6610   44.1380 N   0  0  0  0  0  0  0  0  0  0  0  0
   45.1910   36.5340   42.8530 H   0  0  0  0  0  0  0  0  0  0  0  0
   43.9160   36.3930   45.0260 H   0  0  0  0  0  0  0  0  0  0  0  0
   46.0680   32.5050   46.2210 C   0  0  1  0  0  0  0  0  0  0  0  0
   46.8530   32.7790   47.4830 C   0  0  0  0  0  0  0  0  0  0  0  0
   45.3580   32.6350   47.5110 C   0  0  1  0  0  0  0  0  0  0  0  0
   46.1700   31.5170   45.7550 H   0  0  0  0  0  0  0  0  0  0  0  0
   47.3960   31.8970   47.8730 H   0  0  0  0  0  0  0  0  0  0  0  0
   47.3410   33.7610   47.6010 H   0  0  0  0  0  0  0  0  0  0  0  0
   44.9130   31.7400   47.9780 H   0  0  0  0  0  0  0  0  0  0  0  0
   44.7000   33.9050   47.8420 N   0  0  0  0  0  0  0  0  0  0  0  0
   45.3660   34.7020   47.9190 H   0  0  0  0  0  0  0  0  0  0  0  0
   44.3120   33.7850   48.8040 H   0  0  0  0  0  0  0  0  0  0  0  0
   46.9890   34.8340   42.0460 C   0  0  0  0  0  0  0  0  0  0  0  0
   47.9590   35.6610   41.8890 O   0  0  0  0  0  0  0  0  0  0  0  0
   48.7020   32.8750   41.2160 F   0  0  0  0  0  0  0  0  0  0  0  0
   47.4640   32.9970   40.6440 C   0  0  0  0  0  0  0  0  0  0  0  0
   46.5180   33.9450   40.9820 C   0  0  0  0  0  0  0  0  0  0  0  0
   45.3080   33.9830   40.3510 C   0  0  0  0  0  0  0  0  0  0  0  0
   44.6330   34.7500   40.6740 H   0  0  0  0  0  0  0  0  0  0  0  0
   45.0380   33.0460   39.3540 C   0  0  0  0  0  0  0  0  0  0  0  0
   44.0610   33.1500   38.9110 H   0  0  0  0  0  0  0  0  0  0  0  0
   45.9620   32.0990   39.0050 C   0  0  0  0  0  3  0  0  0  0  0  0
   47.1790   32.0650   39.6440 C   0  0  0  0  0  3  0  0  0  0  0  0
  1  2  2  0  0  0  0
  1  6  1  0  0  0  0
  2  3  1  0  0  0  0
  3  8  1  0  0  0  0
  3  4  2  0  0  0  0
  5  4  1  0  0  0  0
  5  9  1  0  0  0  0
  6  5  2  0  0  0  0
  7  2  1  0  0  0  0
  9 12  1  6  0  0  0
  9 10  1  0  0  0  0
  9 11  1  0  0  0  0
 10 11  1  0  0  0  0
 10 14  1  0  0  0  0
 10 13  1  0  0  0  0
 11 16  1  0  0  0  0
 11 15  1  1  0  0  0
 16 17  1  0  0  0  0
 16 18  1  0  0  0  0
 19  1  1  0  0  0  0
 20 19  2  0  0  0  0
 22 23  1  0  0  0  0
 22 21  1  0  0  0  0
 23 19  1  0  0  0  0
 24 25  1  0  0  0  0
 24 23  2  0  0  0  0
 26 24  1  0  0  0  0
 27 26  1  0  0  0  0
 28 26  2  0  0  0  0
 28 29  1  0  0  0  0
 29 22  2  0  0  0  0
M  END
>  <minimizedAffinity>
-5.44588375

>  <minimizedRMSD>
0.614857614

$$$$
