
 OpenBabel03252507593D

 29 31  0  0  1  0  0  0  0  0999 V2000
   46.6700   34.7120   43.1280 C   0  0  0  0  0  0  0  0  0  0  0  0
   45.6080   35.6500   43.2790 C   0  0  0  0  0  0  0  0  0  0  0  0
   44.7800   35.4520   44.3810 C   0  0  0  0  0  0  0  0  0  0  0  0
   45.0270   34.4140   45.2150 N   0  0  0  0  0  0  0  0  0  0  0  0
   46.0750   33.5480   45.0020 C   0  0  0  0  0  0  0  0  0  0  0  0
   46.8980   33.6740   43.9810 N   0  0  0  0  0  0  0  0  0  0  0  0
   45.4990   36.4440   42.5550 H   0  0  0  0  0  0  0  0  0  0  0  0
   43.9620   36.1410   44.5330 H   0  0  0  0  0  0  0  0  0  0  0  0
   46.2840   32.4380   45.9730 C   0  0  1  0  0  0  0  0  0  0  0  0
   47.0020   32.7260   47.2710 C   0  0  0  0  0  0  0  0  0  0  0  0
   45.5100   32.5590   47.2280 C   0  0  1  0  0  0  0  0  0  0  0  0
   46.4230   31.4510   45.5150 H   0  0  0  0  0  0  0  0  0  0  0  0
   47.5400   31.8530   47.6890 H   0  0  0  0  0  0  0  0  0  0  0  0
   47.4690   33.7160   47.4100 H   0  0  0  0  0  0  0  0  0  0  0  0
   45.0580   31.6590   47.6750 H   0  0  0  0  0  0  0  0  0  0  0  0
   44.8180   33.8190   47.5230 N   0  0  0  0  0  0  0  0  0  0  0  0
   45.4670   34.6270   47.6300 H   0  0  0  0  0  0  0  0  0  0  0  0
   44.3860   33.6950   48.4660 H   0  0  0  0  0  0  0  0  0  0  0  0
   47.5390   34.9310   41.9840 C   0  0  0  0  0  0  0  0  0  0  0  0
   48.4120   35.8720   41.9520 O   0  0  0  0  0  0  0  0  0  0  0  0
   49.6330   33.3010   41.3350 F   0  0  0  0  0  0  0  0  0  0  0  0
   48.4560   33.2220   40.6390 C   0  0  0  0  0  0  0  0  0  0  0  0
   47.3350   33.9930   40.8780 C   0  0  0  0  0  0  0  0  0  0  0  0
   46.2060   33.8390   40.1270 C   0  0  0  0  0  0  0  0  0  0  0  0
   45.3810   34.4770   40.3770 H   0  0  0  0  0  0  0  0  0  0  0  0
   46.1990   32.8860   39.1070 C   0  0  0  0  0  0  0  0  0  0  0  0
   45.2680   32.8330   38.5660 H   0  0  0  0  0  0  0  0  0  0  0  0
   47.2990   32.1130   38.8560 C   0  0  0  0  0  3  0  0  0  0  0  0
   48.4350   32.2730   39.6160 C   0  0  0  0  0  3  0  0  0  0  0  0
  1  2  2  0  0  0  0
  1  6  1  0  0  0  0
  2  3  1  0  0  0  0
  3  8  1  0  0  0  0
  3  4  2  0  0  0  0
  5  4  1  0  0  0  0
  5  9  1  0  0  0  0
  6  5  2  0  0  0  0
  7  2  1  0  0  0  0
  9 12  1  6  0  0  0
  9 11  1  0  0  0  0
  9 10  1  0  0  0  0
 10 14  1  0  0  0  0
 10 13  1  0  0  0  0
 11 10  1  0  0  0  0
 11 16  1  0  0  0  0
 11 15  1  1  0  0  0
 16 17  1  0  0  0  0
 16 18  1  0  0  0  0
 19  1  1  0  0  0  0
 20 19  2  0  0  0  0
 22 23  1  0  0  0  0
 22 21  1  0  0  0  0
 23 19  1  0  0  0  0
 24 25  1  0  0  0  0
 24 23  2  0  0  0  0
 26 24  1  0  0  0  0
 27 26  1  0  0  0  0
 28 26  2  0  0  0  0
 28 29  1  0  0  0  0
 29 22  2  0  0  0  0
M  END
>  <minimizedAffinity>
-5.48011351

>  <minimizedRMSD>
1.47405899

$$$$
