
 OpenBabel03242512353D

 20 21  0  0  0  0  0  0  0  0999 V2000
   36.8050   27.3610   42.5760 C   0  0  0  0  0  0  0  0  0  0  0  0
   36.1840   27.3290   43.6790 O   0  0  0  0  0  0  0  0  0  0  0  0
   37.6090   26.3300   41.9950 C   0  0  0  0  0  0  0  0  0  0  0  0
   37.0100   25.0720   42.0330 C   0  0  0  0  0  0  0  0  0  0  0  0
   37.7380   24.0020   41.4800 C   0  0  0  0  0  0  0  0  0  0  0  0
   38.9720   24.2750   40.9500 N   0  0  0  0  0  0  0  0  0  0  0  0
   39.4950   25.5220   40.9440 C   0  0  0  0  0  0  0  0  0  0  0  0
   38.8090   26.5550   41.4690 N   0  0  0  0  0  0  0  0  0  0  0  0
   36.0370   24.8560   42.4520 H   0  0  0  0  0  0  0  0  0  0  0  0
   37.3880   22.9840   41.4490 H   0  0  0  0  0  0  0  0  0  0  0  0
   40.4710   25.7270   40.5220 H   0  0  0  0  0  0  0  0  0  0  0  0
   38.2690   29.7690   42.9720 F   0  0  0  0  0  0  0  0  0  0  0  0
   37.3990   29.7600   41.9360 C   0  0  0  0  0  0  0  0  0  0  0  0
   36.7100   28.5950   41.7670 C   0  0  0  0  0  0  0  0  0  0  0  0
   35.8000   28.5070   40.7300 C   0  0  0  0  0  0  0  0  0  0  0  0
   35.1900   27.6230   40.4980 H   0  0  0  0  0  0  0  0  0  0  0  0
   35.5600   29.5510   39.8570 C   0  0  0  0  0  0  0  0  0  0  0  0
   34.8570   29.5120   39.0370 H   0  0  0  0  0  0  0  0  0  0  0  0
   36.2630   30.7260   40.0350 C   0  0  0  0  0  3  0  0  0  0  0  0
   37.1740   30.8150   41.0750 C   0  0  0  0  0  3  0  0  0  0  0  0
  1  2  2  0  0  0  0
  3  4  1  0  0  0  0
  3  1  1  0  0  0  0
  4  9  1  0  0  0  0
  5  4  2  0  0  0  0
  6  5  1  0  0  0  0
  7  6  2  0  0  0  0
  7  8  1  0  0  0  0
  8  3  2  0  0  0  0
 10  5  1  0  0  0  0
 11  7  1  0  0  0  0
 13 12  1  0  0  0  0
 14 13  1  0  0  0  0
 14  1  1  0  0  0  0
 15 14  2  0  0  0  0
 16 15  1  0  0  0  0
 17 19  2  0  0  0  0
 17 15  1  0  0  0  0
 18 17  1  0  0  0  0
 19 20  1  0  0  0  0
 20 13  2  0  0  0  0
M  END
>  <minimizedAffinity>
-4.61375475

$$$$

 OpenBabel03242512353D

 20 21  0  0  0  0  0  0  0  0999 V2000
   35.7750   29.3450   40.4230 C   0  0  0  0  0  0  0  0  0  0  0  0
   34.5200   29.2120   40.3240 O   0  0  0  0  0  0  0  0  0  0  0  0
   36.6450   28.7340   41.3810 C   0  0  0  0  0  0  0  0  0  0  0  0
   36.8280   27.3670   41.1710 C   0  0  0  0  0  0  0  0  0  0  0  0
   37.6730   26.6920   42.0730 C   0  0  0  0  0  0  0  0  0  0  0  0
   38.2460   27.4220   43.0800 N   0  0  0  0  0  0  0  0  0  0  0  0
   38.0270   28.7480   43.2270 C   0  0  0  0  0  0  0  0  0  0  0  0
   37.2220   29.4070   42.3710 N   0  0  0  0  0  0  0  0  0  0  0  0
   36.3750   26.7910   40.3770 H   0  0  0  0  0  0  0  0  0  0  0  0
   37.8940   25.6390   42.0210 H   0  0  0  0  0  0  0  0  0  0  0  0
   38.4860   29.3160   44.0260 H   0  0  0  0  0  0  0  0  0  0  0  0
   36.5860   32.0380   40.8550 F   0  0  0  0  0  0  0  0  0  0  0  0
   36.8520   31.5200   39.6340 C   0  0  0  0  0  0  0  0  0  0  0  0
   36.4540   30.2280   39.4520 C   0  0  0  0  0  0  0  0  0  0  0  0
   36.6890   29.6270   38.2300 C   0  0  0  0  0  0  0  0  0  0  0  0
   36.4140   28.5960   37.9690 H   0  0  0  0  0  0  0  0  0  0  0  0
   37.3130   30.2820   37.1840 C   0  0  0  0  0  0  0  0  0  0  0  0
   37.5110   29.8390   36.2180 H   0  0  0  0  0  0  0  0  0  0  0  0
   37.7130   31.5890   37.3770 C   0  0  0  0  0  3  0  0  0  0  0  0
   37.4760   32.1910   38.6020 C   0  0  0  0  0  3  0  0  0  0  0  0
  1  3  1  0  0  0  0
  2  1  2  0  0  0  0
  3  8  1  0  0  0  0
  4  3  2  0  0  0  0
  4  5  1  0  0  0  0
  5  6  2  0  0  0  0
  6  7  1  0  0  0  0
  7 11  1  0  0  0  0
  8  7  2  0  0  0  0
  9  4  1  0  0  0  0
 10  5  1  0  0  0  0
 13 12  1  0  0  0  0
 14 13  1  0  0  0  0
 14  1  1  0  0  0  0
 15 14  2  0  0  0  0
 16 15  1  0  0  0  0
 17 19  2  0  0  0  0
 17 15  1  0  0  0  0
 18 17  1  0  0  0  0
 19 20  1  0  0  0  0
 20 13  2  0  0  0  0
M  END
>  <minimizedAffinity>
-4.608675

$$$$

 OpenBabel03242512353D

 20 21  0  0  0  0  0  0  0  0999 V2000
   39.0950   29.8940   40.5260 C   0  0  0  0  0  0  0  0  0  0  0  0
   40.0360   29.2850   39.9370 O   0  0  0  0  0  0  0  0  0  0  0  0
   38.6780   31.2490   40.3360 C   0  0  0  0  0  0  0  0  0  0  0  0
   37.6180   31.3830   39.4410 C   0  0  0  0  0  0  0  0  0  0  0  0
   37.1480   32.6890   39.2000 C   0  0  0  0  0  0  0  0  0  0  0  0
   37.7630   33.7210   39.8580 N   0  0  0  0  0  0  0  0  0  0  0  0
   38.7890   33.5210   40.7160 C   0  0  0  0  0  0  0  0  0  0  0  0
   39.2480   32.2770   40.9570 N   0  0  0  0  0  0  0  0  0  0  0  0
   37.1330   30.5690   38.9210 H   0  0  0  0  0  0  0  0  0  0  0  0
   36.3380   32.9260   38.5310 H   0  0  0  0  0  0  0  0  0  0  0  0
   39.2670   34.3440   41.2320 H   0  0  0  0  0  0  0  0  0  0  0  0
   39.1110   30.3160   43.3400 F   0  0  0  0  0  0  0  0  0  0  0  0
   38.3040   29.3290   42.8860 C   0  0  0  0  0  0  0  0  0  0  0  0
   38.3140   29.1470   41.5340 C   0  0  0  0  0  0  0  0  0  0  0  0
   37.5170   28.1560   40.9920 C   0  0  0  0  0  0  0  0  0  0  0  0
   37.4450   27.9180   39.9220 H   0  0  0  0  0  0  0  0  0  0  0  0
   36.7100   27.3420   41.7650 C   0  0  0  0  0  0  0  0  0  0  0  0
   36.0750   26.5600   41.3710 H   0  0  0  0  0  0  0  0  0  0  0  0
   36.7050   27.5340   43.1320 C   0  0  0  0  0  3  0  0  0  0  0  0
   37.5050   28.5270   43.6750 C   0  0  0  0  0  3  0  0  0  0  0  0
  1 14  1  0  0  0  0
  2  1  2  0  0  0  0
  3  1  1  0  0  0  0
  3  8  1  0  0  0  0
  4  3  2  0  0  0  0
  5  4  1  0  0  0  0
  5  6  2  0  0  0  0
  6  7  1  0  0  0  0
  7  8  2  0  0  0  0
  7 11  1  0  0  0  0
  9  4  1  0  0  0  0
 10  5  1  0  0  0  0
 13 12  1  0  0  0  0
 13 20  1  0  0  0  0
 14 13  2  0  0  0  0
 15 14  1  0  0  0  0
 15 17  2  0  0  0  0
 16 15  1  0  0  0  0
 17 19  1  0  0  0  0
 18 17  1  0  0  0  0
 19 20  2  0  0  0  0
M  END
>  <minimizedAffinity>
-4.55563498

$$$$

 OpenBabel03242512353D

 20 21  0  0  0  0  0  0  0  0999 V2000
   36.9000   27.5380   42.8410 C   0  0  0  0  0  0  0  0  0  0  0  0
   35.9600   27.4100   43.6800 O   0  0  0  0  0  0  0  0  0  0  0  0
   37.0350   28.5350   41.8240 C   0  0  0  0  0  0  0  0  0  0  0  0
   36.7820   28.0540   40.5400 C   0  0  0  0  0  0  0  0  0  0  0  0
   36.8950   28.9750   39.4810 C   0  0  0  0  0  0  0  0  0  0  0  0
   37.2400   30.2640   39.7900 N   0  0  0  0  0  0  0  0  0  0  0  0
   37.4710   30.6660   41.0600 C   0  0  0  0  0  0  0  0  0  0  0  0
   37.3670   29.7950   42.0830 N   0  0  0  0  0  0  0  0  0  0  0  0
   36.5100   27.0370   40.2960 H   0  0  0  0  0  0  0  0  0  0  0  0
   36.7270   28.7300   38.4460 H   0  0  0  0  0  0  0  0  0  0  0  0
   37.7430   31.6880   41.2930 H   0  0  0  0  0  0  0  0  0  0  0  0
   36.8670   24.8850   41.8110 F   0  0  0  0  0  0  0  0  0  0  0  0
   38.0150   25.2830   42.4060 C   0  0  0  0  0  0  0  0  0  0  0  0
   38.0060   26.5580   42.8920 C   0  0  0  0  0  0  0  0  0  0  0  0
   39.1420   27.0390   43.5150 C   0  0  0  0  0  0  0  0  0  0  0  0
   39.2500   28.0450   43.9430 H   0  0  0  0  0  0  0  0  0  0  0  0
   40.2880   26.2810   43.6660 C   0  0  0  0  0  0  0  0  0  0  0  0
   41.1910   26.6290   44.1480 H   0  0  0  0  0  0  0  0  0  0  0  0
   40.2890   24.9920   43.1720 C   0  0  0  0  0  3  0  0  0  0  0  0
   39.1490   24.5100   42.5480 C   0  0  0  0  0  3  0  0  0  0  0  0
  1 14  1  0  0  0  0
  1  2  2  0  0  0  0
  3  8  1  0  0  0  0
  3  1  1  0  0  0  0
  4  3  2  0  0  0  0
  5  6  2  0  0  0  0
  5  4  1  0  0  0  0
  6  7  1  0  0  0  0
  7 11  1  0  0  0  0
  7  8  2  0  0  0  0
  9  4  1  0  0  0  0
 10  5  1  0  0  0  0
 12 13  1  0  0  0  0
 13 20  2  0  0  0  0
 13 14  1  0  0  0  0
 14 15  2  0  0  0  0
 15 17  1  0  0  0  0
 15 16  1  0  0  0  0
 17 18  1  0  0  0  0
 19 17  2  0  0  0  0
 20 19  1  0  0  0  0
M  END
>  <minimizedAffinity>
-4.55095863

$$$$

 OpenBabel03242512353D

 20 21  0  0  0  0  0  0  0  0999 V2000
   35.4110   29.2890   40.1280 C   0  0  0  0  0  0  0  0  0  0  0  0
   34.1530   29.2110   40.0030 O   0  0  0  0  0  0  0  0  0  0  0  0
   36.2540   30.4010   39.8120 C   0  0  0  0  0  0  0  0  0  0  0  0
   36.6430   30.4390   38.4740 C   0  0  0  0  0  0  0  0  0  0  0  0
   37.4750   31.5050   38.0820 C   0  0  0  0  0  0  0  0  0  0  0  0
   37.8370   32.4180   39.0380 N   0  0  0  0  0  0  0  0  0  0  0  0
   37.4220   32.3220   40.3210 C   0  0  0  0  0  0  0  0  0  0  0  0
   36.6260   31.3080   40.7100 N   0  0  0  0  0  0  0  0  0  0  0  0
   36.3590   29.7180   37.7200 H   0  0  0  0  0  0  0  0  0  0  0  0
   37.8450   31.6470   37.0810 H   0  0  0  0  0  0  0  0  0  0  0  0
   37.7130   33.0500   41.0680 H   0  0  0  0  0  0  0  0  0  0  0  0
   36.3010   27.0300   38.6450 F   0  0  0  0  0  0  0  0  0  0  0  0
   36.5610   27.0160   39.9720 C   0  0  0  0  0  0  0  0  0  0  0  0
   36.1250   28.1090   40.6610 C   0  0  0  0  0  0  0  0  0  0  0  0
   36.3520   28.1700   42.0230 C   0  0  0  0  0  0  0  0  0  0  0  0
   36.0460   28.9970   42.6780 H   0  0  0  0  0  0  0  0  0  0  0  0
   37.0040   27.1670   42.7160 C   0  0  0  0  0  0  0  0  0  0  0  0
   37.1960   27.1850   43.7800 H   0  0  0  0  0  0  0  0  0  0  0  0
   37.4420   26.0640   42.0110 C   0  0  0  0  0  3  0  0  0  0  0  0
   37.2140   26.0040   40.6460 C   0  0  0  0  0  3  0  0  0  0  0  0
  1 14  1  0  0  0  0
  2  1  2  0  0  0  0
  3  1  1  0  0  0  0
  3  8  1  0  0  0  0
  4  3  2  0  0  0  0
  5  4  1  0  0  0  0
  5  6  2  0  0  0  0
  6  7  1  0  0  0  0
  7  8  2  0  0  0  0
  7 11  1  0  0  0  0
  9  4  1  0  0  0  0
 10  5  1  0  0  0  0
 12 13  1  0  0  0  0
 13 20  2  0  0  0  0
 13 14  1  0  0  0  0
 14 15  2  0  0  0  0
 15 16  1  0  0  0  0
 15 17  1  0  0  0  0
 17 18  1  0  0  0  0
 19 17  2  0  0  0  0
 20 19  1  0  0  0  0
M  END
>  <minimizedAffinity>
-4.54730844

$$$$

 OpenBabel03242512353D

 20 21  0  0  0  0  0  0  0  0999 V2000
   36.3290   30.1590   40.8520 C   0  0  0  0  0  0  0  0  0  0  0  0
   36.1660   31.3910   41.0960 O   0  0  0  0  0  0  0  0  0  0  0  0
   36.9200   29.1700   41.7010 C   0  0  0  0  0  0  0  0  0  0  0  0
   38.1630   29.5470   42.2080 C   0  0  0  0  0  0  0  0  0  0  0  0
   38.8110   28.6270   43.0540 C   0  0  0  0  0  0  0  0  0  0  0  0
   38.1780   27.4400   43.3130 N   0  0  0  0  0  0  0  0  0  0  0  0
   36.9690   27.1380   42.7880 C   0  0  0  0  0  0  0  0  0  0  0  0
   36.3370   28.0080   41.9770 N   0  0  0  0  0  0  0  0  0  0  0  0
   38.6630   30.4830   42.0030 H   0  0  0  0  0  0  0  0  0  0  0  0
   39.7730   28.7970   43.5080 H   0  0  0  0  0  0  0  0  0  0  0  0
   36.4760   26.1970   43.0000 H   0  0  0  0  0  0  0  0  0  0  0  0
   33.7590   29.0890   40.2620 F   0  0  0  0  0  0  0  0  0  0  0  0
   34.6410   29.1310   39.2370 C   0  0  0  0  0  0  0  0  0  0  0  0
   35.8650   29.6480   39.5450 C   0  0  0  0  0  0  0  0  0  0  0  0
   36.8220   29.7240   38.5510 C   0  0  0  0  0  0  0  0  0  0  0  0
   37.8390   30.1190   38.6820 H   0  0  0  0  0  0  0  0  0  0  0  0
   36.5890   29.2980   37.2570 C   0  0  0  0  0  0  0  0  0  0  0  0
   37.3170   29.3450   36.4580 H   0  0  0  0  0  0  0  0  0  0  0  0
   35.3480   28.7760   36.9530 C   0  0  0  0  0  3  0  0  0  0  0  0
   34.3890   28.6990   37.9510 C   0  0  0  0  0  3  0  0  0  0  0  0
  1  2  2  0  0  0  0
  1  3  1  0  0  0  0
  3  8  2  0  0  0  0
  3  4  1  0  0  0  0
  4  5  2  0  0  0  0
  5  6  1  0  0  0  0
  5 10  1  0  0  0  0
  7 11  1  0  0  0  0
  7  6  2  0  0  0  0
  8  7  1  0  0  0  0
  9  4  1  0  0  0  0
 13 14  1  0  0  0  0
 13 12  1  0  0  0  0
 14  1  1  0  0  0  0
 15 16  1  0  0  0  0
 15 14  2  0  0  0  0
 17 15  1  0  0  0  0
 18 17  1  0  0  0  0
 19 17  2  0  0  0  0
 19 20  1  0  0  0  0
 20 13  2  0  0  0  0
M  END
>  <minimizedAffinity>
-4.4445281

$$$$

 OpenBabel03242512353D

 20 21  0  0  0  0  0  0  0  0999 V2000
   37.1600   30.5490   41.1250 C   0  0  0  0  0  0  0  0  0  0  0  0
   35.9790   30.9950   41.2230 O   0  0  0  0  0  0  0  0  0  0  0  0
   38.2580   31.1300   40.4140 C   0  0  0  0  0  0  0  0  0  0  0  0
   38.4590   32.4780   40.7110 C   0  0  0  0  0  0  0  0  0  0  0  0
   39.5220   33.1240   40.0510 C   0  0  0  0  0  0  0  0  0  0  0  0
   40.2720   32.3860   39.1740 N   0  0  0  0  0  0  0  0  0  0  0  0
   40.0230   31.0790   38.9320 C   0  0  0  0  0  0  0  0  0  0  0  0
   39.0100   30.4480   39.5560 N   0  0  0  0  0  0  0  0  0  0  0  0
   37.8660   33.0610   41.4020 H   0  0  0  0  0  0  0  0  0  0  0  0
   39.7810   34.1600   40.1910 H   0  0  0  0  0  0  0  0  0  0  0  0
   40.6230   30.5050   38.2370 H   0  0  0  0  0  0  0  0  0  0  0  0
   38.8870   30.2170   43.3620 F   0  0  0  0  0  0  0  0  0  0  0  0
   38.3000   29.0950   42.8850 C   0  0  0  0  0  0  0  0  0  0  0  0
   37.4770   29.2810   41.8130 C   0  0  0  0  0  0  0  0  0  0  0  0
   36.8400   28.1820   41.2680 C   0  0  0  0  0  0  0  0  0  0  0  0
   36.1580   28.2100   40.4070 H   0  0  0  0  0  0  0  0  0  0  0  0
   37.0030   26.9020   41.7650 C   0  0  0  0  0  0  0  0  0  0  0  0
   36.5180   26.0240   41.3600 H   0  0  0  0  0  0  0  0  0  0  0  0
   37.8370   26.7230   42.8500 C   0  0  0  0  0  3  0  0  0  0  0  0
   38.4760   27.8250   43.3960 C   0  0  0  0  0  3  0  0  0  0  0  0
  1  2  2  0  0  0  0
  1 14  1  0  0  0  0
  3  4  1  0  0  0  0
  3  1  1  0  0  0  0
  4  9  1  0  0  0  0
  5 10  1  0  0  0  0
  5  4  2  0  0  0  0
  6  5  1  0  0  0  0
  7  6  2  0  0  0  0
  7  8  1  0  0  0  0
  8  3  2  0  0  0  0
 11  7  1  0  0  0  0
 13 12  1  0  0  0  0
 13 20  1  0  0  0  0
 14 13  2  0  0  0  0
 15 17  2  0  0  0  0
 15 14  1  0  0  0  0
 16 15  1  0  0  0  0
 17 19  1  0  0  0  0
 18 17  1  0  0  0  0
 19 20  2  0  0  0  0
M  END
>  <minimizedAffinity>
-4.40711021

$$$$

 OpenBabel03242512353D

 20 21  0  0  0  0  0  0  0  0999 V2000
   38.4200   29.5120   40.0400 C   0  0  0  0  0  0  0  0  0  0  0  0
   38.8060   28.8250   39.0480 O   0  0  0  0  0  0  0  0  0  0  0  0
   38.3030   30.9350   40.1250 C   0  0  0  0  0  0  0  0  0  0  0  0
   37.3700   31.4690   39.2370 C   0  0  0  0  0  0  0  0  0  0  0  0
   37.1970   32.8660   39.2590 C   0  0  0  0  0  0  0  0  0  0  0  0
   37.9520   33.5900   40.1440 N   0  0  0  0  0  0  0  0  0  0  0  0
   38.8410   33.0080   40.9800 C   0  0  0  0  0  0  0  0  0  0  0  0
   39.0170   31.6720   40.9700 N   0  0  0  0  0  0  0  0  0  0  0  0
   36.7750   30.8980   38.5380 H   0  0  0  0  0  0  0  0  0  0  0  0
   36.5090   33.4000   38.6240 H   0  0  0  0  0  0  0  0  0  0  0  0
   39.4320   33.5900   41.6760 H   0  0  0  0  0  0  0  0  0  0  0  0
   35.7790   28.8400   40.8620 F   0  0  0  0  0  0  0  0  0  0  0  0
   36.7800   28.4560   41.6870 C   0  0  0  0  0  0  0  0  0  0  0  0
   38.0360   28.7890   41.2710 C   0  0  0  0  0  0  0  0  0  0  0  0
   39.1130   28.4320   42.0600 C   0  0  0  0  0  0  0  0  0  0  0  0
   40.1650   28.6470   41.8270 H   0  0  0  0  0  0  0  0  0  0  0  0
   38.9700   27.7510   43.2540 C   0  0  0  0  0  0  0  0  0  0  0  0
   39.7920   27.4580   43.8920 H   0  0  0  0  0  0  0  0  0  0  0  0
   37.6960   27.4170   43.6680 C   0  0  0  0  0  3  0  0  0  0  0  0
   36.6160   27.7760   42.8760 C   0  0  0  0  0  3  0  0  0  0  0  0
  1  3  1  0  0  0  0
  1 14  1  0  0  0  0
  2  1  2  0  0  0  0
  3  8  1  0  0  0  0
  4  5  1  0  0  0  0
  4  3  2  0  0  0  0
  5  6  2  0  0  0  0
  6  7  1  0  0  0  0
  7 11  1  0  0  0  0
  8  7  2  0  0  0  0
  9  4  1  0  0  0  0
 10  5  1  0  0  0  0
 12 13  1  0  0  0  0
 13 20  1  0  0  0  0
 14 13  2  0  0  0  0
 14 15  1  0  0  0  0
 15 17  2  0  0  0  0
 16 15  1  0  0  0  0
 17 19  1  0  0  0  0
 17 18  1  0  0  0  0
 20 19  2  0  0  0  0
M  END
>  <minimizedAffinity>
-4.36202765

$$$$

 OpenBabel03242512353D

 20 21  0  0  0  0  0  0  0  0999 V2000
   36.0960   29.4890   40.2040 C   0  0  0  0  0  0  0  0  0  0  0  0
   34.8340   29.4630   40.0950 O   0  0  0  0  0  0  0  0  0  0  0  0
   37.0290   30.2060   39.3900 C   0  0  0  0  0  0  0  0  0  0  0  0
   36.8400   31.5880   39.4160 C   0  0  0  0  0  0  0  0  0  0  0  0
   37.7190   32.3660   38.6390 C   0  0  0  0  0  0  0  0  0  0  0  0
   38.6870   31.7130   37.9220 N   0  0  0  0  0  0  0  0  0  0  0  0
   38.8150   30.3670   37.9420 C   0  0  0  0  0  0  0  0  0  0  0  0
   37.9810   29.6100   38.6810 N   0  0  0  0  0  0  0  0  0  0  0  0
   36.0760   32.1030   39.9810 H   0  0  0  0  0  0  0  0  0  0  0  0
   37.6780   33.4400   38.5730 H   0  0  0  0  0  0  0  0  0  0  0  0
   39.5850   29.8610   37.3710 H   0  0  0  0  0  0  0  0  0  0  0  0
   36.2830   26.6530   40.3390 F   0  0  0  0  0  0  0  0  0  0  0  0
   36.8130   27.3390   41.3770 C   0  0  0  0  0  0  0  0  0  0  0  0
   36.7110   28.6960   41.2890 C   0  0  0  0  0  0  0  0  0  0  0  0
   37.2280   29.4680   42.3120 C   0  0  0  0  0  0  0  0  0  0  0  0
   37.2030   30.5660   42.3500 H   0  0  0  0  0  0  0  0  0  0  0  0
   37.8450   28.9210   43.4220 C   0  0  0  0  0  0  0  0  0  0  0  0
   38.2590   29.4970   44.2370 H   0  0  0  0  0  0  0  0  0  0  0  0
   37.9440   27.5460   43.5030 C   0  0  0  0  0  3  0  0  0  0  0  0
   37.4250   26.7730   42.4770 C   0  0  0  0  0  3  0  0  0  0  0  0
  1 14  1  0  0  0  0
  2  1  2  0  0  0  0
  3  4  1  0  0  0  0
  3  1  1  0  0  0  0
  4  9  1  0  0  0  0
  5  4  2  0  0  0  0
  6  7  2  0  0  0  0
  6  5  1  0  0  0  0
  7  8  1  0  0  0  0
  8  3  2  0  0  0  0
 10  5  1  0  0  0  0
 11  7  1  0  0  0  0
 12 13  1  0  0  0  0
 13 20  1  0  0  0  0
 14 13  2  0  0  0  0
 14 15  1  0  0  0  0
 15 16  1  0  0  0  0
 15 17  2  0  0  0  0
 17 19  1  0  0  0  0
 17 18  1  0  0  0  0
 20 19  2  0  0  0  0
M  END
>  <minimizedAffinity>
-4.34312725

$$$$
