
 OpenBabel03252508493D

 28 30  0  0  0  0  0  0  0  0999 V2000
   45.9120   34.1890   41.0490 C   0  0  0  0  0  0  0  0  0  0  0  0
   46.5100   34.7930   42.1480 C   0  0  0  0  0  0  0  0  0  0  0  0
   47.8680   35.1330   42.0120 C   0  0  0  0  0  0  0  0  0  0  0  0
   48.4980   34.8490   40.8290 N   0  0  0  0  0  0  0  0  0  0  0  0
   47.8720   34.2690   39.8120 C   0  0  0  0  0  0  0  0  0  0  0  0
   46.5750   33.9330   39.9100 N   0  0  0  0  0  0  0  0  0  0  0  0
   48.3470   35.6070   42.8680 H   0  0  0  0  0  0  0  0  0  0  0  0
   48.3790   34.0500   38.8810 H   0  0  0  0  0  0  0  0  0  0  0  0
   45.7450   35.0450   43.3490 C   0  0  0  0  0  0  0  0  0  0  0  0
   45.0720   36.2370   43.5780 C   0  0  0  0  0  0  0  0  0  0  0  0
   44.4930   36.0460   44.8140 C   0  0  0  0  0  0  0  0  0  0  0  0
   44.7930   34.8160   45.3080 N   0  0  0  0  0  0  0  0  0  0  0  0
   45.5500   34.2380   44.4010 N   0  0  0  0  0  0  0  0  0  0  0  0
   44.9660   37.1550   42.9930 H   0  0  0  0  0  0  0  0  0  0  0  0
   43.8620   36.7150   45.4130 H   0  0  0  0  0  0  0  0  0  0  0  0
   44.5580   34.3130   46.1740 H   0  0  0  0  0  0  0  0  0  0  0  0
   44.5800   33.8410   41.1460 O   0  0  0  0  0  0  0  0  0  0  0  0
   43.5070   34.5050   40.6220 C   0  0  0  0  0  0  0  0  0  0  0  0
   43.2970   35.7710   40.6230 O   0  0  0  0  0  0  0  0  0  0  0  0
   40.9100   34.2610   41.7460 F   0  0  0  0  0  0  0  0  0  0  0  0
   41.1040   33.7060   40.5170 C   0  0  0  0  0  0  0  0  0  0  0  0
   42.3740   33.8150   39.9440 C   0  0  0  0  0  0  0  0  0  0  0  0
   42.4500   33.2210   38.7070 C   0  0  0  0  0  0  0  0  0  0  0  0
   43.3930   33.2520   38.1820 H   0  0  0  0  0  0  0  0  0  0  0  0
   41.4040   32.5850   38.0840 C   0  0  0  0  0  0  0  0  0  0  0  0
   41.5390   32.1390   37.1080 H   0  0  0  0  0  0  0  0  0  0  0  0
   40.2000   32.5260   38.7170 C   0  0  0  0  0  3  0  0  0  0  0  0
   40.0180   33.0850   39.9480 C   0  0  0  0  0  3  0  0  0  0  0  0
  1 17  1  0  0  0  0
  1  2  1  0  0  0  0
  2  9  1  0  0  0  0
  3  2  2  0  0  0  0
  3  7  1  0  0  0  0
  4  3  1  0  0  0  0
  5  6  1  0  0  0  0
  5  4  2  0  0  0  0
  6  1  2  0  0  0  0
  8  5  1  0  0  0  0
  9 10  1  0  0  0  0
  9 13  2  0  0  0  0
 10 11  2  0  0  0  0
 11 12  1  0  0  0  0
 11 15  1  0  0  0  0
 12 16  1  0  0  0  0
 13 12  1  0  0  0  0
 14 10  1  0  0  0  0
 18 19  2  0  0  0  0
 18 17  1  0  0  0  0
 21 20  1  0  0  0  0
 22 21  2  0  0  0  0
 22 18  1  0  0  0  0
 23 22  1  0  0  0  0
 24 23  1  0  0  0  0
 25 23  2  0  0  0  0
 25 27  1  0  0  0  0
 26 25  1  0  0  0  0
 27 28  2  0  0  0  0
 28 21  1  0  0  0  0
M  END
>  <minimizedAffinity>
-5.48174572

>  <minimizedRMSD>
0.721927226

$$$$
