
 OpenBabel03242520203D

 35 37  0  0  0  0  0  0  0  0999 V2000
   38.2280   27.5440   43.6580 C   0  0  0  0  0  0  0  0  0  0  0  0
   38.2360   27.3660   44.7500 H   0  0  0  0  0  0  0  0  0  0  0  0
   39.1090   28.1810   43.3690 H   0  0  0  0  0  0  0  0  0  0  0  0
   37.5130   24.5120   41.5260 C   0  0  0  0  0  0  0  0  0  0  0  0
   37.3340   25.7210   42.2130 C   0  0  0  0  0  0  0  0  0  0  0  0
   38.3860   26.2610   42.9310 C   0  0  0  0  0  0  0  0  0  0  0  0
   39.5630   25.5680   42.9270 N   0  0  0  0  0  0  0  0  0  0  0  0
   39.6950   24.3890   42.2420 C   0  0  0  0  0  0  0  0  0  0  0  0
   38.6840   23.8800   41.5600 N   0  0  0  0  0  0  0  0  0  0  0  0
   36.3630   26.1820   42.1500 H   0  0  0  0  0  0  0  0  0  0  0  0
   40.6630   23.8970   42.2900 H   0  0  0  0  0  0  0  0  0  0  0  0
   36.3620   23.9440   40.7680 C   0  0  0  0  0  0  0  0  0  0  0  0
   36.3370   24.4550   39.2860 C   0  0  0  0  0  0  0  0  0  0  0  0
   36.4860   23.0490   39.6750 C   0  0  0  0  0  0  0  0  0  0  0  0
   35.4000   24.0700   41.3060 H   0  0  0  0  0  0  0  0  0  0  0  0
   37.2410   24.9660   38.9180 H   0  0  0  0  0  0  0  0  0  0  0  0
   35.3480   24.8260   38.9640 H   0  0  0  0  0  0  0  0  0  0  0  0
   37.4850   22.5450   39.5200 H   0  0  0  0  0  0  0  0  0  0  0  0
   35.6620   22.3390   39.4440 H   0  0  0  0  0  0  0  0  0  0  0  0
   36.9350   28.2190   43.2990 C   0  0  0  0  0  0  0  0  0  0  0  0
   36.4280   27.5800   42.5450 H   0  0  0  0  0  0  0  0  0  0  0  0
   36.2220   28.2400   44.1630 H   0  0  0  0  0  0  0  0  0  0  0  0
   37.3750   29.8370   41.4640 C   0  0  0  0  0  0  0  0  0  0  0  0
   37.3000   28.9250   40.5830 O   0  0  0  0  0  0  0  0  0  0  0  0
   37.1060   29.5800   42.8260 N   0  0  0  0  0  0  0  0  0  0  0  0
   37.0150   30.3000   43.5330 H   0  0  0  0  0  0  0  0  0  0  0  0
   39.7200   31.3990   42.2000 F   0  0  0  0  0  0  0  0  0  0  0  0
   38.8520   31.9080   41.2990 C   0  0  0  0  0  0  0  0  0  0  0  0
   37.7540   31.1530   40.9590 C   0  0  0  0  0  0  0  0  0  0  0  0
   36.9650   31.7970   40.0270 C   0  0  0  0  0  0  0  0  0  0  0  0
   36.0460   31.3210   39.6510 H   0  0  0  0  0  0  0  0  0  0  0  0
   37.2200   33.0370   39.4900 C   0  0  0  0  0  0  0  0  0  0  0  0
   36.5680   33.4850   38.7680 H   0  0  0  0  0  0  0  0  0  0  0  0
   38.3440   33.7260   39.8850 C   0  0  0  0  0  3  0  0  0  0  0  0
   39.1680   33.1450   40.8050 C   0  0  0  0  0  3  0  0  0  0  0  0
  1  2  1  0  0  0  0
  3  1  1  0  0  0  0
  4  9  2  0  0  0  0
  4  5  1  0  0  0  0
  5  6  2  0  0  0  0
  6  1  1  0  0  0  0
  7  6  1  0  0  0  0
  8 11  1  0  0  0  0
  8  7  2  0  0  0  0
  9  8  1  0  0  0  0
 10  5  1  0  0  0  0
 12 15  1  0  0  0  0
 12  4  1  0  0  0  0
 13 14  1  0  0  0  0
 13 12  1  0  0  0  0
 14 12  1  0  0  0  0
 16 13  1  0  0  0  0
 17 13  1  0  0  0  0
 18 14  1  0  0  0  0
 19 14  1  0  0  0  0
 20  1  1  0  0  0  0
 20 22  1  0  0  0  0
 21 20  1  0  0  0  0
 23 25  1  0  0  0  0
 24 23  2  0  0  0  0
 25 20  1  0  0  0  0
 25 26  1  0  0  0  0
 28 27  1  0  0  0  0
 29 28  1  0  0  0  0
 29 23  1  0  0  0  0
 30 29  2  0  0  0  0
 31 30  1  0  0  0  0
 32 34  2  0  0  0  0
 32 30  1  0  0  0  0
 33 32  1  0  0  0  0
 34 35  1  0  0  0  0
 35 28  2  0  0  0  0
M  END
>  <minimizedAffinity>
-5.50427723

$$$$

 OpenBabel03242520203D

 35 37  0  0  0  0  0  0  0  0999 V2000
   35.7110   27.8880   37.6290 C   0  0  0  0  0  0  0  0  0  0  0  0
   35.9920   28.5510   36.7890 H   0  0  0  0  0  0  0  0  0  0  0  0
   36.3610   26.9700   37.6240 H   0  0  0  0  0  0  0  0  0  0  0  0
   36.4350   28.5070   41.2820 C   0  0  0  0  0  0  0  0  0  0  0  0
   36.1910   27.8380   40.0740 C   0  0  0  0  0  0  0  0  0  0  0  0
   35.9620   28.5690   38.9220 C   0  0  0  0  0  0  0  0  0  0  0  0
   35.9890   29.9300   39.0330 N   0  0  0  0  0  0  0  0  0  0  0  0
   36.2310   30.5440   40.2340 C   0  0  0  0  0  0  0  0  0  0  0  0
   36.4480   29.8370   41.3290 N   0  0  0  0  0  0  0  0  0  0  0  0
   36.1910   26.7610   40.1010 H   0  0  0  0  0  0  0  0  0  0  0  0
   36.2340   31.6310   40.2400 H   0  0  0  0  0  0  0  0  0  0  0  0
   36.6690   27.6980   42.5110 C   0  0  0  0  0  0  0  0  0  0  0  0
   38.1980   27.4560   42.7630 C   0  0  0  0  0  0  0  0  0  0  0  0
   37.3130   28.1830   43.6800 C   0  0  0  0  0  0  0  0  0  0  0  0
   36.0560   26.7730   42.5310 H   0  0  0  0  0  0  0  0  0  0  0  0
   38.9040   28.0610   42.1720 H   0  0  0  0  0  0  0  0  0  0  0  0
   38.4490   26.4020   42.9740 H   0  0  0  0  0  0  0  0  0  0  0  0
   37.4370   29.3000   43.7840 H   0  0  0  0  0  0  0  0  0  0  0  0
   37.0790   27.7310   44.6680 H   0  0  0  0  0  0  0  0  0  0  0  0
   34.2620   27.5220   37.4770 C   0  0  0  0  0  0  0  0  0  0  0  0
   34.1440   27.0530   36.4770 H   0  0  0  0  0  0  0  0  0  0  0  0
   33.9590   26.7170   38.1940 H   0  0  0  0  0  0  0  0  0  0  0  0
   32.2530   28.8190   36.7990 C   0  0  0  0  0  0  0  0  0  0  0  0
   31.9010   27.9230   35.9690 O   0  0  0  0  0  0  0  0  0  0  0  0
   33.3620   28.6450   37.6560 N   0  0  0  0  0  0  0  0  0  0  0  0
   33.5890   29.2660   38.4240 H   0  0  0  0  0  0  0  0  0  0  0  0
   30.6020   29.8320   38.9730 F   0  0  0  0  0  0  0  0  0  0  0  0
   30.6370   30.5130   37.8070 C   0  0  0  0  0  0  0  0  0  0  0  0
   31.4280   30.0230   36.7940 C   0  0  0  0  0  0  0  0  0  0  0  0
   31.3690   30.8250   35.6720 C   0  0  0  0  0  0  0  0  0  0  0  0
   31.9490   30.5660   34.7720 H   0  0  0  0  0  0  0  0  0  0  0  0
   30.6220   31.9730   35.5530 C   0  0  0  0  0  0  0  0  0  0  0  0
   30.6180   32.5540   34.6530 H   0  0  0  0  0  0  0  0  0  0  0  0
   29.8570   32.3950   36.6170 C   0  0  0  0  0  3  0  0  0  0  0  0
   29.8710   31.6470   37.7590 C   0  0  0  0  0  3  0  0  0  0  0  0
  1  6  1  0  0  0  0
  2  1  1  0  0  0  0
  3  1  1  0  0  0  0
  4  9  1  0  0  0  0
  4 12  1  0  0  0  0
  5 10  1  0  0  0  0
  5  4  2  0  0  0  0
  6  7  2  0  0  0  0
  6  5  1  0  0  0  0
  7  8  1  0  0  0  0
  8 11  1  0  0  0  0
  8  9  2  0  0  0  0
 12 15  1  0  0  0  0
 12 13  1  0  0  0  0
 12 14  1  0  0  0  0
 13 17  1  0  0  0  0
 13 14  1  0  0  0  0
 14 18  1  0  0  0  0
 14 19  1  0  0  0  0
 16 13  1  0  0  0  0
 20  1  1  0  0  0  0
 20 25  1  0  0  0  0
 20 22  1  0  0  0  0
 21 20  1  0  0  0  0
 23 25  1  0  0  0  0
 24 23  2  0  0  0  0
 25 26  1  0  0  0  0
 28 27  1  0  0  0  0
 29 23  1  0  0  0  0
 29 28  2  0  0  0  0
 30 29  1  0  0  0  0
 31 30  1  0  0  0  0
 32 30  2  0  0  0  0
 32 34  1  0  0  0  0
 33 32  1  0  0  0  0
 34 35  2  0  0  0  0
 35 28  1  0  0  0  0
M  END
>  <minimizedAffinity>
-5.41387463

$$$$

 OpenBabel03242520203D

 35 37  0  0  0  0  0  0  0  0999 V2000
   36.6610   27.2610   43.1170 C   0  0  0  0  0  0  0  0  0  0  0  0
   35.9640   27.6080   42.3310 H   0  0  0  0  0  0  0  0  0  0  0  0
   36.0820   26.8190   43.9730 H   0  0  0  0  0  0  0  0  0  0  0  0
   39.6380   25.0320   42.4660 C   0  0  0  0  0  0  0  0  0  0  0  0
   38.8490   26.0760   42.9710 C   0  0  0  0  0  0  0  0  0  0  0  0
   37.5220   26.1740   42.5910 C   0  0  0  0  0  0  0  0  0  0  0  0
   37.0500   25.2260   41.7290 N   0  0  0  0  0  0  0  0  0  0  0  0
   37.8560   24.2220   41.2590 C   0  0  0  0  0  0  0  0  0  0  0  0
   39.1220   24.1370   41.6270 N   0  0  0  0  0  0  0  0  0  0  0  0
   39.3250   26.7690   43.6430 H   0  0  0  0  0  0  0  0  0  0  0  0
   37.4050   23.5070   40.5750 H   0  0  0  0  0  0  0  0  0  0  0  0
   41.0670   24.9530   42.8810 C   0  0  0  0  0  0  0  0  0  0  0  0
   42.0040   25.7060   41.8750 C   0  0  0  0  0  0  0  0  0  0  0  0
   41.8460   26.0670   43.2880 C   0  0  0  0  0  0  0  0  0  0  0  0
   41.3850   23.9130   43.1030 H   0  0  0  0  0  0  0  0  0  0  0  0
   41.5200   26.3650   41.1380 H   0  0  0  0  0  0  0  0  0  0  0  0
   42.8820   25.1140   41.5630 H   0  0  0  0  0  0  0  0  0  0  0  0
   41.3010   27.0210   43.5480 H   0  0  0  0  0  0  0  0  0  0  0  0
   42.7050   25.9190   43.9780 H   0  0  0  0  0  0  0  0  0  0  0  0
   37.4820   28.4340   43.5720 C   0  0  0  0  0  0  0  0  0  0  0  0
   37.2700   28.5860   44.6520 H   0  0  0  0  0  0  0  0  0  0  0  0
   38.5790   28.2130   43.5380 H   0  0  0  0  0  0  0  0  0  0  0  0
   38.1100   29.9990   41.7450 C   0  0  0  0  0  0  0  0  0  0  0  0
   39.0080   29.2080   41.3180 O   0  0  0  0  0  0  0  0  0  0  0  0
   37.2430   29.6390   42.8010 N   0  0  0  0  0  0  0  0  0  0  0  0
   36.4280   30.1760   43.0740 H   0  0  0  0  0  0  0  0  0  0  0  0
   36.1030   30.8820   39.8290 F   0  0  0  0  0  0  0  0  0  0  0  0
   37.1110   31.7200   40.1510 C   0  0  0  0  0  0  0  0  0  0  0  0
   38.0470   31.2880   41.0630 C   0  0  0  0  0  0  0  0  0  0  0  0
   39.0080   32.2490   41.2970 C   0  0  0  0  0  0  0  0  0  0  0  0
   39.8300   32.0550   42.0050 H   0  0  0  0  0  0  0  0  0  0  0  0
   39.0520   33.4910   40.7070 C   0  0  0  0  0  0  0  0  0  0  0  0
   39.8270   34.1950   40.9300 H   0  0  0  0  0  0  0  0  0  0  0  0
   38.0750   33.8440   39.8040 C   0  0  0  0  0  3  0  0  0  0  0  0
   37.0930   32.9380   39.5280 C   0  0  0  0  0  3  0  0  0  0  0  0
  1 20  1  0  0  0  0
  1  3  1  0  0  0  0
  2  1  1  0  0  0  0
  4 12  1  0  0  0  0
  4  5  1  0  0  0  0
  5 10  1  0  0  0  0
  6  5  2  0  0  0  0
  6  1  1  0  0  0  0
  7  6  1  0  0  0  0
  8  9  1  0  0  0  0
  8  7  2  0  0  0  0
  9  4  2  0  0  0  0
 11  8  1  0  0  0  0
 12 15  1  0  0  0  0
 12 14  1  0  0  0  0
 13 12  1  0  0  0  0
 13 14  1  0  0  0  0
 14 18  1  0  0  0  0
 14 19  1  0  0  0  0
 16 13  1  0  0  0  0
 17 13  1  0  0  0  0
 20 21  1  0  0  0  0
 22 20  1  0  0  0  0
 23 25  1  0  0  0  0
 24 23  2  0  0  0  0
 25 26  1  0  0  0  0
 25 20  1  0  0  0  0
 27 28  1  0  0  0  0
 28 29  1  0  0  0  0
 29 30  2  0  0  0  0
 29 23  1  0  0  0  0
 30 31  1  0  0  0  0
 32 33  1  0  0  0  0
 32 30  1  0  0  0  0
 34 32  2  0  0  0  0
 35 34  1  0  0  0  0
 35 28  2  0  0  0  0
M  END
>  <minimizedAffinity>
-5.39347363

$$$$

 OpenBabel03242520203D

 35 37  0  0  0  0  0  0  0  0999 V2000
   36.5900   27.3640   43.3140 C   0  0  0  0  0  0  0  0  0  0  0  0
   35.5660   27.7840   43.2820 H   0  0  0  0  0  0  0  0  0  0  0  0
   36.6420   26.5440   44.0820 H   0  0  0  0  0  0  0  0  0  0  0  0
   37.8980   24.9570   40.7160 C   0  0  0  0  0  0  0  0  0  0  0  0
   37.6020   25.5330   41.9610 C   0  0  0  0  0  0  0  0  0  0  0  0
   36.9240   26.7370   42.0120 C   0  0  0  0  0  0  0  0  0  0  0  0
   36.5740   27.3060   40.8210 N   0  0  0  0  0  0  0  0  0  0  0  0
   36.8830   26.7090   39.6270 C   0  0  0  0  0  0  0  0  0  0  0  0
   37.5310   25.5590   39.5870 N   0  0  0  0  0  0  0  0  0  0  0  0
   37.9280   24.9990   42.8380 H   0  0  0  0  0  0  0  0  0  0  0  0
   36.5710   27.2260   38.7220 H   0  0  0  0  0  0  0  0  0  0  0  0
   38.6380   23.6640   40.6860 C   0  0  0  0  0  0  0  0  0  0  0  0
   37.6990   22.4680   40.3050 C   0  0  0  0  0  0  0  0  0  0  0  0
   38.8590   22.8940   39.5150 C   0  0  0  0  0  0  0  0  0  0  0  0
   39.2320   23.4960   41.6090 H   0  0  0  0  0  0  0  0  0  0  0  0
   36.7060   22.7210   39.9020 H   0  0  0  0  0  0  0  0  0  0  0  0
   37.7940   21.6000   40.9810 H   0  0  0  0  0  0  0  0  0  0  0  0
   38.6830   23.3950   38.5180 H   0  0  0  0  0  0  0  0  0  0  0  0
   39.7420   22.2210   39.4530 H   0  0  0  0  0  0  0  0  0  0  0  0
   37.5450   28.4740   43.6470 C   0  0  0  0  0  0  0  0  0  0  0  0
   37.4330   28.6930   44.7300 H   0  0  0  0  0  0  0  0  0  0  0  0
   38.6120   28.1510   43.5420 H   0  0  0  0  0  0  0  0  0  0  0  0
   38.3400   30.0590   41.9040 C   0  0  0  0  0  0  0  0  0  0  0  0
   39.3280   29.3130   41.6150 O   0  0  0  0  0  0  0  0  0  0  0  0
   37.3550   29.6610   42.8340 N   0  0  0  0  0  0  0  0  0  0  0  0
   36.4850   30.1570   42.9860 H   0  0  0  0  0  0  0  0  0  0  0  0
   36.2040   31.0890   40.2150 F   0  0  0  0  0  0  0  0  0  0  0  0
   37.3120   31.8390   40.3970 C   0  0  0  0  0  0  0  0  0  0  0  0
   38.3080   31.3390   41.2030 C   0  0  0  0  0  0  0  0  0  0  0  0
   39.3690   32.2150   41.3010 C   0  0  0  0  0  0  0  0  0  0  0  0
   40.2490   31.9590   41.9130 H   0  0  0  0  0  0  0  0  0  0  0  0
   39.4500   33.4400   40.6800 C   0  0  0  0  0  0  0  0  0  0  0  0
   40.3030   34.0760   40.7950 H   0  0  0  0  0  0  0  0  0  0  0  0
   38.4070   33.8660   39.8900 C   0  0  0  0  0  3  0  0  0  0  0  0
   37.3240   33.0460   39.7520 C   0  0  0  0  0  3  0  0  0  0  0  0
  1 20  1  0  0  0  0
  1  3  1  0  0  0  0
  2  1  1  0  0  0  0
  4  5  1  0  0  0  0
  5  6  2  0  0  0  0
  5 10  1  0  0  0  0
  6  1  1  0  0  0  0
  7  6  1  0  0  0  0
  8  7  2  0  0  0  0
  9  8  1  0  0  0  0
  9  4  2  0  0  0  0
 11  8  1  0  0  0  0
 12  4  1  0  0  0  0
 12 15  1  0  0  0  0
 13 12  1  0  0  0  0
 13 17  1  0  0  0  0
 14 13  1  0  0  0  0
 14 12  1  0  0  0  0
 16 13  1  0  0  0  0
 18 14  1  0  0  0  0
 19 14  1  0  0  0  0
 20 21  1  0  0  0  0
 22 20  1  0  0  0  0
 23 25  1  0  0  0  0
 24 23  2  0  0  0  0
 25 26  1  0  0  0  0
 25 20  1  0  0  0  0
 27 28  1  0  0  0  0
 28 29  1  0  0  0  0
 29 30  2  0  0  0  0
 29 23  1  0  0  0  0
 30 31  1  0  0  0  0
 32 33  1  0  0  0  0
 32 30  1  0  0  0  0
 34 32  2  0  0  0  0
 35 34  1  0  0  0  0
 35 28  2  0  0  0  0
M  END
>  <minimizedAffinity>
-5.3062768

$$$$

 OpenBabel03242520203D

 35 37  0  0  0  0  0  0  0  0999 V2000
   37.3420   30.7830   36.9890 C   0  0  0  0  0  0  0  0  0  0  0  0
   36.7770   31.3440   36.2200 H   0  0  0  0  0  0  0  0  0  0  0  0
   38.2430   30.2970   36.5230 H   0  0  0  0  0  0  0  0  0  0  0  0
   39.6850   32.7740   39.1820 C   0  0  0  0  0  0  0  0  0  0  0  0
   39.2210   31.8790   38.2060 C   0  0  0  0  0  0  0  0  0  0  0  0
   37.8600   31.7150   38.0210 C   0  0  0  0  0  0  0  0  0  0  0  0
   37.0300   32.4520   38.8170 N   0  0  0  0  0  0  0  0  0  0  0  0
   37.5250   33.3150   39.7590 C   0  0  0  0  0  0  0  0  0  0  0  0
   38.8270   33.4650   39.9290 N   0  0  0  0  0  0  0  0  0  0  0  0
   39.9640   31.3470   37.6360 H   0  0  0  0  0  0  0  0  0  0  0  0
   36.8000   33.8640   40.3540 H   0  0  0  0  0  0  0  0  0  0  0  0
   41.1550   32.9260   39.3700 C   0  0  0  0  0  0  0  0  0  0  0  0
   41.7150   34.1600   38.5820 C   0  0  0  0  0  0  0  0  0  0  0  0
   41.7690   34.0150   40.0410 C   0  0  0  0  0  0  0  0  0  0  0  0
   41.7050   31.9810   39.1790 H   0  0  0  0  0  0  0  0  0  0  0  0
   40.9780   34.8740   38.1810 H   0  0  0  0  0  0  0  0  0  0  0  0
   42.6120   33.9290   37.9810 H   0  0  0  0  0  0  0  0  0  0  0  0
   41.1110   34.6770   40.6770 H   0  0  0  0  0  0  0  0  0  0  0  0
   42.7580   33.8780   40.5290 H   0  0  0  0  0  0  0  0  0  0  0  0
   36.4270   29.7560   37.5920 C   0  0  0  0  0  0  0  0  0  0  0  0
   35.4650   30.2630   37.8170 H   0  0  0  0  0  0  0  0  0  0  0  0
   36.1510   28.9600   36.8540 H   0  0  0  0  0  0  0  0  0  0  0  0
   36.3040   29.1620   40.0030 C   0  0  0  0  0  0  0  0  0  0  0  0
   35.1210   29.6150   40.0990 O   0  0  0  0  0  0  0  0  0  0  0  0
   36.9820   29.1070   38.7650 N   0  0  0  0  0  0  0  0  0  0  0  0
   37.8620   28.6270   38.6210 H   0  0  0  0  0  0  0  0  0  0  0  0
   38.0460   30.6750   41.7790 F   0  0  0  0  0  0  0  0  0  0  0  0
   37.7240   29.4060   42.1060 C   0  0  0  0  0  0  0  0  0  0  0  0
   36.8950   28.7080   41.2580 C   0  0  0  0  0  0  0  0  0  0  0  0
   36.6500   27.4330   41.7240 C   0  0  0  0  0  0  0  0  0  0  0  0
   36.0010   26.7470   41.1560 H   0  0  0  0  0  0  0  0  0  0  0  0
   37.1580   26.8990   42.8850 C   0  0  0  0  0  0  0  0  0  0  0  0
   36.9300   25.8990   43.1940 H   0  0  0  0  0  0  0  0  0  0  0  0
   37.9810   27.6660   43.6780 C   0  0  0  0  0  3  0  0  0  0  0  0
   38.2630   28.9390   43.2740 C   0  0  0  0  0  3  0  0  0  0  0  0
  1 20  1  0  0  0  0
  1  6  1  0  0  0  0
  2  1  1  0  0  0  0
  3  1  1  0  0  0  0
  4 12  1  0  0  0  0
  4  9  1  0  0  0  0
  5  4  2  0  0  0  0
  6  5  1  0  0  0  0
  6  7  2  0  0  0  0
  7  8  1  0  0  0  0
  8  9  2  0  0  0  0
  8 11  1  0  0  0  0
 10  5  1  0  0  0  0
 12 14  1  0  0  0  0
 13 12  1  0  0  0  0
 13 14  1  0  0  0  0
 14 19  1  0  0  0  0
 14 18  1  0  0  0  0
 15 12  1  0  0  0  0
 16 13  1  0  0  0  0
 17 13  1  0  0  0  0
 20 21  1  0  0  0  0
 20 25  1  0  0  0  0
 22 20  1  0  0  0  0
 23 24  2  0  0  0  0
 23 29  1  0  0  0  0
 25 23  1  0  0  0  0
 26 25  1  0  0  0  0
 27 28  1  0  0  0  0
 28 35  1  0  0  0  0
 29 30  1  0  0  0  0
 29 28  2  0  0  0  0
 30 32  2  0  0  0  0
 31 30  1  0  0  0  0
 32 33  1  0  0  0  0
 32 34  1  0  0  0  0
 35 34  2  0  0  0  0
M  END
>  <minimizedAffinity>
-5.18073654

$$$$

 OpenBabel03242520203D

 35 37  0  0  0  0  0  0  0  0999 V2000
   35.7700   29.7220   40.6790 C   0  0  0  0  0  0  0  0  0  0  0  0
   35.8250   29.3910   39.6240 H   0  0  0  0  0  0  0  0  0  0  0  0
   34.7110   29.6420   41.0490 H   0  0  0  0  0  0  0  0  0  0  0  0
   37.3600   26.6300   42.1510 C   0  0  0  0  0  0  0  0  0  0  0  0
   36.5780   27.4560   41.3300 C   0  0  0  0  0  0  0  0  0  0  0  0
   36.5790   28.8240   41.5380 C   0  0  0  0  0  0  0  0  0  0  0  0
   37.3600   29.2980   42.5530 N   0  0  0  0  0  0  0  0  0  0  0  0
   38.1100   28.4560   43.3310 C   0  0  0  0  0  0  0  0  0  0  0  0
   38.1020   27.1510   43.1260 N   0  0  0  0  0  0  0  0  0  0  0  0
   35.9970   26.9750   40.5610 H   0  0  0  0  0  0  0  0  0  0  0  0
   38.7040   28.9110   44.1190 H   0  0  0  0  0  0  0  0  0  0  0  0
   37.3340   25.1590   41.9150 C   0  0  0  0  0  0  0  0  0  0  0  0
   38.3560   24.7330   40.8050 C   0  0  0  0  0  0  0  0  0  0  0  0
   38.4130   24.2820   42.2000 C   0  0  0  0  0  0  0  0  0  0  0  0
   36.3050   24.7760   41.7530 H   0  0  0  0  0  0  0  0  0  0  0  0
   39.1000   25.4840   40.4960 H   0  0  0  0  0  0  0  0  0  0  0  0
   37.9220   24.0670   40.0380 H   0  0  0  0  0  0  0  0  0  0  0  0
   39.2410   24.6690   42.8620 H   0  0  0  0  0  0  0  0  0  0  0  0
   38.2120   23.2120   42.4250 H   0  0  0  0  0  0  0  0  0  0  0  0
   36.2610   31.1390   40.7550 C   0  0  0  0  0  0  0  0  0  0  0  0
   35.5610   31.7640   40.1610 H   0  0  0  0  0  0  0  0  0  0  0  0
   36.1820   31.5520   41.7930 H   0  0  0  0  0  0  0  0  0  0  0  0
   38.0600   32.5060   39.7170 C   0  0  0  0  0  0  0  0  0  0  0  0
   37.3260   33.5430   39.7090 O   0  0  0  0  0  0  0  0  0  0  0  0
   37.6340   31.2980   40.3130 N   0  0  0  0  0  0  0  0  0  0  0  0
   38.2360   30.4980   40.4670 H   0  0  0  0  0  0  0  0  0  0  0  0
   40.2820   34.1590   40.6150 F   0  0  0  0  0  0  0  0  0  0  0  0
   40.4180   33.4450   39.4780 C   0  0  0  0  0  0  0  0  0  0  0  0
   39.3600   32.6640   39.0730 C   0  0  0  0  0  0  0  0  0  0  0  0
   39.6460   31.9890   37.9040 C   0  0  0  0  0  0  0  0  0  0  0  0
   38.8980   31.3210   37.4490 H   0  0  0  0  0  0  0  0  0  0  0  0
   40.8300   32.0690   37.2090 C   0  0  0  0  0  0  0  0  0  0  0  0
   40.9930   31.5190   36.3040 H   0  0  0  0  0  0  0  0  0  0  0  0
   41.8400   32.8750   37.6850 C   0  0  0  0  0  3  0  0  0  0  0  0
   41.6210   33.5700   38.8390 C   0  0  0  0  0  3  0  0  0  0  0  0
  1 20  1  0  0  0  0
  1  3  1  0  0  0  0
  1  6  1  0  0  0  0
  2  1  1  0  0  0  0
  4  9  1  0  0  0  0
  5  6  1  0  0  0  0
  5  4  2  0  0  0  0
  6  7  2  0  0  0  0
  7  8  1  0  0  0  0
  8 11  1  0  0  0  0
  9  8  2  0  0  0  0
 10  5  1  0  0  0  0
 12  4  1  0  0  0  0
 12 14  1  0  0  0  0
 13 12  1  0  0  0  0
 13 14  1  0  0  0  0
 14 19  1  0  0  0  0
 14 18  1  0  0  0  0
 15 12  1  0  0  0  0
 16 13  1  0  0  0  0
 17 13  1  0  0  0  0
 20 22  1  0  0  0  0
 21 20  1  0  0  0  0
 23 25  1  0  0  0  0
 24 23  2  0  0  0  0
 25 26  1  0  0  0  0
 25 20  1  0  0  0  0
 28 27  1  0  0  0  0
 29 28  1  0  0  0  0
 29 23  1  0  0  0  0
 30 29  2  0  0  0  0
 31 30  1  0  0  0  0
 32 34  2  0  0  0  0
 32 30  1  0  0  0  0
 33 32  1  0  0  0  0
 34 35  1  0  0  0  0
 35 28  2  0  0  0  0
M  END
>  <minimizedAffinity>
-5.1293807

$$$$

 OpenBabel03242520203D

 35 37  0  0  0  0  0  0  0  0999 V2000
   35.8320   28.2070   37.4760 C   0  0  0  0  0  0  0  0  0  0  0  0
   35.9400   28.7090   36.4950 H   0  0  0  0  0  0  0  0  0  0  0  0
   36.5900   27.3820   37.5680 H   0  0  0  0  0  0  0  0  0  0  0  0
   37.0780   31.2210   39.3780 C   0  0  0  0  0  0  0  0  0  0  0  0
   36.8260   30.3280   38.3260 C   0  0  0  0  0  0  0  0  0  0  0  0
   36.1210   29.1640   38.5720 C   0  0  0  0  0  0  0  0  0  0  0  0
   35.7030   28.9480   39.8540 N   0  0  0  0  0  0  0  0  0  0  0  0
   35.9700   29.8470   40.8530 C   0  0  0  0  0  0  0  0  0  0  0  0
   36.6450   30.9560   40.6090 N   0  0  0  0  0  0  0  0  0  0  0  0
   37.2050   30.5970   37.3540 H   0  0  0  0  0  0  0  0  0  0  0  0
   35.6040   29.6020   41.8470 H   0  0  0  0  0  0  0  0  0  0  0  0
   37.8480   32.4640   39.0910 C   0  0  0  0  0  0  0  0  0  0  0  0
   37.0110   33.7500   39.4120 C   0  0  0  0  0  0  0  0  0  0  0  0
   38.2680   33.3920   40.0790 C   0  0  0  0  0  0  0  0  0  0  0  0
   38.2960   32.4570   38.0760 H   0  0  0  0  0  0  0  0  0  0  0  0
   36.0860   33.6130   39.9920 H   0  0  0  0  0  0  0  0  0  0  0  0
   37.0240   34.4980   38.5990 H   0  0  0  0  0  0  0  0  0  0  0  0
   38.2350   33.0610   41.1580 H   0  0  0  0  0  0  0  0  0  0  0  0
   39.1670   34.0220   39.9000 H   0  0  0  0  0  0  0  0  0  0  0  0
   34.4340   27.6670   37.5780 C   0  0  0  0  0  0  0  0  0  0  0  0
   34.2610   27.0290   36.6860 H   0  0  0  0  0  0  0  0  0  0  0  0
   34.3210   26.9640   38.4420 H   0  0  0  0  0  0  0  0  0  0  0  0
   32.4510   28.8820   36.6980 C   0  0  0  0  0  0  0  0  0  0  0  0
   32.3110   28.0510   35.7470 O   0  0  0  0  0  0  0  0  0  0  0  0
   33.4240   28.7010   37.7060 N   0  0  0  0  0  0  0  0  0  0  0  0
   33.4750   29.2560   38.5510 H   0  0  0  0  0  0  0  0  0  0  0  0
   30.8060   29.8840   38.8810 F   0  0  0  0  0  0  0  0  0  0  0  0
   30.7480   30.5020   37.6820 C   0  0  0  0  0  0  0  0  0  0  0  0
   31.5370   30.0190   36.6640 C   0  0  0  0  0  0  0  0  0  0  0  0
   31.3780   30.7530   35.5070 C   0  0  0  0  0  0  0  0  0  0  0  0
   31.9440   30.4900   34.5980 H   0  0  0  0  0  0  0  0  0  0  0  0
   30.5420   31.8350   35.3590 C   0  0  0  0  0  0  0  0  0  0  0  0
   30.4620   32.3640   34.4320 H   0  0  0  0  0  0  0  0  0  0  0  0
   29.7860   32.2540   36.4300 C   0  0  0  0  0  3  0  0  0  0  0  0
   29.8970   31.5720   37.6060 C   0  0  0  0  0  3  0  0  0  0  0  0
  1  3  1  0  0  0  0
  1 20  1  0  0  0  0
  1  6  1  0  0  0  0
  2  1  1  0  0  0  0
  4  9  1  0  0  0  0
  5  6  1  0  0  0  0
  5  4  2  0  0  0  0
  6  7  2  0  0  0  0
  7  8  1  0  0  0  0
  8 11  1  0  0  0  0
  9  8  2  0  0  0  0
 10  5  1  0  0  0  0
 12  4  1  0  0  0  0
 12 13  1  0  0  0  0
 12 14  1  0  0  0  0
 13 16  1  0  0  0  0
 13 14  1  0  0  0  0
 14 18  1  0  0  0  0
 15 12  1  0  0  0  0
 17 13  1  0  0  0  0
 19 14  1  0  0  0  0
 20 25  1  0  0  0  0
 20 22  1  0  0  0  0
 21 20  1  0  0  0  0
 23 25  1  0  0  0  0
 24 23  2  0  0  0  0
 25 26  1  0  0  0  0
 28 27  1  0  0  0  0
 29 23  1  0  0  0  0
 29 28  2  0  0  0  0
 30 29  1  0  0  0  0
 31 30  1  0  0  0  0
 32 30  2  0  0  0  0
 32 34  1  0  0  0  0
 33 32  1  0  0  0  0
 34 35  2  0  0  0  0
 35 28  1  0  0  0  0
M  END
>  <minimizedAffinity>
-5.11926985

$$$$

 OpenBabel03242520203D

 35 37  0  0  0  0  0  0  0  0999 V2000
   37.8200   33.4530   39.8980 C   0  0  0  0  0  0  0  0  0  0  0  0
   37.9200   34.3640   39.2770 H   0  0  0  0  0  0  0  0  0  0  0  0
   36.9440   33.5600   40.5950 H   0  0  0  0  0  0  0  0  0  0  0  0
   36.3530   30.2240   38.6040 C   0  0  0  0  0  0  0  0  0  0  0  0
   36.6190   31.3180   39.4400 C   0  0  0  0  0  0  0  0  0  0  0  0
   37.5270   32.2810   39.0380 C   0  0  0  0  0  0  0  0  0  0  0  0
   38.1230   32.1040   37.8210 N   0  0  0  0  0  0  0  0  0  0  0  0
   37.8340   31.0200   37.0350 C   0  0  0  0  0  0  0  0  0  0  0  0
   36.9660   30.1050   37.4280 N   0  0  0  0  0  0  0  0  0  0  0  0
   36.0940   31.3560   40.3800 H   0  0  0  0  0  0  0  0  0  0  0  0
   38.3510   30.9510   36.0810 H   0  0  0  0  0  0  0  0  0  0  0  0
   35.3790   29.1940   39.0640 C   0  0  0  0  0  0  0  0  0  0  0  0
   36.0890   28.0320   39.8400 C   0  0  0  0  0  0  0  0  0  0  0  0
   35.0810   28.9240   40.4240 C   0  0  0  0  0  0  0  0  0  0  0  0
   34.7110   28.8500   38.2460 H   0  0  0  0  0  0  0  0  0  0  0  0
   37.1340   28.1980   40.1440 H   0  0  0  0  0  0  0  0  0  0  0  0
   35.7880   27.0250   39.4990 H   0  0  0  0  0  0  0  0  0  0  0  0
   35.4080   29.6830   41.1930 H   0  0  0  0  0  0  0  0  0  0  0  0
   34.0900   28.5030   40.7010 H   0  0  0  0  0  0  0  0  0  0  0  0
   39.0970   33.2620   40.6640 C   0  0  0  0  0  0  0  0  0  0  0  0
   39.9120   33.1330   39.9210 H   0  0  0  0  0  0  0  0  0  0  0  0
   39.3860   34.1840   41.2290 H   0  0  0  0  0  0  0  0  0  0  0  0
   39.6830   30.9330   41.3080 C   0  0  0  0  0  0  0  0  0  0  0  0
   40.4630   30.8080   40.3120 O   0  0  0  0  0  0  0  0  0  0  0  0
   39.0460   32.1580   41.6050 N   0  0  0  0  0  0  0  0  0  0  0  0
   38.5350   32.3390   42.4600 H   0  0  0  0  0  0  0  0  0  0  0  0
   37.2040   29.9330   42.4610 F   0  0  0  0  0  0  0  0  0  0  0  0
   38.3450   29.2410   42.6670 C   0  0  0  0  0  0  0  0  0  0  0  0
   39.5060   29.7260   42.1090 C   0  0  0  0  0  0  0  0  0  0  0  0
   40.5840   28.9140   42.3960 C   0  0  0  0  0  0  0  0  0  0  0  0
   41.5880   29.1670   42.0190 H   0  0  0  0  0  0  0  0  0  0  0  0
   40.5350   27.7610   43.1450 C   0  0  0  0  0  0  0  0  0  0  0  0
   41.4090   27.1730   43.3340 H   0  0  0  0  0  0  0  0  0  0  0  0
   39.3310   27.3460   43.6670 C   0  0  0  0  0  3  0  0  0  0  0  0
   38.2230   28.1040   43.4190 C   0  0  0  0  0  3  0  0  0  0  0  0
  1  3  1  0  0  0  0
  1 20  1  0  0  0  0
  2  1  1  0  0  0  0
  4 12  1  0  0  0  0
  4  5  1  0  0  0  0
  5 10  1  0  0  0  0
  6  5  2  0  0  0  0
  6  1  1  0  0  0  0
  7  6  1  0  0  0  0
  8  9  1  0  0  0  0
  8  7  2  0  0  0  0
  9  4  2  0  0  0  0
 11  8  1  0  0  0  0
 12 13  1  0  0  0  0
 12 14  1  0  0  0  0
 13 16  1  0  0  0  0
 13 14  1  0  0  0  0
 14 19  1  0  0  0  0
 14 18  1  0  0  0  0
 15 12  1  0  0  0  0
 17 13  1  0  0  0  0
 20 22  1  0  0  0  0
 20 25  1  0  0  0  0
 21 20  1  0  0  0  0
 23 25  1  0  0  0  0
 23 29  1  0  0  0  0
 24 23  2  0  0  0  0
 25 26  1  0  0  0  0
 27 28  1  0  0  0  0
 28 35  1  0  0  0  0
 29 30  1  0  0  0  0
 29 28  2  0  0  0  0
 30 32  2  0  0  0  0
 31 30  1  0  0  0  0
 32 33  1  0  0  0  0
 32 34  1  0  0  0  0
 35 34  2  0  0  0  0
M  END
>  <minimizedAffinity>
-5.09873867

$$$$

 OpenBabel03242520203D

 35 37  0  0  0  0  0  0  0  0999 V2000
   35.4640   27.2110   37.3760 C   0  0  0  0  0  0  0  0  0  0  0  0
   35.6810   28.2940   37.3280 H   0  0  0  0  0  0  0  0  0  0  0  0
   35.9790   26.6800   36.5290 H   0  0  0  0  0  0  0  0  0  0  0  0
   36.8670   26.8800   40.8650 C   0  0  0  0  0  0  0  0  0  0  0  0
   36.3540   27.4500   39.6910 C   0  0  0  0  0  0  0  0  0  0  0  0
   36.0170   26.6350   38.6260 C   0  0  0  0  0  0  0  0  0  0  0  0
   36.2050   25.2920   38.7860 N   0  0  0  0  0  0  0  0  0  0  0  0
   36.7090   24.7750   39.9510 C   0  0  0  0  0  0  0  0  0  0  0  0
   37.0290   25.5620   40.9630 N   0  0  0  0  0  0  0  0  0  0  0  0
   36.2490   28.5220   39.6720 H   0  0  0  0  0  0  0  0  0  0  0  0
   36.8300   23.6960   40.0000 H   0  0  0  0  0  0  0  0  0  0  0  0
   37.2330   27.7790   41.9950 C   0  0  0  0  0  0  0  0  0  0  0  0
   36.4900   27.3810   43.3170 C   0  0  0  0  0  0  0  0  0  0  0  0
   37.9470   27.3660   43.1500 C   0  0  0  0  0  0  0  0  0  0  0  0
   37.1360   28.8520   41.7290 H   0  0  0  0  0  0  0  0  0  0  0  0
   35.9830   26.4030   43.3300 H   0  0  0  0  0  0  0  0  0  0  0  0
   36.0130   28.2340   43.8290 H   0  0  0  0  0  0  0  0  0  0  0  0
   38.4800   26.3710   43.1080 H   0  0  0  0  0  0  0  0  0  0  0  0
   38.5590   28.1030   43.7150 H   0  0  0  0  0  0  0  0  0  0  0  0
   33.9750   27.0240   37.3010 C   0  0  0  0  0  0  0  0  0  0  0  0
   33.7660   26.3870   36.4160 H   0  0  0  0  0  0  0  0  0  0  0  0
   33.5860   26.4270   38.1660 H   0  0  0  0  0  0  0  0  0  0  0  0
   32.3270   28.5270   36.2040 C   0  0  0  0  0  0  0  0  0  0  0  0
   31.9850   27.6220   35.3800 O   0  0  0  0  0  0  0  0  0  0  0  0
   33.2390   28.2740   37.2520 N   0  0  0  0  0  0  0  0  0  0  0  0
   33.4280   28.9200   38.0090 H   0  0  0  0  0  0  0  0  0  0  0  0
   30.8020   30.1020   38.1200 F   0  0  0  0  0  0  0  0  0  0  0  0
   30.9780   30.5850   36.8720 C   0  0  0  0  0  0  0  0  0  0  0  0
   31.7070   29.8300   35.9820 C   0  0  0  0  0  0  0  0  0  0  0  0
   31.8080   30.4520   34.7540 C   0  0  0  0  0  0  0  0  0  0  0  0
   32.3630   29.9730   33.9320 H   0  0  0  0  0  0  0  0  0  0  0  0
   31.2600   31.6710   34.4320 C   0  0  0  0  0  0  0  0  0  0  0  0
   31.3740   32.1020   33.4580 H   0  0  0  0  0  0  0  0  0  0  0  0
   30.5440   32.3620   35.3830 C   0  0  0  0  0  3  0  0  0  0  0  0
   30.4070   31.8030   36.6200 C   0  0  0  0  0  3  0  0  0  0  0  0
  1  6  1  0  0  0  0
  2  1  1  0  0  0  0
  3  1  1  0  0  0  0
  4  9  1  0  0  0  0
  4 12  1  0  0  0  0
  5  4  2  0  0  0  0
  6  7  2  0  0  0  0
  6  5  1  0  0  0  0
  7  8  1  0  0  0  0
  8 11  1  0  0  0  0
  8  9  2  0  0  0  0
 10  5  1  0  0  0  0
 12 14  1  0  0  0  0
 12 13  1  0  0  0  0
 13 16  1  0  0  0  0
 13 17  1  0  0  0  0
 14 13  1  0  0  0  0
 14 19  1  0  0  0  0
 15 12  1  0  0  0  0
 18 14  1  0  0  0  0
 20  1  1  0  0  0  0
 20 22  1  0  0  0  0
 21 20  1  0  0  0  0
 23 25  1  0  0  0  0
 24 23  2  0  0  0  0
 25 20  1  0  0  0  0
 25 26  1  0  0  0  0
 28 27  1  0  0  0  0
 29 23  1  0  0  0  0
 29 28  2  0  0  0  0
 30 29  1  0  0  0  0
 31 30  1  0  0  0  0
 32 30  2  0  0  0  0
 32 34  1  0  0  0  0
 33 32  1  0  0  0  0
 34 35  2  0  0  0  0
 35 28  1  0  0  0  0
M  END
>  <minimizedAffinity>
-5.0035677

$$$$
