
 OpenBabel03252507173D

 29 31  0  0  0  0  0  0  0  0999 V2000
   39.7120   31.9410   40.8910 C   0  0  0  0  0  0  0  0  0  0  0  0
   38.7480   31.0060   40.4570 C   0  0  0  0  0  0  0  0  0  0  0  0
   37.5720   31.4960   39.9190 C   0  0  0  0  0  0  0  0  0  0  0  0
   37.3740   32.8350   39.8210 N   0  0  0  0  0  0  0  0  0  0  0  0
   38.3350   33.7140   40.2550 C   0  0  0  0  0  0  0  0  0  0  0  0
   39.4640   33.2530   40.7710 N   0  0  0  0  0  0  0  0  0  0  0  0
   40.6570   31.6360   41.3230 H   0  0  0  0  0  0  0  0  0  0  0  0
   38.0170   34.7410   40.1040 H   0  0  0  0  0  0  0  0  0  0  0  0
   36.5700   30.5460   39.4690 C   0  0  0  0  0  0  0  0  0  0  0  0
   35.5660   30.1360   40.3090 C   0  0  0  0  0  0  0  0  0  0  0  0
   34.6360   29.2360   39.8490 C   0  0  0  0  0  0  0  0  0  0  0  0
   34.6600   28.7090   38.5550 C   0  0  0  0  0  0  0  0  0  0  0  0
   35.6910   29.1580   37.7630 C   0  0  0  0  0  0  0  0  0  0  0  0
   36.6050   30.0430   38.2150 N   0  0  0  0  0  0  0  0  0  0  0  0
   35.4690   30.4930   41.3320 H   0  0  0  0  0  0  0  0  0  0  0  0
   33.8330   28.8950   40.4890 H   0  0  0  0  0  0  0  0  0  0  0  0
   33.9630   28.0090   38.1520 H   0  0  0  0  0  0  0  0  0  0  0  0
   35.8610   28.8500   36.7270 H   0  0  0  0  0  0  0  0  0  0  0  0
   39.0020   29.6080   40.5800 C   0  0  0  0  0  0  0  0  0  0  0  0
   39.8820   29.1100   39.8050 O   0  0  0  0  0  0  0  0  0  0  0  0
   38.7200   30.0830   43.3740 F   0  0  0  0  0  0  0  0  0  0  0  0
   38.1970   28.9420   42.8690 C   0  0  0  0  0  0  0  0  0  0  0  0
   38.3340   28.7150   41.5210 C   0  0  0  0  0  0  0  0  0  0  0  0
   37.8110   27.5590   40.9720 C   0  0  0  0  0  0  0  0  0  0  0  0
   37.9000   27.3420   39.9030 H   0  0  0  0  0  0  0  0  0  0  0  0
   37.1480   26.6060   41.7190 C   0  0  0  0  0  0  0  0  0  0  0  0
   36.7330   25.6970   41.3140 H   0  0  0  0  0  0  0  0  0  0  0  0
   37.0420   26.8890   43.0670 C   0  0  0  0  0  3  0  0  0  0  0  0
   37.5420   28.0280   43.6800 C   0  0  0  0  0  3  0  0  0  0  0  0
  1  7  1  0  0  0  0
  2 19  1  0  0  0  0
  2  1  2  0  0  0  0
  3  2  1  0  0  0  0
  4  3  2  0  0  0  0
  4  5  1  0  0  0  0
  5  6  2  0  0  0  0
  6  1  1  0  0  0  0
  8  5  1  0  0  0  0
  9  3  1  0  0  0  0
  9 10  1  0  0  0  0
 10 15  1  0  0  0  0
 11 10  2  0  0  0  0
 11 16  1  0  0  0  0
 12 11  1  0  0  0  0
 13 14  1  0  0  0  0
 13 12  2  0  0  0  0
 14  9  2  0  0  0  0
 17 12  1  0  0  0  0
 18 13  1  0  0  0  0
 19 23  1  0  0  0  0
 20 19  2  0  0  0  0
 22 21  1  0  0  0  0
 22 29  1  0  0  0  0
 23 22  2  0  0  0  0
 24 23  1  0  0  0  0
 24 26  2  0  0  0  0
 25 24  1  0  0  0  0
 26 28  1  0  0  0  0
 27 26  1  0  0  0  0
 28 29  2  0  0  0  0
M  END
>  <minimizedAffinity>
-5.76086378

$$$$

 OpenBabel03252507173D

 29 31  0  0  0  0  0  0  0  0999 V2000
   35.4570   27.1950   37.9400 C   0  0  0  0  0  0  0  0  0  0  0  0
   35.9130   27.7780   39.1420 C   0  0  0  0  0  0  0  0  0  0  0  0
   36.7800   27.0410   39.9270 C   0  0  0  0  0  0  0  0  0  0  0  0
   37.1670   25.8010   39.5350 N   0  0  0  0  0  0  0  0  0  0  0  0
   36.7010   25.2660   38.3590 C   0  0  0  0  0  0  0  0  0  0  0  0
   35.8700   25.9650   37.6020 N   0  0  0  0  0  0  0  0  0  0  0  0
   34.7770   27.7080   37.2730 H   0  0  0  0  0  0  0  0  0  0  0  0
   37.1070   24.2710   38.1990 H   0  0  0  0  0  0  0  0  0  0  0  0
   37.2580   27.6280   41.1670 C   0  0  0  0  0  0  0  0  0  0  0  0
   36.5280   27.5140   42.3220 C   0  0  0  0  0  0  0  0  0  0  0  0
   37.0110   28.0830   43.4760 C   0  0  0  0  0  0  0  0  0  0  0  0
   38.2200   28.7800   43.5340 C   0  0  0  0  0  0  0  0  0  0  0  0
   38.9030   28.8590   42.3440 C   0  0  0  0  0  0  0  0  0  0  0  0
   38.4300   28.3000   41.2100 N   0  0  0  0  0  0  0  0  0  0  0  0
   35.5760   26.9900   42.3710 H   0  0  0  0  0  0  0  0  0  0  0  0
   36.4560   28.0080   44.4030 H   0  0  0  0  0  0  0  0  0  0  0  0
   38.6360   29.2380   44.4030 H   0  0  0  0  0  0  0  0  0  0  0  0
   39.8640   29.3660   42.2090 H   0  0  0  0  0  0  0  0  0  0  0  0
   35.4790   29.0860   39.5120 C   0  0  0  0  0  0  0  0  0  0  0  0
   34.3020   29.1900   39.9870 O   0  0  0  0  0  0  0  0  0  0  0  0
   36.0400   30.9030   41.6310 F   0  0  0  0  0  0  0  0  0  0  0  0
   36.5510   31.1780   40.4080 C   0  0  0  0  0  0  0  0  0  0  0  0
   36.2780   30.3000   39.3880 C   0  0  0  0  0  0  0  0  0  0  0  0
   36.7850   30.5500   38.1260 C   0  0  0  0  0  0  0  0  0  0  0  0
   36.5900   29.8750   37.2870 H   0  0  0  0  0  0  0  0  0  0  0  0
   37.5610   31.6530   37.8330 C   0  0  0  0  0  0  0  0  0  0  0  0
   37.9660   31.8700   36.8570 H   0  0  0  0  0  0  0  0  0  0  0  0
   37.8000   32.4990   38.8980 C   0  0  0  0  0  3  0  0  0  0  0  0
   37.3240   32.3070   40.1860 C   0  0  0  0  0  3  0  0  0  0  0  0
  1  2  1  0  0  0  0
  2 19  1  0  0  0  0
  2  3  2  0  0  0  0
  3  9  1  0  0  0  0
  4  3  1  0  0  0  0
  5  4  2  0  0  0  0
  6  1  2  0  0  0  0
  6  5  1  0  0  0  0
  7  1  1  0  0  0  0
  8  5  1  0  0  0  0
  9 14  2  0  0  0  0
  9 10  1  0  0  0  0
 10 15  1  0  0  0  0
 10 11  2  0  0  0  0
 11 12  1  0  0  0  0
 11 16  1  0  0  0  0
 12 17  1  0  0  0  0
 13 12  2  0  0  0  0
 14 13  1  0  0  0  0
 18 13  1  0  0  0  0
 19 20  2  0  0  0  0
 22 21  1  0  0  0  0
 23 19  1  0  0  0  0
 23 22  2  0  0  0  0
 24 23  1  0  0  0  0
 25 24  1  0  0  0  0
 26 24  2  0  0  0  0
 26 28  1  0  0  0  0
 27 26  1  0  0  0  0
 28 29  2  0  0  0  0
 29 22  1  0  0  0  0
M  END
>  <minimizedAffinity>
-5.6303978

$$$$

 OpenBabel03252507173D

 29 31  0  0  0  0  0  0  0  0999 V2000
   36.3420   28.6000   38.8960 C   0  0  0  0  0  0  0  0  0  0  0  0
   36.9140   29.7470   39.4880 C   0  0  0  0  0  0  0  0  0  0  0  0
   37.4360   30.7130   38.6470 C   0  0  0  0  0  0  0  0  0  0  0  0
   37.3880   30.5430   37.3020 N   0  0  0  0  0  0  0  0  0  0  0  0
   36.8250   29.4130   36.7630 C   0  0  0  0  0  0  0  0  0  0  0  0
   36.3220   28.4830   37.5610 N   0  0  0  0  0  0  0  0  0  0  0  0
   35.9130   27.8010   39.4870 H   0  0  0  0  0  0  0  0  0  0  0  0
   36.8700   29.4370   35.6780 H   0  0  0  0  0  0  0  0  0  0  0  0
   38.0280   31.8980   39.2420 C   0  0  0  0  0  0  0  0  0  0  0  0
   37.3060   33.0590   39.3560 C   0  0  0  0  0  0  0  0  0  0  0  0
   37.8990   34.1610   39.9230 C   0  0  0  0  0  0  0  0  0  0  0  0
   39.2130   34.1610   40.3960 C   0  0  0  0  0  0  0  0  0  0  0  0
   39.8820   32.9680   40.2540 C   0  0  0  0  0  0  0  0  0  0  0  0
   39.3010   31.8860   39.6960 N   0  0  0  0  0  0  0  0  0  0  0  0
   36.2770   33.1520   39.0140 H   0  0  0  0  0  0  0  0  0  0  0  0
   37.3530   35.0910   40.0260 H   0  0  0  0  0  0  0  0  0  0  0  0
   39.7160   34.9880   40.8440 H   0  0  0  0  0  0  0  0  0  0  0  0
   40.9160   32.7920   40.5690 H   0  0  0  0  0  0  0  0  0  0  0  0
   36.9400   29.8810   40.9080 C   0  0  0  0  0  0  0  0  0  0  0  0
   36.1810   30.7690   41.4180 O   0  0  0  0  0  0  0  0  0  0  0  0
   35.9780   27.7970   42.5930 F   0  0  0  0  0  0  0  0  0  0  0  0
   37.3020   28.0770   42.6240 C   0  0  0  0  0  0  0  0  0  0  0  0
   37.7630   29.0830   41.8100 C   0  0  0  0  0  0  0  0  0  0  0  0
   39.1100   29.3950   41.8160 C   0  0  0  0  0  0  0  0  0  0  0  0
   39.5160   30.1900   41.1820 H   0  0  0  0  0  0  0  0  0  0  0  0
   40.0290   28.7390   42.6090 C   0  0  0  0  0  0  0  0  0  0  0  0
   41.0840   28.9650   42.6300 H   0  0  0  0  0  0  0  0  0  0  0  0
   39.5070   27.7390   43.4050 C   0  0  0  0  0  3  0  0  0  0  0  0
   38.1690   27.3760   43.4460 C   0  0  0  0  0  3  0  0  0  0  0  0
  1  7  1  0  0  0  0
  1  2  1  0  0  0  0
  2 19  1  0  0  0  0
  3  9  1  0  0  0  0
  3  2  2  0  0  0  0
  4  3  1  0  0  0  0
  5  4  2  0  0  0  0
  5  6  1  0  0  0  0
  6  1  2  0  0  0  0
  8  5  1  0  0  0  0
  9 10  2  0  0  0  0
  9 14  1  0  0  0  0
 10 11  1  0  0  0  0
 11 16  1  0  0  0  0
 11 12  2  0  0  0  0
 12 17  1  0  0  0  0
 13 12  1  0  0  0  0
 13 18  1  0  0  0  0
 14 13  2  0  0  0  0
 15 10  1  0  0  0  0
 19 20  2  0  0  0  0
 19 23  1  0  0  0  0
 21 22  1  0  0  0  0
 22 29  1  0  0  0  0
 23 24  1  0  0  0  0
 23 22  2  0  0  0  0
 24 26  2  0  0  0  0
 25 24  1  0  0  0  0
 26 27  1  0  0  0  0
 26 28  1  0  0  0  0
 28 29  2  0  0  0  0
M  END
>  <minimizedAffinity>
-5.53530359

$$$$

 OpenBabel03252507173D

 29 31  0  0  0  0  0  0  0  0999 V2000
   39.0590   31.9550   40.0800 C   0  0  0  0  0  0  0  0  0  0  0  0
   38.3210   30.8680   40.5970 C   0  0  0  0  0  0  0  0  0  0  0  0
   39.0090   29.9060   41.3130 C   0  0  0  0  0  0  0  0  0  0  0  0
   40.3470   30.0240   41.5010 N   0  0  0  0  0  0  0  0  0  0  0  0
   41.0310   31.0950   40.9820 C   0  0  0  0  0  0  0  0  0  0  0  0
   40.3800   32.0210   40.2950 N   0  0  0  0  0  0  0  0  0  0  0  0
   38.5930   32.7480   39.5090 H   0  0  0  0  0  0  0  0  0  0  0  0
   42.0880   31.0340   41.2240 H   0  0  0  0  0  0  0  0  0  0  0  0
   38.2620   28.7820   41.8510 C   0  0  0  0  0  0  0  0  0  0  0  0
   37.6710   28.8610   43.0860 C   0  0  0  0  0  0  0  0  0  0  0  0
   36.9740   27.7780   43.5630 C   0  0  0  0  0  0  0  0  0  0  0  0
   36.8340   26.5860   42.8480 C   0  0  0  0  0  0  0  0  0  0  0  0
   37.4500   26.5700   41.6180 C   0  0  0  0  0  0  0  0  0  0  0  0
   38.1350   27.6340   41.1490 N   0  0  0  0  0  0  0  0  0  0  0  0
   37.7270   29.7480   43.7130 H   0  0  0  0  0  0  0  0  0  0  0  0
   36.4960   27.8110   44.5340 H   0  0  0  0  0  0  0  0  0  0  0  0
   36.3040   25.7190   43.1740 H   0  0  0  0  0  0  0  0  0  0  0  0
   37.4420   25.7200   40.9280 H   0  0  0  0  0  0  0  0  0  0  0  0
   36.9140   30.7880   40.3740 C   0  0  0  0  0  0  0  0  0  0  0  0
   36.1660   31.4500   41.1640 O   0  0  0  0  0  0  0  0  0  0  0  0
   34.9100   28.8060   40.7740 F   0  0  0  0  0  0  0  0  0  0  0  0
   35.3090   29.0560   39.5050 C   0  0  0  0  0  0  0  0  0  0  0  0
   36.2770   30.0130   39.3150 C   0  0  0  0  0  0  0  0  0  0  0  0
   36.7090   30.2940   38.0320 C   0  0  0  0  0  0  0  0  0  0  0  0
   37.4770   31.0490   37.8390 H   0  0  0  0  0  0  0  0  0  0  0  0
   36.2110   29.6530   36.9150 C   0  0  0  0  0  0  0  0  0  0  0  0
   36.5320   29.8560   35.9050 H   0  0  0  0  0  0  0  0  0  0  0  0
   35.2420   28.7030   37.1690 C   0  0  0  0  0  3  0  0  0  0  0  0
   34.7650   28.3740   38.4290 C   0  0  0  0  0  3  0  0  0  0  0  0
  1  6  2  0  0  0  0
  1  2  1  0  0  0  0
  2  3  2  0  0  0  0
  3  4  1  0  0  0  0
  3  9  1  0  0  0  0
  5  8  1  0  0  0  0
  5  4  2  0  0  0  0
  6  5  1  0  0  0  0
  7  1  1  0  0  0  0
  9 10  1  0  0  0  0
 10 11  2  0  0  0  0
 10 15  1  0  0  0  0
 11 16  1  0  0  0  0
 12 17  1  0  0  0  0
 12 11  1  0  0  0  0
 13 12  2  0  0  0  0
 14 13  1  0  0  0  0
 14  9  2  0  0  0  0
 18 13  1  0  0  0  0
 19  2  1  0  0  0  0
 19 20  2  0  0  0  0
 22 21  1  0  0  0  0
 23 22  1  0  0  0  0
 23 19  1  0  0  0  0
 24 23  2  0  0  0  0
 25 24  1  0  0  0  0
 26 28  2  0  0  0  0
 26 24  1  0  0  0  0
 27 26  1  0  0  0  0
 28 29  1  0  0  0  0
 29 22  2  0  0  0  0
M  END
>  <minimizedAffinity>
-5.32644558

$$$$

 OpenBabel03252507173D

 29 31  0  0  0  0  0  0  0  0999 V2000
   36.3730   29.9470   37.8720 C   0  0  0  0  0  0  0  0  0  0  0  0
   36.7730   29.7470   39.2110 C   0  0  0  0  0  0  0  0  0  0  0  0
   36.9330   28.4450   39.6490 C   0  0  0  0  0  0  0  0  0  0  0  0
   36.7080   27.4100   38.8020 N   0  0  0  0  0  0  0  0  0  0  0  0
   36.3200   27.6430   37.5050 C   0  0  0  0  0  0  0  0  0  0  0  0
   36.1640   28.8860   37.0790 N   0  0  0  0  0  0  0  0  0  0  0  0
   36.2270   30.9350   37.4560 H   0  0  0  0  0  0  0  0  0  0  0  0
   36.1840   26.7090   36.9690 H   0  0  0  0  0  0  0  0  0  0  0  0
   37.3440   28.2250   41.0250 C   0  0  0  0  0  0  0  0  0  0  0  0
   36.4410   27.8010   41.9650 C   0  0  0  0  0  0  0  0  0  0  0  0
   36.8650   27.6040   43.2570 C   0  0  0  0  0  0  0  0  0  0  0  0
   38.1840   27.8160   43.6670 C   0  0  0  0  0  0  0  0  0  0  0  0
   39.0390   28.2400   42.6780 C   0  0  0  0  0  0  0  0  0  0  0  0
   38.6230   28.4340   41.4090 N   0  0  0  0  0  0  0  0  0  0  0  0
   35.3940   27.6100   41.7370 H   0  0  0  0  0  0  0  0  0  0  0  0
   36.1740   27.2680   44.0210 H   0  0  0  0  0  0  0  0  0  0  0  0
   38.5610   27.6770   44.6550 H   0  0  0  0  0  0  0  0  0  0  0  0
   40.1030   28.4540   42.8230 H   0  0  0  0  0  0  0  0  0  0  0  0
   36.9980   30.8680   40.0640 C   0  0  0  0  0  0  0  0  0  0  0  0
   36.1770   31.0370   41.0240 O   0  0  0  0  0  0  0  0  0  0  0  0
   39.6230   30.2370   39.1570 F   0  0  0  0  0  0  0  0  0  0  0  0
   39.3570   31.5240   39.4820 C   0  0  0  0  0  0  0  0  0  0  0  0
   38.0900   31.8250   39.9200 C   0  0  0  0  0  0  0  0  0  0  0  0
   37.7840   33.1300   40.2610 C   0  0  0  0  0  0  0  0  0  0  0  0
   36.7870   33.4100   40.6140 H   0  0  0  0  0  0  0  0  0  0  0  0
   38.6990   34.1600   40.1840 C   0  0  0  0  0  0  0  0  0  0  0  0
   38.4830   35.1850   40.4450 H   0  0  0  0  0  0  0  0  0  0  0  0
   39.9540   33.7960   39.7380 C   0  0  0  0  0  3  0  0  0  0  0  0
   40.3260   32.5090   39.3800 C   0  0  0  0  0  3  0  0  0  0  0  0
  1  2  1  0  0  0  0
  2  3  2  0  0  0  0
  2 19  1  0  0  0  0
  3  9  1  0  0  0  0
  4  3  1  0  0  0  0
  5  4  2  0  0  0  0
  6  5  1  0  0  0  0
  6  1  2  0  0  0  0
  7  1  1  0  0  0  0
  8  5  1  0  0  0  0
  9 14  2  0  0  0  0
  9 10  1  0  0  0  0
 10 11  2  0  0  0  0
 11 12  1  0  0  0  0
 11 16  1  0  0  0  0
 12 17  1  0  0  0  0
 13 18  1  0  0  0  0
 13 12  2  0  0  0  0
 14 13  1  0  0  0  0
 15 10  1  0  0  0  0
 19 20  2  0  0  0  0
 21 22  1  0  0  0  0
 22 23  1  0  0  0  0
 23 19  1  0  0  0  0
 23 24  2  0  0  0  0
 24 25  1  0  0  0  0
 26 24  1  0  0  0  0
 26 27  1  0  0  0  0
 28 26  2  0  0  0  0
 29 22  2  0  0  0  0
 29 28  1  0  0  0  0
M  END
>  <minimizedAffinity>
-5.27099371

$$$$

 OpenBabel03252507173D

 29 31  0  0  0  0  0  0  0  0999 V2000
   35.8780   27.5210   37.9030 C   0  0  0  0  0  0  0  0  0  0  0  0
   36.3440   28.5690   38.7250 C   0  0  0  0  0  0  0  0  0  0  0  0
   37.2120   29.4890   38.1670 C   0  0  0  0  0  0  0  0  0  0  0  0
   37.5890   29.3690   36.8690 N   0  0  0  0  0  0  0  0  0  0  0  0
   37.1150   28.3350   36.0990 C   0  0  0  0  0  0  0  0  0  0  0  0
   36.2840   27.4500   36.6270 N   0  0  0  0  0  0  0  0  0  0  0  0
   35.1980   26.7620   38.2670 H   0  0  0  0  0  0  0  0  0  0  0  0
   37.5150   28.3880   35.0910 H   0  0  0  0  0  0  0  0  0  0  0  0
   37.7000   30.5730   39.0020 C   0  0  0  0  0  0  0  0  0  0  0  0
   36.9580   31.7140   39.1710 C   0  0  0  0  0  0  0  0  0  0  0  0
   37.4510   32.7190   39.9680 C   0  0  0  0  0  0  0  0  0  0  0  0
   38.6830   32.6390   40.6220 C   0  0  0  0  0  0  0  0  0  0  0  0
   39.3780   31.4700   40.4110 C   0  0  0  0  0  0  0  0  0  0  0  0
   38.8940   30.4830   39.6290 N   0  0  0  0  0  0  0  0  0  0  0  0
   35.9880   31.8650   38.7010 H   0  0  0  0  0  0  0  0  0  0  0  0
   36.8870   33.6310   40.1200 H   0  0  0  0  0  0  0  0  0  0  0  0
   39.1080   33.3890   41.2490 H   0  0  0  0  0  0  0  0  0  0  0  0
   40.3560   31.2410   40.8450 H   0  0  0  0  0  0  0  0  0  0  0  0
   35.9190   28.6540   40.0850 C   0  0  0  0  0  0  0  0  0  0  0  0
   34.7770   29.1760   40.3000 O   0  0  0  0  0  0  0  0  0  0  0  0
   36.8240   30.3000   42.2250 F   0  0  0  0  0  0  0  0  0  0  0  0
   37.1260   28.9810   42.2680 C   0  0  0  0  0  0  0  0  0  0  0  0
   36.6890   28.1900   41.2340 C   0  0  0  0  0  0  0  0  0  0  0  0
   36.9800   26.8380   41.2460 C   0  0  0  0  0  0  0  0  0  0  0  0
   36.6490   26.1750   40.4410 H   0  0  0  0  0  0  0  0  0  0  0  0
   37.6980   26.2340   42.2580 C   0  0  0  0  0  0  0  0  0  0  0  0
   37.9370   25.1820   42.2880 H   0  0  0  0  0  0  0  0  0  0  0  0
   38.1110   27.0800   43.2680 C   0  0  0  0  0  3  0  0  0  0  0  0
   37.8530   28.4410   43.3170 C   0  0  0  0  0  3  0  0  0  0  0  0
  1  7  1  0  0  0  0
  1  2  1  0  0  0  0
  2 19  1  0  0  0  0
  3  2  2  0  0  0  0
  3  9  1  0  0  0  0
  4  3  1  0  0  0  0
  5  6  1  0  0  0  0
  5  4  2  0  0  0  0
  6  1  2  0  0  0  0
  8  5  1  0  0  0  0
  9 10  2  0  0  0  0
  9 14  1  0  0  0  0
 10 11  1  0  0  0  0
 11 16  1  0  0  0  0
 11 12  2  0  0  0  0
 12 17  1  0  0  0  0
 13 12  1  0  0  0  0
 13 18  1  0  0  0  0
 14 13  2  0  0  0  0
 15 10  1  0  0  0  0
 19 20  2  0  0  0  0
 19 23  1  0  0  0  0
 21 22  1  0  0  0  0
 22 29  1  0  0  0  0
 23 24  1  0  0  0  0
 23 22  2  0  0  0  0
 24 26  2  0  0  0  0
 25 24  1  0  0  0  0
 26 27  1  0  0  0  0
 26 28  1  0  0  0  0
 28 29  2  0  0  0  0
M  END
>  <minimizedAffinity>
-5.25213623

$$$$

 OpenBabel03252507173D

 29 31  0  0  0  0  0  0  0  0999 V2000
   35.8170   26.8320   38.3550 C   0  0  0  0  0  0  0  0  0  0  0  0
   36.5640   27.9770   38.7070 C   0  0  0  0  0  0  0  0  0  0  0  0
   36.1440   29.1980   38.2140 C   0  0  0  0  0  0  0  0  0  0  0  0
   35.0460   29.2700   37.4200 N   0  0  0  0  0  0  0  0  0  0  0  0
   34.3440   28.1350   37.0980 C   0  0  0  0  0  0  0  0  0  0  0  0
   34.7400   26.9610   37.5660 N   0  0  0  0  0  0  0  0  0  0  0  0
   36.0820   25.8420   38.7010 H   0  0  0  0  0  0  0  0  0  0  0  0
   33.4990   28.3710   36.4580 H   0  0  0  0  0  0  0  0  0  0  0  0
   36.9040   30.3840   38.5680 C   0  0  0  0  0  0  0  0  0  0  0  0
   36.4920   31.2000   39.5910 C   0  0  0  0  0  0  0  0  0  0  0  0
   37.2350   32.3130   39.8980 C   0  0  0  0  0  0  0  0  0  0  0  0
   38.4030   32.6620   39.2150 C   0  0  0  0  0  0  0  0  0  0  0  0
   38.7620   31.8050   38.2020 C   0  0  0  0  0  0  0  0  0  0  0  0
   38.0320   30.7110   37.9000 N   0  0  0  0  0  0  0  0  0  0  0  0
   35.5950   31.0060   40.1780 H   0  0  0  0  0  0  0  0  0  0  0  0
   36.9340   32.9750   40.7000 H   0  0  0  0  0  0  0  0  0  0  0  0
   39.0130   33.5140   39.4150 H   0  0  0  0  0  0  0  0  0  0  0  0
   39.6450   31.9270   37.5660 H   0  0  0  0  0  0  0  0  0  0  0  0
   37.7110   27.8500   39.5460 C   0  0  0  0  0  0  0  0  0  0  0  0
   38.7960   27.4800   38.9880 O   0  0  0  0  0  0  0  0  0  0  0  0
   39.3480   29.7950   40.8310 F   0  0  0  0  0  0  0  0  0  0  0  0
   38.5210   29.0510   41.6030 C   0  0  0  0  0  0  0  0  0  0  0  0
   37.7340   28.1130   40.9810 C   0  0  0  0  0  0  0  0  0  0  0  0
   36.8780   27.3360   41.7390 C   0  0  0  0  0  0  0  0  0  0  0  0
   36.2350   26.5790   41.2810 H   0  0  0  0  0  0  0  0  0  0  0  0
   36.7730   27.4550   43.1100 C   0  0  0  0  0  0  0  0  0  0  0  0
   36.1140   26.8600   43.7230 H   0  0  0  0  0  0  0  0  0  0  0  0
   37.5890   28.4120   43.6790 C   0  0  0  0  0  3  0  0  0  0  0  0
   38.4670   29.2240   42.9770 C   0  0  0  0  0  3  0  0  0  0  0  0
  1  7  1  0  0  0  0
  1  2  1  0  0  0  0
  2 19  1  0  0  0  0
  3  9  1  0  0  0  0
  3  2  2  0  0  0  0
  4  3  1  0  0  0  0
  5  4  2  0  0  0  0
  5  6  1  0  0  0  0
  6  1  2  0  0  0  0
  8  5  1  0  0  0  0
  9 10  1  0  0  0  0
 10 11  2  0  0  0  0
 10 15  1  0  0  0  0
 11 16  1  0  0  0  0
 12 17  1  0  0  0  0
 12 11  1  0  0  0  0
 13 12  2  0  0  0  0
 14 13  1  0  0  0  0
 14  9  2  0  0  0  0
 18 13  1  0  0  0  0
 19 23  1  0  0  0  0
 20 19  2  0  0  0  0
 21 22  1  0  0  0  0
 22 29  1  0  0  0  0
 23 22  2  0  0  0  0
 23 24  1  0  0  0  0
 24 26  2  0  0  0  0
 25 24  1  0  0  0  0
 26 28  1  0  0  0  0
 26 27  1  0  0  0  0
 29 28  2  0  0  0  0
M  END
>  <minimizedAffinity>
-5.03201866

$$$$

 OpenBabel03252507173D

 29 31  0  0  0  0  0  0  0  0999 V2000
   39.9540   29.9670   38.5150 C   0  0  0  0  0  0  0  0  0  0  0  0
   39.0610   29.6190   39.5510 C   0  0  0  0  0  0  0  0  0  0  0  0
   39.4410   28.6100   40.4170 C   0  0  0  0  0  0  0  0  0  0  0  0
   40.6370   27.9900   40.2580 N   0  0  0  0  0  0  0  0  0  0  0  0
   41.4800   28.3560   39.2380 C   0  0  0  0  0  0  0  0  0  0  0  0
   41.1240   29.3210   38.4040 N   0  0  0  0  0  0  0  0  0  0  0  0
   39.7290   30.7460   37.7980 H   0  0  0  0  0  0  0  0  0  0  0  0
   42.3890   27.7620   39.2550 H   0  0  0  0  0  0  0  0  0  0  0  0
   38.5300   28.2410   41.4870 C   0  0  0  0  0  0  0  0  0  0  0  0
   37.7680   27.1040   41.3970 C   0  0  0  0  0  0  0  0  0  0  0  0
   36.9180   26.7860   42.4280 C   0  0  0  0  0  0  0  0  0  0  0  0
   36.7880   27.5690   43.5780 C   0  0  0  0  0  0  0  0  0  0  0  0
   37.5780   28.6940   43.6070 C   0  0  0  0  0  0  0  0  0  0  0  0
   38.4130   29.0070   42.5940 N   0  0  0  0  0  0  0  0  0  0  0  0
   37.8040   26.4340   40.5390 H   0  0  0  0  0  0  0  0  0  0  0  0
   36.3050   25.8950   42.3840 H   0  0  0  0  0  0  0  0  0  0  0  0
   36.1440   27.3650   44.4030 H   0  0  0  0  0  0  0  0  0  0  0  0
   37.6020   29.4180   44.4290 H   0  0  0  0  0  0  0  0  0  0  0  0
   37.8140   30.3000   39.6780 C   0  0  0  0  0  0  0  0  0  0  0  0
   37.8260   31.4160   40.2930 O   0  0  0  0  0  0  0  0  0  0  0  0
   37.2110   29.8960   36.9250 F   0  0  0  0  0  0  0  0  0  0  0  0
   36.2450   29.6200   37.8320 C   0  0  0  0  0  0  0  0  0  0  0  0
   36.5390   29.8170   39.1600 C   0  0  0  0  0  0  0  0  0  0  0  0
   35.5750   29.5460   40.1140 C   0  0  0  0  0  0  0  0  0  0  0  0
   35.7700   29.6890   41.1810 H   0  0  0  0  0  0  0  0  0  0  0  0
   34.3150   29.0810   39.7970 C   0  0  0  0  0  0  0  0  0  0  0  0
   33.5470   28.8640   40.5230 H   0  0  0  0  0  0  0  0  0  0  0  0
   34.0780   28.9040   38.4480 C   0  0  0  0  0  3  0  0  0  0  0  0
   34.9990   29.1560   37.4420 C   0  0  0  0  0  3  0  0  0  0  0  0
  1  2  1  0  0  0  0
  2 19  1  0  0  0  0
  2  3  2  0  0  0  0
  3  9  1  0  0  0  0
  4  3  1  0  0  0  0
  5  8  1  0  0  0  0
  5  4  2  0  0  0  0
  6  1  2  0  0  0  0
  6  5  1  0  0  0  0
  7  1  1  0  0  0  0
  9 14  1  0  0  0  0
 10  9  2  0  0  0  0
 10 11  1  0  0  0  0
 11 12  2  0  0  0  0
 12 13  1  0  0  0  0
 12 17  1  0  0  0  0
 13 18  1  0  0  0  0
 14 13  2  0  0  0  0
 15 10  1  0  0  0  0
 16 11  1  0  0  0  0
 19 20  2  0  0  0  0
 21 22  1  0  0  0  0
 22 23  1  0  0  0  0
 23 19  1  0  0  0  0
 23 24  2  0  0  0  0
 24 25  1  0  0  0  0
 26 24  1  0  0  0  0
 26 27  1  0  0  0  0
 28 26  2  0  0  0  0
 29 22  2  0  0  0  0
 29 28  1  0  0  0  0
M  END
>  <minimizedAffinity>
-5.00461483

$$$$

 OpenBabel03252507173D

 29 31  0  0  0  0  0  0  0  0999 V2000
   39.7650   32.1690   38.8000 C   0  0  0  0  0  0  0  0  0  0  0  0
   39.2120   31.0740   39.4990 C   0  0  0  0  0  0  0  0  0  0  0  0
   38.7190   31.3040   40.7700 C   0  0  0  0  0  0  0  0  0  0  0  0
   38.7750   32.5480   41.3070 N   0  0  0  0  0  0  0  0  0  0  0  0
   39.3210   33.5890   40.5970 C   0  0  0  0  0  0  0  0  0  0  0  0
   39.7950   33.3780   39.3790 N   0  0  0  0  0  0  0  0  0  0  0  0
   40.1710   32.0700   37.8020 H   0  0  0  0  0  0  0  0  0  0  0  0
   39.2860   34.5100   41.1720 H   0  0  0  0  0  0  0  0  0  0  0  0
   38.1480   30.1860   41.5010 C   0  0  0  0  0  0  0  0  0  0  0  0
   38.7950   29.6560   42.5880 C   0  0  0  0  0  0  0  0  0  0  0  0
   38.2260   28.5990   43.2540 C   0  0  0  0  0  0  0  0  0  0  0  0
   37.0070   28.0280   42.8790 C   0  0  0  0  0  0  0  0  0  0  0  0
   36.4080   28.6050   41.7820 C   0  0  0  0  0  0  0  0  0  0  0  0
   36.9680   29.6430   41.1270 N   0  0  0  0  0  0  0  0  0  0  0  0
   39.7480   30.0350   42.9510 H   0  0  0  0  0  0  0  0  0  0  0  0
   38.7140   28.1600   44.1150 H   0  0  0  0  0  0  0  0  0  0  0  0
   36.5240   27.2090   43.3630 H   0  0  0  0  0  0  0  0  0  0  0  0
   35.4540   28.2840   41.3530 H   0  0  0  0  0  0  0  0  0  0  0  0
   39.1760   29.7840   38.8910 C   0  0  0  0  0  0  0  0  0  0  0  0
   39.9650   28.9020   39.3630 O   0  0  0  0  0  0  0  0  0  0  0  0
   36.6760   31.0000   38.2750 F   0  0  0  0  0  0  0  0  0  0  0  0
   37.1020   29.9890   37.4810 C   0  0  0  0  0  0  0  0  0  0  0  0
   38.3080   29.4040   37.7820 C   0  0  0  0  0  0  0  0  0  0  0  0
   38.7740   28.3690   36.9920 C   0  0  0  0  0  0  0  0  0  0  0  0
   39.7300   27.8780   37.1980 H   0  0  0  0  0  0  0  0  0  0  0  0
   38.0800   27.8850   35.9020 C   0  0  0  0  0  0  0  0  0  0  0  0
   38.4230   27.0790   35.2720 H   0  0  0  0  0  0  0  0  0  0  0  0
   36.8750   28.5120   35.6500 C   0  0  0  0  0  3  0  0  0  0  0  0
   36.3520   29.5540   36.4000 C   0  0  0  0  0  3  0  0  0  0  0  0
  1  6  2  0  0  0  0
  1  2  1  0  0  0  0
  2  3  2  0  0  0  0
  3  4  1  0  0  0  0
  3  9  1  0  0  0  0
  5  8  1  0  0  0  0
  5  4  2  0  0  0  0
  6  5  1  0  0  0  0
  7  1  1  0  0  0  0
  9 10  1  0  0  0  0
 10 15  1  0  0  0  0
 10 11  2  0  0  0  0
 11 16  1  0  0  0  0
 12 11  1  0  0  0  0
 12 17  1  0  0  0  0
 13 12  2  0  0  0  0
 14  9  2  0  0  0  0
 14 13  1  0  0  0  0
 18 13  1  0  0  0  0
 19 20  2  0  0  0  0
 19  2  1  0  0  0  0
 22 23  1  0  0  0  0
 22 21  1  0  0  0  0
 23 19  1  0  0  0  0
 24 25  1  0  0  0  0
 24 23  2  0  0  0  0
 26 24  1  0  0  0  0
 27 26  1  0  0  0  0
 28 26  2  0  0  0  0
 28 29  1  0  0  0  0
 29 22  2  0  0  0  0
M  END
>  <minimizedAffinity>
-4.97481251

$$$$
