
 OpenBabel03252508493D

 28 30  0  0  0  0  0  0  0  0999 V2000
   46.0160   34.1880   41.0410 C   0  0  0  0  0  0  0  0  0  0  0  0
   46.5760   34.8180   42.1460 C   0  0  0  0  0  0  0  0  0  0  0  0
   47.9210   35.2080   42.0270 C   0  0  0  0  0  0  0  0  0  0  0  0
   48.5790   34.9440   40.8540 N   0  0  0  0  0  0  0  0  0  0  0  0
   47.9890   34.3370   39.8310 C   0  0  0  0  0  0  0  0  0  0  0  0
   46.7040   33.9530   39.9120 N   0  0  0  0  0  0  0  0  0  0  0  0
   48.3700   35.7030   42.8880 H   0  0  0  0  0  0  0  0  0  0  0  0
   48.5170   34.1340   38.9080 H   0  0  0  0  0  0  0  0  0  0  0  0
   45.7850   35.0460   43.3350 C   0  0  0  0  0  0  0  0  0  0  0  0
   45.0620   36.2110   43.5490 C   0  0  0  0  0  0  0  0  0  0  0  0
   44.4750   36.0030   44.7780 C   0  0  0  0  0  0  0  0  0  0  0  0
   44.8160   34.7880   45.2820 N   0  0  0  0  0  0  0  0  0  0  0  0
   45.6080   34.2370   44.3880 N   0  0  0  0  0  0  0  0  0  0  0  0
   44.9280   37.1200   42.9560 H   0  0  0  0  0  0  0  0  0  0  0  0
   43.8090   36.6490   45.3640 H   0  0  0  0  0  0  0  0  0  0  0  0
   44.5890   34.2800   46.1480 H   0  0  0  0  0  0  0  0  0  0  0  0
   44.6970   33.7900   41.1210 O   0  0  0  0  0  0  0  0  0  0  0  0
   43.6120   34.3930   40.5520 C   0  0  0  0  0  0  0  0  0  0  0  0
   43.3110   35.6400   40.5770 O   0  0  0  0  0  0  0  0  0  0  0  0
   44.1570   32.8890   38.2040 F   0  0  0  0  0  0  0  0  0  0  0  0
   42.8640   32.9150   38.6330 C   0  0  0  0  0  0  0  0  0  0  0  0
   42.5730   33.6470   39.7880 C   0  0  0  0  0  0  0  0  0  0  0  0
   41.2420   33.6000   40.1250 C   0  0  0  0  0  0  0  0  0  0  0  0
   40.9170   34.1360   41.0030 H   0  0  0  0  0  0  0  0  0  0  0  0
   40.2850   32.9120   39.4170 C   0  0  0  0  0  0  0  0  0  0  0  0
   39.2540   32.9210   39.7440 H   0  0  0  0  0  0  0  0  0  0  0  0
   40.6570   32.2230   38.3030 C   0  0  0  0  0  3  0  0  0  0  0  0
   41.9560   32.2070   37.8830 C   0  0  0  0  0  3  0  0  0  0  0  0
  1 17  1  0  0  0  0
  1  2  1  0  0  0  0
  2  9  1  0  0  0  0
  3  2  2  0  0  0  0
  3  7  1  0  0  0  0
  4  3  1  0  0  0  0
  5  6  1  0  0  0  0
  5  4  2  0  0  0  0
  6  1  2  0  0  0  0
  8  5  1  0  0  0  0
  9 10  1  0  0  0  0
  9 13  2  0  0  0  0
 10 11  2  0  0  0  0
 11 12  1  0  0  0  0
 11 15  1  0  0  0  0
 12 16  1  0  0  0  0
 13 12  1  0  0  0  0
 14 10  1  0  0  0  0
 18 19  2  0  0  0  0
 18 17  1  0  0  0  0
 20 21  1  0  0  0  0
 21 22  1  0  0  0  0
 22 23  2  0  0  0  0
 22 18  1  0  0  0  0
 23 24  1  0  0  0  0
 25 26  1  0  0  0  0
 25 23  1  0  0  0  0
 27 25  2  0  0  0  0
 28 27  1  0  0  0  0
 28 21  2  0  0  0  0
M  END
>  <minimizedAffinity>
-5.31056881

>  <minimizedRMSD>
0.390071124

$$$$
