
 OpenBabel03252503263D

 25 26  0  0  0  0  0  0  0  0999 V2000
   45.2540   34.7540   42.9860 C   0  0  0  0  0  0  0  0  0  0  0  0
   46.2480   35.2180   42.1060 C   0  0  0  0  0  0  0  0  0  0  0  0
   47.5600   34.7760   42.4000 C   0  0  0  0  0  0  0  0  0  0  0  0
   47.7540   33.9650   43.4740 N   0  0  0  0  0  0  0  0  0  0  0  0
   46.7360   33.5590   44.2780 C   0  0  0  0  0  0  0  0  0  0  0  0
   45.4840   33.9550   44.0340 N   0  0  0  0  0  0  0  0  0  0  0  0
   43.2890   34.4400   41.7060 C   0  0  0  0  0  0  0  0  0  0  0  0
   44.0320   33.6040   41.0840 O   0  0  0  0  0  0  0  0  0  0  0  0
   43.8940   35.1330   42.7710 N   0  0  0  0  0  0  0  0  0  0  0  0
   45.9900   35.8560   41.2880 H   0  0  0  0  0  0  0  0  0  0  0  0
   46.9490   32.9140   45.1190 H   0  0  0  0  0  0  0  0  0  0  0  0
   43.3540   35.8340   43.3030 H   0  0  0  0  0  0  0  0  0  0  0  0
   41.2760   32.3610   41.4960 F   0  0  0  0  0  0  0  0  0  0  0  0
   40.9400   33.6190   41.1400 C   0  0  0  0  0  0  0  0  0  0  0  0
   41.9160   34.5820   41.2510 C   0  0  0  0  0  0  0  0  0  0  0  0
   41.4680   35.8350   40.8610 C   0  0  0  0  0  0  0  0  0  0  0  0
   42.1390   36.7070   40.8950 H   0  0  0  0  0  0  0  0  0  0  0  0
   40.1920   36.0880   40.4150 C   0  0  0  0  0  0  0  0  0  0  0  0
   39.9030   37.0860   40.1240 H   0  0  0  0  0  0  0  0  0  0  0  0
   39.2740   35.0660   40.3330 C   0  0  0  0  0  0  0  0  0  0  0  0
   39.6630   33.7990   40.7080 C   0  0  0  0  0  0  0  0  0  0  0  0
   48.5890   35.2580   41.4820 C   0  0  0  0  0  0  0  0  0  0  0  0
   49.7400   34.4730   41.6540 F   0  0  0  0  0  0  0  0  0  0  0  0
   48.9280   36.5270   41.8770 F   0  0  0  0  0  0  0  0  0  0  0  0
   48.2290   35.1470   40.1640 F   0  0  0  0  0  0  0  0  0  0  0  0
  1  6  1  0  0  0  0
  2  3  1  0  0  0  0
  2  1  2  0  0  0  0
  3  4  2  0  0  0  0
  4  5  1  0  0  0  0
  5 11  1  0  0  0  0
  6  5  2  0  0  0  0
  7  9  1  0  0  0  0
  8  7  2  0  0  0  0
  9  1  1  0  0  0  0
  9 12  1  0  0  0  0
 10  2  1  0  0  0  0
 14 15  1  0  0  0  0
 14 13  1  0  0  0  0
 15  7  1  0  0  0  0
 16 17  1  0  0  0  0
 16 15  2  0  0  0  0
 18 16  1  0  0  0  0
 19 18  1  0  0  0  0
 20 18  2  0  0  0  0
 20 21  1  0  0  0  0
 21 14  2  0  0  0  0
 22 23  1  0  0  0  0
 22 24  1  0  0  0  0
 22  3  1  0  0  0  0
 25 22  1  0  0  0  0
M  END
>  <minimizedAffinity>
-6.55575371

>  <minimizedRMSD>
1.12429857

$$$$
