
 OpenBabel03242512033D

 20 21  0  0  0  0  0  0  0  0999 V2000
   46.4720   32.6350   45.6570 C   0  0  0  0  0  0  0  0  0  0  0  0
   47.4720   32.0570   45.1430 O   0  0  0  0  0  0  0  0  0  0  0  0
   45.0040   34.5990   45.6160 C   0  0  0  0  0  0  0  0  0  0  0  0
   45.9660   33.7960   44.9740 C   0  0  0  0  0  0  0  0  0  0  0  0
   46.3940   34.1500   43.7040 C   0  0  0  0  0  0  0  0  0  0  0  0
   45.8530   35.2630   43.1500 N   0  0  0  0  0  0  0  0  0  0  0  0
   44.9310   36.0310   43.7680 C   0  0  0  0  0  0  0  0  0  0  0  0
   44.5120   35.6950   44.9950 N   0  0  0  0  0  0  0  0  0  0  0  0
   44.6420   34.3580   46.6090 H   0  0  0  0  0  0  0  0  0  0  0  0
   47.1330   33.5460   43.1930 H   0  0  0  0  0  0  0  0  0  0  0  0
   44.5190   36.9190   43.2900 H   0  0  0  0  0  0  0  0  0  0  0  0
   45.2210   30.0930   45.6880 F   0  0  0  0  0  0  0  0  0  0  0  0
   45.4370   30.7260   46.8780 C   0  0  0  0  0  0  0  0  0  0  0  0
   46.0440   31.9620   46.8790 C   0  0  0  0  0  0  0  0  0  0  0  0
   46.2250   32.5330   48.1220 C   0  0  0  0  0  0  0  0  0  0  0  0
   46.7020   33.5200   48.2250 H   0  0  0  0  0  0  0  0  0  0  0  0
   45.8110   31.8780   49.2660 C   0  0  0  0  0  0  0  0  0  0  0  0
   45.9420   32.3070   50.2520 H   0  0  0  0  0  0  0  0  0  0  0  0
   45.2030   30.6360   49.2290 C   0  0  0  0  0  0  0  0  0  0  0  0
   45.0130   30.0470   48.0010 C   0  0  0  0  0  0  0  0  0  0  0  0
  1 14  1  0  0  0  0
  2  1  2  0  0  0  0
  3  9  1  0  0  0  0
  4  3  2  0  0  0  0
  4  1  1  0  0  0  0
  5  4  1  0  0  0  0
  6  5  2  0  0  0  0
  6  7  1  0  0  0  0
  7  8  2  0  0  0  0
  8  3  1  0  0  0  0
 10  5  1  0  0  0  0
 11  7  1  0  0  0  0
 12 13  1  0  0  0  0
 13 14  2  0  0  0  0
 13 20  1  0  0  0  0
 14 15  1  0  0  0  0
 15 16  1  0  0  0  0
 15 17  2  0  0  0  0
 17 18  1  0  0  0  0
 19 17  1  0  0  0  0
 20 19  2  0  0  0  0
M  END
>  <minimizedAffinity>
-4.85746622

>  <minimizedRMSD>
6.6141901

$$$$
