
 OpenBabel03242516593D

 32 34  0  0  0  0  0  0  0  0999 V2000
   46.5540   34.7480   42.0130 C   0  0  0  0  0  0  0  0  0  0  0  0
   47.8720   35.1850   41.9500 C   0  0  0  0  0  0  0  0  0  0  0  0
   48.5760   34.9640   40.7690 C   0  0  0  0  0  0  0  0  0  0  0  0
   47.9600   34.3260   39.7060 C   0  0  0  0  0  0  0  0  0  0  0  0
   46.6730   33.8900   39.7450 C   0  0  0  0  0  0  0  0  0  0  0  0
   45.9830   34.1240   40.9480 C   0  0  0  0  0  0  0  0  0  0  0  0
   48.3330   35.6820   42.7930 H   0  0  0  0  0  0  0  0  0  0  0  0
   49.5950   35.3220   40.7690 H   0  0  0  0  0  0  0  0  0  0  0  0
   48.5380   34.1740   38.8100 H   0  0  0  0  0  0  0  0  0  0  0  0
   46.1700   33.3890   38.9280 H   0  0  0  0  0  0  0  0  0  0  0  0
   44.4960   36.2310   44.7990 C   0  0  0  0  0  0  0  0  0  0  0  0
   45.1150   36.1190   43.5350 C   0  0  0  0  0  0  0  0  0  0  0  0
   45.8540   34.9960   43.2690 C   0  0  0  0  0  0  0  0  0  0  0  0
   45.9460   34.0430   44.2530 N   0  0  0  0  0  0  0  0  0  0  0  0
   45.3550   34.1500   45.4580 C   0  0  0  0  0  0  0  0  0  0  0  0
   44.6140   35.2650   45.7400 N   0  0  0  0  0  0  0  0  0  0  0  0
   43.9100   37.1130   45.0220 H   0  0  0  0  0  0  0  0  0  0  0  0
   45.0310   36.8730   42.7830 H   0  0  0  0  0  0  0  0  0  0  0  0
   45.5380   33.3030   46.1060 H   0  0  0  0  0  0  0  0  0  0  0  0
   43.3610   34.2000   40.7800 C   0  0  0  0  0  0  0  0  0  0  0  0
   43.1600   35.2730   40.1540 O   0  0  0  0  0  0  0  0  0  0  0  0
   44.6460   33.7160   41.1140 N   0  0  0  0  0  0  0  0  0  0  0  0
   44.8400   32.8260   41.6140 H   0  0  0  0  0  0  0  0  0  0  0  0
   40.5880   35.1340   40.8690 F   0  0  0  0  0  0  0  0  0  0  0  0
   40.8680   33.8620   41.2150 C   0  0  0  0  0  0  0  0  0  0  0  0
   42.1640   33.4600   41.1520 C   0  0  0  0  0  0  0  0  0  0  0  0
   42.2920   32.1220   41.5300 C   0  0  0  0  0  0  0  0  0  0  0  0
   43.2750   31.6230   41.5400 H   0  0  0  0  0  0  0  0  0  0  0  0
   41.2640   31.3050   41.9150 C   0  0  0  0  0  0  0  0  0  0  0  0
   41.4300   30.2760   42.1960 H   0  0  0  0  0  0  0  0  0  0  0  0
   39.9840   31.8000   41.9490 C   0  0  0  0  0  0  0  0  0  0  0  0
   39.7840   33.1120   41.5890 C   0  0  0  0  0  0  0  0  0  0  0  0
  1 13  1  0  0  0  0
  2  1  1  0  0  0  0
  2  7  1  0  0  0  0
  3  8  1  0  0  0  0
  3  2  2  0  0  0  0
  4  5  2  0  0  0  0
  4  3  1  0  0  0  0
  5  6  1  0  0  0  0
  6 22  1  0  0  0  0
  6  1  2  0  0  0  0
  9  4  1  0  0  0  0
 10  5  1  0  0  0  0
 11 17  1  0  0  0  0
 11 16  1  0  0  0  0
 12 11  2  0  0  0  0
 13 12  1  0  0  0  0
 13 14  2  0  0  0  0
 14 15  1  0  0  0  0
 15 16  2  0  0  0  0
 15 19  1  0  0  0  0
 18 12  1  0  0  0  0
 20 22  1  0  0  0  0
 20 26  1  0  0  0  0
 21 20  2  0  0  0  0
 22 23  1  0  0  0  0
 24 25  1  0  0  0  0
 25 32  1  0  0  0  0
 26 25  2  0  0  0  0
 26 27  1  0  0  0  0
 27 28  1  0  0  0  0
 27 29  2  0  0  0  0
 29 31  1  0  0  0  0
 29 30  1  0  0  0  0
 32 31  2  0  0  0  0
M  END
>  <minimizedAffinity>
-6.61719894

>  <minimizedRMSD>
0.566756785

$$$$
