
 OpenBabel03242516173D

 43 46  0  0  1  0  0  0  0  0999 V2000
   37.4530   27.8690   42.3740 C   0  0  0  0  0  0  0  0  0  0  0  0
   38.3550   27.7420   43.5880 C   0  0  0  0  0  0  0  0  0  0  0  0
   36.8960   27.6560   43.6750 C   0  0  0  0  0  0  0  0  0  0  0  0
   38.9880   26.8330   43.7200 H   0  0  0  0  0  0  0  0  0  0  0  0
   38.9380   28.6490   43.8480 H   0  0  0  0  0  0  0  0  0  0  0  0
   36.5190   26.6140   43.9080 H   0  0  0  0  0  0  0  0  0  0  0  0
   36.5660   28.3440   44.4570 H   0  0  0  0  0  0  0  0  0  0  0  0
   37.5660   26.6990   41.4430 C   0  0  0  0  0  0  0  0  0  0  0  0
   36.7600   26.8140   40.1620 C   0  0  0  0  0  0  0  0  0  0  0  0
   37.1280   25.5880   39.3340 C   0  0  0  0  0  0  0  0  0  0  0  0
   36.4680   24.5010   39.9150 O   0  0  0  0  0  0  0  0  0  0  0  0
   37.2270   24.2760   41.0910 C   0  0  0  0  0  0  0  0  0  0  0  0
   36.9860   25.4190   42.0710 C   0  0  0  0  0  0  0  0  0  0  0  0
   38.6000   26.4710   41.1430 H   0  0  0  0  0  0  0  0  0  0  0  0
   37.0580   27.6760   39.5530 H   0  0  0  0  0  0  0  0  0  0  0  0
   35.6800   26.7430   40.3880 H   0  0  0  0  0  0  0  0  0  0  0  0
   36.6890   25.7150   38.3060 H   0  0  0  0  0  0  0  0  0  0  0  0
   38.2220   25.4410   39.2570 H   0  0  0  0  0  0  0  0  0  0  0  0
   38.2860   24.3170   40.7950 H   0  0  0  0  0  0  0  0  0  0  0  0
   37.0210   23.3050   41.5450 H   0  0  0  0  0  0  0  0  0  0  0  0
   35.9300   25.5830   42.2930 H   0  0  0  0  0  0  0  0  0  0  0  0
   37.6190   25.1860   42.9490 H   0  0  0  0  0  0  0  0  0  0  0  0
   36.1730   29.8660   41.5710 C   0  0  0  0  0  0  0  0  0  0  0  0
   37.3990   29.2090   41.7410 C   0  0  0  0  0  0  0  0  0  0  0  0
   38.5320   29.8760   41.2810 C   0  0  0  0  0  0  0  0  0  0  0  0
   38.4160   31.0990   40.7030 N   0  0  0  0  0  0  0  0  0  0  0  0
   37.2050   31.6680   40.5730 C   0  0  0  0  0  0  0  0  0  0  0  0
   36.1040   31.0840   40.9890 N   0  0  0  0  0  0  0  0  0  0  0  0
   37.0480   32.9550   39.9650 N   0  0  0  0  0  0  0  0  0  0  0  0
   35.2520   29.4060   41.9050 H   0  0  0  0  0  0  0  0  0  0  0  0
   36.1800   33.2700   39.5270 H   0  0  0  0  0  0  0  0  0  0  0  0
   37.8930   33.5950   39.9830 H   0  0  0  0  0  0  0  0  0  0  0  0
   39.8480   29.2980   41.3540 C   0  0  2  0  0  3  0  0  0  0  0  0
   40.3920   28.5050   40.4860 O   0  0  0  0  0  1  0  0  0  0  0  0
   41.4330   31.4880   41.5950 F   0  0  0  0  0  0  0  0  0  0  0  0
   41.8490   30.3760   42.2950 C   0  0  0  0  0  0  0  0  0  0  0  0
   41.0290   29.2510   42.2060 C   0  0  0  0  0  0  0  0  0  0  0  0
   41.5110   28.1840   42.9340 C   0  0  0  0  0  0  0  0  0  0  0  0
   40.8810   27.2800   42.8820 H   0  0  0  0  0  0  0  0  0  0  0  0
   42.6940   28.2590   43.6650 C   0  0  0  0  0  0  0  0  0  0  0  0
   42.9950   27.3560   44.2100 H   0  0  0  0  0  0  0  0  0  0  0  0
   43.4160   29.4110   43.6800 C   0  0  0  0  0  3  0  0  0  0  0  0
   43.0290   30.5250   42.9970 C   0  0  0  0  0  3  0  0  0  0  0  0
  1  2  1  0  0  0  0
  1  3  1  0  0  0  0
  2  3  1  0  0  0  0
  2  4  1  0  0  0  0
  2  5  1  0  0  0  0
  3  6  1  0  0  0  0
  3  7  1  0  0  0  0
  8 13  1  0  0  0  0
  8  1  1  0  0  0  0
  9 16  1  0  0  0  0
  9  8  1  0  0  0  0
 10 11  1  0  0  0  0
 10  9  1  0  0  0  0
 11 12  1  0  0  0  0
 12 20  1  0  0  0  0
 12 13  1  0  0  0  0
 13 21  1  0  0  0  0
 13 22  1  0  0  0  0
 14  8  1  0  0  0  0
 15  9  1  0  0  0  0
 17 10  1  0  0  0  0
 18 10  1  0  0  0  0
 19 12  1  0  0  0  0
 23 24  1  0  0  0  0
 23 30  1  0  0  0  0
 24  1  1  0  0  0  0
 25 33  1  0  0  0  0
 25 24  2  0  0  0  0
 26 25  1  0  0  0  0
 27 26  2  0  0  0  0
 27 28  1  0  0  0  0
 28 23  2  0  0  0  0
 29 32  1  0  0  0  0
 29 27  1  0  0  0  0
 31 29  1  0  0  0  0
 33 34  1  1  0  0  0
 33 37  1  0  0  0  0
 35 36  1  0  0  0  0
 36 43  1  0  0  0  0
 37 36  2  0  0  0  0
 37 38  1  0  0  0  0
 38 40  2  0  0  0  0
 39 38  1  0  0  0  0
 40 42  1  0  0  0  0
 40 41  1  0  0  0  0
 43 42  2  0  0  0  0
M  END
>  <minimizedAffinity>
-5.84252739

$$$$

 OpenBabel03242516173D

 43 46  0  0  1  0  0  0  0  0999 V2000
   36.6120   29.1850   37.3440 C   0  0  0  0  0  0  0  0  0  0  0  0
   35.1840   28.6750   37.2770 C   0  0  0  0  0  0  0  0  0  0  0  0
   35.8570   29.2920   36.1330 C   0  0  0  0  0  0  0  0  0  0  0  0
   34.9830   27.5780   37.2960 H   0  0  0  0  0  0  0  0  0  0  0  0
   34.4560   29.2040   37.9260 H   0  0  0  0  0  0  0  0  0  0  0  0
   36.1050   28.5590   35.3060 H   0  0  0  0  0  0  0  0  0  0  0  0
   35.2010   30.0730   35.7400 H   0  0  0  0  0  0  0  0  0  0  0  0
   37.6180   28.0790   37.4650 C   0  0  0  0  0  0  0  0  0  0  0  0
   38.9640   28.4910   38.0330 C   0  0  0  0  0  0  0  0  0  0  0  0
   39.7600   27.1990   38.1790 C   0  0  0  0  0  0  0  0  0  0  0  0
   40.1640   26.8310   36.8910 O   0  0  0  0  0  0  0  0  0  0  0  0
   38.9600   26.3500   36.3190 C   0  0  0  0  0  0  0  0  0  0  0  0
   38.0100   27.5200   36.0860 C   0  0  0  0  0  0  0  0  0  0  0  0
   37.2680   27.2290   38.0710 H   0  0  0  0  0  0  0  0  0  0  0  0
   38.8860   28.8990   39.0480 H   0  0  0  0  0  0  0  0  0  0  0  0
   39.5020   29.1250   37.3050 H   0  0  0  0  0  0  0  0  0  0  0  0
   40.6990   27.4290   38.7540 H   0  0  0  0  0  0  0  0  0  0  0  0
   39.1890   26.4050   38.6970 H   0  0  0  0  0  0  0  0  0  0  0  0
   38.4950   25.6940   37.0710 H   0  0  0  0  0  0  0  0  0  0  0  0
   39.1290   25.7780   35.4040 H   0  0  0  0  0  0  0  0  0  0  0  0
   38.4500   28.3220   35.4920 H   0  0  0  0  0  0  0  0  0  0  0  0
   37.0940   27.0670   35.6590 H   0  0  0  0  0  0  0  0  0  0  0  0
   37.3490   31.5590   37.6500 C   0  0  0  0  0  0  0  0  0  0  0  0
   36.8380   30.3750   38.2000 C   0  0  0  0  0  0  0  0  0  0  0  0
   36.5730   30.3870   39.5670 C   0  0  0  0  0  0  0  0  0  0  0  0
   36.8090   31.5060   40.2970 N   0  0  0  0  0  0  0  0  0  0  0  0
   37.3010   32.6070   39.7010 C   0  0  0  0  0  0  0  0  0  0  0  0
   37.5700   32.6500   38.4160 N   0  0  0  0  0  0  0  0  0  0  0  0
   37.5650   33.8020   40.4440 N   0  0  0  0  0  0  0  0  0  0  0  0
   37.5780   31.6200   36.5940 H   0  0  0  0  0  0  0  0  0  0  0  0
   38.2390   34.5120   40.1500 H   0  0  0  0  0  0  0  0  0  0  0  0
   37.0180   33.9330   41.3430 H   0  0  0  0  0  0  0  0  0  0  0  0
   36.0870   29.2270   40.2660 C   0  0  2  0  0  3  0  0  0  0  0  0
   34.8500   28.9520   40.5380 O   0  0  0  0  0  1  0  0  0  0  0  0
   37.0620   29.3290   42.7970 F   0  0  0  0  0  0  0  0  0  0  0  0
   37.0750   28.0830   42.2070 C   0  0  0  0  0  0  0  0  0  0  0  0
   36.5500   28.0090   40.9170 C   0  0  0  0  0  0  0  0  0  0  0  0
   36.5970   26.7320   40.3980 C   0  0  0  0  0  0  0  0  0  0  0  0
   36.1870   26.6440   39.3780 H   0  0  0  0  0  0  0  0  0  0  0  0
   37.1220   25.6590   41.1140 C   0  0  0  0  0  0  0  0  0  0  0  0
   37.1170   24.6830   40.6140 H   0  0  0  0  0  0  0  0  0  0  0  0
   37.6090   25.8490   42.3690 C   0  0  0  0  0  3  0  0  0  0  0  0
   37.6090   27.0690   42.9770 C   0  0  0  0  0  3  0  0  0  0  0  0
  1  8  1  0  0  0  0
  1 24  1  0  0  0  0
  2  4  1  0  0  0  0
  2  1  1  0  0  0  0
  2  5  1  0  0  0  0
  3  2  1  0  0  0  0
  3  1  1  0  0  0  0
  6  3  1  0  0  0  0
  7  3  1  0  0  0  0
  8  9  1  0  0  0  0
  8 14  1  0  0  0  0
  9 10  1  0  0  0  0
  9 15  1  0  0  0  0
 10 18  1  0  0  0  0
 10 17  1  0  0  0  0
 11 10  1  0  0  0  0
 12 11  1  0  0  0  0
 12 19  1  0  0  0  0
 13 12  1  0  0  0  0
 13  8  1  0  0  0  0
 16  9  1  0  0  0  0
 20 12  1  0  0  0  0
 21 13  1  0  0  0  0
 22 13  1  0  0  0  0
 23 24  2  0  0  0  0
 23 28  1  0  0  0  0
 24 25  1  0  0  0  0
 25 33  1  0  0  0  0
 25 26  2  0  0  0  0
 27 26  1  0  0  0  0
 27 29  1  0  0  0  0
 28 27  2  0  0  0  0
 29 32  1  0  0  0  0
 30 23  1  0  0  0  0
 31 29  1  0  0  0  0
 33 34  1  1  0  0  0
 33 37  1  0  0  0  0
 36 35  1  0  0  0  0
 36 43  1  0  0  0  0
 37 36  2  0  0  0  0
 38 37  1  0  0  0  0
 38 40  2  0  0  0  0
 39 38  1  0  0  0  0
 40 42  1  0  0  0  0
 41 40  1  0  0  0  0
 42 43  2  0  0  0  0
M  END
>  <minimizedAffinity>
-5.82364941

$$$$

 OpenBabel03242516173D

 43 46  0  0  1  0  0  0  0  0999 V2000
   38.0100   29.9520   38.3340 C   0  0  0  0  0  0  0  0  0  0  0  0
   38.9650   28.8220   38.6740 C   0  0  0  0  0  0  0  0  0  0  0  0
   39.0300   29.5580   37.4100 C   0  0  0  0  0  0  0  0  0  0  0  0
   39.7440   28.9680   39.4590 H   0  0  0  0  0  0  0  0  0  0  0  0
   38.5010   27.8210   38.7840 H   0  0  0  0  0  0  0  0  0  0  0  0
   39.9370   30.2320   37.3270 H   0  0  0  0  0  0  0  0  0  0  0  0
   39.0460   28.8280   36.5970 H   0  0  0  0  0  0  0  0  0  0  0  0
   38.2380   31.1750   39.1720 C   0  0  0  0  0  0  0  0  0  0  0  0
   37.3680   32.3680   38.8200 C   0  0  0  0  0  0  0  0  0  0  0  0
   37.6820   33.4290   39.8700 C   0  0  0  0  0  0  0  0  0  0  0  0
   38.9330   33.9590   39.5400 O   0  0  0  0  0  0  0  0  0  0  0  0
   39.8170   32.9210   39.9250 C   0  0  0  0  0  0  0  0  0  0  0  0
   39.6540   31.7420   38.9710 C   0  0  0  0  0  0  0  0  0  0  0  0
   38.1100   31.0010   40.2510 H   0  0  0  0  0  0  0  0  0  0  0  0
   36.2980   32.1570   38.9320 H   0  0  0  0  0  0  0  0  0  0  0  0
   37.6710   32.7810   37.8410 H   0  0  0  0  0  0  0  0  0  0  0  0
   36.9400   34.2660   39.7560 H   0  0  0  0  0  0  0  0  0  0  0  0
   37.6390   33.0300   40.9020 H   0  0  0  0  0  0  0  0  0  0  0  0
   39.4910   32.5830   40.9210 H   0  0  0  0  0  0  0  0  0  0  0  0
   40.8560   33.2520   39.9840 H   0  0  0  0  0  0  0  0  0  0  0  0
   39.7800   32.0150   37.9220 H   0  0  0  0  0  0  0  0  0  0  0  0
   40.3560   30.9710   39.3420 H   0  0  0  0  0  0  0  0  0  0  0  0
   36.0880   29.4640   36.8060 C   0  0  0  0  0  0  0  0  0  0  0  0
   36.5970   29.5640   38.1080 C   0  0  0  0  0  0  0  0  0  0  0  0
   35.7100   29.2920   39.1470 C   0  0  0  0  0  0  0  0  0  0  0  0
   34.4260   28.9490   38.8740 N   0  0  0  0  0  0  0  0  0  0  0  0
   34.0060   28.8730   37.5990 C   0  0  0  0  0  0  0  0  0  0  0  0
   34.8000   29.1190   36.5810 N   0  0  0  0  0  0  0  0  0  0  0  0
   32.6570   28.5180   37.2780 N   0  0  0  0  0  0  0  0  0  0  0  0
   36.7210   29.6620   35.9510 H   0  0  0  0  0  0  0  0  0  0  0  0
   32.1970   28.7800   36.4040 H   0  0  0  0  0  0  0  0  0  0  0  0
   32.1290   27.9530   38.0040 H   0  0  0  0  0  0  0  0  0  0  0  0
   36.0910   29.4000   40.5310 C   0  0  2  0  0  3  0  0  0  0  0  0
   35.7860   30.3630   41.3420 O   0  0  0  0  0  1  0  0  0  0  0  0
   36.3440   26.6990   40.4370 F   0  0  0  0  0  0  0  0  0  0  0  0
   36.9380   27.3120   41.5190 C   0  0  0  0  0  0  0  0  0  0  0  0
   36.8420   28.7030   41.5660 C   0  0  0  0  0  0  0  0  0  0  0  0
   37.4610   29.2400   42.6740 C   0  0  0  0  0  0  0  0  0  0  0  0
   37.4020   30.3400   42.7370 H   0  0  0  0  0  0  0  0  0  0  0  0
   38.1010   28.4470   43.6240 C   0  0  0  0  0  0  0  0  0  0  0  0
   38.5630   28.9680   44.4720 H   0  0  0  0  0  0  0  0  0  0  0  0
   38.1310   27.0960   43.4760 C   0  0  0  0  0  3  0  0  0  0  0  0
   37.5530   26.4630   42.4170 C   0  0  0  0  0  3  0  0  0  0  0  0
  1  2  1  0  0  0  0
  1  8  1  0  0  0  0
  2  5  1  0  0  0  0
  2  4  1  0  0  0  0
  3  1  1  0  0  0  0
  3  2  1  0  0  0  0
  6  3  1  0  0  0  0
  7  3  1  0  0  0  0
  8 14  1  0  0  0  0
  9 15  1  0  0  0  0
  9  8  1  0  0  0  0
  9 10  1  0  0  0  0
 10 18  1  0  0  0  0
 11 10  1  0  0  0  0
 11 12  1  0  0  0  0
 12 20  1  0  0  0  0
 12 19  1  0  0  0  0
 13  8  1  0  0  0  0
 13 22  1  0  0  0  0
 13 12  1  0  0  0  0
 16  9  1  0  0  0  0
 17 10  1  0  0  0  0
 21 13  1  0  0  0  0
 23 24  1  0  0  0  0
 24  1  1  0  0  0  0
 24 25  2  0  0  0  0
 25 33  1  0  0  0  0
 26 25  1  0  0  0  0
 27 26  2  0  0  0  0
 28 23  2  0  0  0  0
 28 27  1  0  0  0  0
 29 27  1  0  0  0  0
 29 32  1  0  0  0  0
 30 23  1  0  0  0  0
 31 29  1  0  0  0  0
 33 34  1  6  0  0  0
 33 37  1  0  0  0  0
 35 36  1  0  0  0  0
 36 37  2  0  0  0  0
 36 43  1  0  0  0  0
 37 38  1  0  0  0  0
 38 39  1  0  0  0  0
 38 40  2  0  0  0  0
 40 41  1  0  0  0  0
 42 40  1  0  0  0  0
 43 42  2  0  0  0  0
M  END
>  <minimizedAffinity>
-5.81839609

$$$$

 OpenBabel03242516173D

 43 46  0  0  1  0  0  0  0  0999 V2000
   37.9000   27.5860   42.6750 C   0  0  0  0  0  0  0  0  0  0  0  0
   36.8020   27.2860   43.6790 C   0  0  0  0  0  0  0  0  0  0  0  0
   37.5230   28.5590   43.6540 C   0  0  0  0  0  0  0  0  0  0  0  0
   35.7400   27.2260   43.3420 H   0  0  0  0  0  0  0  0  0  0  0  0
   37.0180   26.4660   44.3940 H   0  0  0  0  0  0  0  0  0  0  0  0
   36.8910   29.4290   43.2980 H   0  0  0  0  0  0  0  0  0  0  0  0
   37.8800   28.7620   44.6680 H   0  0  0  0  0  0  0  0  0  0  0  0
   37.3810   27.7400   41.2770 C   0  0  0  0  0  0  0  0  0  0  0  0
   38.4380   28.0170   40.2240 C   0  0  0  0  0  0  0  0  0  0  0  0
   37.7010   28.0060   38.8890 C   0  0  0  0  0  0  0  0  0  0  0  0
   36.9920   29.2090   38.8150 O   0  0  0  0  0  0  0  0  0  0  0  0
   35.9240   28.9910   39.7210 C   0  0  0  0  0  0  0  0  0  0  0  0
   36.4680   28.9720   41.1450 C   0  0  0  0  0  0  0  0  0  0  0  0
   36.8050   26.8710   40.9220 H   0  0  0  0  0  0  0  0  0  0  0  0
   39.1810   27.2140   40.1510 H   0  0  0  0  0  0  0  0  0  0  0  0
   38.8500   29.0340   40.3600 H   0  0  0  0  0  0  0  0  0  0  0  0
   38.4670   28.0360   38.0660 H   0  0  0  0  0  0  0  0  0  0  0  0
   37.0570   27.1150   38.7680 H   0  0  0  0  0  0  0  0  0  0  0  0
   35.5310   27.9850   39.5080 H   0  0  0  0  0  0  0  0  0  0  0  0
   35.1190   29.7190   39.6060 H   0  0  0  0  0  0  0  0  0  0  0  0
   37.0420   29.8650   41.4000 H   0  0  0  0  0  0  0  0  0  0  0  0
   35.5880   28.7800   41.7890 H   0  0  0  0  0  0  0  0  0  0  0  0
   40.3090   27.4140   43.3360 C   0  0  0  0  0  0  0  0  0  0  0  0
   39.1520   26.8070   42.8290 C   0  0  0  0  0  0  0  0  0  0  0  0
   39.2560   25.4620   42.4810 C   0  0  0  0  0  0  0  0  0  0  0  0
   40.4340   24.8070   42.6390 N   0  0  0  0  0  0  0  0  0  0  0  0
   41.5040   25.4550   43.1310 C   0  0  0  0  0  0  0  0  0  0  0  0
   41.4620   26.7220   43.4760 N   0  0  0  0  0  0  0  0  0  0  0  0
   42.7620   24.7930   43.3060 N   0  0  0  0  0  0  0  0  0  0  0  0
   40.3000   28.4570   43.6270 H   0  0  0  0  0  0  0  0  0  0  0  0
   43.6580   25.2820   43.3280 H   0  0  0  0  0  0  0  0  0  0  0  0
   42.7320   23.7380   43.4170 H   0  0  0  0  0  0  0  0  0  0  0  0
   38.1580   24.7290   41.9090 C   0  0  2  0  0  3  0  0  0  0  0  0
   37.2750   24.0340   42.5540 O   0  0  0  0  0  1  0  0  0  0  0  0
   39.7070   24.4750   39.6940 F   0  0  0  0  0  0  0  0  0  0  0  0
   38.3530   24.3040   39.4930 C   0  0  0  0  0  0  0  0  0  0  0  0
   37.5470   24.4020   40.6270 C   0  0  0  0  0  0  0  0  0  0  0  0
   36.2100   24.2180   40.3450 C   0  0  0  0  0  0  0  0  0  0  0  0
   35.5490   24.2900   41.2250 H   0  0  0  0  0  0  0  0  0  0  0  0
   35.7520   23.9660   39.0540 C   0  0  0  0  0  0  0  0  0  0  0  0
   34.6700   23.8350   38.9310 H   0  0  0  0  0  0  0  0  0  0  0  0
   36.6320   23.8920   38.0210 C   0  0  0  0  0  3  0  0  0  0  0  0
   37.9750   24.0570   38.1890 C   0  0  0  0  0  3  0  0  0  0  0  0
  1 24  1  0  0  0  0
  1  3  1  0  0  0  0
  1  2  1  0  0  0  0
  2  5  1  0  0  0  0
  3  2  1  0  0  0  0
  3  7  1  0  0  0  0
  4  2  1  0  0  0  0
  6  3  1  0  0  0  0
  8  1  1  0  0  0  0
  9 16  1  0  0  0  0
  9  8  1  0  0  0  0
 10  9  1  0  0  0  0
 11 10  1  0  0  0  0
 11 12  1  0  0  0  0
 12 13  1  0  0  0  0
 13  8  1  0  0  0  0
 13 21  1  0  0  0  0
 13 22  1  0  0  0  0
 14  8  1  0  0  0  0
 15  9  1  0  0  0  0
 17 10  1  0  0  0  0
 18 10  1  0  0  0  0
 19 12  1  0  0  0  0
 20 12  1  0  0  0  0
 23 28  1  0  0  0  0
 23 30  1  0  0  0  0
 24 23  2  0  0  0  0
 25 26  2  0  0  0  0
 25 24  1  0  0  0  0
 26 27  1  0  0  0  0
 27 29  1  0  0  0  0
 27 28  2  0  0  0  0
 29 31  1  0  0  0  0
 29 32  1  0  0  0  0
 33 25  1  0  0  0  0
 33 34  1  6  0  0  0
 36 35  1  0  0  0  0
 36 37  1  0  0  0  0
 37 33  1  0  0  0  0
 38 37  2  0  0  0  0
 38 39  1  0  0  0  0
 40 38  1  0  0  0  0
 41 40  1  0  0  0  0
 42 43  1  0  0  0  0
 42 40  2  0  0  0  0
 43 36  2  0  0  0  0
M  END
>  <minimizedAffinity>
-5.79995012

$$$$

 OpenBabel03242516173D

 43 46  0  0  1  0  0  0  0  0999 V2000
   38.1410   27.9640   42.2280 C   0  0  0  0  0  0  0  0  0  0  0  0
   38.0800   27.4190   43.6440 C   0  0  0  0  0  0  0  0  0  0  0  0
   36.9110   27.9730   42.9590 C   0  0  0  0  0  0  0  0  0  0  0  0
   38.1680   26.3220   43.8230 H   0  0  0  0  0  0  0  0  0  0  0  0
   38.6770   27.9740   44.3960 H   0  0  0  0  0  0  0  0  0  0  0  0
   36.1400   27.1920   42.6780 H   0  0  0  0  0  0  0  0  0  0  0  0
   36.4520   28.7110   43.6220 H   0  0  0  0  0  0  0  0  0  0  0  0
   38.3570   26.8910   41.2030 C   0  0  0  0  0  0  0  0  0  0  0  0
   39.0510   27.3440   39.9320 C   0  0  0  0  0  0  0  0  0  0  0  0
   39.2720   26.0780   39.1110 C   0  0  0  0  0  0  0  0  0  0  0  0
   38.0290   25.7290   38.5740 O   0  0  0  0  0  0  0  0  0  0  0  0
   37.3440   25.2110   39.7010 C   0  0  0  0  0  0  0  0  0  0  0  0
   37.0220   26.3500   40.6620 C   0  0  0  0  0  0  0  0  0  0  0  0
   38.9260   26.0270   41.5810 H   0  0  0  0  0  0  0  0  0  0  0  0
   40.0540   27.7460   40.1200 H   0  0  0  0  0  0  0  0  0  0  0  0
   38.3790   27.9990   39.3470 H   0  0  0  0  0  0  0  0  0  0  0  0
   39.9350   26.3370   38.2400 H   0  0  0  0  0  0  0  0  0  0  0  0
   39.7330   25.2640   39.7020 H   0  0  0  0  0  0  0  0  0  0  0  0
   38.0470   24.5370   40.2140 H   0  0  0  0  0  0  0  0  0  0  0  0
   36.4480   24.6480   39.4270 H   0  0  0  0  0  0  0  0  0  0  0  0
   36.4730   27.1680   40.1940 H   0  0  0  0  0  0  0  0  0  0  0  0
   36.5080   25.8700   41.5180 H   0  0  0  0  0  0  0  0  0  0  0  0
   40.2240   29.3180   42.5460 C   0  0  0  0  0  0  0  0  0  0  0  0
   38.9190   29.2130   42.0460 C   0  0  0  0  0  0  0  0  0  0  0  0
   38.4110   30.3330   41.3910 C   0  0  0  0  0  0  0  0  0  0  0  0
   39.1710   31.4500   41.2630 N   0  0  0  0  0  0  0  0  0  0  0  0
   40.4160   31.4780   41.7690 C   0  0  0  0  0  0  0  0  0  0  0  0
   40.9450   30.4520   42.3960 N   0  0  0  0  0  0  0  0  0  0  0  0
   41.2420   32.6430   41.6540 N   0  0  0  0  0  0  0  0  0  0  0  0
   40.6820   28.4860   43.0660 H   0  0  0  0  0  0  0  0  0  0  0  0
   42.0110   32.8540   42.2920 H   0  0  0  0  0  0  0  0  0  0  0  0
   41.0210   33.3040   40.8550 H   0  0  0  0  0  0  0  0  0  0  0  0
   37.0710   30.3760   40.8670 C   0  0  2  0  0  3  0  0  0  0  0  0
   36.0800   31.0620   41.3410 O   0  0  0  0  0  1  0  0  0  0  0  0
   37.9300   30.4800   38.2940 F   0  0  0  0  0  0  0  0  0  0  0  0
   36.6870   29.9150   38.4810 C   0  0  0  0  0  0  0  0  0  0  0  0
   36.2440   29.8270   39.8010 C   0  0  0  0  0  0  0  0  0  0  0  0
   34.9960   29.2510   39.9050 C   0  0  0  0  0  0  0  0  0  0  0  0
   34.6210   29.1680   40.9390 H   0  0  0  0  0  0  0  0  0  0  0  0
   34.2840   28.8170   38.7880 C   0  0  0  0  0  0  0  0  0  0  0  0
   33.2990   28.3730   38.9740 H   0  0  0  0  0  0  0  0  0  0  0  0
   34.8150   28.9550   37.5450 C   0  0  0  0  0  3  0  0  0  0  0  0
   36.0420   29.5090   37.3300 C   0  0  0  0  0  3  0  0  0  0  0  0
  1  3  1  0  0  0  0
  1  2  1  0  0  0  0
  2  4  1  0  0  0  0
  2  5  1  0  0  0  0
  3  7  1  0  0  0  0
  3  2  1  0  0  0  0
  6  3  1  0  0  0  0
  8 14  1  0  0  0  0
  8  1  1  0  0  0  0
  9 15  1  0  0  0  0
  9  8  1  0  0  0  0
 10 18  1  0  0  0  0
 10  9  1  0  0  0  0
 11 10  1  0  0  0  0
 11 12  1  0  0  0  0
 12 19  1  0  0  0  0
 12 13  1  0  0  0  0
 13  8  1  0  0  0  0
 13 22  1  0  0  0  0
 16  9  1  0  0  0  0
 17 10  1  0  0  0  0
 20 12  1  0  0  0  0
 21 13  1  0  0  0  0
 23 30  1  0  0  0  0
 24  1  1  0  0  0  0
 24 23  2  0  0  0  0
 25 24  1  0  0  0  0
 26 25  2  0  0  0  0
 26 27  1  0  0  0  0
 27 28  2  0  0  0  0
 28 23  1  0  0  0  0
 29 27  1  0  0  0  0
 29 31  1  0  0  0  0
 32 29  1  0  0  0  0
 33 34  1  1  0  0  0
 33 25  1  0  0  0  0
 35 36  1  0  0  0  0
 36 37  1  0  0  0  0
 37 38  2  0  0  0  0
 37 33  1  0  0  0  0
 38 39  1  0  0  0  0
 40 41  1  0  0  0  0
 40 38  1  0  0  0  0
 42 40  2  0  0  0  0
 43 42  1  0  0  0  0
 43 36  2  0  0  0  0
M  END
>  <minimizedAffinity>
-5.78971195

$$$$

 OpenBabel03242516173D

 43 46  0  0  1  0  0  0  0  0999 V2000
   37.5050   28.5840   37.8190 C   0  0  0  0  0  0  0  0  0  0  0  0
   38.7770   28.3200   37.0340 C   0  0  0  0  0  0  0  0  0  0  0  0
   38.5090   27.7050   38.3350 C   0  0  0  0  0  0  0  0  0  0  0  0
   38.7400   27.7140   36.0980 H   0  0  0  0  0  0  0  0  0  0  0  0
   39.4400   29.1970   36.8890 H   0  0  0  0  0  0  0  0  0  0  0  0
   38.3010   26.5930   38.2740 H   0  0  0  0  0  0  0  0  0  0  0  0
   39.3810   27.8740   38.9720 H   0  0  0  0  0  0  0  0  0  0  0  0
   36.2910   27.9830   37.1740 C   0  0  0  0  0  0  0  0  0  0  0  0
   35.0700   28.8830   37.1360 C   0  0  0  0  0  0  0  0  0  0  0  0
   34.0220   28.1190   36.3340 C   0  0  0  0  0  0  0  0  0  0  0  0
   33.5320   27.1130   37.1730 O   0  0  0  0  0  0  0  0  0  0  0  0
   34.6000   26.1810   37.1890 C   0  0  0  0  0  0  0  0  0  0  0  0
   35.7710   26.7710   37.9670 C   0  0  0  0  0  0  0  0  0  0  0  0
   36.4630   27.6440   36.1410 H   0  0  0  0  0  0  0  0  0  0  0  0
   35.2450   29.8090   36.5760 H   0  0  0  0  0  0  0  0  0  0  0  0
   34.6660   29.0150   38.1570 H   0  0  0  0  0  0  0  0  0  0  0  0
   33.1600   28.8130   36.1320 H   0  0  0  0  0  0  0  0  0  0  0  0
   34.4200   27.7300   35.3780 H   0  0  0  0  0  0  0  0  0  0  0  0
   34.9280   26.0610   36.1450 H   0  0  0  0  0  0  0  0  0  0  0  0
   34.3030   25.2070   37.5830 H   0  0  0  0  0  0  0  0  0  0  0  0
   35.5010   27.0970   38.9730 H   0  0  0  0  0  0  0  0  0  0  0  0
   36.5660   26.0020   37.9210 H   0  0  0  0  0  0  0  0  0  0  0  0
   37.6760   31.0710   37.5840 C   0  0  0  0  0  0  0  0  0  0  0  0
   37.3490   29.9540   38.3640 C   0  0  0  0  0  0  0  0  0  0  0  0
   36.8890   30.2080   39.6540 C   0  0  0  0  0  0  0  0  0  0  0  0
   36.7760   31.4860   40.0980 N   0  0  0  0  0  0  0  0  0  0  0  0
   37.1090   32.5090   39.2920 C   0  0  0  0  0  0  0  0  0  0  0  0
   37.5490   32.3270   38.0670 N   0  0  0  0  0  0  0  0  0  0  0  0
   37.0050   33.8680   39.7310 N   0  0  0  0  0  0  0  0  0  0  0  0
   38.0410   30.9470   36.5720 H   0  0  0  0  0  0  0  0  0  0  0  0
   37.5510   34.6340   39.3320 H   0  0  0  0  0  0  0  0  0  0  0  0
   36.3160   34.0630   40.5140 H   0  0  0  0  0  0  0  0  0  0  0  0
   36.5580   29.1520   40.5750 C   0  0  2  0  0  3  0  0  0  0  0  0
   35.3690   28.7290   40.8680 O   0  0  0  0  0  1  0  0  0  0  0  0
   38.2730   30.0180   42.4920 F   0  0  0  0  0  0  0  0  0  0  0  0
   38.0760   28.6540   42.4460 C   0  0  0  0  0  0  0  0  0  0  0  0
   37.1750   28.1970   41.4850 C   0  0  0  0  0  0  0  0  0  0  0  0
   37.0310   26.8260   41.5030 C   0  0  0  0  0  0  0  0  0  0  0  0
   36.3220   26.4350   40.7530 H   0  0  0  0  0  0  0  0  0  0  0  0
   37.7290   26.0180   42.3980 C   0  0  0  0  0  0  0  0  0  0  0  0
   37.5480   24.9380   42.3330 H   0  0  0  0  0  0  0  0  0  0  0  0
   38.5860   26.5750   43.2940 C   0  0  0  0  0  3  0  0  0  0  0  0
   38.8010   27.9200   43.3620 C   0  0  0  0  0  3  0  0  0  0  0  0
  1  3  1  0  0  0  0
  1 24  1  0  0  0  0
  2  1  1  0  0  0  0
  2  3  1  0  0  0  0
  3  7  1  0  0  0  0
  4  2  1  0  0  0  0
  5  2  1  0  0  0  0
  6  3  1  0  0  0  0
  8  1  1  0  0  0  0
  8 13  1  0  0  0  0
  9  8  1  0  0  0  0
  9 16  1  0  0  0  0
 10  9  1  0  0  0  0
 10 11  1  0  0  0  0
 11 12  1  0  0  0  0
 12 20  1  0  0  0  0
 12 13  1  0  0  0  0
 13 21  1  0  0  0  0
 14  8  1  0  0  0  0
 15  9  1  0  0  0  0
 17 10  1  0  0  0  0
 18 10  1  0  0  0  0
 19 12  1  0  0  0  0
 22 13  1  0  0  0  0
 23 28  2  0  0  0  0
 23 24  1  0  0  0  0
 24 25  2  0  0  0  0
 25 26  1  0  0  0  0
 25 33  1  0  0  0  0
 27 29  1  0  0  0  0
 27 26  2  0  0  0  0
 28 27  1  0  0  0  0
 29 32  1  0  0  0  0
 30 23  1  0  0  0  0
 31 29  1  0  0  0  0
 33 34  1  1  0  0  0
 33 37  1  0  0  0  0
 36 35  1  0  0  0  0
 36 43  1  0  0  0  0
 37 38  1  0  0  0  0
 37 36  2  0  0  0  0
 38 40  2  0  0  0  0
 39 38  1  0  0  0  0
 40 42  1  0  0  0  0
 41 40  1  0  0  0  0
 42 43  2  0  0  0  0
M  END
>  <minimizedAffinity>
-5.78807116

$$$$

 OpenBabel03242516173D

 43 46  0  0  1  0  0  0  0  0999 V2000
   37.7190   31.5020   39.3090 C   0  0  0  0  0  0  0  0  0  0  0  0
   37.2640   32.9390   39.1340 C   0  0  0  0  0  0  0  0  0  0  0  0
   36.8620   32.1170   40.2760 C   0  0  0  0  0  0  0  0  0  0  0  0
   37.9930   33.7740   39.2610 H   0  0  0  0  0  0  0  0  0  0  0  0
   36.6190   33.1330   38.2530 H   0  0  0  0  0  0  0  0  0  0  0  0
   37.3360   32.4390   41.2530 H   0  0  0  0  0  0  0  0  0  0  0  0
   35.7740   32.1770   40.3660 H   0  0  0  0  0  0  0  0  0  0  0  0
   39.1820   31.3910   39.6190 C   0  0  0  0  0  0  0  0  0  0  0  0
   39.7560   29.9890   39.5240 C   0  0  0  0  0  0  0  0  0  0  0  0
   41.2570   30.1440   39.7500 C   0  0  0  0  0  0  0  0  0  0  0  0
   41.4330   30.3650   41.1200 O   0  0  0  0  0  0  0  0  0  0  0  0
   40.9920   31.7030   41.2720 C   0  0  0  0  0  0  0  0  0  0  0  0
   39.4800   31.7590   41.0830 C   0  0  0  0  0  0  0  0  0  0  0  0
   39.8170   32.0330   38.9880 H   0  0  0  0  0  0  0  0  0  0  0  0
   39.6570   29.5600   38.5190 H   0  0  0  0  0  0  0  0  0  0  0  0
   39.3660   29.3640   40.3480 H   0  0  0  0  0  0  0  0  0  0  0  0
   41.7490   29.1590   39.5190 H   0  0  0  0  0  0  0  0  0  0  0  0
   41.7000   30.9390   39.1220 H   0  0  0  0  0  0  0  0  0  0  0  0
   41.4470   32.2800   40.4530 H   0  0  0  0  0  0  0  0  0  0  0  0
   41.2960   32.1400   42.2260 H   0  0  0  0  0  0  0  0  0  0  0  0
   38.9370   31.0750   41.7360 H   0  0  0  0  0  0  0  0  0  0  0  0
   39.2140   32.8280   41.1980 H   0  0  0  0  0  0  0  0  0  0  0  0
   37.3460   30.7260   36.9580 C   0  0  0  0  0  0  0  0  0  0  0  0
   37.1770   30.5250   38.3350 C   0  0  0  0  0  0  0  0  0  0  0  0
   36.4790   29.3810   38.7160 C   0  0  0  0  0  0  0  0  0  0  0  0
   36.0010   28.5290   37.7750 N   0  0  0  0  0  0  0  0  0  0  0  0
   36.2000   28.7870   36.4700 C   0  0  0  0  0  0  0  0  0  0  0  0
   36.8510   29.8500   36.0550 N   0  0  0  0  0  0  0  0  0  0  0  0
   35.7060   27.9100   35.4520 N   0  0  0  0  0  0  0  0  0  0  0  0
   37.8790   31.5940   36.5910 H   0  0  0  0  0  0  0  0  0  0  0  0
   35.5110   28.2100   34.4950 H   0  0  0  0  0  0  0  0  0  0  0  0
   35.5410   26.9010   35.7340 H   0  0  0  0  0  0  0  0  0  0  0  0
   36.1980   29.0760   40.0940 C   0  0  2  0  0  3  0  0  0  0  0  0
   35.0670   29.2380   40.7050 O   0  0  0  0  0  1  0  0  0  0  0  0
   36.4970   26.3990   40.4260 F   0  0  0  0  0  0  0  0  0  0  0  0
   36.9490   27.1790   41.4700 C   0  0  0  0  0  0  0  0  0  0  0  0
   36.8290   28.5580   41.3010 C   0  0  0  0  0  0  0  0  0  0  0  0
   37.3030   29.2690   42.3830 C   0  0  0  0  0  0  0  0  0  0  0  0
   37.2220   30.3630   42.2770 H   0  0  0  0  0  0  0  0  0  0  0  0
   37.8360   28.6400   43.5070 C   0  0  0  0  0  0  0  0  0  0  0  0
   38.1850   29.2920   44.3170 H   0  0  0  0  0  0  0  0  0  0  0  0
   37.9020   27.2840   43.5630 C   0  0  0  0  0  3  0  0  0  0  0  0
   37.4630   26.4870   42.5470 C   0  0  0  0  0  3  0  0  0  0  0  0
  1  8  1  0  0  0  0
  1  3  1  0  0  0  0
  2  4  1  0  0  0  0
  2  1  1  0  0  0  0
  2  3  1  0  0  0  0
  3  7  1  0  0  0  0
  3  6  1  0  0  0  0
  5  2  1  0  0  0  0
  8 13  1  0  0  0  0
  9  8  1  0  0  0  0
  9 10  1  0  0  0  0
  9 16  1  0  0  0  0
 10 11  1  0  0  0  0
 11 12  1  0  0  0  0
 12 20  1  0  0  0  0
 13 22  1  0  0  0  0
 13 12  1  0  0  0  0
 13 21  1  0  0  0  0
 14  8  1  0  0  0  0
 15  9  1  0  0  0  0
 17 10  1  0  0  0  0
 18 10  1  0  0  0  0
 19 12  1  0  0  0  0
 23 24  1  0  0  0  0
 24 25  2  0  0  0  0
 24  1  1  0  0  0  0
 25 33  1  0  0  0  0
 26 25  1  0  0  0  0
 27 26  2  0  0  0  0
 28 27  1  0  0  0  0
 28 23  2  0  0  0  0
 29 32  1  0  0  0  0
 29 27  1  0  0  0  0
 30 23  1  0  0  0  0
 31 29  1  0  0  0  0
 33 34  1  1  0  0  0
 33 37  1  0  0  0  0
 35 36  1  0  0  0  0
 36 43  1  0  0  0  0
 37 36  2  0  0  0  0
 37 38  1  0  0  0  0
 38 40  2  0  0  0  0
 39 38  1  0  0  0  0
 40 42  1  0  0  0  0
 40 41  1  0  0  0  0
 43 42  2  0  0  0  0
M  END
>  <minimizedAffinity>
-5.66306829

$$$$

 OpenBabel03242516173D

 43 46  0  0  1  0  0  0  0  0999 V2000
   40.2100   28.3970   41.8420 C   0  0  0  0  0  0  0  0  0  0  0  0
   41.2800   28.7620   42.8560 C   0  0  0  0  0  0  0  0  0  0  0  0
   40.1800   27.8450   43.1630 C   0  0  0  0  0  0  0  0  0  0  0  0
   42.3210   28.3800   42.7300 H   0  0  0  0  0  0  0  0  0  0  0  0
   41.3030   29.8260   43.1650 H   0  0  0  0  0  0  0  0  0  0  0  0
   40.5100   26.7670   43.2770 H   0  0  0  0  0  0  0  0  0  0  0  0
   39.7130   28.1820   44.0920 H   0  0  0  0  0  0  0  0  0  0  0  0
   40.7370   27.5470   40.7240 C   0  0  0  0  0  0  0  0  0  0  0  0
   40.0650   27.7610   39.3810 C   0  0  0  0  0  0  0  0  0  0  0  0
   40.8410   26.8990   38.3910 C   0  0  0  0  0  0  0  0  0  0  0  0
   40.4540   25.5750   38.6260 O   0  0  0  0  0  0  0  0  0  0  0  0
   41.1220   25.2730   39.8390 C   0  0  0  0  0  0  0  0  0  0  0  0
   40.4750   26.0520   40.9780 C   0  0  0  0  0  0  0  0  0  0  0  0
   41.8190   27.6620   40.5550 H   0  0  0  0  0  0  0  0  0  0  0  0
   40.1710   28.7900   39.0150 H   0  0  0  0  0  0  0  0  0  0  0  0
   39.0300   27.3730   39.4100 H   0  0  0  0  0  0  0  0  0  0  0  0
   40.4900   27.1540   37.3540 H   0  0  0  0  0  0  0  0  0  0  0  0
   41.9340   27.0500   38.4640 H   0  0  0  0  0  0  0  0  0  0  0  0
   42.1530   25.6440   39.7310 H   0  0  0  0  0  0  0  0  0  0  0  0
   41.1500   24.2010   40.0470 H   0  0  0  0  0  0  0  0  0  0  0  0
   39.3990   25.8910   41.0560 H   0  0  0  0  0  0  0  0  0  0  0  0
   41.0570   25.7810   41.8810 H   0  0  0  0  0  0  0  0  0  0  0  0
   39.7740   30.7390   41.0730 C   0  0  0  0  0  0  0  0  0  0  0  0
   39.2800   29.4850   41.4590 C   0  0  0  0  0  0  0  0  0  0  0  0
   37.8950   29.3370   41.4660 C   0  0  0  0  0  0  0  0  0  0  0  0
   37.0960   30.3750   41.1110 N   0  0  0  0  0  0  0  0  0  0  0  0
   37.6410   31.5500   40.7520 C   0  0  0  0  0  0  0  0  0  0  0  0
   38.9400   31.7460   40.7280 N   0  0  0  0  0  0  0  0  0  0  0  0
   36.8260   32.6660   40.3760 N   0  0  0  0  0  0  0  0  0  0  0  0
   40.8400   30.9250   41.0440 H   0  0  0  0  0  0  0  0  0  0  0  0
   37.1350   33.6380   40.4410 H   0  0  0  0  0  0  0  0  0  0  0  0
   35.8540   32.4430   40.0140 H   0  0  0  0  0  0  0  0  0  0  0  0
   37.2550   28.1160   41.8820 C   0  0  2  0  0  3  0  0  0  0  0  0
   36.5510   27.9420   42.9550 O   0  0  0  0  0  1  0  0  0  0  0  0
   36.6880   27.5250   39.2940 F   0  0  0  0  0  0  0  0  0  0  0  0
   36.7480   26.4450   40.1490 C   0  0  0  0  0  0  0  0  0  0  0  0
   37.0670   26.7300   41.4760 C   0  0  0  0  0  0  0  0  0  0  0  0
   37.1090   25.6000   42.2660 C   0  0  0  0  0  0  0  0  0  0  0  0
   37.3610   25.7960   43.3220 H   0  0  0  0  0  0  0  0  0  0  0  0
   36.8520   24.3290   41.7570 C   0  0  0  0  0  0  0  0  0  0  0  0
   36.9080   23.4940   42.4650 H   0  0  0  0  0  0  0  0  0  0  0  0
   36.5480   24.1700   40.4420 C   0  0  0  0  0  3  0  0  0  0  0  0
   36.4820   25.2190   39.5740 C   0  0  0  0  0  3  0  0  0  0  0  0
  1  2  1  0  0  0  0
  1  3  1  0  0  0  0
  2  3  1  0  0  0  0
  2  5  1  0  0  0  0
  3  6  1  0  0  0  0
  3  7  1  0  0  0  0
  4  2  1  0  0  0  0
  8 13  1  0  0  0  0
  8  1  1  0  0  0  0
  9 16  1  0  0  0  0
  9  8  1  0  0  0  0
 10 18  1  0  0  0  0
 10 11  1  0  0  0  0
 10  9  1  0  0  0  0
 11 12  1  0  0  0  0
 12 20  1  0  0  0  0
 12 13  1  0  0  0  0
 13 21  1  0  0  0  0
 13 22  1  0  0  0  0
 14  8  1  0  0  0  0
 15  9  1  0  0  0  0
 17 10  1  0  0  0  0
 19 12  1  0  0  0  0
 23 24  1  0  0  0  0
 24 25  2  0  0  0  0
 24  1  1  0  0  0  0
 25 33  1  0  0  0  0
 26 25  1  0  0  0  0
 27 26  2  0  0  0  0
 28 27  1  0  0  0  0
 28 23  2  0  0  0  0
 29 31  1  0  0  0  0
 29 27  1  0  0  0  0
 30 23  1  0  0  0  0
 32 29  1  0  0  0  0
 33 34  1  1  0  0  0
 35 36  1  0  0  0  0
 36 37  1  0  0  0  0
 37 33  1  0  0  0  0
 37 38  2  0  0  0  0
 38 39  1  0  0  0  0
 40 38  1  0  0  0  0
 40 41  1  0  0  0  0
 42 40  2  0  0  0  0
 43 36  2  0  0  0  0
 43 42  1  0  0  0  0
M  END
>  <minimizedAffinity>
-5.61984444

$$$$

 OpenBabel03242516173D

 43 46  0  0  1  0  0  0  0  0999 V2000
   37.6940   30.4090   37.9880 C   0  0  0  0  0  0  0  0  0  0  0  0
   37.9380   31.6440   37.1390 C   0  0  0  0  0  0  0  0  0  0  0  0
   37.8080   31.7000   38.5960 C   0  0  0  0  0  0  0  0  0  0  0  0
   38.9290   31.7970   36.6500 H   0  0  0  0  0  0  0  0  0  0  0  0
   37.1250   31.9080   36.4340 H   0  0  0  0  0  0  0  0  0  0  0  0
   38.7800   31.9350   39.1280 H   0  0  0  0  0  0  0  0  0  0  0  0
   37.0690   32.4690   38.8370 H   0  0  0  0  0  0  0  0  0  0  0  0
   38.8800   29.4920   38.0320 C   0  0  0  0  0  0  0  0  0  0  0  0
   38.5630   28.0440   38.3570 C   0  0  0  0  0  0  0  0  0  0  0  0
   39.8830   27.2930   38.2190 C   0  0  0  0  0  0  0  0  0  0  0  0
   40.6440   27.6140   39.3470 O   0  0  0  0  0  0  0  0  0  0  0  0
   41.0530   28.9430   39.0730 C   0  0  0  0  0  0  0  0  0  0  0  0
   39.8460   29.8700   39.1680 C   0  0  0  0  0  0  0  0  0  0  0  0
   39.4650   29.4830   37.0990 H   0  0  0  0  0  0  0  0  0  0  0  0
   37.8900   27.5840   37.6220 H   0  0  0  0  0  0  0  0  0  0  0  0
   38.2460   27.9550   39.4120 H   0  0  0  0  0  0  0  0  0  0  0  0
   39.6670   26.1910   38.2820 H   0  0  0  0  0  0  0  0  0  0  0  0
   40.4010   27.5190   37.2680 H   0  0  0  0  0  0  0  0  0  0  0  0
   41.3950   28.9570   38.0270 H   0  0  0  0  0  0  0  0  0  0  0  0
   41.8690   29.2740   39.7190 H   0  0  0  0  0  0  0  0  0  0  0  0
   39.3180   29.7960   40.1200 H   0  0  0  0  0  0  0  0  0  0  0  0
   40.2360   30.8780   38.9260 H   0  0  0  0  0  0  0  0  0  0  0  0
   35.8610   29.4870   36.5540 C   0  0  0  0  0  0  0  0  0  0  0  0
   36.3690   29.7640   37.8310 C   0  0  0  0  0  0  0  0  0  0  0  0
   35.5650   29.4090   38.9120 C   0  0  0  0  0  0  0  0  0  0  0  0
   34.3570   28.8280   38.7010 N   0  0  0  0  0  0  0  0  0  0  0  0
   33.9340   28.5930   37.4470 C   0  0  0  0  0  0  0  0  0  0  0  0
   34.6510   28.9070   36.3910 N   0  0  0  0  0  0  0  0  0  0  0  0
   32.6630   27.9840   37.1900 N   0  0  0  0  0  0  0  0  0  0  0  0
   36.4320   29.7360   35.6690 H   0  0  0  0  0  0  0  0  0  0  0  0
   32.1470   28.1020   36.3160 H   0  0  0  0  0  0  0  0  0  0  0  0
   32.2590   27.3850   37.9670 H   0  0  0  0  0  0  0  0  0  0  0  0
   35.9470   29.6760   40.2740 C   0  0  2  0  0  3  0  0  0  0  0  0
   35.7260   30.7660   40.9380 O   0  0  0  0  0  1  0  0  0  0  0  0
   37.9770   30.9910   41.5040 F   0  0  0  0  0  0  0  0  0  0  0  0
   37.6870   29.7420   42.0120 C   0  0  0  0  0  0  0  0  0  0  0  0
   36.6270   29.0660   41.4090 C   0  0  0  0  0  0  0  0  0  0  0  0
   36.3980   27.8280   41.9720 C   0  0  0  0  0  0  0  0  0  0  0  0
   35.5630   27.2710   41.5150 H   0  0  0  0  0  0  0  0  0  0  0  0
   37.1660   27.3400   43.0270 C   0  0  0  0  0  0  0  0  0  0  0  0
   36.9080   26.3440   43.4050 H   0  0  0  0  0  0  0  0  0  0  0  0
   38.1800   28.0890   43.5360 C   0  0  0  0  0  3  0  0  0  0  0  0
   38.4890   29.3260   43.0550 C   0  0  0  0  0  3  0  0  0  0  0  0
  1  8  1  0  0  0  0
  1  3  1  0  0  0  0
  2  1  1  0  0  0  0
  2  3  1  0  0  0  0
  3  7  1  0  0  0  0
  3  6  1  0  0  0  0
  4  2  1  0  0  0  0
  5  2  1  0  0  0  0
  8  9  1  0  0  0  0
  8 13  1  0  0  0  0
  9 16  1  0  0  0  0
 10 17  1  0  0  0  0
 10  9  1  0  0  0  0
 10 11  1  0  0  0  0
 12 13  1  0  0  0  0
 12 11  1  0  0  0  0
 12 20  1  0  0  0  0
 13 21  1  0  0  0  0
 14  8  1  0  0  0  0
 15  9  1  0  0  0  0
 18 10  1  0  0  0  0
 19 12  1  0  0  0  0
 22 13  1  0  0  0  0
 23 24  1  0  0  0  0
 24  1  1  0  0  0  0
 24 25  2  0  0  0  0
 25 33  1  0  0  0  0
 26 25  1  0  0  0  0
 27 26  2  0  0  0  0
 28 23  2  0  0  0  0
 28 27  1  0  0  0  0
 29 27  1  0  0  0  0
 29 32  1  0  0  0  0
 30 23  1  0  0  0  0
 31 29  1  0  0  0  0
 33 34  1  6  0  0  0
 33 37  1  0  0  0  0
 35 36  1  0  0  0  0
 36 43  1  0  0  0  0
 37 38  1  0  0  0  0
 37 36  2  0  0  0  0
 38 40  2  0  0  0  0
 39 38  1  0  0  0  0
 40 41  1  0  0  0  0
 40 42  1  0  0  0  0
 43 42  2  0  0  0  0
M  END
>  <minimizedAffinity>
-5.60598564

$$$$
