
 OpenBabel03242513103D

 20 21  0  0  0  0  0  0  0  0999 V2000
   45.6150   33.1190   46.8610 C   0  0  0  0  0  0  0  0  0  0  0  0
   44.7170   33.4340   47.6800 O   0  0  0  0  0  0  0  0  0  0  0  0
   44.9810   35.4340   44.1240 C   0  0  0  0  0  0  0  0  0  0  0  0
   45.9650   35.1120   43.1600 C   0  0  0  0  0  0  0  0  0  0  0  0
   46.8400   34.0750   43.4980 C   0  0  0  0  0  0  0  0  0  0  0  0
   46.7260   33.4350   44.6880 N   0  0  0  0  0  0  0  0  0  0  0  0
   45.7650   33.7870   45.5700 C   0  0  0  0  0  0  0  0  0  0  0  0
   44.9080   34.7790   45.2760 N   0  0  0  0  0  0  0  0  0  0  0  0
   44.2850   36.2220   43.9130 H   0  0  0  0  0  0  0  0  0  0  0  0
   45.9700   35.6770   42.2490 H   0  0  0  0  0  0  0  0  0  0  0  0
   47.5710   33.8490   42.7580 H   0  0  0  0  0  0  0  0  0  0  0  0
   45.4320   30.3960   46.0490 F   0  0  0  0  0  0  0  0  0  0  0  0
   46.4300   30.7130   46.9020 C   0  0  0  0  0  0  0  0  0  0  0  0
   46.5010   32.0380   47.2820 C   0  0  0  0  0  0  0  0  0  0  0  0
   47.5280   32.3880   48.1650 C   0  0  0  0  0  0  0  0  0  0  0  0
   47.6450   33.4150   48.5080 H   0  0  0  0  0  0  0  0  0  0  0  0
   48.4470   31.4780   48.6540 C   0  0  0  0  0  0  0  0  0  0  0  0
   49.2300   31.8170   49.3450 H   0  0  0  0  0  0  0  0  0  0  0  0
   48.3660   30.1530   48.2650 C   0  0  0  0  0  0  0  0  0  0  0  0
   47.3510   29.8140   47.3940 C   0  0  0  0  0  0  0  0  0  0  0  0
  1 14  1  0  0  0  0
  1  2  2  0  0  0  0
  3  8  1  0  0  0  0
  4  5  1  0  0  0  0
  4  3  2  0  0  0  0
  5  6  2  0  0  0  0
  6  7  1  0  0  0  0
  7  1  1  0  0  0  0
  8  7  2  0  0  0  0
  9  3  1  0  0  0  0
 10  4  1  0  0  0  0
 11  5  1  0  0  0  0
 12 13  1  0  0  0  0
 13 14  2  0  0  0  0
 13 20  1  0  0  0  0
 14 15  1  0  0  0  0
 15 16  1  0  0  0  0
 15 17  2  0  0  0  0
 17 18  1  0  0  0  0
 19 17  1  0  0  0  0
 20 19  2  0  0  0  0
M  END
>  <minimizedAffinity>
-4.52971458

>  <minimizedRMSD>
1.21196294

$$$$
