
 OpenBabel03242523153D

 27 29  0  0  0  0  0  0  0  0999 V2000
   47.0860   33.2860   43.7800 C   0  0  0  0  0  0  0  0  0  0  0  0
   47.9700   33.6750   42.8290 C   0  0  0  0  0  0  0  0  0  0  0  0
   48.8920   32.7150   42.4520 C   0  0  0  0  0  0  0  0  0  0  0  0
   48.8360   31.4680   43.0650 N   0  0  0  0  0  0  0  0  0  0  0  0
   47.9340   31.1540   44.0000 C   0  0  0  0  0  0  0  0  0  0  0  0
   47.0030   32.0850   44.3960 N   0  0  0  0  0  0  0  0  0  0  0  0
   49.6610   32.8630   41.7090 H   0  0  0  0  0  0  0  0  0  0  0  0
   48.0580   30.1360   44.3510 H   0  0  0  0  0  0  0  0  0  0  0  0
   48.0740   34.9730   42.2660 C   0  0  0  0  0  0  0  0  0  0  0  0
   49.1470   35.6350   41.7690 C   0  0  0  0  0  0  0  0  0  0  0  0
   48.2020   35.1190   40.6890 C   0  0  0  0  0  0  0  0  0  0  0  0
   47.0220   35.4870   42.3720 H   0  0  0  0  0  0  0  0  0  0  0  0
   50.1580   35.1640   41.6470 H   0  0  0  0  0  0  0  0  0  0  0  0
   49.2650   36.7600   41.7810 H   0  0  0  0  0  0  0  0  0  0  0  0
   48.3910   34.1300   40.2300 H   0  0  0  0  0  0  0  0  0  0  0  0
   47.5810   35.8370   40.1690 H   0  0  0  0  0  0  0  0  0  0  0  0
   45.9430   34.0560   44.2730 C   0  0  0  0  0  0  0  0  0  0  0  0
   45.3320   34.6540   45.1410 O   0  0  0  0  0  0  0  0  0  0  0  0
   44.4670   31.9160   43.1820 F   0  0  0  0  0  0  0  0  0  0  0  0
   44.3120   33.1120   42.5740 C   0  0  0  0  0  0  0  0  0  0  0  0
   45.0310   34.1900   43.0960 C   0  0  0  0  0  0  0  0  0  0  0  0
   44.8180   35.3950   42.4140 C   0  0  0  0  0  0  0  0  0  0  0  0
   45.3590   36.2680   42.7840 H   0  0  0  0  0  0  0  0  0  0  0  0
   43.9840   35.5270   41.3290 C   0  0  0  0  0  0  0  0  0  0  0  0
   43.8740   36.4830   40.8590 H   0  0  0  0  0  0  0  0  0  0  0  0
   43.3170   34.4070   40.8870 C   0  0  0  0  0  0  0  0  0  0  0  0
   43.4510   33.1770   41.4800 C   0  0  0  0  0  0  0  0  0  0  0  0
  1 17  1  0  0  0  0
  1  6  1  0  0  0  0
  2  1  2  0  0  0  0
  3  2  1  0  0  0  0
  3  4  2  0  0  0  0
  4  5  1  0  0  0  0
  5  8  1  0  0  0  0
  5  6  2  0  0  0  0
  7  3  1  0  0  0  0
  9 12  1  0  0  0  0
  9  2  1  0  0  0  0
 10 14  1  0  0  0  0
 10  9  1  0  0  0  0
 11 10  1  0  0  0  0
 11  9  1  0  0  0  0
 13 10  1  0  0  0  0
 15 11  1  0  0  0  0
 16 11  1  0  0  0  0
 17 18  2  0  0  0  0
 20 21  1  0  0  0  0
 20 19  1  0  0  0  0
 21 17  1  0  0  0  0
 22 23  1  0  0  0  0
 22 21  2  0  0  0  0
 24 22  1  0  0  0  0
 25 24  1  0  0  0  0
 26 24  2  0  0  0  0
 26 27  1  0  0  0  0
 27 20  2  0  0  0  0
M  END
>  <minimizedAffinity>
-4.85064602

>  <minimizedRMSD>
2.01780081

$$$$
