
 OpenBabel03242523173D

 27 29  0  0  0  0  0  0  0  0999 V2000
   36.3730   27.7480   40.1090 C   0  0  0  0  0  0  0  0  0  0  0  0
   37.1120   27.5360   41.2250 C   0  0  0  0  0  0  0  0  0  0  0  0
   38.0660   26.5410   41.1210 C   0  0  0  0  0  0  0  0  0  0  0  0
   38.1820   25.8590   39.9150 N   0  0  0  0  0  0  0  0  0  0  0  0
   37.4140   26.1210   38.8520 C   0  0  0  0  0  0  0  0  0  0  0  0
   36.4560   27.1050   38.9220 N   0  0  0  0  0  0  0  0  0  0  0  0
   38.7370   26.2490   41.9160 H   0  0  0  0  0  0  0  0  0  0  0  0
   37.6600   25.4810   38.0120 H   0  0  0  0  0  0  0  0  0  0  0  0
   36.9360   28.1780   42.4780 C   0  0  0  0  0  0  0  0  0  0  0  0
   37.5160   27.9420   43.6790 C   0  0  0  0  0  0  0  0  0  0  0  0
   38.0500   29.1910   42.9860 C   0  0  0  0  0  0  0  0  0  0  0  0
   36.0740   28.9680   42.3500 H   0  0  0  0  0  0  0  0  0  0  0  0
   38.3480   27.2030   43.8250 H   0  0  0  0  0  0  0  0  0  0  0  0
   37.0240   28.1420   44.6770 H   0  0  0  0  0  0  0  0  0  0  0  0
   38.9510   29.1150   42.3490 H   0  0  0  0  0  0  0  0  0  0  0  0
   37.7540   30.1560   43.3760 H   0  0  0  0  0  0  0  0  0  0  0  0
   35.3830   28.8070   39.9090 C   0  0  0  0  0  0  0  0  0  0  0  0
   34.2480   29.2490   39.9330 O   0  0  0  0  0  0  0  0  0  0  0  0
   35.9510   31.0940   41.4560 F   0  0  0  0  0  0  0  0  0  0  0  0
   36.4310   31.1000   40.1940 C   0  0  0  0  0  0  0  0  0  0  0  0
   36.1650   29.9780   39.4060 C   0  0  0  0  0  0  0  0  0  0  0  0
   36.6950   30.0580   38.1120 C   0  0  0  0  0  0  0  0  0  0  0  0
   36.5130   29.2040   37.4570 H   0  0  0  0  0  0  0  0  0  0  0  0
   37.4120   31.1310   37.6400 C   0  0  0  0  0  0  0  0  0  0  0  0
   37.7850   31.1190   36.6360 H   0  0  0  0  0  0  0  0  0  0  0  0
   37.6230   32.1920   38.4920 C   0  0  0  0  0  3  0  0  0  0  0  0
   37.1500   32.2190   39.7790 C   0  0  0  0  0  3  0  0  0  0  0  0
  1  2  1  0  0  0  0
  2  9  1  0  0  0  0
  3  2  2  0  0  0  0
  3  7  1  0  0  0  0
  4  3  1  0  0  0  0
  5  6  1  0  0  0  0
  5  4  2  0  0  0  0
  6  1  2  0  0  0  0
  8  5  1  0  0  0  0
  9 11  1  0  0  0  0
  9 10  1  0  0  0  0
 10 13  1  0  0  0  0
 10 14  1  0  0  0  0
 11 16  1  0  0  0  0
 11 10  1  0  0  0  0
 12  9  1  0  0  0  0
 15 11  1  0  0  0  0
 17 18  2  0  0  0  0
 17  1  1  0  0  0  0
 20 19  1  0  0  0  0
 21 17  1  0  0  0  0
 21 20  2  0  0  0  0
 22 21  1  0  0  0  0
 23 22  1  0  0  0  0
 24 22  2  0  0  0  0
 24 26  1  0  0  0  0
 25 24  1  0  0  0  0
 26 27  2  0  0  0  0
 27 20  1  0  0  0  0
M  END
>  <minimizedAffinity>
-5.22327328

$$$$

 OpenBabel03242523173D

 27 29  0  0  0  0  0  0  0  0999 V2000
   37.5050   28.9350   42.0620 C   0  0  0  0  0  0  0  0  0  0  0  0
   37.1780   29.1440   40.7640 C   0  0  0  0  0  0  0  0  0  0  0  0
   37.9150   30.1210   40.1200 C   0  0  0  0  0  0  0  0  0  0  0  0
   38.9000   30.7890   40.8400 N   0  0  0  0  0  0  0  0  0  0  0  0
   39.1680   30.5300   42.1240 C   0  0  0  0  0  0  0  0  0  0  0  0
   38.4530   29.5640   42.7930 N   0  0  0  0  0  0  0  0  0  0  0  0
   37.7820   30.4090   39.0870 H   0  0  0  0  0  0  0  0  0  0  0  0
   39.9680   31.1570   42.5010 H   0  0  0  0  0  0  0  0  0  0  0  0
   36.1190   28.5180   40.0570 C   0  0  0  0  0  0  0  0  0  0  0  0
   35.6400   28.7380   38.8090 C   0  0  0  0  0  0  0  0  0  0  0  0
   36.4690   27.4630   38.9220 C   0  0  0  0  0  0  0  0  0  0  0  0
   35.6010   27.7650   40.7970 H   0  0  0  0  0  0  0  0  0  0  0  0
   36.1230   29.4430   38.0810 H   0  0  0  0  0  0  0  0  0  0  0  0
   34.5670   28.5660   38.4970 H   0  0  0  0  0  0  0  0  0  0  0  0
   37.5520   27.4980   38.6930 H   0  0  0  0  0  0  0  0  0  0  0  0
   35.9510   26.5140   38.8990 H   0  0  0  0  0  0  0  0  0  0  0  0
   36.9680   27.8910   42.9370 C   0  0  0  0  0  0  0  0  0  0  0  0
   36.1180   27.4270   43.6760 O   0  0  0  0  0  0  0  0  0  0  0  0
   36.7450   25.5050   41.4530 F   0  0  0  0  0  0  0  0  0  0  0  0
   37.8680   25.6390   42.1910 C   0  0  0  0  0  0  0  0  0  0  0  0
   38.0050   26.8140   42.9350 C   0  0  0  0  0  0  0  0  0  0  0  0
   39.1930   26.8790   43.6730 C   0  0  0  0  0  0  0  0  0  0  0  0
   39.3460   27.7790   44.2720 H   0  0  0  0  0  0  0  0  0  0  0  0
   40.1500   25.8930   43.6800 C   0  0  0  0  0  0  0  0  0  0  0  0
   41.0340   26.0160   44.2720 H   0  0  0  0  0  0  0  0  0  0  0  0
   39.9260   24.7710   42.9130 C   0  0  0  0  0  3  0  0  0  0  0  0
   38.7970   24.6020   42.1520 C   0  0  0  0  0  3  0  0  0  0  0  0
  1  6  1  0  0  0  0
  1 17  1  0  0  0  0
  2  1  2  0  0  0  0
  3  2  1  0  0  0  0
  3  4  2  0  0  0  0
  4  5  1  0  0  0  0
  5  8  1  0  0  0  0
  5  6  2  0  0  0  0
  7  3  1  0  0  0  0
  9  2  1  0  0  0  0
  9 12  1  0  0  0  0
 10 11  1  0  0  0  0
 10  9  1  0  0  0  0
 11  9  1  0  0  0  0
 13 10  1  0  0  0  0
 14 10  1  0  0  0  0
 15 11  1  0  0  0  0
 16 11  1  0  0  0  0
 17 18  2  0  0  0  0
 19 20  1  0  0  0  0
 20 21  1  0  0  0  0
 21 17  1  0  0  0  0
 21 22  2  0  0  0  0
 22 24  1  0  0  0  0
 22 23  1  0  0  0  0
 24 25  1  0  0  0  0
 26 24  2  0  0  0  0
 27 20  2  0  0  0  0
 27 26  1  0  0  0  0
M  END
>  <minimizedAffinity>
-5.08053112

$$$$

 OpenBabel03242523173D

 27 29  0  0  0  0  0  0  0  0999 V2000
   38.0830   29.4020   40.8900 C   0  0  0  0  0  0  0  0  0  0  0  0
   38.1480   28.1600   41.4280 C   0  0  0  0  0  0  0  0  0  0  0  0
   39.4170   27.6190   41.5110 C   0  0  0  0  0  0  0  0  0  0  0  0
   40.4900   28.3720   41.0460 N   0  0  0  0  0  0  0  0  0  0  0  0
   40.3500   29.5950   40.5240 C   0  0  0  0  0  0  0  0  0  0  0  0
   39.1010   30.1630   40.4290 N   0  0  0  0  0  0  0  0  0  0  0  0
   39.6420   26.6420   41.9140 H   0  0  0  0  0  0  0  0  0  0  0  0
   41.3030   30.0140   40.2220 H   0  0  0  0  0  0  0  0  0  0  0  0
   37.0440   27.3630   41.8260 C   0  0  0  0  0  0  0  0  0  0  0  0
   36.9980   26.2100   42.5370 C   0  0  0  0  0  0  0  0  0  0  0  0
   36.5490   27.4300   43.3340 C   0  0  0  0  0  0  0  0  0  0  0  0
   36.0800   27.8300   41.3390 H   0  0  0  0  0  0  0  0  0  0  0  0
   37.9010   25.7510   43.0200 H   0  0  0  0  0  0  0  0  0  0  0  0
   36.2020   25.4170   42.4180 H   0  0  0  0  0  0  0  0  0  0  0  0
   37.2880   27.9770   43.9510 H   0  0  0  0  0  0  0  0  0  0  0  0
   35.4940   27.5420   43.5440 H   0  0  0  0  0  0  0  0  0  0  0  0
   36.8910   30.2470   40.7920 C   0  0  0  0  0  0  0  0  0  0  0  0
   36.1420   31.1170   41.1990 O   0  0  0  0  0  0  0  0  0  0  0  0
   34.4090   28.9130   40.6790 F   0  0  0  0  0  0  0  0  0  0  0  0
   34.9970   29.1690   39.4910 C   0  0  0  0  0  0  0  0  0  0  0  0
   36.2270   29.8310   39.5180 C   0  0  0  0  0  0  0  0  0  0  0  0
   36.7740   30.0600   38.2490 C   0  0  0  0  0  0  0  0  0  0  0  0
   37.7360   30.5740   38.2180 H   0  0  0  0  0  0  0  0  0  0  0  0
   36.1740   29.6790   37.0730 C   0  0  0  0  0  0  0  0  0  0  0  0
   36.6550   29.8890   36.1390 H   0  0  0  0  0  0  0  0  0  0  0  0
   34.9610   29.0320   37.1480 C   0  0  0  0  0  3  0  0  0  0  0  0
   34.3350   28.7560   38.3370 C   0  0  0  0  0  3  0  0  0  0  0  0
  1  2  1  0  0  0  0
  2  3  2  0  0  0  0
  2  9  1  0  0  0  0
  3  7  1  0  0  0  0
  4  3  1  0  0  0  0
  5  4  2  0  0  0  0
  6  5  1  0  0  0  0
  6  1  2  0  0  0  0
  8  5  1  0  0  0  0
  9 10  1  0  0  0  0
  9 11  1  0  0  0  0
 10 13  1  0  0  0  0
 10 11  1  0  0  0  0
 11 16  1  0  0  0  0
 11 15  1  0  0  0  0
 12  9  1  0  0  0  0
 14 10  1  0  0  0  0
 17  1  1  0  0  0  0
 17 18  2  0  0  0  0
 20 21  1  0  0  0  0
 20 19  1  0  0  0  0
 21 17  1  0  0  0  0
 22 21  2  0  0  0  0
 23 22  1  0  0  0  0
 24 26  2  0  0  0  0
 24 22  1  0  0  0  0
 25 24  1  0  0  0  0
 26 27  1  0  0  0  0
 27 20  2  0  0  0  0
M  END
>  <minimizedAffinity>
-4.9266119

$$$$

 OpenBabel03242523173D

 27 29  0  0  0  0  0  0  0  0999 V2000
   38.1980   30.7120   39.7660 C   0  0  0  0  0  0  0  0  0  0  0  0
   39.1830   31.6370   39.6580 C   0  0  0  0  0  0  0  0  0  0  0  0
   40.0370   31.4660   38.5850 C   0  0  0  0  0  0  0  0  0  0  0  0
   39.8220   30.3880   37.7320 N   0  0  0  0  0  0  0  0  0  0  0  0
   38.8270   29.5110   37.9020 C   0  0  0  0  0  0  0  0  0  0  0  0
   37.9590   29.6540   38.9590 N   0  0  0  0  0  0  0  0  0  0  0  0
   40.8710   32.1140   38.3550 H   0  0  0  0  0  0  0  0  0  0  0  0
   38.8310   28.7470   37.1330 H   0  0  0  0  0  0  0  0  0  0  0  0
   39.4480   32.6870   40.5750 C   0  0  0  0  0  0  0  0  0  0  0  0
   40.1900   33.8120   40.4370 C   0  0  0  0  0  0  0  0  0  0  0  0
   38.6870   34.0710   40.4010 C   0  0  0  0  0  0  0  0  0  0  0  0
   38.9630   32.3850   41.6030 H   0  0  0  0  0  0  0  0  0  0  0  0
   40.6530   34.1270   39.4650 H   0  0  0  0  0  0  0  0  0  0  0  0
   40.7280   34.3310   41.2850 H   0  0  0  0  0  0  0  0  0  0  0  0
   38.1650   34.0960   39.4260 H   0  0  0  0  0  0  0  0  0  0  0  0
   38.2290   34.5380   41.2620 H   0  0  0  0  0  0  0  0  0  0  0  0
   37.0980   30.7210   40.7320 C   0  0  0  0  0  0  0  0  0  0  0  0
   36.0620   31.1680   41.1910 O   0  0  0  0  0  0  0  0  0  0  0  0
   35.4470   28.4480   40.9670 F   0  0  0  0  0  0  0  0  0  0  0  0
   36.5460   28.4640   41.7510 C   0  0  0  0  0  0  0  0  0  0  0  0
   37.3830   29.5780   41.6530 C   0  0  0  0  0  0  0  0  0  0  0  0
   38.5000   29.5220   42.4960 C   0  0  0  0  0  0  0  0  0  0  0  0
   39.1850   30.3710   42.4560 H   0  0  0  0  0  0  0  0  0  0  0  0
   38.7690   28.4780   43.3480 C   0  0  0  0  0  0  0  0  0  0  0  0
   39.6440   28.5080   43.9640 H   0  0  0  0  0  0  0  0  0  0  0  0
   37.8840   27.4230   43.3750 C   0  0  0  0  0  3  0  0  0  0  0  0
   36.7590   27.3730   42.5920 C   0  0  0  0  0  3  0  0  0  0  0  0
  1 17  1  0  0  0  0
  2  1  1  0  0  0  0
  2  9  1  0  0  0  0
  3  2  2  0  0  0  0
  4  5  2  0  0  0  0
  4  3  1  0  0  0  0
  5  6  1  0  0  0  0
  6  1  2  0  0  0  0
  7  3  1  0  0  0  0
  8  5  1  0  0  0  0
  9 12  1  0  0  0  0
 10  9  1  0  0  0  0
 10 14  1  0  0  0  0
 11 10  1  0  0  0  0
 11  9  1  0  0  0  0
 11 16  1  0  0  0  0
 13 10  1  0  0  0  0
 15 11  1  0  0  0  0
 17 18  2  0  0  0  0
 17 21  1  0  0  0  0
 19 20  1  0  0  0  0
 20 27  1  0  0  0  0
 21 20  2  0  0  0  0
 21 22  1  0  0  0  0
 22 24  2  0  0  0  0
 23 22  1  0  0  0  0
 24 26  1  0  0  0  0
 24 25  1  0  0  0  0
 27 26  2  0  0  0  0
M  END
>  <minimizedAffinity>
-4.85418844

$$$$

 OpenBabel03242523173D

 27 29  0  0  0  0  0  0  0  0999 V2000
   36.2730   27.9600   40.7890 C   0  0  0  0  0  0  0  0  0  0  0  0
   36.8990   26.9440   40.1480 C   0  0  0  0  0  0  0  0  0  0  0  0
   37.6730   26.1270   40.9510 C   0  0  0  0  0  0  0  0  0  0  0  0
   37.7440   26.4110   42.3100 N   0  0  0  0  0  0  0  0  0  0  0  0
   37.0980   27.4360   42.8760 C   0  0  0  0  0  0  0  0  0  0  0  0
   36.3190   28.2670   42.1050 N   0  0  0  0  0  0  0  0  0  0  0  0
   38.2340   25.2740   40.5980 H   0  0  0  0  0  0  0  0  0  0  0  0
   37.2830   27.4870   43.9430 H   0  0  0  0  0  0  0  0  0  0  0  0
   36.8890   26.7060   38.7490 C   0  0  0  0  0  0  0  0  0  0  0  0
   37.1780   25.5860   38.0420 C   0  0  0  0  0  0  0  0  0  0  0  0
   35.6840   25.8850   38.1160 C   0  0  0  0  0  0  0  0  0  0  0  0
   36.6560   27.7300   38.2200 H   0  0  0  0  0  0  0  0  0  0  0  0
   37.3920   24.5950   38.5220 H   0  0  0  0  0  0  0  0  0  0  0  0
   37.5970   25.5840   36.9920 H   0  0  0  0  0  0  0  0  0  0  0  0
   35.0780   25.4230   38.9180 H   0  0  0  0  0  0  0  0  0  0  0  0
   35.1940   26.2590   37.2270 H   0  0  0  0  0  0  0  0  0  0  0  0
   35.3100   28.8950   40.2050 C   0  0  0  0  0  0  0  0  0  0  0  0
   34.1890   29.2210   39.8560 O   0  0  0  0  0  0  0  0  0  0  0  0
   36.1220   29.4830   37.5700 F   0  0  0  0  0  0  0  0  0  0  0  0
   36.5070   30.3650   38.5180 C   0  0  0  0  0  0  0  0  0  0  0  0
   36.1160   30.0980   39.8320 C   0  0  0  0  0  0  0  0  0  0  0  0
   36.5530   31.0550   40.7570 C   0  0  0  0  0  0  0  0  0  0  0  0
   36.2730   30.8900   41.7990 H   0  0  0  0  0  0  0  0  0  0  0  0
   37.2980   32.1610   40.4250 C   0  0  0  0  0  0  0  0  0  0  0  0
   37.5960   32.8490   41.1900 H   0  0  0  0  0  0  0  0  0  0  0  0
   37.6350   32.3390   39.1010 C   0  0  0  0  0  3  0  0  0  0  0  0
   37.2600   31.4650   38.1130 C   0  0  0  0  0  3  0  0  0  0  0  0
  1  6  1  0  0  0  0
  2  1  2  0  0  0  0
  2  3  1  0  0  0  0
  3  4  2  0  0  0  0
  4  5  1  0  0  0  0
  5  8  1  0  0  0  0
  6  5  2  0  0  0  0
  7  3  1  0  0  0  0
  9  2  1  0  0  0  0
 10 11  1  0  0  0  0
 10 13  1  0  0  0  0
 10  9  1  0  0  0  0
 11  9  1  0  0  0  0
 11 15  1  0  0  0  0
 12  9  1  0  0  0  0
 14 10  1  0  0  0  0
 16 11  1  0  0  0  0
 17  1  1  0  0  0  0
 18 17  2  0  0  0  0
 19 20  1  0  0  0  0
 20 21  1  0  0  0  0
 21 17  1  0  0  0  0
 21 22  2  0  0  0  0
 22 23  1  0  0  0  0
 24 22  1  0  0  0  0
 24 25  1  0  0  0  0
 26 24  2  0  0  0  0
 27 20  2  0  0  0  0
 27 26  1  0  0  0  0
M  END
>  <minimizedAffinity>
-4.77086401

$$$$

 OpenBabel03242523173D

 27 29  0  0  0  0  0  0  0  0999 V2000
   36.9080   26.5370   41.4030 C   0  0  0  0  0  0  0  0  0  0  0  0
   36.6380   27.1000   40.2000 C   0  0  0  0  0  0  0  0  0  0  0  0
   36.4830   26.2100   39.1530 C   0  0  0  0  0  0  0  0  0  0  0  0
   36.6170   24.8510   39.4150 N   0  0  0  0  0  0  0  0  0  0  0  0
   36.8870   24.3650   40.6310 C   0  0  0  0  0  0  0  0  0  0  0  0
   37.0460   25.2240   41.6940 N   0  0  0  0  0  0  0  0  0  0  0  0
   36.2630   26.4950   38.1340 H   0  0  0  0  0  0  0  0  0  0  0  0
   36.9510   23.2830   40.6250 H   0  0  0  0  0  0  0  0  0  0  0  0
   36.5830   28.4900   39.9220 C   0  0  0  0  0  0  0  0  0  0  0  0
   36.0200   29.1610   38.8880 C   0  0  0  0  0  0  0  0  0  0  0  0
   35.2260   29.2750   40.1850 C   0  0  0  0  0  0  0  0  0  0  0  0
   37.2250   29.0380   40.7410 H   0  0  0  0  0  0  0  0  0  0  0  0
   35.3940   28.6640   38.1000 H   0  0  0  0  0  0  0  0  0  0  0  0
   36.3960   30.1500   38.4880 H   0  0  0  0  0  0  0  0  0  0  0  0
   34.4060   28.5580   40.3830 H   0  0  0  0  0  0  0  0  0  0  0  0
   35.2500   30.2160   40.7170 H   0  0  0  0  0  0  0  0  0  0  0  0
   37.0040   27.2320   42.6870 C   0  0  0  0  0  0  0  0  0  0  0  0
   36.5210   27.7480   43.6800 O   0  0  0  0  0  0  0  0  0  0  0  0
   38.4070   29.5990   42.0710 F   0  0  0  0  0  0  0  0  0  0  0  0
   39.1410   28.5980   42.6030 C   0  0  0  0  0  0  0  0  0  0  0  0
   38.4700   27.4140   42.9200 C   0  0  0  0  0  0  0  0  0  0  0  0
   39.2970   26.4250   43.4650 C   0  0  0  0  0  0  0  0  0  0  0  0
   38.8180   25.4800   43.7290 H   0  0  0  0  0  0  0  0  0  0  0  0
   40.6450   26.5810   43.6800 C   0  0  0  0  0  0  0  0  0  0  0  0
   41.2120   25.7770   44.1010 H   0  0  0  0  0  0  0  0  0  0  0  0
   41.2180   27.7860   43.3360 C   0  0  0  0  0  3  0  0  0  0  0  0
   40.5030   28.8230   42.7940 C   0  0  0  0  0  3  0  0  0  0  0  0
  1  6  1  0  0  0  0
  1 17  1  0  0  0  0
  2  1  2  0  0  0  0
  3  4  2  0  0  0  0
  3  2  1  0  0  0  0
  4  5  1  0  0  0  0
  5  6  2  0  0  0  0
  7  3  1  0  0  0  0
  8  5  1  0  0  0  0
  9 11  1  0  0  0  0
  9  2  1  0  0  0  0
  9 12  1  0  0  0  0
 10  9  1  0  0  0  0
 10 11  1  0  0  0  0
 11 15  1  0  0  0  0
 11 16  1  0  0  0  0
 13 10  1  0  0  0  0
 14 10  1  0  0  0  0
 17 21  1  0  0  0  0
 17 18  2  0  0  0  0
 19 20  1  0  0  0  0
 20 27  2  0  0  0  0
 20 21  1  0  0  0  0
 21 22  2  0  0  0  0
 22 24  1  0  0  0  0
 22 23  1  0  0  0  0
 24 25  1  0  0  0  0
 26 24  2  0  0  0  0
 27 26  1  0  0  0  0
M  END
>  <minimizedAffinity>
-4.74049902

$$$$

 OpenBabel03242523173D

 27 29  0  0  0  0  0  0  0  0999 V2000
   37.6580   29.9080   39.2090 C   0  0  0  0  0  0  0  0  0  0  0  0
   37.0040   29.4240   38.1250 C   0  0  0  0  0  0  0  0  0  0  0  0
   37.7970   28.7710   37.2000 C   0  0  0  0  0  0  0  0  0  0  0  0
   39.1600   28.6690   37.4530 N   0  0  0  0  0  0  0  0  0  0  0  0
   39.7390   29.1730   38.5470 C   0  0  0  0  0  0  0  0  0  0  0  0
   38.9790   29.8280   39.4870 N   0  0  0  0  0  0  0  0  0  0  0  0
   37.4320   28.3270   36.2850 H   0  0  0  0  0  0  0  0  0  0  0  0
   40.8080   28.9890   38.5560 H   0  0  0  0  0  0  0  0  0  0  0  0
   35.6260   29.6010   37.8330 C   0  0  0  0  0  0  0  0  0  0  0  0
   34.8260   28.9680   36.9420 C   0  0  0  0  0  0  0  0  0  0  0  0
   34.5800   28.5410   38.3850 C   0  0  0  0  0  0  0  0  0  0  0  0
   35.2480   30.5170   38.4650 H   0  0  0  0  0  0  0  0  0  0  0  0
   35.1590   28.0850   36.3350 H   0  0  0  0  0  0  0  0  0  0  0  0
   33.9290   29.4400   36.4410 H   0  0  0  0  0  0  0  0  0  0  0  0
   35.1120   27.6570   38.7870 H   0  0  0  0  0  0  0  0  0  0  0  0
   33.6790   28.8860   38.8730 H   0  0  0  0  0  0  0  0  0  0  0  0
   37.0500   30.5340   40.3850 C   0  0  0  0  0  0  0  0  0  0  0  0
   36.5000   31.4560   40.9590 O   0  0  0  0  0  0  0  0  0  0  0  0
   38.9030   30.6670   42.5060 F   0  0  0  0  0  0  0  0  0  0  0  0
   38.0810   29.5950   42.5050 C   0  0  0  0  0  0  0  0  0  0  0  0
   37.1520   29.5060   41.4660 C   0  0  0  0  0  0  0  0  0  0  0  0
   36.3370   28.3690   41.5330 C   0  0  0  0  0  0  0  0  0  0  0  0
   35.5940   28.2530   40.7420 H   0  0  0  0  0  0  0  0  0  0  0  0
   36.4250   27.4170   42.5210 C   0  0  0  0  0  0  0  0  0  0  0  0
   35.7660   26.5720   42.5040 H   0  0  0  0  0  0  0  0  0  0  0  0
   37.3730   27.5920   43.5030 C   0  0  0  0  0  3  0  0  0  0  0  0
   38.2230   28.6680   43.5350 C   0  0  0  0  0  3  0  0  0  0  0  0
  1  6  1  0  0  0  0
  1 17  1  0  0  0  0
  2  1  2  0  0  0  0
  3  4  2  0  0  0  0
  3  2  1  0  0  0  0
  4  5  1  0  0  0  0
  5  8  1  0  0  0  0
  5  6  2  0  0  0  0
  7  3  1  0  0  0  0
  9  2  1  0  0  0  0
  9 11  1  0  0  0  0
  9 12  1  0  0  0  0
 10  9  1  0  0  0  0
 10 11  1  0  0  0  0
 11 15  1  0  0  0  0
 11 16  1  0  0  0  0
 13 10  1  0  0  0  0
 14 10  1  0  0  0  0
 17 18  2  0  0  0  0
 17 21  1  0  0  0  0
 20 19  1  0  0  0  0
 20 27  1  0  0  0  0
 21 22  1  0  0  0  0
 21 20  2  0  0  0  0
 22 24  2  0  0  0  0
 23 22  1  0  0  0  0
 24 26  1  0  0  0  0
 25 24  1  0  0  0  0
 26 27  2  0  0  0  0
M  END
>  <minimizedAffinity>
-4.71552086

$$$$

 OpenBabel03242523173D

 27 29  0  0  0  0  0  0  0  0999 V2000
   37.4430   30.0370   41.0870 C   0  0  0  0  0  0  0  0  0  0  0  0
   37.8850   30.8720   40.1160 C   0  0  0  0  0  0  0  0  0  0  0  0
   39.0770   31.5170   40.3880 C   0  0  0  0  0  0  0  0  0  0  0  0
   39.7040   31.2630   41.6040 N   0  0  0  0  0  0  0  0  0  0  0  0
   39.2070   30.4250   42.5190 C   0  0  0  0  0  0  0  0  0  0  0  0
   38.0240   29.7660   42.2780 N   0  0  0  0  0  0  0  0  0  0  0  0
   39.5650   32.2130   39.7210 H   0  0  0  0  0  0  0  0  0  0  0  0
   39.8430   30.3650   43.3950 H   0  0  0  0  0  0  0  0  0  0  0  0
   37.2020   31.1900   38.9130 C   0  0  0  0  0  0  0  0  0  0  0  0
   37.6520   31.7500   37.7650 C   0  0  0  0  0  0  0  0  0  0  0  0
   37.3970   30.2510   37.6470 C   0  0  0  0  0  0  0  0  0  0  0  0
   36.0610   30.9610   39.0860 H   0  0  0  0  0  0  0  0  0  0  0  0
   38.7360   31.9670   37.5710 H   0  0  0  0  0  0  0  0  0  0  0  0
   37.0210   32.3820   37.0720 H   0  0  0  0  0  0  0  0  0  0  0  0
   38.2290   29.5430   37.8230 H   0  0  0  0  0  0  0  0  0  0  0  0
   36.5300   29.9240   37.0880 H   0  0  0  0  0  0  0  0  0  0  0  0
   36.2820   29.1500   41.0110 C   0  0  0  0  0  0  0  0  0  0  0  0
   35.0840   28.9340   40.9440 O   0  0  0  0  0  0  0  0  0  0  0  0
   36.1460   27.4120   43.2270 F   0  0  0  0  0  0  0  0  0  0  0  0
   36.7710   26.9260   42.1320 C   0  0  0  0  0  0  0  0  0  0  0  0
   36.8500   27.7670   41.0190 C   0  0  0  0  0  0  0  0  0  0  0  0
   37.5110   27.1950   39.9250 C   0  0  0  0  0  0  0  0  0  0  0  0
   37.5990   27.8130   39.0300 H   0  0  0  0  0  0  0  0  0  0  0  0
   38.0400   25.9260   39.9230 C   0  0  0  0  0  0  0  0  0  0  0  0
   38.5330   25.5580   39.0470 H   0  0  0  0  0  0  0  0  0  0  0  0
   37.9120   25.1720   41.0690 C   0  0  0  0  0  3  0  0  0  0  0  0
   37.2840   25.6330   42.1980 C   0  0  0  0  0  3  0  0  0  0  0  0
  1  6  1  0  0  0  0
  2  3  1  0  0  0  0
  2  1  2  0  0  0  0
  3  4  2  0  0  0  0
  4  5  1  0  0  0  0
  5  8  1  0  0  0  0
  6  5  2  0  0  0  0
  7  3  1  0  0  0  0
  9 12  1  0  0  0  0
  9  2  1  0  0  0  0
 10  9  1  0  0  0  0
 11 10  1  0  0  0  0
 11 15  1  0  0  0  0
 11  9  1  0  0  0  0
 13 10  1  0  0  0  0
 14 10  1  0  0  0  0
 16 11  1  0  0  0  0
 17 21  1  0  0  0  0
 17  1  1  0  0  0  0
 18 17  2  0  0  0  0
 20 27  1  0  0  0  0
 20 19  1  0  0  0  0
 21 20  2  0  0  0  0
 22 21  1  0  0  0  0
 23 22  1  0  0  0  0
 24 22  2  0  0  0  0
 24 26  1  0  0  0  0
 25 24  1  0  0  0  0
 26 27  2  0  0  0  0
M  END
>  <minimizedAffinity>
-4.70318604

$$$$

 OpenBabel03242523173D

 27 29  0  0  0  0  0  0  0  0999 V2000
   37.8890   25.9610   42.4650 C   0  0  0  0  0  0  0  0  0  0  0  0
   39.2320   26.0150   42.6370 C   0  0  0  0  0  0  0  0  0  0  0  0
   39.9460   25.0030   42.0230 C   0  0  0  0  0  0  0  0  0  0  0  0
   39.2460   24.0420   41.3020 N   0  0  0  0  0  0  0  0  0  0  0  0
   37.9150   24.0510   41.1750 C   0  0  0  0  0  0  0  0  0  0  0  0
   37.1750   25.0440   41.7740 N   0  0  0  0  0  0  0  0  0  0  0  0
   41.0210   24.9010   42.0600 H   0  0  0  0  0  0  0  0  0  0  0  0
   37.5630   23.2190   40.5770 H   0  0  0  0  0  0  0  0  0  0  0  0
   39.9350   26.9500   43.4400 C   0  0  0  0  0  0  0  0  0  0  0  0
   41.2620   27.0850   43.6800 C   0  0  0  0  0  0  0  0  0  0  0  0
   40.7080   28.1440   42.7320 C   0  0  0  0  0  0  0  0  0  0  0  0
   39.1340   27.6080   43.9950 H   0  0  0  0  0  0  0  0  0  0  0  0
   42.0460   26.4770   43.1550 H   0  0  0  0  0  0  0  0  0  0  0  0
   41.6990   27.5030   44.6350 H   0  0  0  0  0  0  0  0  0  0  0  0
   40.7530   27.9720   41.6400 H   0  0  0  0  0  0  0  0  0  0  0  0
   40.5890   29.1520   43.1070 H   0  0  0  0  0  0  0  0  0  0  0  0
   36.9140   26.9610   42.9060 C   0  0  0  0  0  0  0  0  0  0  0  0
   36.0790   27.3940   43.6800 O   0  0  0  0  0  0  0  0  0  0  0  0
   37.8470   29.5820   43.3620 F   0  0  0  0  0  0  0  0  0  0  0  0
   37.4170   29.3180   42.1100 C   0  0  0  0  0  0  0  0  0  0  0  0
   36.9510   28.0250   41.8560 C   0  0  0  0  0  0  0  0  0  0  0  0
   36.5230   27.8280   40.5370 C   0  0  0  0  0  0  0  0  0  0  0  0
   36.1490   26.8330   40.2890 H   0  0  0  0  0  0  0  0  0  0  0  0
   36.5490   28.8010   39.5660 C   0  0  0  0  0  0  0  0  0  0  0  0
   36.2030   28.5740   38.5790 H   0  0  0  0  0  0  0  0  0  0  0  0
   37.0260   30.0450   39.9120 C   0  0  0  0  0  3  0  0  0  0  0  0
   37.4710   30.3480   41.1740 C   0  0  0  0  0  3  0  0  0  0  0  0
  1  2  1  0  0  0  0
  1 17  1  0  0  0  0
  2  9  1  0  0  0  0
  3  7  1  0  0  0  0
  3  2  2  0  0  0  0
  4  3  1  0  0  0  0
  5  4  2  0  0  0  0
  5  6  1  0  0  0  0
  6  1  2  0  0  0  0
  8  5  1  0  0  0  0
  9 10  1  0  0  0  0
  9 12  1  0  0  0  0
 10 14  1  0  0  0  0
 11 16  1  0  0  0  0
 11  9  1  0  0  0  0
 11 10  1  0  0  0  0
 13 10  1  0  0  0  0
 15 11  1  0  0  0  0
 17 18  2  0  0  0  0
 20 19  1  0  0  0  0
 21 20  1  0  0  0  0
 21 17  1  0  0  0  0
 22 21  2  0  0  0  0
 23 22  1  0  0  0  0
 24 26  2  0  0  0  0
 24 22  1  0  0  0  0
 25 24  1  0  0  0  0
 26 27  1  0  0  0  0
 27 20  2  0  0  0  0
M  END
>  <minimizedAffinity>
-4.70094824

$$$$
