
 OpenBabel03242512053D

 20 21  0  0  0  0  0  0  0  0999 V2000
   37.0190   27.5920   42.7990 C   0  0  0  0  0  0  0  0  0  0  0  0
   36.1340   27.3940   43.6790 O   0  0  0  0  0  0  0  0  0  0  0  0
   35.7600   28.7680   41.0520 C   0  0  0  0  0  0  0  0  0  0  0  0
   36.8480   28.7390   41.9460 C   0  0  0  0  0  0  0  0  0  0  0  0
   37.7180   29.8180   41.9770 C   0  0  0  0  0  0  0  0  0  0  0  0
   37.4650   30.8480   41.1330 N   0  0  0  0  0  0  0  0  0  0  0  0
   36.4220   30.8720   40.2770 C   0  0  0  0  0  0  0  0  0  0  0  0
   35.5770   29.8340   40.2410 N   0  0  0  0  0  0  0  0  0  0  0  0
   35.0570   27.9450   40.9970 H   0  0  0  0  0  0  0  0  0  0  0  0
   38.5600   29.8160   42.6580 H   0  0  0  0  0  0  0  0  0  0  0  0
   36.2520   31.7190   39.6120 H   0  0  0  0  0  0  0  0  0  0  0  0
   36.8300   25.1040   41.4570 F   0  0  0  0  0  0  0  0  0  0  0  0
   37.9500   25.3620   42.1940 C   0  0  0  0  0  0  0  0  0  0  0  0
   38.0570   26.5680   42.8520 C   0  0  0  0  0  0  0  0  0  0  0  0
   39.2190   26.7480   43.5730 C   0  0  0  0  0  0  0  0  0  0  0  0
   39.3950   27.6810   44.1320 H   0  0  0  0  0  0  0  0  0  0  0  0
   40.1870   25.7650   43.6090 C   0  0  0  0  0  0  0  0  0  0  0  0
   41.1070   25.8840   44.1690 H   0  0  0  0  0  0  0  0  0  0  0  0
   40.0480   24.5640   42.9360 C   0  0  0  0  0  3  0  0  0  0  0  0
   38.8980   24.3600   42.2100 C   0  0  0  0  0  3  0  0  0  0  0  0
  1 14  1  0  0  0  0
  1  2  2  0  0  0  0
  3  4  1  0  0  0  0
  4  5  2  0  0  0  0
  4  1  1  0  0  0  0
  5 10  1  0  0  0  0
  6  5  1  0  0  0  0
  7  6  2  0  0  0  0
  8  7  1  0  0  0  0
  8  3  2  0  0  0  0
  9  3  1  0  0  0  0
 11  7  1  0  0  0  0
 12 13  1  0  0  0  0
 13 20  2  0  0  0  0
 13 14  1  0  0  0  0
 14 15  2  0  0  0  0
 15 17  1  0  0  0  0
 15 16  1  0  0  0  0
 17 18  1  0  0  0  0
 19 17  2  0  0  0  0
 20 19  1  0  0  0  0
M  END
>  <minimizedAffinity>
-4.96985197

$$$$

 OpenBabel03242512053D

 20 21  0  0  0  0  0  0  0  0999 V2000
   36.8460   27.5590   42.7140 C   0  0  0  0  0  0  0  0  0  0  0  0
   36.0370   27.4560   43.6800 O   0  0  0  0  0  0  0  0  0  0  0  0
   35.6710   28.7810   40.9410 C   0  0  0  0  0  0  0  0  0  0  0  0
   36.7210   28.7240   41.8780 C   0  0  0  0  0  0  0  0  0  0  0  0
   37.6000   29.7930   41.9650 C   0  0  0  0  0  0  0  0  0  0  0  0
   37.3920   30.8420   41.1310 N   0  0  0  0  0  0  0  0  0  0  0  0
   36.3850   30.8930   40.2340 C   0  0  0  0  0  0  0  0  0  0  0  0
   35.5320   29.8650   40.1430 N   0  0  0  0  0  0  0  0  0  0  0  0
   34.9620   27.9670   40.8400 H   0  0  0  0  0  0  0  0  0  0  0  0
   38.4130   29.7690   42.6790 H   0  0  0  0  0  0  0  0  0  0  0  0
   36.2500   31.7540   39.5800 H   0  0  0  0  0  0  0  0  0  0  0  0
   39.5110   27.6540   43.6730 F   0  0  0  0  0  0  0  0  0  0  0  0
   39.0540   26.4850   43.1370 C   0  0  0  0  0  0  0  0  0  0  0  0
   37.7600   26.4230   42.6660 C   0  0  0  0  0  0  0  0  0  0  0  0
   37.3790   25.2060   42.1410 C   0  0  0  0  0  0  0  0  0  0  0  0
   36.3630   25.0600   41.7400 H   0  0  0  0  0  0  0  0  0  0  0  0
   38.2610   24.1450   42.1060 C   0  0  0  0  0  0  0  0  0  0  0  0
   37.9830   23.1800   41.6970 H   0  0  0  0  0  0  0  0  0  0  0  0
   39.5540   24.2410   42.5870 C   0  0  0  0  0  3  0  0  0  0  0  0
   39.9580   25.4440   43.1160 C   0  0  0  0  0  3  0  0  0  0  0  0
  1  2  2  0  0  0  0
  3  4  1  0  0  0  0
  4  5  2  0  0  0  0
  4  1  1  0  0  0  0
  5 10  1  0  0  0  0
  6  5  1  0  0  0  0
  7  6  2  0  0  0  0
  8  7  1  0  0  0  0
  8  3  2  0  0  0  0
  9  3  1  0  0  0  0
 11  7  1  0  0  0  0
 13 12  1  0  0  0  0
 14  1  1  0  0  0  0
 14 13  2  0  0  0  0
 15 14  1  0  0  0  0
 16 15  1  0  0  0  0
 17 15  2  0  0  0  0
 17 19  1  0  0  0  0
 18 17  1  0  0  0  0
 19 20  2  0  0  0  0
 20 13  1  0  0  0  0
M  END
>  <minimizedAffinity>
-4.87608242

$$$$

 OpenBabel03242512053D

 20 21  0  0  0  0  0  0  0  0999 V2000
   37.0890   27.5400   42.7970 C   0  0  0  0  0  0  0  0  0  0  0  0
   36.1890   27.4320   43.6770 O   0  0  0  0  0  0  0  0  0  0  0  0
   38.1350   25.4420   42.0720 C   0  0  0  0  0  0  0  0  0  0  0  0
   38.1830   26.6070   42.8630 C   0  0  0  0  0  0  0  0  0  0  0  0
   39.2840   26.8160   43.6800 C   0  0  0  0  0  0  0  0  0  0  0  0
   40.2590   25.8750   43.6660 N   0  0  0  0  0  0  0  0  0  0  0  0
   40.2090   24.7600   42.9070 C   0  0  0  0  0  0  0  0  0  0  0  0
   39.1500   24.5500   42.1160 N   0  0  0  0  0  0  0  0  0  0  0  0
   37.2930   25.2400   41.4200 H   0  0  0  0  0  0  0  0  0  0  0  0
   39.3410   27.7050   44.2950 H   0  0  0  0  0  0  0  0  0  0  0  0
   41.0140   24.0250   42.9240 H   0  0  0  0  0  0  0  0  0  0  0  0
   38.4760   30.0110   42.8250 F   0  0  0  0  0  0  0  0  0  0  0  0
   37.4840   29.8320   41.9030 C   0  0  0  0  0  0  0  0  0  0  0  0
   36.8010   28.6360   41.8780 C   0  0  0  0  0  0  0  0  0  0  0  0
   35.8160   28.5370   40.9170 C   0  0  0  0  0  0  0  0  0  0  0  0
   35.2160   27.6180   40.8190 H   0  0  0  0  0  0  0  0  0  0  0  0
   35.5600   29.5860   40.0580 C   0  0  0  0  0  0  0  0  0  0  0  0
   34.7910   29.5310   39.2960 H   0  0  0  0  0  0  0  0  0  0  0  0
   36.2650   30.7750   40.1110 C   0  0  0  0  0  3  0  0  0  0  0  0
   37.2530   30.8980   41.0600 C   0  0  0  0  0  3  0  0  0  0  0  0
  1  4  1  0  0  0  0
  1  2  2  0  0  0  0
  3  8  2  0  0  0  0
  3  4  1  0  0  0  0
  4  5  2  0  0  0  0
  5 10  1  0  0  0  0
  6  5  1  0  0  0  0
  7 11  1  0  0  0  0
  7  6  2  0  0  0  0
  8  7  1  0  0  0  0
  9  3  1  0  0  0  0
 13 12  1  0  0  0  0
 14 13  1  0  0  0  0
 14  1  1  0  0  0  0
 15 14  2  0  0  0  0
 16 15  1  0  0  0  0
 17 19  2  0  0  0  0
 17 15  1  0  0  0  0
 18 17  1  0  0  0  0
 19 20  1  0  0  0  0
 20 13  2  0  0  0  0
M  END
>  <minimizedAffinity>
-4.83300018

$$$$

 OpenBabel03242512053D

 20 21  0  0  0  0  0  0  0  0999 V2000
   35.7550   29.2030   40.2870 C   0  0  0  0  0  0  0  0  0  0  0  0
   34.5000   29.1340   40.1530 O   0  0  0  0  0  0  0  0  0  0  0  0
   36.7520   31.4020   40.7190 C   0  0  0  0  0  0  0  0  0  0  0  0
   36.4000   30.3940   39.8010 C   0  0  0  0  0  0  0  0  0  0  0  0
   36.6870   30.5820   38.4570 C   0  0  0  0  0  0  0  0  0  0  0  0
   37.2960   31.7400   38.1050 N   0  0  0  0  0  0  0  0  0  0  0  0
   37.6320   32.7040   38.9880 C   0  0  0  0  0  0  0  0  0  0  0  0
   37.3590   32.5310   40.2870 N   0  0  0  0  0  0  0  0  0  0  0  0
   36.5460   31.2950   41.7780 H   0  0  0  0  0  0  0  0  0  0  0  0
   36.4250   29.8190   37.7360 H   0  0  0  0  0  0  0  0  0  0  0  0
   38.1220   33.6240   38.6660 H   0  0  0  0  0  0  0  0  0  0  0  0
   36.4320   26.8390   38.8780 F   0  0  0  0  0  0  0  0  0  0  0  0
   36.6090   26.8630   40.2320 C   0  0  0  0  0  0  0  0  0  0  0  0
   36.2840   28.0050   40.9310 C   0  0  0  0  0  0  0  0  0  0  0  0
   36.4920   27.9460   42.2930 C   0  0  0  0  0  0  0  0  0  0  0  0
   36.2630   28.8100   42.9360 H   0  0  0  0  0  0  0  0  0  0  0  0
   36.9940   26.8010   42.8810 C   0  0  0  0  0  0  0  0  0  0  0  0
   37.1650   26.7320   43.9490 H   0  0  0  0  0  0  0  0  0  0  0  0
   37.3100   25.6710   42.1490 C   0  0  0  0  0  3  0  0  0  0  0  0
   37.1110   25.7060   40.7890 C   0  0  0  0  0  3  0  0  0  0  0  0
  1 14  1  0  0  0  0
  2  1  2  0  0  0  0
  3  9  1  0  0  0  0
  4  1  1  0  0  0  0
  4  3  2  0  0  0  0
  5  4  1  0  0  0  0
  6  5  2  0  0  0  0
  6  7  1  0  0  0  0
  7  8  2  0  0  0  0
  8  3  1  0  0  0  0
 10  5  1  0  0  0  0
 11  7  1  0  0  0  0
 12 13  1  0  0  0  0
 13 20  2  0  0  0  0
 13 14  1  0  0  0  0
 14 15  2  0  0  0  0
 15 17  1  0  0  0  0
 15 16  1  0  0  0  0
 17 18  1  0  0  0  0
 19 17  2  0  0  0  0
 20 19  1  0  0  0  0
M  END
>  <minimizedAffinity>
-4.64231539

$$$$

 OpenBabel03242512053D

 20 21  0  0  0  0  0  0  0  0999 V2000
   37.3400   30.7570   41.0240 C   0  0  0  0  0  0  0  0  0  0  0  0
   36.1610   31.2140   41.0410 O   0  0  0  0  0  0  0  0  0  0  0  0
   38.7460   32.7650   40.9240 C   0  0  0  0  0  0  0  0  0  0  0  0
   38.3370   31.5460   40.3490 C   0  0  0  0  0  0  0  0  0  0  0  0
   38.9080   31.1450   39.1510 C   0  0  0  0  0  0  0  0  0  0  0  0
   39.8380   31.9620   38.5990 N   0  0  0  0  0  0  0  0  0  0  0  0
   40.2280   33.1300   39.1520 C   0  0  0  0  0  0  0  0  0  0  0  0
   39.6810   33.5240   40.3090 N   0  0  0  0  0  0  0  0  0  0  0  0
   38.3240   33.1150   41.8590 H   0  0  0  0  0  0  0  0  0  0  0  0
   38.6080   30.2110   38.6930 H   0  0  0  0  0  0  0  0  0  0  0  0
   40.9790   33.7610   38.6780 H   0  0  0  0  0  0  0  0  0  0  0  0
   39.0230   30.2990   43.2570 F   0  0  0  0  0  0  0  0  0  0  0  0
   38.2450   29.2710   42.8070 C   0  0  0  0  0  0  0  0  0  0  0  0
   37.4210   29.4790   41.7220 C   0  0  0  0  0  0  0  0  0  0  0  0
   36.6700   28.3890   41.3320 C   0  0  0  0  0  0  0  0  0  0  0  0
   35.9810   28.4590   40.4750 H   0  0  0  0  0  0  0  0  0  0  0  0
   36.7640   27.1890   42.0070 C   0  0  0  0  0  0  0  0  0  0  0  0
   36.1830   26.3200   41.7180 H   0  0  0  0  0  0  0  0  0  0  0  0
   37.6020   27.0140   43.0930 C   0  0  0  0  0  3  0  0  0  0  0  0
   38.3620   28.0860   43.5020 C   0  0  0  0  0  3  0  0  0  0  0  0
  1  2  2  0  0  0  0
  1 14  1  0  0  0  0
  3  9  1  0  0  0  0
  4  3  1  0  0  0  0
  4  1  1  0  0  0  0
  5  4  2  0  0  0  0
  6  5  1  0  0  0  0
  6  7  2  0  0  0  0
  7  8  1  0  0  0  0
  8  3  2  0  0  0  0
 10  5  1  0  0  0  0
 11  7  1  0  0  0  0
 13 12  1  0  0  0  0
 13 20  1  0  0  0  0
 14 13  2  0  0  0  0
 15 14  1  0  0  0  0
 15 17  2  0  0  0  0
 16 15  1  0  0  0  0
 17 19  1  0  0  0  0
 18 17  1  0  0  0  0
 19 20  2  0  0  0  0
M  END
>  <minimizedAffinity>
-4.54422569

$$$$

 OpenBabel03242512053D

 20 21  0  0  0  0  0  0  0  0999 V2000
   36.3250   29.9230   40.6870 C   0  0  0  0  0  0  0  0  0  0  0  0
   36.1660   31.1470   40.9620 O   0  0  0  0  0  0  0  0  0  0  0  0
   38.1660   29.5640   42.2680 C   0  0  0  0  0  0  0  0  0  0  0  0
   36.9690   29.1080   41.6820 C   0  0  0  0  0  0  0  0  0  0  0  0
   36.4500   27.8860   42.0850 C   0  0  0  0  0  0  0  0  0  0  0  0
   37.1350   27.1980   43.0300 N   0  0  0  0  0  0  0  0  0  0  0  0
   38.2820   27.6380   43.5890 C   0  0  0  0  0  0  0  0  0  0  0  0
   38.7900   28.8160   43.2060 N   0  0  0  0  0  0  0  0  0  0  0  0
   38.6060   30.5120   41.9830 H   0  0  0  0  0  0  0  0  0  0  0  0
   35.5310   27.5180   41.6470 H   0  0  0  0  0  0  0  0  0  0  0  0
   38.8050   27.0540   44.3460 H   0  0  0  0  0  0  0  0  0  0  0  0
   33.6770   29.0230   40.2340 F   0  0  0  0  0  0  0  0  0  0  0  0
   34.5070   29.1690   39.1590 C   0  0  0  0  0  0  0  0  0  0  0  0
   35.7970   29.6060   39.3640 C   0  0  0  0  0  0  0  0  0  0  0  0
   36.5690   29.7270   38.2270 C   0  0  0  0  0  0  0  0  0  0  0  0
   37.6140   30.0700   38.2890 H   0  0  0  0  0  0  0  0  0  0  0  0
   36.0490   29.4210   36.9850 C   0  0  0  0  0  0  0  0  0  0  0  0
   36.6360   29.5080   36.0780 H   0  0  0  0  0  0  0  0  0  0  0  0
   34.7470   28.9840   36.8150 C   0  0  0  0  0  3  0  0  0  0  0  0
   33.9580   28.8560   37.9340 C   0  0  0  0  0  3  0  0  0  0  0  0
  1  2  2  0  0  0  0
  1  4  1  0  0  0  0
  3  8  1  0  0  0  0
  4  5  1  0  0  0  0
  4  3  2  0  0  0  0
  5  6  2  0  0  0  0
  6  7  1  0  0  0  0
  7 11  1  0  0  0  0
  8  7  2  0  0  0  0
  9  3  1  0  0  0  0
 10  5  1  0  0  0  0
 13 14  1  0  0  0  0
 13 12  1  0  0  0  0
 14  1  1  0  0  0  0
 15 16  1  0  0  0  0
 15 14  2  0  0  0  0
 17 15  1  0  0  0  0
 18 17  1  0  0  0  0
 19 17  2  0  0  0  0
 19 20  1  0  0  0  0
 20 13  2  0  0  0  0
M  END
>  <minimizedAffinity>
-4.52945518

$$$$

 OpenBabel03242512053D

 20 21  0  0  0  0  0  0  0  0999 V2000
   38.7520   30.0490   40.6680 C   0  0  0  0  0  0  0  0  0  0  0  0
   39.8270   29.6080   40.1720 O   0  0  0  0  0  0  0  0  0  0  0  0
   39.0640   32.4580   41.0140 C   0  0  0  0  0  0  0  0  0  0  0  0
   38.3960   31.4080   40.3540 C   0  0  0  0  0  0  0  0  0  0  0  0
   37.4170   31.7180   39.4220 C   0  0  0  0  0  0  0  0  0  0  0  0
   37.1590   33.0300   39.2000 N   0  0  0  0  0  0  0  0  0  0  0  0
   37.8010   34.0340   39.8340 C   0  0  0  0  0  0  0  0  0  0  0  0
   38.7470   33.7430   40.7360 N   0  0  0  0  0  0  0  0  0  0  0  0
   39.8350   32.2600   41.7490 H   0  0  0  0  0  0  0  0  0  0  0  0
   36.8920   30.9260   38.9030 H   0  0  0  0  0  0  0  0  0  0  0  0
   37.5660   35.0780   39.6290 H   0  0  0  0  0  0  0  0  0  0  0  0
   38.7380   30.0820   43.5010 F   0  0  0  0  0  0  0  0  0  0  0  0
   38.0920   29.0640   42.8600 C   0  0  0  0  0  0  0  0  0  0  0  0
   38.0900   29.0350   41.4820 C   0  0  0  0  0  0  0  0  0  0  0  0
   37.4150   27.9750   40.9130 C   0  0  0  0  0  0  0  0  0  0  0  0
   37.3580   27.8660   39.8180 H   0  0  0  0  0  0  0  0  0  0  0  0
   36.7960   27.0270   41.7030 C   0  0  0  0  0  0  0  0  0  0  0  0
   36.2610   26.1850   41.2780 H   0  0  0  0  0  0  0  0  0  0  0  0
   36.8180   27.0860   43.0850 C   0  0  0  0  0  3  0  0  0  0  0  0
   37.4840   28.1340   43.6760 C   0  0  0  0  0  3  0  0  0  0  0  0
  1 14  1  0  0  0  0
  2  1  2  0  0  0  0
  3  9  1  0  0  0  0
  4  1  1  0  0  0  0
  4  3  2  0  0  0  0
  5  4  1  0  0  0  0
  6  5  2  0  0  0  0
  6  7  1  0  0  0  0
  7  8  2  0  0  0  0
  8  3  1  0  0  0  0
 10  5  1  0  0  0  0
 11  7  1  0  0  0  0
 13 12  1  0  0  0  0
 13 20  1  0  0  0  0
 14 13  2  0  0  0  0
 15 14  1  0  0  0  0
 15 17  2  0  0  0  0
 16 15  1  0  0  0  0
 17 19  1  0  0  0  0
 18 17  1  0  0  0  0
 19 20  2  0  0  0  0
M  END
>  <minimizedAffinity>
-4.51372766

$$$$

 OpenBabel03242512053D

 20 21  0  0  0  0  0  0  0  0999 V2000
   36.2780   29.8520   40.8730 C   0  0  0  0  0  0  0  0  0  0  0  0
   36.0980   31.0610   41.1970 O   0  0  0  0  0  0  0  0  0  0  0  0
   38.2650   29.4830   42.2650 C   0  0  0  0  0  0  0  0  0  0  0  0
   37.0160   29.0310   41.7980 C   0  0  0  0  0  0  0  0  0  0  0  0
   36.5350   27.8090   42.2440 C   0  0  0  0  0  0  0  0  0  0  0  0
   37.3080   27.1150   43.1140 N   0  0  0  0  0  0  0  0  0  0  0  0
   38.5060   27.5510   43.5600 C   0  0  0  0  0  0  0  0  0  0  0  0
   38.9770   28.7300   43.1340 N   0  0  0  0  0  0  0  0  0  0  0  0
   38.6770   30.4320   41.9410 H   0  0  0  0  0  0  0  0  0  0  0  0
   35.5770   27.4440   41.8970 H   0  0  0  0  0  0  0  0  0  0  0  0
   39.0990   26.9640   44.2600 H   0  0  0  0  0  0  0  0  0  0  0  0
   37.6400   30.1450   38.4050 F   0  0  0  0  0  0  0  0  0  0  0  0
   36.3480   29.7030   38.3870 C   0  0  0  0  0  0  0  0  0  0  0  0
   35.6730   29.5550   39.5790 C   0  0  0  0  0  0  0  0  0  0  0  0
   34.3740   29.1040   39.4730 C   0  0  0  0  0  0  0  0  0  0  0  0
   33.7540   28.9550   40.3710 H   0  0  0  0  0  0  0  0  0  0  0  0
   33.8210   28.8300   38.2370 C   0  0  0  0  0  0  0  0  0  0  0  0
   32.8030   28.4750   38.1300 H   0  0  0  0  0  0  0  0  0  0  0  0
   34.5270   28.9890   37.0590 C   0  0  0  0  0  3  0  0  0  0  0  0
   35.8250   29.4370   37.1390 C   0  0  0  0  0  3  0  0  0  0  0  0
  1  2  2  0  0  0  0
  1  4  1  0  0  0  0
  3  8  1  0  0  0  0
  4  5  1  0  0  0  0
  4  3  2  0  0  0  0
  5  6  2  0  0  0  0
  6  7  1  0  0  0  0
  7 11  1  0  0  0  0
  8  7  2  0  0  0  0
  9  3  1  0  0  0  0
 10  5  1  0  0  0  0
 13 12  1  0  0  0  0
 13 14  1  0  0  0  0
 14  1  1  0  0  0  0
 15 14  2  0  0  0  0
 15 16  1  0  0  0  0
 17 15  1  0  0  0  0
 18 17  1  0  0  0  0
 19 20  1  0  0  0  0
 19 17  2  0  0  0  0
 20 13  2  0  0  0  0
M  END
>  <minimizedAffinity>
-4.50209808

$$$$

 OpenBabel03242512053D

 20 21  0  0  0  0  0  0  0  0999 V2000
   35.7930   29.1220   40.3630 C   0  0  0  0  0  0  0  0  0  0  0  0
   34.5380   29.1660   40.2190 O   0  0  0  0  0  0  0  0  0  0  0  0
   36.6390   26.8300   40.1420 C   0  0  0  0  0  0  0  0  0  0  0  0
   36.3410   27.9340   40.9630 C   0  0  0  0  0  0  0  0  0  0  0  0
   36.5850   27.8410   42.3250 C   0  0  0  0  0  0  0  0  0  0  0  0
   37.1030   26.6780   42.7880 N   0  0  0  0  0  0  0  0  0  0  0  0
   37.3880   25.6210   41.9980 C   0  0  0  0  0  0  0  0  0  0  0  0
   37.1550   25.7020   40.6820 N   0  0  0  0  0  0  0  0  0  0  0  0
   36.4640   26.8610   39.0730 H   0  0  0  0  0  0  0  0  0  0  0  0
   36.3640   28.6790   42.9740 H   0  0  0  0  0  0  0  0  0  0  0  0
   37.8040   24.7010   42.4080 H   0  0  0  0  0  0  0  0  0  0  0  0
   36.3820   29.5760   37.6290 F   0  0  0  0  0  0  0  0  0  0  0  0
   36.7050   30.5460   38.5330 C   0  0  0  0  0  0  0  0  0  0  0  0
   36.4250   30.3400   39.8660 C   0  0  0  0  0  0  0  0  0  0  0  0
   36.7840   31.3680   40.7130 C   0  0  0  0  0  0  0  0  0  0  0  0
   36.6000   31.2950   41.7970 H   0  0  0  0  0  0  0  0  0  0  0  0
   37.3810   32.5120   40.2210 C   0  0  0  0  0  0  0  0  0  0  0  0
   37.6720   33.3320   40.8670 H   0  0  0  0  0  0  0  0  0  0  0  0
   37.6490   32.6870   38.8750 C   0  0  0  0  0  3  0  0  0  0  0  0
   37.3000   31.6750   38.0110 C   0  0  0  0  0  3  0  0  0  0  0  0
  1  4  1  0  0  0  0
  2  1  2  0  0  0  0
  3  8  2  0  0  0  0
  3  4  1  0  0  0  0
  4  5  2  0  0  0  0
  5  6  1  0  0  0  0
  5 10  1  0  0  0  0
  7 11  1  0  0  0  0
  7  6  2  0  0  0  0
  8  7  1  0  0  0  0
  9  3  1  0  0  0  0
 12 13  1  0  0  0  0
 13 14  1  0  0  0  0
 14  1  1  0  0  0  0
 14 15  2  0  0  0  0
 15 16  1  0  0  0  0
 17 15  1  0  0  0  0
 17 18  1  0  0  0  0
 19 17  2  0  0  0  0
 20 13  2  0  0  0  0
 20 19  1  0  0  0  0
M  END
>  <minimizedAffinity>
-4.50198793

$$$$
