
 OpenBabel03252508493D

 28 30  0  0  0  0  0  0  0  0999 V2000
   44.2280   33.7780   40.6470 C   0  0  0  0  0  0  0  0  0  0  0  0
   45.2860   34.2350   41.4230 C   0  0  0  0  0  0  0  0  0  0  0  0
   46.5670   34.1450   40.8480 C   0  0  0  0  0  0  0  0  0  0  0  0
   46.6830   33.6220   39.5870 N   0  0  0  0  0  0  0  0  0  0  0  0
   45.6320   33.2010   38.8940 C   0  0  0  0  0  0  0  0  0  0  0  0
   44.3960   33.2740   39.4140 N   0  0  0  0  0  0  0  0  0  0  0  0
   47.4040   34.5000   41.4490 H   0  0  0  0  0  0  0  0  0  0  0  0
   45.7340   32.7910   37.8970 H   0  0  0  0  0  0  0  0  0  0  0  0
   45.0450   34.7690   42.7450 C   0  0  0  0  0  0  0  0  0  0  0  0
   44.9600   36.1290   43.0050 C   0  0  0  0  0  0  0  0  0  0  0  0
   44.7280   36.1820   44.3620 C   0  0  0  0  0  0  0  0  0  0  0  0
   44.6750   34.9350   44.8970 N   0  0  0  0  0  0  0  0  0  0  0  0
   44.8710   34.1050   43.8960 N   0  0  0  0  0  0  0  0  0  0  0  0
   45.0410   37.0140   42.3670 H   0  0  0  0  0  0  0  0  0  0  0  0
   44.5890   37.0470   45.0250 H   0  0  0  0  0  0  0  0  0  0  0  0
   44.5250   34.5650   45.8460 H   0  0  0  0  0  0  0  0  0  0  0  0
   42.9570   33.8500   41.1780 O   0  0  0  0  0  0  0  0  0  0  0  0
   41.9890   34.7720   40.8970 C   0  0  0  0  0  0  0  0  0  0  0  0
   41.9090   35.9760   41.3340 O   0  0  0  0  0  0  0  0  0  0  0  0
   39.4820   33.8010   41.8140 F   0  0  0  0  0  0  0  0  0  0  0  0
   39.6080   34.0130   40.4740 C   0  0  0  0  0  0  0  0  0  0  0  0
   40.8330   34.4920   40.0010 C   0  0  0  0  0  0  0  0  0  0  0  0
   40.8420   34.6700   38.6390 C   0  0  0  0  0  0  0  0  0  0  0  0
   41.7450   35.0360   38.1760 H   0  0  0  0  0  0  0  0  0  0  0  0
   39.7740   34.4090   37.8130 C   0  0  0  0  0  0  0  0  0  0  0  0
   39.8550   34.5720   36.7470 H   0  0  0  0  0  0  0  0  0  0  0  0
   38.6170   33.9440   38.3610 C   0  0  0  0  0  3  0  0  0  0  0  0
   38.5040   33.7350   39.7050 C   0  0  0  0  0  3  0  0  0  0  0  0
  1 17  1  0  0  0  0
  1  2  1  0  0  0  0
  2  9  1  0  0  0  0
  3  2  2  0  0  0  0
  3  7  1  0  0  0  0
  4  3  1  0  0  0  0
  5  6  1  0  0  0  0
  5  4  2  0  0  0  0
  6  1  2  0  0  0  0
  8  5  1  0  0  0  0
  9 10  1  0  0  0  0
  9 13  2  0  0  0  0
 10 11  2  0  0  0  0
 11 12  1  0  0  0  0
 11 15  1  0  0  0  0
 12 16  1  0  0  0  0
 13 12  1  0  0  0  0
 14 10  1  0  0  0  0
 18 17  1  0  0  0  0
 18 19  2  0  0  0  0
 21 20  1  0  0  0  0
 22 21  1  0  0  0  0
 22 18  1  0  0  0  0
 23 22  2  0  0  0  0
 24 23  1  0  0  0  0
 25 27  2  0  0  0  0
 25 23  1  0  0  0  0
 26 25  1  0  0  0  0
 27 28  1  0  0  0  0
 28 21  2  0  0  0  0
M  END
>  <minimizedAffinity>
-5.97229862

>  <minimizedRMSD>
2.25244951

$$$$
