
 OpenBabel03242520003D

 30 32  0  0  0  0  0  0  0  0999 V2000
   44.5850   33.0630   41.2970 Br  0  0  0  0  0  0  0  0  0  0  0  0
   46.2430   33.9800   41.0860 C   0  0  0  0  0  0  0  0  0  0  0  0
   46.7990   34.7430   42.0960 C   0  0  0  0  0  0  0  0  0  0  0  0
   48.0100   35.3750   41.8550 C   0  0  0  0  0  0  0  0  0  0  0  0
   48.6710   35.2620   40.6380 C   0  0  0  0  0  0  0  0  0  0  0  0
   48.1160   34.4970   39.6220 C   0  0  0  0  0  0  0  0  0  0  0  0
   46.9130   33.8830   39.8960 C   0  0  0  0  0  0  0  0  0  0  0  0
   48.3740   35.9530   42.6970 H   0  0  0  0  0  0  0  0  0  0  0  0
   49.6050   35.7780   40.5150 H   0  0  0  0  0  0  0  0  0  0  0  0
   48.6070   34.3980   38.6830 H   0  0  0  0  0  0  0  0  0  0  0  0
   44.4720   35.8990   44.8560 C   0  0  0  0  0  0  0  0  0  0  0  0
   45.1640   35.8260   43.6460 C   0  0  0  0  0  0  0  0  0  0  0  0
   46.0710   34.8320   43.3500 C   0  0  0  0  0  0  0  0  0  0  0  0
   46.2310   33.9230   44.3510 N   0  0  0  0  0  0  0  0  0  0  0  0
   45.5760   33.9770   45.5190 C   0  0  0  0  0  0  0  0  0  0  0  0
   44.7110   34.9480   45.7680 N   0  0  0  0  0  0  0  0  0  0  0  0
   43.7780   36.7200   44.9960 H   0  0  0  0  0  0  0  0  0  0  0  0
   44.9800   36.5880   42.9020 H   0  0  0  0  0  0  0  0  0  0  0  0
   45.7210   33.2420   46.2990 H   0  0  0  0  0  0  0  0  0  0  0  0
   46.3470   33.0860   38.8220 C   0  0  0  0  0  0  0  0  0  0  0  0
   45.1920   33.3410   38.3500 O   0  0  0  0  0  0  0  0  0  0  0  0
   47.6430   33.4500   36.4280 F   0  0  0  0  0  0  0  0  0  0  0  0
   47.5630   32.1900   36.9240 C   0  0  0  0  0  0  0  0  0  0  0  0
   46.9230   31.9390   38.1250 C   0  0  0  0  0  0  0  0  0  0  0  0
   46.8420   30.6520   38.6300 C   0  0  0  0  0  0  0  0  0  0  0  0
   46.3370   30.4720   39.5730 H   0  0  0  0  0  0  0  0  0  0  0  0
   47.4340   29.6450   37.8650 C   0  0  0  0  0  0  0  0  0  0  0  0
   47.3710   28.6390   38.2570 H   0  0  0  0  0  0  0  0  0  0  0  0
   48.0640   29.9030   36.6780 C   0  0  0  0  0  0  0  0  0  0  0  0
   48.1360   31.1860   36.1920 C   0  0  0  0  0  0  0  0  0  0  0  0
  2  1  1  0  0  0  0
  2  3  1  0  0  0  0
  3 13  1  0  0  0  0
  4  3  2  0  0  0  0
  4  8  1  0  0  0  0
  5  4  1  0  0  0  0
  6  7  1  0  0  0  0
  6  5  2  0  0  0  0
  7  2  2  0  0  0  0
  9  5  1  0  0  0  0
 10  6  1  0  0  0  0
 11 17  1  0  0  0  0
 11 16  1  0  0  0  0
 12 11  2  0  0  0  0
 13 12  1  0  0  0  0
 13 14  2  0  0  0  0
 14 15  1  0  0  0  0
 15 16  2  0  0  0  0
 15 19  1  0  0  0  0
 18 12  1  0  0  0  0
 20  7  1  0  0  0  0
 21 20  2  0  0  0  0
 22 23  1  0  0  0  0
 23 24  1  0  0  0  0
 24 25  2  0  0  0  0
 24 20  1  0  0  0  0
 25 26  1  0  0  0  0
 27 28  1  0  0  0  0
 27 25  1  0  0  0  0
 29 27  2  0  0  0  0
 30 29  1  0  0  0  0
 30 23  2  0  0  0  0
M  END
>  <minimizedAffinity>
-5.56956673

>  <minimizedRMSD>
2.22277594

$$$$
