
 OpenBabel03252508493D

 28 30  0  0  0  0  0  0  0  0999 V2000
   45.6800   34.2500   41.0660 C   0  0  0  0  0  0  0  0  0  0  0  0
   46.3470   34.7590   42.1740 C   0  0  0  0  0  0  0  0  0  0  0  0
   47.7310   34.9620   42.0300 C   0  0  0  0  0  0  0  0  0  0  0  0
   48.3180   34.6480   40.8320 N   0  0  0  0  0  0  0  0  0  0  0  0
   47.6260   34.1630   39.8080 C   0  0  0  0  0  0  0  0  0  0  0  0
   46.3020   33.9590   39.9130 N   0  0  0  0  0  0  0  0  0  0  0  0
   48.2640   35.3610   42.8930 H   0  0  0  0  0  0  0  0  0  0  0  0
   48.0990   33.9200   38.8660 H   0  0  0  0  0  0  0  0  0  0  0  0
   45.6230   35.0550   43.3900 C   0  0  0  0  0  0  0  0  0  0  0  0
   45.1110   36.3120   43.6770 C   0  0  0  0  0  0  0  0  0  0  0  0
   44.5150   36.1430   44.9070 C   0  0  0  0  0  0  0  0  0  0  0  0
   44.6530   34.8640   45.3440 N   0  0  0  0  0  0  0  0  0  0  0  0
   45.3270   34.2340   44.4070 N   0  0  0  0  0  0  0  0  0  0  0  0
   45.1240   37.2610   43.1320 H   0  0  0  0  0  0  0  0  0  0  0  0
   43.9760   36.8610   45.5390 H   0  0  0  0  0  0  0  0  0  0  0  0
   44.3550   34.3570   46.1890 H   0  0  0  0  0  0  0  0  0  0  0  0
   44.3200   34.0380   41.1700 O   0  0  0  0  0  0  0  0  0  0  0  0
   43.3160   34.8900   40.8100 C   0  0  0  0  0  0  0  0  0  0  0  0
   43.1450   36.1020   41.1970 O   0  0  0  0  0  0  0  0  0  0  0  0
   41.8000   32.4980   41.0370 F   0  0  0  0  0  0  0  0  0  0  0  0
   41.4910   33.3270   40.0020 C   0  0  0  0  0  0  0  0  0  0  0  0
   42.2230   34.5110   39.8710 C   0  0  0  0  0  0  0  0  0  0  0  0
   41.8240   35.2660   38.7950 C   0  0  0  0  0  0  0  0  0  0  0  0
   42.3300   36.2000   38.6090 H   0  0  0  0  0  0  0  0  0  0  0  0
   40.8160   34.9130   37.9290 C   0  0  0  0  0  0  0  0  0  0  0  0
   40.5550   35.5600   37.1010 H   0  0  0  0  0  0  0  0  0  0  0  0
   40.1540   33.7410   38.1320 C   0  0  0  0  0  3  0  0  0  0  0  0
   40.4740   32.9180   39.1720 C   0  0  0  0  0  3  0  0  0  0  0  0
  1 17  1  0  0  0  0
  1  2  1  0  0  0  0
  2  9  1  0  0  0  0
  3  2  2  0  0  0  0
  3  7  1  0  0  0  0
  4  3  1  0  0  0  0
  5  6  1  0  0  0  0
  5  4  2  0  0  0  0
  6  1  2  0  0  0  0
  8  5  1  0  0  0  0
  9 10  1  0  0  0  0
  9 13  2  0  0  0  0
 10 11  2  0  0  0  0
 11 12  1  0  0  0  0
 11 15  1  0  0  0  0
 12 16  1  0  0  0  0
 13 12  1  0  0  0  0
 14 10  1  0  0  0  0
 18 17  1  0  0  0  0
 18 19  2  0  0  0  0
 21 20  1  0  0  0  0
 22 21  1  0  0  0  0
 22 18  1  0  0  0  0
 23 22  2  0  0  0  0
 24 23  1  0  0  0  0
 25 27  2  0  0  0  0
 25 23  1  0  0  0  0
 26 25  1  0  0  0  0
 27 28  1  0  0  0  0
 28 21  2  0  0  0  0
M  END
>  <minimizedAffinity>
-5.62302303

>  <minimizedRMSD>
1.16482639

$$$$
