
 OpenBabel03252508493D

 28 30  0  0  0  0  0  0  0  0999 V2000
   45.8860   34.2370   41.0440 C   0  0  0  0  0  0  0  0  0  0  0  0
   46.4940   34.7920   42.1630 C   0  0  0  0  0  0  0  0  0  0  0  0
   47.8670   35.0760   42.0510 C   0  0  0  0  0  0  0  0  0  0  0  0
   48.5010   34.7890   40.8700 N   0  0  0  0  0  0  0  0  0  0  0  0
   47.8640   34.2570   39.8340 C   0  0  0  0  0  0  0  0  0  0  0  0
   46.5530   33.9760   39.9080 N   0  0  0  0  0  0  0  0  0  0  0  0
   48.3540   35.5110   42.9230 H   0  0  0  0  0  0  0  0  0  0  0  0
   48.3740   34.0360   38.9050 H   0  0  0  0  0  0  0  0  0  0  0  0
   45.7240   35.0520   43.3590 C   0  0  0  0  0  0  0  0  0  0  0  0
   45.1020   36.2680   43.6060 C   0  0  0  0  0  0  0  0  0  0  0  0
   44.4980   36.0760   44.8290 C   0  0  0  0  0  0  0  0  0  0  0  0
   44.7360   34.8240   45.3000 N   0  0  0  0  0  0  0  0  0  0  0  0
   45.4790   34.2330   44.3900 N   0  0  0  0  0  0  0  0  0  0  0  0
   45.0440   37.2010   43.0380 H   0  0  0  0  0  0  0  0  0  0  0  0
   43.8880   36.7600   45.4340 H   0  0  0  0  0  0  0  0  0  0  0  0
   44.4670   34.3130   46.1520 H   0  0  0  0  0  0  0  0  0  0  0  0
   44.5390   33.9450   41.1160 O   0  0  0  0  0  0  0  0  0  0  0  0
   43.5000   34.6900   40.6360 C   0  0  0  0  0  0  0  0  0  0  0  0
   43.3060   35.9490   40.7910 O   0  0  0  0  0  0  0  0  0  0  0  0
   43.8740   32.7210   38.6220 F   0  0  0  0  0  0  0  0  0  0  0  0
   42.5970   33.1460   38.8400 C   0  0  0  0  0  0  0  0  0  0  0  0
   42.3900   34.1140   39.8270 C   0  0  0  0  0  0  0  0  0  0  0  0
   41.0680   34.4640   39.9570 C   0  0  0  0  0  0  0  0  0  0  0  0
   40.8050   35.2060   40.6950 H   0  0  0  0  0  0  0  0  0  0  0  0
   40.0450   33.9320   39.2080 C   0  0  0  0  0  0  0  0  0  0  0  0
   39.0250   34.2560   39.3670 H   0  0  0  0  0  0  0  0  0  0  0  0
   40.3390   32.9920   38.2670 C   0  0  0  0  0  3  0  0  0  0  0  0
   41.6200   32.5750   38.0580 C   0  0  0  0  0  3  0  0  0  0  0  0
  1 17  1  0  0  0  0
  1  2  1  0  0  0  0
  2  9  1  0  0  0  0
  3  2  2  0  0  0  0
  3  7  1  0  0  0  0
  4  3  1  0  0  0  0
  5  6  1  0  0  0  0
  5  4  2  0  0  0  0
  6  1  2  0  0  0  0
  8  5  1  0  0  0  0
  9 10  1  0  0  0  0
  9 13  2  0  0  0  0
 10 11  2  0  0  0  0
 11 12  1  0  0  0  0
 11 15  1  0  0  0  0
 12 16  1  0  0  0  0
 13 12  1  0  0  0  0
 14 10  1  0  0  0  0
 18 19  2  0  0  0  0
 18 17  1  0  0  0  0
 20 21  1  0  0  0  0
 21 22  1  0  0  0  0
 22 23  2  0  0  0  0
 22 18  1  0  0  0  0
 23 24  1  0  0  0  0
 25 26  1  0  0  0  0
 25 23  1  0  0  0  0
 27 25  2  0  0  0  0
 28 27  1  0  0  0  0
 28 21  2  0  0  0  0
M  END
>  <minimizedAffinity>
-5.45294523

>  <minimizedRMSD>
0.857895255

$$$$
