
 OpenBabel03252508493D

 28 30  0  0  0  0  0  0  0  0999 V2000
   45.9640   34.1550   41.0440 C   0  0  0  0  0  0  0  0  0  0  0  0
   46.5350   34.8040   42.1320 C   0  0  0  0  0  0  0  0  0  0  0  0
   47.8760   35.2020   41.9880 C   0  0  0  0  0  0  0  0  0  0  0  0
   48.5180   34.9290   40.8080 N   0  0  0  0  0  0  0  0  0  0  0  0
   47.9160   34.3040   39.8020 C   0  0  0  0  0  0  0  0  0  0  0  0
   46.6360   33.9120   39.9070 N   0  0  0  0  0  0  0  0  0  0  0  0
   48.3340   35.7110   42.8360 H   0  0  0  0  0  0  0  0  0  0  0  0
   48.4310   34.0940   38.8730 H   0  0  0  0  0  0  0  0  0  0  0  0
   45.7620   35.0400   43.3300 C   0  0  0  0  0  0  0  0  0  0  0  0
   45.0630   36.2170   43.5580 C   0  0  0  0  0  0  0  0  0  0  0  0
   44.4850   36.0140   44.7920 C   0  0  0  0  0  0  0  0  0  0  0  0
   44.8080   34.7900   45.2860 N   0  0  0  0  0  0  0  0  0  0  0  0
   45.5800   34.2290   44.3810 N   0  0  0  0  0  0  0  0  0  0  0  0
   44.9400   37.1320   42.9710 H   0  0  0  0  0  0  0  0  0  0  0  0
   43.8370   36.6700   45.3880 H   0  0  0  0  0  0  0  0  0  0  0  0
   44.5800   34.2820   46.1510 H   0  0  0  0  0  0  0  0  0  0  0  0
   44.6490   33.7490   41.1490 O   0  0  0  0  0  0  0  0  0  0  0  0
   43.5450   34.3640   40.6300 C   0  0  0  0  0  0  0  0  0  0  0  0
   43.2920   35.6220   40.6070 O   0  0  0  0  0  0  0  0  0  0  0  0
   42.0320   32.3510   41.9450 F   0  0  0  0  0  0  0  0  0  0  0  0
   41.6940   32.6330   40.6560 C   0  0  0  0  0  0  0  0  0  0  0  0
   42.4250   33.6210   39.9890 C   0  0  0  0  0  0  0  0  0  0  0  0
   41.9950   33.8200   38.7000 C   0  0  0  0  0  0  0  0  0  0  0  0
   42.4970   34.5640   38.1010 H   0  0  0  0  0  0  0  0  0  0  0  0
   40.9600   33.1320   38.1090 C   0  0  0  0  0  0  0  0  0  0  0  0
   40.6780   33.3420   37.0870 H   0  0  0  0  0  0  0  0  0  0  0  0
   40.3030   32.1850   38.8340 C   0  0  0  0  0  3  0  0  0  0  0  0
   40.6520   31.9110   40.1240 C   0  0  0  0  0  3  0  0  0  0  0  0
  1 17  1  0  0  0  0
  1  2  1  0  0  0  0
  2  9  1  0  0  0  0
  3  2  2  0  0  0  0
  3  7  1  0  0  0  0
  4  3  1  0  0  0  0
  5  6  1  0  0  0  0
  5  4  2  0  0  0  0
  6  1  2  0  0  0  0
  8  5  1  0  0  0  0
  9 10  1  0  0  0  0
  9 13  2  0  0  0  0
 10 11  2  0  0  0  0
 11 12  1  0  0  0  0
 11 15  1  0  0  0  0
 12 16  1  0  0  0  0
 13 12  1  0  0  0  0
 14 10  1  0  0  0  0
 18 17  1  0  0  0  0
 19 18  2  0  0  0  0
 21 20  1  0  0  0  0
 22 18  1  0  0  0  0
 22 21  2  0  0  0  0
 23 22  1  0  0  0  0
 24 23  1  0  0  0  0
 25 23  2  0  0  0  0
 25 27  1  0  0  0  0
 26 25  1  0  0  0  0
 27 28  2  0  0  0  0
 28 21  1  0  0  0  0
M  END
>  <minimizedAffinity>
-5.40081072

>  <minimizedRMSD>
0.560272992

$$$$
