
 OpenBabel03252501333D

 24 25  0  0  0  0  0  0  0  0999 V2000
   37.4480   28.1710   40.7510 C   0  0  0  0  0  0  0  0  0  0  0  0
   37.4330   28.7210   39.6030 O   0  0  0  0  0  0  0  0  0  0  0  0
   37.7660   29.1220   41.7590 N   0  0  0  0  0  0  0  0  0  0  0  0
   37.8060   28.8180   42.7500 H   0  0  0  0  0  0  0  0  0  0  0  0
   37.7490   26.5950   43.1530 F   0  0  0  0  0  0  0  0  0  0  0  0
   37.2920   25.9710   42.0510 C   0  0  0  0  0  0  0  0  0  0  0  0
   37.1700   26.7580   40.9510 C   0  0  0  0  0  0  0  0  0  0  0  0
   36.6950   26.0840   39.8240 C   0  0  0  0  0  0  0  0  0  0  0  0
   36.5510   26.6000   38.8750 H   0  0  0  0  0  0  0  0  0  0  0  0
   36.3900   24.7500   39.8620 C   0  0  0  0  0  0  0  0  0  0  0  0
   36.0240   24.2630   38.9710 H   0  0  0  0  0  0  0  0  0  0  0  0
   36.5250   23.9850   40.9930 C   0  0  0  0  0  3  0  0  0  0  0  0
   36.9940   24.6400   42.1090 C   0  0  0  0  0  3  0  0  0  0  0  0
   37.9870   30.4130   41.1660 C   0  0  0  0  0  0  0  0  0  0  0  0
   37.0100   31.3580   40.8690 C   0  0  0  0  0  0  0  0  0  0  0  0
   37.4510   32.5450   40.2960 C   0  0  0  0  0  0  0  0  0  0  0  0
   38.7650   32.6980   40.0720 N   0  0  0  0  0  0  0  0  0  0  0  0
   39.6960   31.7730   40.3670 C   0  0  0  0  0  0  0  0  0  0  0  0
   39.3070   30.6120   40.9220 N   0  0  0  0  0  0  0  0  0  0  0  0
   36.6760   33.2480   40.0800 H   0  0  0  0  0  0  0  0  0  0  0  0
   40.7150   32.0460   40.1260 H   0  0  0  0  0  0  0  0  0  0  0  0
   35.6880   30.9830   41.1920 N   0  0  0  0  0  0  0  0  0  0  0  0
   35.0050   31.4540   41.8490 H   0  0  0  0  0  0  0  0  0  0  0  0
   35.3610   30.1190   40.7020 H   0  0  0  0  0  0  0  0  0  0  0  0
  1  7  1  0  0  0  0
  1  3  1  0  0  0  0
  2  1  2  0  0  0  0
  3  4  1  0  0  0  0
  6 13  1  0  0  0  0
  6  5  1  0  0  0  0
  7  6  2  0  0  0  0
  8 10  2  0  0  0  0
  8  7  1  0  0  0  0
  9  8  1  0  0  0  0
 10 12  1  0  0  0  0
 11 10  1  0  0  0  0
 12 13  2  0  0  0  0
 14  3  1  0  0  0  0
 15 14  2  0  0  0  0
 15 22  1  0  0  0  0
 16 15  1  0  0  0  0
 17 16  2  0  0  0  0
 17 18  1  0  0  0  0
 18 19  2  0  0  0  0
 19 14  1  0  0  0  0
 20 16  1  0  0  0  0
 21 18  1  0  0  0  0
 22 23  1  0  0  0  0
 24 22  1  0  0  0  0
M  END
>  <minimizedAffinity>
-5.34323072

$$$$

 OpenBabel03252501333D

 24 25  0  0  0  0  0  0  0  0999 V2000
   37.3830   28.1870   40.5260 C   0  0  0  0  0  0  0  0  0  0  0  0
   38.2680   28.8820   41.1210 O   0  0  0  0  0  0  0  0  0  0  0  0
   36.6960   28.9700   39.5580 N   0  0  0  0  0  0  0  0  0  0  0  0
   35.9490   28.5320   38.9870 H   0  0  0  0  0  0  0  0  0  0  0  0
   37.4540   26.8600   43.0910 F   0  0  0  0  0  0  0  0  0  0  0  0
   37.1650   26.1120   42.0090 C   0  0  0  0  0  0  0  0  0  0  0  0
   37.1450   26.7860   40.8310 C   0  0  0  0  0  0  0  0  0  0  0  0
   36.8420   25.9840   39.7270 C   0  0  0  0  0  0  0  0  0  0  0  0
   36.7940   26.4000   38.7210 H   0  0  0  0  0  0  0  0  0  0  0  0
   36.5940   24.6450   39.8610 C   0  0  0  0  0  0  0  0  0  0  0  0
   36.3640   24.0570   38.9860 H   0  0  0  0  0  0  0  0  0  0  0  0
   36.6220   23.9970   41.0710 C   0  0  0  0  0  3  0  0  0  0  0  0
   36.9200   24.7780   42.1640 C   0  0  0  0  0  3  0  0  0  0  0  0
   37.2070   30.3140   39.5600 C   0  0  0  0  0  0  0  0  0  0  0  0
   36.7870   31.3520   40.3840 C   0  0  0  0  0  0  0  0  0  0  0  0
   37.4230   32.5760   40.2140 C   0  0  0  0  0  0  0  0  0  0  0  0
   38.3840   32.6730   39.2820 N   0  0  0  0  0  0  0  0  0  0  0  0
   38.7790   31.6580   38.4930 C   0  0  0  0  0  0  0  0  0  0  0  0
   38.1860   30.4590   38.6290 N   0  0  0  0  0  0  0  0  0  0  0  0
   37.0760   33.3500   40.8620 H   0  0  0  0  0  0  0  0  0  0  0  0
   39.5660   31.8940   37.7900 H   0  0  0  0  0  0  0  0  0  0  0  0
   35.7590   31.0220   41.2940 N   0  0  0  0  0  0  0  0  0  0  0  0
   35.7670   31.0680   42.3520 H   0  0  0  0  0  0  0  0  0  0  0  0
   34.8790   30.6900   40.8370 H   0  0  0  0  0  0  0  0  0  0  0  0
  1  7  1  0  0  0  0
  1  2  2  0  0  0  0
  3 14  1  0  0  0  0
  3  1  1  0  0  0  0
  4  3  1  0  0  0  0
  6 13  1  0  0  0  0
  6  5  1  0  0  0  0
  7  6  2  0  0  0  0
  8 10  2  0  0  0  0
  8  7  1  0  0  0  0
  9  8  1  0  0  0  0
 10 12  1  0  0  0  0
 11 10  1  0  0  0  0
 12 13  2  0  0  0  0
 14 15  1  0  0  0  0
 15 22  1  0  0  0  0
 16 15  2  0  0  0  0
 16 20  1  0  0  0  0
 17 16  1  0  0  0  0
 18 19  1  0  0  0  0
 18 17  2  0  0  0  0
 19 14  2  0  0  0  0
 21 18  1  0  0  0  0
 22 23  1  0  0  0  0
 24 22  1  0  0  0  0
M  END
>  <minimizedAffinity>
-5.3367424

$$$$

 OpenBabel03252501333D

 24 25  0  0  0  0  0  0  0  0999 V2000
   37.3070   28.1860   40.3250 C   0  0  0  0  0  0  0  0  0  0  0  0
   38.1730   28.8220   41.0080 O   0  0  0  0  0  0  0  0  0  0  0  0
   36.6760   29.0480   39.3870 N   0  0  0  0  0  0  0  0  0  0  0  0
   35.9500   28.6650   38.7530 H   0  0  0  0  0  0  0  0  0  0  0  0
   36.4190   26.2370   38.3870 F   0  0  0  0  0  0  0  0  0  0  0  0
   36.6200   25.8150   39.6500 C   0  0  0  0  0  0  0  0  0  0  0  0
   37.0360   26.7720   40.5190 C   0  0  0  0  0  0  0  0  0  0  0  0
   37.2360   26.3040   41.8200 C   0  0  0  0  0  0  0  0  0  0  0  0
   37.5690   26.9700   42.6150 H   0  0  0  0  0  0  0  0  0  0  0  0
   37.0200   24.9940   42.1520 C   0  0  0  0  0  0  0  0  0  0  0  0
   37.1850   24.6690   43.1670 H   0  0  0  0  0  0  0  0  0  0  0  0
   36.6000   24.0530   41.2450 C   0  0  0  0  0  3  0  0  0  0  0  0
   36.4000   24.5040   39.9600 C   0  0  0  0  0  3  0  0  0  0  0  0
   37.2060   30.3800   39.5070 C   0  0  0  0  0  0  0  0  0  0  0  0
   36.7800   31.3540   40.4030 C   0  0  0  0  0  0  0  0  0  0  0  0
   37.4370   32.5780   40.3460 C   0  0  0  0  0  0  0  0  0  0  0  0
   38.4210   32.7350   39.4460 N   0  0  0  0  0  0  0  0  0  0  0  0
   38.8190   31.7800   38.5870 C   0  0  0  0  0  0  0  0  0  0  0  0
   38.2070   30.5830   38.6130 N   0  0  0  0  0  0  0  0  0  0  0  0
   37.0850   33.3040   41.0460 H   0  0  0  0  0  0  0  0  0  0  0  0
   39.6260   32.0600   37.9230 H   0  0  0  0  0  0  0  0  0  0  0  0
   35.7270   30.9690   41.2610 N   0  0  0  0  0  0  0  0  0  0  0  0
   35.7120   30.9300   42.3190 H   0  0  0  0  0  0  0  0  0  0  0  0
   34.8540   30.6880   40.7600 H   0  0  0  0  0  0  0  0  0  0  0  0
  1  7  1  0  0  0  0
  1  2  2  0  0  0  0
  3 14  1  0  0  0  0
  3  1  1  0  0  0  0
  4  3  1  0  0  0  0
  5  6  1  0  0  0  0
  6 13  2  0  0  0  0
  6  7  1  0  0  0  0
  7  8  2  0  0  0  0
  8 10  1  0  0  0  0
  8  9  1  0  0  0  0
 10 11  1  0  0  0  0
 12 10  2  0  0  0  0
 13 12  1  0  0  0  0
 14 15  1  0  0  0  0
 15 22  1  0  0  0  0
 16 15  2  0  0  0  0
 16 20  1  0  0  0  0
 17 16  1  0  0  0  0
 18 19  1  0  0  0  0
 18 17  2  0  0  0  0
 19 14  2  0  0  0  0
 21 18  1  0  0  0  0
 22 23  1  0  0  0  0
 24 22  1  0  0  0  0
M  END
>  <minimizedAffinity>
-5.14660263

$$$$

 OpenBabel03252501333D

 24 25  0  0  0  0  0  0  0  0999 V2000
   37.9610   31.3450   39.2330 C   0  0  0  0  0  0  0  0  0  0  0  0
   37.9190   32.6160   39.2890 O   0  0  0  0  0  0  0  0  0  0  0  0
   39.3070   30.8880   39.1920 N   0  0  0  0  0  0  0  0  0  0  0  0
   39.4970   29.8690   39.1530 H   0  0  0  0  0  0  0  0  0  0  0  0
   36.2620   30.5810   41.4420 F   0  0  0  0  0  0  0  0  0  0  0  0
   35.9330   30.1290   40.2160 C   0  0  0  0  0  0  0  0  0  0  0  0
   36.7660   30.5170   39.2160 C   0  0  0  0  0  0  0  0  0  0  0  0
   36.4010   30.0340   37.9580 C   0  0  0  0  0  0  0  0  0  0  0  0
   36.9840   30.2710   37.0690 H   0  0  0  0  0  0  0  0  0  0  0  0
   35.2980   29.2410   37.7870 C   0  0  0  0  0  0  0  0  0  0  0  0
   35.0470   28.8860   36.7990 H   0  0  0  0  0  0  0  0  0  0  0  0
   34.4780   28.8690   38.8230 C   0  0  0  0  0  3  0  0  0  0  0  0
   34.8300   29.3400   40.0670 C   0  0  0  0  0  3  0  0  0  0  0  0
   40.2080   32.0090   39.2130 C   0  0  0  0  0  0  0  0  0  0  0  0
   40.6350   32.7400   38.1110 C   0  0  0  0  0  0  0  0  0  0  0  0
   41.5120   33.7890   38.3640 C   0  0  0  0  0  0  0  0  0  0  0  0
   41.8810   34.0210   39.6340 N   0  0  0  0  0  0  0  0  0  0  0  0
   41.4570   33.3030   40.6890 C   0  0  0  0  0  0  0  0  0  0  0  0
   40.6080   32.2810   40.4820 N   0  0  0  0  0  0  0  0  0  0  0  0
   41.8200   34.3290   37.4960 H   0  0  0  0  0  0  0  0  0  0  0  0
   41.8450   33.6150   41.6490 H   0  0  0  0  0  0  0  0  0  0  0  0
   40.1170   32.3180   36.8670 N   0  0  0  0  0  0  0  0  0  0  0  0
   39.5330   32.8610   36.1700 H   0  0  0  0  0  0  0  0  0  0  0  0
   40.3550   31.3290   36.6230 H   0  0  0  0  0  0  0  0  0  0  0  0
  1  2  2  0  0  0  0
  3 14  1  0  0  0  0
  3  1  1  0  0  0  0
  4  3  1  0  0  0  0
  6  5  1  0  0  0  0
  7  1  1  0  0  0  0
  7  6  2  0  0  0  0
  8  7  1  0  0  0  0
  9  8  1  0  0  0  0
 10  8  2  0  0  0  0
 10 12  1  0  0  0  0
 11 10  1  0  0  0  0
 12 13  2  0  0  0  0
 13  6  1  0  0  0  0
 14 19  1  0  0  0  0
 15 16  1  0  0  0  0
 15 14  2  0  0  0  0
 16 17  2  0  0  0  0
 17 18  1  0  0  0  0
 18 21  1  0  0  0  0
 19 18  2  0  0  0  0
 20 16  1  0  0  0  0
 22 15  1  0  0  0  0
 23 22  1  0  0  0  0
 24 22  1  0  0  0  0
M  END
>  <minimizedAffinity>
-5.08585739

$$$$

 OpenBabel03252501333D

 24 25  0  0  0  0  0  0  0  0999 V2000
   38.5570   29.8850   41.3510 C   0  0  0  0  0  0  0  0  0  0  0  0
   38.9460   30.7240   42.2270 O   0  0  0  0  0  0  0  0  0  0  0  0
   38.6190   30.4540   40.0490 N   0  0  0  0  0  0  0  0  0  0  0  0
   38.3380   29.8820   39.2310 H   0  0  0  0  0  0  0  0  0  0  0  0
   39.4330   27.3680   40.2370 F   0  0  0  0  0  0  0  0  0  0  0  0
   38.4930   27.3310   41.2010 C   0  0  0  0  0  0  0  0  0  0  0  0
   38.1180   28.5410   41.6880 C   0  0  0  0  0  0  0  0  0  0  0  0
   37.1420   28.4720   42.6850 C   0  0  0  0  0  0  0  0  0  0  0  0
   36.7530   29.3710   43.1610 H   0  0  0  0  0  0  0  0  0  0  0  0
   36.6320   27.2730   43.1070 C   0  0  0  0  0  0  0  0  0  0  0  0
   35.8800   27.2580   43.8800 H   0  0  0  0  0  0  0  0  0  0  0  0
   37.0370   26.0670   42.5910 C   0  0  0  0  0  3  0  0  0  0  0  0
   37.9970   26.1260   41.6070 C   0  0  0  0  0  3  0  0  0  0  0  0
   39.0920   31.8100   40.1260 C   0  0  0  0  0  0  0  0  0  0  0  0
   38.3080   32.9450   40.2990 C   0  0  0  0  0  0  0  0  0  0  0  0
   38.9790   34.1610   40.3450 C   0  0  0  0  0  0  0  0  0  0  0  0
   40.3160   34.1590   40.2220 N   0  0  0  0  0  0  0  0  0  0  0  0
   41.0590   33.0500   40.0560 C   0  0  0  0  0  0  0  0  0  0  0  0
   40.4440   31.8550   40.0060 N   0  0  0  0  0  0  0  0  0  0  0  0
   38.3470   35.0120   40.4780 H   0  0  0  0  0  0  0  0  0  0  0  0
   42.1250   33.2130   39.9720 H   0  0  0  0  0  0  0  0  0  0  0  0
   36.9200   32.7100   40.4060 N   0  0  0  0  0  0  0  0  0  0  0  0
   36.2650   32.9430   41.2050 H   0  0  0  0  0  0  0  0  0  0  0  0
   36.5040   32.2400   39.5700 H   0  0  0  0  0  0  0  0  0  0  0  0
  1  7  1  0  0  0  0
  1  2  2  0  0  0  0
  3 14  1  0  0  0  0
  3  1  1  0  0  0  0
  4  3  1  0  0  0  0
  5  6  1  0  0  0  0
  6 13  2  0  0  0  0
  6  7  1  0  0  0  0
  7  8  2  0  0  0  0
  8 10  1  0  0  0  0
  8  9  1  0  0  0  0
 10 11  1  0  0  0  0
 12 10  2  0  0  0  0
 13 12  1  0  0  0  0
 14 15  1  0  0  0  0
 15 16  2  0  0  0  0
 15 22  1  0  0  0  0
 16 20  1  0  0  0  0
 17 16  1  0  0  0  0
 18 17  2  0  0  0  0
 19 18  1  0  0  0  0
 19 14  2  0  0  0  0
 21 18  1  0  0  0  0
 22 23  1  0  0  0  0
 24 22  1  0  0  0  0
M  END
>  <minimizedAffinity>
-4.96794224

$$$$

 OpenBabel03252501333D

 24 25  0  0  0  0  0  0  0  0999 V2000
   39.2040   30.3870   41.4880 C   0  0  0  0  0  0  0  0  0  0  0  0
   39.3400   30.4740   40.2250 O   0  0  0  0  0  0  0  0  0  0  0  0
   39.7850   31.5120   42.1350 N   0  0  0  0  0  0  0  0  0  0  0  0
   39.7430   31.5810   43.1690 H   0  0  0  0  0  0  0  0  0  0  0  0
   40.2860   28.4840   43.3740 F   0  0  0  0  0  0  0  0  0  0  0  0
   38.9930   28.3470   43.0210 C   0  0  0  0  0  0  0  0  0  0  0  0
   38.5380   29.2670   42.1320 C   0  0  0  0  0  0  0  0  0  0  0  0
   37.1950   29.1000   41.7850 C   0  0  0  0  0  0  0  0  0  0  0  0
   36.7050   29.7710   41.0800 H   0  0  0  0  0  0  0  0  0  0  0  0
   36.4390   28.0880   42.3120 C   0  0  0  0  0  0  0  0  0  0  0  0
   35.4050   27.9900   42.0210 H   0  0  0  0  0  0  0  0  0  0  0  0
   36.9340   27.1760   43.2100 C   0  0  0  0  0  3  0  0  0  0  0  0
   38.2560   27.3320   43.5580 C   0  0  0  0  0  3  0  0  0  0  0  0
   40.3600   32.3980   41.1600 C   0  0  0  0  0  0  0  0  0  0  0  0
   39.6950   33.4110   40.4770 C   0  0  0  0  0  0  0  0  0  0  0  0
   40.4500   34.1500   39.5750 C   0  0  0  0  0  0  0  0  0  0  0  0
   41.7490   33.8430   39.4240 N   0  0  0  0  0  0  0  0  0  0  0  0
   42.3760   32.8590   40.0940 C   0  0  0  0  0  0  0  0  0  0  0  0
   41.6770   32.1230   40.9760 N   0  0  0  0  0  0  0  0  0  0  0  0
   39.9090   34.9190   39.0680 H   0  0  0  0  0  0  0  0  0  0  0  0
   43.4250   32.7350   39.8620 H   0  0  0  0  0  0  0  0  0  0  0  0
   38.3270   33.5570   40.7950 N   0  0  0  0  0  0  0  0  0  0  0  0
   37.8220   34.3980   41.1930 H   0  0  0  0  0  0  0  0  0  0  0  0
   37.7540   32.7030   40.6020 H   0  0  0  0  0  0  0  0  0  0  0  0
  1  7  1  0  0  0  0
  1  3  1  0  0  0  0
  2  1  2  0  0  0  0
  3  4  1  0  0  0  0
  6  5  1  0  0  0  0
  6 13  1  0  0  0  0
  7  6  2  0  0  0  0
  8  7  1  0  0  0  0
  8 10  2  0  0  0  0
  9  8  1  0  0  0  0
 10 12  1  0  0  0  0
 11 10  1  0  0  0  0
 12 13  2  0  0  0  0
 14  3  1  0  0  0  0
 15 22  1  0  0  0  0
 15 14  2  0  0  0  0
 16 15  1  0  0  0  0
 17 16  2  0  0  0  0
 17 18  1  0  0  0  0
 18 19  2  0  0  0  0
 19 14  1  0  0  0  0
 20 16  1  0  0  0  0
 21 18  1  0  0  0  0
 22 23  1  0  0  0  0
 24 22  1  0  0  0  0
M  END
>  <minimizedAffinity>
-4.96187115

$$$$

 OpenBabel03252501333D

 24 25  0  0  0  0  0  0  0  0999 V2000
   38.8480   30.2350   40.7940 C   0  0  0  0  0  0  0  0  0  0  0  0
   40.1100   30.2040   40.6300 O   0  0  0  0  0  0  0  0  0  0  0  0
   38.2700   31.2980   40.0470 N   0  0  0  0  0  0  0  0  0  0  0  0
   37.2430   31.4410   40.0770 H   0  0  0  0  0  0  0  0  0  0  0  0
   38.8440   30.0440   43.6760 F   0  0  0  0  0  0  0  0  0  0  0  0
   38.1010   29.1530   42.9910 C   0  0  0  0  0  0  0  0  0  0  0  0
   38.1400   29.2890   41.6400 C   0  0  0  0  0  0  0  0  0  0  0  0
   37.3610   28.3520   40.9560 C   0  0  0  0  0  0  0  0  0  0  0  0
   37.3040   28.3500   39.8680 H   0  0  0  0  0  0  0  0  0  0  0  0
   36.6380   27.3990   41.6210 C   0  0  0  0  0  0  0  0  0  0  0  0
   36.0470   26.6920   41.0600 H   0  0  0  0  0  0  0  0  0  0  0  0
   36.6230   27.2930   42.9900 C   0  0  0  0  0  3  0  0  0  0  0  0
   37.3880   28.2110   43.6720 C   0  0  0  0  0  3  0  0  0  0  0  0
   39.2960   32.0210   39.3450 C   0  0  0  0  0  0  0  0  0  0  0  0
   39.9930   33.1270   39.8200 C   0  0  0  0  0  0  0  0  0  0  0  0
   40.9470   33.6700   38.9680 C   0  0  0  0  0  0  0  0  0  0  0  0
   41.1300   33.1020   37.7650 N   0  0  0  0  0  0  0  0  0  0  0  0
   40.4460   32.0310   37.3230 C   0  0  0  0  0  0  0  0  0  0  0  0
   39.5150   31.4780   38.1200 N   0  0  0  0  0  0  0  0  0  0  0  0
   41.4640   34.5180   39.3620 H   0  0  0  0  0  0  0  0  0  0  0  0
   40.7080   31.6900   36.3300 H   0  0  0  0  0  0  0  0  0  0  0  0
   39.6360   33.5550   41.1170 N   0  0  0  0  0  0  0  0  0  0  0  0
   40.2410   33.6310   41.9820 H   0  0  0  0  0  0  0  0  0  0  0  0
   38.6320   33.8300   41.2100 H   0  0  0  0  0  0  0  0  0  0  0  0
  1  7  1  0  0  0  0
  2  1  2  0  0  0  0
  3  4  1  0  0  0  0
  3  1  1  0  0  0  0
  6 13  1  0  0  0  0
  6  5  1  0  0  0  0
  7  6  2  0  0  0  0
  8 10  2  0  0  0  0
  8  7  1  0  0  0  0
  9  8  1  0  0  0  0
 10 12  1  0  0  0  0
 11 10  1  0  0  0  0
 12 13  2  0  0  0  0
 14 15  1  0  0  0  0
 14  3  1  0  0  0  0
 15 22  1  0  0  0  0
 16 20  1  0  0  0  0
 16 15  2  0  0  0  0
 17 16  1  0  0  0  0
 18 17  2  0  0  0  0
 18 19  1  0  0  0  0
 19 14  2  0  0  0  0
 21 18  1  0  0  0  0
 22 24  1  0  0  0  0
 22 23  1  0  0  0  0
M  END
>  <minimizedAffinity>
-4.83624125

$$$$

 OpenBabel03252501333D

 24 25  0  0  0  0  0  0  0  0999 V2000
   38.8990   30.1810   40.6510 C   0  0  0  0  0  0  0  0  0  0  0  0
   40.1570   30.1060   40.4720 O   0  0  0  0  0  0  0  0  0  0  0  0
   38.3370   31.2080   39.8420 N   0  0  0  0  0  0  0  0  0  0  0  0
   37.3140   31.3800   39.8780 H   0  0  0  0  0  0  0  0  0  0  0  0
   38.9530   30.1690   43.5390 F   0  0  0  0  0  0  0  0  0  0  0  0
   38.1680   29.2630   42.9260 C   0  0  0  0  0  0  0  0  0  0  0  0
   38.1810   29.3130   41.5690 C   0  0  0  0  0  0  0  0  0  0  0  0
   37.3580   28.3620   40.9610 C   0  0  0  0  0  0  0  0  0  0  0  0
   37.2760   28.2940   39.8770 H   0  0  0  0  0  0  0  0  0  0  0  0
   36.6200   27.4760   41.6980 C   0  0  0  0  0  0  0  0  0  0  0  0
   35.9950   26.7550   41.1940 H   0  0  0  0  0  0  0  0  0  0  0  0
   36.6320   27.4550   43.0710 C   0  0  0  0  0  3  0  0  0  0  0  0
   37.4400   28.3880   43.6790 C   0  0  0  0  0  3  0  0  0  0  0  0
   39.3690   31.8540   39.0790 C   0  0  0  0  0  0  0  0  0  0  0  0
   39.8550   31.4440   37.8420 C   0  0  0  0  0  0  0  0  0  0  0  0
   40.8600   32.2230   37.2820 C   0  0  0  0  0  0  0  0  0  0  0  0
   41.2880   33.3010   37.9590 N   0  0  0  0  0  0  0  0  0  0  0  0
   40.8050   33.6830   39.1550 C   0  0  0  0  0  0  0  0  0  0  0  0
   39.8320   32.9530   39.7280 N   0  0  0  0  0  0  0  0  0  0  0  0
   41.2110   31.8800   36.3330 H   0  0  0  0  0  0  0  0  0  0  0  0
   41.2530   34.5740   39.5730 H   0  0  0  0  0  0  0  0  0  0  0  0
   39.2570   30.2790   37.3140 N   0  0  0  0  0  0  0  0  0  0  0  0
   38.7280   30.1570   36.4050 H   0  0  0  0  0  0  0  0  0  0  0  0
   39.3660   29.4350   37.9210 H   0  0  0  0  0  0  0  0  0  0  0  0
  1  7  1  0  0  0  0
  2  1  2  0  0  0  0
  3  4  1  0  0  0  0
  3  1  1  0  0  0  0
  6  5  1  0  0  0  0
  6 13  1  0  0  0  0
  7  6  2  0  0  0  0
  8  7  1  0  0  0  0
  8 10  2  0  0  0  0
  9  8  1  0  0  0  0
 10 12  1  0  0  0  0
 11 10  1  0  0  0  0
 12 13  2  0  0  0  0
 14 19  1  0  0  0  0
 14  3  1  0  0  0  0
 15 14  2  0  0  0  0
 16 15  1  0  0  0  0
 16 17  2  0  0  0  0
 17 18  1  0  0  0  0
 18 21  1  0  0  0  0
 18 19  2  0  0  0  0
 20 16  1  0  0  0  0
 22 15  1  0  0  0  0
 22 24  1  0  0  0  0
 23 22  1  0  0  0  0
M  END
>  <minimizedAffinity>
-4.82661438

$$$$

 OpenBabel03252501333D

 24 25  0  0  0  0  0  0  0  0999 V2000
   37.4540   28.8270   41.0380 C   0  0  0  0  0  0  0  0  0  0  0  0
   36.8340   29.7230   41.6960 O   0  0  0  0  0  0  0  0  0  0  0  0
   38.3530   29.4180   40.1080 N   0  0  0  0  0  0  0  0  0  0  0  0
   38.9350   28.8070   39.5050 H   0  0  0  0  0  0  0  0  0  0  0  0
   37.5570   27.3260   43.5050 F   0  0  0  0  0  0  0  0  0  0  0  0
   37.2710   26.6510   42.3750 C   0  0  0  0  0  0  0  0  0  0  0  0
   37.2360   27.4050   41.2460 C   0  0  0  0  0  0  0  0  0  0  0  0
   36.9380   26.6780   40.0910 C   0  0  0  0  0  0  0  0  0  0  0  0
   36.8790   27.1630   39.1170 H   0  0  0  0  0  0  0  0  0  0  0  0
   36.7090   25.3290   40.1310 C   0  0  0  0  0  0  0  0  0  0  0  0
   36.4810   24.8010   39.2190 H   0  0  0  0  0  0  0  0  0  0  0  0
   36.7520   24.6000   41.2930 C   0  0  0  0  0  3  0  0  0  0  0  0
   37.0450   25.3070   42.4370 C   0  0  0  0  0  3  0  0  0  0  0  0
   38.2740   30.8520   40.1910 C   0  0  0  0  0  0  0  0  0  0  0  0
   39.0000   31.6660   41.0530 C   0  0  0  0  0  0  0  0  0  0  0  0
   38.7640   33.0330   40.9610 C   0  0  0  0  0  0  0  0  0  0  0  0
   37.8680   33.4680   40.0610 N   0  0  0  0  0  0  0  0  0  0  0  0
   37.1760   32.6650   39.2340 C   0  0  0  0  0  0  0  0  0  0  0  0
   37.3770   31.3370   39.2940 N   0  0  0  0  0  0  0  0  0  0  0  0
   39.3370   33.6280   41.6380 H   0  0  0  0  0  0  0  0  0  0  0  0
   36.4900   33.1680   38.5650 H   0  0  0  0  0  0  0  0  0  0  0  0
   39.8890   30.9910   41.9180 N   0  0  0  0  0  0  0  0  0  0  0  0
   40.9400   31.0910   42.0020 H   0  0  0  0  0  0  0  0  0  0  0  0
   39.4220   30.3020   42.5520 H   0  0  0  0  0  0  0  0  0  0  0  0
  1  7  1  0  0  0  0
  1  2  2  0  0  0  0
  3 14  1  0  0  0  0
  3  1  1  0  0  0  0
  4  3  1  0  0  0  0
  6 13  1  0  0  0  0
  6  5  1  0  0  0  0
  7  6  2  0  0  0  0
  8 10  2  0  0  0  0
  8  7  1  0  0  0  0
  9  8  1  0  0  0  0
 10 12  1  0  0  0  0
 11 10  1  0  0  0  0
 12 13  2  0  0  0  0
 14 15  1  0  0  0  0
 15 22  1  0  0  0  0
 16 15  2  0  0  0  0
 16 20  1  0  0  0  0
 17 16  1  0  0  0  0
 18 19  1  0  0  0  0
 18 17  2  0  0  0  0
 19 14  2  0  0  0  0
 21 18  1  0  0  0  0
 22 23  1  0  0  0  0
 22 24  1  0  0  0  0
M  END
>  <minimizedAffinity>
-4.73548126

$$$$
