
 OpenBabel03252503073D

 27 29  0  0  1  0  0  0  0  0999 V2000
   45.5840   36.2170   43.2320 C   0  0  0  0  0  0  0  0  0  0  0  0
   46.2220   34.9680   43.0180 C   0  0  0  0  0  0  0  0  0  0  0  0
   45.9480   34.0050   43.9640 C   0  0  0  0  0  0  0  0  0  0  0  0
   45.1330   34.2170   45.0190 N   0  0  0  0  0  0  0  0  0  0  0  0
   44.5350   35.4400   45.1860 C   0  0  0  0  0  0  0  0  0  0  0  0
   44.7680   36.4310   44.2880 N   0  0  0  0  0  0  0  0  0  0  0  0
   45.7000   37.0720   42.5800 H   0  0  0  0  0  0  0  0  0  0  0  0
   43.8930   35.5590   46.0450 H   0  0  0  0  0  0  0  0  0  0  0  0
   46.5350   32.7500   43.8190 C   0  0  0  0  0  0  0  0  0  0  0  0
   47.7940   32.2460   44.0380 C   0  0  0  0  0  0  0  0  0  0  0  0
   48.1250   30.9860   43.7920 C   0  0  0  0  0  0  0  0  0  0  0  0
   47.1370   30.1690   43.2960 C   0  0  0  0  0  0  0  0  0  0  0  0
   45.6820   31.3120   43.1950 S   0  0  0  0  0  0  0  0  0  0  0  0
   48.6530   32.7500   44.4400 H   0  0  0  0  0  0  0  0  0  0  0  0
   48.9580   30.3350   43.8510 H   0  0  0  0  0  0  0  0  0  0  0  0
   46.8750   29.1490   42.9470 H   0  0  0  0  0  0  0  0  0  0  0  0
   47.0290   34.8340   41.8720 C   0  0  2  0  0  0  0  0  0  0  0  0
   48.2280   35.3910   41.9960 O   0  0  0  0  0  0  0  0  0  0  0  0
   44.6790   33.3630   40.6150 F   0  0  0  0  0  0  0  0  0  0  0  0
   45.8050   33.4900   39.9020 C   0  0  0  0  0  0  0  0  0  0  0  0
   46.7730   34.2030   40.5470 C   0  0  0  0  0  0  0  0  0  0  0  0
   47.8900   34.3520   39.6870 C   0  0  0  0  0  0  0  0  0  0  0  0
   48.8010   34.9020   39.9940 H   0  0  0  0  0  0  0  0  0  0  0  0
   48.0400   33.8780   38.3970 C   0  0  0  0  0  0  0  0  0  0  0  0
   48.9190   34.0250   37.7920 H   0  0  0  0  0  0  0  0  0  0  0  0
   46.9690   33.1760   37.8980 C   0  0  0  0  0  0  0  0  0  0  0  0
   45.8360   32.9730   38.6430 C   0  0  0  0  0  0  0  0  0  0  0  0
  1  6  1  0  0  0  0
  2  1  2  0  0  0  0
  2  3  1  0  0  0  0
  3  4  2  0  0  0  0
  4  5  1  0  0  0  0
  5  8  1  0  0  0  0
  6  5  2  0  0  0  0
  7  1  1  0  0  0  0
  9  3  1  0  0  0  0
  9 10  2  0  0  0  0
 10 14  1  0  0  0  0
 11 15  1  0  0  0  0
 11 10  1  0  0  0  0
 12 11  2  0  0  0  0
 13 12  1  0  0  0  0
 13  9  1  0  0  0  0
 16 12  1  0  0  0  0
 17 18  1  6  0  0  0
 17  2  1  0  0  0  0
 20 21  1  0  0  0  0
 20 19  1  0  0  0  0
 21 17  1  0  0  0  0
 22 23  1  0  0  0  0
 22 21  2  0  0  0  0
 24 22  1  0  0  0  0
 25 24  1  0  0  0  0
 26 24  2  0  0  0  0
 26 27  1  0  0  0  0
 27 20  2  0  0  0  0
M  END
>  <minimizedAffinity>
-4.80814457

>  <minimizedRMSD>
1.28519475

$$$$
