
 OpenBabel03252508023D

 42 45  0  0  1  0  0  0  0  0999 V2000
   42.0250   33.3040   41.2060 C   0  0  0  0  0  0  0  0  0  0  0  0
   42.7940   34.4250   41.3310 C   0  0  0  0  0  0  0  0  0  0  0  0
   42.1580   35.6760   41.2240 C   0  0  0  0  0  0  0  0  0  0  0  0
   40.8100   35.8240   41.0030 C   0  0  0  0  0  0  0  0  0  0  0  0
   40.0460   34.6950   40.8780 C   0  0  0  0  0  0  0  0  0  0  0  0
   40.6540   33.4820   40.9800 C   0  0  0  0  0  0  0  0  0  0  0  0
   42.6880   36.6190   41.3000 H   0  0  0  0  0  0  0  0  0  0  0  0
   40.3370   36.7660   40.9230 H   0  0  0  0  0  0  0  0  0  0  0  0
   39.0000   34.7410   40.7080 H   0  0  0  0  0  0  0  0  0  0  0  0
   40.0380   32.5950   40.8800 H   0  0  0  0  0  0  0  0  0  0  0  0
   42.6340   31.7510   41.4190 S   0  0  0  0  0  0  0  0  0  0  0  0
   42.0030   31.0320   40.1850 O   0  0  0  0  0  0  0  0  0  0  0  0
   42.1060   31.0760   42.6310 O   0  0  0  0  0  0  0  0  0  0  0  0
   44.4080   30.5340   43.3230 F   0  0  0  0  0  0  0  0  0  0  0  0
   44.8430   30.4910   42.0150 C   0  0  0  0  0  0  0  0  0  0  0  0
   44.1040   31.0750   40.9470 C   0  0  0  0  0  0  0  0  0  0  0  0
   44.7710   30.8830   39.7420 C   0  0  0  0  0  0  0  0  0  0  0  0
   44.1520   31.2980   38.9240 H   0  0  0  0  0  0  0  0  0  0  0  0
   45.9540   30.2660   39.4200 C   0  0  0  0  0  0  0  0  0  0  0  0
   46.2810   30.2370   38.4130 H   0  0  0  0  0  0  0  0  0  0  0  0
   46.5130   29.7730   40.5670 C   0  0  0  0  0  3  0  0  0  0  0  0
   46.0400   29.8400   41.8470 C   0  0  0  0  0  3  0  0  0  0  0  0
   44.2280   34.3750   41.5660 C   0  0  0  0  0  0  0  0  0  0  0  0
   45.1020   34.2690   40.6530 O   0  0  0  0  0  0  0  0  0  0  0  0
   44.5760   34.4620   42.9640 C   0  0  0  0  0  0  0  0  0  0  0  0
   44.2860   35.7200   43.5950 C   0  0  0  0  0  0  0  0  0  0  0  0
   44.6070   35.8300   44.9340 C   0  0  0  0  0  0  0  0  0  0  0  0
   45.1680   34.7580   45.5620 N   0  0  0  0  0  0  0  0  0  0  0  0
   45.4230   33.5800   44.9080 C   0  0  0  0  0  0  0  0  0  0  0  0
   45.1270   33.4690   43.6590 N   0  0  0  0  0  0  0  0  0  0  0  0
   43.8570   36.5980   43.1860 H   0  0  0  0  0  0  0  0  0  0  0  0
   44.4430   36.7170   45.5280 H   0  0  0  0  0  0  0  0  0  0  0  0
   46.0220   32.4640   45.6700 C   0  0  1  0  0  0  0  0  0  0  0  0
   46.9680   32.7770   46.8070 C   0  0  0  0  0  0  0  0  0  0  0  0
   45.5610   32.3500   47.0710 C   0  0  1  0  0  0  0  0  0  0  0  0
   46.1460   31.5160   45.1230 H   0  0  0  0  0  0  0  0  0  0  0  0
   47.7400   31.9950   46.9810 H   0  0  0  0  0  0  0  0  0  0  0  0
   47.2750   33.8330   46.8830 H   0  0  0  0  0  0  0  0  0  0  0  0
   45.3880   31.3460   47.5280 H   0  0  0  0  0  0  0  0  0  0  0  0
   44.7600   33.4090   47.6650 N   0  0  0  0  0  0  0  0  0  0  0  0
   45.2990   33.9450   48.3930 H   0  0  0  0  0  0  0  0  0  0  0  0
   43.9330   33.0030   48.1320 H   0  0  0  0  0  0  0  0  0  0  0  0
  1  2  1  0  0  0  0
  1 11  1  0  0  0  0
  2 23  1  0  0  0  0
  3  7  1  0  0  0  0
  3  2  2  0  0  0  0
  4  3  1  0  0  0  0
  5  6  1  0  0  0  0
  5  4  2  0  0  0  0
  6  1  2  0  0  0  0
  8  4  1  0  0  0  0
  9  5  1  0  0  0  0
 10  6  1  0  0  0  0
 11 13  2  0  0  0  0
 12 11  2  0  0  0  0
 15 14  1  0  0  0  0
 16 11  1  0  0  0  0
 16 15  2  0  0  0  0
 17 16  1  0  0  0  0
 18 17  1  0  0  0  0
 19 17  2  0  0  0  0
 19 21  1  0  0  0  0
 20 19  1  0  0  0  0
 21 22  2  0  0  0  0
 22 15  1  0  0  0  0
 23 25  1  0  0  0  0
 24 23  2  0  0  0  0
 25 26  2  0  0  0  0
 25 30  1  0  0  0  0
 26 27  1  0  0  0  0
 27 32  1  0  0  0  0
 27 28  2  0  0  0  0
 29 28  1  0  0  0  0
 29 33  1  0  0  0  0
 30 29  2  0  0  0  0
 31 26  1  0  0  0  0
 33 36  1  6  0  0  0
 33 34  1  0  0  0  0
 33 35  1  0  0  0  0
 34 38  1  0  0  0  0
 34 37  1  0  0  0  0
 34 35  1  0  0  0  0
 35 39  1  1  0  0  0
 35 40  1  0  0  0  0
 40 42  1  0  0  0  0
 40 41  1  0  0  0  0
M  END
>  <minimizedAffinity>
-5.8247385

>  <minimizedRMSD>
0.72897625

$$$$
