
 OpenBabel03252508023D

 42 45  0  0  1  0  0  0  0  0999 V2000
   42.0250   33.3060   41.1810 C   0  0  0  0  0  0  0  0  0  0  0  0
   42.7950   34.4250   41.3220 C   0  0  0  0  0  0  0  0  0  0  0  0
   42.1610   35.6790   41.2310 C   0  0  0  0  0  0  0  0  0  0  0  0
   40.8140   35.8310   41.0100 C   0  0  0  0  0  0  0  0  0  0  0  0
   40.0470   34.7050   40.8690 C   0  0  0  0  0  0  0  0  0  0  0  0
   40.6540   33.4890   40.9560 C   0  0  0  0  0  0  0  0  0  0  0  0
   42.6920   36.6190   41.3200 H   0  0  0  0  0  0  0  0  0  0  0  0
   40.3410   36.7750   40.9410 H   0  0  0  0  0  0  0  0  0  0  0  0
   39.0020   34.7540   40.6980 H   0  0  0  0  0  0  0  0  0  0  0  0
   40.0370   32.6050   40.8440 H   0  0  0  0  0  0  0  0  0  0  0  0
   42.6310   31.7500   41.3750 S   0  0  0  0  0  0  0  0  0  0  0  0
   41.9320   31.0280   40.1800 O   0  0  0  0  0  0  0  0  0  0  0  0
   42.1600   31.0890   42.6170 O   0  0  0  0  0  0  0  0  0  0  0  0
   44.4550   30.4660   43.1860 F   0  0  0  0  0  0  0  0  0  0  0  0
   44.8390   30.4420   41.8610 C   0  0  0  0  0  0  0  0  0  0  0  0
   44.0700   31.0590   40.8330 C   0  0  0  0  0  0  0  0  0  0  0  0
   44.6860   30.8800   39.6010 C   0  0  0  0  0  0  0  0  0  0  0  0
   44.0450   31.3210   38.8150 H   0  0  0  0  0  0  0  0  0  0  0  0
   45.8450   30.2480   39.2210 C   0  0  0  0  0  0  0  0  0  0  0  0
   46.1320   30.2340   38.2020 H   0  0  0  0  0  0  0  0  0  0  0  0
   46.4380   29.7230   40.3360 C   0  0  0  0  0  3  0  0  0  0  0  0
   46.0160   29.7740   41.6350 C   0  0  0  0  0  3  0  0  0  0  0  0
   44.2280   34.3700   41.5580 C   0  0  0  0  0  0  0  0  0  0  0  0
   45.1030   34.2600   40.6460 O   0  0  0  0  0  0  0  0  0  0  0  0
   44.5760   34.4570   42.9560 C   0  0  0  0  0  0  0  0  0  0  0  0
   44.2910   35.7170   43.5860 C   0  0  0  0  0  0  0  0  0  0  0  0
   44.6110   35.8270   44.9250 C   0  0  0  0  0  0  0  0  0  0  0  0
   45.1670   34.7530   45.5550 N   0  0  0  0  0  0  0  0  0  0  0  0
   45.4170   33.5730   44.9020 C   0  0  0  0  0  0  0  0  0  0  0  0
   45.1210   33.4620   43.6530 N   0  0  0  0  0  0  0  0  0  0  0  0
   43.8660   36.5970   43.1760 H   0  0  0  0  0  0  0  0  0  0  0  0
   44.4510   36.7150   45.5180 H   0  0  0  0  0  0  0  0  0  0  0  0
   46.0100   32.4560   45.6660 C   0  0  1  0  0  0  0  0  0  0  0  0
   46.9620   32.7650   46.7990 C   0  0  0  0  0  0  0  0  0  0  0  0
   45.5520   32.3490   47.0690 C   0  0  1  0  0  0  0  0  0  0  0  0
   46.1250   31.5050   45.1220 H   0  0  0  0  0  0  0  0  0  0  0  0
   47.7290   31.9780   46.9730 H   0  0  0  0  0  0  0  0  0  0  0  0
   47.2770   33.8190   46.8710 H   0  0  0  0  0  0  0  0  0  0  0  0
   45.3740   31.3480   47.5290 H   0  0  0  0  0  0  0  0  0  0  0  0
   44.7610   33.4160   47.6620 N   0  0  0  0  0  0  0  0  0  0  0  0
   45.3070   33.9500   48.3860 H   0  0  0  0  0  0  0  0  0  0  0  0
   43.9330   33.0180   48.1330 H   0  0  0  0  0  0  0  0  0  0  0  0
  1  2  1  0  0  0  0
  1 11  1  0  0  0  0
  2 23  1  0  0  0  0
  3  7  1  0  0  0  0
  3  2  2  0  0  0  0
  4  3  1  0  0  0  0
  5  6  1  0  0  0  0
  5  4  2  0  0  0  0
  6  1  2  0  0  0  0
  8  4  1  0  0  0  0
  9  5  1  0  0  0  0
 10  6  1  0  0  0  0
 11 13  2  0  0  0  0
 12 11  2  0  0  0  0
 15 14  1  0  0  0  0
 16 11  1  0  0  0  0
 16 15  2  0  0  0  0
 17 16  1  0  0  0  0
 18 17  1  0  0  0  0
 19 17  2  0  0  0  0
 19 21  1  0  0  0  0
 20 19  1  0  0  0  0
 21 22  2  0  0  0  0
 22 15  1  0  0  0  0
 23 25  1  0  0  0  0
 24 23  2  0  0  0  0
 25 26  2  0  0  0  0
 25 30  1  0  0  0  0
 26 27  1  0  0  0  0
 27 32  1  0  0  0  0
 27 28  2  0  0  0  0
 29 28  1  0  0  0  0
 29 33  1  0  0  0  0
 30 29  2  0  0  0  0
 31 26  1  0  0  0  0
 33 36  1  6  0  0  0
 33 34  1  0  0  0  0
 33 35  1  0  0  0  0
 34 38  1  0  0  0  0
 34 37  1  0  0  0  0
 34 35  1  0  0  0  0
 35 39  1  1  0  0  0
 35 40  1  0  0  0  0
 40 42  1  0  0  0  0
 40 41  1  0  0  0  0
M  END
>  <minimizedAffinity>
-5.80472088

>  <minimizedRMSD>
0.738411248

$$$$
