
 OpenBabel03252507453D

 37 39  0  0  0  0  0  0  0  0999 V2000
   47.6220   34.8160   41.0860 C   0  0  0  0  0  0  0  0  0  0  0  0
   46.9890   34.4040   40.2920 H   0  0  0  0  0  0  0  0  0  0  0  0
   48.0140   35.8050   40.7570 H   0  0  0  0  0  0  0  0  0  0  0  0
   48.7990   33.9630   41.3540 C   0  0  0  0  0  0  0  0  0  0  0  0
   48.8290   32.7270   40.7230 C   0  0  0  0  0  0  0  0  0  0  0  0
   49.9140   31.8780   40.9360 C   0  0  0  0  0  0  0  0  0  0  0  0
   50.9060   32.3070   41.7640 N   0  0  0  0  0  0  0  0  0  0  0  0
   50.8390   33.5170   42.3580 C   0  0  0  0  0  0  0  0  0  0  0  0
   49.8050   34.3150   42.1490 N   0  0  0  0  0  0  0  0  0  0  0  0
   49.9730   30.9050   40.4610 H   0  0  0  0  0  0  0  0  0  0  0  0
   51.6870   33.7420   42.9920 H   0  0  0  0  0  0  0  0  0  0  0  0
   47.4830   32.2330   39.6470 S   0  0  0  0  0  0  0  0  0  0  0  0
   47.9450   34.4420   37.8060 F   0  0  0  0  0  0  0  0  0  0  0  0
   48.1640   33.2070   37.2800 C   0  0  0  0  0  0  0  0  0  0  0  0
   48.0080   32.0130   37.9690 C   0  0  0  0  0  0  0  0  0  0  0  0
   48.2690   30.8290   37.3040 C   0  0  0  0  0  0  0  0  0  0  0  0
   48.1230   29.9500   37.9120 H   0  0  0  0  0  0  0  0  0  0  0  0
   48.6700   30.8610   35.9940 C   0  0  0  0  0  0  0  0  0  0  0  0
   48.8640   29.9240   35.5050 H   0  0  0  0  0  0  0  0  0  0  0  0
   48.8250   32.0470   35.3070 C   0  0  0  0  0  0  0  0  0  0  0  0
   48.5700   33.2370   35.9570 C   0  0  0  0  0  0  0  0  0  0  0  0
   46.7650   35.0470   42.2860 C   0  0  0  0  0  0  0  0  0  0  0  0
   46.9940   36.0470   42.7050 H   0  0  0  0  0  0  0  0  0  0  0  0
   46.9820   34.2830   43.0590 H   0  0  0  0  0  0  0  0  0  0  0  0
   45.3000   34.9870   42.0000 C   0  0  0  0  0  0  0  0  0  0  0  0
   44.3840   35.6500   42.8720 C   0  0  0  0  0  0  0  0  0  0  0  0
   42.7510   35.2870   42.1090 S   0  0  0  0  0  0  0  0  0  0  0  0
   43.5970   34.2870   40.7250 C   0  0  0  0  0  0  0  0  0  0  0  0
   44.7010   34.3820   41.0140 N   0  0  0  0  0  0  0  0  0  0  0  0
   44.6240   36.2220   43.7580 H   0  0  0  0  0  0  0  0  0  0  0  0
   42.8910   33.6650   39.6980 O   0  0  0  0  0  0  0  0  0  0  0  0
   40.9690   33.8260   37.8770 O   0  0  0  0  0  0  0  0  0  0  0  0
   41.9670   34.6610   38.6710 P   0  0  0  0  0  0  0  0  0  0  0  0
   41.1160   35.7490   39.6480 O   0  0  0  0  0  0  0  0  0  0  0  0
   40.3450   35.2340   40.0250 H   0  0  0  0  0  0  0  0  0  0  0  0
   42.9780   35.5330   37.6380 O   0  0  0  0  0  0  0  0  0  0  0  0
   43.5190   34.9470   37.0690 H   0  0  0  0  0  0  0  0  0  0  0  0
  1  4  1  0  0  0  0
  1 22  1  0  0  0  0
  2  1  1  0  0  0  0
  3  1  1  0  0  0  0
  4  9  1  0  0  0  0
  5  6  1  0  0  0  0
  5  4  2  0  0  0  0
  6  7  2  0  0  0  0
  7  8  1  0  0  0  0
  8 11  1  0  0  0  0
  9  8  2  0  0  0  0
 10  6  1  0  0  0  0
 12  5  1  0  0  0  0
 14 13  1  0  0  0  0
 14 15  1  0  0  0  0
 15 12  1  0  0  0  0
 16 17  1  0  0  0  0
 16 15  2  0  0  0  0
 18 16  1  0  0  0  0
 19 18  1  0  0  0  0
 20 21  1  0  0  0  0
 20 18  2  0  0  0  0
 21 14  2  0  0  0  0
 22 23  1  0  0  0  0
 22 24  1  0  0  0  0
 25 22  1  0  0  0  0
 25 26  2  0  0  0  0
 26 30  1  0  0  0  0
 27 26  1  0  0  0  0
 28 29  2  0  0  0  0
 28 27  1  0  0  0  0
 29 25  1  0  0  0  0
 31 28  1  0  0  0  0
 32 33  2  0  0  0  0
 33 34  1  0  0  0  0
 33 31  1  0  0  0  0
 34 35  1  0  0  0  0
 36 33  1  0  0  0  0
 37 36  1  0  0  0  0
M  END
>  <minimizedAffinity>
-5.07997704

>  <minimizedRMSD>
0.713377297

$$$$
