
 OpenBabel03252508023D

 42 45  0  0  1  0  0  0  0  0999 V2000
   42.0450   33.2710   41.1220 C   0  0  0  0  0  0  0  0  0  0  0  0
   42.7980   34.3950   41.3110 C   0  0  0  0  0  0  0  0  0  0  0  0
   42.1430   35.6410   41.2760 C   0  0  0  0  0  0  0  0  0  0  0  0
   40.7920   35.7800   41.0640 C   0  0  0  0  0  0  0  0  0  0  0  0
   40.0450   34.6490   40.8750 C   0  0  0  0  0  0  0  0  0  0  0  0
   40.6710   33.4410   40.9060 C   0  0  0  0  0  0  0  0  0  0  0  0
   42.6580   36.5850   41.4060 H   0  0  0  0  0  0  0  0  0  0  0  0
   40.3050   36.7180   41.0370 H   0  0  0  0  0  0  0  0  0  0  0  0
   38.9990   34.6880   40.7070 H   0  0  0  0  0  0  0  0  0  0  0  0
   40.0690   32.5520   40.7560 H   0  0  0  0  0  0  0  0  0  0  0  0
   42.6780   31.7180   41.2460 S   0  0  0  0  0  0  0  0  0  0  0  0
   41.5340   30.8960   40.5710 O   0  0  0  0  0  0  0  0  0  0  0  0
   42.7870   31.2400   42.6460 O   0  0  0  0  0  0  0  0  0  0  0  0
   43.3080   28.9490   41.6890 F   0  0  0  0  0  0  0  0  0  0  0  0
   43.9200   29.5160   40.5890 C   0  0  0  0  0  0  0  0  0  0  0  0
   43.7450   30.8850   40.2410 C   0  0  0  0  0  0  0  0  0  0  0  0
   44.4720   31.1840   39.0950 C   0  0  0  0  0  0  0  0  0  0  0  0
   44.2790   32.2380   38.8170 H   0  0  0  0  0  0  0  0  0  0  0  0
   45.2870   30.4320   38.2850 C   0  0  0  0  0  0  0  0  0  0  0  0
   45.7530   30.8740   37.4440 H   0  0  0  0  0  0  0  0  0  0  0  0
   45.3300   29.1570   38.7780 C   0  0  0  0  0  3  0  0  0  0  0  0
   44.7010   28.6420   39.8770 C   0  0  0  0  0  3  0  0  0  0  0  0
   44.2320   34.3530   41.5430 C   0  0  0  0  0  0  0  0  0  0  0  0
   45.1050   34.2520   40.6270 O   0  0  0  0  0  0  0  0  0  0  0  0
   44.5830   34.4420   42.9390 C   0  0  0  0  0  0  0  0  0  0  0  0
   44.3040   35.7050   43.5670 C   0  0  0  0  0  0  0  0  0  0  0  0
   44.6280   35.8160   44.9050 C   0  0  0  0  0  0  0  0  0  0  0  0
   45.1810   34.7420   45.5360 N   0  0  0  0  0  0  0  0  0  0  0  0
   45.4240   33.5600   44.8850 C   0  0  0  0  0  0  0  0  0  0  0  0
   45.1260   33.4460   43.6370 N   0  0  0  0  0  0  0  0  0  0  0  0
   43.8830   36.5850   43.1550 H   0  0  0  0  0  0  0  0  0  0  0  0
   44.4730   36.7070   45.4960 H   0  0  0  0  0  0  0  0  0  0  0  0
   46.0150   32.4410   45.6510 C   0  0  1  0  0  0  0  0  0  0  0  0
   46.9650   32.7500   46.7860 C   0  0  0  0  0  0  0  0  0  0  0  0
   45.5550   32.3360   47.0530 C   0  0  1  0  0  0  0  0  0  0  0  0
   46.1300   31.4900   45.1080 H   0  0  0  0  0  0  0  0  0  0  0  0
   47.7310   31.9610   46.9610 H   0  0  0  0  0  0  0  0  0  0  0  0
   47.2820   33.8040   46.8570 H   0  0  0  0  0  0  0  0  0  0  0  0
   45.3740   31.3360   47.5140 H   0  0  0  0  0  0  0  0  0  0  0  0
   44.7640   33.4040   47.6440 N   0  0  0  0  0  0  0  0  0  0  0  0
   45.3100   33.9380   48.3690 H   0  0  0  0  0  0  0  0  0  0  0  0
   43.9350   33.0080   48.1140 H   0  0  0  0  0  0  0  0  0  0  0  0
  1 11  1  0  0  0  0
  1  2  1  0  0  0  0
  2 23  1  0  0  0  0
  3  2  2  0  0  0  0
  3  7  1  0  0  0  0
  4  3  1  0  0  0  0
  5  6  1  0  0  0  0
  5  4  2  0  0  0  0
  6  1  2  0  0  0  0
  8  4  1  0  0  0  0
  9  5  1  0  0  0  0
 10  6  1  0  0  0  0
 11 13  2  0  0  0  0
 12 11  2  0  0  0  0
 15 14  1  0  0  0  0
 16 15  1  0  0  0  0
 16 11  1  0  0  0  0
 17 16  2  0  0  0  0
 18 17  1  0  0  0  0
 19 21  2  0  0  0  0
 19 17  1  0  0  0  0
 20 19  1  0  0  0  0
 21 22  1  0  0  0  0
 22 15  2  0  0  0  0
 23 25  1  0  0  0  0
 24 23  2  0  0  0  0
 25 26  2  0  0  0  0
 25 30  1  0  0  0  0
 26 27  1  0  0  0  0
 27 32  1  0  0  0  0
 27 28  2  0  0  0  0
 29 28  1  0  0  0  0
 29 33  1  0  0  0  0
 30 29  2  0  0  0  0
 31 26  1  0  0  0  0
 33 36  1  6  0  0  0
 33 34  1  0  0  0  0
 33 35  1  0  0  0  0
 34 38  1  0  0  0  0
 34 37  1  0  0  0  0
 34 35  1  0  0  0  0
 35 39  1  1  0  0  0
 35 40  1  0  0  0  0
 40 42  1  0  0  0  0
 40 41  1  0  0  0  0
M  END
>  <minimizedAffinity>
-5.716887

>  <minimizedRMSD>
1.2231251

$$$$
