
 OpenBabel03252508593D

 45 47  0  0  1  0  0  0  0  0999 V2000
   46.8370   34.3650   43.5550 N   0  0  0  0  0  0  0  0  0  0  0  0
   46.4230   35.5210   42.8470 C   0  0  0  0  0  0  0  0  0  0  0  0
   44.9270   35.7730   42.8660 C   0  0  0  0  0  0  0  0  0  0  0  0
   44.2570   35.3810   44.1610 C   0  0  0  0  0  0  0  0  0  0  0  0
   45.2440   34.8600   45.1730 C   0  0  0  0  0  0  0  0  0  0  0  0
   45.9740   33.6970   44.4090 C   0  0  2  0  0  0  0  0  0  0  0  0
   46.7590   35.5990   41.8140 H   0  0  0  0  0  0  0  0  0  0  0  0
   46.8730   36.3990   43.3740 H   0  0  0  0  0  0  0  0  0  0  0  0
   44.7230   36.7920   42.5390 H   0  0  0  0  0  0  0  0  0  0  0  0
   44.5150   35.0850   42.0800 H   0  0  0  0  0  0  0  0  0  0  0  0
   43.4120   34.6970   44.0300 H   0  0  0  0  0  0  0  0  0  0  0  0
   43.8420   36.3280   44.5850 H   0  0  0  0  0  0  0  0  0  0  0  0
   44.6840   34.4410   46.0100 H   0  0  0  0  0  0  0  0  0  0  0  0
   45.9840   35.6310   45.4200 H   0  0  0  0  0  0  0  0  0  0  0  0
   45.1620   33.0830   43.9730 H   0  0  0  0  0  0  0  0  0  0  0  0
   47.8790   33.6250   42.9060 C   0  0  0  0  0  0  0  0  0  0  0  0
   48.4960   34.3630   42.3450 H   0  0  0  0  0  0  0  0  0  0  0  0
   48.5280   33.1120   43.6260 H   0  0  0  0  0  0  0  0  0  0  0  0
   47.2690   32.6420   41.9660 C   0  0  0  0  0  0  0  0  0  0  0  0
   47.4300   31.6080   42.2760 H   0  0  0  0  0  0  0  0  0  0  0  0
   46.1530   32.7730   41.9180 H   0  0  0  0  0  0  0  0  0  0  0  0
   49.1530   32.0820   38.7630 C   0  0  0  0  0  0  0  0  0  0  0  0
   48.6240   31.8890   40.0550 C   0  0  0  0  0  0  0  0  0  0  0  0
   47.8190   32.8590   40.6030 C   0  0  0  0  0  0  0  0  0  0  0  0
   47.5720   33.9580   39.8720 N   0  0  0  0  0  0  0  0  0  0  0  0
   48.0860   34.1280   38.6340 C   0  0  0  0  0  0  0  0  0  0  0  0
   48.8780   33.1940   38.0730 N   0  0  0  0  0  0  0  0  0  0  0  0
   49.7850   31.2940   38.3600 H   0  0  0  0  0  0  0  0  0  0  0  0
   48.8510   31.0000   40.5930 H   0  0  0  0  0  0  0  0  0  0  0  0
   47.8960   35.0090   38.0320 H   0  0  0  0  0  0  0  0  0  0  0  0
   46.6570   33.0690   45.4430 O   0  0  0  0  0  0  0  0  0  0  0  0
   45.4330   30.9420   44.4400 O   0  0  0  0  0  0  0  0  0  0  0  0
   46.1850   31.4690   45.6450 P   0  0  2  0  0  0  0  0  0  0  0  0
   45.0640   31.4570   46.9380 O   0  0  0  0  0  0  0  0  0  0  0  0
   45.3550   32.0660   47.6640 H   0  0  0  0  0  0  0  0  0  0  0  0
   47.4670   30.4670   46.0590 O   0  0  0  0  0  0  0  0  0  0  0  0
   48.8870   28.2790   46.7250 F   0  0  0  0  0  0  0  0  0  0  0  0
   48.7870   29.3490   47.5710 C   0  0  0  0  0  0  0  0  0  0  0  0
   48.0800   30.5040   47.2990 C   0  0  0  0  0  0  0  0  0  0  0  0
   48.0660   31.5090   48.2510 C   0  0  0  0  0  0  0  0  0  0  0  0
   47.4910   32.3700   47.9580 H   0  0  0  0  0  0  0  0  0  0  0  0
   48.7410   31.3610   49.4360 C   0  0  0  0  0  0  0  0  0  0  0  0
   48.6780   32.2070   50.1350 H   0  0  0  0  0  0  0  0  0  0  0  0
   49.4540   30.2190   49.7290 C   0  0  0  0  0  3  0  0  0  0  0  0
   49.4750   29.1970   48.7750 C   0  0  0  0  0  3  0  0  0  0  0  0
  1  6  1  0  0  0  0
  2  3  1  0  0  0  0
  2  8  1  0  0  0  0
  2  1  1  0  0  0  0
  3  4  1  0  0  0  0
  4 12  1  0  0  0  0
  4  5  1  0  0  0  0
  5 14  1  0  0  0  0
  5 13  1  0  0  0  0
  6 15  1  6  0  0  0
  6  5  1  0  0  0  0
  6 31  1  0  0  0  0
  7  2  1  0  0  0  0
  9  3  1  0  0  0  0
 10  3  1  0  0  0  0
 11  4  1  0  0  0  0
 16  1  1  0  0  0  0
 16 18  1  0  0  0  0
 17 16  1  0  0  0  0
 19 20  1  0  0  0  0
 19 16  1  0  0  0  0
 21 19  1  0  0  0  0
 22 23  1  0  0  0  0
 23 29  1  0  0  0  0
 23 24  2  0  0  0  0
 24 19  1  0  0  0  0
 25 24  1  0  0  0  0
 26 25  2  0  0  0  0
 27 26  1  0  0  0  0
 27 22  2  0  0  0  0
 28 22  1  0  0  0  0
 30 26  1  0  0  0  0
 31 33  1  0  0  0  0
 33 32  2  6  0  0  0
 33 36  1  0  0  0  0
 33 34  1  0  0  0  0
 34 35  1  0  0  0  0
 36 39  1  0  0  0  0
 37 38  1  0  0  0  0
 38 45  1  0  0  0  0
 39 38  2  0  0  0  0
 39 40  1  0  0  0  0
 40 42  2  0  0  0  0
 41 40  1  0  0  0  0
 42 44  1  0  0  0  0
 42 43  1  0  0  0  0
 45 44  2  0  0  0  0
M  END
>  <minimizedAffinity>
-4.77822018

>  <minimizedRMSD>
0.968883216

$$$$
