
 OpenBabel03242513593D

 41 45  0  0  0  0  0  0  0  0999 V2000
   44.4730   35.5890   44.7510 C   0  0  0  0  0  0  0  0  0  0  0  0
   44.6080   35.1910   43.4350 C   0  0  0  0  0  0  0  0  0  0  0  0
   45.2730   33.9630   43.1830 C   0  0  0  0  0  0  0  0  0  0  0  0
   45.7380   33.2530   44.2310 N   0  0  0  0  0  0  0  0  0  0  0  0
   45.5870   33.6790   45.5070 C   0  0  0  0  0  0  0  0  0  0  0  0
   44.9480   34.8560   45.7480 N   0  0  0  0  0  0  0  0  0  0  0  0
   43.9580   36.5320   44.8790 H   0  0  0  0  0  0  0  0  0  0  0  0
   45.4410   33.5440   42.2090 H   0  0  0  0  0  0  0  0  0  0  0  0
   46.0710   32.9510   46.6790 C   0  0  0  0  0  0  0  0  0  0  0  0
   45.2600   32.7800   47.8110 C   0  0  0  0  0  0  0  0  0  0  0  0
   46.0100   32.0550   48.7280 C   0  0  0  0  0  0  0  0  0  0  0  0
   47.2060   31.8160   48.1560 N   0  0  0  0  0  0  0  0  0  0  0  0
   47.2200   32.3570   46.9400 N   0  0  0  0  0  0  0  0  0  0  0  0
   44.2620   33.0880   48.0460 H   0  0  0  0  0  0  0  0  0  0  0  0
   45.7420   31.7210   49.7210 H   0  0  0  0  0  0  0  0  0  0  0  0
   47.5630   29.1220   47.6150 F   0  0  0  0  0  0  0  0  0  0  0  0
   48.4920   29.7820   48.3470 C   0  0  0  0  0  0  0  0  0  0  0  0
   48.3540   31.1220   48.6390 C   0  0  0  0  0  0  0  0  0  0  0  0
   49.3370   31.7630   49.3980 C   0  0  0  0  0  0  0  0  0  0  0  0
   49.1930   32.8270   49.6110 H   0  0  0  0  0  0  0  0  0  0  0  0
   50.4430   31.0700   49.8580 C   0  0  0  0  0  0  0  0  0  0  0  0
   51.1920   31.5950   50.4470 H   0  0  0  0  0  0  0  0  0  0  0  0
   50.5750   29.7100   49.5560 C   0  0  0  0  0  0  0  0  0  0  0  0
   49.5990   29.0560   48.7970 C   0  0  0  0  0  0  0  0  0  0  0  0
   44.1480   35.8830   42.3300 O   0  0  0  0  0  0  0  0  0  0  0  0
   43.4180   35.3240   41.2950 C   0  0  0  0  0  0  0  0  0  0  0  0
   43.9080   34.6160   40.2310 C   0  0  0  0  0  0  0  0  0  0  0  0
   43.0530   34.1170   39.2720 C   0  0  0  0  0  0  0  0  0  0  0  0
   41.6760   34.3080   39.3450 C   0  0  0  0  0  0  0  0  0  0  0  0
   40.9060   33.7950   38.3780 N   0  0  0  0  0  0  0  0  0  0  0  0
   39.5620   33.9670   38.4240 C   0  0  0  0  0  0  0  0  0  0  0  0
   39.0260   34.6700   39.4720 C   0  0  0  0  0  0  0  0  0  0  0  0
   39.8470   35.2080   40.4880 C   0  0  0  0  0  0  0  0  0  0  0  0
   41.1990   35.0180   40.4140 C   0  0  0  0  0  0  0  0  0  0  0  0
   42.0430   35.5380   41.4050 C   0  0  0  0  0  0  0  0  0  0  0  0
   44.9830   34.4790   40.1960 H   0  0  0  0  0  0  0  0  0  0  0  0
   43.5120   33.5630   38.4520 H   0  0  0  0  0  0  0  0  0  0  0  0
   38.9490   33.5490   37.6380 H   0  0  0  0  0  0  0  0  0  0  0  0
   37.9560   34.8160   39.5240 H   0  0  0  0  0  0  0  0  0  0  0  0
   39.4060   35.7620   41.3100 H   0  0  0  0  0  0  0  0  0  0  0  0
   41.5540   36.0820   42.2040 H   0  0  0  0  0  0  0  0  0  0  0  0
  1  7  1  0  0  0  0
  1  6  1  0  0  0  0
  2  1  2  0  0  0  0
  3  2  1  0  0  0  0
  3  4  2  0  0  0  0
  4  5  1  0  0  0  0
  5  6  2  0  0  0  0
  5  9  1  0  0  0  0
  8  3  1  0  0  0  0
  9 13  2  0  0  0  0
  9 10  1  0  0  0  0
 10 14  1  0  0  0  0
 10 11  2  0  0  0  0
 11 15  1  0  0  0  0
 12 18  1  0  0  0  0
 12 11  1  0  0  0  0
 13 12  1  0  0  0  0
 16 17  1  0  0  0  0
 17 18  2  0  0  0  0
 17 24  1  0  0  0  0
 18 19  1  0  0  0  0
 19 20  1  0  0  0  0
 19 21  2  0  0  0  0
 21 22  1  0  0  0  0
 23 21  1  0  0  0  0
 24 23  2  0  0  0  0
 25  2  1  0  0  0  0
 26 35  1  0  0  0  0
 26 25  1  0  0  0  0
 27 26  2  0  0  0  0
 28 29  2  0  0  0  0
 28 27  1  0  0  0  0
 29 34  1  0  0  0  0
 30 31  2  0  0  0  0
 30 29  1  0  0  0  0
 31 32  1  0  0  0  0
 32 39  1  0  0  0  0
 32 33  2  0  0  0  0
 33 40  1  0  0  0  0
 34 33  1  0  0  0  0
 34 35  2  0  0  0  0
 35 41  1  0  0  0  0
 36 27  1  0  0  0  0
 37 28  1  0  0  0  0
 38 31  1  0  0  0  0
M  END
>  <minimizedAffinity>
-7.70273829

>  <minimizedRMSD>
1.67384756

$$$$
