
 OpenBabel03252508593D

 45 47  0  0  1  0  0  0  0  0999 V2000
   47.1600   33.8550   42.8270 N   0  0  0  0  0  0  0  0  0  0  0  0
   46.9390   35.2290   42.5660 C   0  0  0  0  0  0  0  0  0  0  0  0
   45.5230   35.7070   42.8370 C   0  0  0  0  0  0  0  0  0  0  0  0
   44.8650   35.0300   44.0150 C   0  0  0  0  0  0  0  0  0  0  0  0
   45.7880   34.0510   44.6940 C   0  0  0  0  0  0  0  0  0  0  0  0
   46.2330   33.0970   43.5270 C   0  0  2  0  0  0  0  0  0  0  0  0
   47.2240   35.5840   41.5770 H   0  0  0  0  0  0  0  0  0  0  0  0
   47.5810   35.8000   43.2830 H   0  0  0  0  0  0  0  0  0  0  0  0
   45.5040   36.7960   42.8680 H   0  0  0  0  0  0  0  0  0  0  0  0
   44.9420   35.3900   41.9300 H   0  0  0  0  0  0  0  0  0  0  0  0
   43.8970   34.5770   43.7790 H   0  0  0  0  0  0  0  0  0  0  0  0
   44.6670   35.8430   44.7570 H   0  0  0  0  0  0  0  0  0  0  0  0
   45.2060   33.4820   45.4190 H   0  0  0  0  0  0  0  0  0  0  0  0
   46.6770   34.5650   45.0800 H   0  0  0  0  0  0  0  0  0  0  0  0
   45.2930   32.8030   43.0200 H   0  0  0  0  0  0  0  0  0  0  0  0
   47.9990   33.2040   41.8650 C   0  0  0  0  0  0  0  0  0  0  0  0
   48.7280   33.9660   41.5070 H   0  0  0  0  0  0  0  0  0  0  0  0
   48.5610   32.3720   42.3060 H   0  0  0  0  0  0  0  0  0  0  0  0
   47.1600   32.7210   40.7310 C   0  0  0  0  0  0  0  0  0  0  0  0
   46.9350   31.6550   40.8000 H   0  0  0  0  0  0  0  0  0  0  0  0
   46.1620   33.2410   40.7210 H   0  0  0  0  0  0  0  0  0  0  0  0
   49.3120   32.3170   37.6770 C   0  0  0  0  0  0  0  0  0  0  0  0
   48.6520   32.0490   38.8930 C   0  0  0  0  0  0  0  0  0  0  0  0
   47.8490   33.0170   39.4490 C   0  0  0  0  0  0  0  0  0  0  0  0
   47.7300   34.1850   38.7980 N   0  0  0  0  0  0  0  0  0  0  0  0
   48.3690   34.4260   37.6320 C   0  0  0  0  0  0  0  0  0  0  0  0
   49.1620   33.4960   37.0660 N   0  0  0  0  0  0  0  0  0  0  0  0
   49.9390   31.5280   37.2660 H   0  0  0  0  0  0  0  0  0  0  0  0
   48.7800   31.1080   39.3690 H   0  0  0  0  0  0  0  0  0  0  0  0
   48.2840   35.3640   37.0950 H   0  0  0  0  0  0  0  0  0  0  0  0
   46.8380   32.0620   44.2290 O   0  0  0  0  0  0  0  0  0  0  0  0
   46.4270   29.5560   43.4710 O   0  0  0  0  0  0  0  0  0  0  0  0
   45.8720   30.6900   44.3080 P   0  0  2  0  0  0  0  0  0  0  0  0
   44.3770   31.1120   43.5920 O   0  0  0  0  0  0  0  0  0  0  0  0
   44.1010   32.0250   43.8610 H   0  0  0  0  0  0  0  0  0  0  0  0
   45.5740   30.2030   45.8860 O   0  0  0  0  0  0  0  0  0  0  0  0
   45.1160   32.3050   47.5050 F   0  0  0  0  0  0  0  0  0  0  0  0
   46.1870   31.4740   47.6990 C   0  0  0  0  0  0  0  0  0  0  0  0
   46.4860   30.3790   46.9130 C   0  0  0  0  0  0  0  0  0  0  0  0
   47.6040   29.6270   47.2260 C   0  0  0  0  0  0  0  0  0  0  0  0
   47.7610   28.7940   46.5630 H   0  0  0  0  0  0  0  0  0  0  0  0
   48.3960   29.9610   48.2950 C   0  0  0  0  0  0  0  0  0  0  0  0
   49.2640   29.3100   48.4740 H   0  0  0  0  0  0  0  0  0  0  0  0
   48.1180   31.0490   49.0940 C   0  0  0  0  0  3  0  0  0  0  0  0
   46.9920   31.8170   48.7860 C   0  0  0  0  0  3  0  0  0  0  0  0
  1  6  1  0  0  0  0
  2  1  1  0  0  0  0
  2  3  1  0  0  0  0
  2  8  1  0  0  0  0
  3  9  1  0  0  0  0
  3  4  1  0  0  0  0
  4  5  1  0  0  0  0
  4 12  1  0  0  0  0
  5 14  1  0  0  0  0
  5 13  1  0  0  0  0
  6 15  1  6  0  0  0
  6 31  1  0  0  0  0
  6  5  1  0  0  0  0
  7  2  1  0  0  0  0
 10  3  1  0  0  0  0
 11  4  1  0  0  0  0
 16 18  1  0  0  0  0
 16  1  1  0  0  0  0
 17 16  1  0  0  0  0
 19 20  1  0  0  0  0
 19 16  1  0  0  0  0
 21 19  1  0  0  0  0
 22 23  1  0  0  0  0
 23 29  1  0  0  0  0
 23 24  2  0  0  0  0
 24 19  1  0  0  0  0
 25 24  1  0  0  0  0
 26 25  2  0  0  0  0
 27 26  1  0  0  0  0
 27 22  2  0  0  0  0
 28 22  1  0  0  0  0
 30 26  1  0  0  0  0
 31 33  1  0  0  0  0
 33 32  2  6  0  0  0
 33 36  1  0  0  0  0
 34 35  1  0  0  0  0
 34 33  1  0  0  0  0
 36 39  1  0  0  0  0
 37 38  1  0  0  0  0
 38 45  1  0  0  0  0
 39 40  1  0  0  0  0
 39 38  2  0  0  0  0
 40 42  2  0  0  0  0
 41 40  1  0  0  0  0
 42 43  1  0  0  0  0
 42 44  1  0  0  0  0
 45 44  2  0  0  0  0
M  END
>  <minimizedAffinity>
-4.89582205

>  <minimizedRMSD>
1.55253935

$$$$
