
 OpenBabel03252503173D

 36 39  0  0  0  0  0  0  0  0999 V2000
   40.0700   32.7980   39.8040 C   0  0  0  0  0  0  0  0  0  0  0  0
   40.1270   34.0240   40.1350 O   0  0  0  0  0  0  0  0  0  0  0  0
   39.0280   31.8390   40.3100 C   0  0  0  0  0  0  0  0  0  0  0  0
   39.2290   30.5210   40.6500 C   0  0  0  0  0  0  0  0  0  0  0  0
   38.0210   30.0620   41.0460 N   0  0  0  0  0  0  0  0  0  0  0  0
   37.1250   31.0660   40.9480 C   0  0  0  0  0  0  0  0  0  0  0  0
   37.7430   32.1680   40.4940 N   0  0  0  0  0  0  0  0  0  0  0  0
   35.7360   31.0770   41.2470 N   0  0  0  0  0  0  0  0  0  0  0  0
   40.1650   29.9910   40.6000 H   0  0  0  0  0  0  0  0  0  0  0  0
   35.0610   31.6790   40.7810 H   0  0  0  0  0  0  0  0  0  0  0  0
   35.3250   30.4400   41.9930 H   0  0  0  0  0  0  0  0  0  0  0  0
   38.2660   29.4470   43.6790 F   0  0  0  0  0  0  0  0  0  0  0  0
   37.8580   28.4470   42.8510 C   0  0  0  0  0  0  0  0  0  0  0  0
   37.7260   28.7430   41.4930 C   0  0  0  0  0  0  0  0  0  0  0  0
   37.3150   27.7660   40.6010 C   0  0  0  0  0  0  0  0  0  0  0  0
   37.2030   27.9670   39.5390 H   0  0  0  0  0  0  0  0  0  0  0  0
   37.0340   26.4840   41.0740 C   0  0  0  0  0  0  0  0  0  0  0  0
   36.7080   25.7120   40.3610 H   0  0  0  0  0  0  0  0  0  0  0  0
   37.1650   26.1880   42.4130 C   0  0  0  0  0  3  0  0  0  0  0  0
   37.5760   27.1630   43.3160 C   0  0  0  0  0  3  0  0  0  0  0  0
   40.7560   32.1620   37.5450 C   0  0  0  0  0  0  0  0  0  0  0  0
   41.0660   32.3540   38.9070 C   0  0  0  0  0  0  0  0  0  0  0  0
   42.3720   32.0760   39.2450 C   0  0  0  0  0  0  0  0  0  0  0  0
   43.2770   31.6550   38.3450 N   0  0  0  0  0  0  0  0  0  0  0  0
   42.9250   31.4870   37.0450 C   0  0  0  0  0  0  0  0  0  0  0  0
   41.6690   31.7410   36.6550 N   0  0  0  0  0  0  0  0  0  0  0  0
   39.7380   32.3580   37.1810 H   0  0  0  0  0  0  0  0  0  0  0  0
   43.6910   31.1450   36.3560 H   0  0  0  0  0  0  0  0  0  0  0  0
   42.7740   32.2380   40.5930 C   0  0  0  0  0  0  0  0  0  0  0  0
   42.6930   31.4810   41.7190 C   0  0  0  0  0  0  0  0  0  0  0  0
   43.1680   31.8990   42.8740 C   0  0  0  0  0  0  0  0  0  0  0  0
   43.7450   33.1190   42.9070 C   0  0  0  0  0  0  0  0  0  0  0  0
   43.5980   33.7020   41.1800 S   0  0  0  0  0  0  0  0  0  0  0  0
   42.2000   30.4980   41.5730 H   0  0  0  0  0  0  0  0  0  0  0  0
   43.1450   31.3600   43.8130 H   0  0  0  0  0  0  0  0  0  0  0  0
   44.2160   33.7110   43.7110 H   0  0  0  0  0  0  0  0  0  0  0  0
  1  2  2  0  0  0  0
  1  3  1  0  0  0  0
  3  7  1  0  0  0  0
  3  4  2  0  0  0  0
  4  5  1  0  0  0  0
  5 14  1  0  0  0  0
  6  5  1  0  0  0  0
  6  8  1  0  0  0  0
  7  6  2  0  0  0  0
  8 11  1  0  0  0  0
  9  4  1  0  0  0  0
 10  8  1  0  0  0  0
 13 20  1  0  0  0  0
 13 12  1  0  0  0  0
 14 13  2  0  0  0  0
 15 17  2  0  0  0  0
 15 14  1  0  0  0  0
 16 15  1  0  0  0  0
 17 19  1  0  0  0  0
 18 17  1  0  0  0  0
 19 20  2  0  0  0  0
 21 22  1  0  0  0  0
 22 23  2  0  0  0  0
 22  1  1  0  0  0  0
 23 29  1  0  0  0  0
 24 23  1  0  0  0  0
 25 24  2  0  0  0  0
 26 25  1  0  0  0  0
 26 21  2  0  0  0  0
 27 21  1  0  0  0  0
 28 25  1  0  0  0  0
 29 33  1  0  0  0  0
 29 30  2  0  0  0  0
 30 31  1  0  0  0  0
 31 32  2  0  0  0  0
 31 35  1  0  0  0  0
 32 36  1  0  0  0  0
 33 32  1  0  0  0  0
 34 30  1  0  0  0  0
M  END
>  <minimizedAffinity>
-6.09425592

$$$$

 OpenBabel03252503173D

 36 39  0  0  0  0  0  0  0  0999 V2000
   35.2040   29.0160   39.3320 C   0  0  0  0  0  0  0  0  0  0  0  0
   33.9690   29.2660   39.4960 O   0  0  0  0  0  0  0  0  0  0  0  0
   36.1300   28.5930   40.4390 C   0  0  0  0  0  0  0  0  0  0  0  0
   37.0310   27.5550   40.3960 C   0  0  0  0  0  0  0  0  0  0  0  0
   37.6340   27.5500   41.6050 N   0  0  0  0  0  0  0  0  0  0  0  0
   37.1160   28.5480   42.3500 C   0  0  0  0  0  0  0  0  0  0  0  0
   36.1840   29.1960   41.6330 N   0  0  0  0  0  0  0  0  0  0  0  0
   37.4220   28.9430   43.6800 N   0  0  0  0  0  0  0  0  0  0  0  0
   37.2000   26.8990   39.5590 H   0  0  0  0  0  0  0  0  0  0  0  0
   36.7540   29.3850   44.3080 H   0  0  0  0  0  0  0  0  0  0  0  0
   38.3900   28.7950   44.0930 H   0  0  0  0  0  0  0  0  0  0  0  0
   36.9530   25.0650   42.4630 F   0  0  0  0  0  0  0  0  0  0  0  0
   38.2780   25.3770   42.4740 C   0  0  0  0  0  0  0  0  0  0  0  0
   38.6490   26.6490   42.0370 C   0  0  0  0  0  0  0  0  0  0  0  0
   39.9820   27.0240   42.0260 C   0  0  0  0  0  0  0  0  0  0  0  0
   40.3010   28.0070   41.6920 H   0  0  0  0  0  0  0  0  0  0  0  0
   40.9510   26.1160   42.4560 C   0  0  0  0  0  0  0  0  0  0  0  0
   42.0080   26.4190   42.4450 H   0  0  0  0  0  0  0  0  0  0  0  0
   40.5880   24.8600   42.8890 C   0  0  0  0  0  3  0  0  0  0  0  0
   39.2510   24.4740   42.9030 C   0  0  0  0  0  3  0  0  0  0  0  0
   35.1850   28.3490   36.9790 C   0  0  0  0  0  0  0  0  0  0  0  0
   35.6940   29.1590   38.0150 C   0  0  0  0  0  0  0  0  0  0  0  0
   36.6660   30.0540   37.6220 C   0  0  0  0  0  0  0  0  0  0  0  0
   37.0920   30.1440   36.3510 N   0  0  0  0  0  0  0  0  0  0  0  0
   36.5690   29.3390   35.3920 C   0  0  0  0  0  0  0  0  0  0  0  0
   35.6210   28.4490   35.7130 N   0  0  0  0  0  0  0  0  0  0  0  0
   34.4070   27.6050   37.1970 H   0  0  0  0  0  0  0  0  0  0  0  0
   36.9470   29.4500   34.3810 H   0  0  0  0  0  0  0  0  0  0  0  0
   37.2360   30.9080   38.5970 C   0  0  0  0  0  0  0  0  0  0  0  0
   36.8290   32.0270   39.2540 C   0  0  0  0  0  0  0  0  0  0  0  0
   37.5930   32.6310   40.1390 C   0  0  0  0  0  0  0  0  0  0  0  0
   38.8110   32.0990   40.3790 C   0  0  0  0  0  0  0  0  0  0  0  0
   38.8630   30.6470   39.2700 S   0  0  0  0  0  0  0  0  0  0  0  0
   35.8110   32.3720   38.9770 H   0  0  0  0  0  0  0  0  0  0  0  0
   37.3450   33.5210   40.7030 H   0  0  0  0  0  0  0  0  0  0  0  0
   39.6410   32.3830   41.0490 H   0  0  0  0  0  0  0  0  0  0  0  0
  1  2  2  0  0  0  0
  1  3  1  0  0  0  0
  3  7  1  0  0  0  0
  4  3  2  0  0  0  0
  4  5  1  0  0  0  0
  5 14  1  0  0  0  0
  5  6  1  0  0  0  0
  6  8  1  0  0  0  0
  7  6  2  0  0  0  0
  8 11  1  0  0  0  0
  8 10  1  0  0  0  0
  9  4  1  0  0  0  0
 12 13  1  0  0  0  0
 13 20  1  0  0  0  0
 14 13  2  0  0  0  0
 15 14  1  0  0  0  0
 15 17  2  0  0  0  0
 16 15  1  0  0  0  0
 17 19  1  0  0  0  0
 18 17  1  0  0  0  0
 19 20  2  0  0  0  0
 21 27  1  0  0  0  0
 21 22  1  0  0  0  0
 22  1  1  0  0  0  0
 23 22  2  0  0  0  0
 23 29  1  0  0  0  0
 24 23  1  0  0  0  0
 25 26  1  0  0  0  0
 25 24  2  0  0  0  0
 26 21  2  0  0  0  0
 28 25  1  0  0  0  0
 29 30  2  0  0  0  0
 29 33  1  0  0  0  0
 30 31  1  0  0  0  0
 31 32  2  0  0  0  0
 31 35  1  0  0  0  0
 32 36  1  0  0  0  0
 33 32  1  0  0  0  0
 34 30  1  0  0  0  0
M  END
>  <minimizedAffinity>
-5.96777964

$$$$

 OpenBabel03252503173D

 36 39  0  0  0  0  0  0  0  0999 V2000
   35.9670   29.2810   39.5480 C   0  0  0  0  0  0  0  0  0  0  0  0
   34.9880   29.6610   40.2640 O   0  0  0  0  0  0  0  0  0  0  0  0
   37.0280   30.2070   39.0170 C   0  0  0  0  0  0  0  0  0  0  0  0
   38.1360   30.6530   39.6990 C   0  0  0  0  0  0  0  0  0  0  0  0
   38.7950   31.4530   38.8320 N   0  0  0  0  0  0  0  0  0  0  0  0
   38.1100   31.4880   37.6710 C   0  0  0  0  0  0  0  0  0  0  0  0
   37.0150   30.7180   37.7800 N   0  0  0  0  0  0  0  0  0  0  0  0
   38.3960   32.1850   36.4660 N   0  0  0  0  0  0  0  0  0  0  0  0
   38.3990   30.4010   40.7120 H   0  0  0  0  0  0  0  0  0  0  0  0
   37.6840   32.5100   35.8160 H   0  0  0  0  0  0  0  0  0  0  0  0
   39.3960   32.4050   36.1780 H   0  0  0  0  0  0  0  0  0  0  0  0
   38.7150   33.9890   39.8000 F   0  0  0  0  0  0  0  0  0  0  0  0
   39.9480   33.4530   39.5840 C   0  0  0  0  0  0  0  0  0  0  0  0
   40.0100   32.1510   39.0860 C   0  0  0  0  0  0  0  0  0  0  0  0
   41.2360   31.5520   38.8450 C   0  0  0  0  0  0  0  0  0  0  0  0
   41.3160   30.5400   38.4580 H   0  0  0  0  0  0  0  0  0  0  0  0
   42.4070   32.2650   39.1050 C   0  0  0  0  0  0  0  0  0  0  0  0
   43.3770   31.7830   38.9120 H   0  0  0  0  0  0  0  0  0  0  0  0
   42.3490   33.5500   39.5960 C   0  0  0  0  0  3  0  0  0  0  0  0
   41.1220   34.1600   39.8410 C   0  0  0  0  0  3  0  0  0  0  0  0
   35.4830   27.4070   38.0540 C   0  0  0  0  0  0  0  0  0  0  0  0
   36.0230   27.9000   39.2590 C   0  0  0  0  0  0  0  0  0  0  0  0
   36.5780   26.9400   40.0770 C   0  0  0  0  0  0  0  0  0  0  0  0
   36.6010   25.6380   39.7480 N   0  0  0  0  0  0  0  0  0  0  0  0
   36.0670   25.2170   38.5740 C   0  0  0  0  0  0  0  0  0  0  0  0
   35.5130   26.1030   37.7370 N   0  0  0  0  0  0  0  0  0  0  0  0
   35.0190   28.0990   37.3370 H   0  0  0  0  0  0  0  0  0  0  0  0
   36.1100   24.1540   38.3540 H   0  0  0  0  0  0  0  0  0  0  0  0
   37.1420   27.3440   41.3120 C   0  0  0  0  0  0  0  0  0  0  0  0
   36.6490   27.6450   42.5430 C   0  0  0  0  0  0  0  0  0  0  0  0
   37.4340   28.0010   43.5380 C   0  0  0  0  0  0  0  0  0  0  0  0
   38.7620   28.0590   43.2960 C   0  0  0  0  0  0  0  0  0  0  0  0
   38.8920   27.5750   41.5390 S   0  0  0  0  0  0  0  0  0  0  0  0
   35.5460   27.5630   42.6250 H   0  0  0  0  0  0  0  0  0  0  0  0
   37.1230   28.2550   44.5440 H   0  0  0  0  0  0  0  0  0  0  0  0
   39.6330   28.3190   43.9230 H   0  0  0  0  0  0  0  0  0  0  0  0
  1  2  2  0  0  0  0
  3  1  1  0  0  0  0
  3  4  2  0  0  0  0
  4  9  1  0  0  0  0
  5 14  1  0  0  0  0
  5  4  1  0  0  0  0
  6  7  2  0  0  0  0
  6  5  1  0  0  0  0
  7  3  1  0  0  0  0
  8  6  1  0  0  0  0
 10  8  1  0  0  0  0
 11  8  1  0  0  0  0
 13 12  1  0  0  0  0
 13 20  1  0  0  0  0
 14 13  2  0  0  0  0
 15 14  1  0  0  0  0
 15 17  2  0  0  0  0
 16 15  1  0  0  0  0
 17 19  1  0  0  0  0
 18 17  1  0  0  0  0
 19 20  2  0  0  0  0
 21 22  1  0  0  0  0
 22  1  1  0  0  0  0
 22 23  2  0  0  0  0
 23 29  1  0  0  0  0
 24 23  1  0  0  0  0
 25 24  2  0  0  0  0
 26 21  2  0  0  0  0
 26 25  1  0  0  0  0
 27 21  1  0  0  0  0
 28 25  1  0  0  0  0
 29 33  1  0  0  0  0
 29 30  2  0  0  0  0
 30 34  1  0  0  0  0
 30 31  1  0  0  0  0
 31 35  1  0  0  0  0
 32 31  2  0  0  0  0
 32 36  1  0  0  0  0
 33 32  1  0  0  0  0
M  END
>  <minimizedAffinity>
-5.89972973

$$$$

 OpenBabel03252503173D

 36 39  0  0  0  0  0  0  0  0999 V2000
   40.9220   30.7870   41.2720 C   0  0  0  0  0  0  0  0  0  0  0  0
   41.4620   31.6100   42.0760 O   0  0  0  0  0  0  0  0  0  0  0  0
   39.8530   29.8050   41.6670 C   0  0  0  0  0  0  0  0  0  0  0  0
   39.6890   28.5350   41.1670 C   0  0  0  0  0  0  0  0  0  0  0  0
   38.6110   28.0310   41.8090 N   0  0  0  0  0  0  0  0  0  0  0  0
   38.1440   28.9630   42.6640 C   0  0  0  0  0  0  0  0  0  0  0  0
   38.9090   30.0630   42.5800 N   0  0  0  0  0  0  0  0  0  0  0  0
   37.0370   28.9070   43.5540 N   0  0  0  0  0  0  0  0  0  0  0  0
   40.3050   28.0640   40.4200 H   0  0  0  0  0  0  0  0  0  0  0  0
   36.4970   29.7210   43.8380 H   0  0  0  0  0  0  0  0  0  0  0  0
   36.7140   27.9870   43.9790 H   0  0  0  0  0  0  0  0  0  0  0  0
   39.3160   26.0080   43.4780 F   0  0  0  0  0  0  0  0  0  0  0  0
   38.4260   25.7090   42.4930 C   0  0  0  0  0  0  0  0  0  0  0  0
   38.0510   26.7350   41.6250 C   0  0  0  0  0  0  0  0  0  0  0  0
   37.1480   26.4910   40.6030 C   0  0  0  0  0  0  0  0  0  0  0  0
   36.8370   27.2690   39.9110 H   0  0  0  0  0  0  0  0  0  0  0  0
   36.6180   25.2090   40.4510 C   0  0  0  0  0  0  0  0  0  0  0  0
   35.9010   25.0210   39.6380 H   0  0  0  0  0  0  0  0  0  0  0  0
   36.9870   24.1940   41.3060 C   0  0  0  0  0  3  0  0  0  0  0  0
   37.8920   24.4300   42.3360 C   0  0  0  0  0  3  0  0  0  0  0  0
   42.5910   30.1970   39.5860 C   0  0  0  0  0  0  0  0  0  0  0  0
   41.3840   30.8330   39.9380 C   0  0  0  0  0  0  0  0  0  0  0  0
   40.7410   31.4670   38.8970 C   0  0  0  0  0  0  0  0  0  0  0  0
   41.2310   31.4770   37.6460 N   0  0  0  0  0  0  0  0  0  0  0  0
   42.3990   30.8480   37.3610 C   0  0  0  0  0  0  0  0  0  0  0  0
   43.0700   30.2140   38.3310 N   0  0  0  0  0  0  0  0  0  0  0  0
   43.1740   29.6640   40.3500 H   0  0  0  0  0  0  0  0  0  0  0  0
   42.7530   30.8850   36.3350 H   0  0  0  0  0  0  0  0  0  0  0  0
   39.5210   32.1360   39.1590 C   0  0  0  0  0  0  0  0  0  0  0  0
   38.2040   31.8340   38.9990 C   0  0  0  0  0  0  0  0  0  0  0  0
   37.2510   32.6750   39.3430 C   0  0  0  0  0  0  0  0  0  0  0  0
   37.6260   33.8620   39.8670 C   0  0  0  0  0  0  0  0  0  0  0  0
   39.4510   33.7680   39.8660 S   0  0  0  0  0  0  0  0  0  0  0  0
   38.0170   30.8320   38.5610 H   0  0  0  0  0  0  0  0  0  0  0  0
   36.1850   32.5120   39.2490 H   0  0  0  0  0  0  0  0  0  0  0  0
   37.0610   34.7370   40.2340 H   0  0  0  0  0  0  0  0  0  0  0  0
  1  3  1  0  0  0  0
  1  2  2  0  0  0  0
  3  7  1  0  0  0  0
  4  3  2  0  0  0  0
  4  5  1  0  0  0  0
  5  6  1  0  0  0  0
  6  8  1  0  0  0  0
  7  6  2  0  0  0  0
  8 10  1  0  0  0  0
  8 11  1  0  0  0  0
  9  4  1  0  0  0  0
 13 12  1  0  0  0  0
 14  5  1  0  0  0  0
 14 13  2  0  0  0  0
 15 14  1  0  0  0  0
 16 15  1  0  0  0  0
 17 15  2  0  0  0  0
 17 19  1  0  0  0  0
 18 17  1  0  0  0  0
 19 20  2  0  0  0  0
 20 13  1  0  0  0  0
 21 22  1  0  0  0  0
 21 27  1  0  0  0  0
 22  1  1  0  0  0  0
 23 29  1  0  0  0  0
 23 22  2  0  0  0  0
 24 23  1  0  0  0  0
 25 24  2  0  0  0  0
 25 26  1  0  0  0  0
 26 21  2  0  0  0  0
 28 25  1  0  0  0  0
 29 33  1  0  0  0  0
 30 29  2  0  0  0  0
 30 31  1  0  0  0  0
 31 32  2  0  0  0  0
 32 36  1  0  0  0  0
 33 32  1  0  0  0  0
 34 30  1  0  0  0  0
 35 31  1  0  0  0  0
M  END
>  <minimizedAffinity>
-5.79017115

$$$$

 OpenBabel03252503173D

 36 39  0  0  0  0  0  0  0  0999 V2000
   36.6550   29.0470   41.1850 C   0  0  0  0  0  0  0  0  0  0  0  0
   35.4130   28.7840   41.1090 O   0  0  0  0  0  0  0  0  0  0  0  0
   37.2730   30.3310   40.7040 C   0  0  0  0  0  0  0  0  0  0  0  0
   38.5930   30.5270   40.3740 C   0  0  0  0  0  0  0  0  0  0  0  0
   38.6840   31.8220   40.0010 N   0  0  0  0  0  0  0  0  0  0  0  0
   37.4630   32.3870   40.1030 C   0  0  0  0  0  0  0  0  0  0  0  0
   36.5860   31.4680   40.5380 N   0  0  0  0  0  0  0  0  0  0  0  0
   37.0510   33.7180   39.8260 N   0  0  0  0  0  0  0  0  0  0  0  0
   39.3720   29.7840   40.4140 H   0  0  0  0  0  0  0  0  0  0  0  0
   36.2770   34.1810   40.2960 H   0  0  0  0  0  0  0  0  0  0  0  0
   37.5440   34.3100   39.0920 H   0  0  0  0  0  0  0  0  0  0  0  0
   39.4030   31.7390   37.3840 F   0  0  0  0  0  0  0  0  0  0  0  0
   40.2150   32.4410   38.2220 C   0  0  0  0  0  0  0  0  0  0  0  0
   39.8630   32.4950   39.5710 C   0  0  0  0  0  0  0  0  0  0  0  0
   40.6510   33.1930   40.4720 C   0  0  0  0  0  0  0  0  0  0  0  0
   40.4020   33.2540   41.5280 H   0  0  0  0  0  0  0  0  0  0  0  0
   41.7990   33.8410   40.0160 C   0  0  0  0  0  0  0  0  0  0  0  0
   42.4210   34.3940   40.7360 H   0  0  0  0  0  0  0  0  0  0  0  0
   42.1500   33.7880   38.6850 C   0  0  0  0  0  3  0  0  0  0  0  0
   41.3650   33.0900   37.7730 C   0  0  0  0  0  3  0  0  0  0  0  0
   37.9150   28.1730   43.0900 C   0  0  0  0  0  0  0  0  0  0  0  0
   37.4650   28.0430   41.7610 C   0  0  0  0  0  0  0  0  0  0  0  0
   37.8780   26.8940   41.1220 C   0  0  0  0  0  0  0  0  0  0  0  0
   38.6500   25.9730   41.7230 N   0  0  0  0  0  0  0  0  0  0  0  0
   39.0560   26.1480   43.0070 C   0  0  0  0  0  0  0  0  0  0  0  0
   38.6860   27.2450   43.6790 N   0  0  0  0  0  0  0  0  0  0  0  0
   37.6350   29.0570   43.6800 H   0  0  0  0  0  0  0  0  0  0  0  0
   39.6790   25.3760   43.4470 H   0  0  0  0  0  0  0  0  0  0  0  0
   37.4750   26.6790   39.7820 C   0  0  0  0  0  0  0  0  0  0  0  0
   36.4180   26.0710   39.1800 C   0  0  0  0  0  0  0  0  0  0  0  0
   36.2980   26.0220   37.8700 C   0  0  0  0  0  0  0  0  0  0  0  0
   37.2690   26.6020   37.1320 C   0  0  0  0  0  0  0  0  0  0  0  0
   38.4230   27.2550   38.3900 S   0  0  0  0  0  0  0  0  0  0  0  0
   35.6840   25.6310   39.8850 H   0  0  0  0  0  0  0  0  0  0  0  0
   35.4910   25.5610   37.3150 H   0  0  0  0  0  0  0  0  0  0  0  0
   37.4270   26.7120   36.0450 H   0  0  0  0  0  0  0  0  0  0  0  0
  1 22  1  0  0  0  0
  2  1  2  0  0  0  0
  3  1  1  0  0  0  0
  4  9  1  0  0  0  0
  4  3  2  0  0  0  0
  5  6  1  0  0  0  0
  5  4  1  0  0  0  0
  6  7  2  0  0  0  0
  7  3  1  0  0  0  0
  8  6  1  0  0  0  0
  8 10  1  0  0  0  0
 11  8  1  0  0  0  0
 12 13  1  0  0  0  0
 13 14  1  0  0  0  0
 14  5  1  0  0  0  0
 14 15  2  0  0  0  0
 15 16  1  0  0  0  0
 17 15  1  0  0  0  0
 17 18  1  0  0  0  0
 19 17  2  0  0  0  0
 20 13  2  0  0  0  0
 20 19  1  0  0  0  0
 21 26  1  0  0  0  0
 21 27  1  0  0  0  0
 22 21  2  0  0  0  0
 23 24  2  0  0  0  0
 23 22  1  0  0  0  0
 24 25  1  0  0  0  0
 25 28  1  0  0  0  0
 25 26  2  0  0  0  0
 29 23  1  0  0  0  0
 30 29  2  0  0  0  0
 30 34  1  0  0  0  0
 31 30  1  0  0  0  0
 32 31  2  0  0  0  0
 32 33  1  0  0  0  0
 33 29  1  0  0  0  0
 35 31  1  0  0  0  0
 36 32  1  0  0  0  0
M  END
>  <minimizedAffinity>
-5.77875471

$$$$

 OpenBabel03252503173D

 36 39  0  0  0  0  0  0  0  0999 V2000
   37.5630   31.1560   40.3560 C   0  0  0  0  0  0  0  0  0  0  0  0
   36.5130   31.8230   40.0980 O   0  0  0  0  0  0  0  0  0  0  0  0
   37.5800   29.9070   41.1950 C   0  0  0  0  0  0  0  0  0  0  0  0
   38.5320   28.9150   41.1600 C   0  0  0  0  0  0  0  0  0  0  0  0
   38.1370   28.0040   42.0750 N   0  0  0  0  0  0  0  0  0  0  0  0
   36.9890   28.4300   42.6420 C   0  0  0  0  0  0  0  0  0  0  0  0
   36.6400   29.6080   42.1000 N   0  0  0  0  0  0  0  0  0  0  0  0
   36.1920   27.8240   43.6490 N   0  0  0  0  0  0  0  0  0  0  0  0
   39.4010   28.8950   40.5240 H   0  0  0  0  0  0  0  0  0  0  0  0
   35.1860   27.9510   43.7290 H   0  0  0  0  0  0  0  0  0  0  0  0
   36.6210   27.1920   44.3890 H   0  0  0  0  0  0  0  0  0  0  0  0
   37.5060   25.7190   40.7500 F   0  0  0  0  0  0  0  0  0  0  0  0
   38.4690   25.6270   41.7080 C   0  0  0  0  0  0  0  0  0  0  0  0
   38.8070   26.7900   42.4000 C   0  0  0  0  0  0  0  0  0  0  0  0
   39.7800   26.7590   43.3870 C   0  0  0  0  0  0  0  0  0  0  0  0
   40.0640   27.6480   43.9430 H   0  0  0  0  0  0  0  0  0  0  0  0
   40.4170   25.5530   43.6800 C   0  0  0  0  0  0  0  0  0  0  0  0
   41.1880   25.5340   44.4640 H   0  0  0  0  0  0  0  0  0  0  0  0
   40.0840   24.4030   42.9980 C   0  0  0  0  0  3  0  0  0  0  0  0
   39.1090   24.4250   42.0060 C   0  0  0  0  0  3  0  0  0  0  0  0
   39.6000   32.4930   40.5690 C   0  0  0  0  0  0  0  0  0  0  0  0
   38.7640   31.6550   39.8040 C   0  0  0  0  0  0  0  0  0  0  0  0
   39.2210   31.3920   38.5310 C   0  0  0  0  0  0  0  0  0  0  0  0
   40.3730   31.8960   38.0590 N   0  0  0  0  0  0  0  0  0  0  0  0
   41.1420   32.6980   38.8390 C   0  0  0  0  0  0  0  0  0  0  0  0
   40.7500   32.9900   40.0860 N   0  0  0  0  0  0  0  0  0  0  0  0
   39.3180   32.7580   41.5970 H   0  0  0  0  0  0  0  0  0  0  0  0
   42.0640   33.0810   38.4120 H   0  0  0  0  0  0  0  0  0  0  0  0
   38.4430   30.5600   37.6890 C   0  0  0  0  0  0  0  0  0  0  0  0
   37.3250   30.7310   36.9330 C   0  0  0  0  0  0  0  0  0  0  0  0
   36.8060   29.7480   36.2280 C   0  0  0  0  0  0  0  0  0  0  0  0
   37.4250   28.5490   36.2780 C   0  0  0  0  0  0  0  0  0  0  0  0
   38.8340   28.8470   37.4030 S   0  0  0  0  0  0  0  0  0  0  0  0
   36.9050   31.7570   36.9680 H   0  0  0  0  0  0  0  0  0  0  0  0
   35.9240   29.8010   35.6030 H   0  0  0  0  0  0  0  0  0  0  0  0
   37.2200   27.5730   35.8040 H   0  0  0  0  0  0  0  0  0  0  0  0
  1  3  1  0  0  0  0
  2  1  2  0  0  0  0
  3  7  1  0  0  0  0
  4  3  2  0  0  0  0
  4  5  1  0  0  0  0
  5 14  1  0  0  0  0
  5  6  1  0  0  0  0
  6  8  1  0  0  0  0
  7  6  2  0  0  0  0
  8 10  1  0  0  0  0
  8 11  1  0  0  0  0
  9  4  1  0  0  0  0
 12 13  1  0  0  0  0
 13 20  2  0  0  0  0
 13 14  1  0  0  0  0
 14 15  2  0  0  0  0
 15 17  1  0  0  0  0
 15 16  1  0  0  0  0
 17 18  1  0  0  0  0
 19 17  2  0  0  0  0
 20 19  1  0  0  0  0
 21 27  1  0  0  0  0
 22  1  1  0  0  0  0
 22 21  2  0  0  0  0
 23 22  1  0  0  0  0
 24 23  2  0  0  0  0
 24 25  1  0  0  0  0
 25 26  2  0  0  0  0
 26 21  1  0  0  0  0
 28 25  1  0  0  0  0
 29 23  1  0  0  0  0
 30 34  1  0  0  0  0
 30 29  2  0  0  0  0
 31 32  2  0  0  0  0
 31 30  1  0  0  0  0
 32 33  1  0  0  0  0
 33 29  1  0  0  0  0
 35 31  1  0  0  0  0
 36 32  1  0  0  0  0
M  END
>  <minimizedAffinity>
-5.77483225

$$$$

 OpenBabel03252503173D

 36 39  0  0  0  0  0  0  0  0999 V2000
   36.9430   30.4070   40.4570 C   0  0  0  0  0  0  0  0  0  0  0  0
   36.0400   31.0480   41.0800 O   0  0  0  0  0  0  0  0  0  0  0  0
   37.8400   31.0180   39.4150 C   0  0  0  0  0  0  0  0  0  0  0  0
   39.1710   31.3290   39.5660 C   0  0  0  0  0  0  0  0  0  0  0  0
   39.5560   31.8500   38.3800 N   0  0  0  0  0  0  0  0  0  0  0  0
   38.4970   31.8540   37.5460 C   0  0  0  0  0  0  0  0  0  0  0  0
   37.4320   31.3400   38.1810 N   0  0  0  0  0  0  0  0  0  0  0  0
   38.4010   32.3000   36.2000 N   0  0  0  0  0  0  0  0  0  0  0  0
   39.7590   31.1770   40.4550 H   0  0  0  0  0  0  0  0  0  0  0  0
   37.5470   32.6640   35.7830 H   0  0  0  0  0  0  0  0  0  0  0  0
   39.2390   32.2740   35.5470 H   0  0  0  0  0  0  0  0  0  0  0  0
   41.2720   30.2370   37.0270 F   0  0  0  0  0  0  0  0  0  0  0  0
   41.7250   31.4780   37.3550 C   0  0  0  0  0  0  0  0  0  0  0  0
   40.8590   32.3220   38.0510 C   0  0  0  0  0  0  0  0  0  0  0  0
   41.2650   33.5970   38.4130 C   0  0  0  0  0  0  0  0  0  0  0  0
   40.6130   34.2760   38.9550 H   0  0  0  0  0  0  0  0  0  0  0  0
   42.5480   34.0270   38.0740 C   0  0  0  0  0  0  0  0  0  0  0  0
   42.8640   35.0400   38.3630 H   0  0  0  0  0  0  0  0  0  0  0  0
   43.4060   33.1950   37.3880 C   0  0  0  0  0  3  0  0  0  0  0  0
   43.0070   31.9140   37.0200 C   0  0  0  0  0  3  0  0  0  0  0  0
   37.8700   28.6600   41.8950 C   0  0  0  0  0  0  0  0  0  0  0  0
   37.0770   29.0420   40.7940 C   0  0  0  0  0  0  0  0  0  0  0  0
   36.4810   27.9970   40.1230 C   0  0  0  0  0  0  0  0  0  0  0  0
   36.6450   26.7150   40.4920 N   0  0  0  0  0  0  0  0  0  0  0  0
   37.4210   26.4020   41.5610 C   0  0  0  0  0  0  0  0  0  0  0  0
   38.0260   27.3760   42.2540 N   0  0  0  0  0  0  0  0  0  0  0  0
   38.3860   29.4250   42.4920 H   0  0  0  0  0  0  0  0  0  0  0  0
   37.5230   25.3530   41.8190 H   0  0  0  0  0  0  0  0  0  0  0  0
   35.6660   28.2860   39.0020 C   0  0  0  0  0  0  0  0  0  0  0  0
   34.4140   28.7840   38.8240 C   0  0  0  0  0  0  0  0  0  0  0  0
   33.8950   28.9530   37.6260 C   0  0  0  0  0  0  0  0  0  0  0  0
   34.6560   28.6120   36.5630 C   0  0  0  0  0  0  0  0  0  0  0  0
   36.2050   28.0140   37.3270 S   0  0  0  0  0  0  0  0  0  0  0  0
   33.8840   29.0300   39.7670 H   0  0  0  0  0  0  0  0  0  0  0  0
   32.9110   29.3430   37.4000 H   0  0  0  0  0  0  0  0  0  0  0  0
   34.4870   28.6440   35.4730 H   0  0  0  0  0  0  0  0  0  0  0  0
  1 22  1  0  0  0  0
  1  2  2  0  0  0  0
  3  4  2  0  0  0  0
  3  1  1  0  0  0  0
  4  9  1  0  0  0  0
  5  4  1  0  0  0  0
  6  7  2  0  0  0  0
  6  5  1  0  0  0  0
  7  3  1  0  0  0  0
  8  6  1  0  0  0  0
 10  8  1  0  0  0  0
 11  8  1  0  0  0  0
 12 13  1  0  0  0  0
 13 14  1  0  0  0  0
 14  5  1  0  0  0  0
 14 15  2  0  0  0  0
 15 16  1  0  0  0  0
 17 18  1  0  0  0  0
 17 15  1  0  0  0  0
 19 17  2  0  0  0  0
 20 13  2  0  0  0  0
 20 19  1  0  0  0  0
 21 26  1  0  0  0  0
 21 27  1  0  0  0  0
 22 21  2  0  0  0  0
 23 24  2  0  0  0  0
 23 22  1  0  0  0  0
 24 25  1  0  0  0  0
 25 28  1  0  0  0  0
 25 26  2  0  0  0  0
 29 23  1  0  0  0  0
 30 29  2  0  0  0  0
 30 34  1  0  0  0  0
 31 30  1  0  0  0  0
 32 33  1  0  0  0  0
 32 31  2  0  0  0  0
 33 29  1  0  0  0  0
 35 31  1  0  0  0  0
 36 32  1  0  0  0  0
M  END
>  <minimizedAffinity>
-5.75173903

$$$$

 OpenBabel03252503173D

 36 39  0  0  0  0  0  0  0  0999 V2000
   38.2400   31.3180   40.6220 C   0  0  0  0  0  0  0  0  0  0  0  0
   37.1360   31.9290   40.7760 O   0  0  0  0  0  0  0  0  0  0  0  0
   38.5230   29.9460   41.1720 C   0  0  0  0  0  0  0  0  0  0  0  0
   37.9610   28.7660   40.7470 C   0  0  0  0  0  0  0  0  0  0  0  0
   38.5100   27.8050   41.5220 N   0  0  0  0  0  0  0  0  0  0  0  0
   39.3720   28.3840   42.3820 C   0  0  0  0  0  0  0  0  0  0  0  0
   39.3840   29.7100   42.1700 N   0  0  0  0  0  0  0  0  0  0  0  0
   40.1860   27.7980   43.3880 N   0  0  0  0  0  0  0  0  0  0  0  0
   37.2350   28.6590   39.9590 H   0  0  0  0  0  0  0  0  0  0  0  0
   40.4680   28.2770   44.2400 H   0  0  0  0  0  0  0  0  0  0  0  0
   40.5500   26.8030   43.2960 H   0  0  0  0  0  0  0  0  0  0  0  0
   36.4980   26.7550   43.0130 F   0  0  0  0  0  0  0  0  0  0  0  0
   37.1970   25.8890   42.2290 C   0  0  0  0  0  0  0  0  0  0  0  0
   38.2350   26.4090   41.4560 C   0  0  0  0  0  0  0  0  0  0  0  0
   38.9830   25.5770   40.6380 C   0  0  0  0  0  0  0  0  0  0  0  0
   39.7970   25.9530   40.0240 H   0  0  0  0  0  0  0  0  0  0  0  0
   38.6870   24.2140   40.5970 C   0  0  0  0  0  0  0  0  0  0  0  0
   39.2840   23.5580   39.9460 H   0  0  0  0  0  0  0  0  0  0  0  0
   37.6630   23.6980   41.3610 C   0  0  0  0  0  3  0  0  0  0  0  0
   36.9070   24.5260   42.1840 C   0  0  0  0  0  3  0  0  0  0  0  0
   40.0590   32.9480   40.5240 C   0  0  0  0  0  0  0  0  0  0  0  0
   39.2290   32.0040   39.8850 C   0  0  0  0  0  0  0  0  0  0  0  0
   39.4770   31.8360   38.5400 C   0  0  0  0  0  0  0  0  0  0  0  0
   40.4350   32.5190   37.8920 N   0  0  0  0  0  0  0  0  0  0  0  0
   41.2060   33.4180   38.5550 C   0  0  0  0  0  0  0  0  0  0  0  0
   41.0130   33.6250   39.8640 N   0  0  0  0  0  0  0  0  0  0  0  0
   39.9360   33.1500   41.5970 H   0  0  0  0  0  0  0  0  0  0  0  0
   41.9660   33.9450   37.9870 H   0  0  0  0  0  0  0  0  0  0  0  0
   38.6900   30.9080   37.8160 C   0  0  0  0  0  0  0  0  0  0  0  0
   37.4580   30.9340   37.2400 C   0  0  0  0  0  0  0  0  0  0  0  0
   36.9630   29.8890   36.6100 C   0  0  0  0  0  0  0  0  0  0  0  0
   37.7260   28.7760   36.5520 C   0  0  0  0  0  0  0  0  0  0  0  0
   39.2410   29.2550   37.4550 S   0  0  0  0  0  0  0  0  0  0  0  0
   36.9240   31.9000   37.3490 H   0  0  0  0  0  0  0  0  0  0  0  0
   35.9970   29.8280   36.1260 H   0  0  0  0  0  0  0  0  0  0  0  0
   37.5740   27.7790   36.1030 H   0  0  0  0  0  0  0  0  0  0  0  0
  1  2  2  0  0  0  0
  1  3  1  0  0  0  0
  3  7  1  0  0  0  0
  4  3  2  0  0  0  0
  4  5  1  0  0  0  0
  5  6  1  0  0  0  0
  6  8  1  0  0  0  0
  7  6  2  0  0  0  0
  8 10  1  0  0  0  0
  9  4  1  0  0  0  0
 11  8  1  0  0  0  0
 13 12  1  0  0  0  0
 14  5  1  0  0  0  0
 14 13  2  0  0  0  0
 15 14  1  0  0  0  0
 16 15  1  0  0  0  0
 17 15  2  0  0  0  0
 17 19  1  0  0  0  0
 18 17  1  0  0  0  0
 19 20  2  0  0  0  0
 20 13  1  0  0  0  0
 21 27  1  0  0  0  0
 22 21  1  0  0  0  0
 22  1  1  0  0  0  0
 23 22  2  0  0  0  0
 24 23  1  0  0  0  0
 24 25  2  0  0  0  0
 25 26  1  0  0  0  0
 26 21  2  0  0  0  0
 28 25  1  0  0  0  0
 29 23  1  0  0  0  0
 30 34  1  0  0  0  0
 30 29  2  0  0  0  0
 31 30  1  0  0  0  0
 32 31  2  0  0  0  0
 32 33  1  0  0  0  0
 33 29  1  0  0  0  0
 35 31  1  0  0  0  0
 36 32  1  0  0  0  0
M  END
>  <minimizedAffinity>
-5.74669886

$$$$

 OpenBabel03252503173D

 36 39  0  0  0  0  0  0  0  0999 V2000
   37.1570   28.1430   39.0380 C   0  0  0  0  0  0  0  0  0  0  0  0
   38.2920   28.1880   38.4670 O   0  0  0  0  0  0  0  0  0  0  0  0
   35.8490   28.0630   38.3010 C   0  0  0  0  0  0  0  0  0  0  0  0
   35.1190   29.1230   37.8170 C   0  0  0  0  0  0  0  0  0  0  0  0
   34.0290   28.5770   37.2350 N   0  0  0  0  0  0  0  0  0  0  0  0
   34.0990   27.2360   37.3620 C   0  0  0  0  0  0  0  0  0  0  0  0
   35.2240   26.9120   38.0220 N   0  0  0  0  0  0  0  0  0  0  0  0
   33.1980   26.2320   36.9170 N   0  0  0  0  0  0  0  0  0  0  0  0
   35.3850   30.1640   37.9000 H   0  0  0  0  0  0  0  0  0  0  0  0
   33.0760   25.3340   37.3800 H   0  0  0  0  0  0  0  0  0  0  0  0
   32.5930   26.3740   36.0540 H   0  0  0  0  0  0  0  0  0  0  0  0
   31.9560   29.5350   38.7030 F   0  0  0  0  0  0  0  0  0  0  0  0
   31.9180   29.7680   37.3620 C   0  0  0  0  0  0  0  0  0  0  0  0
   32.9740   29.2830   36.5900 C   0  0  0  0  0  0  0  0  0  0  0  0
   32.9910   29.4890   35.2200 C   0  0  0  0  0  0  0  0  0  0  0  0
   33.8000   29.1240   34.5930 H   0  0  0  0  0  0  0  0  0  0  0  0
   31.9410   30.1850   34.6210 C   0  0  0  0  0  0  0  0  0  0  0  0
   31.9600   30.3460   33.5330 H   0  0  0  0  0  0  0  0  0  0  0  0
   30.8960   30.6640   35.3810 C   0  0  0  0  0  3  0  0  0  0  0  0
   30.8710   30.4620   36.7570 C   0  0  0  0  0  3  0  0  0  0  0  0
   36.9800   26.9870   41.1850 C   0  0  0  0  0  0  0  0  0  0  0  0
   37.1740   28.1740   40.4500 C   0  0  0  0  0  0  0  0  0  0  0  0
   37.3720   29.3010   41.2170 C   0  0  0  0  0  0  0  0  0  0  0  0
   37.3780   29.2680   42.5600 N   0  0  0  0  0  0  0  0  0  0  0  0
   37.1850   28.0980   43.2190 C   0  0  0  0  0  0  0  0  0  0  0  0
   36.9880   26.9680   42.5280 N   0  0  0  0  0  0  0  0  0  0  0  0
   36.8150   26.0370   40.6600 H   0  0  0  0  0  0  0  0  0  0  0  0
   37.1980   28.1230   44.3040 H   0  0  0  0  0  0  0  0  0  0  0  0
   37.5740   30.5410   40.5620 C   0  0  0  0  0  0  0  0  0  0  0  0
   36.7610   31.5100   40.0640 C   0  0  0  0  0  0  0  0  0  0  0  0
   37.2410   32.5930   39.4890 C   0  0  0  0  0  0  0  0  0  0  0  0
   38.5830   32.7130   39.4070 C   0  0  0  0  0  0  0  0  0  0  0  0
   39.1940   31.1840   40.2010 S   0  0  0  0  0  0  0  0  0  0  0  0
   35.6780   31.3050   40.1890 H   0  0  0  0  0  0  0  0  0  0  0  0
   36.6640   33.4080   39.0700 H   0  0  0  0  0  0  0  0  0  0  0  0
   39.2480   33.4900   38.9900 H   0  0  0  0  0  0  0  0  0  0  0  0
  1 22  1  0  0  0  0
  2  1  2  0  0  0  0
  3  1  1  0  0  0  0
  4  9  1  0  0  0  0
  4  3  2  0  0  0  0
  5  6  1  0  0  0  0
  5  4  1  0  0  0  0
  6  7  2  0  0  0  0
  7  3  1  0  0  0  0
  8  6  1  0  0  0  0
  8 10  1  0  0  0  0
 11  8  1  0  0  0  0
 13 12  1  0  0  0  0
 14  5  1  0  0  0  0
 14 13  2  0  0  0  0
 15 14  1  0  0  0  0
 16 15  1  0  0  0  0
 17 15  2  0  0  0  0
 17 19  1  0  0  0  0
 18 17  1  0  0  0  0
 19 20  2  0  0  0  0
 20 13  1  0  0  0  0
 21 26  1  0  0  0  0
 22 21  2  0  0  0  0
 22 23  1  0  0  0  0
 23 24  2  0  0  0  0
 24 25  1  0  0  0  0
 25 28  1  0  0  0  0
 26 25  2  0  0  0  0
 27 21  1  0  0  0  0
 29 23  1  0  0  0  0
 30 34  1  0  0  0  0
 30 29  2  0  0  0  0
 31 30  1  0  0  0  0
 32 31  2  0  0  0  0
 32 33  1  0  0  0  0
 33 29  1  0  0  0  0
 35 31  1  0  0  0  0
 36 32  1  0  0  0  0
M  END
>  <minimizedAffinity>
-5.65101624

$$$$
