
 OpenBabel03252507033D

 47 50  0  0  0  0  0  0  0  0999 V2000
   41.8970   31.8320   41.6850 C   0  0  0  0  0  0  0  0  0  0  0  0
   41.3860   32.6950   41.1350 H   0  0  0  0  0  0  0  0  0  0  0  0
   41.9300   32.1840   42.7390 H   0  0  0  0  0  0  0  0  0  0  0  0
   41.2720   30.6590   41.5350 N   0  0  0  0  0  0  0  0  0  0  0  0
   41.6170   29.4060   42.1150 C   0  0  0  0  0  0  0  0  0  0  0  0
   40.5250   29.3300   43.1820 C   0  0  0  0  0  0  0  0  0  0  0  0
   39.1730   29.3530   42.6490 C   0  0  0  0  0  0  0  0  0  0  0  0
   38.9440   29.9420   41.3480 C   0  0  0  0  0  0  0  0  0  0  0  0
   40.0670   30.6970   40.6710 C   0  0  0  0  0  0  0  0  0  0  0  0
   42.5600   29.5770   42.7170 H   0  0  0  0  0  0  0  0  0  0  0  0
   41.6900   28.5360   41.4830 H   0  0  0  0  0  0  0  0  0  0  0  0
   40.7490   28.3840   43.7410 H   0  0  0  0  0  0  0  0  0  0  0  0
   40.7420   30.1400   43.9270 H   0  0  0  0  0  0  0  0  0  0  0  0
   38.7870   28.2920   42.6000 H   0  0  0  0  0  0  0  0  0  0  0  0
   38.4870   29.8580   43.3920 H   0  0  0  0  0  0  0  0  0  0  0  0
   38.0400   29.9070   40.8220 H   0  0  0  0  0  0  0  0  0  0  0  0
   39.8890   31.5440   39.1830 S   0  0  0  0  0  0  0  0  0  0  0  0
   38.5130   33.4760   40.8620 F   0  0  0  0  0  0  0  0  0  0  0  0
   39.5250   33.9260   40.0600 C   0  0  0  0  0  0  0  0  0  0  0  0
   40.3600   33.2160   39.1790 C   0  0  0  0  0  0  0  0  0  0  0  0
   41.2730   33.9690   38.5280 C   0  0  0  0  0  0  0  0  0  0  0  0
   41.9100   33.3830   37.8950 H   0  0  0  0  0  0  0  0  0  0  0  0
   41.4660   35.3250   38.6320 C   0  0  0  0  0  0  0  0  0  0  0  0
   42.2500   35.7560   38.0270 H   0  0  0  0  0  0  0  0  0  0  0  0
   40.6310   35.9870   39.5030 C   0  0  0  0  0  0  0  0  0  0  0  0
   39.6660   35.3100   40.2180 C   0  0  0  0  0  0  0  0  0  0  0  0
   43.2860   31.8360   41.1490 C   0  0  0  0  0  0  0  0  0  0  0  0
   43.3330   31.6060   40.0540 H   0  0  0  0  0  0  0  0  0  0  0  0
   43.8490   30.9870   41.6270 H   0  0  0  0  0  0  0  0  0  0  0  0
   43.9070   33.1260   41.4940 C   0  0  0  0  0  0  0  0  0  0  0  0
   43.1310   34.2450   41.6870 C   0  0  0  0  0  0  0  0  0  0  0  0
   43.7680   35.4390   42.0060 C   0  0  0  0  0  0  0  0  0  0  0  0
   45.1300   35.4380   42.1140 N   0  0  0  0  0  0  0  0  0  0  0  0
   45.8450   34.3330   41.9210 C   0  0  0  0  0  0  0  0  0  0  0  0
   45.2130   33.2010   41.6150 N   0  0  0  0  0  0  0  0  0  0  0  0
   42.0730   34.4410   41.6660 H   0  0  0  0  0  0  0  0  0  0  0  0
   43.3260   36.4100   42.1900 H   0  0  0  0  0  0  0  0  0  0  0  0
   47.2960   34.4230   42.0830 C   0  0  0  0  0  0  0  0  0  0  0  0
   48.0160   33.3620   42.6240 C   0  0  0  0  0  0  0  0  0  0  0  0
   49.3750   33.4640   42.7760 C   0  0  0  0  0  0  0  0  0  0  0  0
   49.9130   34.6500   42.3630 C   0  0  0  0  0  0  0  0  0  0  0  0
   49.2470   35.7500   41.8130 C   0  0  0  0  0  0  0  0  0  0  0  0
   47.9030   35.5670   41.6970 N   0  0  0  0  0  0  0  0  0  0  0  0
   47.5210   32.4410   42.9330 H   0  0  0  0  0  0  0  0  0  0  0  0
   50.0170   32.6960   43.1830 H   0  0  0  0  0  0  0  0  0  0  0  0
   50.9990   34.7840   42.4620 H   0  0  0  0  0  0  0  0  0  0  0  0
   49.7560   36.6340   41.5210 H   0  0  0  0  0  0  0  0  0  0  0  0
  1  3  1  0  0  0  0
  2  1  1  0  0  0  0
  4  1  1  0  0  0  0
  4  5  1  0  0  0  0
  5 10  1  0  0  0  0
  5  6  1  0  0  0  0
  6 12  1  0  0  0  0
  6 13  1  0  0  0  0
  7  6  1  0  0  0  0
  7 15  1  0  0  0  0
  8  7  1  0  0  0  0
  9  8  2  0  0  0  0
  9  4  1  0  0  0  0
 11  5  1  0  0  0  0
 14  7  1  0  0  0  0
 16  8  1  0  0  0  0
 17  9  1  0  0  0  0
 19 26  1  0  0  0  0
 19 18  1  0  0  0  0
 20 17  1  0  0  0  0
 20 19  2  0  0  0  0
 21 23  2  0  0  0  0
 21 20  1  0  0  0  0
 22 21  1  0  0  0  0
 23 25  1  0  0  0  0
 24 23  1  0  0  0  0
 25 26  2  0  0  0  0
 27 30  1  0  0  0  0
 27 29  1  0  0  0  0
 27  1  1  0  0  0  0
 28 27  1  0  0  0  0
 30 35  2  0  0  0  0
 30 31  1  0  0  0  0
 31 32  2  0  0  0  0
 32 33  1  0  0  0  0
 32 37  1  0  0  0  0
 34 38  1  0  0  0  0
 34 33  2  0  0  0  0
 35 34  1  0  0  0  0
 36 31  1  0  0  0  0
 38 39  1  0  0  0  0
 39 40  2  0  0  0  0
 39 44  1  0  0  0  0
 40 45  1  0  0  0  0
 41 46  1  0  0  0  0
 41 40  1  0  0  0  0
 42 41  2  0  0  0  0
 43 42  1  0  0  0  0
 43 38  2  0  0  0  0
 47 42  1  0  0  0  0
M  END
>  <minimizedAffinity>
-5.82524776

>  <minimizedRMSD>
3.39680576

$$$$
