
 OpenBabel03252509073D

 41 44  0  0  0  0  0  0  0  0999 V2000
   47.6650   31.8140   38.8860 C   0  0  0  0  0  0  0  0  0  0  0  0
   47.2130   33.1040   38.9140 C   0  0  0  0  0  0  0  0  0  0  0  0
   47.8370   34.0700   38.1400 C   0  0  0  0  0  0  0  0  0  0  0  0
   48.9070   33.7340   37.3460 C   0  0  0  0  0  0  0  0  0  0  0  0
   49.3980   32.4340   37.2880 C   0  0  0  0  0  0  0  0  0  0  0  0
   48.7530   31.4770   38.0760 C   0  0  0  0  0  0  0  0  0  0  0  0
   47.4990   35.1000   38.1460 H   0  0  0  0  0  0  0  0  0  0  0  0
   49.3860   34.4760   36.7530 H   0  0  0  0  0  0  0  0  0  0  0  0
   50.2210   32.0960   36.6970 H   0  0  0  0  0  0  0  0  0  0  0  0
   49.1160   30.4440   38.0510 H   0  0  0  0  0  0  0  0  0  0  0  0
   45.4080   35.2890   43.2270 Cl  0  0  0  0  0  0  0  0  0  0  0  0
   45.2330   34.5310   41.6650 C   0  0  0  0  0  0  0  0  0  0  0  0
   46.3140   34.1430   40.9470 C   0  0  0  0  0  0  0  0  0  0  0  0
   46.0780   33.5560   39.7090 C   0  0  0  0  0  0  0  0  0  0  0  0
   44.8090   33.3730   39.2200 C   0  0  0  0  0  0  0  0  0  0  0  0
   43.7350   33.7650   39.9490 C   0  0  0  0  0  0  0  0  0  0  0  0
   43.9540   34.3530   41.1900 C   0  0  0  0  0  0  0  0  0  0  0  0
   44.6930   32.9120   38.2510 H   0  0  0  0  0  0  0  0  0  0  0  0
   42.7480   33.6090   39.5450 H   0  0  0  0  0  0  0  0  0  0  0  0
   43.0670   34.6500   41.7390 H   0  0  0  0  0  0  0  0  0  0  0  0
   49.5860   35.7670   41.9170 C   0  0  0  0  0  0  0  0  0  0  0  0
   48.3090   35.5720   41.3830 C   0  0  0  0  0  0  0  0  0  0  0  0
   47.6460   34.3700   41.4810 C   0  0  0  0  0  0  0  0  0  0  0  0
   48.3440   33.4360   42.1260 N   0  0  0  0  0  0  0  0  0  0  0  0
   49.5610   33.5840   42.6490 C   0  0  0  0  0  0  0  0  0  0  0  0
   50.1700   34.7550   42.5360 N   0  0  0  0  0  0  0  0  0  0  0  0
   50.0860   36.7140   41.8280 H   0  0  0  0  0  0  0  0  0  0  0  0
   47.8330   36.4130   40.8720 H   0  0  0  0  0  0  0  0  0  0  0  0
   49.9090   32.6700   43.1240 H   0  0  0  0  0  0  0  0  0  0  0  0
   46.9180   30.5980   39.7760 S   0  0  0  0  0  0  0  0  0  0  0  0
   45.6200   30.1460   39.1290 O   0  0  0  0  0  0  0  0  0  0  0  0
   47.8590   29.3590   39.5650 O   0  0  0  0  0  0  0  0  0  0  0  0
   48.4930   30.1830   42.5090 F   0  0  0  0  0  0  0  0  0  0  0  0
   47.1860   30.4970   42.6510 C   0  0  0  0  0  0  0  0  0  0  0  0
   46.5640   30.5630   41.4260 C   0  0  0  0  0  0  0  0  0  0  0  0
   45.1710   30.7260   41.7360 C   0  0  0  0  0  0  0  0  0  0  0  0
   44.4300   30.8040   40.9070 H   0  0  0  0  0  0  0  0  0  0  0  0
   44.5170   30.8120   42.9770 C   0  0  0  0  0  0  0  0  0  0  0  0
   43.4570   30.9350   43.0490 H   0  0  0  0  0  0  0  0  0  0  0  0
   45.3650   30.7240   44.0530 C   0  0  0  0  0  3  0  0  0  0  0  0
   46.7250   30.5630   43.9300 C   0  0  0  0  0  3  0  0  0  0  0  0
  1  2  1  0  0  0  0
  1 30  1  0  0  0  0
  2 14  1  0  0  0  0
  3  7  1  0  0  0  0
  3  2  2  0  0  0  0
  4  3  1  0  0  0  0
  5  4  2  0  0  0  0
  5  6  1  0  0  0  0
  6  1  2  0  0  0  0
  8  4  1  0  0  0  0
  9  5  1  0  0  0  0
 10  6  1  0  0  0  0
 12 11  1  0  0  0  0
 13 23  1  0  0  0  0
 13 12  2  0  0  0  0
 14 13  1  0  0  0  0
 15 14  2  0  0  0  0
 15 16  1  0  0  0  0
 16 17  2  0  0  0  0
 17 12  1  0  0  0  0
 17 20  1  0  0  0  0
 18 15  1  0  0  0  0
 19 16  1  0  0  0  0
 21 26  1  0  0  0  0
 22 23  1  0  0  0  0
 22 21  2  0  0  0  0
 23 24  2  0  0  0  0
 24 25  1  0  0  0  0
 25 29  1  0  0  0  0
 26 25  2  0  0  0  0
 27 21  1  0  0  0  0
 28 22  1  0  0  0  0
 30 35  1  0  0  0  0
 31 30  2  0  0  0  0
 32 30  2  0  0  0  0
 33 34  1  0  0  0  0
 34 41  1  0  0  0  0
 35 36  1  0  0  0  0
 35 34  2  0  0  0  0
 36 38  2  0  0  0  0
 37 36  1  0  0  0  0
 38 39  1  0  0  0  0
 38 40  1  0  0  0  0
 41 40  2  0  0  0  0
M  END
>  <minimizedAffinity>
-4.81647444

>  <minimizedRMSD>
1.1033684

$$$$
