
 OpenBabel03252509073D

 41 44  0  0  0  0  0  0  0  0999 V2000
   48.2160   31.9050   38.5330 C   0  0  0  0  0  0  0  0  0  0  0  0
   47.4050   32.9180   38.9610 C   0  0  0  0  0  0  0  0  0  0  0  0
   47.9170   34.1990   39.1000 C   0  0  0  0  0  0  0  0  0  0  0  0
   49.2350   34.4520   38.8080 C   0  0  0  0  0  0  0  0  0  0  0  0
   50.0950   33.4490   38.3690 C   0  0  0  0  0  0  0  0  0  0  0  0
   49.5560   32.1670   38.2370 C   0  0  0  0  0  0  0  0  0  0  0  0
   47.2950   35.0200   39.4390 H   0  0  0  0  0  0  0  0  0  0  0  0
   49.6280   35.4340   38.9150 H   0  0  0  0  0  0  0  0  0  0  0  0
   51.1270   33.5660   38.1220 H   0  0  0  0  0  0  0  0  0  0  0  0
   50.2080   31.3560   37.8930 H   0  0  0  0  0  0  0  0  0  0  0  0
   43.7500   31.4000   42.2740 Cl  0  0  0  0  0  0  0  0  0  0  0  0
   44.3150   32.0600   40.7600 C   0  0  0  0  0  0  0  0  0  0  0  0
   45.6360   32.2140   40.5090 C   0  0  0  0  0  0  0  0  0  0  0  0
   45.9920   32.7560   39.2800 C   0  0  0  0  0  0  0  0  0  0  0  0
   45.0540   33.1280   38.3490 C   0  0  0  0  0  0  0  0  0  0  0  0
   43.7330   32.9680   38.6120 C   0  0  0  0  0  0  0  0  0  0  0  0
   43.3620   32.4260   39.8370 C   0  0  0  0  0  0  0  0  0  0  0  0
   45.3950   33.5450   37.4140 H   0  0  0  0  0  0  0  0  0  0  0  0
   43.0160   33.2660   37.8650 H   0  0  0  0  0  0  0  0  0  0  0  0
   42.2950   32.3150   40.0040 H   0  0  0  0  0  0  0  0  0  0  0  0
   48.0200   32.3040   43.4410 C   0  0  0  0  0  0  0  0  0  0  0  0
   47.0970   32.7010   42.4690 C   0  0  0  0  0  0  0  0  0  0  0  0
   46.6060   31.8310   41.5230 C   0  0  0  0  0  0  0  0  0  0  0  0
   47.0990   30.5990   41.6350 N   0  0  0  0  0  0  0  0  0  0  0  0
   47.9780   30.1830   42.5460 C   0  0  0  0  0  0  0  0  0  0  0  0
   48.4300   31.0470   43.4430 N   0  0  0  0  0  0  0  0  0  0  0  0
   48.3910   32.9990   44.1710 H   0  0  0  0  0  0  0  0  0  0  0  0
   46.7640   33.7420   42.4740 H   0  0  0  0  0  0  0  0  0  0  0  0
   48.2180   29.1300   42.4220 H   0  0  0  0  0  0  0  0  0  0  0  0
   47.6340   30.3420   38.3110 S   0  0  0  0  0  0  0  0  0  0  0  0
   47.3760   29.6470   39.6370 O   0  0  0  0  0  0  0  0  0  0  0  0
   46.1850   30.5690   37.7530 O   0  0  0  0  0  0  0  0  0  0  0  0
   46.5090   28.0190   36.4500 F   0  0  0  0  0  0  0  0  0  0  0  0
   47.8550   28.1530   36.4380 C   0  0  0  0  0  0  0  0  0  0  0  0
   48.2570   29.1120   37.3390 C   0  0  0  0  0  0  0  0  0  0  0  0
   49.6910   29.0210   37.3470 C   0  0  0  0  0  0  0  0  0  0  0  0
   50.2790   29.6990   38.0090 H   0  0  0  0  0  0  0  0  0  0  0  0
   50.5550   28.1790   36.6260 C   0  0  0  0  0  0  0  0  0  0  0  0
   51.6180   28.2300   36.7400 H   0  0  0  0  0  0  0  0  0  0  0  0
   49.9030   27.3120   35.7860 C   0  0  0  0  0  3  0  0  0  0  0  0
   48.5350   27.2660   35.6620 C   0  0  0  0  0  3  0  0  0  0  0  0
  1  2  1  0  0  0  0
  2  3  2  0  0  0  0
  2 14  1  0  0  0  0
  3  7  1  0  0  0  0
  4  8  1  0  0  0  0
  4  3  1  0  0  0  0
  5  4  2  0  0  0  0
  6  5  1  0  0  0  0
  6  1  2  0  0  0  0
  9  5  1  0  0  0  0
 10  6  1  0  0  0  0
 12 11  1  0  0  0  0
 13 12  1  0  0  0  0
 13 23  1  0  0  0  0
 14 13  2  0  0  0  0
 15 16  2  0  0  0  0
 15 14  1  0  0  0  0
 16 17  1  0  0  0  0
 17 20  1  0  0  0  0
 17 12  2  0  0  0  0
 18 15  1  0  0  0  0
 19 16  1  0  0  0  0
 21 26  1  0  0  0  0
 21 27  1  0  0  0  0
 22 28  1  0  0  0  0
 22 21  2  0  0  0  0
 23 24  2  0  0  0  0
 23 22  1  0  0  0  0
 24 25  1  0  0  0  0
 25 26  2  0  0  0  0
 29 25  1  0  0  0  0
 30  1  1  0  0  0  0
 30 31  2  0  0  0  0
 32 30  2  0  0  0  0
 34 33  1  0  0  0  0
 34 35  1  0  0  0  0
 35 36  2  0  0  0  0
 35 30  1  0  0  0  0
 36 37  1  0  0  0  0
 38 39  1  0  0  0  0
 38 36  1  0  0  0  0
 40 38  2  0  0  0  0
 41 40  1  0  0  0  0
 41 34  2  0  0  0  0
M  END
>  <minimizedAffinity>
-0.676705062

>  <minimizedRMSD>
4.41133404

$$$$
