
 OpenBabel03252509073D

 41 44  0  0  0  0  0  0  0  0999 V2000
   47.7550   31.8670   38.9530 C   0  0  0  0  0  0  0  0  0  0  0  0
   47.2310   33.1270   38.8660 C   0  0  0  0  0  0  0  0  0  0  0  0
   47.8020   34.0540   38.0080 C   0  0  0  0  0  0  0  0  0  0  0  0
   48.8910   33.7100   37.2450 C   0  0  0  0  0  0  0  0  0  0  0  0
   49.4560   32.4390   37.3020 C   0  0  0  0  0  0  0  0  0  0  0  0
   48.8630   31.5220   38.1740 C   0  0  0  0  0  0  0  0  0  0  0  0
   47.4060   35.0600   37.9230 H   0  0  0  0  0  0  0  0  0  0  0  0
   49.3300   34.4220   36.5870 H   0  0  0  0  0  0  0  0  0  0  0  0
   50.2980   32.0970   36.7420 H   0  0  0  0  0  0  0  0  0  0  0  0
   49.2840   30.5130   38.2410 H   0  0  0  0  0  0  0  0  0  0  0  0
   45.2790   35.3030   43.1190 Cl  0  0  0  0  0  0  0  0  0  0  0  0
   45.1590   34.5540   41.5480 C   0  0  0  0  0  0  0  0  0  0  0  0
   46.2630   34.1620   40.8700 C   0  0  0  0  0  0  0  0  0  0  0  0
   46.0710   33.5840   39.6210 C   0  0  0  0  0  0  0  0  0  0  0  0
   44.8190   33.4120   39.0820 C   0  0  0  0  0  0  0  0  0  0  0  0
   43.7210   33.8090   39.7720 C   0  0  0  0  0  0  0  0  0  0  0  0
   43.8970   34.3880   41.0240 C   0  0  0  0  0  0  0  0  0  0  0  0
   44.7370   32.9580   38.1070 H   0  0  0  0  0  0  0  0  0  0  0  0
   42.7490   33.6630   39.3290 H   0  0  0  0  0  0  0  0  0  0  0  0
   42.9920   34.6890   41.5400 H   0  0  0  0  0  0  0  0  0  0  0  0
   49.5510   35.7230   41.8860 C   0  0  0  0  0  0  0  0  0  0  0  0
   48.2950   35.5390   41.3020 C   0  0  0  0  0  0  0  0  0  0  0  0
   47.5750   34.3760   41.4560 C   0  0  0  0  0  0  0  0  0  0  0  0
   48.1980   33.4680   42.2060 N   0  0  0  0  0  0  0  0  0  0  0  0
   49.3930   33.6070   42.7800 C   0  0  0  0  0  0  0  0  0  0  0  0
   50.0580   34.7400   42.6110 N   0  0  0  0  0  0  0  0  0  0  0  0
   50.0960   36.6390   41.7530 H   0  0  0  0  0  0  0  0  0  0  0  0
   47.8830   36.3560   40.7040 H   0  0  0  0  0  0  0  0  0  0  0  0
   49.6760   32.7200   43.3410 H   0  0  0  0  0  0  0  0  0  0  0  0
   47.0760   30.6950   39.9490 S   0  0  0  0  0  0  0  0  0  0  0  0
   47.1580   29.3130   39.3260 O   0  0  0  0  0  0  0  0  0  0  0  0
   48.0900   30.5980   41.1430 O   0  0  0  0  0  0  0  0  0  0  0  0
   44.0400   30.2170   39.1230 F   0  0  0  0  0  0  0  0  0  0  0  0
   44.2430   30.4030   40.4460 C   0  0  0  0  0  0  0  0  0  0  0  0
   45.5640   30.6960   40.6990 C   0  0  0  0  0  0  0  0  0  0  0  0
   45.5960   31.0380   42.0950 C   0  0  0  0  0  0  0  0  0  0  0  0
   46.5650   31.3260   42.5660 H   0  0  0  0  0  0  0  0  0  0  0  0
   44.5640   31.0800   43.0470 C   0  0  0  0  0  0  0  0  0  0  0  0
   44.7450   31.3560   44.0640 H   0  0  0  0  0  0  0  0  0  0  0  0
   43.3340   30.7370   42.5410 C   0  0  0  0  0  3  0  0  0  0  0  0
   43.1310   30.3880   41.2280 C   0  0  0  0  0  3  0  0  0  0  0  0
  1 30  1  0  0  0  0
  2  1  1  0  0  0  0
  2 14  1  0  0  0  0
  3  2  2  0  0  0  0
  4  5  2  0  0  0  0
  4  3  1  0  0  0  0
  5  6  1  0  0  0  0
  6 10  1  0  0  0  0
  6  1  2  0  0  0  0
  7  3  1  0  0  0  0
  8  4  1  0  0  0  0
  9  5  1  0  0  0  0
 12 11  1  0  0  0  0
 13 23  1  0  0  0  0
 13 12  2  0  0  0  0
 14 13  1  0  0  0  0
 15 14  2  0  0  0  0
 15 16  1  0  0  0  0
 16 17  2  0  0  0  0
 17 20  1  0  0  0  0
 17 12  1  0  0  0  0
 18 15  1  0  0  0  0
 19 16  1  0  0  0  0
 21 26  1  0  0  0  0
 22 23  1  0  0  0  0
 22 21  2  0  0  0  0
 23 24  2  0  0  0  0
 24 25  1  0  0  0  0
 25 29  1  0  0  0  0
 26 25  2  0  0  0  0
 27 21  1  0  0  0  0
 28 22  1  0  0  0  0
 30 35  1  0  0  0  0
 30 32  2  0  0  0  0
 31 30  2  0  0  0  0
 33 34  1  0  0  0  0
 34 35  2  0  0  0  0
 34 41  1  0  0  0  0
 35 36  1  0  0  0  0
 36 37  1  0  0  0  0
 36 38  2  0  0  0  0
 38 39  1  0  0  0  0
 40 38  1  0  0  0  0
 41 40  2  0  0  0  0
M  END
>  <minimizedAffinity>
-4.80488968

>  <minimizedRMSD>
0.712336004

$$$$
