
 OpenBabel03252504303D

 33 34  0  0  0  0  0  0  0  0999 V2000
   45.4600   35.6010   43.1210 C   0  0  0  0  0  0  0  0  0  0  0  0
   46.1430   34.9500   42.5570 H   0  0  0  0  0  0  0  0  0  0  0  0
   45.8760   36.6370   43.2300 H   0  0  0  0  0  0  0  0  0  0  0  0
   43.8060   35.1120   41.2670 C   0  0  0  0  0  0  0  0  0  0  0  0
   44.1460   35.7740   42.3860 C   0  0  0  0  0  0  0  0  0  0  0  0
   42.5550   35.4020   40.7330 O   0  0  0  0  0  0  0  0  0  0  0  0
   41.3870   35.5730   41.4350 C   0  0  0  0  0  0  0  0  0  0  0  0
   41.5720   35.2140   42.4950 H   0  0  0  0  0  0  0  0  0  0  0  0
   41.0790   36.6220   41.4660 H   0  0  0  0  0  0  0  0  0  0  0  0
   40.2070   33.4920   41.6600 C   0  0  0  0  0  0  0  0  0  0  0  0
   40.2760   34.7120   40.9570 C   0  0  0  0  0  0  0  0  0  0  0  0
   39.3530   34.9440   39.9810 C   0  0  0  0  0  0  0  0  0  0  0  0
   38.4430   33.9970   39.7550 N   0  0  0  0  0  0  0  0  0  0  0  0
   38.3650   32.8330   40.4180 C   0  0  0  0  0  0  0  0  0  0  0  0
   39.2690   32.5250   41.4230 N   0  0  0  0  0  0  0  0  0  0  0  0
   40.8740   33.1840   42.4540 H   0  0  0  0  0  0  0  0  0  0  0  0
   39.4680   35.8820   39.4940 H   0  0  0  0  0  0  0  0  0  0  0  0
   37.5930   32.1090   40.1780 H   0  0  0  0  0  0  0  0  0  0  0  0
   45.1510   35.1630   44.3960 O   0  0  0  0  0  0  0  0  0  0  0  0
   45.2210   32.5690   43.8140 O   0  0  0  0  0  0  0  0  0  0  0  0
   45.8260   33.6340   44.6820 P   0  0  1  0  0  0  0  0  0  0  0  0
   47.4920   33.6670   44.3800 O   0  0  0  0  0  0  0  0  0  0  0  0
   47.7870   32.9510   43.7950 H   0  0  0  0  0  0  0  0  0  0  0  0
   45.6070   33.2500   46.3230 O   0  0  0  0  0  0  0  0  0  0  0  0
   45.7640   32.9390   49.0810 F   0  0  0  0  0  0  0  0  0  0  0  0
   46.4080   32.0840   48.2450 C   0  0  0  0  0  0  0  0  0  0  0  0
   46.3520   32.2070   46.8560 C   0  0  0  0  0  0  0  0  0  0  0  0
   47.0580   31.2600   46.1430 C   0  0  0  0  0  0  0  0  0  0  0  0
   47.0250   31.3410   45.0700 H   0  0  0  0  0  0  0  0  0  0  0  0
   47.7710   30.2570   46.7510 C   0  0  0  0  0  0  0  0  0  0  0  0
   48.3040   29.5470   46.1020 H   0  0  0  0  0  0  0  0  0  0  0  0
   47.8200   30.1440   48.1160 C   0  0  0  0  0  0  0  0  0  0  0  0
   47.1300   31.0670   48.8740 C   0  0  0  0  0  0  0  0  0  0  0  0
  1  3  1  0  0  0  0
  1 19  1  0  0  0  0
  2  1  1  0  0  0  0
  4  5  2  0  0  0  0
  5  1  1  0  0  0  0
  6  4  1  0  0  0  0
  6  7  1  0  0  0  0
  7  9  1  0  0  0  0
  7  8  1  0  0  0  0
 10 16  1  0  0  0  0
 11  7  1  0  0  0  0
 11 10  2  0  0  0  0
 12 11  1  0  0  0  0
 13 12  2  0  0  0  0
 13 14  1  0  0  0  0
 14 15  2  0  0  0  0
 15 10  1  0  0  0  0
 17 12  1  0  0  0  0
 18 14  1  0  0  0  0
 19 21  1  0  0  0  0
 21 20  2  6  0  0  0
 21 24  1  0  0  0  0
 22 21  1  0  0  0  0
 23 22  1  0  0  0  0
 24 27  1  0  0  0  0
 26 33  1  0  0  0  0
 26 25  1  0  0  0  0
 27 26  2  0  0  0  0
 28 30  2  0  0  0  0
 28 27  1  0  0  0  0
 29 28  1  0  0  0  0
 30 32  1  0  0  0  0
 31 30  1  0  0  0  0
 32 33  2  0  0  0  0
M  END
>  <minimizedAffinity>
-5.5629282

>  <minimizedRMSD>
1.75655544

$$$$
