
 OpenBabel03242520023D

 25 27  0  0  0  0  0  0  0  0999 V2000
   46.1590   33.2710   44.5990 C   0  0  0  0  0  0  0  0  0  0  0  0
   47.1990   33.8350   43.8730 C   0  0  0  0  0  0  0  0  0  0  0  0
   46.7160   34.2970   42.6890 C   0  0  0  0  0  0  0  0  0  0  0  0
   45.4020   34.0220   42.6850 N   0  0  0  0  0  0  0  0  0  0  0  0
   45.0800   33.4090   43.8320 N   0  0  0  0  0  0  0  0  0  0  0  0
   48.2360   33.8950   44.2050 H   0  0  0  0  0  0  0  0  0  0  0  0
   47.2730   34.7980   41.8830 H   0  0  0  0  0  0  0  0  0  0  0  0
   47.3340   31.1730   47.3610 C   0  0  0  0  0  0  0  0  0  0  0  0
   46.4870   31.5590   48.4180 C   0  0  0  0  0  0  0  0  0  0  0  0
   45.5160   32.5410   48.1700 C   0  0  0  0  0  0  0  0  0  0  0  0
   45.4810   33.0390   46.9140 N   0  0  0  0  0  0  0  0  0  0  0  0
   46.2830   32.6720   45.9120 C   0  0  0  0  0  0  0  0  0  0  0  0
   47.2290   31.7260   46.1250 N   0  0  0  0  0  0  0  0  0  0  0  0
   48.0980   30.4200   47.5020 H   0  0  0  0  0  0  0  0  0  0  0  0
   46.6400   31.0660   49.3710 H   0  0  0  0  0  0  0  0  0  0  0  0
   44.8800   32.8270   48.9740 H   0  0  0  0  0  0  0  0  0  0  0  0
   45.3700   32.8020   40.1370 F   0  0  0  0  0  0  0  0  0  0  0  0
   44.4270   33.7010   40.4550 C   0  0  0  0  0  0  0  0  0  0  0  0
   44.4480   34.2920   41.6970 C   0  0  0  0  0  0  0  0  0  0  0  0
   43.4740   35.2280   42.0400 C   0  0  0  0  0  0  0  0  0  0  0  0
   43.4650   35.7150   43.0230 H   0  0  0  0  0  0  0  0  0  0  0  0
   42.4720   35.5960   41.1790 C   0  0  0  0  0  0  0  0  0  0  0  0
   41.7310   36.3160   41.4580 H   0  0  0  0  0  0  0  0  0  0  0  0
   42.4710   34.9950   39.9490 C   0  0  0  0  0  0  0  0  0  0  0  0
   43.4230   34.0600   39.5690 C   0  0  0  0  0  0  0  0  0  0  0  0
  1 12  1  0  0  0  0
  2  6  1  0  0  0  0
  2  1  1  0  0  0  0
  3  2  2  0  0  0  0
  4  3  1  0  0  0  0
  4  5  1  0  0  0  0
  5  1  2  0  0  0  0
  7  3  1  0  0  0  0
  8 14  1  0  0  0  0
  8  9  1  0  0  0  0
  9 15  1  0  0  0  0
 10  9  2  0  0  0  0
 10 16  1  0  0  0  0
 11 10  1  0  0  0  0
 12 13  1  0  0  0  0
 12 11  2  0  0  0  0
 13  8  2  0  0  0  0
 17 18  1  0  0  0  0
 18 19  1  0  0  0  0
 19 20  2  0  0  0  0
 19  4  1  0  0  0  0
 20 21  1  0  0  0  0
 22 23  1  0  0  0  0
 22 20  1  0  0  0  0
 24 22  2  0  0  0  0
 25 24  1  0  0  0  0
 25 18  2  0  0  0  0
M  END
>  <minimizedAffinity>
-4.59348869

>  <minimizedRMSD>
7.66355371

$$$$
