
 OpenBabel03252509073D

 41 44  0  0  0  0  0  0  0  0999 V2000
   47.6690   31.8140   38.8840 C   0  0  0  0  0  0  0  0  0  0  0  0
   47.2170   33.1040   38.9120 C   0  0  0  0  0  0  0  0  0  0  0  0
   47.8410   34.0710   38.1380 C   0  0  0  0  0  0  0  0  0  0  0  0
   48.9110   33.7360   37.3450 C   0  0  0  0  0  0  0  0  0  0  0  0
   49.4030   32.4350   37.2870 C   0  0  0  0  0  0  0  0  0  0  0  0
   48.7580   31.4780   38.0750 C   0  0  0  0  0  0  0  0  0  0  0  0
   47.5020   35.1010   38.1440 H   0  0  0  0  0  0  0  0  0  0  0  0
   49.3900   34.4770   36.7520 H   0  0  0  0  0  0  0  0  0  0  0  0
   50.2260   32.0980   36.6960 H   0  0  0  0  0  0  0  0  0  0  0  0
   49.1220   30.4460   38.0500 H   0  0  0  0  0  0  0  0  0  0  0  0
   45.4080   35.2880   43.2240 Cl  0  0  0  0  0  0  0  0  0  0  0  0
   45.2350   34.5300   41.6620 C   0  0  0  0  0  0  0  0  0  0  0  0
   46.3160   34.1430   40.9450 C   0  0  0  0  0  0  0  0  0  0  0  0
   46.0820   33.5560   39.7070 C   0  0  0  0  0  0  0  0  0  0  0  0
   44.8120   33.3720   39.2160 C   0  0  0  0  0  0  0  0  0  0  0  0
   43.7380   33.7640   39.9450 C   0  0  0  0  0  0  0  0  0  0  0  0
   43.9560   34.3510   41.1860 C   0  0  0  0  0  0  0  0  0  0  0  0
   44.6970   32.9120   38.2470 H   0  0  0  0  0  0  0  0  0  0  0  0
   42.7510   33.6070   39.5400 H   0  0  0  0  0  0  0  0  0  0  0  0
   43.0680   34.6480   41.7340 H   0  0  0  0  0  0  0  0  0  0  0  0
   49.5870   35.7680   41.9160 C   0  0  0  0  0  0  0  0  0  0  0  0
   48.3100   35.5720   41.3820 C   0  0  0  0  0  0  0  0  0  0  0  0
   47.6480   34.3700   41.4800 C   0  0  0  0  0  0  0  0  0  0  0  0
   48.3460   33.4360   42.1250 N   0  0  0  0  0  0  0  0  0  0  0  0
   49.5630   33.5840   42.6480 C   0  0  0  0  0  0  0  0  0  0  0  0
   50.1710   34.7560   42.5360 N   0  0  0  0  0  0  0  0  0  0  0  0
   50.0860   36.7150   41.8280 H   0  0  0  0  0  0  0  0  0  0  0  0
   47.8350   36.4130   40.8710 H   0  0  0  0  0  0  0  0  0  0  0  0
   49.9100   32.6710   43.1230 H   0  0  0  0  0  0  0  0  0  0  0  0
   46.9220   30.5980   39.7740 S   0  0  0  0  0  0  0  0  0  0  0  0
   45.6260   30.1450   39.1250 O   0  0  0  0  0  0  0  0  0  0  0  0
   47.8650   29.3600   39.5630 O   0  0  0  0  0  0  0  0  0  0  0  0
   48.4960   30.1840   42.5090 F   0  0  0  0  0  0  0  0  0  0  0  0
   47.1870   30.4980   42.6490 C   0  0  0  0  0  0  0  0  0  0  0  0
   46.5680   30.5640   41.4230 C   0  0  0  0  0  0  0  0  0  0  0  0
   45.1740   30.7270   41.7320 C   0  0  0  0  0  0  0  0  0  0  0  0
   44.4340   30.8040   40.9000 H   0  0  0  0  0  0  0  0  0  0  0  0
   44.5180   30.8120   42.9720 C   0  0  0  0  0  0  0  0  0  0  0  0
   43.4590   30.9350   43.0420 H   0  0  0  0  0  0  0  0  0  0  0  0
   45.3660   30.7240   44.0490 C   0  0  0  0  0  3  0  0  0  0  0  0
   46.7260   30.5640   43.9270 C   0  0  0  0  0  3  0  0  0  0  0  0
  1  2  1  0  0  0  0
  1 30  1  0  0  0  0
  2 14  1  0  0  0  0
  3  7  1  0  0  0  0
  3  2  2  0  0  0  0
  4  3  1  0  0  0  0
  5  4  2  0  0  0  0
  5  6  1  0  0  0  0
  6  1  2  0  0  0  0
  8  4  1  0  0  0  0
  9  5  1  0  0  0  0
 10  6  1  0  0  0  0
 12 11  1  0  0  0  0
 13 23  1  0  0  0  0
 13 12  2  0  0  0  0
 14 13  1  0  0  0  0
 15 14  2  0  0  0  0
 15 16  1  0  0  0  0
 16 17  2  0  0  0  0
 17 12  1  0  0  0  0
 17 20  1  0  0  0  0
 18 15  1  0  0  0  0
 19 16  1  0  0  0  0
 21 26  1  0  0  0  0
 22 23  1  0  0  0  0
 22 21  2  0  0  0  0
 23 24  2  0  0  0  0
 24 25  1  0  0  0  0
 25 29  1  0  0  0  0
 26 25  2  0  0  0  0
 27 21  1  0  0  0  0
 28 22  1  0  0  0  0
 30 35  1  0  0  0  0
 31 30  2  0  0  0  0
 32 30  2  0  0  0  0
 33 34  1  0  0  0  0
 34 41  1  0  0  0  0
 35 36  1  0  0  0  0
 35 34  2  0  0  0  0
 36 38  2  0  0  0  0
 37 36  1  0  0  0  0
 38 39  1  0  0  0  0
 38 40  1  0  0  0  0
 41 40  2  0  0  0  0
M  END
>  <minimizedAffinity>
-4.81959867

>  <minimizedRMSD>
1.26784599

$$$$
