
 OpenBabel03242516433D

 44 46  0  0  1  0  0  0  0  0999 V2000
   37.3280   30.7260   39.1830 O   0  0  0  0  0  0  0  0  0  0  0  0
   37.1800   31.3150   40.5730 P   0  0  2  0  0  0  0  0  0  0  0  0
   35.6490   31.1030   41.2060 O   0  0  0  0  0  0  0  0  0  0  0  0
   35.0210   30.6510   40.5850 H   0  0  0  0  0  0  0  0  0  0  0  0
   37.5370   32.9580   40.5130 O   0  0  0  0  0  0  0  0  0  0  0  0
   38.7130   33.1940   39.8180 C   0  0  0  0  0  0  0  0  0  0  0  0
   39.2280   32.2180   39.6330 H   0  0  0  0  0  0  0  0  0  0  0  0
   38.4290   33.5980   38.8070 H   0  0  0  0  0  0  0  0  0  0  0  0
   39.6130   34.0990   40.5930 C   0  0  0  0  0  0  0  0  0  0  0  0
   39.2680   35.1430   40.4270 H   0  0  0  0  0  0  0  0  0  0  0  0
   39.5940   33.9380   41.6880 H   0  0  0  0  0  0  0  0  0  0  0  0
   42.4930   34.1680   38.1600 C   0  0  0  0  0  0  0  0  0  0  0  0
   41.1860   34.2510   38.6880 C   0  0  0  0  0  0  0  0  0  0  0  0
   40.9980   34.0110   40.0370 C   0  0  0  0  0  0  0  0  0  0  0  0
   42.0660   33.7070   40.7960 N   0  0  0  0  0  0  0  0  0  0  0  0
   43.3140   33.6340   40.2630 C   0  0  0  0  0  0  0  0  0  0  0  0
   43.5240   33.8620   38.9620 N   0  0  0  0  0  0  0  0  0  0  0  0
   42.7050   34.4110   36.7800 N   0  0  0  0  0  0  0  0  0  0  0  0
   40.3610   34.5020   38.0130 H   0  0  0  0  0  0  0  0  0  0  0  0
   44.1760   33.3880   40.8860 H   0  0  0  0  0  0  0  0  0  0  0  0
   42.0880   33.9730   36.0370 H   0  0  0  0  0  0  0  0  0  0  0  0
   43.4950   35.0400   36.4950 H   0  0  0  0  0  0  0  0  0  0  0  0
   38.2770   30.5310   41.6240 O   0  0  0  0  0  0  0  0  0  0  0  0
   39.2790   28.4090   41.4710 C   0  0  1  0  0  0  0  0  0  0  0  0
   39.2190   29.8260   40.9480 C   0  0  2  0  0  0  0  0  0  0  0  0
   40.5780   30.3440   41.4710 C   0  0  0  0  0  0  0  0  0  0  0  0
   40.7190   29.8010   42.7170 O   0  0  0  0  0  0  0  0  0  0  0  0
   40.0020   28.6400   42.7790 C   0  0  0  0  0  0  0  0  0  0  0  0
   39.9500   27.8060   40.8240 H   0  0  0  0  0  0  0  0  0  0  0  0
   39.1960   29.8960   39.8430 H   0  0  0  0  0  0  0  0  0  0  0  0
   40.5280   31.4590   41.4830 H   0  0  0  0  0  0  0  0  0  0  0  0
   41.3390   29.9680   40.7370 H   0  0  0  0  0  0  0  0  0  0  0  0
   40.7050   27.7980   42.9550 H   0  0  0  0  0  0  0  0  0  0  0  0
   39.3260   28.6550   43.6470 H   0  0  0  0  0  0  0  0  0  0  0  0
   38.0480   27.8400   41.6080 O   0  0  0  0  0  0  0  0  0  0  0  0
   36.9940   27.2840   39.0270 F   0  0  0  0  0  0  0  0  0  0  0  0
   36.9480   26.2980   39.9540 C   0  0  0  0  0  0  0  0  0  0  0  0
   37.4880   26.6910   41.1610 C   0  0  0  0  0  0  0  0  0  0  0  0
   37.4810   25.7280   42.1820 C   0  0  0  0  0  0  0  0  0  0  0  0
   37.8630   25.8450   43.2080 H   0  0  0  0  0  0  0  0  0  0  0  0
   36.9560   24.4490   41.9770 C   0  0  0  0  0  0  0  0  0  0  0  0
   36.9340   23.6850   42.7390 H   0  0  0  0  0  0  0  0  0  0  0  0
   36.4320   24.1130   40.7600 C   0  0  0  0  0  3  0  0  0  0  0  0
   36.4320   25.0350   39.7610 C   0  0  0  0  0  3  0  0  0  0  0  0
  2  1  2  6  0  0  0
  2  3  1  0  0  0  0
  2 23  1  0  0  0  0
  4  3  1  0  0  0  0
  5  2  1  0  0  0  0
  6  5  1  0  0  0  0
  6  9  1  0  0  0  0
  7  6  1  0  0  0  0
  8  6  1  0  0  0  0
  9 11  1  0  0  0  0
 10  9  1  0  0  0  0
 12 13  2  0  0  0  0
 12 17  1  0  0  0  0
 13 14  1  0  0  0  0
 14  9  1  0  0  0  0
 14 15  2  0  0  0  0
 16 15  1  0  0  0  0
 16 20  1  0  0  0  0
 17 16  2  0  0  0  0
 18 12  1  0  0  0  0
 19 13  1  0  0  0  0
 21 18  1  0  0  0  0
 22 18  1  0  0  0  0
 24 29  1  6  0  0  0
 24 35  1  0  0  0  0
 24 28  1  0  0  0  0
 25 30  1  6  0  0  0
 25 26  1  0  0  0  0
 25 24  1  0  0  0  0
 25 23  1  0  0  0  0
 26 31  1  0  0  0  0
 26 27  1  0  0  0  0
 27 28  1  0  0  0  0
 28 33  1  0  0  0  0
 28 34  1  0  0  0  0
 32 26  1  0  0  0  0
 36 37  1  0  0  0  0
 37 38  1  0  0  0  0
 38 35  1  0  0  0  0
 38 39  2  0  0  0  0
 39 40  1  0  0  0  0
 41 39  1  0  0  0  0
 41 42  1  0  0  0  0
 43 41  2  0  0  0  0
 44 37  2  0  0  0  0
 44 43  1  0  0  0  0
M  END
>  <minimizedAffinity>
-6.1173172

$$$$

 OpenBabel03242516433D

 44 46  0  0  1  0  0  0  0  0999 V2000
   37.1870   30.4400   39.2800 O   0  0  0  0  0  0  0  0  0  0  0  0
   37.0680   30.9330   40.7100 P   0  0  2  0  0  0  0  0  0  0  0  0
   35.5030   30.8670   41.2890 O   0  0  0  0  0  0  0  0  0  0  0  0
   34.8450   30.5490   40.6200 H   0  0  0  0  0  0  0  0  0  0  0  0
   37.6280   32.5170   40.7930 O   0  0  0  0  0  0  0  0  0  0  0  0
   38.2430   32.8980   39.6090 C   0  0  0  0  0  0  0  0  0  0  0  0
   38.3460   32.0010   38.9480 H   0  0  0  0  0  0  0  0  0  0  0  0
   37.5420   33.6010   39.0790 H   0  0  0  0  0  0  0  0  0  0  0  0
   39.5900   33.4830   39.8780 C   0  0  0  0  0  0  0  0  0  0  0  0
   39.5130   34.5850   39.7460 H   0  0  0  0  0  0  0  0  0  0  0  0
   39.9650   33.3200   40.9060 H   0  0  0  0  0  0  0  0  0  0  0  0
   42.3870   33.4290   37.3500 C   0  0  0  0  0  0  0  0  0  0  0  0
   41.4750   33.8860   38.3260 C   0  0  0  0  0  0  0  0  0  0  0  0
   40.5540   32.9950   38.8450 C   0  0  0  0  0  0  0  0  0  0  0  0
   40.5590   31.7250   38.4000 N   0  0  0  0  0  0  0  0  0  0  0  0
   41.4480   31.3100   37.4590 C   0  0  0  0  0  0  0  0  0  0  0  0
   42.3490   32.1510   36.9400 N   0  0  0  0  0  0  0  0  0  0  0  0
   43.3380   34.3280   36.8060 N   0  0  0  0  0  0  0  0  0  0  0  0
   41.5250   34.9340   38.6430 H   0  0  0  0  0  0  0  0  0  0  0  0
   41.4460   30.2780   37.1030 H   0  0  0  0  0  0  0  0  0  0  0  0
   43.0640   35.2990   36.4820 H   0  0  0  0  0  0  0  0  0  0  0  0
   44.3370   34.0170   36.7270 H   0  0  0  0  0  0  0  0  0  0  0  0
   38.0240   29.9370   41.7170 O   0  0  0  0  0  0  0  0  0  0  0  0
   38.9960   27.8160   41.4190 C   0  0  1  0  0  0  0  0  0  0  0  0
   38.9830   29.2750   41.0220 C   0  0  2  0  0  0  0  0  0  0  0  0
   40.3270   29.7160   41.6460 C   0  0  0  0  0  0  0  0  0  0  0  0
   40.4030   29.0620   42.8440 O   0  0  0  0  0  0  0  0  0  0  0  0
   39.6640   27.9160   42.7710 C   0  0  0  0  0  0  0  0  0  0  0  0
   39.6840   27.2590   40.7500 H   0  0  0  0  0  0  0  0  0  0  0  0
   39.0110   29.4430   39.9280 H   0  0  0  0  0  0  0  0  0  0  0  0
   40.2960   30.8260   41.7560 H   0  0  0  0  0  0  0  0  0  0  0  0
   41.1130   29.3900   40.9150 H   0  0  0  0  0  0  0  0  0  0  0  0
   40.3440   27.0460   42.9020 H   0  0  0  0  0  0  0  0  0  0  0  0
   38.9510   27.8680   43.6070 H   0  0  0  0  0  0  0  0  0  0  0  0
   37.7500   27.2630   41.4520 O   0  0  0  0  0  0  0  0  0  0  0  0
   37.4510   24.6560   42.5440 F   0  0  0  0  0  0  0  0  0  0  0  0
   36.9850   24.8730   41.2910 C   0  0  0  0  0  0  0  0  0  0  0  0
   37.1900   26.1730   40.8770 C   0  0  0  0  0  0  0  0  0  0  0  0
   36.7360   26.4870   39.5860 C   0  0  0  0  0  0  0  0  0  0  0  0
   36.8050   27.4610   39.0760 H   0  0  0  0  0  0  0  0  0  0  0  0
   36.1160   25.5310   38.7770 C   0  0  0  0  0  0  0  0  0  0  0  0
   35.7560   25.7390   37.7800 H   0  0  0  0  0  0  0  0  0  0  0  0
   35.9390   24.2570   39.2380 C   0  0  0  0  0  3  0  0  0  0  0  0
   36.3730   23.9370   40.4860 C   0  0  0  0  0  3  0  0  0  0  0  0
  2  1  2  6  0  0  0
  2  5  1  0  0  0  0
  2  3  1  0  0  0  0
  2 23  1  0  0  0  0
  4  3  1  0  0  0  0
  6  9  1  0  0  0  0
  6  5  1  0  0  0  0
  7  6  1  0  0  0  0
  8  6  1  0  0  0  0
  9 11  1  0  0  0  0
 10  9  1  0  0  0  0
 12 13  1  0  0  0  0
 13 19  1  0  0  0  0
 13 14  2  0  0  0  0
 14  9  1  0  0  0  0
 15 14  1  0  0  0  0
 16 15  2  0  0  0  0
 17 12  2  0  0  0  0
 17 16  1  0  0  0  0
 18 12  1  0  0  0  0
 20 16  1  0  0  0  0
 21 18  1  0  0  0  0
 22 18  1  0  0  0  0
 24 29  1  6  0  0  0
 24 35  1  0  0  0  0
 24 28  1  0  0  0  0
 25 30  1  6  0  0  0
 25 24  1  0  0  0  0
 25 26  1  0  0  0  0
 25 23  1  0  0  0  0
 26 31  1  0  0  0  0
 26 27  1  0  0  0  0
 28 27  1  0  0  0  0
 28 33  1  0  0  0  0
 28 34  1  0  0  0  0
 32 26  1  0  0  0  0
 37 36  1  0  0  0  0
 38 37  1  0  0  0  0
 38 35  1  0  0  0  0
 39 38  2  0  0  0  0
 40 39  1  0  0  0  0
 41 43  2  0  0  0  0
 41 39  1  0  0  0  0
 42 41  1  0  0  0  0
 43 44  1  0  0  0  0
 44 37  2  0  0  0  0
M  END
>  <minimizedAffinity>
-5.92752361

$$$$

 OpenBabel03242516433D

 44 46  0  0  1  0  0  0  0  0999 V2000
   36.5910   31.1230   38.7090 O   0  0  0  0  0  0  0  0  0  0  0  0
   37.0410   31.4240   40.1260 P   0  0  2  0  0  0  0  0  0  0  0  0
   35.8430   31.1480   41.2570 O   0  0  0  0  0  0  0  0  0  0  0  0
   34.9820   30.8580   40.8610 H   0  0  0  0  0  0  0  0  0  0  0  0
   37.5360   33.0290   40.2160 O   0  0  0  0  0  0  0  0  0  0  0  0
   38.7310   33.1500   40.9080 C   0  0  0  0  0  0  0  0  0  0  0  0
   38.5170   33.1580   42.0070 H   0  0  0  0  0  0  0  0  0  0  0  0
   39.3290   32.2180   40.7110 H   0  0  0  0  0  0  0  0  0  0  0  0
   39.4380   34.4080   40.5250 C   0  0  0  0  0  0  0  0  0  0  0  0
   38.8790   34.8670   39.6800 H   0  0  0  0  0  0  0  0  0  0  0  0
   39.4760   35.1750   41.3220 H   0  0  0  0  0  0  0  0  0  0  0  0
   42.3930   34.0830   38.2060 C   0  0  0  0  0  0  0  0  0  0  0  0
   41.1090   34.4010   38.7000 C   0  0  0  0  0  0  0  0  0  0  0  0
   40.7980   34.0710   40.0060 C   0  0  0  0  0  0  0  0  0  0  0  0
   41.7310   33.4590   40.7580 N   0  0  0  0  0  0  0  0  0  0  0  0
   42.9600   33.1630   40.2590 C   0  0  0  0  0  0  0  0  0  0  0  0
   43.2860   33.4720   38.9990 N   0  0  0  0  0  0  0  0  0  0  0  0
   42.7290   34.4140   36.8690 N   0  0  0  0  0  0  0  0  0  0  0  0
   40.3970   34.9000   38.0320 H   0  0  0  0  0  0  0  0  0  0  0  0
   43.7110   32.6670   40.8760 H   0  0  0  0  0  0  0  0  0  0  0  0
   42.0740   34.2060   36.0630 H   0  0  0  0  0  0  0  0  0  0  0  0
   43.6520   34.8770   36.6820 H   0  0  0  0  0  0  0  0  0  0  0  0
   38.3520   30.3990   40.5170 O   0  0  0  0  0  0  0  0  0  0  0  0
   39.5050   28.4410   39.9110 C   0  0  1  0  0  0  0  0  0  0  0  0
   38.7790   29.6830   39.4460 C   0  0  2  0  0  0  0  0  0  0  0  0
   39.9770   30.4730   38.8700 C   0  0  0  0  0  0  0  0  0  0  0  0
   41.0100   30.2490   39.7380 O   0  0  0  0  0  0  0  0  0  0  0  0
   40.8110   29.0530   40.3650 C   0  0  0  0  0  0  0  0  0  0  0  0
   39.7280   27.7960   39.0350 H   0  0  0  0  0  0  0  0  0  0  0  0
   38.0390   29.4970   38.6440 H   0  0  0  0  0  0  0  0  0  0  0  0
   39.6750   31.5460   38.8180 H   0  0  0  0  0  0  0  0  0  0  0  0
   40.1550   30.0380   37.8510 H   0  0  0  0  0  0  0  0  0  0  0  0
   41.6430   28.3670   40.0930 H   0  0  0  0  0  0  0  0  0  0  0  0
   40.8700   29.1790   41.4560 H   0  0  0  0  0  0  0  0  0  0  0  0
   38.8350   27.7690   40.8890 O   0  0  0  0  0  0  0  0  0  0  0  0
   39.8770   28.0590   43.5180 F   0  0  0  0  0  0  0  0  0  0  0  0
   39.6860   26.8030   43.0490 C   0  0  0  0  0  0  0  0  0  0  0  0
   39.1790   26.7960   41.7670 C   0  0  0  0  0  0  0  0  0  0  0  0
   38.9490   25.5320   41.2020 C   0  0  0  0  0  0  0  0  0  0  0  0
   38.5500   25.3160   40.1980 H   0  0  0  0  0  0  0  0  0  0  0  0
   39.2230   24.3560   41.9050 C   0  0  0  0  0  0  0  0  0  0  0  0
   39.0590   23.3680   41.5010 H   0  0  0  0  0  0  0  0  0  0  0  0
   39.7260   24.4210   43.1740 C   0  0  0  0  0  3  0  0  0  0  0  0
   39.9530   25.6380   43.7360 C   0  0  0  0  0  3  0  0  0  0  0  0
  2  1  2  6  0  0  0
  2  5  1  0  0  0  0
  2 23  1  0  0  0  0
  2  3  1  0  0  0  0
  4  3  1  0  0  0  0
  5  6  1  0  0  0  0
  6  7  1  0  0  0  0
  8  6  1  0  0  0  0
  9  6  1  0  0  0  0
  9 11  1  0  0  0  0
 10  9  1  0  0  0  0
 12 13  2  0  0  0  0
 12 17  1  0  0  0  0
 13 14  1  0  0  0  0
 14  9  1  0  0  0  0
 14 15  2  0  0  0  0
 16 15  1  0  0  0  0
 16 20  1  0  0  0  0
 17 16  2  0  0  0  0
 18 12  1  0  0  0  0
 19 13  1  0  0  0  0
 21 18  1  0  0  0  0
 22 18  1  0  0  0  0
 24 29  1  6  0  0  0
 24 28  1  0  0  0  0
 24 35  1  0  0  0  0
 25 30  1  6  0  0  0
 25 24  1  0  0  0  0
 25 23  1  0  0  0  0
 26 25  1  0  0  0  0
 26 27  1  0  0  0  0
 27 28  1  0  0  0  0
 28 34  1  0  0  0  0
 31 26  1  0  0  0  0
 32 26  1  0  0  0  0
 33 28  1  0  0  0  0
 35 38  1  0  0  0  0
 37 36  1  0  0  0  0
 37 44  1  0  0  0  0
 38 37  2  0  0  0  0
 39 38  1  0  0  0  0
 39 41  2  0  0  0  0
 40 39  1  0  0  0  0
 41 43  1  0  0  0  0
 42 41  1  0  0  0  0
 43 44  2  0  0  0  0
M  END
>  <minimizedAffinity>
-5.92234755

$$$$

 OpenBabel03242516433D

 44 46  0  0  1  0  0  0  0  0999 V2000
   40.5290   29.0780   42.2450 O   0  0  0  0  0  0  0  0  0  0  0  0
   39.6770   30.3130   42.0160 P   0  0  2  0  0  0  0  0  0  0  0  0
   40.1300   31.5990   42.9820 O   0  0  0  0  0  0  0  0  0  0  0  0
   40.8720   31.3870   43.6040 H   0  0  0  0  0  0  0  0  0  0  0  0
   38.0660   29.9310   42.3140 O   0  0  0  0  0  0  0  0  0  0  0  0
   37.9490   28.9920   43.3270 C   0  0  0  0  0  0  0  0  0  0  0  0
   38.9720   28.6490   43.6260 H   0  0  0  0  0  0  0  0  0  0  0  0
   37.5190   29.5180   44.2240 H   0  0  0  0  0  0  0  0  0  0  0  0
   37.1400   27.8220   42.8730 C   0  0  0  0  0  0  0  0  0  0  0  0
   36.3370   27.6540   43.6230 H   0  0  0  0  0  0  0  0  0  0  0  0
   36.6300   27.9660   41.9010 H   0  0  0  0  0  0  0  0  0  0  0  0
   38.3850   24.3340   42.1660 C   0  0  0  0  0  0  0  0  0  0  0  0
   37.5790   25.4930   42.1600 C   0  0  0  0  0  0  0  0  0  0  0  0
   37.9960   26.5970   42.8800 C   0  0  0  0  0  0  0  0  0  0  0  0
   39.1550   26.5260   43.5610 N   0  0  0  0  0  0  0  0  0  0  0  0
   39.9130   25.3980   43.5510 C   0  0  0  0  0  0  0  0  0  0  0  0
   39.5320   24.3160   42.8620 N   0  0  0  0  0  0  0  0  0  0  0  0
   37.9740   23.1930   41.4330 N   0  0  0  0  0  0  0  0  0  0  0  0
   36.6470   25.4820   41.5850 H   0  0  0  0  0  0  0  0  0  0  0  0
   40.8520   25.3490   44.1060 H   0  0  0  0  0  0  0  0  0  0  0  0
   36.9800   22.8270   41.4850 H   0  0  0  0  0  0  0  0  0  0  0  0
   38.6770   22.7030   40.8270 H   0  0  0  0  0  0  0  0  0  0  0  0
   39.8550   30.8120   40.3910 O   0  0  0  0  0  0  0  0  0  0  0  0
   38.3550   31.5940   38.7580 C   0  0  1  0  0  0  0  0  0  0  0  0
   39.0390   31.8510   40.0820 C   0  0  2  0  0  0  0  0  0  0  0  0
   39.9780   33.0040   39.6590 C   0  0  0  0  0  0  0  0  0  0  0  0
   40.4260   32.6690   38.4110 O   0  0  0  0  0  0  0  0  0  0  0  0
   39.5020   31.8610   37.8110 C   0  0  0  0  0  0  0  0  0  0  0  0
   37.5900   32.3790   38.5820 H   0  0  0  0  0  0  0  0  0  0  0  0
   38.3560   32.2030   40.8790 H   0  0  0  0  0  0  0  0  0  0  0  0
   40.7960   33.0620   40.4150 H   0  0  0  0  0  0  0  0  0  0  0  0
   39.3360   33.9240   39.6650 H   0  0  0  0  0  0  0  0  0  0  0  0
   39.1110   32.3790   36.9090 H   0  0  0  0  0  0  0  0  0  0  0  0
   39.9800   30.9400   37.4450 H   0  0  0  0  0  0  0  0  0  0  0  0
   37.8350   30.3370   38.6640 O   0  0  0  0  0  0  0  0  0  0  0  0
   36.6030   29.7190   36.1770 F   0  0  0  0  0  0  0  0  0  0  0  0
   35.8860   29.5110   37.3060 C   0  0  0  0  0  0  0  0  0  0  0  0
   36.5910   29.8490   38.4420 C   0  0  0  0  0  0  0  0  0  0  0  0
   35.9210   29.6640   39.6620 C   0  0  0  0  0  0  0  0  0  0  0  0
   36.3090   29.8720   40.6710 H   0  0  0  0  0  0  0  0  0  0  0  0
   34.6150   29.1670   39.7100 C   0  0  0  0  0  0  0  0  0  0  0  0
   34.0710   29.0130   40.6300 H   0  0  0  0  0  0  0  0  0  0  0  0
   33.9630   28.8480   38.5530 C   0  0  0  0  0  3  0  0  0  0  0  0
   34.5990   29.0210   37.3640 C   0  0  0  0  0  3  0  0  0  0  0  0
  2  1  2  1  0  0  0
  2  5  1  0  0  0  0
  2  3  1  0  0  0  0
  3  4  1  0  0  0  0
  5  6  1  0  0  0  0
  6  7  1  0  0  0  0
  6  8  1  0  0  0  0
  9 14  1  0  0  0  0
  9  6  1  0  0  0  0
  9 10  1  0  0  0  0
 11  9  1  0  0  0  0
 12 17  1  0  0  0  0
 13 12  2  0  0  0  0
 13 14  1  0  0  0  0
 14 15  2  0  0  0  0
 16 15  1  0  0  0  0
 16 20  1  0  0  0  0
 17 16  2  0  0  0  0
 18 21  1  0  0  0  0
 18 12  1  0  0  0  0
 19 13  1  0  0  0  0
 22 18  1  0  0  0  0
 23  2  1  0  0  0  0
 24 29  1  6  0  0  0
 24 25  1  0  0  0  0
 25 23  1  0  0  0  0
 25 30  1  1  0  0  0
 26 32  1  0  0  0  0
 26 25  1  0  0  0  0
 26 31  1  0  0  0  0
 27 26  1  0  0  0  0
 28 27  1  0  0  0  0
 28 24  1  0  0  0  0
 33 28  1  0  0  0  0
 34 28  1  0  0  0  0
 35 24  1  0  0  0  0
 36 37  1  0  0  0  0
 37 44  2  0  0  0  0
 37 38  1  0  0  0  0
 38 35  1  0  0  0  0
 38 39  2  0  0  0  0
 39 41  1  0  0  0  0
 39 40  1  0  0  0  0
 41 42  1  0  0  0  0
 43 41  2  0  0  0  0
 44 43  1  0  0  0  0
M  END
>  <minimizedAffinity>
-5.76323891

$$$$

 OpenBabel03242516433D

 44 46  0  0  1  0  0  0  0  0999 V2000
   42.4560   33.3080   37.5600 O   0  0  0  0  0  0  0  0  0  0  0  0
   41.1210   32.7890   38.0610 P   0  0  2  0  0  0  0  0  0  0  0  0
   40.0430   32.4770   36.8240 O   0  0  0  0  0  0  0  0  0  0  0  0
   40.3950   32.7000   35.9240 H   0  0  0  0  0  0  0  0  0  0  0  0
   40.4520   33.9200   39.1120 O   0  0  0  0  0  0  0  0  0  0  0  0
   39.6640   33.3100   40.0750 C   0  0  0  0  0  0  0  0  0  0  0  0
   39.8340   32.2040   40.0380 H   0  0  0  0  0  0  0  0  0  0  0  0
   40.0380   33.6520   41.0800 H   0  0  0  0  0  0  0  0  0  0  0  0
   38.2190   33.6040   39.8410 C   0  0  0  0  0  0  0  0  0  0  0  0
   37.7810   33.9410   40.8060 H   0  0  0  0  0  0  0  0  0  0  0  0
   38.0280   34.4170   39.1150 H   0  0  0  0  0  0  0  0  0  0  0  0
   36.0710   30.5150   40.0750 C   0  0  0  0  0  0  0  0  0  0  0  0
   36.7390   31.7080   40.4240 C   0  0  0  0  0  0  0  0  0  0  0  0
   37.5130   32.3410   39.4680 C   0  0  0  0  0  0  0  0  0  0  0  0
   37.6010   31.7950   38.2410 N   0  0  0  0  0  0  0  0  0  0  0  0
   36.9480   30.6440   37.9310 C   0  0  0  0  0  0  0  0  0  0  0  0
   36.1930   30.0130   38.8370 N   0  0  0  0  0  0  0  0  0  0  0  0
   35.2730   29.8520   41.0410 N   0  0  0  0  0  0  0  0  0  0  0  0
   36.6250   32.0970   41.4420 H   0  0  0  0  0  0  0  0  0  0  0  0
   37.0240   30.2090   36.9330 H   0  0  0  0  0  0  0  0  0  0  0  0
   35.6200   29.6850   42.0290 H   0  0  0  0  0  0  0  0  0  0  0  0
   34.3170   29.5220   40.7640 H   0  0  0  0  0  0  0  0  0  0  0  0
   41.3780   31.3190   38.8930 O   0  0  0  0  0  0  0  0  0  0  0  0
   40.4380   29.1900   39.2300 C   0  0  1  0  0  0  0  0  0  0  0  0
   40.8380   30.2590   38.2390 C   0  0  2  0  0  0  0  0  0  0  0  0
   42.0270   29.5410   37.5620 C   0  0  0  0  0  0  0  0  0  0  0  0
   42.6840   28.8930   38.5710 O   0  0  0  0  0  0  0  0  0  0  0  0
   41.7980   28.6290   39.5770 C   0  0  0  0  0  0  0  0  0  0  0  0
   39.8750   28.3920   38.7030 H   0  0  0  0  0  0  0  0  0  0  0  0
   40.0610   30.4830   37.4830 H   0  0  0  0  0  0  0  0  0  0  0  0
   42.6510   30.3220   37.0670 H   0  0  0  0  0  0  0  0  0  0  0  0
   41.5640   28.8410   36.8170 H   0  0  0  0  0  0  0  0  0  0  0  0
   41.7140   27.5270   39.6950 H   0  0  0  0  0  0  0  0  0  0  0  0
   42.1860   29.0040   40.5360 H   0  0  0  0  0  0  0  0  0  0  0  0
   39.7510   29.6850   40.2980 O   0  0  0  0  0  0  0  0  0  0  0  0
   39.3480   30.6550   42.9400 F   0  0  0  0  0  0  0  0  0  0  0  0
   38.7630   29.4810   42.6020 C   0  0  0  0  0  0  0  0  0  0  0  0
   39.0340   29.1200   41.2990 C   0  0  0  0  0  0  0  0  0  0  0  0
   38.4650   27.9130   40.8630 C   0  0  0  0  0  0  0  0  0  0  0  0
   38.5610   27.4550   39.8660 H   0  0  0  0  0  0  0  0  0  0  0  0
   37.6740   27.1310   41.7090 C   0  0  0  0  0  0  0  0  0  0  0  0
   37.2220   26.1980   41.4070 H   0  0  0  0  0  0  0  0  0  0  0  0
   37.4380   27.5360   42.9930 C   0  0  0  0  0  3  0  0  0  0  0  0
   37.9820   28.7040   43.4290 C   0  0  0  0  0  3  0  0  0  0  0  0
  2  1  2  6  0  0  0
  2 23  1  0  0  0  0
  2  5  1  0  0  0  0
  3  2  1  0  0  0  0
  4  3  1  0  0  0  0
  5  6  1  0  0  0  0
  6  8  1  0  0  0  0
  7  6  1  0  0  0  0
  9  6  1  0  0  0  0
  9 10  1  0  0  0  0
 11  9  1  0  0  0  0
 12 13  1  0  0  0  0
 12 18  1  0  0  0  0
 13 19  1  0  0  0  0
 14  9  1  0  0  0  0
 14 13  2  0  0  0  0
 15 14  1  0  0  0  0
 16 15  2  0  0  0  0
 16 17  1  0  0  0  0
 17 12  2  0  0  0  0
 18 21  1  0  0  0  0
 20 16  1  0  0  0  0
 22 18  1  0  0  0  0
 24 29  1  6  0  0  0
 24 28  1  0  0  0  0
 24 35  1  0  0  0  0
 25 30  1  6  0  0  0
 25 23  1  0  0  0  0
 25 24  1  0  0  0  0
 26 25  1  0  0  0  0
 26 27  1  0  0  0  0
 27 28  1  0  0  0  0
 28 33  1  0  0  0  0
 28 34  1  0  0  0  0
 31 26  1  0  0  0  0
 32 26  1  0  0  0  0
 35 38  1  0  0  0  0
 37 36  1  0  0  0  0
 37 44  1  0  0  0  0
 38 37  2  0  0  0  0
 39 38  1  0  0  0  0
 39 41  2  0  0  0  0
 40 39  1  0  0  0  0
 41 43  1  0  0  0  0
 42 41  1  0  0  0  0
 43 44  2  0  0  0  0
M  END
>  <minimizedAffinity>
-5.57978821

$$$$

 OpenBabel03242516433D

 44 46  0  0  1  0  0  0  0  0999 V2000
   34.6360   28.9410   40.3410 O   0  0  0  0  0  0  0  0  0  0  0  0
   35.8850   29.7950   40.4530 P   0  0  2  0  0  0  0  0  0  0  0  0
   35.6550   31.1570   41.3920 O   0  0  0  0  0  0  0  0  0  0  0  0
   34.7280   31.2560   41.7290 H   0  0  0  0  0  0  0  0  0  0  0  0
   36.3750   30.2550   38.9110 O   0  0  0  0  0  0  0  0  0  0  0  0
   37.7530   30.1760   38.7750 C   0  0  0  0  0  0  0  0  0  0  0  0
   38.2270   30.3210   39.7780 H   0  0  0  0  0  0  0  0  0  0  0  0
   37.9980   29.1250   38.4590 H   0  0  0  0  0  0  0  0  0  0  0  0
   38.2510   31.2180   37.8280 C   0  0  0  0  0  0  0  0  0  0  0  0
   38.9160   30.7170   37.0920 H   0  0  0  0  0  0  0  0  0  0  0  0
   37.4600   31.7190   37.2390 H   0  0  0  0  0  0  0  0  0  0  0  0
   39.3500   33.7790   40.3680 C   0  0  0  0  0  0  0  0  0  0  0  0
   38.5520   32.8530   39.6620 C   0  0  0  0  0  0  0  0  0  0  0  0
   39.0980   32.1970   38.5740 C   0  0  0  0  0  0  0  0  0  0  0  0
   40.3710   32.4670   38.2280 N   0  0  0  0  0  0  0  0  0  0  0  0
   41.1180   33.3630   38.9250 C   0  0  0  0  0  0  0  0  0  0  0  0
   40.6130   34.0100   39.9810 N   0  0  0  0  0  0  0  0  0  0  0  0
   38.8070   34.4600   41.4860 N   0  0  0  0  0  0  0  0  0  0  0  0
   37.5230   32.6820   39.9980 H   0  0  0  0  0  0  0  0  0  0  0  0
   42.1490   33.5750   38.6380 H   0  0  0  0  0  0  0  0  0  0  0  0
   37.8460   34.9060   41.4530 H   0  0  0  0  0  0  0  0  0  0  0  0
   39.3760   34.5190   42.3660 H   0  0  0  0  0  0  0  0  0  0  0  0
   37.1190   28.8720   41.1920 O   0  0  0  0  0  0  0  0  0  0  0  0
   38.5870   29.3550   42.9650 C   0  0  1  0  0  0  0  0  0  0  0  0
   37.1670   29.0620   42.5350 C   0  0  2  0  0  0  0  0  0  0  0  0
   37.0010   27.6570   43.1590 C   0  0  0  0  0  0  0  0  0  0  0  0
   38.1990   27.0280   42.9620 O   0  0  0  0  0  0  0  0  0  0  0  0
   39.1840   27.9700   42.8680 C   0  0  0  0  0  0  0  0  0  0  0  0
   38.5930   29.6440   44.0370 H   0  0  0  0  0  0  0  0  0  0  0  0
   36.4160   29.7500   42.9680 H   0  0  0  0  0  0  0  0  0  0  0  0
   36.1530   27.1570   42.6340 H   0  0  0  0  0  0  0  0  0  0  0  0
   36.7720   27.8410   44.2420 H   0  0  0  0  0  0  0  0  0  0  0  0
   39.8950   27.8240   43.7090 H   0  0  0  0  0  0  0  0  0  0  0  0
   39.7700   27.8180   41.9490 H   0  0  0  0  0  0  0  0  0  0  0  0
   39.2000   30.2830   42.1770 O   0  0  0  0  0  0  0  0  0  0  0  0
   40.4870   29.1810   39.8950 F   0  0  0  0  0  0  0  0  0  0  0  0
   41.2100   30.0020   40.6930 C   0  0  0  0  0  0  0  0  0  0  0  0
   40.4750   30.4690   41.7620 C   0  0  0  0  0  0  0  0  0  0  0  0
   41.1490   31.3300   42.6440 C   0  0  0  0  0  0  0  0  0  0  0  0
   40.7410   31.8050   43.5500 H   0  0  0  0  0  0  0  0  0  0  0  0
   42.4860   31.6850   42.4400 C   0  0  0  0  0  0  0  0  0  0  0  0
   43.0330   32.3430   43.0980 H   0  0  0  0  0  0  0  0  0  0  0  0
   43.1660   31.1920   41.3620 C   0  0  0  0  0  3  0  0  0  0  0  0
   42.5280   30.3580   40.4990 C   0  0  0  0  0  3  0  0  0  0  0  0
  2  1  2  6  0  0  0
  2 23  1  0  0  0  0
  2  3  1  0  0  0  0
  3  4  1  0  0  0  0
  5  2  1  0  0  0  0
  6  5  1  0  0  0  0
  6  7  1  0  0  0  0
  8  6  1  0  0  0  0
  9 14  1  0  0  0  0
  9  6  1  0  0  0  0
 10  9  1  0  0  0  0
 11  9  1  0  0  0  0
 12 18  1  0  0  0  0
 13 19  1  0  0  0  0
 13 12  2  0  0  0  0
 14 13  1  0  0  0  0
 15 14  2  0  0  0  0
 15 16  1  0  0  0  0
 16 17  2  0  0  0  0
 17 12  1  0  0  0  0
 18 22  1  0  0  0  0
 20 16  1  0  0  0  0
 21 18  1  0  0  0  0
 23 25  1  0  0  0  0
 24 29  1  1  0  0  0
 25 24  1  0  0  0  0
 25 30  1  1  0  0  0
 25 26  1  0  0  0  0
 26 32  1  0  0  0  0
 27 26  1  0  0  0  0
 28 27  1  0  0  0  0
 28 24  1  0  0  0  0
 28 33  1  0  0  0  0
 31 26  1  0  0  0  0
 34 28  1  0  0  0  0
 35 24  1  0  0  0  0
 36 37  1  0  0  0  0
 37 38  1  0  0  0  0
 38 35  1  0  0  0  0
 38 39  2  0  0  0  0
 39 40  1  0  0  0  0
 41 39  1  0  0  0  0
 41 42  1  0  0  0  0
 43 41  2  0  0  0  0
 44 37  2  0  0  0  0
 44 43  1  0  0  0  0
M  END
>  <minimizedAffinity>
-5.55514765

$$$$

 OpenBabel03242516433D

 44 46  0  0  1  0  0  0  0  0999 V2000
   38.2510   30.8290   41.3900 O   0  0  0  0  0  0  0  0  0  0  0  0
   36.9520   30.0740   41.1850 P   0  0  2  0  0  0  0  0  0  0  0  0
   35.6030   31.0260   41.4370 O   0  0  0  0  0  0  0  0  0  0  0  0
   35.8180   31.9520   41.7210 H   0  0  0  0  0  0  0  0  0  0  0  0
   36.9100   28.7580   42.2330 O   0  0  0  0  0  0  0  0  0  0  0  0
   37.8940   28.8570   43.2050 C   0  0  0  0  0  0  0  0  0  0  0  0
   38.7580   29.4360   42.7920 H   0  0  0  0  0  0  0  0  0  0  0  0
   37.4740   29.4750   44.0460 H   0  0  0  0  0  0  0  0  0  0  0  0
   38.3540   27.5010   43.6300 C   0  0  0  0  0  0  0  0  0  0  0  0
   38.5270   27.5310   44.7290 H   0  0  0  0  0  0  0  0  0  0  0  0
   37.6220   26.6910   43.4550 H   0  0  0  0  0  0  0  0  0  0  0  0
   41.6870   25.8940   42.9080 C   0  0  0  0  0  0  0  0  0  0  0  0
   40.4380   26.1720   43.5040 C   0  0  0  0  0  0  0  0  0  0  0  0
   39.6760   27.2090   42.9970 C   0  0  0  0  0  0  0  0  0  0  0  0
   40.1540   27.9140   41.9550 N   0  0  0  0  0  0  0  0  0  0  0  0
   41.3600   27.6260   41.4000 C   0  0  0  0  0  0  0  0  0  0  0  0
   42.1170   26.6280   41.8710 N   0  0  0  0  0  0  0  0  0  0  0  0
   42.4820   24.8340   43.4140 N   0  0  0  0  0  0  0  0  0  0  0  0
   40.1100   25.5580   44.3500 H   0  0  0  0  0  0  0  0  0  0  0  0
   41.7400   28.2030   40.5550 H   0  0  0  0  0  0  0  0  0  0  0  0
   42.6480   24.7110   44.4530 H   0  0  0  0  0  0  0  0  0  0  0  0
   42.9130   24.1590   42.7350 H   0  0  0  0  0  0  0  0  0  0  0  0
   36.8860   29.5190   39.5700 O   0  0  0  0  0  0  0  0  0  0  0  0
   36.4260   27.3990   38.6620 C   0  0  1  0  0  0  0  0  0  0  0  0
   35.8890   28.6180   39.3780 C   0  0  2  0  0  0  0  0  0  0  0  0
   35.0110   29.2050   38.2490 C   0  0  0  0  0  0  0  0  0  0  0  0
   35.7270   29.0210   37.0990 O   0  0  0  0  0  0  0  0  0  0  0  0
   36.5620   27.9520   37.2620 C   0  0  0  0  0  0  0  0  0  0  0  0
   35.6400   26.6150   38.6330 H   0  0  0  0  0  0  0  0  0  0  0  0
   35.2560   28.3810   40.2540 H   0  0  0  0  0  0  0  0  0  0  0  0
   34.8370   30.2810   38.4880 H   0  0  0  0  0  0  0  0  0  0  0  0
   34.0600   28.6100   38.2760 H   0  0  0  0  0  0  0  0  0  0  0  0
   36.2740   27.1640   36.5340 H   0  0  0  0  0  0  0  0  0  0  0  0
   37.5950   28.2330   37.0090 H   0  0  0  0  0  0  0  0  0  0  0  0
   37.5930   26.9390   39.1960 O   0  0  0  0  0  0  0  0  0  0  0  0
   39.9740   25.3880   39.1190 F   0  0  0  0  0  0  0  0  0  0  0  0
   39.0240   25.0430   40.0200 C   0  0  0  0  0  0  0  0  0  0  0  0
   37.9210   25.8690   39.9580 C   0  0  0  0  0  0  0  0  0  0  0  0
   36.8850   25.5820   40.8600 C   0  0  0  0  0  0  0  0  0  0  0  0
   35.9290   26.1200   40.9670 H   0  0  0  0  0  0  0  0  0  0  0  0
   36.9750   24.5190   41.7630 C   0  0  0  0  0  0  0  0  0  0  0  0
   36.1970   24.2710   42.4700 H   0  0  0  0  0  0  0  0  0  0  0  0
   38.0920   23.7320   41.7820 C   0  0  0  0  0  3  0  0  0  0  0  0
   39.1040   23.9970   40.9140 C   0  0  0  0  0  3  0  0  0  0  0  0
  2  1  2  1  0  0  0
  2  3  1  0  0  0  0
  2  5  1  0  0  0  0
  3  4  1  0  0  0  0
  5  6  1  0  0  0  0
  6  9  1  0  0  0  0
  6  8  1  0  0  0  0
  7  6  1  0  0  0  0
  9 10  1  0  0  0  0
 11  9  1  0  0  0  0
 12 18  1  0  0  0  0
 12 13  1  0  0  0  0
 13 19  1  0  0  0  0
 14 13  2  0  0  0  0
 14  9  1  0  0  0  0
 15 14  1  0  0  0  0
 16 17  1  0  0  0  0
 16 15  2  0  0  0  0
 17 12  2  0  0  0  0
 18 21  1  0  0  0  0
 20 16  1  0  0  0  0
 22 18  1  0  0  0  0
 23  2  1  0  0  0  0
 24 29  1  1  0  0  0
 24 35  1  0  0  0  0
 24 25  1  0  0  0  0
 25 23  1  0  0  0  0
 25 30  1  1  0  0  0
 26 32  1  0  0  0  0
 26 31  1  0  0  0  0
 26 25  1  0  0  0  0
 27 28  1  0  0  0  0
 27 26  1  0  0  0  0
 28 24  1  0  0  0  0
 33 28  1  0  0  0  0
 34 28  1  0  0  0  0
 35 38  1  0  0  0  0
 36 37  1  0  0  0  0
 37 44  1  0  0  0  0
 38 37  2  0  0  0  0
 38 39  1  0  0  0  0
 39 40  1  0  0  0  0
 39 41  2  0  0  0  0
 41 43  1  0  0  0  0
 41 42  1  0  0  0  0
 44 43  2  0  0  0  0
M  END
>  <minimizedAffinity>
-5.47398615

$$$$

 OpenBabel03242516433D

 44 46  0  0  1  0  0  0  0  0999 V2000
   40.4650   29.9720   37.4810 O   0  0  0  0  0  0  0  0  0  0  0  0
   39.8030   31.2350   38.0010 P   0  0  2  0  0  0  0  0  0  0  0  0
   39.1700   32.1830   36.7800 O   0  0  0  0  0  0  0  0  0  0  0  0
   39.3340   31.8230   35.8710 H   0  0  0  0  0  0  0  0  0  0  0  0
   40.9320   32.1270   38.8720 O   0  0  0  0  0  0  0  0  0  0  0  0
   40.7610   33.4890   38.6750 C   0  0  0  0  0  0  0  0  0  0  0  0
   39.8840   33.6510   37.9990 H   0  0  0  0  0  0  0  0  0  0  0  0
   40.4810   33.9380   39.6670 H   0  0  0  0  0  0  0  0  0  0  0  0
   41.9830   34.0920   38.0670 C   0  0  0  0  0  0  0  0  0  0  0  0
   42.3330   33.4100   37.2600 H   0  0  0  0  0  0  0  0  0  0  0  0
   41.8210   35.0770   37.5890 H   0  0  0  0  0  0  0  0  0  0  0  0
   43.7520   34.3580   41.3860 C   0  0  0  0  0  0  0  0  0  0  0  0
   42.7260   34.3130   40.4170 C   0  0  0  0  0  0  0  0  0  0  0  0
   43.0720   34.1390   39.0900 C   0  0  0  0  0  0  0  0  0  0  0  0
   44.3740   34.0190   38.7700 N   0  0  0  0  0  0  0  0  0  0  0  0
   45.3420   34.0660   39.7220 C   0  0  0  0  0  0  0  0  0  0  0  0
   45.0350   34.2340   41.0130 N   0  0  0  0  0  0  0  0  0  0  0  0
   43.4170   34.5360   42.7510 N   0  0  0  0  0  0  0  0  0  0  0  0
   41.6870   34.4180   40.7470 H   0  0  0  0  0  0  0  0  0  0  0  0
   46.3960   33.9680   39.4540 H   0  0  0  0  0  0  0  0  0  0  0  0
   42.7230   35.2750   43.0620 H   0  0  0  0  0  0  0  0  0  0  0  0
   43.8700   33.9170   43.4670 H   0  0  0  0  0  0  0  0  0  0  0  0
   38.5080   30.7960   39.0260 O   0  0  0  0  0  0  0  0  0  0  0  0
   38.2460   30.2090   41.2880 C   0  0  1  0  0  0  0  0  0  0  0  0
   38.6750   31.2600   40.2900 C   0  0  2  0  0  0  0  0  0  0  0  0
   37.5410   32.2880   40.5070 C   0  0  0  0  0  0  0  0  0  0  0  0
   36.4040   31.5470   40.6710 O   0  0  0  0  0  0  0  0  0  0  0  0
   36.7440   30.3170   41.1570 C   0  0  0  0  0  0  0  0  0  0  0  0
   38.5150   30.5430   42.3120 H   0  0  0  0  0  0  0  0  0  0  0  0
   39.6500   31.7300   40.5240 H   0  0  0  0  0  0  0  0  0  0  0  0
   37.5080   32.9440   39.6050 H   0  0  0  0  0  0  0  0  0  0  0  0
   37.8330   32.8590   41.4290 H   0  0  0  0  0  0  0  0  0  0  0  0
   36.2860   30.1940   42.1620 H   0  0  0  0  0  0  0  0  0  0  0  0
   36.3090   29.5240   40.5300 H   0  0  0  0  0  0  0  0  0  0  0  0
   38.7430   28.9710   41.0030 O   0  0  0  0  0  0  0  0  0  0  0  0
   37.5510   26.4210   40.6080 F   0  0  0  0  0  0  0  0  0  0  0  0
   38.4150   26.5620   41.6410 C   0  0  0  0  0  0  0  0  0  0  0  0
   38.9230   27.8410   41.7260 C   0  0  0  0  0  0  0  0  0  0  0  0
   39.8290   28.0750   42.7730 C   0  0  0  0  0  0  0  0  0  0  0  0
   40.3410   29.0220   43.0080 H   0  0  0  0  0  0  0  0  0  0  0  0
   40.1870   27.0650   43.6690 C   0  0  0  0  0  0  0  0  0  0  0  0
   40.8800   27.2120   44.4850 H   0  0  0  0  0  0  0  0  0  0  0  0
   39.6530   25.8150   43.5390 C   0  0  0  0  0  3  0  0  0  0  0  0
   38.7740   25.5710   42.5300 C   0  0  0  0  0  3  0  0  0  0  0  0
  2  1  2  6  0  0  0
  2  5  1  0  0  0  0
  2 23  1  0  0  0  0
  3  2  1  0  0  0  0
  4  3  1  0  0  0  0
  6  5  1  0  0  0  0
  6  8  1  0  0  0  0
  7  6  1  0  0  0  0
  9  6  1  0  0  0  0
  9 14  1  0  0  0  0
 10  9  1  0  0  0  0
 11  9  1  0  0  0  0
 12 18  1  0  0  0  0
 13 19  1  0  0  0  0
 13 12  2  0  0  0  0
 14 13  1  0  0  0  0
 15 14  2  0  0  0  0
 15 16  1  0  0  0  0
 16 17  2  0  0  0  0
 17 12  1  0  0  0  0
 18 21  1  0  0  0  0
 18 22  1  0  0  0  0
 20 16  1  0  0  0  0
 23 25  1  0  0  0  0
 24 29  1  1  0  0  0
 25 26  1  0  0  0  0
 25 30  1  1  0  0  0
 25 24  1  0  0  0  0
 26 27  1  0  0  0  0
 26 32  1  0  0  0  0
 27 28  1  0  0  0  0
 28 24  1  0  0  0  0
 28 33  1  0  0  0  0
 31 26  1  0  0  0  0
 34 28  1  0  0  0  0
 35 24  1  0  0  0  0
 35 38  1  0  0  0  0
 36 37  1  0  0  0  0
 37 38  2  0  0  0  0
 37 44  1  0  0  0  0
 38 39  1  0  0  0  0
 39 40  1  0  0  0  0
 39 41  2  0  0  0  0
 41 42  1  0  0  0  0
 43 41  1  0  0  0  0
 44 43  2  0  0  0  0
M  END
>  <minimizedAffinity>
-5.45034456

$$$$

 OpenBabel03242516433D

 44 46  0  0  1  0  0  0  0  0999 V2000
   34.8570   29.2010   39.6530 O   0  0  0  0  0  0  0  0  0  0  0  0
   36.0100   29.7860   40.4470 P   0  0  2  0  0  0  0  0  0  0  0  0
   35.5620   31.1150   41.3540 O   0  0  0  0  0  0  0  0  0  0  0  0
   34.6130   31.3750   41.2360 H   0  0  0  0  0  0  0  0  0  0  0  0
   37.2410   30.2230   39.3870 O   0  0  0  0  0  0  0  0  0  0  0  0
   36.8140   31.1920   38.4900 C   0  0  0  0  0  0  0  0  0  0  0  0
   37.1000   30.8790   37.4540 H   0  0  0  0  0  0  0  0  0  0  0  0
   35.6900   31.2010   38.5180 H   0  0  0  0  0  0  0  0  0  0  0  0
   37.4340   32.5130   38.8050 C   0  0  0  0  0  0  0  0  0  0  0  0
   37.1370   33.2260   38.0050 H   0  0  0  0  0  0  0  0  0  0  0  0
   37.0970   32.9620   39.7590 H   0  0  0  0  0  0  0  0  0  0  0  0
   41.0730   32.6380   39.7830 C   0  0  0  0  0  0  0  0  0  0  0  0
   39.6670   32.7540   39.8440 C   0  0  0  0  0  0  0  0  0  0  0  0
   38.9220   32.3890   38.7380 C   0  0  0  0  0  0  0  0  0  0  0  0
   39.5630   31.9390   37.6440 N   0  0  0  0  0  0  0  0  0  0  0  0
   40.9180   31.8370   37.6110 C   0  0  0  0  0  0  0  0  0  0  0  0
   41.6630   32.1830   38.6670 N   0  0  0  0  0  0  0  0  0  0  0  0
   41.8540   33.0070   40.9070 N   0  0  0  0  0  0  0  0  0  0  0  0
   39.2100   33.1290   40.7660 H   0  0  0  0  0  0  0  0  0  0  0  0
   41.4310   31.4700   36.7200 H   0  0  0  0  0  0  0  0  0  0  0  0
   41.6820   33.9130   41.4300 H   0  0  0  0  0  0  0  0  0  0  0  0
   42.6180   32.3620   41.2230 H   0  0  0  0  0  0  0  0  0  0  0  0
   36.5880   28.6000   41.5350 O   0  0  0  0  0  0  0  0  0  0  0  0
   38.4490   27.1730   41.6910 C   0  0  1  0  0  0  0  0  0  0  0  0
   37.9420   28.5950   41.6140 C   0  0  2  0  0  0  0  0  0  0  0  0
   38.2750   29.0570   43.0520 C   0  0  0  0  0  0  0  0  0  0  0  0
   37.9820   27.9890   43.8540 O   0  0  0  0  0  0  0  0  0  0  0  0
   38.0940   26.8410   43.1220 C   0  0  0  0  0  0  0  0  0  0  0  0
   39.5570   27.1730   41.6160 H   0  0  0  0  0  0  0  0  0  0  0  0
   38.4870   29.2270   40.8870 H   0  0  0  0  0  0  0  0  0  0  0  0
   37.6450   29.9520   43.2690 H   0  0  0  0  0  0  0  0  0  0  0  0
   39.3680   29.3090   43.0350 H   0  0  0  0  0  0  0  0  0  0  0  0
   38.9040   26.2200   43.5590 H   0  0  0  0  0  0  0  0  0  0  0  0
   37.1750   26.2420   43.2080 H   0  0  0  0  0  0  0  0  0  0  0  0
   37.8710   26.3520   40.7680 O   0  0  0  0  0  0  0  0  0  0  0  0
   36.6480   24.1270   42.0450 F   0  0  0  0  0  0  0  0  0  0  0  0
   37.4700   23.8800   40.9980 C   0  0  0  0  0  0  0  0  0  0  0  0
   38.0000   25.0380   40.4670 C   0  0  0  0  0  0  0  0  0  0  0  0
   38.8660   24.8750   39.3740 C   0  0  0  0  0  0  0  0  0  0  0  0
   39.3860   25.6680   38.8150 H   0  0  0  0  0  0  0  0  0  0  0  0
   39.1670   23.6090   38.8630 C   0  0  0  0  0  0  0  0  0  0  0  0
   39.8290   23.4490   38.0250 H   0  0  0  0  0  0  0  0  0  0  0  0
   38.6140   22.4950   39.4280 C   0  0  0  0  0  3  0  0  0  0  0  0
   37.7730   22.6370   40.4870 C   0  0  0  0  0  3  0  0  0  0  0  0
  2  1  2  6  0  0  0
  2  3  1  0  0  0  0
  2 23  1  0  0  0  0
  4  3  1  0  0  0  0
  5  2  1  0  0  0  0
  6  8  1  0  0  0  0
  6  9  1  0  0  0  0
  6  5  1  0  0  0  0
  7  6  1  0  0  0  0
  9 11  1  0  0  0  0
 10  9  1  0  0  0  0
 12 13  1  0  0  0  0
 12 18  1  0  0  0  0
 13 19  1  0  0  0  0
 14  9  1  0  0  0  0
 14 13  2  0  0  0  0
 15 14  1  0  0  0  0
 16 15  2  0  0  0  0
 16 17  1  0  0  0  0
 17 12  2  0  0  0  0
 18 22  1  0  0  0  0
 18 21  1  0  0  0  0
 20 16  1  0  0  0  0
 23 25  1  0  0  0  0
 24 29  1  6  0  0  0
 24 28  1  0  0  0  0
 25 30  1  6  0  0  0
 25 24  1  0  0  0  0
 25 26  1  0  0  0  0
 26 31  1  0  0  0  0
 26 27  1  0  0  0  0
 28 34  1  0  0  0  0
 28 33  1  0  0  0  0
 28 27  1  0  0  0  0
 32 26  1  0  0  0  0
 35 24  1  0  0  0  0
 37 36  1  0  0  0  0
 38 35  1  0  0  0  0
 38 37  2  0  0  0  0
 39 38  1  0  0  0  0
 40 39  1  0  0  0  0
 41 39  2  0  0  0  0
 41 43  1  0  0  0  0
 42 41  1  0  0  0  0
 43 44  2  0  0  0  0
 44 37  1  0  0  0  0
M  END
>  <minimizedAffinity>
-5.44690752

$$$$
