
 OpenBabel03252506163D

 39 41  0  0  0  0  0  0  0  0999 V2000
   40.5890   30.3130   39.4490 F   0  0  0  0  0  0  0  0  0  0  0  0
   39.4020   30.9020   39.4720 C   0  0  0  0  0  0  0  0  0  0  0  0
   39.3500   32.2830   39.4110 C   0  0  0  0  0  0  0  0  0  0  0  0
   38.1480   33.0060   39.4260 C   0  0  0  0  0  0  0  0  0  0  0  0
   36.9390   32.2970   39.5050 C   0  0  0  0  0  0  0  0  0  0  0  0
   37.0440   30.9290   39.5620 C   0  0  0  0  0  0  0  0  0  0  0  0
   38.1930   30.2210   39.5490 C   0  0  0  0  0  0  0  0  0  0  0  0
   38.1850   34.0910   39.3760 H   0  0  0  0  0  0  0  0  0  0  0  0
   36.0560   32.9040   39.5120 H   0  0  0  0  0  0  0  0  0  0  0  0
   36.0310   30.5150   39.6110 H   0  0  0  0  0  0  0  0  0  0  0  0
   42.2220   34.0510   37.9660 C   0  0  0  0  0  0  0  0  0  0  0  0
   42.8810   34.5350   39.1230 C   0  0  0  0  0  0  0  0  0  0  0  0
   42.3200   34.2440   40.4090 C   0  0  0  0  0  0  0  0  0  0  0  0
   41.1700   33.5060   40.4300 N   0  0  0  0  0  0  0  0  0  0  0  0
   40.5860   33.0730   39.3250 C   0  0  0  0  0  0  0  0  0  0  0  0
   41.1060   33.3420   38.1030 N   0  0  0  0  0  0  0  0  0  0  0  0
   43.7860   35.1120   39.0260 H   0  0  0  0  0  0  0  0  0  0  0  0
   42.8000   34.5990   41.2880 H   0  0  0  0  0  0  0  0  0  0  0  0
   42.7980   34.3570   36.7290 N   0  0  0  0  0  0  0  0  0  0  0  0
   42.3050   34.6790   35.8470 H   0  0  0  0  0  0  0  0  0  0  0  0
   43.8460   34.2830   36.5620 H   0  0  0  0  0  0  0  0  0  0  0  0
   38.1710   28.8580   39.6130 O   0  0  0  0  0  0  0  0  0  0  0  0
   39.3860   28.3200   41.8970 O   0  0  0  0  0  0  0  0  0  0  0  0
   38.2480   27.9070   40.9880 P   0  0  2  0  0  0  0  0  0  0  0  0
   38.4180   26.2790   40.5690 O   0  0  0  0  0  0  0  0  0  0  0  0
   37.3560   24.3000   42.2570 F   0  0  0  0  0  0  0  0  0  0  0  0
   36.8910   24.4050   40.9880 C   0  0  0  0  0  0  0  0  0  0  0  0
   37.4460   25.3940   40.1990 C   0  0  0  0  0  0  0  0  0  0  0  0
   37.0080   25.5470   38.8910 C   0  0  0  0  0  0  0  0  0  0  0  0
   37.3970   26.3080   38.1960 H   0  0  0  0  0  0  0  0  0  0  0  0
   36.0230   24.7150   38.3840 C   0  0  0  0  0  0  0  0  0  0  0  0
   35.6690   24.8270   37.3510 H   0  0  0  0  0  0  0  0  0  0  0  0
   35.4560   23.7240   39.1520 C   0  0  0  0  0  3  0  0  0  0  0  0
   35.9120   23.5940   40.4500 C   0  0  0  0  0  3  0  0  0  0  0  0
   36.8160   27.9720   41.9040 O   0  0  0  0  0  0  0  0  0  0  0  0
   37.0820   27.6560   43.2530 C   0  0  0  0  0  0  0  0  0  0  0  0
   37.2900   28.9050   43.8650 F   0  0  0  0  0  0  0  0  0  0  0  0
   35.9820   27.0840   43.8510 F   0  0  0  0  0  0  0  0  0  0  0  0
   38.1440   26.8110   43.4200 F   0  0  0  0  0  0  0  0  0  0  0  0
  1  2  1  0  0  0  0
  2  7  1  0  0  0  0
  3  4  1  0  0  0  0
  3  2  2  0  0  0  0
  4  5  2  0  0  0  0
  5  9  1  0  0  0  0
  5  6  1  0  0  0  0
  6 10  1  0  0  0  0
  7  6  2  0  0  0  0
  7 22  1  0  0  0  0
  8  4  1  0  0  0  0
 11 16  2  0  0  0  0
 11 12  1  0  0  0  0
 12 13  2  0  0  0  0
 13 14  1  0  0  0  0
 13 18  1  0  0  0  0
 15  3  1  0  0  0  0
 15 14  2  0  0  0  0
 16 15  1  0  0  0  0
 17 12  1  0  0  0  0
 19 11  1  0  0  0  0
 20 19  1  0  0  0  0
 21 19  1  0  0  0  0
 22 24  1  0  0  0  0
 24 23  2  1  0  0  0
 24 35  1  0  0  0  0
 25 24  1  0  0  0  0
 27 26  1  0  0  0  0
 28 25  1  0  0  0  0
 28 27  2  0  0  0  0
 29 28  1  0  0  0  0
 30 29  1  0  0  0  0
 31 29  2  0  0  0  0
 31 33  1  0  0  0  0
 32 31  1  0  0  0  0
 33 34  2  0  0  0  0
 34 27  1  0  0  0  0
 35 36  1  0  0  0  0
 36 39  1  0  0  0  0
 36 38  1  0  0  0  0
 36 37  1  0  0  0  0
M  END
>  <minimizedAffinity>
-6.68219995

$$$$

 OpenBabel03252506163D

 39 41  0  0  0  0  0  0  0  0999 V2000
   40.4730   30.1740   39.6090 F   0  0  0  0  0  0  0  0  0  0  0  0
   39.3200   30.8260   39.5420 C   0  0  0  0  0  0  0  0  0  0  0  0
   39.3490   32.1980   39.3660 C   0  0  0  0  0  0  0  0  0  0  0  0
   38.1900   32.9840   39.2780 C   0  0  0  0  0  0  0  0  0  0  0  0
   36.9410   32.3500   39.3720 C   0  0  0  0  0  0  0  0  0  0  0  0
   36.9660   30.9880   39.5460 C   0  0  0  0  0  0  0  0  0  0  0  0
   38.0730   30.2210   39.6320 C   0  0  0  0  0  0  0  0  0  0  0  0
   38.2910   34.0560   39.1400 H   0  0  0  0  0  0  0  0  0  0  0  0
   36.0940   33.0020   39.2980 H   0  0  0  0  0  0  0  0  0  0  0  0
   35.9300   30.6360   39.5940 H   0  0  0  0  0  0  0  0  0  0  0  0
   42.2230   33.9250   37.8760 C   0  0  0  0  0  0  0  0  0  0  0  0
   43.0050   34.2320   39.0170 C   0  0  0  0  0  0  0  0  0  0  0  0
   42.5270   33.8340   40.3080 C   0  0  0  0  0  0  0  0  0  0  0  0
   41.3300   33.1760   40.3490 N   0  0  0  0  0  0  0  0  0  0  0  0
   40.6300   32.9090   39.2580 C   0  0  0  0  0  0  0  0  0  0  0  0
   41.0720   33.2790   38.0320 N   0  0  0  0  0  0  0  0  0  0  0  0
   43.9400   34.7540   38.9050 H   0  0  0  0  0  0  0  0  0  0  0  0
   43.0990   34.0550   41.1760 H   0  0  0  0  0  0  0  0  0  0  0  0
   42.7220   34.3300   36.6340 N   0  0  0  0  0  0  0  0  0  0  0  0
   42.1870   34.7810   35.8370 H   0  0  0  0  0  0  0  0  0  0  0  0
   43.7450   34.2060   36.3700 H   0  0  0  0  0  0  0  0  0  0  0  0
   37.9710   28.8710   39.8070 O   0  0  0  0  0  0  0  0  0  0  0  0
   35.8930   28.5060   41.4000 O   0  0  0  0  0  0  0  0  0  0  0  0
   37.3150   28.0670   41.1210 P   0  0  2  0  0  0  0  0  0  0  0  0
   38.2660   28.3130   42.4960 O   0  0  0  0  0  0  0  0  0  0  0  0
   40.7390   27.0410   42.0970 F   0  0  0  0  0  0  0  0  0  0  0  0
   40.7170   28.3630   42.4020 C   0  0  0  0  0  0  0  0  0  0  0  0
   39.4760   28.9400   42.5880 C   0  0  0  0  0  0  0  0  0  0  0  0
   39.3940   30.2900   42.9010 C   0  0  0  0  0  0  0  0  0  0  0  0
   38.4460   30.8270   43.0660 H   0  0  0  0  0  0  0  0  0  0  0  0
   40.5460   31.0490   43.0250 C   0  0  0  0  0  0  0  0  0  0  0  0
   40.4930   32.1160   43.2730 H   0  0  0  0  0  0  0  0  0  0  0  0
   41.7920   30.4940   42.8440 C   0  0  0  0  0  3  0  0  0  0  0  0
   41.8440   29.1480   42.5330 C   0  0  0  0  0  3  0  0  0  0  0  0
   37.2940   26.3800   40.9040 O   0  0  0  0  0  0  0  0  0  0  0  0
   37.1560   25.7270   42.1480 C   0  0  0  0  0  0  0  0  0  0  0  0
   36.5370   24.5050   41.8280 F   0  0  0  0  0  0  0  0  0  0  0  0
   38.3870   25.4350   42.6890 F   0  0  0  0  0  0  0  0  0  0  0  0
   36.4460   26.4450   43.0690 F   0  0  0  0  0  0  0  0  0  0  0  0
  2  1  1  0  0  0  0
  2  7  1  0  0  0  0
  3  2  2  0  0  0  0
  4  3  1  0  0  0  0
  4  5  2  0  0  0  0
  5  6  1  0  0  0  0
  6 10  1  0  0  0  0
  6  7  2  0  0  0  0
  7 22  1  0  0  0  0
  8  4  1  0  0  0  0
  9  5  1  0  0  0  0
 11 16  2  0  0  0  0
 11 12  1  0  0  0  0
 12 13  2  0  0  0  0
 13 14  1  0  0  0  0
 13 18  1  0  0  0  0
 15  3  1  0  0  0  0
 15 14  2  0  0  0  0
 16 15  1  0  0  0  0
 17 12  1  0  0  0  0
 19 11  1  0  0  0  0
 20 19  1  0  0  0  0
 21 19  1  0  0  0  0
 22 24  1  0  0  0  0
 24 23  2  1  0  0  0
 24 25  1  0  0  0  0
 25 28  1  0  0  0  0
 26 27  1  0  0  0  0
 27 34  2  0  0  0  0
 27 28  1  0  0  0  0
 28 29  2  0  0  0  0
 29 31  1  0  0  0  0
 29 30  1  0  0  0  0
 31 32  1  0  0  0  0
 33 31  2  0  0  0  0
 34 33  1  0  0  0  0
 35 24  1  0  0  0  0
 35 36  1  0  0  0  0
 36 38  1  0  0  0  0
 36 39  1  0  0  0  0
 37 36  1  0  0  0  0
M  END
>  <minimizedAffinity>
-6.40928125

$$$$

 OpenBabel03252506163D

 39 41  0  0  0  0  0  0  0  0999 V2000
   39.6020   30.0670   38.4700 F   0  0  0  0  0  0  0  0  0  0  0  0
   38.8770   31.0440   38.9960 C   0  0  0  0  0  0  0  0  0  0  0  0
   39.4910   32.2590   39.2440 C   0  0  0  0  0  0  0  0  0  0  0  0
   38.8170   33.3590   39.7950 C   0  0  0  0  0  0  0  0  0  0  0  0
   37.4560   33.2240   40.1090 C   0  0  0  0  0  0  0  0  0  0  0  0
   36.8930   32.0000   39.8420 C   0  0  0  0  0  0  0  0  0  0  0  0
   37.5290   30.9340   39.3140 C   0  0  0  0  0  0  0  0  0  0  0  0
   39.3650   34.2820   39.9630 H   0  0  0  0  0  0  0  0  0  0  0  0
   36.9960   34.0980   40.5260 H   0  0  0  0  0  0  0  0  0  0  0  0
   35.8360   32.0460   40.1280 H   0  0  0  0  0  0  0  0  0  0  0  0
   42.5270   33.5620   37.6480 C   0  0  0  0  0  0  0  0  0  0  0  0
   43.5440   32.8440   38.3220 C   0  0  0  0  0  0  0  0  0  0  0  0
   43.1690   31.9030   39.3370 C   0  0  0  0  0  0  0  0  0  0  0  0
   41.8330   31.7630   39.5850 N   0  0  0  0  0  0  0  0  0  0  0  0
   40.9140   32.4540   38.9320 C   0  0  0  0  0  0  0  0  0  0  0  0
   41.2550   33.3460   37.9710 N   0  0  0  0  0  0  0  0  0  0  0  0
   44.5780   33.0100   38.0700 H   0  0  0  0  0  0  0  0  0  0  0  0
   43.9180   31.3550   39.8530 H   0  0  0  0  0  0  0  0  0  0  0  0
   42.9310   34.4710   36.6660 N   0  0  0  0  0  0  0  0  0  0  0  0
   42.5650   35.4530   36.5010 H   0  0  0  0  0  0  0  0  0  0  0  0
   43.6880   34.2340   35.9560 H   0  0  0  0  0  0  0  0  0  0  0  0
   36.8620   29.7640   39.0960 O   0  0  0  0  0  0  0  0  0  0  0  0
   34.5650   29.1080   40.2260 O   0  0  0  0  0  0  0  0  0  0  0  0
   36.0540   28.8330   40.2280 P   0  0  2  0  0  0  0  0  0  0  0  0
   36.6800   29.1090   41.7730 O   0  0  0  0  0  0  0  0  0  0  0  0
   36.5490   26.7220   43.2490 F   0  0  0  0  0  0  0  0  0  0  0  0
   37.7450   27.3440   43.1040 C   0  0  0  0  0  0  0  0  0  0  0  0
   37.7550   28.5140   42.3700 C   0  0  0  0  0  0  0  0  0  0  0  0
   38.9520   29.1940   42.1890 C   0  0  0  0  0  0  0  0  0  0  0  0
   39.0470   30.1310   41.6180 H   0  0  0  0  0  0  0  0  0  0  0  0
   40.1240   28.7010   42.7400 C   0  0  0  0  0  0  0  0  0  0  0  0
   41.0750   29.2300   42.6040 H   0  0  0  0  0  0  0  0  0  0  0  0
   40.1370   27.5380   43.4750 C   0  0  0  0  0  3  0  0  0  0  0  0
   38.9310   26.8820   43.6390 C   0  0  0  0  0  3  0  0  0  0  0  0
   36.2630   27.1650   39.9660 O   0  0  0  0  0  0  0  0  0  0  0  0
   37.2970   26.9410   39.0330 C   0  0  0  0  0  0  0  0  0  0  0  0
   37.3820   25.5400   38.9430 F   0  0  0  0  0  0  0  0  0  0  0  0
   36.9470   27.4110   37.7880 F   0  0  0  0  0  0  0  0  0  0  0  0
   38.4880   27.5140   39.3840 F   0  0  0  0  0  0  0  0  0  0  0  0
  1  2  1  0  0  0  0
  2  3  2  0  0  0  0
  2  7  1  0  0  0  0
  3  4  1  0  0  0  0
  4  8  1  0  0  0  0
  4  5  2  0  0  0  0
  5  9  1  0  0  0  0
  6  5  1  0  0  0  0
  6 10  1  0  0  0  0
  7  6  2  0  0  0  0
 11 16  2  0  0  0  0
 11 12  1  0  0  0  0
 12 13  2  0  0  0  0
 13 14  1  0  0  0  0
 13 18  1  0  0  0  0
 15  3  1  0  0  0  0
 15 14  2  0  0  0  0
 16 15  1  0  0  0  0
 17 12  1  0  0  0  0
 19 11  1  0  0  0  0
 20 19  1  0  0  0  0
 21 19  1  0  0  0  0
 22  7  1  0  0  0  0
 22 24  1  0  0  0  0
 24 23  2  6  0  0  0
 24 25  1  0  0  0  0
 25 28  1  0  0  0  0
 27 26  1  0  0  0  0
 27 34  1  0  0  0  0
 28 27  2  0  0  0  0
 29 28  1  0  0  0  0
 29 31  2  0  0  0  0
 30 29  1  0  0  0  0
 31 33  1  0  0  0  0
 32 31  1  0  0  0  0
 33 34  2  0  0  0  0
 35 24  1  0  0  0  0
 36 39  1  0  0  0  0
 36 35  1  0  0  0  0
 37 36  1  0  0  0  0
 38 36  1  0  0  0  0
M  END
>  <minimizedAffinity>
-6.32918262

$$$$

 OpenBabel03252506163D

 39 41  0  0  0  0  0  0  0  0999 V2000
   40.6360   30.7620   41.0480 F   0  0  0  0  0  0  0  0  0  0  0  0
   39.4420   31.2520   40.7440 C   0  0  0  0  0  0  0  0  0  0  0  0
   39.3780   32.4660   40.0840 C   0  0  0  0  0  0  0  0  0  0  0  0
   38.1690   33.0740   39.7130 C   0  0  0  0  0  0  0  0  0  0  0  0
   36.9660   32.4200   40.0240 C   0  0  0  0  0  0  0  0  0  0  0  0
   37.0840   31.2180   40.6780 C   0  0  0  0  0  0  0  0  0  0  0  0
   38.2400   30.6240   41.0410 C   0  0  0  0  0  0  0  0  0  0  0  0
   38.1970   34.0290   39.1970 H   0  0  0  0  0  0  0  0  0  0  0  0
   36.0780   32.9320   39.7150 H   0  0  0  0  0  0  0  0  0  0  0  0
   36.0750   30.8260   40.8450 H   0  0  0  0  0  0  0  0  0  0  0  0
   42.0620   33.9280   38.0530 C   0  0  0  0  0  0  0  0  0  0  0  0
   42.8840   34.5260   39.0400 C   0  0  0  0  0  0  0  0  0  0  0  0
   42.4990   34.4190   40.4160 C   0  0  0  0  0  0  0  0  0  0  0  0
   41.3470   33.7350   40.6850 N   0  0  0  0  0  0  0  0  0  0  0  0
   40.6070   33.1910   39.7330 C   0  0  0  0  0  0  0  0  0  0  0  0
   40.9600   33.2850   38.4280 N   0  0  0  0  0  0  0  0  0  0  0  0
   43.7780   35.0500   38.7490 H   0  0  0  0  0  0  0  0  0  0  0  0
   43.1020   34.8620   41.1700 H   0  0  0  0  0  0  0  0  0  0  0  0
   42.4690   34.0540   36.7210 N   0  0  0  0  0  0  0  0  0  0  0  0
   41.8660   34.2830   35.8790 H   0  0  0  0  0  0  0  0  0  0  0  0
   43.4820   33.9190   36.4270 H   0  0  0  0  0  0  0  0  0  0  0  0
   38.2290   29.4240   41.6920 O   0  0  0  0  0  0  0  0  0  0  0  0
   40.1490   27.6100   41.5980 O   0  0  0  0  0  0  0  0  0  0  0  0
   38.7580   27.9480   41.1050 P   0  0  2  0  0  0  0  0  0  0  0  0
   38.7400   27.9460   39.4150 O   0  0  0  0  0  0  0  0  0  0  0  0
   39.2590   29.9650   37.5320 F   0  0  0  0  0  0  0  0  0  0  0  0
   38.0020   29.4680   37.6370 C   0  0  0  0  0  0  0  0  0  0  0  0
   37.8000   28.4770   38.5780 C   0  0  0  0  0  0  0  0  0  0  0  0
   36.5320   27.9310   38.7290 C   0  0  0  0  0  0  0  0  0  0  0  0
   36.2860   27.1390   39.4550 H   0  0  0  0  0  0  0  0  0  0  0  0
   35.4830   28.3770   37.9430 C   0  0  0  0  0  0  0  0  0  0  0  0
   34.4770   27.9520   38.0540 H   0  0  0  0  0  0  0  0  0  0  0  0
   35.6620   29.3620   36.9990 C   0  0  0  0  0  3  0  0  0  0  0  0
   36.9340   29.8880   36.8710 C   0  0  0  0  0  3  0  0  0  0  0  0
   37.7340   26.6660   41.5520 O   0  0  0  0  0  0  0  0  0  0  0  0
   37.0230   26.9940   42.7260 C   0  0  0  0  0  0  0  0  0  0  0  0
   36.0810   27.9490   42.3030 F   0  0  0  0  0  0  0  0  0  0  0  0
   36.3220   25.9070   43.1960 F   0  0  0  0  0  0  0  0  0  0  0  0
   37.8160   27.4580   43.7380 F   0  0  0  0  0  0  0  0  0  0  0  0
  2  7  1  0  0  0  0
  2  1  1  0  0  0  0
  3  2  2  0  0  0  0
  4  5  2  0  0  0  0
  4  3  1  0  0  0  0
  5  6  1  0  0  0  0
  6 10  1  0  0  0  0
  6  7  2  0  0  0  0
  7 22  1  0  0  0  0
  8  4  1  0  0  0  0
  9  5  1  0  0  0  0
 11 16  2  0  0  0  0
 11 12  1  0  0  0  0
 12 13  2  0  0  0  0
 13 14  1  0  0  0  0
 13 18  1  0  0  0  0
 15  3  1  0  0  0  0
 15 14  2  0  0  0  0
 16 15  1  0  0  0  0
 17 12  1  0  0  0  0
 19 11  1  0  0  0  0
 20 19  1  0  0  0  0
 21 19  1  0  0  0  0
 24 35  1  0  0  0  0
 24 23  2  1  0  0  0
 24 22  1  0  0  0  0
 25 24  1  0  0  0  0
 26 27  1  0  0  0  0
 27 28  1  0  0  0  0
 28 29  2  0  0  0  0
 28 25  1  0  0  0  0
 29 30  1  0  0  0  0
 31 32  1  0  0  0  0
 31 29  1  0  0  0  0
 33 31  2  0  0  0  0
 34 33  1  0  0  0  0
 34 27  2  0  0  0  0
 35 36  1  0  0  0  0
 36 38  1  0  0  0  0
 36 39  1  0  0  0  0
 37 36  1  0  0  0  0
M  END
>  <minimizedAffinity>
-6.20224571

$$$$

 OpenBabel03252506163D

 39 41  0  0  0  0  0  0  0  0999 V2000
   39.0170   31.7160   39.3750 F   0  0  0  0  0  0  0  0  0  0  0  0
   39.7150   31.5170   40.4840 C   0  0  0  0  0  0  0  0  0  0  0  0
   41.0350   31.9310   40.5140 C   0  0  0  0  0  0  0  0  0  0  0  0
   41.8620   31.7710   41.6360 C   0  0  0  0  0  0  0  0  0  0  0  0
   41.3270   31.1650   42.7830 C   0  0  0  0  0  0  0  0  0  0  0  0
   40.0130   30.7730   42.7030 C   0  0  0  0  0  0  0  0  0  0  0  0
   39.2070   30.9200   41.6300 C   0  0  0  0  0  0  0  0  0  0  0  0
   42.8890   32.1200   41.5860 H   0  0  0  0  0  0  0  0  0  0  0  0
   42.0060   31.0710   43.6070 H   0  0  0  0  0  0  0  0  0  0  0  0
   39.7350   30.3280   43.6640 H   0  0  0  0  0  0  0  0  0  0  0  0
   42.8450   32.3280   37.3470 C   0  0  0  0  0  0  0  0  0  0  0  0
   42.7850   33.7290   37.1490 C   0  0  0  0  0  0  0  0  0  0  0  0
   42.1110   34.5360   38.1230 C   0  0  0  0  0  0  0  0  0  0  0  0
   41.5650   33.8860   39.1930 N   0  0  0  0  0  0  0  0  0  0  0  0
   41.6420   32.5740   39.3410 C   0  0  0  0  0  0  0  0  0  0  0  0
   42.2770   31.7990   38.4270 N   0  0  0  0  0  0  0  0  0  0  0  0
   43.2410   34.1700   36.2780 H   0  0  0  0  0  0  0  0  0  0  0  0
   42.0570   35.5890   37.9920 H   0  0  0  0  0  0  0  0  0  0  0  0
   43.5090   31.5730   36.3750 N   0  0  0  0  0  0  0  0  0  0  0  0
   43.2030   30.6520   35.9490 H   0  0  0  0  0  0  0  0  0  0  0  0
   44.4380   31.8830   35.9600 H   0  0  0  0  0  0  0  0  0  0  0  0
   37.9130   30.4870   41.6690 O   0  0  0  0  0  0  0  0  0  0  0  0
   37.3090   28.8070   43.6180 O   0  0  0  0  0  0  0  0  0  0  0  0
   37.3660   28.9690   42.1130 P   0  0  2  0  0  0  0  0  0  0  0  0
   38.3540   27.7690   41.4500 O   0  0  0  0  0  0  0  0  0  0  0  0
   40.3830   27.7200   43.3930 F   0  0  0  0  0  0  0  0  0  0  0  0
   39.8140   26.5530   43.0030 C   0  0  0  0  0  0  0  0  0  0  0  0
   38.8210   26.6320   42.0460 C   0  0  0  0  0  0  0  0  0  0  0  0
   38.2030   25.4680   41.6090 C   0  0  0  0  0  0  0  0  0  0  0  0
   37.4050   25.4430   40.8500 H   0  0  0  0  0  0  0  0  0  0  0  0
   38.5790   24.2410   42.1300 C   0  0  0  0  0  0  0  0  0  0  0  0
   38.0970   23.3150   41.7930 H   0  0  0  0  0  0  0  0  0  0  0  0
   39.5650   24.1390   43.0850 C   0  0  0  0  0  3  0  0  0  0  0  0
   40.1640   25.3140   43.5010 C   0  0  0  0  0  3  0  0  0  0  0  0
   35.8120   28.6360   41.5060 O   0  0  0  0  0  0  0  0  0  0  0  0
   35.5500   29.4260   40.3670 C   0  0  0  0  0  0  0  0  0  0  0  0
   36.5570   29.0600   39.4560 F   0  0  0  0  0  0  0  0  0  0  0  0
   34.3420   29.0890   39.8010 F   0  0  0  0  0  0  0  0  0  0  0  0
   35.5410   30.7690   40.6210 F   0  0  0  0  0  0  0  0  0  0  0  0
  1  2  1  0  0  0  0
  2  3  2  0  0  0  0
  2  7  1  0  0  0  0
  3  4  1  0  0  0  0
  4  5  2  0  0  0  0
  5  9  1  0  0  0  0
  6  5  1  0  0  0  0
  6 10  1  0  0  0  0
  7 22  1  0  0  0  0
  7  6  2  0  0  0  0
  8  4  1  0  0  0  0
 11 16  1  0  0  0  0
 12 11  2  0  0  0  0
 12 13  1  0  0  0  0
 13 14  2  0  0  0  0
 14 15  1  0  0  0  0
 15  3  1  0  0  0  0
 16 15  2  0  0  0  0
 17 12  1  0  0  0  0
 18 13  1  0  0  0  0
 19 11  1  0  0  0  0
 20 19  1  0  0  0  0
 21 19  1  0  0  0  0
 22 24  1  0  0  0  0
 24 23  2  1  0  0  0
 25 28  1  0  0  0  0
 25 24  1  0  0  0  0
 27 26  1  0  0  0  0
 27 34  1  0  0  0  0
 28 27  2  0  0  0  0
 29 28  1  0  0  0  0
 29 31  2  0  0  0  0
 30 29  1  0  0  0  0
 31 33  1  0  0  0  0
 32 31  1  0  0  0  0
 33 34  2  0  0  0  0
 35 24  1  0  0  0  0
 36 39  1  0  0  0  0
 36 35  1  0  0  0  0
 37 36  1  0  0  0  0
 38 36  1  0  0  0  0
M  END
>  <minimizedAffinity>
-6.16934633

$$$$

 OpenBabel03252506163D

 39 41  0  0  0  0  0  0  0  0999 V2000
   39.6260   28.9260   39.4080 F   0  0  0  0  0  0  0  0  0  0  0  0
   38.4750   29.0780   38.7680 C   0  0  0  0  0  0  0  0  0  0  0  0
   38.0570   30.3600   38.4600 C   0  0  0  0  0  0  0  0  0  0  0  0
   36.8580   30.6330   37.7840 C   0  0  0  0  0  0  0  0  0  0  0  0
   36.0440   29.5560   37.3980 C   0  0  0  0  0  0  0  0  0  0  0  0
   36.5050   28.3040   37.7250 C   0  0  0  0  0  0  0  0  0  0  0  0
   37.6540   28.0280   38.3760 C   0  0  0  0  0  0  0  0  0  0  0  0
   36.5940   31.6660   37.5780 H   0  0  0  0  0  0  0  0  0  0  0  0
   35.1440   29.8280   36.8860 H   0  0  0  0  0  0  0  0  0  0  0  0
   35.7770   27.5720   37.3580 H   0  0  0  0  0  0  0  0  0  0  0  0
   39.1740   33.3480   40.2720 C   0  0  0  0  0  0  0  0  0  0  0  0
   40.3580   33.6890   39.5730 C   0  0  0  0  0  0  0  0  0  0  0  0
   40.7670   32.8730   38.4680 C   0  0  0  0  0  0  0  0  0  0  0  0
   39.9710   31.8060   38.1600 N   0  0  0  0  0  0  0  0  0  0  0  0
   38.8720   31.5220   38.8390 C   0  0  0  0  0  0  0  0  0  0  0  0
   38.4750   32.2850   39.8860 N   0  0  0  0  0  0  0  0  0  0  0  0
   40.9340   34.5480   39.8750 H   0  0  0  0  0  0  0  0  0  0  0  0
   41.6520   33.1130   37.9310 H   0  0  0  0  0  0  0  0  0  0  0  0
   38.8090   34.1670   41.3450 N   0  0  0  0  0  0  0  0  0  0  0  0
   38.4540   33.8660   42.2980 H   0  0  0  0  0  0  0  0  0  0  0  0
   38.8580   35.2280   41.2860 H   0  0  0  0  0  0  0  0  0  0  0  0
   38.0060   26.7370   38.6480 O   0  0  0  0  0  0  0  0  0  0  0  0
   35.9120   25.1420   38.8930 O   0  0  0  0  0  0  0  0  0  0  0  0
   37.1650   25.6340   39.5860 P   0  0  2  0  0  0  0  0  0  0  0  0
   36.7580   26.3190   41.0760 O   0  0  0  0  0  0  0  0  0  0  0  0
   35.5080   28.8350   41.1030 F   0  0  0  0  0  0  0  0  0  0  0  0
   36.7120   28.6890   41.7100 C   0  0  0  0  0  0  0  0  0  0  0  0
   37.2830   27.4320   41.6690 C   0  0  0  0  0  0  0  0  0  0  0  0
   38.5150   27.2240   42.2750 C   0  0  0  0  0  0  0  0  0  0  0  0
   39.0390   26.2550   42.2870 H   0  0  0  0  0  0  0  0  0  0  0  0
   39.1620   28.2690   42.9150 C   0  0  0  0  0  0  0  0  0  0  0  0
   40.1360   28.1160   43.3970 H   0  0  0  0  0  0  0  0  0  0  0  0
   38.6110   29.5280   42.9680 C   0  0  0  0  0  3  0  0  0  0  0  0
   37.3840   29.7060   42.3560 C   0  0  0  0  0  3  0  0  0  0  0  0
   38.1000   24.2680   39.9760 O   0  0  0  0  0  0  0  0  0  0  0  0
   37.5150   23.5620   41.0490 C   0  0  0  0  0  0  0  0  0  0  0  0
   37.8380   22.2180   40.7930 F   0  0  0  0  0  0  0  0  0  0  0  0
   38.1030   23.9060   42.2440 F   0  0  0  0  0  0  0  0  0  0  0  0
   36.1670   23.7610   41.1650 F   0  0  0  0  0  0  0  0  0  0  0  0
  2  1  1  0  0  0  0
  3  2  1  0  0  0  0
  3 15  1  0  0  0  0
  4  3  2  0  0  0  0
  5  6  2  0  0  0  0
  5  4  1  0  0  0  0
  6  7  1  0  0  0  0
  7 22  1  0  0  0  0
  7  2  2  0  0  0  0
  8  4  1  0  0  0  0
  9  5  1  0  0  0  0
 10  6  1  0  0  0  0
 11 19  1  0  0  0  0
 12 17  1  0  0  0  0
 12 11  2  0  0  0  0
 13 12  1  0  0  0  0
 14 13  2  0  0  0  0
 14 15  1  0  0  0  0
 15 16  2  0  0  0  0
 16 11  1  0  0  0  0
 18 13  1  0  0  0  0
 19 20  1  0  0  0  0
 21 19  1  0  0  0  0
 22 24  1  0  0  0  0
 24 23  2  6  0  0  0
 24 35  1  0  0  0  0
 24 25  1  0  0  0  0
 25 28  1  0  0  0  0
 26 27  1  0  0  0  0
 27 34  1  0  0  0  0
 28 27  2  0  0  0  0
 28 29  1  0  0  0  0
 29 30  1  0  0  0  0
 29 31  2  0  0  0  0
 31 33  1  0  0  0  0
 31 32  1  0  0  0  0
 34 33  2  0  0  0  0
 35 36  1  0  0  0  0
 36 39  1  0  0  0  0
 36 38  1  0  0  0  0
 37 36  1  0  0  0  0
M  END
>  <minimizedAffinity>
-6.15753222

$$$$

 OpenBabel03252506163D

 39 41  0  0  0  0  0  0  0  0999 V2000
   38.9390   27.4900   40.0050 F   0  0  0  0  0  0  0  0  0  0  0  0
   37.8520   28.1880   39.7070 C   0  0  0  0  0  0  0  0  0  0  0  0
   36.6600   27.5080   39.5350 C   0  0  0  0  0  0  0  0  0  0  0  0
   35.4510   28.1490   39.2210 C   0  0  0  0  0  0  0  0  0  0  0  0
   35.4490   29.5450   39.0770 C   0  0  0  0  0  0  0  0  0  0  0  0
   36.6570   30.1730   39.2590 C   0  0  0  0  0  0  0  0  0  0  0  0
   37.8260   29.5690   39.5600 C   0  0  0  0  0  0  0  0  0  0  0  0
   34.5540   27.5490   39.1000 H   0  0  0  0  0  0  0  0  0  0  0  0
   34.4980   29.9760   38.8380 H   0  0  0  0  0  0  0  0  0  0  0  0
   36.5010   31.2490   39.1240 H   0  0  0  0  0  0  0  0  0  0  0  0
   37.1960   24.1550   40.9230 C   0  0  0  0  0  0  0  0  0  0  0  0
   36.5310   23.3360   39.9780 C   0  0  0  0  0  0  0  0  0  0  0  0
   35.8940   23.9570   38.8550 C   0  0  0  0  0  0  0  0  0  0  0  0
   35.9750   25.3190   38.7720 N   0  0  0  0  0  0  0  0  0  0  0  0
   36.6060   26.0470   39.6780 C   0  0  0  0  0  0  0  0  0  0  0  0
   37.2130   25.4720   40.7450 N   0  0  0  0  0  0  0  0  0  0  0  0
   36.5100   22.2680   40.1120 H   0  0  0  0  0  0  0  0  0  0  0  0
   35.3900   23.3590   38.1350 H   0  0  0  0  0  0  0  0  0  0  0  0
   37.8050   23.5140   42.0070 N   0  0  0  0  0  0  0  0  0  0  0  0
   37.7850   23.8040   43.0270 H   0  0  0  0  0  0  0  0  0  0  0  0
   38.3770   22.6250   41.8860 H   0  0  0  0  0  0  0  0  0  0  0  0
   38.9670   30.3020   39.7150 O   0  0  0  0  0  0  0  0  0  0  0  0
   40.5990   32.1630   40.6410 O   0  0  0  0  0  0  0  0  0  0  0  0
   39.2590   31.4930   40.8560 P   0  0  2  0  0  0  0  0  0  0  0  0
   39.1920   30.8430   42.4140 O   0  0  0  0  0  0  0  0  0  0  0  0
   41.5010   29.2440   42.3480 F   0  0  0  0  0  0  0  0  0  0  0  0
   40.3340   28.7010   42.7740 C   0  0  0  0  0  0  0  0  0  0  0  0
   39.2280   29.5300   42.7870 C   0  0  0  0  0  0  0  0  0  0  0  0
   38.0060   29.0270   43.2140 C   0  0  0  0  0  0  0  0  0  0  0  0
   37.0780   29.6190   43.2550 H   0  0  0  0  0  0  0  0  0  0  0  0
   37.9000   27.7070   43.6220 C   0  0  0  0  0  0  0  0  0  0  0  0
   36.9390   27.3000   43.9600 H   0  0  0  0  0  0  0  0  0  0  0  0
   38.9880   26.8650   43.6160 C   0  0  0  0  0  3  0  0  0  0  0  0
   40.1910   27.3920   43.1860 C   0  0  0  0  0  3  0  0  0  0  0  0
   38.0720   32.7110   40.8410 O   0  0  0  0  0  0  0  0  0  0  0  0
   38.1750   33.4830   39.6640 C   0  0  0  0  0  0  0  0  0  0  0  0
   36.8880   34.0230   39.4930 F   0  0  0  0  0  0  0  0  0  0  0  0
   39.0430   34.5350   39.8410 F   0  0  0  0  0  0  0  0  0  0  0  0
   38.5890   32.7690   38.5740 F   0  0  0  0  0  0  0  0  0  0  0  0
  2  1  1  0  0  0  0
  3 15  1  0  0  0  0
  3  2  2  0  0  0  0
  4  3  1  0  0  0  0
  5  4  2  0  0  0  0
  5  6  1  0  0  0  0
  6  7  2  0  0  0  0
  7  2  1  0  0  0  0
  7 22  1  0  0  0  0
  8  4  1  0  0  0  0
  9  5  1  0  0  0  0
 10  6  1  0  0  0  0
 11 19  1  0  0  0  0
 12 17  1  0  0  0  0
 12 11  2  0  0  0  0
 13 12  1  0  0  0  0
 14 13  2  0  0  0  0
 14 15  1  0  0  0  0
 15 16  2  0  0  0  0
 16 11  1  0  0  0  0
 18 13  1  0  0  0  0
 19 20  1  0  0  0  0
 21 19  1  0  0  0  0
 22 24  1  0  0  0  0
 24 23  2  6  0  0  0
 24 25  1  0  0  0  0
 25 28  1  0  0  0  0
 26 27  1  0  0  0  0
 27 28  2  0  0  0  0
 27 34  1  0  0  0  0
 28 29  1  0  0  0  0
 29 30  1  0  0  0  0
 29 31  2  0  0  0  0
 31 32  1  0  0  0  0
 33 31  1  0  0  0  0
 34 33  2  0  0  0  0
 35 24  1  0  0  0  0
 36 38  1  0  0  0  0
 36 35  1  0  0  0  0
 37 36  1  0  0  0  0
 39 36  1  0  0  0  0
M  END
>  <minimizedAffinity>
-6.1266861

$$$$

 OpenBabel03252506163D

 39 41  0  0  0  0  0  0  0  0999 V2000
   39.8320   29.6550   37.4570 F   0  0  0  0  0  0  0  0  0  0  0  0
   38.9740   30.4500   38.0800 C   0  0  0  0  0  0  0  0  0  0  0  0
   39.4430   31.6390   38.6080 C   0  0  0  0  0  0  0  0  0  0  0  0
   38.6220   32.5550   39.2840 C   0  0  0  0  0  0  0  0  0  0  0  0
   37.2590   32.2520   39.4320 C   0  0  0  0  0  0  0  0  0  0  0  0
   36.8430   31.0600   38.8890 C   0  0  0  0  0  0  0  0  0  0  0  0
   37.6220   30.1720   38.2380 C   0  0  0  0  0  0  0  0  0  0  0  0
   39.0610   33.4690   39.6730 H   0  0  0  0  0  0  0  0  0  0  0  0
   36.6840   32.9880   39.9560 H   0  0  0  0  0  0  0  0  0  0  0  0
   35.7670   30.9640   39.0730 H   0  0  0  0  0  0  0  0  0  0  0  0
   42.4650   33.3990   37.4980 C   0  0  0  0  0  0  0  0  0  0  0  0
   43.4810   32.7160   38.2100 C   0  0  0  0  0  0  0  0  0  0  0  0
   43.1090   31.6390   39.0800 C   0  0  0  0  0  0  0  0  0  0  0  0
   41.7780   31.3420   39.1620 N   0  0  0  0  0  0  0  0  0  0  0  0
   40.8600   32.0060   38.4790 C   0  0  0  0  0  0  0  0  0  0  0  0
   41.1990   33.0260   37.6530 N   0  0  0  0  0  0  0  0  0  0  0  0
   44.5110   33.0090   38.0940 H   0  0  0  0  0  0  0  0  0  0  0  0
   43.8570   31.1140   39.6220 H   0  0  0  0  0  0  0  0  0  0  0  0
   42.8660   34.4450   36.6610 N   0  0  0  0  0  0  0  0  0  0  0  0
   42.4140   35.3980   36.5520 H   0  0  0  0  0  0  0  0  0  0  0  0
   43.7130   34.3620   36.0220 H   0  0  0  0  0  0  0  0  0  0  0  0
   37.0930   29.0150   37.7430 O   0  0  0  0  0  0  0  0  0  0  0  0
   35.2990   27.7050   39.1750 O   0  0  0  0  0  0  0  0  0  0  0  0
   36.6980   27.6330   38.6000 P   0  0  2  0  0  0  0  0  0  0  0  0
   37.8100   27.3750   39.8460 O   0  0  0  0  0  0  0  0  0  0  0  0
   39.3200   29.4560   40.9800 F   0  0  0  0  0  0  0  0  0  0  0  0
   38.4400   28.7780   41.7580 C   0  0  0  0  0  0  0  0  0  0  0  0
   37.7230   27.7650   41.1530 C   0  0  0  0  0  0  0  0  0  0  0  0
   36.8080   27.0370   41.9020 C   0  0  0  0  0  0  0  0  0  0  0  0
   36.1970   26.2150   41.4970 H   0  0  0  0  0  0  0  0  0  0  0  0
   36.6180   27.3270   43.2430 C   0  0  0  0  0  0  0  0  0  0  0  0
   35.8980   26.7590   43.8440 H   0  0  0  0  0  0  0  0  0  0  0  0
   37.3220   28.3320   43.8660 C   0  0  0  0  0  3  0  0  0  0  0  0
   38.2260   29.0390   43.0960 C   0  0  0  0  0  3  0  0  0  0  0  0
   36.7830   26.2290   37.6440 O   0  0  0  0  0  0  0  0  0  0  0  0
   35.8700   25.2600   38.1110 C   0  0  0  0  0  0  0  0  0  0  0  0
   34.6230   25.7090   37.6400 F   0  0  0  0  0  0  0  0  0  0  0  0
   36.1110   24.0360   37.5320 F   0  0  0  0  0  0  0  0  0  0  0  0
   35.8860   25.0990   39.4690 F   0  0  0  0  0  0  0  0  0  0  0  0
  1  2  1  0  0  0  0
  2  7  2  0  0  0  0
  2  3  1  0  0  0  0
  3  4  2  0  0  0  0
  4  5  1  0  0  0  0
  4  8  1  0  0  0  0
  5  9  1  0  0  0  0
  6 10  1  0  0  0  0
  6  5  2  0  0  0  0
  7  6  1  0  0  0  0
 11 16  2  0  0  0  0
 11 12  1  0  0  0  0
 12 13  2  0  0  0  0
 13 14  1  0  0  0  0
 13 18  1  0  0  0  0
 15  3  1  0  0  0  0
 15 14  2  0  0  0  0
 16 15  1  0  0  0  0
 17 12  1  0  0  0  0
 19 11  1  0  0  0  0
 20 19  1  0  0  0  0
 21 19  1  0  0  0  0
 22  7  1  0  0  0  0
 22 24  1  0  0  0  0
 24 23  2  1  0  0  0
 24 25  1  0  0  0  0
 25 28  1  0  0  0  0
 26 27  1  0  0  0  0
 27 34  1  0  0  0  0
 28 27  2  0  0  0  0
 28 29  1  0  0  0  0
 29 31  2  0  0  0  0
 30 29  1  0  0  0  0
 31 32  1  0  0  0  0
 31 33  1  0  0  0  0
 34 33  2  0  0  0  0
 35 36  1  0  0  0  0
 35 24  1  0  0  0  0
 36 39  1  0  0  0  0
 37 36  1  0  0  0  0
 38 36  1  0  0  0  0
M  END
>  <minimizedAffinity>
-6.09307957

$$$$

 OpenBabel03252506163D

 39 41  0  0  0  0  0  0  0  0999 V2000
   37.9060   28.4370   39.6730 F   0  0  0  0  0  0  0  0  0  0  0  0
   37.6460   28.1810   40.9480 C   0  0  0  0  0  0  0  0  0  0  0  0
   37.8330   29.1920   41.8730 C   0  0  0  0  0  0  0  0  0  0  0  0
   37.5860   29.0300   43.2450 C   0  0  0  0  0  0  0  0  0  0  0  0
   37.1250   27.7850   43.7010 C   0  0  0  0  0  0  0  0  0  0  0  0
   36.9540   26.8160   42.7440 C   0  0  0  0  0  0  0  0  0  0  0  0
   37.1890   26.9580   41.4220 C   0  0  0  0  0  0  0  0  0  0  0  0
   37.7560   29.8690   43.9130 H   0  0  0  0  0  0  0  0  0  0  0  0
   36.9540   27.7230   44.7570 H   0  0  0  0  0  0  0  0  0  0  0  0
   36.5880   25.9120   43.2410 H   0  0  0  0  0  0  0  0  0  0  0  0
   37.8130   32.5780   40.4600 C   0  0  0  0  0  0  0  0  0  0  0  0
   39.1590   32.9800   40.6420 C   0  0  0  0  0  0  0  0  0  0  0  0
   40.0740   32.0660   41.2600 C   0  0  0  0  0  0  0  0  0  0  0  0
   39.5760   30.8510   41.6360 N   0  0  0  0  0  0  0  0  0  0  0  0
   38.3110   30.5150   41.4470 C   0  0  0  0  0  0  0  0  0  0  0  0
   37.4350   31.3690   40.8640 N   0  0  0  0  0  0  0  0  0  0  0  0
   39.4780   33.9560   40.3190 H   0  0  0  0  0  0  0  0  0  0  0  0
   41.0880   32.3500   41.4050 H   0  0  0  0  0  0  0  0  0  0  0  0
   36.9490   33.4960   39.8550 N   0  0  0  0  0  0  0  0  0  0  0  0
   35.9560   33.7360   40.1390 H   0  0  0  0  0  0  0  0  0  0  0  0
   37.2380   34.0640   39.0020 H   0  0  0  0  0  0  0  0  0  0  0  0
   36.9840   25.9170   40.5640 O   0  0  0  0  0  0  0  0  0  0  0  0
   37.2870   23.4890   41.5650 O   0  0  0  0  0  0  0  0  0  0  0  0
   37.8070   24.4590   40.5240 P   0  0  2  0  0  0  0  0  0  0  0  0
   39.4610   24.7110   40.7580 O   0  0  0  0  0  0  0  0  0  0  0  0
   39.5790   24.0800   43.4940 F   0  0  0  0  0  0  0  0  0  0  0  0
   40.1610   25.2230   43.0540 C   0  0  0  0  0  0  0  0  0  0  0  0
   40.0750   25.4860   41.7010 C   0  0  0  0  0  0  0  0  0  0  0  0
   40.6530   26.6430   41.1940 C   0  0  0  0  0  0  0  0  0  0  0  0
   40.6300   26.9270   40.1300 H   0  0  0  0  0  0  0  0  0  0  0  0
   41.3100   27.5220   42.0400 C   0  0  0  0  0  0  0  0  0  0  0  0
   41.7710   28.4380   41.6510 H   0  0  0  0  0  0  0  0  0  0  0  0
   41.4090   27.2780   43.3910 C   0  0  0  0  0  3  0  0  0  0  0  0
   40.8230   26.1200   43.8670 C   0  0  0  0  0  3  0  0  0  0  0  0
   37.6940   23.6910   39.0110 O   0  0  0  0  0  0  0  0  0  0  0  0
   36.3870   23.8170   38.4930 C   0  0  0  0  0  0  0  0  0  0  0  0
   36.4020   25.0510   37.8190 F   0  0  0  0  0  0  0  0  0  0  0  0
   36.1320   22.8410   37.5580 F   0  0  0  0  0  0  0  0  0  0  0  0
   35.4100   23.7570   39.4470 F   0  0  0  0  0  0  0  0  0  0  0  0
  1  2  1  0  0  0  0
  2  7  2  0  0  0  0
  2  3  1  0  0  0  0
  3  4  2  0  0  0  0
  4  5  1  0  0  0  0
  4  8  1  0  0  0  0
  5  9  1  0  0  0  0
  6 10  1  0  0  0  0
  6  5  2  0  0  0  0
  7  6  1  0  0  0  0
 11 12  2  0  0  0  0
 11 16  1  0  0  0  0
 12 13  1  0  0  0  0
 13 18  1  0  0  0  0
 13 14  2  0  0  0  0
 15 14  1  0  0  0  0
 15  3  1  0  0  0  0
 16 15  2  0  0  0  0
 17 12  1  0  0  0  0
 19 20  1  0  0  0  0
 19 11  1  0  0  0  0
 21 19  1  0  0  0  0
 22  7  1  0  0  0  0
 24 22  1  0  0  0  0
 24 25  1  0  0  0  0
 24 23  2  1  0  0  0
 25 28  1  0  0  0  0
 27 26  1  0  0  0  0
 27 34  1  0  0  0  0
 28 27  2  0  0  0  0
 29 28  1  0  0  0  0
 29 31  2  0  0  0  0
 30 29  1  0  0  0  0
 31 33  1  0  0  0  0
 32 31  1  0  0  0  0
 33 34  2  0  0  0  0
 35 24  1  0  0  0  0
 36 35  1  0  0  0  0
 36 39  1  0  0  0  0
 37 36  1  0  0  0  0
 38 36  1  0  0  0  0
M  END
>  <minimizedAffinity>
-6.09266424

$$$$
