
 OpenBabel03252509073D

 41 44  0  0  0  0  0  0  0  0999 V2000
   47.7550   31.8670   38.9520 C   0  0  0  0  0  0  0  0  0  0  0  0
   47.2310   33.1260   38.8650 C   0  0  0  0  0  0  0  0  0  0  0  0
   47.8020   34.0530   38.0070 C   0  0  0  0  0  0  0  0  0  0  0  0
   48.8910   33.7090   37.2440 C   0  0  0  0  0  0  0  0  0  0  0  0
   49.4560   32.4380   37.3010 C   0  0  0  0  0  0  0  0  0  0  0  0
   48.8630   31.5210   38.1740 C   0  0  0  0  0  0  0  0  0  0  0  0
   47.4060   35.0590   37.9210 H   0  0  0  0  0  0  0  0  0  0  0  0
   49.3300   34.4200   36.5860 H   0  0  0  0  0  0  0  0  0  0  0  0
   50.2980   32.0960   36.7420 H   0  0  0  0  0  0  0  0  0  0  0  0
   49.2850   30.5120   38.2410 H   0  0  0  0  0  0  0  0  0  0  0  0
   45.2780   35.3020   43.1170 Cl  0  0  0  0  0  0  0  0  0  0  0  0
   45.1580   34.5540   41.5460 C   0  0  0  0  0  0  0  0  0  0  0  0
   46.2620   34.1610   40.8680 C   0  0  0  0  0  0  0  0  0  0  0  0
   46.0700   33.5830   39.6190 C   0  0  0  0  0  0  0  0  0  0  0  0
   44.8190   33.4110   39.0800 C   0  0  0  0  0  0  0  0  0  0  0  0
   43.7200   33.8080   39.7690 C   0  0  0  0  0  0  0  0  0  0  0  0
   43.8960   34.3880   41.0210 C   0  0  0  0  0  0  0  0  0  0  0  0
   44.7370   32.9570   38.1050 H   0  0  0  0  0  0  0  0  0  0  0  0
   42.7490   33.6620   39.3270 H   0  0  0  0  0  0  0  0  0  0  0  0
   42.9910   34.6890   41.5370 H   0  0  0  0  0  0  0  0  0  0  0  0
   49.5500   35.7230   41.8850 C   0  0  0  0  0  0  0  0  0  0  0  0
   48.2940   35.5380   41.3000 C   0  0  0  0  0  0  0  0  0  0  0  0
   47.5740   34.3750   41.4540 C   0  0  0  0  0  0  0  0  0  0  0  0
   48.1970   33.4680   42.2050 N   0  0  0  0  0  0  0  0  0  0  0  0
   49.3910   33.6060   42.7790 C   0  0  0  0  0  0  0  0  0  0  0  0
   50.0570   34.7400   42.6100 N   0  0  0  0  0  0  0  0  0  0  0  0
   50.0950   36.6390   41.7520 H   0  0  0  0  0  0  0  0  0  0  0  0
   47.8830   36.3550   40.7020 H   0  0  0  0  0  0  0  0  0  0  0  0
   49.6740   32.7200   43.3410 H   0  0  0  0  0  0  0  0  0  0  0  0
   47.0760   30.6950   39.9490 S   0  0  0  0  0  0  0  0  0  0  0  0
   47.1580   29.3120   39.3260 O   0  0  0  0  0  0  0  0  0  0  0  0
   48.0900   30.5970   41.1420 O   0  0  0  0  0  0  0  0  0  0  0  0
   44.0390   30.2160   39.1230 F   0  0  0  0  0  0  0  0  0  0  0  0
   44.2450   30.4030   40.4470 C   0  0  0  0  0  0  0  0  0  0  0  0
   45.5640   30.6960   40.6990 C   0  0  0  0  0  0  0  0  0  0  0  0
   45.5960   31.0380   42.0950 C   0  0  0  0  0  0  0  0  0  0  0  0
   46.5660   31.3270   42.5660 H   0  0  0  0  0  0  0  0  0  0  0  0
   44.5650   31.0820   43.0480 C   0  0  0  0  0  0  0  0  0  0  0  0
   44.7470   31.3580   44.0640 H   0  0  0  0  0  0  0  0  0  0  0  0
   43.3360   30.7380   42.5420 C   0  0  0  0  0  3  0  0  0  0  0  0
   43.1310   30.3890   41.2300 C   0  0  0  0  0  3  0  0  0  0  0  0
  1 30  1  0  0  0  0
  2  1  1  0  0  0  0
  2 14  1  0  0  0  0
  3  2  2  0  0  0  0
  4  5  2  0  0  0  0
  4  3  1  0  0  0  0
  5  6  1  0  0  0  0
  6 10  1  0  0  0  0
  6  1  2  0  0  0  0
  7  3  1  0  0  0  0
  8  4  1  0  0  0  0
  9  5  1  0  0  0  0
 12 11  1  0  0  0  0
 13 23  1  0  0  0  0
 13 12  2  0  0  0  0
 14 13  1  0  0  0  0
 15 14  2  0  0  0  0
 15 16  1  0  0  0  0
 16 17  2  0  0  0  0
 17 20  1  0  0  0  0
 17 12  1  0  0  0  0
 18 15  1  0  0  0  0
 19 16  1  0  0  0  0
 21 26  1  0  0  0  0
 22 23  1  0  0  0  0
 22 21  2  0  0  0  0
 23 24  2  0  0  0  0
 24 25  1  0  0  0  0
 25 29  1  0  0  0  0
 26 25  2  0  0  0  0
 27 21  1  0  0  0  0
 28 22  1  0  0  0  0
 30 35  1  0  0  0  0
 30 32  2  0  0  0  0
 31 30  2  0  0  0  0
 33 34  1  0  0  0  0
 34 35  2  0  0  0  0
 34 41  1  0  0  0  0
 35 36  1  0  0  0  0
 36 37  1  0  0  0  0
 36 38  2  0  0  0  0
 38 39  1  0  0  0  0
 40 38  1  0  0  0  0
 41 40  2  0  0  0  0
M  END
>  <minimizedAffinity>
-4.80531502

>  <minimizedRMSD>
0.587175786

$$$$
