
 OpenBabel03252509083D

 41 44  0  0  0  0  0  0  0  0999 V2000
   46.9000   32.6660   38.8950 C   0  0  0  0  0  0  0  0  0  0  0  0
   47.1340   33.7350   39.7130 C   0  0  0  0  0  0  0  0  0  0  0  0
   48.0400   34.7130   39.3290 C   0  0  0  0  0  0  0  0  0  0  0  0
   48.7000   34.6080   38.1290 C   0  0  0  0  0  0  0  0  0  0  0  0
   48.4910   33.5370   37.2660 C   0  0  0  0  0  0  0  0  0  0  0  0
   47.5740   32.5650   37.6750 C   0  0  0  0  0  0  0  0  0  0  0  0
   48.2440   35.5700   39.9610 H   0  0  0  0  0  0  0  0  0  0  0  0
   49.3950   35.3570   37.8340 H   0  0  0  0  0  0  0  0  0  0  0  0
   48.9630   33.3870   36.3210 H   0  0  0  0  0  0  0  0  0  0  0  0
   47.3870   31.7090   37.0170 H   0  0  0  0  0  0  0  0  0  0  0  0
   47.1470   33.2130   44.8480 Cl  0  0  0  0  0  0  0  0  0  0  0  0
   46.4490   33.7050   43.3270 C   0  0  0  0  0  0  0  0  0  0  0  0
   47.1040   33.5120   42.1570 C   0  0  0  0  0  0  0  0  0  0  0  0
   46.4740   33.9450   40.9960 C   0  0  0  0  0  0  0  0  0  0  0  0
   45.2400   34.5470   41.0180 C   0  0  0  0  0  0  0  0  0  0  0  0
   44.5940   34.7350   42.1950 C   0  0  0  0  0  0  0  0  0  0  0  0
   45.2110   34.3060   43.3650 C   0  0  0  0  0  0  0  0  0  0  0  0
   44.8060   34.8620   40.0820 H   0  0  0  0  0  0  0  0  0  0  0  0
   43.6270   35.2080   42.1870 H   0  0  0  0  0  0  0  0  0  0  0  0
   44.6590   34.4750   44.2830 H   0  0  0  0  0  0  0  0  0  0  0  0
   50.8440   32.9810   42.2470 C   0  0  0  0  0  0  0  0  0  0  0  0
   49.5930   33.6040   42.2260 C   0  0  0  0  0  0  0  0  0  0  0  0
   48.4170   32.8910   42.1670 C   0  0  0  0  0  0  0  0  0  0  0  0
   48.6040   31.5720   42.1330 N   0  0  0  0  0  0  0  0  0  0  0  0
   49.7780   30.9420   42.1520 C   0  0  0  0  0  0  0  0  0  0  0  0
   50.8900   31.6600   42.2090 N   0  0  0  0  0  0  0  0  0  0  0  0
   51.7500   33.5560   42.2920 H   0  0  0  0  0  0  0  0  0  0  0  0
   49.5640   34.6960   42.2570 H   0  0  0  0  0  0  0  0  0  0  0  0
   49.6560   29.8630   42.1160 H   0  0  0  0  0  0  0  0  0  0  0  0
   45.7830   31.4750   39.2980 S   0  0  0  0  0  0  0  0  0  0  0  0
   45.3740   30.6550   38.0860 O   0  0  0  0  0  0  0  0  0  0  0  0
   46.6260   30.4520   40.1380 O   0  0  0  0  0  0  0  0  0  0  0  0
   42.9280   32.8250   38.9050 F   0  0  0  0  0  0  0  0  0  0  0  0
   43.0580   32.0920   40.0330 C   0  0  0  0  0  0  0  0  0  0  0  0
   44.3450   31.6280   40.1690 C   0  0  0  0  0  0  0  0  0  0  0  0
   44.3770   31.0280   41.4750 C   0  0  0  0  0  0  0  0  0  0  0  0
   45.3250   30.5710   41.8440 H   0  0  0  0  0  0  0  0  0  0  0  0
   43.3690   30.9030   42.4450 C   0  0  0  0  0  0  0  0  0  0  0  0
   43.5460   30.4240   43.3840 H   0  0  0  0  0  0  0  0  0  0  0  0
   42.1670   31.4460   42.0630 C   0  0  0  0  0  3  0  0  0  0  0  0
   41.9690   32.0580   40.8490 C   0  0  0  0  0  3  0  0  0  0  0  0
  1 30  1  0  0  0  0
  1  2  1  0  0  0  0
  2 14  1  0  0  0  0
  3  2  2  0  0  0  0
  3  7  1  0  0  0  0
  4  3  1  0  0  0  0
  5  6  1  0  0  0  0
  5  4  2  0  0  0  0
  6  1  2  0  0  0  0
  8  4  1  0  0  0  0
  9  5  1  0  0  0  0
 10  6  1  0  0  0  0
 12 17  1  0  0  0  0
 12 11  1  0  0  0  0
 13 23  1  0  0  0  0
 13 12  2  0  0  0  0
 14 15  2  0  0  0  0
 14 13  1  0  0  0  0
 15 16  1  0  0  0  0
 16 17  2  0  0  0  0
 17 20  1  0  0  0  0
 18 15  1  0  0  0  0
 19 16  1  0  0  0  0
 21 27  1  0  0  0  0
 22 21  1  0  0  0  0
 22 28  1  0  0  0  0
 23 22  2  0  0  0  0
 24 25  2  0  0  0  0
 24 23  1  0  0  0  0
 25 26  1  0  0  0  0
 26 21  2  0  0  0  0
 29 25  1  0  0  0  0
 30 32  2  0  0  0  0
 30 35  1  0  0  0  0
 31 30  2  0  0  0  0
 33 34  1  0  0  0  0
 34 35  2  0  0  0  0
 34 41  1  0  0  0  0
 35 36  1  0  0  0  0
 36 37  1  0  0  0  0
 36 38  2  0  0  0  0
 38 39  1  0  0  0  0
 40 38  1  0  0  0  0
 41 40  2  0  0  0  0
M  END
>  <minimizedAffinity>
-4.82175398

>  <minimizedRMSD>
2.51917171

$$$$
