
 OpenBabel03252509083D

 41 44  0  0  0  0  0  0  0  0999 V2000
   47.7560   31.8660   38.9530 C   0  0  0  0  0  0  0  0  0  0  0  0
   47.2320   33.1250   38.8650 C   0  0  0  0  0  0  0  0  0  0  0  0
   47.8030   34.0520   38.0070 C   0  0  0  0  0  0  0  0  0  0  0  0
   48.8920   33.7070   37.2440 C   0  0  0  0  0  0  0  0  0  0  0  0
   49.4570   32.4360   37.3020 C   0  0  0  0  0  0  0  0  0  0  0  0
   48.8640   31.5200   38.1750 C   0  0  0  0  0  0  0  0  0  0  0  0
   47.4070   35.0580   37.9200 H   0  0  0  0  0  0  0  0  0  0  0  0
   49.3310   34.4180   36.5860 H   0  0  0  0  0  0  0  0  0  0  0  0
   50.2990   32.0940   36.7430 H   0  0  0  0  0  0  0  0  0  0  0  0
   49.2850   30.5110   38.2420 H   0  0  0  0  0  0  0  0  0  0  0  0
   45.2780   35.3030   43.1170 Cl  0  0  0  0  0  0  0  0  0  0  0  0
   45.1580   34.5540   41.5460 C   0  0  0  0  0  0  0  0  0  0  0  0
   46.2630   34.1610   40.8680 C   0  0  0  0  0  0  0  0  0  0  0  0
   46.0710   33.5820   39.6190 C   0  0  0  0  0  0  0  0  0  0  0  0
   44.8200   33.4100   39.0800 C   0  0  0  0  0  0  0  0  0  0  0  0
   43.7210   33.8070   39.7690 C   0  0  0  0  0  0  0  0  0  0  0  0
   43.8970   34.3870   41.0210 C   0  0  0  0  0  0  0  0  0  0  0  0
   44.7380   32.9560   38.1050 H   0  0  0  0  0  0  0  0  0  0  0  0
   42.7500   33.6610   39.3270 H   0  0  0  0  0  0  0  0  0  0  0  0
   42.9910   34.6890   41.5370 H   0  0  0  0  0  0  0  0  0  0  0  0
   49.5500   35.7240   41.8850 C   0  0  0  0  0  0  0  0  0  0  0  0
   48.2940   35.5390   41.3000 C   0  0  0  0  0  0  0  0  0  0  0  0
   47.5750   34.3750   41.4540 C   0  0  0  0  0  0  0  0  0  0  0  0
   48.1980   33.4680   42.2050 N   0  0  0  0  0  0  0  0  0  0  0  0
   49.3930   33.6070   42.7790 C   0  0  0  0  0  0  0  0  0  0  0  0
   50.0570   34.7410   42.6100 N   0  0  0  0  0  0  0  0  0  0  0  0
   50.0950   36.6400   41.7520 H   0  0  0  0  0  0  0  0  0  0  0  0
   47.8830   36.3560   40.7010 H   0  0  0  0  0  0  0  0  0  0  0  0
   49.6750   32.7210   43.3400 H   0  0  0  0  0  0  0  0  0  0  0  0
   47.0760   30.6940   39.9500 S   0  0  0  0  0  0  0  0  0  0  0  0
   47.1600   29.3110   39.3280 O   0  0  0  0  0  0  0  0  0  0  0  0
   48.0900   30.5980   41.1440 O   0  0  0  0  0  0  0  0  0  0  0  0
   44.0410   30.2140   39.1220 F   0  0  0  0  0  0  0  0  0  0  0  0
   44.2450   30.4010   40.4460 C   0  0  0  0  0  0  0  0  0  0  0  0
   45.5640   30.6950   40.6990 C   0  0  0  0  0  0  0  0  0  0  0  0
   45.5950   31.0380   42.0950 C   0  0  0  0  0  0  0  0  0  0  0  0
   46.5640   31.3270   42.5660 H   0  0  0  0  0  0  0  0  0  0  0  0
   44.5630   31.0810   43.0470 C   0  0  0  0  0  0  0  0  0  0  0  0
   44.7440   31.3580   44.0630 H   0  0  0  0  0  0  0  0  0  0  0  0
   43.3340   30.7370   42.5400 C   0  0  0  0  0  3  0  0  0  0  0  0
   43.1310   30.3860   41.2280 C   0  0  0  0  0  3  0  0  0  0  0  0
  1 30  1  0  0  0  0
  2  1  1  0  0  0  0
  2 14  1  0  0  0  0
  3  2  2  0  0  0  0
  4  5  2  0  0  0  0
  4  3  1  0  0  0  0
  5  6  1  0  0  0  0
  6 10  1  0  0  0  0
  6  1  2  0  0  0  0
  7  3  1  0  0  0  0
  8  4  1  0  0  0  0
  9  5  1  0  0  0  0
 12 11  1  0  0  0  0
 13 23  1  0  0  0  0
 13 12  2  0  0  0  0
 14 13  1  0  0  0  0
 15 14  2  0  0  0  0
 15 16  1  0  0  0  0
 16 17  2  0  0  0  0
 17 20  1  0  0  0  0
 17 12  1  0  0  0  0
 18 15  1  0  0  0  0
 19 16  1  0  0  0  0
 21 26  1  0  0  0  0
 22 23  1  0  0  0  0
 22 21  2  0  0  0  0
 23 24  2  0  0  0  0
 24 25  1  0  0  0  0
 25 29  1  0  0  0  0
 26 25  2  0  0  0  0
 27 21  1  0  0  0  0
 28 22  1  0  0  0  0
 30 35  1  0  0  0  0
 30 32  2  0  0  0  0
 31 30  2  0  0  0  0
 33 34  1  0  0  0  0
 34 35  2  0  0  0  0
 34 41  1  0  0  0  0
 35 36  1  0  0  0  0
 36 37  1  0  0  0  0
 36 38  2  0  0  0  0
 38 39  1  0  0  0  0
 40 38  1  0  0  0  0
 41 40  2  0  0  0  0
M  END
>  <minimizedAffinity>
-4.8059783

>  <minimizedRMSD>
0.575051606

$$$$
