
 OpenBabel03252505473D

 29 31  0  0  1  0  0  0  0  0999 V2000
   46.4380   32.9580   39.3090 C   0  0  0  0  0  0  0  0  0  0  0  0
   46.3510   31.5550   39.4700 C   0  0  0  0  0  0  0  0  0  0  0  0
   45.1260   30.8860   39.3070 C   0  0  0  0  0  0  0  0  0  0  0  0
   44.0550   31.6680   38.9920 N   0  0  0  0  0  0  0  0  0  0  0  0
   44.1830   33.0140   38.8460 C   0  0  0  0  0  0  0  0  0  0  0  0
   45.3350   33.6460   38.9980 N   0  0  0  0  0  0  0  0  0  0  0  0
   47.1880   30.9180   39.7200 H   0  0  0  0  0  0  0  0  0  0  0  0
   45.0550   29.8150   39.4290 H   0  0  0  0  0  0  0  0  0  0  0  0
   47.7480   33.5970   39.5090 C   0  0  1  0  0  0  0  0  0  0  0  0
   47.9960   33.9060   41.0320 C   0  0  1  0  0  0  0  0  0  0  0  0
   48.8540   33.0110   40.1660 C   0  0  0  0  0  0  0  0  0  0  0  0
   47.8760   34.5050   38.8610 H   0  0  0  0  0  0  0  0  0  0  0  0
   47.3140   33.4750   41.7580 H   0  0  0  0  0  0  0  0  0  0  0  0
   49.8780   33.3230   39.9450 H   0  0  0  0  0  0  0  0  0  0  0  0
   48.8240   31.9360   40.5090 H   0  0  0  0  0  0  0  0  0  0  0  0
   48.6000   35.2660   41.2850 C   0  0  0  0  0  0  0  0  0  0  0  0
   47.8450   36.0540   42.1040 F   0  0  0  0  0  0  0  0  0  0  0  0
   49.8560   35.0910   41.8990 F   0  0  0  0  0  0  0  0  0  0  0  0
   48.8830   35.9100   40.0890 F   0  0  0  0  0  0  0  0  0  0  0  0
   43.0010   33.6730   38.5270 O   0  0  0  0  0  0  0  0  0  0  0  0
   41.0040   35.2620   37.5620 F   0  0  0  0  0  0  0  0  0  0  0  0
   41.3120   35.1810   38.8980 C   0  0  0  0  0  0  0  0  0  0  0  0
   42.3140   34.3960   39.4790 C   0  0  0  0  0  0  0  0  0  0  0  0
   42.4620   34.4580   40.8410 C   0  0  0  0  0  0  0  0  0  0  0  0
   43.2670   33.8120   41.1960 H   0  0  0  0  0  0  0  0  0  0  0  0
   41.6540   35.2600   41.6040 C   0  0  0  0  0  0  0  0  0  0  0  0
   41.8320   35.2540   42.6690 H   0  0  0  0  0  0  0  0  0  0  0  0
   40.6640   36.0370   41.0440 C   0  0  0  0  0  0  0  0  0  0  0  0
   40.4990   35.9890   39.6730 C   0  0  0  0  0  0  0  0  0  0  0  0
  1  2  1  0  0  0  0
  1  9  1  0  0  0  0
  2  7  1  0  0  0  0
  3  8  1  0  0  0  0
  3  2  2  0  0  0  0
  4  3  1  0  0  0  0
  5  4  2  0  0  0  0
  5  6  1  0  0  0  0
  6  1  2  0  0  0  0
  9 12  1  6  0  0  0
  9 11  1  0  0  0  0
  9 10  1  0  0  0  0
 10 16  1  0  0  0  0
 10 13  1  1  0  0  0
 11 15  1  0  0  0  0
 11 10  1  0  0  0  0
 14 11  1  0  0  0  0
 16 18  1  0  0  0  0
 16 17  1  0  0  0  0
 19 16  1  0  0  0  0
 20  5  1  0  0  0  0
 20 23  1  0  0  0  0
 21 22  1  0  0  0  0
 22 23  2  0  0  0  0
 22 29  1  0  0  0  0
 23 24  1  0  0  0  0
 24 25  1  0  0  0  0
 24 26  2  0  0  0  0
 26 27  1  0  0  0  0
 28 26  1  0  0  0  0
 29 28  2  0  0  0  0
M  END
>  <minimizedAffinity>
-5.12701797

>  <minimizedRMSD>
8.94113064

$$$$
