
 OpenBabel03252509103D

 41 44  0  0  0  0  0  0  0  0999 V2000
   36.1190   27.5010   39.1380 C   0  0  0  0  0  0  0  0  0  0  0  0
   35.8010   28.3620   40.1500 C   0  0  0  0  0  0  0  0  0  0  0  0
   34.6820   29.1740   40.0400 C   0  0  0  0  0  0  0  0  0  0  0  0
   33.8930   29.1130   38.9170 C   0  0  0  0  0  0  0  0  0  0  0  0
   34.1810   28.2500   37.8630 C   0  0  0  0  0  0  0  0  0  0  0  0
   35.3130   27.4420   37.9980 C   0  0  0  0  0  0  0  0  0  0  0  0
   34.4090   29.8660   40.8280 H   0  0  0  0  0  0  0  0  0  0  0  0
   33.0360   29.7360   38.8310 H   0  0  0  0  0  0  0  0  0  0  0  0
   33.6180   28.1450   36.9620 H   0  0  0  0  0  0  0  0  0  0  0  0
   35.5660   26.7520   37.1860 H   0  0  0  0  0  0  0  0  0  0  0  0
   39.5450   30.6880   42.8340 Cl  0  0  0  0  0  0  0  0  0  0  0  0
   38.2680   29.5190   42.6200 C   0  0  0  0  0  0  0  0  0  0  0  0
   37.5690   29.4460   41.4630 C   0  0  0  0  0  0  0  0  0  0  0  0
   36.5630   28.4900   41.3860 C   0  0  0  0  0  0  0  0  0  0  0  0
   36.2770   27.6480   42.4330 C   0  0  0  0  0  0  0  0  0  0  0  0
   36.9850   27.7310   43.5860 C   0  0  0  0  0  0  0  0  0  0  0  0
   37.9960   28.6820   43.6780 C   0  0  0  0  0  0  0  0  0  0  0  0
   35.4830   26.9280   42.3110 H   0  0  0  0  0  0  0  0  0  0  0  0
   36.7430   27.0590   44.3930 H   0  0  0  0  0  0  0  0  0  0  0  0
   38.5360   28.7120   44.6180 H   0  0  0  0  0  0  0  0  0  0  0  0
   37.5440   32.4240   39.1360 C   0  0  0  0  0  0  0  0  0  0  0  0
   37.2160   31.5530   40.1790 C   0  0  0  0  0  0  0  0  0  0  0  0
   37.8800   30.3640   40.3800 C   0  0  0  0  0  0  0  0  0  0  0  0
   38.8450   30.1440   39.4880 N   0  0  0  0  0  0  0  0  0  0  0  0
   39.1870   30.9490   38.4830 C   0  0  0  0  0  0  0  0  0  0  0  0
   38.5270   32.0860   38.3190 N   0  0  0  0  0  0  0  0  0  0  0  0
   37.0130   33.3480   38.9970 H   0  0  0  0  0  0  0  0  0  0  0  0
   36.4020   31.8400   40.8500 H   0  0  0  0  0  0  0  0  0  0  0  0
   40.0080   30.5390   37.9010 H   0  0  0  0  0  0  0  0  0  0  0  0
   37.4430   26.4690   39.2410 S   0  0  0  0  0  0  0  0  0  0  0  0
   37.3110   25.2900   38.2920 O   0  0  0  0  0  0  0  0  0  0  0  0
   38.6070   27.3020   38.5970 O   0  0  0  0  0  0  0  0  0  0  0  0
   36.6710   24.3120   41.4510 F   0  0  0  0  0  0  0  0  0  0  0  0
   37.9310   24.7970   41.5470 C   0  0  0  0  0  0  0  0  0  0  0  0
   38.1440   25.7860   40.6160 C   0  0  0  0  0  0  0  0  0  0  0  0
   39.4380   26.3180   40.9470 C   0  0  0  0  0  0  0  0  0  0  0  0
   39.8580   27.1530   40.3390 H   0  0  0  0  0  0  0  0  0  0  0  0
   40.3380   25.9610   41.9650 C   0  0  0  0  0  0  0  0  0  0  0  0
   41.2780   26.4560   42.0860 H   0  0  0  0  0  0  0  0  0  0  0  0
   39.8900   24.9360   42.7600 C   0  0  0  0  0  3  0  0  0  0  0  0
   38.6750   24.3190   42.5810 C   0  0  0  0  0  3  0  0  0  0  0  0
  1 30  1  0  0  0  0
  1  2  1  0  0  0  0
  2 14  1  0  0  0  0
  3  2  2  0  0  0  0
  3  7  1  0  0  0  0
  4  3  1  0  0  0  0
  5  6  1  0  0  0  0
  5  4  2  0  0  0  0
  6  1  2  0  0  0  0
  8  4  1  0  0  0  0
  9  5  1  0  0  0  0
 10  6  1  0  0  0  0
 12 11  1  0  0  0  0
 12 17  1  0  0  0  0
 13 12  2  0  0  0  0
 14 13  1  0  0  0  0
 14 15  2  0  0  0  0
 15 16  1  0  0  0  0
 16 17  2  0  0  0  0
 16 19  1  0  0  0  0
 17 20  1  0  0  0  0
 18 15  1  0  0  0  0
 21 22  1  0  0  0  0
 22 23  2  0  0  0  0
 22 28  1  0  0  0  0
 23 13  1  0  0  0  0
 24 23  1  0  0  0  0
 25 24  2  0  0  0  0
 26 25  1  0  0  0  0
 26 21  2  0  0  0  0
 27 21  1  0  0  0  0
 29 25  1  0  0  0  0
 30 35  1  0  0  0  0
 31 30  2  0  0  0  0
 32 30  2  0  0  0  0
 33 34  1  0  0  0  0
 34 41  1  0  0  0  0
 35 36  1  0  0  0  0
 35 34  2  0  0  0  0
 36 38  2  0  0  0  0
 37 36  1  0  0  0  0
 38 39  1  0  0  0  0
 38 40  1  0  0  0  0
 41 40  2  0  0  0  0
M  END
>  <minimizedAffinity>
-6.94432878

$$$$

 OpenBabel03252509103D

 41 44  0  0  0  0  0  0  0  0999 V2000
   36.1510   27.7190   39.0950 C   0  0  0  0  0  0  0  0  0  0  0  0
   35.8020   28.4780   40.1770 C   0  0  0  0  0  0  0  0  0  0  0  0
   34.6320   29.2210   40.1500 C   0  0  0  0  0  0  0  0  0  0  0  0
   33.8230   29.1950   39.0400 C   0  0  0  0  0  0  0  0  0  0  0  0
   34.1400   28.4360   37.9180 C   0  0  0  0  0  0  0  0  0  0  0  0
   35.3240   27.6960   37.9690 C   0  0  0  0  0  0  0  0  0  0  0  0
   34.3340   29.8320   40.9950 H   0  0  0  0  0  0  0  0  0  0  0  0
   32.9260   29.7660   39.0200 H   0  0  0  0  0  0  0  0  0  0  0  0
   33.5650   28.3640   37.0220 H   0  0  0  0  0  0  0  0  0  0  0  0
   35.6010   27.0880   37.1000 H   0  0  0  0  0  0  0  0  0  0  0  0
   39.5600   30.7310   42.9040 Cl  0  0  0  0  0  0  0  0  0  0  0  0
   38.2950   29.5560   42.6570 C   0  0  0  0  0  0  0  0  0  0  0  0
   37.5780   29.5250   41.5090 C   0  0  0  0  0  0  0  0  0  0  0  0
   36.5830   28.5600   41.4050 C   0  0  0  0  0  0  0  0  0  0  0  0
   36.3260   27.6680   42.4170 C   0  0  0  0  0  0  0  0  0  0  0  0
   37.0520   27.7070   43.5610 C   0  0  0  0  0  0  0  0  0  0  0  0
   38.0510   28.6680   43.6800 C   0  0  0  0  0  0  0  0  0  0  0  0
   35.5390   26.9430   42.2750 H   0  0  0  0  0  0  0  0  0  0  0  0
   36.8330   26.9960   44.3400 H   0  0  0  0  0  0  0  0  0  0  0  0
   38.6070   28.6620   44.6110 H   0  0  0  0  0  0  0  0  0  0  0  0
   37.4520   32.5900   39.3020 C   0  0  0  0  0  0  0  0  0  0  0  0
   37.1530   31.6670   40.3080 C   0  0  0  0  0  0  0  0  0  0  0  0
   37.8580   30.4960   40.4650 C   0  0  0  0  0  0  0  0  0  0  0  0
   38.8330   30.3460   39.5690 N   0  0  0  0  0  0  0  0  0  0  0  0
   39.1490   31.2010   38.5970 C   0  0  0  0  0  0  0  0  0  0  0  0
   38.4490   32.3200   38.4760 N   0  0  0  0  0  0  0  0  0  0  0  0
   36.8890   33.4990   39.1970 H   0  0  0  0  0  0  0  0  0  0  0  0
   36.3280   31.8980   40.9860 H   0  0  0  0  0  0  0  0  0  0  0  0
   39.9850   30.8450   38.0030 H   0  0  0  0  0  0  0  0  0  0  0  0
   37.5400   26.7710   39.0930 S   0  0  0  0  0  0  0  0  0  0  0  0
   37.4110   25.5890   38.1470 O   0  0  0  0  0  0  0  0  0  0  0  0
   38.6000   27.6760   38.3720 O   0  0  0  0  0  0  0  0  0  0  0  0
   40.2280   27.3730   40.6870 F   0  0  0  0  0  0  0  0  0  0  0  0
   39.4680   26.3840   41.2100 C   0  0  0  0  0  0  0  0  0  0  0  0
   38.3810   26.1290   40.4080 C   0  0  0  0  0  0  0  0  0  0  0  0
   37.7750   24.9600   40.9850 C   0  0  0  0  0  0  0  0  0  0  0  0
   36.8580   24.5300   40.5150 H   0  0  0  0  0  0  0  0  0  0  0  0
   38.1430   24.2010   42.1080 C   0  0  0  0  0  0  0  0  0  0  0  0
   37.5840   23.3450   42.4180 H   0  0  0  0  0  0  0  0  0  0  0  0
   39.2670   24.6690   42.7420 C   0  0  0  0  0  3  0  0  0  0  0  0
   39.9680   25.7720   42.3180 C   0  0  0  0  0  3  0  0  0  0  0  0
  1  2  1  0  0  0  0
  2 14  1  0  0  0  0
  3  2  2  0  0  0  0
  3  7  1  0  0  0  0
  4  3  1  0  0  0  0
  5  6  1  0  0  0  0
  5  4  2  0  0  0  0
  6  1  2  0  0  0  0
  8  4  1  0  0  0  0
  9  5  1  0  0  0  0
 10  6  1  0  0  0  0
 12 11  1  0  0  0  0
 12 17  1  0  0  0  0
 13 12  2  0  0  0  0
 14 13  1  0  0  0  0
 14 15  2  0  0  0  0
 15 16  1  0  0  0  0
 16 17  2  0  0  0  0
 16 19  1  0  0  0  0
 17 20  1  0  0  0  0
 18 15  1  0  0  0  0
 21 22  1  0  0  0  0
 22 23  2  0  0  0  0
 22 28  1  0  0  0  0
 23 13  1  0  0  0  0
 24 23  1  0  0  0  0
 25 24  2  0  0  0  0
 26 25  1  0  0  0  0
 26 21  2  0  0  0  0
 27 21  1  0  0  0  0
 29 25  1  0  0  0  0
 30  1  1  0  0  0  0
 30 35  1  0  0  0  0
 31 30  2  0  0  0  0
 32 30  2  0  0  0  0
 33 34  1  0  0  0  0
 34 41  1  0  0  0  0
 35 36  1  0  0  0  0
 35 34  2  0  0  0  0
 36 38  2  0  0  0  0
 37 36  1  0  0  0  0
 38 39  1  0  0  0  0
 38 40  1  0  0  0  0
 41 40  2  0  0  0  0
M  END
>  <minimizedAffinity>
-6.8493495

$$$$

 OpenBabel03252509103D

 41 44  0  0  0  0  0  0  0  0999 V2000
   36.3280   29.8510   38.7020 C   0  0  0  0  0  0  0  0  0  0  0  0
   37.2260   30.7290   38.1640 C   0  0  0  0  0  0  0  0  0  0  0  0
   37.3460   30.8360   36.7870 C   0  0  0  0  0  0  0  0  0  0  0  0
   36.5640   30.0630   35.9630 C   0  0  0  0  0  0  0  0  0  0  0  0
   35.6370   29.1570   36.4700 C   0  0  0  0  0  0  0  0  0  0  0  0
   35.5340   29.0670   37.8600 C   0  0  0  0  0  0  0  0  0  0  0  0
   38.0530   31.5240   36.3350 H   0  0  0  0  0  0  0  0  0  0  0  0
   36.6570   30.1440   34.9070 H   0  0  0  0  0  0  0  0  0  0  0  0
   34.9950   28.5250   35.8970 H   0  0  0  0  0  0  0  0  0  0  0  0
   34.8130   28.3640   38.2890 H   0  0  0  0  0  0  0  0  0  0  0  0
   41.8050   31.6310   40.3680 Cl  0  0  0  0  0  0  0  0  0  0  0  0
   40.1530   32.0290   39.9730 C   0  0  0  0  0  0  0  0  0  0  0  0
   39.3900   31.1990   39.2220 C   0  0  0  0  0  0  0  0  0  0  0  0
   38.0880   31.6030   38.9500 C   0  0  0  0  0  0  0  0  0  0  0  0
   37.5820   32.7920   39.4150 C   0  0  0  0  0  0  0  0  0  0  0  0
   38.3560   33.6130   40.1670 C   0  0  0  0  0  0  0  0  0  0  0  0
   39.6610   33.2230   40.4490 C   0  0  0  0  0  0  0  0  0  0  0  0
   36.5640   33.0490   39.1680 H   0  0  0  0  0  0  0  0  0  0  0  0
   37.9360   34.5400   40.5220 H   0  0  0  0  0  0  0  0  0  0  0  0
   40.2430   33.9100   41.0540 H   0  0  0  0  0  0  0  0  0  0  0  0
   40.4140   27.5760   38.8910 C   0  0  0  0  0  0  0  0  0  0  0  0
   39.8680   28.7600   39.3970 C   0  0  0  0  0  0  0  0  0  0  0  0
   39.9600   29.9580   38.7260 C   0  0  0  0  0  0  0  0  0  0  0  0
   40.6130   29.8630   37.5690 N   0  0  0  0  0  0  0  0  0  0  0  0
   41.1470   28.7560   37.0530 C   0  0  0  0  0  0  0  0  0  0  0  0
   41.0390   27.6200   37.7260 N   0  0  0  0  0  0  0  0  0  0  0  0
   40.3320   26.6510   39.4310 H   0  0  0  0  0  0  0  0  0  0  0  0
   39.3540   28.7150   40.3600 H   0  0  0  0  0  0  0  0  0  0  0  0
   41.6240   28.9470   36.0960 H   0  0  0  0  0  0  0  0  0  0  0  0
   36.1170   29.7130   40.3650 S   0  0  0  0  0  0  0  0  0  0  0  0
   35.8440   31.0610   41.0100 O   0  0  0  0  0  0  0  0  0  0  0  0
   34.7360   28.9790   40.4990 O   0  0  0  0  0  0  0  0  0  0  0  0
   38.5060   30.4750   42.3250 F   0  0  0  0  0  0  0  0  0  0  0  0
   38.0650   29.2000   42.4370 C   0  0  0  0  0  0  0  0  0  0  0  0
   37.1020   28.9330   41.4920 C   0  0  0  0  0  0  0  0  0  0  0  0
   36.8610   27.5210   41.6140 C   0  0  0  0  0  0  0  0  0  0  0  0
   36.1110   27.0350   40.9450 H   0  0  0  0  0  0  0  0  0  0  0  0
   37.4290   26.5700   42.4760 C   0  0  0  0  0  0  0  0  0  0  0  0
   37.1420   25.5400   42.4480 H   0  0  0  0  0  0  0  0  0  0  0  0
   38.3650   27.0940   43.3320 C   0  0  0  0  0  3  0  0  0  0  0  0
   38.7160   28.4220   43.3440 C   0  0  0  0  0  3  0  0  0  0  0  0
  1 30  1  0  0  0  0
  2  1  1  0  0  0  0
  2 14  1  0  0  0  0
  3  2  2  0  0  0  0
  4  5  2  0  0  0  0
  4  3  1  0  0  0  0
  5  6  1  0  0  0  0
  6 10  1  0  0  0  0
  6  1  2  0  0  0  0
  7  3  1  0  0  0  0
  8  4  1  0  0  0  0
  9  5  1  0  0  0  0
 12 11  1  0  0  0  0
 12 17  1  0  0  0  0
 13 12  2  0  0  0  0
 14 13  1  0  0  0  0
 14 15  2  0  0  0  0
 15 16  1  0  0  0  0
 16 17  2  0  0  0  0
 16 19  1  0  0  0  0
 17 20  1  0  0  0  0
 18 15  1  0  0  0  0
 21 22  1  0  0  0  0
 21 27  1  0  0  0  0
 22 28  1  0  0  0  0
 23 13  1  0  0  0  0
 23 22  2  0  0  0  0
 24 23  1  0  0  0  0
 25 24  2  0  0  0  0
 25 26  1  0  0  0  0
 26 21  2  0  0  0  0
 29 25  1  0  0  0  0
 30 32  2  0  0  0  0
 30 31  2  0  0  0  0
 30 35  1  0  0  0  0
 33 34  1  0  0  0  0
 34 41  1  0  0  0  0
 35 36  1  0  0  0  0
 35 34  2  0  0  0  0
 36 38  2  0  0  0  0
 37 36  1  0  0  0  0
 38 40  1  0  0  0  0
 39 38  1  0  0  0  0
 40 41  2  0  0  0  0
M  END
>  <minimizedAffinity>
-6.55453777

$$$$

 OpenBabel03252509103D

 41 44  0  0  0  0  0  0  0  0999 V2000
   36.1500   27.2370   39.2000 C   0  0  0  0  0  0  0  0  0  0  0  0
   35.8900   28.2350   40.0970 C   0  0  0  0  0  0  0  0  0  0  0  0
   34.8660   29.1360   39.8490 C   0  0  0  0  0  0  0  0  0  0  0  0
   34.1130   29.0280   38.7050 C   0  0  0  0  0  0  0  0  0  0  0  0
   34.3440   28.0270   37.7660 C   0  0  0  0  0  0  0  0  0  0  0  0
   35.3810   27.1310   38.0390 C   0  0  0  0  0  0  0  0  0  0  0  0
   34.6400   29.9370   40.5440 H   0  0  0  0  0  0  0  0  0  0  0  0
   33.3280   29.7190   38.5140 H   0  0  0  0  0  0  0  0  0  0  0  0
   33.8040   27.8770   36.8580 H   0  0  0  0  0  0  0  0  0  0  0  0
   35.5870   26.3310   37.3180 H   0  0  0  0  0  0  0  0  0  0  0  0
   39.5210   30.7380   42.7770 Cl  0  0  0  0  0  0  0  0  0  0  0  0
   38.2740   29.5360   42.5780 C   0  0  0  0  0  0  0  0  0  0  0  0
   37.6040   29.4040   41.4080 C   0  0  0  0  0  0  0  0  0  0  0  0
   36.6190   28.4250   41.3450 C   0  0  0  0  0  0  0  0  0  0  0  0
   36.3250   27.6180   42.4160 C   0  0  0  0  0  0  0  0  0  0  0  0
   37.0030   27.7590   43.5820 C   0  0  0  0  0  0  0  0  0  0  0  0
   37.9920   28.7340   43.6600 C   0  0  0  0  0  0  0  0  0  0  0  0
   35.5480   26.8770   42.3040 H   0  0  0  0  0  0  0  0  0  0  0  0
   36.7560   27.1130   44.4080 H   0  0  0  0  0  0  0  0  0  0  0  0
   38.5100   28.8100   44.6100 H   0  0  0  0  0  0  0  0  0  0  0  0
   39.1060   30.8320   38.2480 C   0  0  0  0  0  0  0  0  0  0  0  0
   38.8270   29.9690   39.3120 C   0  0  0  0  0  0  0  0  0  0  0  0
   37.9220   30.2870   40.2990 C   0  0  0  0  0  0  0  0  0  0  0  0
   37.3580   31.4820   40.1290 N   0  0  0  0  0  0  0  0  0  0  0  0
   37.5970   32.3310   39.1310 C   0  0  0  0  0  0  0  0  0  0  0  0
   38.4740   31.9920   38.1970 N   0  0  0  0  0  0  0  0  0  0  0  0
   39.8160   30.5640   37.4870 H   0  0  0  0  0  0  0  0  0  0  0  0
   39.3540   29.0120   39.3470 H   0  0  0  0  0  0  0  0  0  0  0  0
   37.0060   33.2380   39.2230 H   0  0  0  0  0  0  0  0  0  0  0  0
   37.3560   26.0970   39.4750 S   0  0  0  0  0  0  0  0  0  0  0  0
   36.8840   24.9950   40.4080 O   0  0  0  0  0  0  0  0  0  0  0  0
   37.4760   25.3540   38.0970 O   0  0  0  0  0  0  0  0  0  0  0  0
   40.0570   27.1420   38.1550 F   0  0  0  0  0  0  0  0  0  0  0  0
   40.1370   26.8810   39.4800 C   0  0  0  0  0  0  0  0  0  0  0  0
   38.9570   26.3470   39.9440 C   0  0  0  0  0  0  0  0  0  0  0  0
   39.2440   25.9630   41.2990 C   0  0  0  0  0  0  0  0  0  0  0  0
   38.4430   25.4900   41.9150 H   0  0  0  0  0  0  0  0  0  0  0  0
   40.4260   26.0790   42.0490 C   0  0  0  0  0  0  0  0  0  0  0  0
   40.4860   25.7440   43.0620 H   0  0  0  0  0  0  0  0  0  0  0  0
   41.4620   26.6540   41.3570 C   0  0  0  0  0  3  0  0  0  0  0  0
   41.3560   27.0740   40.0520 C   0  0  0  0  0  3  0  0  0  0  0  0
  1 30  1  0  0  0  0
  1  2  1  0  0  0  0
  2 14  1  0  0  0  0
  3  2  2  0  0  0  0
  3  7  1  0  0  0  0
  4  3  1  0  0  0  0
  5  6  1  0  0  0  0
  5  4  2  0  0  0  0
  6  1  2  0  0  0  0
  8  4  1  0  0  0  0
  9  5  1  0  0  0  0
 10  6  1  0  0  0  0
 12 11  1  0  0  0  0
 12 17  1  0  0  0  0
 13 12  2  0  0  0  0
 14 13  1  0  0  0  0
 14 15  2  0  0  0  0
 15 16  1  0  0  0  0
 16 17  2  0  0  0  0
 16 19  1  0  0  0  0
 17 20  1  0  0  0  0
 18 15  1  0  0  0  0
 21 22  1  0  0  0  0
 22 28  1  0  0  0  0
 22 23  2  0  0  0  0
 23 13  1  0  0  0  0
 24 23  1  0  0  0  0
 25 29  1  0  0  0  0
 25 24  2  0  0  0  0
 26 21  2  0  0  0  0
 26 25  1  0  0  0  0
 27 21  1  0  0  0  0
 30 35  1  0  0  0  0
 30 31  2  0  0  0  0
 32 30  2  0  0  0  0
 33 34  1  0  0  0  0
 34 35  2  0  0  0  0
 34 41  1  0  0  0  0
 35 36  1  0  0  0  0
 36 37  1  0  0  0  0
 36 38  2  0  0  0  0
 38 39  1  0  0  0  0
 40 38  1  0  0  0  0
 41 40  2  0  0  0  0
M  END
>  <minimizedAffinity>
-6.16004038

$$$$

 OpenBabel03252509103D

 41 44  0  0  0  0  0  0  0  0999 V2000
   38.1250   28.7760   41.0570 C   0  0  0  0  0  0  0  0  0  0  0  0
   36.9030   28.1650   41.1160 C   0  0  0  0  0  0  0  0  0  0  0  0
   36.3890   27.7670   42.3400 C   0  0  0  0  0  0  0  0  0  0  0  0
   37.1030   27.9860   43.4930 C   0  0  0  0  0  0  0  0  0  0  0  0
   38.3490   28.6050   43.4790 C   0  0  0  0  0  0  0  0  0  0  0  0
   38.8460   28.9980   42.2330 C   0  0  0  0  0  0  0  0  0  0  0  0
   35.4230   27.2790   42.4120 H   0  0  0  0  0  0  0  0  0  0  0  0
   36.7080   27.6800   44.4320 H   0  0  0  0  0  0  0  0  0  0  0  0
   38.9610   28.8110   44.3290 H   0  0  0  0  0  0  0  0  0  0  0  0
   39.8250   29.4880   42.1890 H   0  0  0  0  0  0  0  0  0  0  0  0
   35.4780   25.0020   37.2950 Cl  0  0  0  0  0  0  0  0  0  0  0  0
   35.4100   26.4910   38.2010 C   0  0  0  0  0  0  0  0  0  0  0  0
   36.1930   26.6890   39.2880 C   0  0  0  0  0  0  0  0  0  0  0  0
   36.0640   27.9020   39.9530 C   0  0  0  0  0  0  0  0  0  0  0  0
   35.1820   28.8700   39.5390 C   0  0  0  0  0  0  0  0  0  0  0  0
   34.4040   28.6600   38.4480 C   0  0  0  0  0  0  0  0  0  0  0  0
   34.5230   27.4510   37.7710 C   0  0  0  0  0  0  0  0  0  0  0  0
   35.1280   29.7900   40.0990 H   0  0  0  0  0  0  0  0  0  0  0  0
   33.7210   29.4350   38.1410 H   0  0  0  0  0  0  0  0  0  0  0  0
   33.8830   27.3270   36.9040 H   0  0  0  0  0  0  0  0  0  0  0  0
   37.6380   23.6370   40.9860 C   0  0  0  0  0  0  0  0  0  0  0  0
   36.7480   24.6440   40.6000 C   0  0  0  0  0  0  0  0  0  0  0  0
   37.1010   25.6380   39.7160 C   0  0  0  0  0  0  0  0  0  0  0  0
   38.3570   25.5350   39.2830 N   0  0  0  0  0  0  0  0  0  0  0  0
   39.2330   24.5920   39.6260 C   0  0  0  0  0  0  0  0  0  0  0  0
   38.8600   23.6490   40.4790 N   0  0  0  0  0  0  0  0  0  0  0  0
   37.3430   22.8700   41.6770 H   0  0  0  0  0  0  0  0  0  0  0  0
   35.7410   24.6270   41.0240 H   0  0  0  0  0  0  0  0  0  0  0  0
   40.1900   24.7320   39.1310 H   0  0  0  0  0  0  0  0  0  0  0  0
   38.7750   29.3120   39.6010 S   0  0  0  0  0  0  0  0  0  0  0  0
   39.3810   30.6990   39.7340 O   0  0  0  0  0  0  0  0  0  0  0  0
   40.0370   28.4000   39.4070 O   0  0  0  0  0  0  0  0  0  0  0  0
   36.7710   31.1820   37.9830 F   0  0  0  0  0  0  0  0  0  0  0  0
   37.2820   30.1490   37.2730 C   0  0  0  0  0  0  0  0  0  0  0  0
   38.0570   29.3440   38.0740 C   0  0  0  0  0  0  0  0  0  0  0  0
   38.3800   28.2160   37.2440 C   0  0  0  0  0  0  0  0  0  0  0  0
   39.0100   27.3940   37.6600 H   0  0  0  0  0  0  0  0  0  0  0  0
   38.0290   27.9310   35.9150 C   0  0  0  0  0  0  0  0  0  0  0  0
   38.3510   27.0370   35.4250 H   0  0  0  0  0  0  0  0  0  0  0  0
   37.2500   28.9000   35.3330 C   0  0  0  0  0  3  0  0  0  0  0  0
   36.8490   30.0390   35.9880 C   0  0  0  0  0  3  0  0  0  0  0  0
  1  2  2  0  0  0  0
  1  6  1  0  0  0  0
  2  3  1  0  0  0  0
  3  7  1  0  0  0  0
  3  4  2  0  0  0  0
  4  8  1  0  0  0  0
  5  4  1  0  0  0  0
  5  9  1  0  0  0  0
  6  5  2  0  0  0  0
 10  6  1  0  0  0  0
 11 12  1  0  0  0  0
 12 13  1  0  0  0  0
 13 23  1  0  0  0  0
 13 14  2  0  0  0  0
 14  2  1  0  0  0  0
 15 14  1  0  0  0  0
 15 18  1  0  0  0  0
 16 15  2  0  0  0  0
 17 12  2  0  0  0  0
 17 16  1  0  0  0  0
 19 16  1  0  0  0  0
 20 17  1  0  0  0  0
 21 27  1  0  0  0  0
 22 21  1  0  0  0  0
 22 28  1  0  0  0  0
 23 22  2  0  0  0  0
 24 25  2  0  0  0  0
 24 23  1  0  0  0  0
 25 26  1  0  0  0  0
 26 21  2  0  0  0  0
 29 25  1  0  0  0  0
 30 31  2  0  0  0  0
 30  1  1  0  0  0  0
 32 30  2  0  0  0  0
 34 33  1  0  0  0  0
 34 35  1  0  0  0  0
 35 30  1  0  0  0  0
 36 37  1  0  0  0  0
 36 35  2  0  0  0  0
 38 36  1  0  0  0  0
 39 38  1  0  0  0  0
 40 38  2  0  0  0  0
 40 41  1  0  0  0  0
 41 34  2  0  0  0  0
M  END
>  <minimizedAffinity>
-6.10018301

$$$$

 OpenBabel03252509103D

 41 44  0  0  0  0  0  0  0  0999 V2000
   36.5860   25.9410   39.5420 C   0  0  0  0  0  0  0  0  0  0  0  0
   37.1250   25.7660   40.7870 C   0  0  0  0  0  0  0  0  0  0  0  0
   37.1960   24.4950   41.3350 C   0  0  0  0  0  0  0  0  0  0  0  0
   36.7280   23.4120   40.6320 C   0  0  0  0  0  0  0  0  0  0  0  0
   36.1740   23.5450   39.3630 C   0  0  0  0  0  0  0  0  0  0  0  0
   36.1130   24.8360   38.8310 C   0  0  0  0  0  0  0  0  0  0  0  0
   37.6180   24.3310   42.3210 H   0  0  0  0  0  0  0  0  0  0  0  0
   36.7830   22.4370   41.0530 H   0  0  0  0  0  0  0  0  0  0  0  0
   35.7910   22.7550   38.7550 H   0  0  0  0  0  0  0  0  0  0  0  0
   35.6810   24.9730   37.8330 H   0  0  0  0  0  0  0  0  0  0  0  0
   41.1110   28.7590   42.1250 Cl  0  0  0  0  0  0  0  0  0  0  0  0
   39.4600   28.2070   42.2410 C   0  0  0  0  0  0  0  0  0  0  0  0
   38.9930   27.2140   41.4480 C   0  0  0  0  0  0  0  0  0  0  0  0
   37.6620   26.8470   41.6050 C   0  0  0  0  0  0  0  0  0  0  0  0
   36.8400   27.4590   42.5190 C   0  0  0  0  0  0  0  0  0  0  0  0
   37.3200   28.4520   43.3080 C   0  0  0  0  0  0  0  0  0  0  0  0
   38.6510   28.8300   43.1640 C   0  0  0  0  0  0  0  0  0  0  0  0
   35.8150   27.1290   42.5910 H   0  0  0  0  0  0  0  0  0  0  0  0
   36.6570   28.9160   44.0190 H   0  0  0  0  0  0  0  0  0  0  0  0
   38.9920   29.6270   43.8150 H   0  0  0  0  0  0  0  0  0  0  0  0
   41.3840   24.8390   39.7370 C   0  0  0  0  0  0  0  0  0  0  0  0
   40.5460   25.4150   40.6960 C   0  0  0  0  0  0  0  0  0  0  0  0
   39.8800   26.5990   40.4750 C   0  0  0  0  0  0  0  0  0  0  0  0
   40.1210   27.1210   39.2730 N   0  0  0  0  0  0  0  0  0  0  0  0
   40.9120   26.6030   38.3340 C   0  0  0  0  0  0  0  0  0  0  0  0
   41.5370   25.4610   38.5800 N   0  0  0  0  0  0  0  0  0  0  0  0
   41.8950   23.9140   39.9300 H   0  0  0  0  0  0  0  0  0  0  0  0
   40.4260   24.8950   41.6500 H   0  0  0  0  0  0  0  0  0  0  0  0
   40.9370   27.2230   37.4420 H   0  0  0  0  0  0  0  0  0  0  0  0
   36.5130   27.4570   38.8180 S   0  0  0  0  0  0  0  0  0  0  0  0
   37.5120   27.5840   37.6810 O   0  0  0  0  0  0  0  0  0  0  0  0
   35.1350   27.4360   38.0660 O   0  0  0  0  0  0  0  0  0  0  0  0
   34.5920   29.2640   40.5990 F   0  0  0  0  0  0  0  0  0  0  0  0
   35.8290   29.7750   40.4020 C   0  0  0  0  0  0  0  0  0  0  0  0
   36.5540   28.9780   39.5470 C   0  0  0  0  0  0  0  0  0  0  0  0
   37.7580   29.7230   39.2950 C   0  0  0  0  0  0  0  0  0  0  0  0
   38.5330   29.2960   38.6160 H   0  0  0  0  0  0  0  0  0  0  0  0
   38.1730   30.9750   39.7770 C   0  0  0  0  0  0  0  0  0  0  0  0
   39.1110   31.4040   39.4960 H   0  0  0  0  0  0  0  0  0  0  0  0
   37.2680   31.5670   40.6220 C   0  0  0  0  0  3  0  0  0  0  0  0
   36.0680   30.9910   40.9640 C   0  0  0  0  0  3  0  0  0  0  0  0
  1  2  1  0  0  0  0
  2  3  2  0  0  0  0
  2 14  1  0  0  0  0
  3  7  1  0  0  0  0
  4  8  1  0  0  0  0
  4  3  1  0  0  0  0
  5  4  2  0  0  0  0
  6  5  1  0  0  0  0
  6  1  2  0  0  0  0
  9  5  1  0  0  0  0
 10  6  1  0  0  0  0
 11 12  1  0  0  0  0
 12 17  1  0  0  0  0
 13 14  1  0  0  0  0
 13 12  2  0  0  0  0
 14 15  2  0  0  0  0
 15 18  1  0  0  0  0
 15 16  1  0  0  0  0
 16 19  1  0  0  0  0
 17 16  2  0  0  0  0
 17 20  1  0  0  0  0
 21 27  1  0  0  0  0
 21 22  1  0  0  0  0
 22 28  1  0  0  0  0
 23 22  2  0  0  0  0
 23 13  1  0  0  0  0
 24 23  1  0  0  0  0
 25 26  1  0  0  0  0
 25 24  2  0  0  0  0
 26 21  2  0  0  0  0
 29 25  1  0  0  0  0
 30  1  1  0  0  0  0
 30 35  1  0  0  0  0
 31 30  2  0  0  0  0
 32 30  2  0  0  0  0
 34 33  1  0  0  0  0
 34 41  1  0  0  0  0
 35 34  2  0  0  0  0
 36 35  1  0  0  0  0
 36 38  2  0  0  0  0
 37 36  1  0  0  0  0
 38 40  1  0  0  0  0
 39 38  1  0  0  0  0
 40 41  2  0  0  0  0
M  END
>  <minimizedAffinity>
-6.06586075

$$$$

 OpenBabel03252509103D

 41 44  0  0  0  0  0  0  0  0999 V2000
   36.5990   28.1600   41.1390 C   0  0  0  0  0  0  0  0  0  0  0  0
   36.6540   27.1720   40.1960 C   0  0  0  0  0  0  0  0  0  0  0  0
   35.9870   27.3300   38.9910 C   0  0  0  0  0  0  0  0  0  0  0  0
   35.2720   28.4770   38.7430 C   0  0  0  0  0  0  0  0  0  0  0  0
   35.1910   29.5080   39.6740 C   0  0  0  0  0  0  0  0  0  0  0  0
   35.8710   29.3250   40.8810 C   0  0  0  0  0  0  0  0  0  0  0  0
   36.0140   26.5610   38.2280 H   0  0  0  0  0  0  0  0  0  0  0  0
   34.7600   28.5990   37.8190 H   0  0  0  0  0  0  0  0  0  0  0  0
   34.6590   30.4250   39.5550 H   0  0  0  0  0  0  0  0  0  0  0  0
   35.8260   30.1190   41.6350 H   0  0  0  0  0  0  0  0  0  0  0  0
   40.8260   24.3240   39.1370 Cl  0  0  0  0  0  0  0  0  0  0  0  0
   39.2720   24.6090   39.8790 C   0  0  0  0  0  0  0  0  0  0  0  0
   38.6240   25.7870   39.7220 C   0  0  0  0  0  0  0  0  0  0  0  0
   37.3960   25.9270   40.3570 C   0  0  0  0  0  0  0  0  0  0  0  0
   36.8500   24.9230   41.1180 C   0  0  0  0  0  0  0  0  0  0  0  0
   37.5090   23.7470   41.2670 C   0  0  0  0  0  0  0  0  0  0  0  0
   38.7390   23.5910   40.6360 C   0  0  0  0  0  0  0  0  0  0  0  0
   35.8940   25.0950   41.5870 H   0  0  0  0  0  0  0  0  0  0  0  0
   37.0610   22.9730   41.8680 H   0  0  0  0  0  0  0  0  0  0  0  0
   39.2300   22.6350   40.7820 H   0  0  0  0  0  0  0  0  0  0  0  0
   40.6180   28.8210   38.6740 C   0  0  0  0  0  0  0  0  0  0  0  0
   40.0320   27.8270   39.4620 C   0  0  0  0  0  0  0  0  0  0  0  0
   39.2350   26.8400   38.9280 C   0  0  0  0  0  0  0  0  0  0  0  0
   39.0890   26.9390   37.6080 N   0  0  0  0  0  0  0  0  0  0  0  0
   39.6320   27.8700   36.8230 C   0  0  0  0  0  0  0  0  0  0  0  0
   40.3940   28.8050   37.3710 N   0  0  0  0  0  0  0  0  0  0  0  0
   41.2370   29.5830   39.1110 H   0  0  0  0  0  0  0  0  0  0  0  0
   40.2220   27.8480   40.5380 H   0  0  0  0  0  0  0  0  0  0  0  0
   39.3590   27.7270   35.7810 H   0  0  0  0  0  0  0  0  0  0  0  0
   37.4220   28.0320   42.6000 S   0  0  0  0  0  0  0  0  0  0  0  0
   37.2610   29.2830   43.4460 O   0  0  0  0  0  0  0  0  0  0  0  0
   36.5890   26.9670   43.3970 O   0  0  0  0  0  0  0  0  0  0  0  0
   40.3090   29.3510   42.3620 F   0  0  0  0  0  0  0  0  0  0  0  0
   40.2950   28.1070   42.8960 C   0  0  0  0  0  0  0  0  0  0  0  0
   39.0250   27.5810   42.8720 C   0  0  0  0  0  0  0  0  0  0  0  0
   39.1930   26.2170   43.2960 C   0  0  0  0  0  0  0  0  0  0  0  0
   38.3000   25.5520   43.3620 H   0  0  0  0  0  0  0  0  0  0  0  0
   40.3490   25.5140   43.6710 C   0  0  0  0  0  0  0  0  0  0  0  0
   40.3140   24.4880   43.9690 H   0  0  0  0  0  0  0  0  0  0  0  0
   41.4940   26.2700   43.6150 C   0  0  0  0  0  3  0  0  0  0  0  0
   41.5090   27.5880   43.2270 C   0  0  0  0  0  3  0  0  0  0  0  0
  1 30  1  0  0  0  0
  2 14  1  0  0  0  0
  2  1  2  0  0  0  0
  3  2  1  0  0  0  0
  4  3  2  0  0  0  0
  4  5  1  0  0  0  0
  5  6  2  0  0  0  0
  6  1  1  0  0  0  0
  6 10  1  0  0  0  0
  7  3  1  0  0  0  0
  8  4  1  0  0  0  0
  9  5  1  0  0  0  0
 11 12  1  0  0  0  0
 12 17  1  0  0  0  0
 13 12  2  0  0  0  0
 13 14  1  0  0  0  0
 14 15  2  0  0  0  0
 15 16  1  0  0  0  0
 15 18  1  0  0  0  0
 16 19  1  0  0  0  0
 17 20  1  0  0  0  0
 17 16  2  0  0  0  0
 21 27  1  0  0  0  0
 21 22  1  0  0  0  0
 22 28  1  0  0  0  0
 23 22  2  0  0  0  0
 23 13  1  0  0  0  0
 24 23  1  0  0  0  0
 25 26  1  0  0  0  0
 25 24  2  0  0  0  0
 26 21  2  0  0  0  0
 29 25  1  0  0  0  0
 30 35  1  0  0  0  0
 30 32  2  0  0  0  0
 30 31  2  0  0  0  0
 33 34  1  0  0  0  0
 34 41  1  0  0  0  0
 35 34  2  0  0  0  0
 35 36  1  0  0  0  0
 36 37  1  0  0  0  0
 36 38  2  0  0  0  0
 38 39  1  0  0  0  0
 40 38  1  0  0  0  0
 41 40  2  0  0  0  0
M  END
>  <minimizedAffinity>
-6.04654837

$$$$

 OpenBabel03252509103D

 41 44  0  0  0  0  0  0  0  0999 V2000
   38.7080   30.9770   40.9770 C   0  0  0  0  0  0  0  0  0  0  0  0
   39.1740   29.9390   41.7340 C   0  0  0  0  0  0  0  0  0  0  0  0
   40.4610   29.9830   42.2490 C   0  0  0  0  0  0  0  0  0  0  0  0
   41.2670   31.0680   42.0010 C   0  0  0  0  0  0  0  0  0  0  0  0
   40.8320   32.1460   41.2360 C   0  0  0  0  0  0  0  0  0  0  0  0
   39.5310   32.0780   40.7280 C   0  0  0  0  0  0  0  0  0  0  0  0
   40.8550   29.1720   42.8510 H   0  0  0  0  0  0  0  0  0  0  0  0
   42.2540   31.1020   42.3950 H   0  0  0  0  0  0  0  0  0  0  0  0
   41.3960   33.0210   41.0000 H   0  0  0  0  0  0  0  0  0  0  0  0
   39.1600   32.9110   40.1220 H   0  0  0  0  0  0  0  0  0  0  0  0
   37.8340   25.0680   40.6790 Cl  0  0  0  0  0  0  0  0  0  0  0  0
   37.7570   26.5470   41.5990 C   0  0  0  0  0  0  0  0  0  0  0  0
   38.5140   27.6210   41.2700 C   0  0  0  0  0  0  0  0  0  0  0  0
   38.3940   28.7530   42.0670 C   0  0  0  0  0  0  0  0  0  0  0  0
   37.5480   28.7970   43.1480 C   0  0  0  0  0  0  0  0  0  0  0  0
   36.7940   27.7160   43.4670 C   0  0  0  0  0  0  0  0  0  0  0  0
   36.9030   26.5750   42.6780 C   0  0  0  0  0  0  0  0  0  0  0  0
   37.5010   29.7050   43.7280 H   0  0  0  0  0  0  0  0  0  0  0  0
   36.1370   27.7740   44.3180 H   0  0  0  0  0  0  0  0  0  0  0  0
   36.2820   25.7350   42.9690 H   0  0  0  0  0  0  0  0  0  0  0  0
   41.5680   27.0400   39.1210 C   0  0  0  0  0  0  0  0  0  0  0  0
   40.7240   27.1220   40.2320 C   0  0  0  0  0  0  0  0  0  0  0  0
   39.4160   27.5380   40.1340 C   0  0  0  0  0  0  0  0  0  0  0  0
   39.0550   27.8470   38.8890 N   0  0  0  0  0  0  0  0  0  0  0  0
   39.8280   27.7810   37.8060 C   0  0  0  0  0  0  0  0  0  0  0  0
   41.0830   27.3760   37.9370 N   0  0  0  0  0  0  0  0  0  0  0  0
   42.5860   26.7130   39.2190 H   0  0  0  0  0  0  0  0  0  0  0  0
   41.1330   26.8440   41.2070 H   0  0  0  0  0  0  0  0  0  0  0  0
   39.2930   28.0860   36.9100 H   0  0  0  0  0  0  0  0  0  0  0  0
   37.1420   30.9870   40.3630 S   0  0  0  0  0  0  0  0  0  0  0  0
   36.1070   31.1070   41.4680 O   0  0  0  0  0  0  0  0  0  0  0  0
   37.0410   32.3790   39.6430 O   0  0  0  0  0  0  0  0  0  0  0  0
   35.3010   28.3940   40.4820 F   0  0  0  0  0  0  0  0  0  0  0  0
   35.5530   28.8540   39.2340 C   0  0  0  0  0  0  0  0  0  0  0  0
   36.4290   29.9140   39.2740 C   0  0  0  0  0  0  0  0  0  0  0  0
   36.7360   30.1780   37.8940 C   0  0  0  0  0  0  0  0  0  0  0  0
   37.4420   31.0030   37.6400 H   0  0  0  0  0  0  0  0  0  0  0  0
   36.2840   29.5500   36.7230 C   0  0  0  0  0  0  0  0  0  0  0  0
   36.6060   29.8650   35.7530 H   0  0  0  0  0  0  0  0  0  0  0  0
   35.4080   28.5190   36.9550 C   0  0  0  0  0  3  0  0  0  0  0  0
   35.0130   28.1340   38.2140 C   0  0  0  0  0  3  0  0  0  0  0  0
  1  2  1  0  0  0  0
  2 14  1  0  0  0  0
  2  3  2  0  0  0  0
  3  7  1  0  0  0  0
  4  3  1  0  0  0  0
  4  8  1  0  0  0  0
  5  4  2  0  0  0  0
  6  1  2  0  0  0  0
  6  5  1  0  0  0  0
  9  5  1  0  0  0  0
 10  6  1  0  0  0  0
 11 12  1  0  0  0  0
 12 17  1  0  0  0  0
 13 12  2  0  0  0  0
 13 14  1  0  0  0  0
 14 15  2  0  0  0  0
 15 16  1  0  0  0  0
 15 18  1  0  0  0  0
 16 19  1  0  0  0  0
 17 20  1  0  0  0  0
 17 16  2  0  0  0  0
 21 27  1  0  0  0  0
 21 22  1  0  0  0  0
 22 28  1  0  0  0  0
 23 22  2  0  0  0  0
 23 13  1  0  0  0  0
 24 23  1  0  0  0  0
 25 26  1  0  0  0  0
 25 24  2  0  0  0  0
 26 21  2  0  0  0  0
 29 25  1  0  0  0  0
 30  1  1  0  0  0  0
 30 31  2  0  0  0  0
 32 30  2  0  0  0  0
 34 35  1  0  0  0  0
 34 33  1  0  0  0  0
 35 30  1  0  0  0  0
 36 35  2  0  0  0  0
 37 36  1  0  0  0  0
 38 40  2  0  0  0  0
 38 36  1  0  0  0  0
 39 38  1  0  0  0  0
 40 41  1  0  0  0  0
 41 34  2  0  0  0  0
M  END
>  <minimizedAffinity>
-6.02942181

$$$$

 OpenBabel03252509103D

 41 44  0  0  0  0  0  0  0  0999 V2000
   36.6160   29.4440   39.3890 C   0  0  0  0  0  0  0  0  0  0  0  0
   36.6910   28.1860   39.9180 C   0  0  0  0  0  0  0  0  0  0  0  0
   36.2350   27.1000   39.1870 C   0  0  0  0  0  0  0  0  0  0  0  0
   35.7080   27.2860   37.9320 C   0  0  0  0  0  0  0  0  0  0  0  0
   35.6130   28.5490   37.3550 C   0  0  0  0  0  0  0  0  0  0  0  0
   36.0800   29.6270   38.1110 C   0  0  0  0  0  0  0  0  0  0  0  0
   36.2830   26.0930   39.5850 H   0  0  0  0  0  0  0  0  0  0  0  0
   35.3580   26.4530   37.3700 H   0  0  0  0  0  0  0  0  0  0  0  0
   35.2190   28.7730   36.3880 H   0  0  0  0  0  0  0  0  0  0  0  0
   36.0190   30.6340   37.6840 H   0  0  0  0  0  0  0  0  0  0  0  0
   40.6310   26.4850   42.7860 Cl  0  0  0  0  0  0  0  0  0  0  0  0
   39.0150   27.1010   42.5550 C   0  0  0  0  0  0  0  0  0  0  0  0
   38.5430   27.3890   41.3190 C   0  0  0  0  0  0  0  0  0  0  0  0
   37.2470   27.8830   41.2320 C   0  0  0  0  0  0  0  0  0  0  0  0
   36.4660   28.0790   42.3440 C   0  0  0  0  0  0  0  0  0  0  0  0
   36.9500   27.7860   43.5770 C   0  0  0  0  0  0  0  0  0  0  0  0
   38.2450   27.2890   43.6800 C   0  0  0  0  0  0  0  0  0  0  0  0
   35.4680   28.4680   42.2100 H   0  0  0  0  0  0  0  0  0  0  0  0
   36.3180   27.9470   44.4350 H   0  0  0  0  0  0  0  0  0  0  0  0
   38.5900   27.0680   44.6840 H   0  0  0  0  0  0  0  0  0  0  0  0
   41.0420   27.9510   38.5410 C   0  0  0  0  0  0  0  0  0  0  0  0
   40.2180   28.1710   39.6480 C   0  0  0  0  0  0  0  0  0  0  0  0
   39.4000   27.1910   40.1620 C   0  0  0  0  0  0  0  0  0  0  0  0
   39.4800   26.0380   39.4990 N   0  0  0  0  0  0  0  0  0  0  0  0
   40.2530   25.7900   38.4420 C   0  0  0  0  0  0  0  0  0  0  0  0
   41.0280   26.7570   37.9740 N   0  0  0  0  0  0  0  0  0  0  0  0
   41.6730   28.7300   38.1550 H   0  0  0  0  0  0  0  0  0  0  0  0
   40.2340   29.1620   40.1100 H   0  0  0  0  0  0  0  0  0  0  0  0
   40.1340   24.7700   38.0880 H   0  0  0  0  0  0  0  0  0  0  0  0
   37.1910   30.7880   40.2200 S   0  0  0  0  0  0  0  0  0  0  0  0
   36.9490   32.0720   39.4460 O   0  0  0  0  0  0  0  0  0  0  0  0
   36.1990   30.9210   41.4300 O   0  0  0  0  0  0  0  0  0  0  0  0
   38.5660   30.4110   43.0660 F   0  0  0  0  0  0  0  0  0  0  0  0
   39.4050   30.7990   42.0780 C   0  0  0  0  0  0  0  0  0  0  0  0
   38.7110   31.0290   40.9120 C   0  0  0  0  0  0  0  0  0  0  0  0
   39.6850   31.5940   40.0200 C   0  0  0  0  0  0  0  0  0  0  0  0
   39.3790   31.8820   38.9860 H   0  0  0  0  0  0  0  0  0  0  0  0
   41.0480   31.8730   40.2150 C   0  0  0  0  0  0  0  0  0  0  0  0
   41.6520   32.3000   39.4430 H   0  0  0  0  0  0  0  0  0  0  0  0
   41.5020   31.5460   41.4680 C   0  0  0  0  0  3  0  0  0  0  0  0
   40.7000   31.0000   42.4410 C   0  0  0  0  0  3  0  0  0  0  0  0
  1  2  1  0  0  0  0
  1 30  1  0  0  0  0
  2 14  1  0  0  0  0
  3  7  1  0  0  0  0
  3  2  2  0  0  0  0
  4  3  1  0  0  0  0
  5  4  2  0  0  0  0
  5  6  1  0  0  0  0
  6  1  2  0  0  0  0
  8  4  1  0  0  0  0
  9  5  1  0  0  0  0
 10  6  1  0  0  0  0
 12 11  1  0  0  0  0
 12 17  1  0  0  0  0
 13 12  2  0  0  0  0
 14 13  1  0  0  0  0
 14 15  2  0  0  0  0
 15 16  1  0  0  0  0
 16 17  2  0  0  0  0
 16 19  1  0  0  0  0
 17 20  1  0  0  0  0
 18 15  1  0  0  0  0
 21 22  1  0  0  0  0
 22 28  1  0  0  0  0
 22 23  2  0  0  0  0
 23 13  1  0  0  0  0
 24 23  1  0  0  0  0
 25 24  2  0  0  0  0
 26 25  1  0  0  0  0
 26 21  2  0  0  0  0
 27 21  1  0  0  0  0
 29 25  1  0  0  0  0
 30 35  1  0  0  0  0
 30 32  2  0  0  0  0
 31 30  2  0  0  0  0
 34 41  1  0  0  0  0
 34 33  1  0  0  0  0
 35 34  2  0  0  0  0
 36 38  2  0  0  0  0
 36 35  1  0  0  0  0
 37 36  1  0  0  0  0
 38 40  1  0  0  0  0
 39 38  1  0  0  0  0
 40 41  2  0  0  0  0
M  END
>  <minimizedAffinity>
-5.9579134

$$$$
