
 OpenBabel03252506373D

 44 47  0  0  1  0  0  0  0  0999 V2000
   44.5010   35.5580   45.1300 C   0  0  0  0  0  0  0  0  0  0  0  0
   45.1530   35.5400   43.8830 C   0  0  0  0  0  0  0  0  0  0  0  0
   46.0680   34.5780   43.6260 C   0  0  0  0  0  0  0  0  0  0  0  0
   46.3060   33.6710   44.6030 N   0  0  0  0  0  0  0  0  0  0  0  0
   45.6900   33.6880   45.7760 C   0  0  0  0  0  0  0  0  0  0  0  0
   44.7830   34.6270   46.0560 N   0  0  0  0  0  0  0  0  0  0  0  0
   46.0180   32.6800   46.7470 N   0  0  0  0  0  0  0  0  0  0  0  0
   45.2740   32.4420   47.9370 C   0  0  0  0  0  0  0  0  0  0  0  0
   46.3510   32.0730   48.9420 C   0  0  0  0  0  0  0  0  0  0  0  0
   47.6260   31.9790   48.1820 C   0  0  0  0  0  0  0  0  0  0  0  0
   47.1330   31.7640   46.7490 C   0  0  1  0  0  0  0  0  0  0  0  0
   43.7720   36.3430   45.3070 H   0  0  0  0  0  0  0  0  0  0  0  0
   46.5850   34.5390   42.6770 H   0  0  0  0  0  0  0  0  0  0  0  0
   44.3900   31.8840   47.9850 H   0  0  0  0  0  0  0  0  0  0  0  0
   44.9630   33.4770   48.2990 H   0  0  0  0  0  0  0  0  0  0  0  0
   46.3530   32.6590   49.8540 H   0  0  0  0  0  0  0  0  0  0  0  0
   46.0910   31.0190   49.2560 H   0  0  0  0  0  0  0  0  0  0  0  0
   48.2820   31.1540   48.5140 H   0  0  0  0  0  0  0  0  0  0  0  0
   48.1380   32.9580   48.2580 H   0  0  0  0  0  0  0  0  0  0  0  0
   47.9670   32.0520   46.1010 H   0  0  0  0  0  0  0  0  0  0  0  0
   44.8060   36.5660   42.9350 N   0  0  0  0  0  0  0  0  0  0  0  0
   44.6610   36.2560   41.9380 H   0  0  0  0  0  0  0  0  0  0  0  0
   44.6930   37.5650   43.1710 H   0  0  0  0  0  0  0  0  0  0  0  0
   46.6190   30.0720   46.5630 S   0  0  0  0  0  0  0  0  0  0  0  0
   45.7680   30.6090   43.3830 O   0  0  0  0  0  0  0  0  0  0  0  0
   45.0940   30.0430   44.2610 C   0  0  0  0  0  0  0  0  0  0  0  0
   45.1190   29.7860   45.7170 C   0  0  1  0  0  0  0  0  0  0  0  0
   44.5870   28.3760   45.7890 C   0  0  0  0  0  0  0  0  0  0  0  0
   43.3120   28.5940   44.9640 C   0  0  0  0  0  0  0  0  0  0  0  0
   43.8730   29.3860   43.8750 N   0  0  0  0  0  0  0  0  0  0  0  0
   44.2110   30.3680   46.0440 H   0  0  0  0  0  0  0  0  0  0  0  0
   44.3090   28.0490   46.7940 H   0  0  0  0  0  0  0  0  0  0  0  0
   45.2310   27.6510   45.2550 H   0  0  0  0  0  0  0  0  0  0  0  0
   42.9580   27.6250   44.5650 H   0  0  0  0  0  0  0  0  0  0  0  0
   42.5590   29.1390   45.5550 H   0  0  0  0  0  0  0  0  0  0  0  0
   44.1960   27.5780   41.7240 F   0  0  0  0  0  0  0  0  0  0  0  0
   43.3140   28.5770   41.5540 C   0  0  0  0  0  0  0  0  0  0  0  0
   43.1890   29.4230   42.6110 C   0  0  0  0  0  0  0  0  0  0  0  0
   42.2940   30.4960   42.5280 C   0  0  0  0  0  0  0  0  0  0  0  0
   42.1340   31.2240   43.3350 H   0  0  0  0  0  0  0  0  0  0  0  0
   41.5260   30.7150   41.3800 C   0  0  0  0  0  0  0  0  0  0  0  0
   40.8400   31.5520   41.3370 H   0  0  0  0  0  0  0  0  0  0  0  0
   41.6630   29.8380   40.2980 C   0  0  0  0  0  3  0  0  0  0  0  0
   42.5620   28.7960   40.4360 C   0  0  0  0  0  3  0  0  0  0  0  0
  1 12  1  0  0  0  0
  1  6  1  0  0  0  0
  2  1  2  0  0  0  0
  3  2  1  0  0  0  0
  3  4  2  0  0  0  0
  4  5  1  0  0  0  0
  5  6  2  0  0  0  0
  5  7  1  0  0  0  0
  7 11  1  0  0  0  0
  7  8  1  0  0  0  0
  8 14  1  0  0  0  0
  8 15  1  0  0  0  0
  8  9  1  0  0  0  0
  9 17  1  0  0  0  0
  9 16  1  0  0  0  0
 10 19  1  0  0  0  0
 10 18  1  0  0  0  0
 10  9  1  0  0  0  0
 11 20  1  6  0  0  0
 11 10  1  0  0  0  0
 13  3  1  0  0  0  0
 21 23  1  0  0  0  0
 21  2  1  0  0  0  0
 22 21  1  0  0  0  0
 24 11  1  0  0  0  0
 25 26  2  0  0  0  0
 26 27  1  0  0  0  0
 27 28  1  0  0  0  0
 27 31  1  1  0  0  0
 27 24  1  0  0  0  0
 28 32  1  0  0  0  0
 29 35  1  0  0  0  0
 29 28  1  0  0  0  0
 30 26  1  0  0  0  0
 30 29  1  0  0  0  0
 33 28  1  0  0  0  0
 34 29  1  0  0  0  0
 37 36  1  0  0  0  0
 37 38  1  0  0  0  0
 38 30  1  0  0  0  0
 39 38  2  0  0  0  0
 39 40  1  0  0  0  0
 41 39  1  0  0  0  0
 42 41  1  0  0  0  0
 43 44  1  0  0  0  0
 43 41  2  0  0  0  0
 44 37  2  0  0  0  0
M  END
>  <minimizedAffinity>
-5.32825041

>  <minimizedRMSD>
0.313403904

$$$$
