
 OpenBabel03252506373D

 44 47  0  0  1  0  0  0  0  0999 V2000
   44.5040   35.5200   45.1300 C   0  0  0  0  0  0  0  0  0  0  0  0
   45.1590   35.5110   43.8840 C   0  0  0  0  0  0  0  0  0  0  0  0
   46.0800   34.5550   43.6260 C   0  0  0  0  0  0  0  0  0  0  0  0
   46.3220   33.6470   44.6020 N   0  0  0  0  0  0  0  0  0  0  0  0
   45.7050   33.6570   45.7730 C   0  0  0  0  0  0  0  0  0  0  0  0
   44.7910   34.5900   46.0540 N   0  0  0  0  0  0  0  0  0  0  0  0
   46.0380   32.6490   46.7420 N   0  0  0  0  0  0  0  0  0  0  0  0
   45.2930   32.4040   47.9310 C   0  0  0  0  0  0  0  0  0  0  0  0
   46.3710   32.0390   48.9360 C   0  0  0  0  0  0  0  0  0  0  0  0
   47.6480   31.9550   48.1780 C   0  0  0  0  0  0  0  0  0  0  0  0
   47.1590   31.7410   46.7430 C   0  0  1  0  0  0  0  0  0  0  0  0
   43.7700   36.3010   45.3070 H   0  0  0  0  0  0  0  0  0  0  0  0
   46.5990   34.5220   42.6780 H   0  0  0  0  0  0  0  0  0  0  0  0
   44.4130   31.8390   47.9760 H   0  0  0  0  0  0  0  0  0  0  0  0
   44.9750   33.4350   48.2940 H   0  0  0  0  0  0  0  0  0  0  0  0
   46.3680   32.6230   49.8500 H   0  0  0  0  0  0  0  0  0  0  0  0
   46.1180   30.9830   49.2470 H   0  0  0  0  0  0  0  0  0  0  0  0
   48.3090   31.1330   48.5090 H   0  0  0  0  0  0  0  0  0  0  0  0
   48.1540   32.9370   48.2580 H   0  0  0  0  0  0  0  0  0  0  0  0
   47.9920   32.0360   46.0980 H   0  0  0  0  0  0  0  0  0  0  0  0
   44.8060   36.5360   42.9380 N   0  0  0  0  0  0  0  0  0  0  0  0
   44.6650   36.2280   41.9400 H   0  0  0  0  0  0  0  0  0  0  0  0
   44.6860   37.5340   43.1760 H   0  0  0  0  0  0  0  0  0  0  0  0
   46.6560   30.0460   46.5520 S   0  0  0  0  0  0  0  0  0  0  0  0
   45.6470   30.5410   43.4120 O   0  0  0  0  0  0  0  0  0  0  0  0
   45.0160   29.9920   44.3320 C   0  0  0  0  0  0  0  0  0  0  0  0
   45.1140   29.7550   45.7890 C   0  0  1  0  0  0  0  0  0  0  0  0
   44.5790   28.3500   45.9080 C   0  0  0  0  0  0  0  0  0  0  0  0
   43.2650   28.5630   45.1460 C   0  0  0  0  0  0  0  0  0  0  0  0
   43.7740   29.3360   44.0180 N   0  0  0  0  0  0  0  0  0  0  0  0
   44.2260   30.3480   46.1520 H   0  0  0  0  0  0  0  0  0  0  0  0
   44.3510   28.0390   46.9310 H   0  0  0  0  0  0  0  0  0  0  0  0
   45.1910   27.6140   45.3530 H   0  0  0  0  0  0  0  0  0  0  0  0
   42.8860   27.5910   44.7800 H   0  0  0  0  0  0  0  0  0  0  0  0
   42.5450   29.1210   45.7660 H   0  0  0  0  0  0  0  0  0  0  0  0
   44.4250   27.9870   41.6190 F   0  0  0  0  0  0  0  0  0  0  0  0
   43.3030   28.7270   41.6180 C   0  0  0  0  0  0  0  0  0  0  0  0
   43.0260   29.3580   42.7900 C   0  0  0  0  0  0  0  0  0  0  0  0
   41.8790   30.1530   42.8870 C   0  0  0  0  0  0  0  0  0  0  0  0
   41.5840   30.6950   43.7960 H   0  0  0  0  0  0  0  0  0  0  0  0
   41.0100   30.3100   41.8010 C   0  0  0  0  0  0  0  0  0  0  0  0
   40.1270   30.9290   41.8980 H   0  0  0  0  0  0  0  0  0  0  0  0
   41.3040   29.6560   40.6000 C   0  0  0  0  0  3  0  0  0  0  0  0
   42.4520   28.8840   40.5630 C   0  0  0  0  0  3  0  0  0  0  0  0
  1 12  1  0  0  0  0
  1  6  1  0  0  0  0
  2  1  2  0  0  0  0
  3  2  1  0  0  0  0
  3  4  2  0  0  0  0
  4  5  1  0  0  0  0
  5  6  2  0  0  0  0
  5  7  1  0  0  0  0
  7 11  1  0  0  0  0
  7  8  1  0  0  0  0
  8 14  1  0  0  0  0
  8 15  1  0  0  0  0
  8  9  1  0  0  0  0
  9 17  1  0  0  0  0
  9 16  1  0  0  0  0
 10 19  1  0  0  0  0
 10 18  1  0  0  0  0
 10  9  1  0  0  0  0
 11 20  1  6  0  0  0
 11 10  1  0  0  0  0
 13  3  1  0  0  0  0
 21 23  1  0  0  0  0
 21  2  1  0  0  0  0
 22 21  1  0  0  0  0
 24 11  1  0  0  0  0
 25 26  2  0  0  0  0
 26 27  1  0  0  0  0
 27 28  1  0  0  0  0
 27 31  1  1  0  0  0
 27 24  1  0  0  0  0
 28 32  1  0  0  0  0
 29 35  1  0  0  0  0
 29 28  1  0  0  0  0
 30 26  1  0  0  0  0
 30 29  1  0  0  0  0
 33 28  1  0  0  0  0
 34 29  1  0  0  0  0
 37 36  1  0  0  0  0
 37 38  1  0  0  0  0
 38 39  2  0  0  0  0
 38 30  1  0  0  0  0
 39 40  1  0  0  0  0
 41 42  1  0  0  0  0
 41 39  1  0  0  0  0
 43 41  2  0  0  0  0
 44 43  1  0  0  0  0
 44 37  2  0  0  0  0
M  END
>  <minimizedAffinity>
-5.35319901

>  <minimizedRMSD>
0.100081287

$$$$
