
 OpenBabel03252506373D

 44 47  0  0  1  0  0  0  0  0999 V2000
   44.4990   35.5550   45.1310 C   0  0  0  0  0  0  0  0  0  0  0  0
   45.1470   35.5440   43.8810 C   0  0  0  0  0  0  0  0  0  0  0  0
   46.0610   34.5840   43.6170 C   0  0  0  0  0  0  0  0  0  0  0  0
   46.3030   33.6720   44.5890 N   0  0  0  0  0  0  0  0  0  0  0  0
   45.6910   33.6840   45.7640 C   0  0  0  0  0  0  0  0  0  0  0  0
   44.7840   34.6210   46.0510 N   0  0  0  0  0  0  0  0  0  0  0  0
   46.0230   32.6710   46.7290 N   0  0  0  0  0  0  0  0  0  0  0  0
   45.2820   32.4270   47.9200 C   0  0  0  0  0  0  0  0  0  0  0  0
   46.3620   32.0540   48.9200 C   0  0  0  0  0  0  0  0  0  0  0  0
   47.6350   31.9640   48.1550 C   0  0  0  0  0  0  0  0  0  0  0  0
   47.1380   31.7560   46.7230 C   0  0  1  0  0  0  0  0  0  0  0  0
   43.7700   36.3400   45.3130 H   0  0  0  0  0  0  0  0  0  0  0  0
   46.5750   34.5490   42.6660 H   0  0  0  0  0  0  0  0  0  0  0  0
   44.3990   31.8680   47.9690 H   0  0  0  0  0  0  0  0  0  0  0  0
   44.9720   33.4600   48.2880 H   0  0  0  0  0  0  0  0  0  0  0  0
   46.3680   32.6360   49.8350 H   0  0  0  0  0  0  0  0  0  0  0  0
   46.1040   30.9990   49.2300 H   0  0  0  0  0  0  0  0  0  0  0  0
   48.2920   31.1370   48.4820 H   0  0  0  0  0  0  0  0  0  0  0  0
   48.1470   32.9420   48.2350 H   0  0  0  0  0  0  0  0  0  0  0  0
   47.9690   32.0470   46.0740 H   0  0  0  0  0  0  0  0  0  0  0  0
   44.7960   36.5750   42.9390 N   0  0  0  0  0  0  0  0  0  0  0  0
   44.6480   36.2690   41.9410 H   0  0  0  0  0  0  0  0  0  0  0  0
   44.6840   37.5720   43.1800 H   0  0  0  0  0  0  0  0  0  0  0  0
   46.6240   30.0640   46.5300 S   0  0  0  0  0  0  0  0  0  0  0  0
   45.7090   30.6330   43.3740 O   0  0  0  0  0  0  0  0  0  0  0  0
   45.0540   30.0560   44.2590 C   0  0  0  0  0  0  0  0  0  0  0  0
   45.1080   29.7820   45.7110 C   0  0  1  0  0  0  0  0  0  0  0  0
   44.5810   28.3700   45.7780 C   0  0  0  0  0  0  0  0  0  0  0  0
   43.2890   28.5930   44.9810 C   0  0  0  0  0  0  0  0  0  0  0  0
   43.8270   29.3990   43.8900 N   0  0  0  0  0  0  0  0  0  0  0  0
   44.2050   30.3590   46.0620 H   0  0  0  0  0  0  0  0  0  0  0  0
   44.3240   28.0320   46.7850 H   0  0  0  0  0  0  0  0  0  0  0  0
   45.2170   27.6530   45.2240 H   0  0  0  0  0  0  0  0  0  0  0  0
   42.9310   27.6280   44.5780 H   0  0  0  0  0  0  0  0  0  0  0  0
   42.5460   29.1300   45.5920 H   0  0  0  0  0  0  0  0  0  0  0  0
   44.2750   27.7620   41.6280 F   0  0  0  0  0  0  0  0  0  0  0  0
   43.3010   28.6820   41.5310 C   0  0  0  0  0  0  0  0  0  0  0  0
   43.1180   29.4470   42.6390 C   0  0  0  0  0  0  0  0  0  0  0  0
   42.1260   30.4350   42.6350 C   0  0  0  0  0  0  0  0  0  0  0  0
   41.9150   31.0950   43.4890 H   0  0  0  0  0  0  0  0  0  0  0  0
   41.3190   30.6490   41.5140 C   0  0  0  0  0  0  0  0  0  0  0  0
   40.5570   31.4180   41.5320 H   0  0  0  0  0  0  0  0  0  0  0  0
   41.5150   29.8560   40.3780 C   0  0  0  0  0  3  0  0  0  0  0  0
   42.5100   28.8960   40.4400 C   0  0  0  0  0  3  0  0  0  0  0  0
  1 12  1  0  0  0  0
  1  6  1  0  0  0  0
  2  1  2  0  0  0  0
  3  2  1  0  0  0  0
  3  4  2  0  0  0  0
  4  5  1  0  0  0  0
  5  6  2  0  0  0  0
  5  7  1  0  0  0  0
  7  8  1  0  0  0  0
  8 14  1  0  0  0  0
  8 15  1  0  0  0  0
  8  9  1  0  0  0  0
  9 17  1  0  0  0  0
  9 16  1  0  0  0  0
 10 19  1  0  0  0  0
 10 18  1  0  0  0  0
 10  9  1  0  0  0  0
 11 20  1  6  0  0  0
 11  7  1  0  0  0  0
 11 10  1  0  0  0  0
 13  3  1  0  0  0  0
 21 23  1  0  0  0  0
 21  2  1  0  0  0  0
 22 21  1  0  0  0  0
 24 11  1  0  0  0  0
 25 26  2  0  0  0  0
 26 27  1  0  0  0  0
 27 28  1  0  0  0  0
 27 31  1  1  0  0  0
 27 24  1  0  0  0  0
 28 32  1  0  0  0  0
 29 35  1  0  0  0  0
 29 28  1  0  0  0  0
 30 26  1  0  0  0  0
 30 29  1  0  0  0  0
 33 28  1  0  0  0  0
 34 29  1  0  0  0  0
 37 36  1  0  0  0  0
 37 38  1  0  0  0  0
 38 30  1  0  0  0  0
 39 38  2  0  0  0  0
 39 40  1  0  0  0  0
 41 42  1  0  0  0  0
 41 39  1  0  0  0  0
 43 44  1  0  0  0  0
 43 41  2  0  0  0  0
 44 37  2  0  0  0  0
M  END
>  <minimizedAffinity>
-5.3322072

>  <minimizedRMSD>
0.889735639

$$$$
