
 OpenBabel03252506373D

 44 47  0  0  1  0  0  0  0  0999 V2000
   44.5010   35.5470   45.1280 C   0  0  0  0  0  0  0  0  0  0  0  0
   45.1470   35.5400   43.8780 C   0  0  0  0  0  0  0  0  0  0  0  0
   46.0600   34.5800   43.6080 C   0  0  0  0  0  0  0  0  0  0  0  0
   46.3030   33.6640   44.5770 N   0  0  0  0  0  0  0  0  0  0  0  0
   45.6940   33.6730   45.7530 C   0  0  0  0  0  0  0  0  0  0  0  0
   44.7880   34.6090   46.0450 N   0  0  0  0  0  0  0  0  0  0  0  0
   46.0270   32.6570   46.7140 N   0  0  0  0  0  0  0  0  0  0  0  0
   45.2890   32.4100   47.9070 C   0  0  0  0  0  0  0  0  0  0  0  0
   46.3710   32.0340   48.9030 C   0  0  0  0  0  0  0  0  0  0  0  0
   47.6430   31.9460   48.1360 C   0  0  0  0  0  0  0  0  0  0  0  0
   47.1430   31.7420   46.7030 C   0  0  1  0  0  0  0  0  0  0  0  0
   43.7720   36.3300   45.3150 H   0  0  0  0  0  0  0  0  0  0  0  0
   46.5730   34.5480   42.6560 H   0  0  0  0  0  0  0  0  0  0  0  0
   44.4060   31.8510   47.9550 H   0  0  0  0  0  0  0  0  0  0  0  0
   44.9800   33.4420   48.2780 H   0  0  0  0  0  0  0  0  0  0  0  0
   46.3780   32.6120   49.8200 H   0  0  0  0  0  0  0  0  0  0  0  0
   46.1140   30.9770   49.2100 H   0  0  0  0  0  0  0  0  0  0  0  0
   48.3000   31.1180   48.4590 H   0  0  0  0  0  0  0  0  0  0  0  0
   48.1550   32.9240   48.2170 H   0  0  0  0  0  0  0  0  0  0  0  0
   47.9730   32.0350   46.0540 H   0  0  0  0  0  0  0  0  0  0  0  0
   44.7940   36.5730   42.9390 N   0  0  0  0  0  0  0  0  0  0  0  0
   44.6440   36.2700   41.9410 H   0  0  0  0  0  0  0  0  0  0  0  0
   44.6820   37.5690   43.1840 H   0  0  0  0  0  0  0  0  0  0  0  0
   46.6280   30.0510   46.5070 S   0  0  0  0  0  0  0  0  0  0  0  0
   45.6660   30.5850   43.3580 O   0  0  0  0  0  0  0  0  0  0  0  0
   45.0210   30.0270   44.2620 C   0  0  0  0  0  0  0  0  0  0  0  0
   45.0960   29.7730   45.7170 C   0  0  1  0  0  0  0  0  0  0  0  0
   44.5570   28.3670   45.8120 C   0  0  0  0  0  0  0  0  0  0  0  0
   43.2540   28.5920   45.0330 C   0  0  0  0  0  0  0  0  0  0  0  0
   43.7810   29.3770   43.9230 N   0  0  0  0  0  0  0  0  0  0  0  0
   44.2050   30.3630   46.0740 H   0  0  0  0  0  0  0  0  0  0  0  0
   44.3130   28.0450   46.8280 H   0  0  0  0  0  0  0  0  0  0  0  0
   45.1760   27.6360   45.2580 H   0  0  0  0  0  0  0  0  0  0  0  0
   42.8800   27.6260   44.6500 H   0  0  0  0  0  0  0  0  0  0  0  0
   42.5270   29.1450   45.6490 H   0  0  0  0  0  0  0  0  0  0  0  0
   44.0850   27.6200   41.7270 F   0  0  0  0  0  0  0  0  0  0  0  0
   43.1670   28.5930   41.6060 C   0  0  0  0  0  0  0  0  0  0  0  0
   43.0520   29.4150   42.6830 C   0  0  0  0  0  0  0  0  0  0  0  0
   42.1220   30.4610   42.6530 C   0  0  0  0  0  0  0  0  0  0  0  0
   41.9680   31.1680   43.4790 H   0  0  0  0  0  0  0  0  0  0  0  0
   41.3080   30.6760   41.5360 C   0  0  0  0  0  0  0  0  0  0  0  0
   40.5950   31.4910   41.5330 H   0  0  0  0  0  0  0  0  0  0  0  0
   41.4330   29.8240   40.4330 C   0  0  0  0  0  3  0  0  0  0  0  0
   42.3700   28.8080   40.5200 C   0  0  0  0  0  3  0  0  0  0  0  0
  1 12  1  0  0  0  0
  1  6  1  0  0  0  0
  2  1  2  0  0  0  0
  3  2  1  0  0  0  0
  3  4  2  0  0  0  0
  4  5  1  0  0  0  0
  5  6  2  0  0  0  0
  5  7  1  0  0  0  0
  7  8  1  0  0  0  0
  8 14  1  0  0  0  0
  8 15  1  0  0  0  0
  8  9  1  0  0  0  0
  9 17  1  0  0  0  0
  9 16  1  0  0  0  0
 10 19  1  0  0  0  0
 10 18  1  0  0  0  0
 10  9  1  0  0  0  0
 11 20  1  6  0  0  0
 11  7  1  0  0  0  0
 11 10  1  0  0  0  0
 13  3  1  0  0  0  0
 21 23  1  0  0  0  0
 21  2  1  0  0  0  0
 22 21  1  0  0  0  0
 24 11  1  0  0  0  0
 25 26  2  0  0  0  0
 26 27  1  0  0  0  0
 27 28  1  0  0  0  0
 27 31  1  1  0  0  0
 27 24  1  0  0  0  0
 28 32  1  0  0  0  0
 29 35  1  0  0  0  0
 29 28  1  0  0  0  0
 30 26  1  0  0  0  0
 30 29  1  0  0  0  0
 33 28  1  0  0  0  0
 34 29  1  0  0  0  0
 37 36  1  0  0  0  0
 37 38  1  0  0  0  0
 38 30  1  0  0  0  0
 39 38  2  0  0  0  0
 39 40  1  0  0  0  0
 41 39  1  0  0  0  0
 42 41  1  0  0  0  0
 43 44  1  0  0  0  0
 43 41  2  0  0  0  0
 44 37  2  0  0  0  0
M  END
>  <minimizedAffinity>
-5.32910061

>  <minimizedRMSD>
0.181615114

$$$$
