
 OpenBabel03252506373D

 44 47  0  0  1  0  0  0  0  0999 V2000
   44.5040   35.5230   45.1310 C   0  0  0  0  0  0  0  0  0  0  0  0
   45.1580   35.5140   43.8850 C   0  0  0  0  0  0  0  0  0  0  0  0
   46.0790   34.5580   43.6260 C   0  0  0  0  0  0  0  0  0  0  0  0
   46.3220   33.6490   44.6010 N   0  0  0  0  0  0  0  0  0  0  0  0
   45.7040   33.6600   45.7730 C   0  0  0  0  0  0  0  0  0  0  0  0
   44.7910   34.5920   46.0540 N   0  0  0  0  0  0  0  0  0  0  0  0
   46.0370   32.6510   46.7410 N   0  0  0  0  0  0  0  0  0  0  0  0
   45.2930   32.4050   47.9290 C   0  0  0  0  0  0  0  0  0  0  0  0
   46.3700   32.0390   48.9350 C   0  0  0  0  0  0  0  0  0  0  0  0
   47.6470   31.9560   48.1770 C   0  0  0  0  0  0  0  0  0  0  0  0
   47.1580   31.7420   46.7420 C   0  0  1  0  0  0  0  0  0  0  0  0
   43.7690   36.3030   45.3080 H   0  0  0  0  0  0  0  0  0  0  0  0
   46.5980   34.5250   42.6780 H   0  0  0  0  0  0  0  0  0  0  0  0
   44.4120   31.8400   47.9750 H   0  0  0  0  0  0  0  0  0  0  0  0
   44.9740   33.4360   48.2940 H   0  0  0  0  0  0  0  0  0  0  0  0
   46.3670   32.6230   49.8490 H   0  0  0  0  0  0  0  0  0  0  0  0
   46.1170   30.9830   49.2460 H   0  0  0  0  0  0  0  0  0  0  0  0
   48.3080   31.1330   48.5080 H   0  0  0  0  0  0  0  0  0  0  0  0
   48.1530   32.9370   48.2570 H   0  0  0  0  0  0  0  0  0  0  0  0
   47.9910   32.0370   46.0970 H   0  0  0  0  0  0  0  0  0  0  0  0
   44.8060   36.5400   42.9390 N   0  0  0  0  0  0  0  0  0  0  0  0
   44.6640   36.2320   41.9410 H   0  0  0  0  0  0  0  0  0  0  0  0
   44.6860   37.5370   43.1780 H   0  0  0  0  0  0  0  0  0  0  0  0
   46.6550   30.0470   46.5500 S   0  0  0  0  0  0  0  0  0  0  0  0
   45.6580   30.5500   43.4080 O   0  0  0  0  0  0  0  0  0  0  0  0
   45.0240   29.9980   44.3230 C   0  0  0  0  0  0  0  0  0  0  0  0
   45.1160   29.7570   45.7800 C   0  0  1  0  0  0  0  0  0  0  0  0
   44.5820   28.3510   45.8930 C   0  0  0  0  0  0  0  0  0  0  0  0
   43.2700   28.5650   45.1260 C   0  0  0  0  0  0  0  0  0  0  0  0
   43.7830   29.3410   44.0030 N   0  0  0  0  0  0  0  0  0  0  0  0
   44.2260   30.3480   46.1410 H   0  0  0  0  0  0  0  0  0  0  0  0
   44.3500   28.0370   46.9140 H   0  0  0  0  0  0  0  0  0  0  0  0
   45.1970   27.6170   45.3380 H   0  0  0  0  0  0  0  0  0  0  0  0
   42.8940   27.5930   44.7560 H   0  0  0  0  0  0  0  0  0  0  0  0
   42.5480   29.1200   45.7450 H   0  0  0  0  0  0  0  0  0  0  0  0
   44.4580   28.0200   41.5940 F   0  0  0  0  0  0  0  0  0  0  0  0
   43.3290   28.7480   41.5950 C   0  0  0  0  0  0  0  0  0  0  0  0
   43.0400   29.3660   42.7710 C   0  0  0  0  0  0  0  0  0  0  0  0
   41.8830   30.1470   42.8710 C   0  0  0  0  0  0  0  0  0  0  0  0
   41.5780   30.6790   43.7830 H   0  0  0  0  0  0  0  0  0  0  0  0
   41.0180   30.3040   41.7830 C   0  0  0  0  0  0  0  0  0  0  0  0
   40.1280   30.9130   41.8820 H   0  0  0  0  0  0  0  0  0  0  0  0
   41.3240   29.6640   40.5770 C   0  0  0  0  0  3  0  0  0  0  0  0
   42.4810   28.9050   40.5380 C   0  0  0  0  0  3  0  0  0  0  0  0
  1 12  1  0  0  0  0
  1  6  1  0  0  0  0
  2  1  2  0  0  0  0
  3  2  1  0  0  0  0
  3  4  2  0  0  0  0
  4  5  1  0  0  0  0
  5  6  2  0  0  0  0
  5  7  1  0  0  0  0
  7 11  1  0  0  0  0
  7  8  1  0  0  0  0
  8 14  1  0  0  0  0
  8 15  1  0  0  0  0
  8  9  1  0  0  0  0
  9 17  1  0  0  0  0
  9 16  1  0  0  0  0
 10 19  1  0  0  0  0
 10 18  1  0  0  0  0
 10  9  1  0  0  0  0
 11 20  1  6  0  0  0
 11 10  1  0  0  0  0
 13  3  1  0  0  0  0
 21 23  1  0  0  0  0
 21  2  1  0  0  0  0
 22 21  1  0  0  0  0
 24 11  1  0  0  0  0
 25 26  2  0  0  0  0
 26 27  1  0  0  0  0
 27 28  1  0  0  0  0
 27 31  1  1  0  0  0
 27 24  1  0  0  0  0
 28 32  1  0  0  0  0
 29 35  1  0  0  0  0
 29 28  1  0  0  0  0
 30 26  1  0  0  0  0
 30 29  1  0  0  0  0
 33 28  1  0  0  0  0
 34 29  1  0  0  0  0
 36 37  1  0  0  0  0
 37 38  1  0  0  0  0
 38 39  2  0  0  0  0
 38 30  1  0  0  0  0
 39 40  1  0  0  0  0
 41 42  1  0  0  0  0
 41 39  1  0  0  0  0
 43 41  2  0  0  0  0
 44 43  1  0  0  0  0
 44 37  2  0  0  0  0
M  END
>  <minimizedAffinity>
-5.34823132

>  <minimizedRMSD>
0.17595841

$$$$
