
 OpenBabel03242523263D

 45 48  0  0  1  0  0  0  0  0999 V2000
   46.2180   33.8150   43.1610 C   0  0  0  0  0  0  0  0  0  0  0  0
   47.5220   33.6330   43.2300 C   0  0  0  0  0  0  0  0  0  0  0  0
   47.9160   32.4790   43.8890 C   0  0  0  0  0  0  0  0  0  0  0  0
   46.9000   31.6450   44.4060 N   0  0  0  0  0  0  0  0  0  0  0  0
   45.6190   31.8970   44.3000 C   0  0  0  0  0  0  0  0  0  0  0  0
   45.2070   33.0440   43.6420 N   0  0  0  0  0  0  0  0  0  0  0  0
   48.9320   32.1500   44.0490 H   0  0  0  0  0  0  0  0  0  0  0  0
   44.9660   31.1620   44.7490 H   0  0  0  0  0  0  0  0  0  0  0  0
   48.5650   34.5360   42.8090 C   0  0  1  0  0  0  0  0  0  0  0  0
   49.8790   34.2600   42.6440 C   0  0  0  0  0  0  0  0  0  0  0  0
   49.1410   34.2500   41.3390 C   0  0  1  0  0  0  0  0  0  0  0  0
   48.1550   35.5970   42.8010 H   0  0  0  0  0  0  0  0  0  0  0  0
   50.6740   35.0330   42.7140 H   0  0  0  0  0  0  0  0  0  0  0  0
   50.3250   33.2640   42.9390 H   0  0  0  0  0  0  0  0  0  0  0  0
   49.2290   35.1510   40.7010 H   0  0  0  0  0  0  0  0  0  0  0  0
   48.7780   32.9940   40.7930 N   0  0  0  0  0  0  0  0  0  0  0  0
   47.9980   32.4450   41.2120 H   0  0  0  0  0  0  0  0  0  0  0  0
   51.0730   31.3020   40.9520 F   0  0  0  0  0  0  0  0  0  0  0  0
   50.5030   31.5670   39.7530 C   0  0  0  0  0  0  0  0  0  0  0  0
   49.3930   32.3820   39.6810 C   0  0  0  0  0  0  0  0  0  0  0  0
   48.9380   32.5440   38.3880 C   0  0  0  0  0  0  0  0  0  0  0  0
   48.0530   33.1800   38.2260 H   0  0  0  0  0  0  0  0  0  0  0  0
   49.4700   31.9940   37.2580 C   0  0  0  0  0  0  0  0  0  0  0  0
   49.0960   32.1380   36.2750 H   0  0  0  0  0  0  0  0  0  0  0  0
   50.5780   31.1950   37.4370 C   0  0  0  0  0  0  0  0  0  0  0  0
   51.1240   30.9590   38.6820 C   0  0  0  0  0  0  0  0  0  0  0  0
   45.5350   34.9320   42.4470 C   0  0  0  0  0  0  0  0  0  0  0  0
   45.1690   36.0590   42.3040 O   0  0  0  0  0  0  0  0  0  0  0  0
   42.5000   35.2330   41.9090 Cl  0  0  0  0  0  0  0  0  0  0  0  0
   43.5890   34.4280   40.7920 C   0  0  0  0  0  0  0  0  0  0  0  0
   44.9550   34.3780   41.1650 C   0  0  0  0  0  0  0  0  0  0  0  0
   45.6900   33.7360   40.2060 C   0  0  0  0  0  0  0  0  0  0  0  0
   45.3320   33.1920   39.0630 C   0  0  0  0  0  0  0  0  0  0  0  0
   43.9870   33.2680   38.7490 C   0  0  0  0  0  0  0  0  0  0  0  0
   43.1250   33.8750   39.5950 C   0  0  0  0  0  0  0  0  0  0  0  0
   46.7910   33.6570   40.4040 H   0  0  0  0  0  0  0  0  0  0  0  0
   46.0160   32.6940   38.3630 H   0  0  0  0  0  0  0  0  0  0  0  0
   43.6610   32.8180   37.7940 H   0  0  0  0  0  0  0  0  0  0  0  0
   41.8180   33.8930   39.1810 O   0  0  0  0  0  0  0  0  0  0  0  0
   39.8010   34.5060   37.6220 O   0  0  0  0  0  0  0  0  0  0  0  0
   40.9440   35.1060   38.3940 P   0  0  0  0  0  0  0  0  0  0  0  0
   40.3810   36.2110   39.5480 O   0  0  0  0  0  0  0  0  0  0  0  0
   39.5180   35.9150   39.9370 H   0  0  0  0  0  0  0  0  0  0  0  0
   41.9300   35.9950   37.3410 O   0  0  0  0  0  0  0  0  0  0  0  0
   41.8480   36.9620   37.4490 H   0  0  0  0  0  0  0  0  0  0  0  0
  1  2  2  0  0  0  0
  1  6  1  0  0  0  0
  2  3  1  0  0  0  0
  3  7  1  0  0  0  0
  3  4  2  0  0  0  0
  5  4  1  0  0  0  0
  5  8  1  0  0  0  0
  6  5  2  0  0  0  0
  9 12  1  1  0  0  0
  9  2  1  0  0  0  0
 10 13  1  0  0  0  0
 10  9  1  0  0  0  0
 10 14  1  0  0  0  0
 11 15  1  6  0  0  0
 11 10  1  0  0  0  0
 11  9  1  0  0  0  0
 16 17  1  0  0  0  0
 16 11  1  0  0  0  0
 19 18  1  0  0  0  0
 20 19  1  0  0  0  0
 20 16  1  0  0  0  0
 21 20  2  0  0  0  0
 22 21  1  0  0  0  0
 23 25  2  0  0  0  0
 23 21  1  0  0  0  0
 24 23  1  0  0  0  0
 25 26  1  0  0  0  0
 26 19  2  0  0  0  0
 27  1  1  0  0  0  0
 28 27  2  0  0  0  0
 30 31  1  0  0  0  0
 30 29  1  0  0  0  0
 31 27  1  0  0  0  0
 32 36  1  0  0  0  0
 32 31  2  0  0  0  0
 33 32  1  0  0  0  0
 34 33  2  0  0  0  0
 34 35  1  0  0  0  0
 35 30  2  0  0  0  0
 37 33  1  0  0  0  0
 38 34  1  0  0  0  0
 39 35  1  0  0  0  0
 40 41  2  0  0  0  0
 41 39  1  0  0  0  0
 41 42  1  0  0  0  0
 42 43  1  0  0  0  0
 44 45  1  0  0  0  0
 44 41  1  0  0  0  0
M  END
>  <minimizedAffinity>
-5.54211855

>  <minimizedRMSD>
3.58584166

$$$$
