
 OpenBabel03242523503D

 43 46  0  0  1  0  0  0  0  0999 V2000
   42.8060   34.4390   38.7310 C   0  0  1  0  0  0  0  0  0  0  0  0
   42.9960   35.1500   40.0700 C   0  0  1  0  0  0  0  0  0  0  0  0
   41.7320   35.5040   40.5830 O   0  0  0  0  0  0  0  0  0  0  0  0
   40.8230   35.8570   39.5900 C   0  0  0  0  0  0  0  0  0  0  0  0
   40.4120   34.6390   38.7750 C   0  0  2  0  0  0  0  0  0  0  0  0
   41.5500   33.6020   38.9070 C   0  0  1  0  0  0  0  0  0  0  0  0
   43.6710   33.7910   38.4930 H   0  0  0  0  0  0  0  0  0  0  0  0
   43.6380   36.0270   39.9660 H   0  0  0  0  0  0  0  0  0  0  0  0
   39.9230   36.1970   40.1040 H   0  0  0  0  0  0  0  0  0  0  0  0
   41.1700   36.7000   38.9670 H   0  0  0  0  0  0  0  0  0  0  0  0
   39.4550   34.2140   39.1050 H   0  0  0  0  0  0  0  0  0  0  0  0
   41.4920   33.1900   39.9270 H   0  0  0  0  0  0  0  0  0  0  0  0
   42.6190   35.3670   37.7080 O   0  0  0  0  0  0  0  0  0  0  0  0
   42.9570   34.9360   36.8860 H   0  0  0  0  0  0  0  0  0  0  0  0
   40.4270   35.0000   37.4250 O   0  0  0  0  0  0  0  0  0  0  0  0
   39.6710   34.5880   36.9270 H   0  0  0  0  0  0  0  0  0  0  0  0
   43.4740   34.1800   40.9600 O   0  0  0  0  0  0  0  0  0  0  0  0
   44.5800   34.2950   41.7030 C   0  0  0  0  0  0  0  0  0  0  0  0
   45.8310   34.4320   41.1060 C   0  0  0  0  0  0  0  0  0  0  0  0
   46.9510   34.5510   41.9140 C   0  0  0  0  0  0  0  0  0  0  0  0
   46.7990   34.5290   43.2930 N   0  0  0  0  0  0  0  0  0  0  0  0
   45.5750   34.3940   43.8310 C   0  0  0  0  0  0  0  0  0  0  0  0
   44.4700   34.2770   43.0540 N   0  0  0  0  0  0  0  0  0  0  0  0
   45.9560   34.4500   40.0460 H   0  0  0  0  0  0  0  0  0  0  0  0
   45.4170   34.3730   44.9080 H   0  0  0  0  0  0  0  0  0  0  0  0
   48.3250   34.6850   41.3220 C   0  0  0  0  0  0  0  0  0  0  0  0
   49.0440   35.9990   41.5200 C   0  0  0  0  0  0  0  0  0  0  0  0
   49.4790   34.6850   42.1800 C   0  0  0  0  0  0  0  0  0  0  0  0
   48.3650   34.2280   40.3140 H   0  0  0  0  0  0  0  0  0  0  0  0
   49.7020   36.2870   40.6770 H   0  0  0  0  0  0  0  0  0  0  0  0
   48.5770   36.7820   42.1130 H   0  0  0  0  0  0  0  0  0  0  0  0
   50.4700   34.2610   41.9130 H   0  0  0  0  0  0  0  0  0  0  0  0
   49.3700   34.7370   43.2960 H   0  0  0  0  0  0  0  0  0  0  0  0
   41.4150   32.6020   37.9680 O   0  0  0  0  0  0  0  0  0  0  0  0
   41.9780   30.5540   36.3140 F   0  0  0  0  0  0  0  0  0  0  0  0
   40.8480   30.5820   37.0710 C   0  0  0  0  0  0  0  0  0  0  0  0
   40.4770   31.6000   37.9540 C   0  0  0  0  0  0  0  0  0  0  0  0
   39.2890   31.4590   38.6420 C   0  0  0  0  0  0  0  0  0  0  0  0
   39.0970   32.2970   39.2930 H   0  0  0  0  0  0  0  0  0  0  0  0
   38.5050   30.3400   38.4520 C   0  0  0  0  0  0  0  0  0  0  0  0
   37.5860   30.3010   39.0280 H   0  0  0  0  0  0  0  0  0  0  0  0
   38.8730   29.3340   37.5800 C   0  0  0  0  0  0  0  0  0  0  0  0
   40.0570   29.4530   36.8800 C   0  0  0  0  0  0  0  0  0  0  0  0
  1  7  1  6  0  0  0
  1  6  1  0  0  0  0
  1  2  1  0  0  0  0
  2  8  1  6  0  0  0
  2  3  1  0  0  0  0
  2 17  1  0  0  0  0
  4  9  1  0  0  0  0
  4  3  1  0  0  0  0
  5  6  1  0  0  0  0
  5 11  1  1  0  0  0
  5  4  1  0  0  0  0
  6 12  1  1  0  0  0
 10  4  1  0  0  0  0
 13  1  1  0  0  0  0
 14 13  1  0  0  0  0
 15  5  1  0  0  0  0
 16 15  1  0  0  0  0
 17 18  1  0  0  0  0
 18 23  1  0  0  0  0
 19 18  2  0  0  0  0
 19 20  1  0  0  0  0
 20 21  2  0  0  0  0
 21 22  1  0  0  0  0
 22 25  1  0  0  0  0
 23 22  2  0  0  0  0
 24 19  1  0  0  0  0
 26 27  1  0  0  0  0
 26 20  1  0  0  0  0
 26 28  1  0  0  0  0
 27 31  1  0  0  0  0
 27 28  1  0  0  0  0
 28 33  1  0  0  0  0
 29 26  1  0  0  0  0
 30 27  1  0  0  0  0
 32 28  1  0  0  0  0
 34  6  1  0  0  0  0
 35 36  1  0  0  0  0
 36 37  1  0  0  0  0
 37 34  1  0  0  0  0
 37 38  2  0  0  0  0
 38 39  1  0  0  0  0
 40 38  1  0  0  0  0
 40 41  1  0  0  0  0
 42 40  2  0  0  0  0
 43 36  2  0  0  0  0
 43 42  1  0  0  0  0
M  END
>  <minimizedAffinity>
-6.30901051

>  <minimizedRMSD>
1.18553984

$$$$
