
 OpenBabel03252506373D

 44 47  0  0  1  0  0  0  0  0999 V2000
   44.5040   35.5220   45.1290 C   0  0  0  0  0  0  0  0  0  0  0  0
   45.1590   35.5130   43.8840 C   0  0  0  0  0  0  0  0  0  0  0  0
   46.0800   34.5580   43.6260 C   0  0  0  0  0  0  0  0  0  0  0  0
   46.3220   33.6490   44.6010 N   0  0  0  0  0  0  0  0  0  0  0  0
   45.7040   33.6590   45.7720 C   0  0  0  0  0  0  0  0  0  0  0  0
   44.7910   34.5910   46.0530 N   0  0  0  0  0  0  0  0  0  0  0  0
   46.0380   32.6510   46.7410 N   0  0  0  0  0  0  0  0  0  0  0  0
   45.2930   32.4050   47.9290 C   0  0  0  0  0  0  0  0  0  0  0  0
   46.3700   32.0400   48.9350 C   0  0  0  0  0  0  0  0  0  0  0  0
   47.6480   31.9560   48.1770 C   0  0  0  0  0  0  0  0  0  0  0  0
   47.1590   31.7420   46.7420 C   0  0  1  0  0  0  0  0  0  0  0  0
   43.7690   36.3020   45.3070 H   0  0  0  0  0  0  0  0  0  0  0  0
   46.6000   34.5250   42.6770 H   0  0  0  0  0  0  0  0  0  0  0  0
   44.4130   31.8400   47.9740 H   0  0  0  0  0  0  0  0  0  0  0  0
   44.9740   33.4360   48.2930 H   0  0  0  0  0  0  0  0  0  0  0  0
   46.3670   32.6230   49.8490 H   0  0  0  0  0  0  0  0  0  0  0  0
   46.1170   30.9830   49.2460 H   0  0  0  0  0  0  0  0  0  0  0  0
   48.3080   31.1350   48.5080 H   0  0  0  0  0  0  0  0  0  0  0  0
   48.1530   32.9380   48.2570 H   0  0  0  0  0  0  0  0  0  0  0  0
   47.9920   32.0380   46.0970 H   0  0  0  0  0  0  0  0  0  0  0  0
   44.8060   36.5390   42.9380 N   0  0  0  0  0  0  0  0  0  0  0  0
   44.6650   36.2310   41.9400 H   0  0  0  0  0  0  0  0  0  0  0  0
   44.6860   37.5360   43.1760 H   0  0  0  0  0  0  0  0  0  0  0  0
   46.6560   30.0470   46.5500 S   0  0  0  0  0  0  0  0  0  0  0  0
   45.6550   30.5460   43.4090 O   0  0  0  0  0  0  0  0  0  0  0  0
   45.0220   29.9950   44.3260 C   0  0  0  0  0  0  0  0  0  0  0  0
   45.1160   29.7570   45.7820 C   0  0  1  0  0  0  0  0  0  0  0  0
   44.5820   28.3510   45.8980 C   0  0  0  0  0  0  0  0  0  0  0  0
   43.2690   28.5640   45.1330 C   0  0  0  0  0  0  0  0  0  0  0  0
   43.7810   29.3390   44.0080 N   0  0  0  0  0  0  0  0  0  0  0  0
   44.2270   30.3480   46.1440 H   0  0  0  0  0  0  0  0  0  0  0  0
   44.3520   28.0390   46.9200 H   0  0  0  0  0  0  0  0  0  0  0  0
   45.1970   27.6160   45.3440 H   0  0  0  0  0  0  0  0  0  0  0  0
   42.8930   27.5920   44.7650 H   0  0  0  0  0  0  0  0  0  0  0  0
   42.5480   29.1210   45.7520 H   0  0  0  0  0  0  0  0  0  0  0  0
   44.4490   28.0090   41.6030 F   0  0  0  0  0  0  0  0  0  0  0  0
   43.3220   28.7400   41.6020 C   0  0  0  0  0  0  0  0  0  0  0  0
   43.0370   29.3620   42.7770 C   0  0  0  0  0  0  0  0  0  0  0  0
   41.8820   30.1480   42.8760 C   0  0  0  0  0  0  0  0  0  0  0  0
   41.5800   30.6830   43.7860 H   0  0  0  0  0  0  0  0  0  0  0  0
   41.0160   30.3040   41.7880 C   0  0  0  0  0  0  0  0  0  0  0  0
   40.1280   30.9160   41.8870 H   0  0  0  0  0  0  0  0  0  0  0  0
   41.3180   29.6600   40.5850 C   0  0  0  0  0  3  0  0  0  0  0  0
   42.4730   28.8960   40.5460 C   0  0  0  0  0  3  0  0  0  0  0  0
  1 12  1  0  0  0  0
  1  6  1  0  0  0  0
  2  1  2  0  0  0  0
  3  2  1  0  0  0  0
  3  4  2  0  0  0  0
  4  5  1  0  0  0  0
  5  6  2  0  0  0  0
  5  7  1  0  0  0  0
  7 11  1  0  0  0  0
  7  8  1  0  0  0  0
  8 14  1  0  0  0  0
  8 15  1  0  0  0  0
  8  9  1  0  0  0  0
  9 17  1  0  0  0  0
  9 16  1  0  0  0  0
 10 19  1  0  0  0  0
 10 18  1  0  0  0  0
 10  9  1  0  0  0  0
 11 20  1  6  0  0  0
 11 10  1  0  0  0  0
 13  3  1  0  0  0  0
 21 23  1  0  0  0  0
 21  2  1  0  0  0  0
 22 21  1  0  0  0  0
 24 11  1  0  0  0  0
 25 26  2  0  0  0  0
 26 27  1  0  0  0  0
 27 28  1  0  0  0  0
 27 31  1  1  0  0  0
 27 24  1  0  0  0  0
 28 32  1  0  0  0  0
 29 35  1  0  0  0  0
 29 28  1  0  0  0  0
 30 26  1  0  0  0  0
 30 29  1  0  0  0  0
 33 28  1  0  0  0  0
 34 29  1  0  0  0  0
 37 36  1  0  0  0  0
 37 38  1  0  0  0  0
 38 39  2  0  0  0  0
 38 30  1  0  0  0  0
 39 40  1  0  0  0  0
 41 42  1  0  0  0  0
 41 39  1  0  0  0  0
 43 41  2  0  0  0  0
 44 43  1  0  0  0  0
 44 37  2  0  0  0  0
M  END
>  <minimizedAffinity>
-5.35367727

>  <minimizedRMSD>
0.326598704

$$$$
