
 OpenBabel03252506373D

 44 47  0  0  1  0  0  0  0  0999 V2000
   44.4940   35.5800   45.1200 C   0  0  0  0  0  0  0  0  0  0  0  0
   45.1240   35.5560   43.8620 C   0  0  0  0  0  0  0  0  0  0  0  0
   46.0220   34.5820   43.5890 C   0  0  0  0  0  0  0  0  0  0  0  0
   46.2650   33.6710   44.5620 N   0  0  0  0  0  0  0  0  0  0  0  0
   45.6700   33.6950   45.7450 C   0  0  0  0  0  0  0  0  0  0  0  0
   44.7800   34.6460   46.0410 N   0  0  0  0  0  0  0  0  0  0  0  0
   46.0020   32.6830   46.7090 N   0  0  0  0  0  0  0  0  0  0  0  0
   45.2750   32.4530   47.9120 C   0  0  0  0  0  0  0  0  0  0  0  0
   46.3640   32.0700   48.8980 C   0  0  0  0  0  0  0  0  0  0  0  0
   47.6250   31.9600   48.1160 C   0  0  0  0  0  0  0  0  0  0  0  0
   47.1050   31.7520   46.6910 C   0  0  1  0  0  0  0  0  0  0  0  0
   43.7780   36.3750   45.3100 H   0  0  0  0  0  0  0  0  0  0  0  0
   46.5230   34.5370   42.6310 H   0  0  0  0  0  0  0  0  0  0  0  0
   44.3860   31.9060   47.9750 H   0  0  0  0  0  0  0  0  0  0  0  0
   44.9840   33.4920   48.2790 H   0  0  0  0  0  0  0  0  0  0  0  0
   46.3900   32.6550   49.8100 H   0  0  0  0  0  0  0  0  0  0  0  0
   46.0970   31.0190   49.2160 H   0  0  0  0  0  0  0  0  0  0  0  0
   48.2760   31.1260   48.4370 H   0  0  0  0  0  0  0  0  0  0  0  0
   48.1510   32.9320   48.1840 H   0  0  0  0  0  0  0  0  0  0  0  0
   47.9310   32.0300   46.0300 H   0  0  0  0  0  0  0  0  0  0  0  0
   44.7740   36.5870   42.9210 N   0  0  0  0  0  0  0  0  0  0  0  0
   44.6080   36.2790   41.9270 H   0  0  0  0  0  0  0  0  0  0  0  0
   44.6780   37.5860   43.1590 H   0  0  0  0  0  0  0  0  0  0  0  0
   46.5660   30.0670   46.5130 S   0  0  0  0  0  0  0  0  0  0  0  0
   45.8250   30.4850   43.2880 O   0  0  0  0  0  0  0  0  0  0  0  0
   45.1060   29.9860   44.1710 C   0  0  0  0  0  0  0  0  0  0  0  0
   45.0800   29.7960   45.6380 C   0  0  1  0  0  0  0  0  0  0  0  0
   44.4940   28.4110   45.7580 C   0  0  0  0  0  0  0  0  0  0  0  0
   43.2510   28.6370   44.8870 C   0  0  0  0  0  0  0  0  0  0  0  0
   43.8720   29.3560   43.7800 N   0  0  0  0  0  0  0  0  0  0  0  0
   44.1860   30.4260   45.9100 H   0  0  0  0  0  0  0  0  0  0  0  0
   44.1760   28.1420   46.7690 H   0  0  0  0  0  0  0  0  0  0  0  0
   45.1250   27.6390   45.2770 H   0  0  0  0  0  0  0  0  0  0  0  0
   42.8730   27.6640   44.5220 H   0  0  0  0  0  0  0  0  0  0  0  0
   42.5030   29.2360   45.4290 H   0  0  0  0  0  0  0  0  0  0  0  0
   42.1460   31.3500   42.7600 F   0  0  0  0  0  0  0  0  0  0  0  0
   42.3910   30.2920   41.9670 C   0  0  0  0  0  0  0  0  0  0  0  0
   43.2250   29.3580   42.4950 C   0  0  0  0  0  0  0  0  0  0  0  0
   43.5430   28.2190   41.7440 C   0  0  0  0  0  0  0  0  0  0  0  0
   44.2080   27.4180   42.0960 H   0  0  0  0  0  0  0  0  0  0  0  0
   43.0180   28.0250   40.4630 C   0  0  0  0  0  0  0  0  0  0  0  0
   43.2760   27.1370   39.8990 H   0  0  0  0  0  0  0  0  0  0  0  0
   42.1600   28.9930   39.9290 C   0  0  0  0  0  3  0  0  0  0  0  0
   41.8830   30.0970   40.7160 C   0  0  0  0  0  3  0  0  0  0  0  0
  1 12  1  0  0  0  0
  1  6  1  0  0  0  0
  2  1  2  0  0  0  0
  3  2  1  0  0  0  0
  3  4  2  0  0  0  0
  4  5  1  0  0  0  0
  5  6  2  0  0  0  0
  5  7  1  0  0  0  0
  7  8  1  0  0  0  0
  8 14  1  0  0  0  0
  8 15  1  0  0  0  0
  8  9  1  0  0  0  0
  9 17  1  0  0  0  0
  9 16  1  0  0  0  0
 10 19  1  0  0  0  0
 10 18  1  0  0  0  0
 10  9  1  0  0  0  0
 11 20  1  6  0  0  0
 11  7  1  0  0  0  0
 11 10  1  0  0  0  0
 13  3  1  0  0  0  0
 21 23  1  0  0  0  0
 21  2  1  0  0  0  0
 22 21  1  0  0  0  0
 24 11  1  0  0  0  0
 25 26  2  0  0  0  0
 26 27  1  0  0  0  0
 27 28  1  0  0  0  0
 27 31  1  1  0  0  0
 27 24  1  0  0  0  0
 28 32  1  0  0  0  0
 29 35  1  0  0  0  0
 29 28  1  0  0  0  0
 30 26  1  0  0  0  0
 30 29  1  0  0  0  0
 33 28  1  0  0  0  0
 34 29  1  0  0  0  0
 37 38  1  0  0  0  0
 37 36  1  0  0  0  0
 38 30  1  0  0  0  0
 39 40  1  0  0  0  0
 39 38  2  0  0  0  0
 41 39  1  0  0  0  0
 42 41  1  0  0  0  0
 43 41  2  0  0  0  0
 43 44  1  0  0  0  0
 44 37  2  0  0  0  0
M  END
>  <minimizedAffinity>
-5.3141284

>  <minimizedRMSD>
0.352942407

$$$$
