
 OpenBabel03252504463D

 27 28  0  0  0  0  0  0  0  0999 V2000
   45.4250   30.8480   49.4640 O   0  0  0  0  0  0  0  0  0  0  0  0
   45.7500   30.9930   47.9760 P   0  0  1  0  0  0  0  0  0  0  0  0
   44.5120   30.1990   47.1470 O   0  0  0  0  0  0  0  0  0  0  0  0
   44.8310   29.4720   46.5690 H   0  0  0  0  0  0  0  0  0  0  0  0
   45.8210   32.6440   47.6550 O   0  0  0  0  0  0  0  0  0  0  0  0
   45.3000   34.6830   44.7260 C   0  0  0  0  0  0  0  0  0  0  0  0
   46.2470   34.1600   43.8460 C   0  0  0  0  0  0  0  0  0  0  0  0
   47.0410   33.1050   44.3120 C   0  0  0  0  0  0  0  0  0  0  0  0
   46.8470   32.6620   45.5640 N   0  0  0  0  0  0  0  0  0  0  0  0
   45.9040   33.2070   46.3890 C   0  0  0  0  0  0  0  0  0  0  0  0
   45.1260   34.2270   45.9620 N   0  0  0  0  0  0  0  0  0  0  0  0
   46.3390   34.5740   42.8570 H   0  0  0  0  0  0  0  0  0  0  0  0
   47.7790   32.6860   43.6490 H   0  0  0  0  0  0  0  0  0  0  0  0
   44.4600   35.8190   44.2060 C   0  0  0  0  0  0  0  0  0  0  0  0
   45.1180   36.4670   43.5940 H   0  0  0  0  0  0  0  0  0  0  0  0
   44.0630   36.4390   45.0250 H   0  0  0  0  0  0  0  0  0  0  0  0
   43.5960   35.4470   43.6350 H   0  0  0  0  0  0  0  0  0  0  0  0
   47.2020   30.2310   47.6030 O   0  0  0  0  0  0  0  0  0  0  0  0
   48.7440   28.0530   48.1900 F   0  0  0  0  0  0  0  0  0  0  0  0
   49.0240   29.2950   48.6460 C   0  0  0  0  0  0  0  0  0  0  0  0
   48.3080   30.4650   48.4080 C   0  0  0  0  0  0  0  0  0  0  0  0
   48.7480   31.6500   48.9620 C   0  0  0  0  0  0  0  0  0  0  0  0
   48.1360   32.4880   48.7220 H   0  0  0  0  0  0  0  0  0  0  0  0
   49.8880   31.6570   49.7400 C   0  0  0  0  0  0  0  0  0  0  0  0
   50.1670   32.6170   50.1370 H   0  0  0  0  0  0  0  0  0  0  0  0
   50.6200   30.4930   49.9910 C   0  0  0  0  0  0  0  0  0  0  0  0
   50.1640   29.3030   49.4250 C   0  0  0  0  0  0  0  0  0  0  0  0
  2  1  2  1  0  0  0
  3  2  1  0  0  0  0
  4  3  1  0  0  0  0
  5  2  1  0  0  0  0
  6 11  1  0  0  0  0
  7  8  1  0  0  0  0
  7  6  2  0  0  0  0
  8  9  2  0  0  0  0
  9 10  1  0  0  0  0
 10  5  1  0  0  0  0
 11 10  2  0  0  0  0
 12  7  1  0  0  0  0
 13  8  1  0  0  0  0
 14  6  1  0  0  0  0
 14 16  1  0  0  0  0
 15 14  1  0  0  0  0
 17 14  1  0  0  0  0
 18  2  1  0  0  0  0
 18 21  1  0  0  0  0
 19 20  1  0  0  0  0
 20 27  1  0  0  0  0
 21 20  2  0  0  0  0
 21 22  1  0  0  0  0
 22 24  2  0  0  0  0
 23 22  1  0  0  0  0
 24 26  1  0  0  0  0
 24 25  1  0  0  0  0
 27 26  2  0  0  0  0
M  END
>  <minimizedAffinity>
-5.03473234

>  <minimizedRMSD>
1.28531814

$$$$
