
 OpenBabel03252506373D

 44 47  0  0  1  0  0  0  0  0999 V2000
   44.5070   35.5290   45.1280 C   0  0  0  0  0  0  0  0  0  0  0  0
   45.1530   35.5030   43.8780 C   0  0  0  0  0  0  0  0  0  0  0  0
   46.0630   34.5370   43.6220 C   0  0  0  0  0  0  0  0  0  0  0  0
   46.3040   33.6330   44.6030 N   0  0  0  0  0  0  0  0  0  0  0  0
   45.6940   33.6600   45.7780 C   0  0  0  0  0  0  0  0  0  0  0  0
   44.7910   34.6030   46.0580 N   0  0  0  0  0  0  0  0  0  0  0  0
   46.0240   32.6560   46.7530 N   0  0  0  0  0  0  0  0  0  0  0  0
   45.2850   32.4270   47.9480 C   0  0  0  0  0  0  0  0  0  0  0  0
   46.3660   32.0600   48.9500 C   0  0  0  0  0  0  0  0  0  0  0  0
   47.6370   31.9580   48.1840 C   0  0  0  0  0  0  0  0  0  0  0  0
   47.1370   31.7370   46.7540 C   0  0  1  0  0  0  0  0  0  0  0  0
   43.7810   36.3170   45.3040 H   0  0  0  0  0  0  0  0  0  0  0  0
   46.5760   34.4910   42.6700 H   0  0  0  0  0  0  0  0  0  0  0  0
   44.4000   31.8710   48.0040 H   0  0  0  0  0  0  0  0  0  0  0  0
   44.9790   33.4640   48.3060 H   0  0  0  0  0  0  0  0  0  0  0  0
   46.3750   32.6510   49.8590 H   0  0  0  0  0  0  0  0  0  0  0  0
   46.1050   31.0090   49.2710 H   0  0  0  0  0  0  0  0  0  0  0  0
   48.2920   31.1320   48.5170 H   0  0  0  0  0  0  0  0  0  0  0  0
   48.1520   32.9350   48.2520 H   0  0  0  0  0  0  0  0  0  0  0  0
   47.9680   32.0190   46.1010 H   0  0  0  0  0  0  0  0  0  0  0  0
   44.8040   36.5240   42.9260 N   0  0  0  0  0  0  0  0  0  0  0  0
   44.6530   36.2090   41.9320 H   0  0  0  0  0  0  0  0  0  0  0  0
   44.6950   37.5250   43.1570 H   0  0  0  0  0  0  0  0  0  0  0  0
   46.6170   30.0450   46.5800 S   0  0  0  0  0  0  0  0  0  0  0  0
   45.6640   30.1990   43.3870 O   0  0  0  0  0  0  0  0  0  0  0  0
   44.9910   29.8170   44.3600 C   0  0  0  0  0  0  0  0  0  0  0  0
   45.0620   29.7640   45.8360 C   0  0  1  0  0  0  0  0  0  0  0  0
   44.4310   28.4250   46.1270 C   0  0  0  0  0  0  0  0  0  0  0  0
   43.1400   28.6260   45.3230 C   0  0  0  0  0  0  0  0  0  0  0  0
   43.7080   29.2110   44.1140 N   0  0  0  0  0  0  0  0  0  0  0  0
   44.2160   30.4570   46.1070 H   0  0  0  0  0  0  0  0  0  0  0  0
   44.1760   28.2650   47.1770 H   0  0  0  0  0  0  0  0  0  0  0  0
   44.9950   27.5830   45.6800 H   0  0  0  0  0  0  0  0  0  0  0  0
   42.6980   27.6430   45.0790 H   0  0  0  0  0  0  0  0  0  0  0  0
   42.4560   29.3070   45.8550 H   0  0  0  0  0  0  0  0  0  0  0  0
   42.4760   31.3470   42.7290 F   0  0  0  0  0  0  0  0  0  0  0  0
   42.3660   30.1230   42.1850 C   0  0  0  0  0  0  0  0  0  0  0  0
   42.9720   29.1250   42.8810 C   0  0  0  0  0  0  0  0  0  0  0  0
   42.9130   27.8140   42.3940 C   0  0  0  0  0  0  0  0  0  0  0  0
   43.3750   26.9530   42.8950 H   0  0  0  0  0  0  0  0  0  0  0  0
   42.2430   27.5110   41.2040 C   0  0  0  0  0  0  0  0  0  0  0  0
   42.2090   26.4900   40.8450 H   0  0  0  0  0  0  0  0  0  0  0  0
   41.6220   28.5460   40.4950 C   0  0  0  0  0  0  0  0  0  0  0  0
   41.7140   29.8220   41.0250 C   0  0  0  0  0  0  0  0  0  0  0  0
  1 12  1  0  0  0  0
  1  6  1  0  0  0  0
  2  1  2  0  0  0  0
  3  2  1  0  0  0  0
  3  4  2  0  0  0  0
  4  5  1  0  0  0  0
  5  6  2  0  0  0  0
  5  7  1  0  0  0  0
  7 11  1  0  0  0  0
  7  8  1  0  0  0  0
  8 14  1  0  0  0  0
  8 15  1  0  0  0  0
  8  9  1  0  0  0  0
  9 17  1  0  0  0  0
  9 16  1  0  0  0  0
 10 19  1  0  0  0  0
 10 18  1  0  0  0  0
 10  9  1  0  0  0  0
 11 20  1  6  0  0  0
 11 10  1  0  0  0  0
 13  3  1  0  0  0  0
 21 23  1  0  0  0  0
 21  2  1  0  0  0  0
 22 21  1  0  0  0  0
 24 11  1  0  0  0  0
 25 26  2  0  0  0  0
 26 27  1  0  0  0  0
 27 31  1  1  0  0  0
 27 28  1  0  0  0  0
 27 24  1  0  0  0  0
 28 32  1  0  0  0  0
 29 35  1  0  0  0  0
 29 28  1  0  0  0  0
 30 26  1  0  0  0  0
 30 29  1  0  0  0  0
 33 28  1  0  0  0  0
 34 29  1  0  0  0  0
 37 36  1  0  0  0  0
 37 38  1  0  0  0  0
 38 30  1  0  0  0  0
 39 38  2  0  0  0  0
 39 40  1  0  0  0  0
 41 39  1  0  0  0  0
 42 41  1  0  0  0  0
 43 44  1  0  0  0  0
 43 41  2  0  0  0  0
 44 37  2  0  0  0  0
M  END
>  <minimizedAffinity>
-5.43599224

>  <minimizedRMSD>
0.706263602

$$$$
