
 OpenBabel03252506373D

 44 47  0  0  1  0  0  0  0  0999 V2000
   44.5070   35.5450   45.1270 C   0  0  0  0  0  0  0  0  0  0  0  0
   45.1430   35.5150   43.8720 C   0  0  0  0  0  0  0  0  0  0  0  0
   46.0460   34.5430   43.6090 C   0  0  0  0  0  0  0  0  0  0  0  0
   46.2880   33.6390   44.5880 N   0  0  0  0  0  0  0  0  0  0  0  0
   45.6870   33.6690   45.7690 C   0  0  0  0  0  0  0  0  0  0  0  0
   44.7930   34.6180   46.0540 N   0  0  0  0  0  0  0  0  0  0  0  0
   46.0190   32.6640   46.7410 N   0  0  0  0  0  0  0  0  0  0  0  0
   45.2880   32.4400   47.9420 C   0  0  0  0  0  0  0  0  0  0  0  0
   46.3740   32.0670   48.9360 C   0  0  0  0  0  0  0  0  0  0  0  0
   47.6390   31.9570   48.1600 C   0  0  0  0  0  0  0  0  0  0  0  0
   47.1260   31.7380   46.7340 C   0  0  1  0  0  0  0  0  0  0  0  0
   43.7870   36.3380   45.3080 H   0  0  0  0  0  0  0  0  0  0  0  0
   46.5500   34.4930   42.6530 H   0  0  0  0  0  0  0  0  0  0  0  0
   44.4000   31.8900   48.0050 H   0  0  0  0  0  0  0  0  0  0  0  0
   44.9910   33.4790   48.3020 H   0  0  0  0  0  0  0  0  0  0  0  0
   46.3930   32.6580   49.8440 H   0  0  0  0  0  0  0  0  0  0  0  0
   46.1090   31.0170   49.2590 H   0  0  0  0  0  0  0  0  0  0  0  0
   48.2910   31.1270   48.4890 H   0  0  0  0  0  0  0  0  0  0  0  0
   48.1600   32.9310   48.2240 H   0  0  0  0  0  0  0  0  0  0  0  0
   47.9530   32.0140   46.0750 H   0  0  0  0  0  0  0  0  0  0  0  0
   44.7930   36.5380   42.9220 N   0  0  0  0  0  0  0  0  0  0  0  0
   44.6320   36.2230   41.9290 H   0  0  0  0  0  0  0  0  0  0  0  0
   44.6920   37.5390   43.1530 H   0  0  0  0  0  0  0  0  0  0  0  0
   46.5940   30.0490   46.5650 S   0  0  0  0  0  0  0  0  0  0  0  0
   45.7130   30.3820   43.3650 O   0  0  0  0  0  0  0  0  0  0  0  0
   45.0290   29.9190   44.2940 C   0  0  0  0  0  0  0  0  0  0  0  0
   45.0670   29.7730   45.7650 C   0  0  1  0  0  0  0  0  0  0  0  0
   44.4690   28.4010   45.9540 C   0  0  0  0  0  0  0  0  0  0  0  0
   43.1910   28.6180   45.1320 C   0  0  0  0  0  0  0  0  0  0  0  0
   43.7700   29.2950   43.9780 N   0  0  0  0  0  0  0  0  0  0  0  0
   44.1940   30.4230   46.0580 H   0  0  0  0  0  0  0  0  0  0  0  0
   44.1930   28.1660   46.9850 H   0  0  0  0  0  0  0  0  0  0  0  0
   45.0680   27.6070   45.4680 H   0  0  0  0  0  0  0  0  0  0  0  0
   42.7840   27.6400   44.8150 H   0  0  0  0  0  0  0  0  0  0  0  0
   42.4760   29.2430   45.6890 H   0  0  0  0  0  0  0  0  0  0  0  0
   42.5450   31.4890   42.6810 F   0  0  0  0  0  0  0  0  0  0  0  0
   42.4650   30.2960   42.0670 C   0  0  0  0  0  0  0  0  0  0  0  0
   43.0660   29.2690   42.7240 C   0  0  0  0  0  0  0  0  0  0  0  0
   43.0360   27.9860   42.1640 C   0  0  0  0  0  0  0  0  0  0  0  0
   43.4980   27.1040   42.6290 H   0  0  0  0  0  0  0  0  0  0  0  0
   42.4000   27.7410   40.9430 C   0  0  0  0  0  0  0  0  0  0  0  0
   42.3900   26.7410   40.5280 H   0  0  0  0  0  0  0  0  0  0  0  0
   41.7850   28.8060   40.2760 C   0  0  0  0  0  3  0  0  0  0  0  0
   41.8460   30.0520   40.8760 C   0  0  0  0  0  3  0  0  0  0  0  0
  1 12  1  0  0  0  0
  1  6  1  0  0  0  0
  2  1  2  0  0  0  0
  3  2  1  0  0  0  0
  3  4  2  0  0  0  0
  4  5  1  0  0  0  0
  5  6  2  0  0  0  0
  5  7  1  0  0  0  0
  7  8  1  0  0  0  0
  8 14  1  0  0  0  0
  8 15  1  0  0  0  0
  8  9  1  0  0  0  0
  9 17  1  0  0  0  0
  9 16  1  0  0  0  0
 10 19  1  0  0  0  0
 10 18  1  0  0  0  0
 10  9  1  0  0  0  0
 11 20  1  6  0  0  0
 11  7  1  0  0  0  0
 11 10  1  0  0  0  0
 13  3  1  0  0  0  0
 21 23  1  0  0  0  0
 21  2  1  0  0  0  0
 22 21  1  0  0  0  0
 24 11  1  0  0  0  0
 25 26  2  0  0  0  0
 26 27  1  0  0  0  0
 27 28  1  0  0  0  0
 27 31  1  1  0  0  0
 27 24  1  0  0  0  0
 28 32  1  0  0  0  0
 29 35  1  0  0  0  0
 29 28  1  0  0  0  0
 30 26  1  0  0  0  0
 30 29  1  0  0  0  0
 33 28  1  0  0  0  0
 34 29  1  0  0  0  0
 37 36  1  0  0  0  0
 37 38  1  0  0  0  0
 38 30  1  0  0  0  0
 39 40  1  0  0  0  0
 39 38  2  0  0  0  0
 41 39  1  0  0  0  0
 42 41  1  0  0  0  0
 43 44  1  0  0  0  0
 43 41  2  0  0  0  0
 44 37  2  0  0  0  0
M  END
>  <minimizedAffinity>
-5.38988161

>  <minimizedRMSD>
0.420985878

$$$$
