
     RDKit          3D

 26 28  0  0  0  0  0  0  0  0999 V2000
   37.8800   29.6030   40.4750 C   0  0  0  0  0  0  0  0  0  0  0  0
   36.7980   29.1760   39.7720 N   0  0  0  0  0  0  0  0  0  0  0  0
   36.2100   27.9970   39.9870 C   0  0  0  0  0  0  0  0  0  0  0  0
   36.6270   27.1210   40.9140 N   0  0  0  0  0  0  0  0  0  0  0  0
   37.6880   27.4730   41.6470 C   0  0  0  0  0  0  0  0  0  0  0  0
   38.1130   26.5700   42.5990 C   0  0  0  0  0  0  0  0  0  0  0  0
   39.2010   26.8620   43.3950 C   0  0  0  0  0  0  0  0  0  0  0  0
   39.8240   28.0950   43.1770 C   0  0  0  0  0  0  0  0  0  0  0  0
   39.3600   28.9560   42.2150 C   0  0  0  0  0  0  0  0  0  0  0  0
   38.2890   28.6900   41.4200 C   0  0  0  0  0  0  0  0  0  0  0  0
   39.4700   32.1490   38.4950 C   0  0  0  0  0  0  0  0  0  0  0  0
   39.7940   33.2150   39.3430 C   0  0  0  0  0  0  0  0  0  0  0  0
   39.4380   33.0390   40.6850 C   0  0  0  0  0  0  0  0  0  0  0  0
   38.8300   31.9010   41.0650 N   0  0  0  0  0  0  0  0  0  0  0  0
   38.5260   30.8900   40.2450 C   0  0  0  0  0  0  0  0  0  0  0  0
   38.8730   31.0800   38.9790 N   0  0  0  0  0  0  0  0  0  0  0  0
   39.7980   32.2390   37.0980 N   0  0  0  0  0  0  0  0  0  0  0  0
   35.3380   27.7296   39.3721 H   0  0  0  0  0  0  0  0  0  0  0  0
   37.5828   25.6143   42.7238 H   0  0  0  0  0  0  0  0  0  0  0  0
   39.5604   26.1606   44.1624 H   0  0  0  0  0  0  0  0  0  0  0  0
   40.6965   28.3778   43.7842 H   0  0  0  0  0  0  0  0  0  0  0  0
   39.8829   29.9142   42.0792 H   0  0  0  0  0  0  0  0  0  0  0  0
   40.2928   34.1259   38.9803 H   0  0  0  0  0  0  0  0  0  0  0  0
   39.6538   33.8253   41.4233 H   0  0  0  0  0  0  0  0  0  0  0  0
   40.2651   33.0808   36.7319 H   0  0  0  0  0  0  0  0  0  0  0  0
   39.5659   31.4616   36.4634 H   0  0  0  0  0  0  0  0  0  0  0  0
  1 10  2  0
  2  3  2  0
  2  1  1  0
  3  4  1  0
  4  5  2  0
  5  6  1  0
  6  7  2  0
  8  7  1  0
  9  8  2  0
 10  5  1  0
 10  9  1  0
 11 16  2  0
 11 12  1  0
 12 13  2  0
 13 14  1  0
 15  1  1  0
 15 14  2  0
 16 15  1  0
 17 11  1  0
  3 18  1  0
  6 19  1  0
  7 20  1  0
  8 21  1  0
  9 22  1  0
 12 23  1  0
 13 24  1  0
 17 25  1  0
 17 26  1  0
M  ISO  7  18  14  19  14  20  14  21  14  22  14  23  14  24  14
M  END
>  <minimizedAffinity>  (1) 
-4.90877104

>  <minimizedRMSD>  (1) 
4.82768822

$$$$
