
     RDKit          3D

 22 23  0  0  0  0  0  0  0  0999 V2000
   37.8920   33.0320   40.1790 C   0  0  0  0  0  0  0  0  0  0  0  0
   39.2490   33.3900   40.2530 C   0  0  0  0  0  0  0  0  0  0  0  0
   40.1220   32.5110   40.9170 C   0  0  0  0  0  0  0  0  0  0  0  0
   39.6150   31.3690   41.4510 N   0  0  0  0  0  0  0  0  0  0  0  0
   38.2900   31.0610   41.3560 C   0  0  0  0  0  0  0  0  0  0  0  0
   37.4570   31.9010   40.7220 N   0  0  0  0  0  0  0  0  0  0  0  0
   37.7690   29.8290   41.9370 C   0  0  0  0  0  0  0  0  0  0  0  0
   36.7240   29.1760   41.2860 C   0  0  0  0  0  0  0  0  0  0  0  0
   36.2430   28.0070   41.8550 C   0  0  0  0  0  0  0  0  0  0  0  0
   36.7580   27.4850   43.0190 C   0  0  0  0  0  0  0  0  0  0  0  0
   37.7920   28.1440   43.6510 C   0  0  0  0  0  0  0  0  0  0  0  0
   38.3130   29.3280   43.1180 C   0  0  0  0  0  0  0  0  0  0  0  0
   37.0020   33.9180   39.5080 N   0  0  0  0  0  0  0  0  0  0  0  0
   39.6154   34.3262   39.8065 H   0  0  0  0  0  0  0  0  0  0  0  0
   41.1939   32.7429   41.0026 H   0  0  0  0  0  0  0  0  0  0  0  0
   36.2962   29.5740   40.3540 H   0  0  0  0  0  0  0  0  0  0  0  0
   35.4181   27.4766   41.3568 H   0  0  0  0  0  0  0  0  0  0  0  0
   36.3505   26.5542   43.4403 H   0  0  0  0  0  0  0  0  0  0  0  0
   38.2106   27.7349   44.5823 H   0  0  0  0  0  0  0  0  0  0  0  0
   39.1372   29.8539   43.6221 H   0  0  0  0  0  0  0  0  0  0  0  0
   36.0012   33.6856   39.4358 H   0  0  0  0  0  0  0  0  0  0  0  0
   37.3590   34.7913   39.0948 H   0  0  0  0  0  0  0  0  0  0  0  0
  1  2  2  0
  1  6  1  0
  2  3  1  0
  3  4  2  0
  5  4  1  0
  5  7  1  0
  6  5  2  0
  7 12  2  0
  8  9  2  0
  8  7  1  0
  9 10  1  0
 10 11  2  0
 12 11  1  0
 13  1  1  0
  2 14  1  0
  3 15  1  0
  8 16  1  0
  9 17  1  0
 10 18  1  0
 11 19  1  0
 12 20  1  0
 13 21  1  0
 13 22  1  0
M  ISO  7  14  14  15  14  16  14  17  14  18  14  19  14  20  14
M  END
>  <minimizedAffinity>  (1) 
-4.89696932

>  <minimizedRMSD>  (1) 
4.40055084

$$$$
