
     RDKit          3D

 44 48  0  0  1  0  0  0  0  0999 V2000
   37.8660   29.7450   40.7650 C   0  0  1  0  0  0  0  0  0  0  0  0
   37.3650   29.4850   42.1850 C   0  0  0  0  0  0  0  0  0  0  0  0
   38.6190   29.7520   42.9960 C   0  0  0  0  0  0  0  0  0  0  0  0
   39.7800   29.5420   42.0600 C   0  0  0  0  0  0  0  0  0  0  0  0
   39.1770   29.0160   40.7700 C   0  0  2  0  0  0  0  0  0  0  0  0
   36.6260   24.4610   40.3820 C   0  0  0  0  0  0  0  0  0  0  0  0
   37.2710   24.3940   41.6300 C   0  0  0  0  0  0  0  0  0  0  0  0
   37.6520   25.5940   42.2060 C   0  0  0  0  0  0  0  0  0  0  0  0
   37.3830   26.7460   41.5370 N   0  0  0  0  0  0  0  0  0  0  0  0
   36.7750   26.7980   40.3610 C   0  0  0  0  0  0  0  0  0  0  0  0
   36.4020   25.6390   39.7940 N   0  0  0  0  0  0  0  0  0  0  0  0
   36.4800   27.9790   39.6220 N   0  0  0  0  0  0  0  0  0  0  0  0
   35.6290   27.8550   38.6210 N   0  0  0  0  0  0  0  0  0  0  0  0
   35.4870   29.0750   38.0330 C   0  0  0  0  0  0  0  0  0  0  0  0
   36.3130   29.9500   38.7520 C   0  0  0  0  0  0  0  0  0  0  0  0
   36.9380   29.2260   39.7630 C   0  0  0  0  0  0  0  0  0  0  0  0
   39.9930   29.5800   39.7050 N   0  0  0  0  0  0  0  0  0  0  0  0
   40.7910   28.8430   38.9090 C   0  0  0  0  0  0  0  0  0  0  0  0
   41.3610   29.7260   38.0710 N   0  0  0  0  0  0  0  0  0  0  0  0
   40.9290   30.9720   38.3420 C   0  0  0  0  0  0  0  0  0  0  0  0
   41.1930   32.2280   37.7910 C   0  0  0  0  0  0  0  0  0  0  0  0
   41.9940   32.3080   36.8370 O   0  0  0  0  0  0  0  0  0  0  0  0
   40.5890   33.3200   38.2910 N   0  0  0  0  0  0  0  0  0  0  0  0
   39.7360   33.1710   39.3210 C   0  0  0  0  0  0  0  0  0  0  0  0
   39.1310   34.3660   39.8010 N   0  0  0  0  0  0  0  0  0  0  0  0
   39.4530   31.9700   39.8820 N   0  0  0  0  0  0  0  0  0  0  0  0
   40.0460   30.8790   39.3950 C   0  0  0  0  0  0  0  0  0  0  0  0
   37.9598   30.8098   40.5052 H   0  0  0  0  0  0  0  0  0  0  0  0
   36.5538   30.1757   42.4586 H   0  0  0  0  0  0  0  0  0  0  0  0
   36.9361   28.4832   42.3351 H   0  0  0  0  0  0  0  0  0  0  0  0
   38.6159   30.7853   43.3732 H   0  0  0  0  0  0  0  0  0  0  0  0
   38.6817   29.0835   43.8673 H   0  0  0  0  0  0  0  0  0  0  0  0
   40.3037   30.4923   41.8792 H   0  0  0  0  0  0  0  0  0  0  0  0
   40.5178   28.8417   42.4787 H   0  0  0  0  0  0  0  0  0  0  0  0
   39.1018   27.9234   40.6673 H   0  0  0  0  0  0  0  0  0  0  0  0
   36.3029   23.5342   39.8854 H   0  0  0  0  0  0  0  0  0  0  0  0
   37.4641   23.4314   42.1262 H   0  0  0  0  0  0  0  0  0  0  0  0
   38.1601   25.6145   43.1814 H   0  0  0  0  0  0  0  0  0  0  0  0
   34.8529   29.3234   37.1692 H   0  0  0  0  0  0  0  0  0  0  0  0
   36.4445   31.0236   38.5517 H   0  0  0  0  0  0  0  0  0  0  0  0
   40.9434   27.7540   38.9383 H   0  0  0  0  0  0  0  0  0  0  0  0
   40.7754   34.2518   37.8937 H   0  0  0  0  0  0  0  0  0  0  0  0
   38.4672   34.3272   40.5876 H   0  0  0  0  0  0  0  0  0  0  0  0
   39.3568   35.2699   39.3618 H   0  0  0  0  0  0  0  0  0  0  0  0
  1  5  1  0
  1  2  1  0
  2  3  1  0
  4  3  1  0
  5  4  1  0
  6  7  2  0
  7  8  1  0
  9  8  2  0
 10  9  1  0
 11 10  2  0
 11  6  1  0
 12 16  1  0
 12 10  1  0
 13 12  1  0
 14 13  2  0
 14 15  1  0
 15 16  2  0
 16  1  1  0
 17  5  1  0
 18 17  1  0
 19 20  1  0
 19 18  2  0
 20 27  2  0
 21 23  1  0
 21 20  1  0
 22 21  2  0
 23 24  1  0
 24 25  1  0
 24 26  2  0
 27 17  1  0
 27 26  1  0
  1 28  1  6
  2 29  1  0
  2 30  1  0
  3 31  1  0
  3 32  1  0
  4 33  1  0
  4 34  1  0
  5 35  1  1
  6 36  1  0
  7 37  1  0
  8 38  1  0
 14 39  1  0
 15 40  1  0
 18 41  1  0
 23 42  1  0
 25 43  1  0
 25 44  1  0
M  ISO  8  28  13  29  13  30  13  31  13  32  13  33  13  34  13  35  13
M  ISO  7  36  14  37  14  38  14  39  14  40  14  41  14  42   9
M  END
>  <minimizedAffinity>  (1) 
-6.27085781

>  <minimizedRMSD>  (1) 
8.72918892

$$$$
