
     RDKit          3D

 19 19  0  0  0  0  0  0  0  0999 V2000
   37.2140   32.5740   39.5750 C   0  0  0  0  0  0  0  0  0  0  0  0
   37.8720   31.9100   38.5230 C   0  0  0  0  0  0  0  0  0  0  0  0
   38.0530   30.5210   38.6510 C   0  0  0  0  0  0  0  0  0  0  0  0
   37.5950   29.8900   39.7610 N   0  0  0  0  0  0  0  0  0  0  0  0
   36.9650   30.5730   40.7500 C   0  0  0  0  0  0  0  0  0  0  0  0
   36.7900   31.8980   40.6350 N   0  0  0  0  0  0  0  0  0  0  0  0
   36.4760   29.9090   41.9320 N   0  0  0  0  0  0  0  0  0  0  0  0
   37.2710   28.9460   42.6290 C   0  0  0  0  0  0  0  0  0  0  0  0
   38.0830   28.2780   41.8950 N   0  0  0  0  0  0  0  0  0  0  0  0
   37.0820   28.8350   44.0340 N   0  0  0  0  0  0  0  0  0  0  0  0
   38.7360   27.5490   42.1880 H   0  0  0  0  0  0  0  0  0  0  0  0
   37.0270   33.9720   39.4560 N   0  0  0  0  0  0  0  0  0  0  0  0
   38.2300   32.4549   37.6370 H   0  0  0  0  0  0  0  0  0  0  0  0
   38.5611   29.9519   37.8586 H   0  0  0  0  0  0  0  0  0  0  0  0
   35.5336   30.1329   42.2823 H   0  0  0  0  0  0  0  0  0  0  0  0
   37.6335   28.1543   44.5756 H   0  0  0  0  0  0  0  0  0  0  0  0
   36.3936   29.4353   44.5100 H   0  0  0  0  0  0  0  0  0  0  0  0
   37.3680   34.4679   38.6201 H   0  0  0  0  0  0  0  0  0  0  0  0
   36.5500   34.4934   40.2053 H   0  0  0  0  0  0  0  0  0  0  0  0
  1  6  2  0
  2  3  2  0
  2  1  1  0
  3  4  1  0
  4  5  2  0
  5  7  1  0
  6  5  1  0
  7  8  1  0
  8 10  1  0
  9 11  1  0
  9  8  2  0
 12  1  1  0
  2 13  1  0
  3 14  1  0
  7 15  1  0
 10 16  1  0
 10 17  1  0
 12 18  1  0
 12 19  1  0
M  ISO  2  13  14  14  14
M  END
>  <minimizedAffinity>  (1) 
-4.59320688

>  <minimizedRMSD>  (1) 
4.29018497

$$$$
