
     RDKit          3D

 20 21  0  0  0  0  0  0  0  0999 V2000
   37.8180   33.2380   39.9510 C   0  0  0  0  0  0  0  0  0  0  0  0
   39.1680   33.6170   40.0970 C   0  0  0  0  0  0  0  0  0  0  0  0
   40.0090   32.7380   40.8100 C   0  0  0  0  0  0  0  0  0  0  0  0
   39.4850   31.5790   41.3180 N   0  0  0  0  0  0  0  0  0  0  0  0
   38.1750   31.2680   41.1450 C   0  0  0  0  0  0  0  0  0  0  0  0
   37.3570   32.0850   40.4720 N   0  0  0  0  0  0  0  0  0  0  0  0
   37.6930   30.0130   41.7180 C   0  0  0  0  0  0  0  0  0  0  0  0
   38.2510   29.5140   42.8780 C   0  0  0  0  0  0  0  0  0  0  0  0
   37.8510   28.3340   43.4810 C   0  0  0  0  0  0  0  0  0  0  0  0
   36.8550   27.6880   42.8440 N   0  0  0  0  0  0  0  0  0  0  0  0
   36.3100   28.1750   41.7120 C   0  0  0  0  0  0  0  0  0  0  0  0
   36.7060   29.3390   41.1170 N   0  0  0  0  0  0  0  0  0  0  0  0
   36.9450   34.0990   39.2410 N   0  0  0  0  0  0  0  0  0  0  0  0
   39.5489   34.5578   39.6730 H   0  0  0  0  0  0  0  0  0  0  0  0
   41.0720   32.9800   40.9563 H   0  0  0  0  0  0  0  0  0  0  0  0
   39.0614   30.0881   43.3510 H   0  0  0  0  0  0  0  0  0  0  0  0
   38.3095   27.9542   44.4060 H   0  0  0  0  0  0  0  0  0  0  0  0
   35.4988   27.6017   41.2395 H   0  0  0  0  0  0  0  0  0  0  0  0
   35.9544   33.8434   39.1213 H   0  0  0  0  0  0  0  0  0  0  0  0
   37.3010   34.9805   38.8445 H   0  0  0  0  0  0  0  0  0  0  0  0
  1  2  2  0
  1  6  1  0
  2  3  1  0
  3  4  2  0
  5  4  1  0
  5  7  1  0
  6  5  2  0
  7  8  2  0
  8  9  1  0
 10  9  2  0
 11 10  1  0
 12 11  2  0
 12  7  1  0
 13  1  1  0
  2 14  1  0
  3 15  1  0
  8 16  1  0
  9 17  1  0
 11 18  1  0
 13 19  1  0
 13 20  1  0
M  ISO  5  14  14  15  14  16  14  17  14  18  14
M  END
>  <minimizedAffinity>  (1) 
-4.42592335

>  <minimizedRMSD>  (1) 
4.57523918

$$$$
