
     RDKit          3D

 15 15  0  0  0  0  0  0  0  0999 V2000
   39.4730   29.5350   42.6640 C   0  0  0  0  0  0  0  0  0  0  0  0
   40.5650   28.6970   42.9650 C   0  0  0  0  0  0  0  0  0  0  0  0
   40.2990   27.3760   43.3740 C   0  0  0  0  0  0  0  0  0  0  0  0
   39.0010   26.9810   43.4550 N   0  0  0  0  0  0  0  0  0  0  0  0
   37.9830   27.8160   43.1560 C   0  0  0  0  0  0  0  0  0  0  0  0
   38.2240   29.0720   42.7670 N   0  0  0  0  0  0  0  0  0  0  0  0
   36.5730   27.2950   43.2730 C   0  0  0  0  0  0  0  0  0  0  0  0
   36.0420   27.5270   44.5110 F   0  0  0  0  0  0  0  0  0  0  0  0
   36.5560   25.9530   42.9120 F   0  0  0  0  0  0  0  0  0  0  0  0
   35.8410   28.0080   42.3420 F   0  0  0  0  0  0  0  0  0  0  0  0
   39.7250   30.8650   42.2520 N   0  0  0  0  0  0  0  0  0  0  0  0
   41.5983   29.0650   42.8827 H   0  0  0  0  0  0  0  0  0  0  0  0
   41.1177   26.6841   43.6207 H   0  0  0  0  0  0  0  0  0  0  0  0
   40.6940   31.2063   42.1778 H   0  0  0  0  0  0  0  0  0  0  0  0
   38.9395   31.4918   42.0263 H   0  0  0  0  0  0  0  0  0  0  0  0
  1  6  2  0
  1  2  1  0
  2  3  2  0
  3  4  1  0
  5  7  1  0
  5  4  2  0
  6  5  1  0
  7  8  1  0
  9  7  1  0
 10  7  1  0
 11  1  1  0
  2 12  1  0
  3 13  1  0
 11 14  1  0
 11 15  1  0
M  ISO  2  12  14  13  14
M  END
>  <minimizedAffinity>  (1) 
-3.93486071

>  <minimizedRMSD>  (1) 
2.59933305

$$$$
