
     RDKit          3D

 14 14  0  0  0  0  0  0  0  0999 V2000
   37.1340   28.1410   43.8190 C   0  0  0  0  0  0  0  0  0  0  0  0
   38.1090   29.0450   43.3540 C   0  0  0  0  0  0  0  0  0  0  0  0
   38.7910   28.6870   42.1600 C   0  0  0  0  0  0  0  0  0  0  0  0
   38.4680   27.5060   41.5420 N   0  0  0  0  0  0  0  0  0  0  0  0
   37.5220   26.6900   42.0450 C   0  0  0  0  0  0  0  0  0  0  0  0
   36.8640   27.0050   43.1710 N   0  0  0  0  0  0  0  0  0  0  0  0
   36.4330   28.4650   45.0090 N   0  0  0  0  0  0  0  0  0  0  0  0
   37.1550   25.4270   41.4120 C   0  0  0  0  0  0  0  0  0  0  0  0
   36.6970   24.4420   42.0260 O   0  0  0  0  0  0  0  0  0  0  0  0
   38.3312   29.9806   43.8881 H   0  0  0  0  0  0  0  0  0  0  0  0
   39.5647   29.3457   41.7386 H   0  0  0  0  0  0  0  0  0  0  0  0
   35.7142   27.8239   45.3741 H   0  0  0  0  0  0  0  0  0  0  0  0
   36.6428   29.3413   45.5079 H   0  0  0  0  0  0  0  0  0  0  0  0
   37.2909   25.3378   40.3241 H   0  0  0  0  0  0  0  0  0  0  0  0
  1  7  1  0
  2  1  2  0
  3  2  1  0
  4  5  1  0
  4  3  2  0
  5  6  2  0
  6  1  1  0
  8  9  2  0
  8  5  1  0
  2 10  1  0
  3 11  1  0
  7 12  1  0
  7 13  1  0
  8 14  1  0
M  ISO  3  10  14  11  14  14   6
M  END
>  <minimizedAffinity>  (1) 
-3.42887688

>  <minimizedRMSD>  (1) 
1.90897989

$$$$
