
     RDKit          3D

 14 14  0  0  0  0  0  0  0  0999 V2000
   36.9160   29.2370   42.0960 C   0  0  0  0  0  0  0  0  0  0  0  0
   38.1650   29.6430   42.5990 C   0  0  0  0  0  0  0  0  0  0  0  0
   39.0320   28.6270   43.0370 C   0  0  0  0  0  0  0  0  0  0  0  0
   38.6310   27.3320   42.9530 N   0  0  0  0  0  0  0  0  0  0  0  0
   37.4250   26.9920   42.4640 C   0  0  0  0  0  0  0  0  0  0  0  0
   36.5750   27.9470   42.0380 N   0  0  0  0  0  0  0  0  0  0  0  0
   36.9640   25.6590   42.3580 N   0  0  0  0  0  0  0  0  0  0  0  0
   35.9980   30.2270   41.6390 N   0  0  0  0  0  0  0  0  0  0  0  0
   38.4497   30.7044   42.6473 H   0  0  0  0  0  0  0  0  0  0  0  0
   40.0232   28.8776   43.4429 H   0  0  0  0  0  0  0  0  0  0  0  0
   36.0279   25.4668   41.9736 H   0  0  0  0  0  0  0  0  0  0  0  0
   37.5644   24.8805   42.6652 H   0  0  0  0  0  0  0  0  0  0  0  0
   35.0794   29.9454   41.2679 H   0  0  0  0  0  0  0  0  0  0  0  0
   36.2533   31.2240   41.6799 H   0  0  0  0  0  0  0  0  0  0  0  0
  1  2  2  0
  2  3  1  0
  4  3  2  0
  5  4  1  0
  6  1  1  0
  6  5  2  0
  7  5  1  0
  8  1  1  0
  2  9  1  0
  3 10  1  0
  7 11  1  0
  7 12  1  0
  8 13  1  0
  8 14  1  0
M  ISO  2   9  14  10  14
M  END
>  <minimizedAffinity>  (1) 
-3.04823112

>  <minimizedRMSD>  (1) 
0.314335227

$$$$
