
     RDKit          3D

 13 13  0  0  0  0  0  0  0  0999 V2000
   36.8400   29.2750   41.9060 C   0  0  0  0  0  0  0  0  0  0  0  0
   38.0480   29.7330   42.4790 C   0  0  0  0  0  0  0  0  0  0  0  0
   38.9640   28.7390   42.9200 C   0  0  0  0  0  0  0  0  0  0  0  0
   38.6290   27.4300   42.7640 N   0  0  0  0  0  0  0  0  0  0  0  0
   37.4590   27.0450   42.2070 C   0  0  0  0  0  0  0  0  0  0  0  0
   36.5750   27.9710   41.7830 N   0  0  0  0  0  0  0  0  0  0  0  0
   35.9250   30.2520   41.4660 N   0  0  0  0  0  0  0  0  0  0  0  0
   37.1530   25.2840   42.0670 S   0  0  0  0  0  0  0  0  0  0  0  0
   38.2688   30.8060   42.5789 H   0  0  0  0  0  0  0  0  0  0  0  0
   39.9232   29.0226   43.3776 H   0  0  0  0  0  0  0  0  0  0  0  0
   35.0310   29.9664   41.0417 H   0  0  0  0  0  0  0  0  0  0  0  0
   36.1502   31.2518   41.5687 H   0  0  0  0  0  0  0  0  0  0  0  0
   37.0578   24.7361   43.3190 H   0  0  0  0  0  0  0  0  0  0  0  0
  1  2  2  0
  2  3  1  0
  4  3  2  0
  5  4  1  0
  6  1  1  0
  6  5  2  0
  7  1  1  0
  8  5  1  0
  2  9  1  0
  3 10  1  0
  7 11  1  0
  7 12  1  0
  8 13  1  0
M  ISO  3   9  14  10  14  13  11
M  END
>  <minimizedAffinity>  (1) 
-3.01364064

>  <minimizedRMSD>  (1) 
0.365678966

$$$$
