
     RDKit          3D

 27 29  0  0  0  0  0  0  0  0999 V2000
   36.5600   29.4070   41.5280 C   0  0  0  0  0  0  0  0  0  0  0  0
   37.5760   30.3500   41.8310 C   0  0  0  0  0  0  0  0  0  0  0  0
   38.7510   29.8520   42.4780 C   0  0  0  0  0  0  0  0  0  0  0  0
   38.8220   28.5070   42.7600 N   0  0  0  0  0  0  0  0  0  0  0  0
   37.8130   27.6760   42.4370 C   0  0  0  0  0  0  0  0  0  0  0  0
   36.6800   28.1230   41.8200 N   0  0  0  0  0  0  0  0  0  0  0  0
   35.4050   29.8880   40.8930 N   0  0  0  0  0  0  0  0  0  0  0  0
   38.0110   26.3500   42.7760 O   0  0  0  0  0  0  0  0  0  0  0  0
   37.7930   25.2780   41.9440 C   0  0  0  0  0  0  0  0  0  0  0  0
   36.7820   24.3760   41.8130 C   0  0  0  0  0  0  0  0  0  0  0  0
   37.0960   23.5190   40.8130 N   0  0  0  0  0  0  0  0  0  0  0  0
   38.2930   23.8500   40.2940 C   0  0  0  0  0  0  0  0  0  0  0  0
   39.0080   23.2640   39.2670 C   0  0  0  0  0  0  0  0  0  0  0  0
   40.2260   23.8220   38.9420 C   0  0  0  0  0  0  0  0  0  0  0  0
   40.7390   24.9210   39.5960 C   0  0  0  0  0  0  0  0  0  0  0  0
   40.0010   25.4830   40.6160 C   0  0  0  0  0  0  0  0  0  0  0  0
   38.7620   24.9610   40.9890 C   0  0  0  0  0  0  0  0  0  0  0  0
   37.4654   31.4152   41.5800 H   0  0  0  0  0  0  0  0  0  0  0  0
   39.5774   30.5278   42.7435 H   0  0  0  0  0  0  0  0  0  0  0  0
   35.3197   30.8897   40.6691 H   0  0  0  0  0  0  0  0  0  0  0  0
   34.6425   29.2394   40.6507 H   0  0  0  0  0  0  0  0  0  0  0  0
   35.8638   24.3481   42.4181 H   0  0  0  0  0  0  0  0  0  0  0  0
   36.5087   22.7338   40.4976 H   0  0  0  0  0  0  0  0  0  0  0  0
   38.6203   22.3861   38.7295 H   0  0  0  0  0  0  0  0  0  0  0  0
   40.8122   23.3716   38.1274 H   0  0  0  0  0  0  0  0  0  0  0  0
   41.7151   25.3404   39.3108 H   0  0  0  0  0  0  0  0  0  0  0  0
   40.3973   26.3612   41.1468 H   0  0  0  0  0  0  0  0  0  0  0  0
  1  6  2  0
  1  2  1  0
  2  3  2  0
  3  4  1  0
  5  4  2  0
  5  8  1  0
  6  5  1  0
  7  1  1  0
  9  8  1  0
 10  9  2  0
 11 10  1  0
 12 11  1  0
 12 17  2  0
 13 12  1  0
 14 13  2  0
 14 15  1  0
 15 16  2  0
 16 17  1  0
 17  9  1  0
  2 18  1  0
  3 19  1  0
  7 20  1  0
  7 21  1  0
 10 22  1  0
 11 23  1  0
 13 24  1  0
 14 25  1  0
 15 26  1  0
 16 27  1  0
M  ISO  8  18  14  19  14  22  14  23   9  24  14  25  14  26  14  27  14
M  END
>  <minimizedAffinity>  (1) 
-4.24984884

>  <minimizedRMSD>  (1) 
3.17918015

$$$$
