
     RDKit          3D

 29 30  0  0  0  0  0  0  0  0999 V2000
   36.0950   29.5060   40.9430 C   0  0  0  0  0  0  0  0  0  0  0  0
   36.5540   28.2460   41.3980 C   0  0  0  0  0  0  0  0  0  0  0  0
   37.8630   28.2090   41.9690 C   0  0  0  0  0  0  0  0  0  0  0  0
   38.5780   29.3670   42.0420 N   0  0  0  0  0  0  0  0  0  0  0  0
   38.0700   30.5430   41.5840 C   0  0  0  0  0  0  0  0  0  0  0  0
   36.8230   30.6020   41.0350 N   0  0  0  0  0  0  0  0  0  0  0  0
   34.8040   29.5600   40.3750 N   0  0  0  0  0  0  0  0  0  0  0  0
   38.9140   31.6310   41.7260 O   0  0  0  0  0  0  0  0  0  0  0  0
   39.1670   32.3860   40.5550 C   0  0  0  0  0  0  0  0  0  0  0  0
   40.6680   32.6390   40.3900 C   0  0  0  0  0  0  0  0  0  0  0  0
   40.7830   33.5650   39.1830 C   0  0  0  0  0  0  0  0  0  0  0  0
   40.3900   34.9360   39.6830 C   0  0  0  0  0  0  0  0  0  0  0  0
   39.2050   34.8940   40.6140 C   0  0  0  0  0  0  0  0  0  0  0  0
   38.3820   33.6440   40.4660 C   0  0  0  0  0  0  0  0  0  0  0  0
   35.9338   27.3412   41.3159 H   0  0  0  0  0  0  0  0  0  0  0  0
   38.2855   27.2645   42.3424 H   0  0  0  0  0  0  0  0  0  0  0  0
   34.2365   28.7034   40.3037 H   0  0  0  0  0  0  0  0  0  0  0  0
   34.4294   30.4560   40.0318 H   0  0  0  0  0  0  0  0  0  0  0  0
   38.8173   31.7730   39.7112 H   0  0  0  0  0  0  0  0  0  0  0  0
   41.0795   33.1222   41.2884 H   0  0  0  0  0  0  0  0  0  0  0  0
   41.2310   31.7046   40.2486 H   0  0  0  0  0  0  0  0  0  0  0  0
   40.1026   33.2387   38.3826 H   0  0  0  0  0  0  0  0  0  0  0  0
   41.7996   33.5612   38.7628 H   0  0  0  0  0  0  0  0  0  0  0  0
   41.2446   35.3740   40.2195 H   0  0  0  0  0  0  0  0  0  0  0  0
   40.1070   35.5416   38.8094 H   0  0  0  0  0  0  0  0  0  0  0  0
   39.5713   34.9513   41.6496 H   0  0  0  0  0  0  0  0  0  0  0  0
   38.5570   35.7453   40.3584 H   0  0  0  0  0  0  0  0  0  0  0  0
   37.8848   33.6721   39.4852 H   0  0  0  0  0  0  0  0  0  0  0  0
   37.6694   33.6328   41.3039 H   0  0  0  0  0  0  0  0  0  0  0  0
  1  6  2  0
  1  2  1  0
  2  3  2  0
  3  4  1  0
  5  8  1  0
  5  4  2  0
  6  5  1  0
  7  1  1  0
  9  8  1  0
 10  9  1  0
 11 12  1  0
 11 10  1  0
 12 13  1  0
 14  9  1  0
 14 13  1  0
  2 15  1  0
  3 16  1  0
  7 17  1  0
  7 18  1  0
  9 19  1  0
 10 20  1  0
 10 21  1  0
 11 22  1  0
 11 23  1  0
 12 24  1  0
 12 25  1  0
 13 26  1  0
 13 27  1  0
 14 28  1  0
 14 29  1  0
M  ISO  8  15  14  16  14  19  13  20  13  21  13  22  13  23  13  24  13
M  ISO  5  25  13  26  13  27  13  28  13  29  13
M  END
>  <minimizedAffinity>  (1) 
-4.17555857

>  <minimizedRMSD>  (1) 
7.45541525

$$$$
