
     RDKit          3D

 22 22  0  0  0  0  0  0  0  0999 V2000
   37.4640   32.0050   40.6920 C   0  0  0  0  0  0  0  0  0  0  0  0
   38.8340   32.1350   40.9740 C   0  0  0  0  0  0  0  0  0  0  0  0
   39.4450   31.0830   41.7010 C   0  0  0  0  0  0  0  0  0  0  0  0
   38.6790   30.0160   42.0820 N   0  0  0  0  0  0  0  0  0  0  0  0
   37.3630   29.9530   41.7790 C   0  0  0  0  0  0  0  0  0  0  0  0
   36.7700   30.9530   41.0830 N   0  0  0  0  0  0  0  0  0  0  0  0
   36.8190   33.0380   39.9670 N   0  0  0  0  0  0  0  0  0  0  0  0
   36.7050   28.8200   42.2230 O   0  0  0  0  0  0  0  0  0  0  0  0
   37.4210   28.0040   43.1400 C   0  0  0  0  0  0  0  0  0  0  0  0
   36.8190   28.0690   44.5070 C   0  0  0  0  0  0  0  0  0  0  0  0
   37.3670   26.5680   42.6380 C   0  0  0  0  0  0  0  0  0  0  0  0
   39.4072   33.0144   40.6451 H   0  0  0  0  0  0  0  0  0  0  0  0
   40.5147   31.1239   41.9540 H   0  0  0  0  0  0  0  0  0  0  0  0
   35.8151   32.9645   39.7486 H   0  0  0  0  0  0  0  0  0  0  0  0
   37.3541   33.8622   39.6585 H   0  0  0  0  0  0  0  0  0  0  0  0
   38.4587   28.3628   43.2069 H   0  0  0  0  0  0  0  0  0  0  0  0
   37.6141   27.9831   45.2623 H   0  0  0  0  0  0  0  0  0  0  0  0
   36.2964   29.0288   44.6322 H   0  0  0  0  0  0  0  0  0  0  0  0
   36.1036   27.2429   44.6322 H   0  0  0  0  0  0  0  0  0  0  0  0
   37.3411   25.8803   43.4961 H   0  0  0  0  0  0  0  0  0  0  0  0
   36.4629   26.4267   42.0275 H   0  0  0  0  0  0  0  0  0  0  0  0
   38.2579   26.3592   42.0275 H   0  0  0  0  0  0  0  0  0  0  0  0
  1  2  2  0
  1  6  1  0
  2  3  1  0
  3  4  2  0
  5  4  1  0
  5  8  1  0
  6  5  2  0
  7  1  1  0
  8  9  1  0
  9 10  1  0
 11  9  1  0
  2 12  1  0
  3 13  1  0
  7 14  1  0
  7 15  1  0
  9 16  1  0
 10 17  1  0
 10 18  1  0
 10 19  1  0
 11 20  1  0
 11 21  1  0
 11 22  1  0
M  ISO  8  12  14  13  14  16   8  17   8  18   8  19   8  20   8  21   8
M  ISO  1  22   8
M  END
>  <minimizedAffinity>  (1) 
-4.01359081

>  <minimizedRMSD>  (1) 
3.1244452

$$$$
