
     RDKit          3D

 16 16  0  0  0  0  0  0  0  0999 V2000
   37.4520   32.3480   40.5110 C   0  0  0  0  0  0  0  0  0  0  0  0
   38.7970   32.4640   40.9020 C   0  0  0  0  0  0  0  0  0  0  0  0
   39.3730   31.3740   41.5990 C   0  0  0  0  0  0  0  0  0  0  0  0
   38.5880   30.2850   41.8490 N   0  0  0  0  0  0  0  0  0  0  0  0
   37.3050   30.2280   41.4510 C   0  0  0  0  0  0  0  0  0  0  0  0
   36.7250   31.2580   40.7780 N   0  0  0  0  0  0  0  0  0  0  0  0
   36.8650   33.4340   39.8100 N   0  0  0  0  0  0  0  0  0  0  0  0
   36.6390   29.0640   41.7740 O   0  0  0  0  0  0  0  0  0  0  0  0
   36.8110   28.3520   42.9480 C   0  0  0  0  0  0  0  0  0  0  0  0
   36.7960   27.1100   43.1040 O   0  0  0  0  0  0  0  0  0  0  0  0
   37.0370   28.8940   44.1850 O   0  0  0  0  0  0  0  0  0  0  0  0
   39.3808   33.3682   40.6750 H   0  0  0  0  0  0  0  0  0  0  0  0
   40.4218   31.4038   41.9292 H   0  0  0  0  0  0  0  0  0  0  0  0
   37.4226   34.2749   39.6029 H   0  0  0  0  0  0  0  0  0  0  0  0
   35.8815   33.3810   39.5085 H   0  0  0  0  0  0  0  0  0  0  0  0
   37.1483   28.3031   44.9715 H   0  0  0  0  0  0  0  0  0  0  0  0
  1  6  2  0
  1  2  1  0
  2  3  2  0
  3  4  1  0
  5  8  1  0
  5  4  2  0
  6  5  1  0
  7  1  1  0
  8  9  1  0
  9 10  2  0
  9 11  1  0
  2 12  1  0
  3 13  1  0
  7 14  1  0
  7 15  1  0
 11 16  1  0
M  ISO  3  12  14  13  14  16   3
M  END
>  <minimizedAffinity>  (1) 
-4.01280928

>  <minimizedRMSD>  (1) 
3.26041222

$$$$
