
     RDKit          3D

 19 19  0  0  0  0  0  0  0  0999 V2000
   36.8100   29.9910   41.6040 C   0  0  0  0  0  0  0  0  0  0  0  0
   38.1310   30.4560   41.4850 C   0  0  0  0  0  0  0  0  0  0  0  0
   39.1850   29.5430   41.8060 C   0  0  0  0  0  0  0  0  0  0  0  0
   38.8420   28.2730   42.2080 N   0  0  0  0  0  0  0  0  0  0  0  0
   37.5370   27.9000   42.2970 C   0  0  0  0  0  0  0  0  0  0  0  0
   36.5450   28.7570   41.9950 N   0  0  0  0  0  0  0  0  0  0  0  0
   35.7710   30.8890   41.2880 N   0  0  0  0  0  0  0  0  0  0  0  0
   37.3470   26.5950   42.7130 O   0  0  0  0  0  0  0  0  0  0  0  0
   37.2130   25.5720   41.7720 C   0  0  0  0  0  0  0  0  0  0  0  0
   37.7720   24.2480   42.1610 C   0  0  0  0  0  0  0  0  0  0  0  0
   38.3466   31.4837   41.1573 H   0  0  0  0  0  0  0  0  0  0  0  0
   40.2394   29.8480   41.7334 H   0  0  0  0  0  0  0  0  0  0  0  0
   35.9935   31.8478   40.9846 H   0  0  0  0  0  0  0  0  0  0  0  0
   34.7891   30.5865   41.3604 H   0  0  0  0  0  0  0  0  0  0  0  0
   37.7208   25.8939   40.8508 H   0  0  0  0  0  0  0  0  0  0  0  0
   36.1303   25.4143   41.6586 H   0  0  0  0  0  0  0  0  0  0  0  0
   37.8043   24.1716   43.2579 H   0  0  0  0  0  0  0  0  0  0  0  0
   37.1349   23.4478   41.7563 H   0  0  0  0  0  0  0  0  0  0  0  0
   38.7898   24.1465   41.7563 H   0  0  0  0  0  0  0  0  0  0  0  0
  1  6  2  0
  2  1  1  0
  2  3  2  0
  3  4  1  0
  4  5  2  0
  5  8  1  0
  6  5  1  0
  7  1  1  0
  9 10  1  0
  9  8  1  0
  2 11  1  0
  3 12  1  0
  7 13  1  0
  7 14  1  0
  9 15  1  0
  9 16  1  0
 10 17  1  0
 10 18  1  0
 10 19  1  0
M  ISO  7  11  14  12  14  15   8  16   8  17   8  18   8  19   8
M  END
>  <minimizedAffinity>  (1) 
-3.42678308

>  <minimizedRMSD>  (1) 
1.28021216

$$$$
