
     RDKit          3D

 31 33  0  0  0  0  0  0  0  0999 V2000
   38.1750   29.4560   41.0650 C   0  0  0  0  0  0  0  0  0  0  0  0
   38.5470   29.3610   39.7730 N   0  0  0  0  0  0  0  0  0  0  0  0
   38.8960   30.5430   39.3410 O   0  0  0  0  0  0  0  0  0  0  0  0
   38.7740   31.4250   40.2950 C   0  0  0  0  0  0  0  0  0  0  0  0
   38.3180   30.7620   41.3990 N   0  0  0  0  0  0  0  0  0  0  0  0
   39.0530   32.8370   40.2360 N   0  0  0  0  0  0  0  0  0  0  0  0
   40.2490   33.3460   40.5860 C   0  0  0  0  0  0  0  0  0  0  0  0
   40.4730   34.7120   40.5140 C   0  0  0  0  0  0  0  0  0  0  0  0
   41.7960   35.2780   40.9010 C   0  0  0  0  0  0  0  0  0  0  0  0
   39.4150   35.5060   40.0710 C   0  0  0  0  0  0  0  0  0  0  0  0
   39.6170   36.7410   40.0050 O   0  0  0  0  0  0  0  0  0  0  0  0
   38.2210   34.9700   39.7240 N   0  0  0  0  0  0  0  0  0  0  0  0
   38.0480   33.6240   39.8110 C   0  0  0  0  0  0  0  0  0  0  0  0
   36.8970   33.2500   39.4620 O   0  0  0  0  0  0  0  0  0  0  0  0
   37.7160   28.6410   42.0910 O   0  0  0  0  0  0  0  0  0  0  0  0
   38.7960   25.2380   42.6750 C   0  0  0  0  0  0  0  0  0  0  0  0
   39.8980   25.4460   43.5300 C   0  0  0  0  0  0  0  0  0  0  0  0
   40.2300   26.7760   43.8770 C   0  0  0  0  0  0  0  0  0  0  0  0
   39.4590   27.7820   43.3600 N   0  0  0  0  0  0  0  0  0  0  0  0
   38.4150   27.5320   42.5460 C   0  0  0  0  0  0  0  0  0  0  0  0
   38.0870   26.2640   42.2060 N   0  0  0  0  0  0  0  0  0  0  0  0
   38.4700   23.9170   42.3340 N   0  0  0  0  0  0  0  0  0  0  0  0
   41.0508   32.6761   40.9301 H   0  0  0  0  0  0  0  0  0  0  0  0
   41.8739   35.3113   41.9977 H   0  0  0  0  0  0  0  0  0  0  0  0
   42.5986   34.6445   40.4955 H   0  0  0  0  0  0  0  0  0  0  0  0
   41.8921   36.2960   40.4955 H   0  0  0  0  0  0  0  0  0  0  0  0
   37.4532   35.5743   39.3981 H   0  0  0  0  0  0  0  0  0  0  0  0
   40.4826   24.5979   43.9159 H   0  0  0  0  0  0  0  0  0  0  0  0
   41.0797   26.9950   44.5404 H   0  0  0  0  0  0  0  0  0  0  0  0
   37.6713   23.7279   41.7117 H   0  0  0  0  0  0  0  0  0  0  0  0
   39.0293   23.1361   42.7059 H   0  0  0  0  0  0  0  0  0  0  0  0
  1  5  1  0
  1 15  1  0
  2  1  2  0
  3  2  1  0
  3  4  1  0
  4  5  2  0
  6  4  1  0
  6  7  1  0
  8  7  2  0
  8  9  1  0
 10  8  1  0
 11 10  2  0
 12 13  1  0
 12 10  1  0
 13  6  1  0
 14 13  2  0
 15 20  1  0
 16 17  2  0
 17 18  1  0
 19 18  2  0
 20 19  1  0
 21 20  2  0
 21 16  1  0
 22 16  1  0
  7 23  1  0
  9 24  1  0
  9 25  1  0
  9 26  1  0
 12 27  1  0
 17 28  1  0
 18 29  1  0
 22 30  1  0
 22 31  1  0
M  ISO  7  23  14  24   8  25   8  26   8  27   9  28  14  29  14
M  END
>  <minimizedAffinity>  (1) 
-6.34638786

>  <minimizedRMSD>  (1) 
2.29948473

$$$$
