
     RDKit          3D

 31 33  0  0  0  0  0  0  0  0999 V2000
   36.4600   28.6910   41.8650 C   0  0  0  0  0  0  0  0  0  0  0  0
   35.7660   28.9540   40.7400 N   0  0  0  0  0  0  0  0  0  0  0  0
   36.1730   30.0770   40.2330 O   0  0  0  0  0  0  0  0  0  0  0  0
   37.1190   30.5890   40.9720 C   0  0  0  0  0  0  0  0  0  0  0  0
   37.3220   29.7440   42.0030 N   0  0  0  0  0  0  0  0  0  0  0  0
   39.2240   34.2150   40.1840 C   0  0  0  0  0  0  0  0  0  0  0  0
   39.8320   33.1610   40.8670 C   0  0  0  0  0  0  0  0  0  0  0  0
   39.0950   31.9950   41.0980 C   0  0  0  0  0  0  0  0  0  0  0  0
   37.7890   31.8500   40.6740 C   0  0  0  0  0  0  0  0  0  0  0  0
   37.2230   32.8930   40.0110 C   0  0  0  0  0  0  0  0  0  0  0  0
   37.9180   34.0590   39.7650 C   0  0  0  0  0  0  0  0  0  0  0  0
   40.2180   35.6330   39.9390 S   0  0  0  0  0  0  0  0  0  0  0  0
   39.2950   36.8420   39.9810 O   0  0  0  0  0  0  0  0  0  0  0  0
   41.1810   35.8200   41.0840 O   0  0  0  0  0  0  0  0  0  0  0  0
   36.5430   27.7310   42.8490 O   0  0  0  0  0  0  0  0  0  0  0  0
   38.5040   24.7210   42.4040 C   0  0  0  0  0  0  0  0  0  0  0  0
   39.6650   25.0360   43.1470 C   0  0  0  0  0  0  0  0  0  0  0  0
   39.7120   26.3140   43.7850 C   0  0  0  0  0  0  0  0  0  0  0  0
   38.6400   27.1500   43.6380 N   0  0  0  0  0  0  0  0  0  0  0  0
   37.5600   26.7920   42.9160 C   0  0  0  0  0  0  0  0  0  0  0  0
   37.4940   25.5900   42.3050 N   0  0  0  0  0  0  0  0  0  0  0  0
   38.4470   23.4780   41.7800 N   0  0  0  0  0  0  0  0  0  0  0  0
   40.8714   33.2456   41.2171 H   0  0  0  0  0  0  0  0  0  0  0  0
   39.5730   31.1636   41.6368 H   0  0  0  0  0  0  0  0  0  0  0  0
   36.1837   32.8050   39.6615 H   0  0  0  0  0  0  0  0  0  0  0  0
   37.4225   34.8794   39.2251 H   0  0  0  0  0  0  0  0  0  0  0  0
   40.9005   35.4958   38.7591 H   0  0  0  0  0  0  0  0  0  0  0  0
   40.4999   24.3248   43.2308 H   0  0  0  0  0  0  0  0  0  0  0  0
   40.5872   26.6170   44.3785 H   0  0  0  0  0  0  0  0  0  0  0  0
   37.6164   23.2152   41.2305 H   0  0  0  0  0  0  0  0  0  0  0  0
   39.2354   22.8211   41.8678 H   0  0  0  0  0  0  0  0  0  0  0  0
  1  5  1  0
  1 15  1  0
  2  1  2  0
  3  2  1  0
  3  4  1  0
  4  5  2  0
  6  7  2  0
  7  8  1  0
  9  4  1  0
  9  8  2  0
 10  9  1  0
 11 10  2  0
 11  6  1  0
 12 13  2  0
 12  6  1  0
 12 14  2  0
 15 20  1  0
 16 17  2  0
 17 18  1  0
 19 18  2  0
 20 19  1  0
 21 16  1  0
 21 20  2  0
 22 16  1  0
  7 23  1  0
  8 24  1  0
 10 25  1  0
 11 26  1  0
 12 27  1  0
 17 28  1  0
 18 29  1  0
 22 30  1  0
 22 31  1  0
M  ISO  7  23  14  24  14  25  14  26  14  27  11  28  14  29  14
M  END
>  <minimizedAffinity>  (1) 
-6.14407015

>  <minimizedRMSD>  (1) 
2.31025481

$$$$
