
     RDKit          3D

 32 35  0  0  0  0  0  0  0  0999 V2000
   38.4460   29.7710   42.4350 C   0  0  0  0  0  0  0  0  0  0  0  0
   37.8130   30.3660   41.4180 N   0  0  0  0  0  0  0  0  0  0  0  0
   38.6000   31.2310   40.8610 O   0  0  0  0  0  0  0  0  0  0  0  0
   39.7720   31.2630   41.4580 C   0  0  0  0  0  0  0  0  0  0  0  0
   39.6590   30.3510   42.4330 N   0  0  0  0  0  0  0  0  0  0  0  0
   40.7510   32.1990   40.9260 C   0  0  0  0  0  0  0  0  0  0  0  0
   42.0620   31.9090   40.7060 N   0  0  0  0  0  0  0  0  0  0  0  0
   42.9420   32.7880   40.2150 C   0  0  0  0  0  0  0  0  0  0  0  0
   42.6040   34.0460   39.8910 N   0  0  0  0  0  0  0  0  0  0  0  0
   41.3220   34.4060   40.0810 C   0  0  0  0  0  0  0  0  0  0  0  0
   40.9880   35.7020   39.7450 C   0  0  0  0  0  0  0  0  0  0  0  0
   39.6940   36.1480   39.9100 C   0  0  0  0  0  0  0  0  0  0  0  0
   38.7550   35.2520   40.4210 C   0  0  0  0  0  0  0  0  0  0  0  0
   39.1690   33.9760   40.7320 C   0  0  0  0  0  0  0  0  0  0  0  0
   40.4310   33.4950   40.5860 C   0  0  0  0  0  0  0  0  0  0  0  0
   38.3000   28.8270   43.4290 O   0  0  0  0  0  0  0  0  0  0  0  0
   38.1310   25.3310   42.4380 C   0  0  0  0  0  0  0  0  0  0  0  0
   39.3280   24.8360   43.0060 C   0  0  0  0  0  0  0  0  0  0  0  0
   40.1530   25.7630   43.7200 C   0  0  0  0  0  0  0  0  0  0  0  0
   39.7370   27.0600   43.8100 N   0  0  0  0  0  0  0  0  0  0  0  0
   38.5780   27.4720   43.2440 C   0  0  0  0  0  0  0  0  0  0  0  0
   37.7820   26.6100   42.5620 N   0  0  0  0  0  0  0  0  0  0  0  0
   37.2970   24.4600   41.7320 N   0  0  0  0  0  0  0  0  0  0  0  0
   43.9843   32.4674   40.0709 H   0  0  0  0  0  0  0  0  0  0  0  0
   41.7557   36.3806   39.3447 H   0  0  0  0  0  0  0  0  0  0  0  0
   39.4110   37.1779   39.6470 H   0  0  0  0  0  0  0  0  0  0  0  0
   37.7090   35.5573   40.5719 H   0  0  0  0  0  0  0  0  0  0  0  0
   38.4120   33.2863   41.1335 H   0  0  0  0  0  0  0  0  0  0  0  0
   39.6142   23.7789   42.9031 H   0  0  0  0  0  0  0  0  0  0  0  0
   41.0965   25.4389   44.1835 H   0  0  0  0  0  0  0  0  0  0  0  0
   37.5564   23.4685   41.6294 H   0  0  0  0  0  0  0  0  0  0  0  0
   36.4228   24.8095   41.3142 H   0  0  0  0  0  0  0  0  0  0  0  0
  1 16  1  0
  2  1  2  0
  3  2  1  0
  3  4  1  0
  4  5  2  0
  5  1  1  0
  6  4  1  0
  7  6  2  0
  8  7  1  0
  9 10  1  0
  9  8  2  0
 10 15  2  0
 11 12  2  0
 11 10  1  0
 12 13  1  0
 13 14  2  0
 15 14  1  0
 15  6  1  0
 17 22  2  0
 17 18  1  0
 18 19  2  0
 19 20  1  0
 21 16  1  0
 21 20  2  0
 22 21  1  0
 23 17  1  0
  8 24  1  0
 11 25  1  0
 12 26  1  0
 13 27  1  0
 14 28  1  0
 18 29  1  0
 19 30  1  0
 23 31  1  0
 23 32  1  0
M  ISO  7  24  14  25  14  26  14  27  14  28  14  29  14  30  14
M  END
>  <minimizedAffinity>  (1) 
-6.02536678

>  <minimizedRMSD>  (1) 
0.955287755

$$$$
