
     RDKit          3D

 29 31  0  0  0  0  0  0  0  0999 V2000
   37.9360   29.3270   42.2920 C   0  0  0  0  0  0  0  0  0  0  0  0
   37.2690   29.5670   41.1560 N   0  0  0  0  0  0  0  0  0  0  0  0
   37.7590   30.6430   40.5780 O   0  0  0  0  0  0  0  0  0  0  0  0
   38.7300   31.1220   41.2950 C   0  0  0  0  0  0  0  0  0  0  0  0
   38.8740   30.3250   42.3820 N   0  0  0  0  0  0  0  0  0  0  0  0
   39.4160   32.2920   40.8640 N   0  0  0  0  0  0  0  0  0  0  0  0
   40.7650   32.2740   40.9830 C   0  0  0  0  0  0  0  0  0  0  0  0
   41.4970   33.3880   40.5790 C   0  0  0  0  0  0  0  0  0  0  0  0
   40.7810   34.4600   40.0730 C   0  0  0  0  0  0  0  0  0  0  0  0
   41.4100   35.6640   39.6240 N   0  0  0  0  0  0  0  0  0  0  0  0
   39.4190   34.4570   39.9620 N   0  0  0  0  0  0  0  0  0  0  0  0
   38.7360   33.3510   40.3670 C   0  0  0  0  0  0  0  0  0  0  0  0
   37.4820   33.2970   40.2860 O   0  0  0  0  0  0  0  0  0  0  0  0
   37.9730   28.4330   43.3480 O   0  0  0  0  0  0  0  0  0  0  0  0
   38.5680   24.9350   42.6050 C   0  0  0  0  0  0  0  0  0  0  0  0
   39.8570   24.7500   43.1690 C   0  0  0  0  0  0  0  0  0  0  0  0
   40.4600   25.8790   43.7910 C   0  0  0  0  0  0  0  0  0  0  0  0
   39.7710   27.0540   43.8060 N   0  0  0  0  0  0  0  0  0  0  0  0
   38.5340   27.1700   43.2460 C   0  0  0  0  0  0  0  0  0  0  0  0
   37.9480   26.1100   42.6540 N   0  0  0  0  0  0  0  0  0  0  0  0
   37.9450   23.8320   41.9820 N   0  0  0  0  0  0  0  0  0  0  0  0
   41.2761   31.3907   41.3935 H   0  0  0  0  0  0  0  0  0  0  0  0
   42.5938   33.4151   40.6582 H   0  0  0  0  0  0  0  0  0  0  0  0
   40.8382   36.4369   39.2545 H   0  0  0  0  0  0  0  0  0  0  0  0
   42.4347   35.7579   39.6702 H   0  0  0  0  0  0  0  0  0  0  0  0
   40.3677   23.7766   43.1272 H   0  0  0  0  0  0  0  0  0  0  0  0
   41.4577   25.8047   44.2483 H   0  0  0  0  0  0  0  0  0  0  0  0
   38.4263   22.9221   41.9446 H   0  0  0  0  0  0  0  0  0  0  0  0
   37.0092   23.9371   41.5648 H   0  0  0  0  0  0  0  0  0  0  0  0
  1  5  1  0
  1 14  1  0
  2  1  2  0
  3  2  1  0
  3  4  1  0
  4  5  2  0
  6  7  1  0
  6  4  1  0
  8  7  2  0
  9  8  1  0
 10  9  1  0
 11  9  2  0
 11 12  1  0
 12  6  1  0
 13 12  2  0
 15 20  2  0
 15 16  1  0
 16 17  2  0
 17 18  1  0
 19 14  1  0
 19 18  2  0
 20 19  1  0
 21 15  1  0
  7 22  1  0
  8 23  1  0
 10 24  1  0
 10 25  1  0
 16 26  1  0
 17 27  1  0
 21 28  1  0
 21 29  1  0
M  ISO  4  22  14  23  14  26  14  27  14
M  END
>  <minimizedAffinity>  (1) 
-5.98412037

>  <minimizedRMSD>  (1) 
0.740998805

$$$$
