
     RDKit          3D

 28 30  0  0  0  0  0  0  0  0999 V2000
   36.5930   28.4190   42.0180 C   0  0  0  0  0  0  0  0  0  0  0  0
   35.8410   28.6170   40.9120 N   0  0  0  0  0  0  0  0  0  0  0  0
   36.1680   29.7640   40.3740 O   0  0  0  0  0  0  0  0  0  0  0  0
   37.1090   30.3370   41.0790 C   0  0  0  0  0  0  0  0  0  0  0  0
   37.3930   29.5180   42.1120 N   0  0  0  0  0  0  0  0  0  0  0  0
   37.6940   31.6390   40.7350 C   0  0  0  0  0  0  0  0  0  0  0  0
   36.9530   32.4750   39.9400 C   0  0  0  0  0  0  0  0  0  0  0  0
   37.4120   33.7390   39.5490 C   0  0  0  0  0  0  0  0  0  0  0  0
   38.6560   34.1280   39.9970 C   0  0  0  0  0  0  0  0  0  0  0  0
   39.3980   33.2770   40.8010 C   0  0  0  0  0  0  0  0  0  0  0  0
   38.9400   32.0150   41.1910 C   0  0  0  0  0  0  0  0  0  0  0  0
   36.7820   27.4900   43.0240 O   0  0  0  0  0  0  0  0  0  0  0  0
   38.4530   24.3540   42.2790 C   0  0  0  0  0  0  0  0  0  0  0  0
   39.6900   24.5510   42.9180 C   0  0  0  0  0  0  0  0  0  0  0  0
   39.8940   25.7880   43.5920 C   0  0  0  0  0  0  0  0  0  0  0  0
   38.8810   26.7030   43.5770 N   0  0  0  0  0  0  0  0  0  0  0  0
   37.7030   26.4630   42.9440 C   0  0  0  0  0  0  0  0  0  0  0  0
   37.5110   25.3010   42.3110 N   0  0  0  0  0  0  0  0  0  0  0  0
   38.2050   23.1510   41.6010 N   0  0  0  0  0  0  0  0  0  0  0  0
   35.9626   32.1409   39.5971 H   0  0  0  0  0  0  0  0  0  0  0  0
   36.8036   34.3955   38.9095 H   0  0  0  0  0  0  0  0  0  0  0  0
   39.0594   35.1123   39.7169 H   0  0  0  0  0  0  0  0  0  0  0  0
   40.3883   33.6084   41.1466 H   0  0  0  0  0  0  0  0  0  0  0  0
   39.5439   31.3543   41.8303 H   0  0  0  0  0  0  0  0  0  0  0  0
   40.4716   23.7773   42.8977 H   0  0  0  0  0  0  0  0  0  0  0  0
   40.8408   26.0006   44.1101 H   0  0  0  0  0  0  0  0  0  0  0  0
   38.9274   22.4173   41.5729 H   0  0  0  0  0  0  0  0  0  0  0  0
   37.3006   23.0015   41.1313 H   0  0  0  0  0  0  0  0  0  0  0  0
  1  5  1  0
  1 12  1  0
  2  1  2  0
  3  2  1  0
  3  4  1  0
  4  5  2  0
  6  4  1  0
  6 11  1  0
  7  6  2  0
  8  7  1  0
  8  9  2  0
  9 10  1  0
 10 11  2  0
 13 18  2  0
 13 14  1  0
 14 15  2  0
 16 15  1  0
 17 12  1  0
 17 16  2  0
 18 17  1  0
 19 13  1  0
  7 20  1  0
  8 21  1  0
  9 22  1  0
 10 23  1  0
 11 24  1  0
 14 25  1  0
 15 26  1  0
 19 27  1  0
 19 28  1  0
M  ISO  7  20  14  21  14  22  14  23  14  24  14  25  14  26  14
M  END
>  <minimizedAffinity>  (1) 
-5.53010416

>  <minimizedRMSD>  (1) 
1.88764131

$$$$
