
     RDKit          3D

 40 43  0  0  1  0  0  0  0  0999 V2000
   38.8160   30.8860   40.1980 C   0  0  1  0  0  0  0  0  0  0  0  0
   38.4940   32.1050   39.3180 C   0  0  0  0  0  0  0  0  0  0  0  0
   37.2060   32.5960   39.9600 C   0  0  0  0  0  0  0  0  0  0  0  0
   36.6090   31.4050   40.6760 C   0  0  0  0  0  0  0  0  0  0  0  0
   37.4750   30.2230   40.2750 C   0  0  2  0  0  0  0  0  0  0  0  0
   37.8020   28.0260   35.6870 C   0  0  0  0  0  0  0  0  0  0  0  0
   36.6410   28.8190   35.6460 C   0  0  0  0  0  0  0  0  0  0  0  0
   36.5450   29.8300   36.5860 C   0  0  0  0  0  0  0  0  0  0  0  0
   37.5600   29.9890   37.4730 N   0  0  0  0  0  0  0  0  0  0  0  0
   38.6480   29.2370   37.5020 C   0  0  0  0  0  0  0  0  0  0  0  0
   38.7780   28.2350   36.5940 N   0  0  0  0  0  0  0  0  0  0  0  0
   39.7340   29.3560   38.4140 N   0  0  0  0  0  0  0  0  0  0  0  0
   40.8420   28.7030   38.1240 N   0  0  0  0  0  0  0  0  0  0  0  0
   41.7450   28.9310   39.1140 C   0  0  0  0  0  0  0  0  0  0  0  0
   41.1100   29.7710   40.0290 C   0  0  0  0  0  0  0  0  0  0  0  0
   39.8220   30.0330   39.5650 C   0  0  0  0  0  0  0  0  0  0  0  0
   37.3550   29.2190   41.3590 C   0  0  0  0  0  0  0  0  0  0  0  0
   36.7900   27.9690   41.2110 C   0  0  0  0  0  0  0  0  0  0  0  0
   36.7100   27.0740   42.2740 C   0  0  0  0  0  0  0  0  0  0  0  0
   37.2190   27.4620   43.5180 C   0  0  0  0  0  0  0  0  0  0  0  0
   37.7900   28.7150   43.6860 C   0  0  0  0  0  0  0  0  0  0  0  0
   37.8500   29.5750   42.6060 C   0  0  0  0  0  0  0  0  0  0  0  0
   39.2461   31.1261   41.1815 H   0  0  0  0  0  0  0  0  0  0  0  0
   38.3370   31.8152   38.2685 H   0  0  0  0  0  0  0  0  0  0  0  0
   39.2950   32.8578   39.2764 H   0  0  0  0  0  0  0  0  0  0  0  0
   37.4207   33.4029   40.6762 H   0  0  0  0  0  0  0  0  0  0  0  0
   36.5124   32.9997   39.2077 H   0  0  0  0  0  0  0  0  0  0  0  0
   36.6408   31.5543   41.7654 H   0  0  0  0  0  0  0  0  0  0  0  0
   35.5535   31.2508   40.4073 H   0  0  0  0  0  0  0  0  0  0  0  0
   37.2343   29.6875   39.3448 H   0  0  0  0  0  0  0  0  0  0  0  0
   37.9174   27.2109   34.9574 H   0  0  0  0  0  0  0  0  0  0  0  0
   35.8485   28.6442   34.9034 H   0  0  0  0  0  0  0  0  0  0  0  0
   35.6656   30.4902   36.6137 H   0  0  0  0  0  0  0  0  0  0  0  0
   42.7686   28.5338   39.1802 H   0  0  0  0  0  0  0  0  0  0  0  0
   41.5508   30.1604   40.9586 H   0  0  0  0  0  0  0  0  0  0  0  0
   36.3931   27.6725   40.2289 H   0  0  0  0  0  0  0  0  0  0  0  0
   36.2556   26.0814   42.1386 H   0  0  0  0  0  0  0  0  0  0  0  0
   37.1660   26.7679   44.3697 H   0  0  0  0  0  0  0  0  0  0  0  0
   38.1892   29.0196   44.6647 H   0  0  0  0  0  0  0  0  0  0  0  0
   38.3024   30.5689   42.7381 H   0  0  0  0  0  0  0  0  0  0  0  0
  1  5  1  0
  2  3  1  0
  2  1  1  0
  3  4  1  0
  5  4  1  0
  5 17  1  0
  6 11  2  0
  7  6  1  0
  7  8  2  0
  8  9  1  0
  9 10  2  0
 10 12  1  0
 11 10  1  0
 12 16  1  0
 13 12  1  0
 13 14  2  0
 14 15  1  0
 16 15  2  0
 16  1  1  0
 17 22  1  0
 18 17  2  0
 18 19  1  0
 19 20  2  0
 20 21  1  0
 22 21  2  0
  1 23  1  1
  2 24  1  0
  2 25  1  0
  3 26  1  0
  3 27  1  0
  4 28  1  0
  4 29  1  0
  5 30  1  6
  6 31  1  0
  7 32  1  0
  8 33  1  0
 14 34  1  0
 15 35  1  0
 18 36  1  0
 19 37  1  0
 20 38  1  0
 21 39  1  0
 22 40  1  0
M  ISO  8  23  13  24  13  25  13  26  13  27  13  28  13  29  13  30  13
M  ISO  8  31  14  32  14  33  14  34  14  35  14  36  14  37  14  38  14
M  ISO  2  39  14  40  14
M  END
>  <minimizedAffinity>  (1) 
-5.36011457

>  <minimizedRMSD>  (1) 
5.41584444

$$$$
