
     RDKit          3D

 31 33  0  0  0  0  0  0  0  0999 V2000
   38.4150   24.7340   42.4380 C   0  0  0  0  0  0  0  0  0  0  0  0
   39.6800   24.6170   43.0660 C   0  0  0  0  0  0  0  0  0  0  0  0
   40.1870   25.7530   43.7470 C   0  0  0  0  0  0  0  0  0  0  0  0
   39.4270   26.8870   43.7550 N   0  0  0  0  0  0  0  0  0  0  0  0
   38.2230   26.9550   43.1430 C   0  0  0  0  0  0  0  0  0  0  0  0
   37.7400   25.8890   42.4980 N   0  0  0  0  0  0  0  0  0  0  0  0
   37.9010   23.6240   41.7640 N   0  0  0  0  0  0  0  0  0  0  0  0
   37.5740   28.1690   43.2380 O   0  0  0  0  0  0  0  0  0  0  0  0
   36.9000   28.7610   42.1820 C   0  0  0  0  0  0  0  0  0  0  0  0
   35.8850   28.5500   41.3320 N   0  0  0  0  0  0  0  0  0  0  0  0
   35.7700   29.5780   40.5280 O   0  0  0  0  0  0  0  0  0  0  0  0
   36.6730   30.4840   40.8040 C   0  0  0  0  0  0  0  0  0  0  0  0
   37.3970   29.9900   41.8440 N   0  0  0  0  0  0  0  0  0  0  0  0
   36.8600   31.7930   40.1070 C   0  0  0  0  0  0  0  0  0  0  0  0
   37.0540   31.5150   38.6230 C   0  0  0  0  0  0  0  0  0  0  0  0
   38.4880   31.8290   38.2970 C   0  0  0  0  0  0  0  0  0  0  0  0
   39.0100   32.7010   39.4190 C   0  0  0  0  0  0  0  0  0  0  0  0
   38.0600   32.5370   40.5820 C   0  0  0  0  0  0  0  0  0  0  0  0
   40.2495   23.6767   43.0266 H   0  0  0  0  0  0  0  0  0  0  0  0
   41.1630   25.7213   44.2534 H   0  0  0  0  0  0  0  0  0  0  0  0
   38.4392   22.7464   41.7318 H   0  0  0  0  0  0  0  0  0  0  0  0
   36.9838   23.6830   41.2991 H   0  0  0  0  0  0  0  0  0  0  0  0
   35.9718   32.4075   40.3156 H   0  0  0  0  0  0  0  0  0  0  0  0
   36.8408   30.4578   38.4063 H   0  0  0  0  0  0  0  0  0  0  0  0
   36.3717   32.1297   38.0175 H   0  0  0  0  0  0  0  0  0  0  0  0
   39.0744   30.9004   38.2347 H   0  0  0  0  0  0  0  0  0  0  0  0
   38.5694   32.3421   37.3274 H   0  0  0  0  0  0  0  0  0  0  0  0
   40.0213   32.3793   39.7086 H   0  0  0  0  0  0  0  0  0  0  0  0
   39.0686   33.7534   39.1044 H   0  0  0  0  0  0  0  0  0  0  0  0
   37.7592   33.5259   40.9584 H   0  0  0  0  0  0  0  0  0  0  0  0
   38.5507   31.9831   41.3959 H   0  0  0  0  0  0  0  0  0  0  0  0
  1  6  2  0
  1  2  1  0
  2  3  2  0
  3  4  1  0
  5  8  1  0
  5  4  2  0
  6  5  1  0
  7  1  1  0
  9  8  1  0
 10  9  2  0
 11 12  1  0
 11 10  1  0
 12 13  2  0
 13  9  1  0
 14 18  1  0
 14 12  1  0
 15 14  1  0
 16 15  1  0
 16 17  1  0
 17 18  1  0
  2 19  1  0
  3 20  1  0
  7 21  1  0
  7 22  1  0
 14 23  1  0
 15 24  1  0
 15 25  1  0
 16 26  1  0
 16 27  1  0
 17 28  1  0
 17 29  1  0
 18 30  1  0
 18 31  1  0
M  ISO  8  19  14  20  14  23  13  24  13  25  13  26  13  27  13  28  13
M  ISO  3  29  13  30  13  31  13
M  END
>  <minimizedAffinity>  (1) 
-5.30533838

>  <minimizedRMSD>  (1) 
2.36009073

$$$$
