
     RDKit          3D

 25 27  0  0  0  0  0  0  0  0999 V2000
   38.5900   24.5990   42.3860 C   0  0  0  0  0  0  0  0  0  0  0  0
   39.8090   24.7760   43.0540 C   0  0  0  0  0  0  0  0  0  0  0  0
   40.0190   25.9820   43.7600 C   0  0  0  0  0  0  0  0  0  0  0  0
   39.0080   26.9120   43.7470 N   0  0  0  0  0  0  0  0  0  0  0  0
   37.8540   26.6920   43.0890 C   0  0  0  0  0  0  0  0  0  0  0  0
   37.6500   25.5500   42.4170 N   0  0  0  0  0  0  0  0  0  0  0  0
   38.3620   23.4090   41.6790 N   0  0  0  0  0  0  0  0  0  0  0  0
   36.9150   27.7180   43.1580 O   0  0  0  0  0  0  0  0  0  0  0  0
   36.6570   28.5790   42.1160 C   0  0  0  0  0  0  0  0  0  0  0  0
   35.8540   28.6900   41.0240 N   0  0  0  0  0  0  0  0  0  0  0  0
   36.1210   29.8140   40.4150 O   0  0  0  0  0  0  0  0  0  0  0  0
   37.0550   30.4530   41.0410 C   0  0  0  0  0  0  0  0  0  0  0  0
   37.4200   29.7210   42.1090 N   0  0  0  0  0  0  0  0  0  0  0  0
   37.6140   31.7620   40.6420 C   0  0  0  0  0  0  0  0  0  0  0  0
   37.0060   32.6990   39.9120 C   0  0  0  0  0  0  0  0  0  0  0  0
   37.6500   33.8640   39.6210 C   0  0  0  0  0  0  0  0  0  0  0  0
   38.9610   33.9870   40.1380 C   0  0  0  0  0  0  0  0  0  0  0  0
   39.1680   32.3310   41.0460 S   0  0  0  0  0  0  0  0  0  0  0  0
   40.5835   23.9953   43.0294 H   0  0  0  0  0  0  0  0  0  0  0  0
   40.9585   26.1694   44.3007 H   0  0  0  0  0  0  0  0  0  0  0  0
   39.0863   22.6771   41.6555 H   0  0  0  0  0  0  0  0  0  0  0  0
   37.4703   23.2672   41.1834 H   0  0  0  0  0  0  0  0  0  0  0  0
   35.9830   32.5306   39.5445 H   0  0  0  0  0  0  0  0  0  0  0  0
   37.1804   34.6583   39.0222 H   0  0  0  0  0  0  0  0  0  0  0  0
   39.6721   34.8205   40.0402 H   0  0  0  0  0  0  0  0  0  0  0  0
  1  6  2  0
  1  2  1  0
  2  3  2  0
  4  3  1  0
  5  8  1  0
  5  4  2  0
  6  5  1  0
  7  1  1  0
  9  8  1  0
 10  9  2  0
 11 10  1  0
 11 12  1  0
 12 13  2  0
 13  9  1  0
 14 12  1  0
 14 18  1  0
 15 14  2  0
 16 15  1  0
 16 17  2  0
 17 18  1  0
  2 19  1  0
  3 20  1  0
  7 21  1  0
  7 22  1  0
 15 23  1  0
 16 24  1  0
 17 25  1  0
M  ISO  5  19  14  20  14  23  14  24  14  25  14
M  END
>  <minimizedAffinity>  (1) 
-5.24299383

>  <minimizedRMSD>  (1) 
2.02274561

$$$$
