
     RDKit          3D

 25 26  0  0  0  0  0  0  0  0999 V2000
   37.7660   29.2140   42.5560 C   0  0  0  0  0  0  0  0  0  0  0  0
   36.9820   29.6640   41.5550 N   0  0  0  0  0  0  0  0  0  0  0  0
   37.5450   30.6880   40.9890 O   0  0  0  0  0  0  0  0  0  0  0  0
   38.6890   30.9640   41.5610 C   0  0  0  0  0  0  0  0  0  0  0  0
   38.8400   30.0510   42.5430 N   0  0  0  0  0  0  0  0  0  0  0  0
   39.5880   32.0160   41.2140 N   0  0  0  0  0  0  0  0  0  0  0  0
   39.0470   33.2160   40.6580 C   0  0  0  0  0  0  0  0  0  0  0  0
   37.7980   33.4870   40.6050 N   0  0  0  0  0  0  0  0  0  0  0  0
   40.0170   34.1210   40.1470 N   0  0  0  0  0  0  0  0  0  0  0  0
   37.5010   34.3860   40.1810 H   0  0  0  0  0  0  0  0  0  0  0  0
   37.8280   28.2390   43.5320 O   0  0  0  0  0  0  0  0  0  0  0  0
   38.5250   24.8280   42.5220 C   0  0  0  0  0  0  0  0  0  0  0  0
   39.8200   24.6360   43.0490 C   0  0  0  0  0  0  0  0  0  0  0  0
   40.3970   25.7340   43.7470 C   0  0  0  0  0  0  0  0  0  0  0  0
   39.6730   26.8930   43.8640 N   0  0  0  0  0  0  0  0  0  0  0  0
   38.4360   27.0080   43.3330 C   0  0  0  0  0  0  0  0  0  0  0  0
   37.8700   25.9780   42.6670 N   0  0  0  0  0  0  0  0  0  0  0  0
   37.9370   23.7550   41.8290 N   0  0  0  0  0  0  0  0  0  0  0  0
   40.6023   31.9130   41.3607 H   0  0  0  0  0  0  0  0  0  0  0  0
   39.7184   35.0128   39.7269 H   0  0  0  0  0  0  0  0  0  0  0  0
   41.0183   33.8849   40.1969 H   0  0  0  0  0  0  0  0  0  0  0  0
   40.3573   23.6840   42.9263 H   0  0  0  0  0  0  0  0  0  0  0  0
   41.4034   25.6547   44.1839 H   0  0  0  0  0  0  0  0  0  0  0  0
   38.4502   22.8685   41.7211 H   0  0  0  0  0  0  0  0  0  0  0  0
   36.9931   23.8555   41.4293 H   0  0  0  0  0  0  0  0  0  0  0  0
  1 11  1  0
  2  1  2  0
  3  2  1  0
  3  4  1  0
  4  5  2  0
  5  1  1  0
  6  4  1  0
  7  6  1  0
  8  7  2  0
  9  7  1  0
 10  8  1  0
 12 17  2  0
 12 13  1  0
 13 14  2  0
 14 15  1  0
 16 11  1  0
 16 15  2  0
 17 16  1  0
 18 12  1  0
  6 19  1  0
  9 20  1  0
  9 21  1  0
 13 22  1  0
 14 23  1  0
 18 24  1  0
 18 25  1  0
M  ISO  2  22  14  23  14
M  END
>  <minimizedAffinity>  (1) 
-5.19988537

>  <minimizedRMSD>  (1) 
0.360723972

$$$$
