
     RDKit          3D

 30 32  0  0  0  0  0  0  0  0999 V2000
   37.8750   28.2370   43.5560 O   0  0  0  0  0  0  0  0  0  0  0  0
   38.5570   24.8250   42.5320 C   0  0  0  0  0  0  0  0  0  0  0  0
   39.8610   24.6360   43.0340 C   0  0  0  0  0  0  0  0  0  0  0  0
   40.4580   25.7280   43.7210 C   0  0  0  0  0  0  0  0  0  0  0  0
   39.7550   26.8940   43.8630 N   0  0  0  0  0  0  0  0  0  0  0  0
   38.5010   27.0130   43.3570 C   0  0  0  0  0  0  0  0  0  0  0  0
   37.9190   25.9860   42.7020 N   0  0  0  0  0  0  0  0  0  0  0  0
   37.9360   23.7690   41.8500 N   0  0  0  0  0  0  0  0  0  0  0  0
   37.7090   29.1670   42.5630 C   0  0  0  0  0  0  0  0  0  0  0  0
   36.8240   29.4910   41.6020 N   0  0  0  0  0  0  0  0  0  0  0  0
   37.2430   30.5320   40.9450 O   0  0  0  0  0  0  0  0  0  0  0  0
   38.3970   30.9360   41.4280 C   0  0  0  0  0  0  0  0  0  0  0  0
   38.6960   30.0930   42.4370 N   0  0  0  0  0  0  0  0  0  0  0  0
   39.1720   32.0380   40.9780 N   0  0  0  0  0  0  0  0  0  0  0  0
   40.6230   32.0040   40.7620 C   0  0  0  0  0  0  0  0  0  0  0  0
   41.0200   33.4500   40.5480 C   0  0  0  0  0  0  0  0  0  0  0  0
   39.7720   34.1200   40.0460 C   0  0  0  0  0  0  0  0  0  0  0  0
   38.6530   33.3550   40.6670 C   0  0  0  0  0  0  0  0  0  0  0  0
   40.3941   23.6833   42.8996 H   0  0  0  0  0  0  0  0  0  0  0  0
   41.4735   25.6371   44.1339 H   0  0  0  0  0  0  0  0  0  0  0  0
   38.4328   22.8759   41.7218 H   0  0  0  0  0  0  0  0  0  0  0  0
   36.9831   23.8864   41.4772 H   0  0  0  0  0  0  0  0  0  0  0  0
   41.1355   31.5883   41.6421 H   0  0  0  0  0  0  0  0  0  0  0  0
   40.8994   31.3683   39.9079 H   0  0  0  0  0  0  0  0  0  0  0  0
   41.3508   33.9051   41.4933 H   0  0  0  0  0  0  0  0  0  0  0  0
   41.8580   33.5507   39.8426 H   0  0  0  0  0  0  0  0  0  0  0  0
   39.7437   35.1732   40.3620 H   0  0  0  0  0  0  0  0  0  0  0  0
   39.7146   34.1215   38.9475 H   0  0  0  0  0  0  0  0  0  0  0  0
   38.3151   33.8562   41.5860 H   0  0  0  0  0  0  0  0  0  0  0  0
   37.7916   33.2905   39.9860 H   0  0  0  0  0  0  0  0  0  0  0  0
  2  7  2  0
  2  3  1  0
  3  4  2  0
  4  5  1  0
  6  1  1  0
  6  5  2  0
  7  6  1  0
  8  2  1  0
  9  1  1  0
 10  9  2  0
 11 12  1  0
 11 10  1  0
 12 13  2  0
 13  9  1  0
 14 12  1  0
 15 14  1  0
 16 15  1  0
 17 16  1  0
 17 18  1  0
 18 14  1  0
  3 19  1  0
  4 20  1  0
  8 21  1  0
  8 22  1  0
 15 23  1  0
 15 24  1  0
 16 25  1  0
 16 26  1  0
 17 27  1  0
 17 28  1  0
 18 29  1  0
 18 30  1  0
M  ISO  8  19  14  20  14  23  13  24  13  25  13  26  13  27  13  28  13
M  ISO  2  29  13  30  13
M  END
>  <minimizedAffinity>  (1) 
-5.12843895

>  <minimizedRMSD>  (1) 
0.677065611

$$$$
