
     RDKit          3D

 30 31  0  0  0  0  0  0  0  0999 V2000
   38.4670   24.6420   42.4040 C   0  0  0  0  0  0  0  0  0  0  0  0
   39.7040   24.6720   43.0850 C   0  0  0  0  0  0  0  0  0  0  0  0
   40.0410   25.8740   43.7740 C   0  0  0  0  0  0  0  0  0  0  0  0
   39.1590   26.9140   43.7350 N   0  0  0  0  0  0  0  0  0  0  0  0
   37.9760   26.8240   43.0580 C   0  0  0  0  0  0  0  0  0  0  0  0
   37.6500   25.6940   42.4050 N   0  0  0  0  0  0  0  0  0  0  0  0
   38.1210   23.4630   41.7200 N   0  0  0  0  0  0  0  0  0  0  0  0
   37.1730   27.9500   43.0990 O   0  0  0  0  0  0  0  0  0  0  0  0
   36.7630   28.6260   41.9680 C   0  0  0  0  0  0  0  0  0  0  0  0
   35.7110   28.6720   41.1210 N   0  0  0  0  0  0  0  0  0  0  0  0
   35.9330   29.5650   40.2000 O   0  0  0  0  0  0  0  0  0  0  0  0
   37.1030   30.1250   40.3960 C   0  0  0  0  0  0  0  0  0  0  0  0
   37.6470   29.5600   41.4930 N   0  0  0  0  0  0  0  0  0  0  0  0
   37.6890   31.1900   39.5380 C   0  0  0  0  0  0  0  0  0  0  0  0
   37.1160   31.0570   38.1430 C   0  0  0  0  0  0  0  0  0  0  0  0
   37.3760   32.5830   40.0630 C   0  0  0  0  0  0  0  0  0  0  0  0
   39.1740   31.0510   39.4510 C   0  0  0  0  0  0  0  0  0  0  0  0
   40.3796   23.8039   43.0839 H   0  0  0  0  0  0  0  0  0  0  0  0
   40.9897   25.9607   44.3240 H   0  0  0  0  0  0  0  0  0  0  0  0
   38.7617   22.6566   41.7271 H   0  0  0  0  0  0  0  0  0  0  0  0
   37.2268   23.4059   41.2120 H   0  0  0  0  0  0  0  0  0  0  0  0
   36.0464   30.8087   38.2081 H   0  0  0  0  0  0  0  0  0  0  0  0
   37.2396   32.0077   37.6037 H   0  0  0  0  0  0  0  0  0  0  0  0
   37.6457   30.2579   37.6037 H   0  0  0  0  0  0  0  0  0  0  0  0
   37.3790   32.5695   41.1629 H   0  0  0  0  0  0  0  0  0  0  0  0
   38.1376   33.2903   39.7029 H   0  0  0  0  0  0  0  0  0  0  0  0
   36.3850   32.8965   39.7029 H   0  0  0  0  0  0  0  0  0  0  0  0
   39.5986   31.0113   40.4650 H   0  0  0  0  0  0  0  0  0  0  0  0
   39.4247   30.1255   38.9120 H   0  0  0  0  0  0  0  0  0  0  0  0
   39.5921   31.9139   38.9120 H   0  0  0  0  0  0  0  0  0  0  0  0
  1  6  2  0
  1  2  1  0
  2  3  2  0
  4  3  1  0
  5  8  1  0
  5  4  2  0
  6  5  1  0
  7  1  1  0
  9  8  1  0
 10  9  2  0
 11 12  1  0
 11 10  1  0
 12 13  2  0
 13  9  1  0
 14 16  1  0
 14 12  1  0
 15 14  1  0
 17 14  1  0
  2 18  1  0
  3 19  1  0
  7 20  1  0
  7 21  1  0
 15 22  1  0
 15 23  1  0
 15 24  1  0
 16 25  1  0
 16 26  1  0
 16 27  1  0
 17 28  1  0
 17 29  1  0
 17 30  1  0
M  ISO  8  18  14  19  14  22   8  23   8  24   8  25   8  26   8  27   8
M  ISO  3  28   8  29   8  30   8
M  END
>  <minimizedAffinity>  (1) 
-4.77520323

>  <minimizedRMSD>  (1) 
1.92253208

$$$$
