
     RDKit          3D

 21 22  0  0  0  0  0  0  0  0999 V2000
   38.3630   24.7270   42.4040 C   0  0  0  0  0  0  0  0  0  0  0  0
   39.6110   24.6950   43.0670 C   0  0  0  0  0  0  0  0  0  0  0  0
   40.0190   25.8670   43.7630 C   0  0  0  0  0  0  0  0  0  0  0  0
   39.1730   26.9540   43.7430 N   0  0  0  0  0  0  0  0  0  0  0  0
   37.9960   26.9170   43.0920 C   0  0  0  0  0  0  0  0  0  0  0  0
   37.5900   25.8110   42.4250 N   0  0  0  0  0  0  0  0  0  0  0  0
   37.9550   23.5720   41.7180 N   0  0  0  0  0  0  0  0  0  0  0  0
   37.2480   28.0850   43.1580 O   0  0  0  0  0  0  0  0  0  0  0  0
   36.7580   28.7320   42.0490 C   0  0  0  0  0  0  0  0  0  0  0  0
   35.7470   28.6660   41.1460 N   0  0  0  0  0  0  0  0  0  0  0  0
   35.8600   29.6380   40.2910 O   0  0  0  0  0  0  0  0  0  0  0  0
   36.9080   30.3640   40.5750 C   0  0  0  0  0  0  0  0  0  0  0  0
   37.4890   29.8250   41.6650 N   0  0  0  0  0  0  0  0  0  0  0  0
   37.3370   31.5640   39.7970 C   0  0  0  0  0  0  0  0  0  0  0  0
   38.6790   31.5000   39.4730 F   0  0  0  0  0  0  0  0  0  0  0  0
   36.6740   31.6360   38.5630 F   0  0  0  0  0  0  0  0  0  0  0  0
   37.1250   32.7460   40.4730 F   0  0  0  0  0  0  0  0  0  0  0  0
   40.2443   23.7959   43.0456 H   0  0  0  0  0  0  0  0  0  0  0  0
   40.9786   25.9039   44.2995 H   0  0  0  0  0  0  0  0  0  0  0  0
   38.5600   22.7385   41.7076 H   0  0  0  0  0  0  0  0  0  0  0  0
   37.0507   23.5582   41.2251 H   0  0  0  0  0  0  0  0  0  0  0  0
  1  6  2  0
  1  2  1  0
  2  3  2  0
  4  3  1  0
  5  8  1  0
  5  4  2  0
  6  5  1  0
  7  1  1  0
  9  8  1  0
 10  9  2  0
 11 12  1  0
 11 10  1  0
 12 13  2  0
 13  9  1  0
 14 17  1  0
 14 12  1  0
 15 14  1  0
 16 14  1  0
  2 18  1  0
  3 19  1  0
  7 20  1  0
  7 21  1  0
M  ISO  2  18  14  19  14
M  END
>  <minimizedAffinity>  (1) 
-4.77207375

>  <minimizedRMSD>  (1) 
1.90636921

$$$$
