
     RDKit          3D

 37 40  0  0  1  0  0  0  0  0999 V2000
   38.4360   30.7110   39.4520 C   0  0  1  0  0  0  0  0  0  0  0  0
   37.8600   30.9340   38.0470 C   0  0  0  0  0  0  0  0  0  0  0  0
   36.4680   30.3480   38.2050 C   0  0  0  0  0  0  0  0  0  0  0  0
   36.5480   29.3680   39.3370 C   0  0  0  0  0  0  0  0  0  0  0  0
   38.0220   29.2890   39.7070 C   0  0  2  0  0  0  0  0  0  0  0  0
   40.8280   35.5910   39.7540 C   0  0  0  0  0  0  0  0  0  0  0  0
   39.5160   36.0130   40.0830 C   0  0  0  0  0  0  0  0  0  0  0  0
   38.5600   35.0300   40.2590 C   0  0  0  0  0  0  0  0  0  0  0  0
   38.9360   33.7320   40.1080 N   0  0  0  0  0  0  0  0  0  0  0  0
   40.1620   33.3420   39.8010 C   0  0  0  0  0  0  0  0  0  0  0  0
   41.1070   34.2880   39.6260 N   0  0  0  0  0  0  0  0  0  0  0  0
   40.5780   32.0030   39.6290 N   0  0  0  0  0  0  0  0  0  0  0  0
   41.8910   31.7970   39.6120 N   0  0  0  0  0  0  0  0  0  0  0  0
   42.1180   30.4550   39.4240 C   0  0  0  0  0  0  0  0  0  0  0  0
   40.8470   29.8730   39.3300 C   0  0  0  0  0  0  0  0  0  0  0  0
   39.8900   30.8760   39.4630 C   0  0  0  0  0  0  0  0  0  0  0  0
   38.1860   28.9810   41.1180 N   0  0  0  0  0  0  0  0  0  0  0  0
   37.7200   29.7590   42.1270 C   0  0  0  0  0  0  0  0  0  0  0  0
   38.0790   29.1260   43.2930 C   0  0  0  0  0  0  0  0  0  0  0  0
   38.7440   27.9960   42.9810 N   0  0  0  0  0  0  0  0  0  0  0  0
   38.8130   27.9060   41.6250 C   0  0  0  0  0  0  0  0  0  0  0  0
   38.0822   31.4212   40.2139 H   0  0  0  0  0  0  0  0  0  0  0  0
   38.4401   30.3957   37.2830 H   0  0  0  0  0  0  0  0  0  0  0  0
   37.8744   31.9821   37.7133 H   0  0  0  0  0  0  0  0  0  0  0  0
   35.7449   31.1429   38.4402 H   0  0  0  0  0  0  0  0  0  0  0  0
   36.1328   29.8602   37.2778 H   0  0  0  0  0  0  0  0  0  0  0  0
   35.9556   29.7218   40.1937 H   0  0  0  0  0  0  0  0  0  0  0  0
   36.1466   28.3841   39.0525 H   0  0  0  0  0  0  0  0  0  0  0  0
   38.5893   28.5204   39.1616 H   0  0  0  0  0  0  0  0  0  0  0  0
   41.6213   36.3379   39.6030 H   0  0  0  0  0  0  0  0  0  0  0  0
   39.2683   37.0790   40.1938 H   0  0  0  0  0  0  0  0  0  0  0  0
   37.5224   35.2910   40.5145 H   0  0  0  0  0  0  0  0  0  0  0  0
   43.0909   29.9457   39.3607 H   0  0  0  0  0  0  0  0  0  0  0  0
   40.6398   28.8036   39.1769 H   0  0  0  0  0  0  0  0  0  0  0  0
   37.1668   30.7050   42.0313 H   0  0  0  0  0  0  0  0  0  0  0  0
   37.8602   29.4821   44.3105 H   0  0  0  0  0  0  0  0  0  0  0  0
   39.2937   27.1011   41.0496 H   0  0  0  0  0  0  0  0  0  0  0  0
  1 16  1  0
  1  5  1  0
  2  3  1  0
  2  1  1  0
  3  4  1  0
  4  5  1  0
  5 17  1  0
  6  7  2  0
  7  8  1  0
  9  8  2  0
 10  9  1  0
 11  6  1  0
 11 10  2  0
 12 10  1  0
 13 12  1  0
 14 13  2  0
 15 14  1  0
 15 16  2  0
 16 12  1  0
 17 21  1  0
 17 18  1  0
 18 19  2  0
 20 19  1  0
 21 20  2  0
  1 22  1  1
  2 23  1  0
  2 24  1  0
  3 25  1  0
  3 26  1  0
  4 27  1  0
  4 28  1  0
  5 29  1  6
  6 30  1  0
  7 31  1  0
  8 32  1  0
 14 33  1  0
 15 34  1  0
 18 35  1  0
 19 36  1  0
 21 37  1  0
M  ISO  8  22  13  23  13  24  13  25  13  26  13  27  13  28  13  29  13
M  ISO  8  30  14  31  14  32  14  33  14  34  14  35  14  36  14  37  14
M  END
>  <minimizedAffinity>  (1) 
-5.26271772

>  <minimizedRMSD>  (1) 
5.45316601

$$$$
