
     RDKit          3D

 21 22  0  0  0  0  0  0  0  0999 V2000
   38.5290   24.8460   42.5290 C   0  0  0  0  0  0  0  0  0  0  0  0
   39.8200   24.6860   43.0460 C   0  0  0  0  0  0  0  0  0  0  0  0
   40.4010   25.7700   43.7380 C   0  0  0  0  0  0  0  0  0  0  0  0
   39.6570   26.9190   43.8580 N   0  0  0  0  0  0  0  0  0  0  0  0
   38.4130   27.0280   43.3410 C   0  0  0  0  0  0  0  0  0  0  0  0
   37.8550   25.9960   42.6810 N   0  0  0  0  0  0  0  0  0  0  0  0
   37.9460   23.7630   41.8390 N   0  0  0  0  0  0  0  0  0  0  0  0
   37.7760   28.2390   43.5350 O   0  0  0  0  0  0  0  0  0  0  0  0
   37.6560   29.1930   42.5440 C   0  0  0  0  0  0  0  0  0  0  0  0
   36.7820   29.5930   41.5930 N   0  0  0  0  0  0  0  0  0  0  0  0
   37.2910   30.6070   40.9560 O   0  0  0  0  0  0  0  0  0  0  0  0
   38.4600   30.9130   41.4240 C   0  0  0  0  0  0  0  0  0  0  0  0
   38.7170   30.0440   42.4230 N   0  0  0  0  0  0  0  0  0  0  0  0
   39.3360   31.9890   40.9680 C   0  0  0  0  0  0  0  0  0  0  0  0
   40.2290   31.7340   40.1200 O   0  0  0  0  0  0  0  0  0  0  0  0
   39.1910   33.2790   41.4570 O   0  0  0  0  0  0  0  0  0  0  0  0
   40.3670   23.7405   42.9163 H   0  0  0  0  0  0  0  0  0  0  0  0
   41.4120   25.6978   44.1655 H   0  0  0  0  0  0  0  0  0  0  0  0
   38.4690   22.8829   41.7259 H   0  0  0  0  0  0  0  0  0  0  0  0
   36.9972   23.8521   41.4482 H   0  0  0  0  0  0  0  0  0  0  0  0
   39.7915   33.9992   41.1395 H   0  0  0  0  0  0  0  0  0  0  0  0
  1  6  2  0
  1  2  1  0
  2  3  2  0
  3  4  1  0
  5  8  1  0
  5  4  2  0
  6  5  1  0
  7  1  1  0
  9  8  1  0
 10  9  2  0
 11 12  1  0
 11 10  1  0
 12 13  2  0
 13  9  1  0
 14 12  1  0
 14 16  1  0
 15 14  2  0
  2 17  1  0
  3 18  1  0
  7 19  1  0
  7 20  1  0
 16 21  1  0
M  ISO  3  17  14  18  14  21   3
M  END
>  <minimizedAffinity>  (1) 
-4.51182795

>  <minimizedRMSD>  (1) 
0.562405348

$$$$
