
     RDKit          3D

 24 25  0  0  0  0  0  0  0  0999 V2000
   38.4810   24.7420   42.4620 C   0  0  0  0  0  0  0  0  0  0  0  0
   39.7100   24.6460   43.1230 C   0  0  0  0  0  0  0  0  0  0  0  0
   40.1890   25.8210   43.7830 C   0  0  0  0  0  0  0  0  0  0  0  0
   39.4300   26.9550   43.7300 N   0  0  0  0  0  0  0  0  0  0  0  0
   38.2440   26.9850   43.0700 C   0  0  0  0  0  0  0  0  0  0  0  0
   37.7920   25.8820   42.4490 N   0  0  0  0  0  0  0  0  0  0  0  0
   37.9800   23.6090   41.8050 N   0  0  0  0  0  0  0  0  0  0  0  0
   37.5800   28.1950   43.0950 O   0  0  0  0  0  0  0  0  0  0  0  0
   36.8900   28.7130   42.0180 C   0  0  0  0  0  0  0  0  0  0  0  0
   35.7780   28.4760   41.2970 N   0  0  0  0  0  0  0  0  0  0  0  0
   35.6940   29.3920   40.3590 O   0  0  0  0  0  0  0  0  0  0  0  0
   36.6930   30.2200   40.4260 C   0  0  0  0  0  0  0  0  0  0  0  0
   37.4750   29.8210   41.4680 N   0  0  0  0  0  0  0  0  0  0  0  0
   36.9090   31.3850   39.5080 C   0  0  0  0  0  0  0  0  0  0  0  0
   37.4650   32.5880   40.1910 C   0  0  0  0  0  0  0  0  0  0  0  0
   40.2834   23.7073   43.1347 H   0  0  0  0  0  0  0  0  0  0  0  0
   41.1480   25.8114   44.3216 H   0  0  0  0  0  0  0  0  0  0  0  0
   37.0770   23.6569   41.3118 H   0  0  0  0  0  0  0  0  0  0  0  0
   38.5150   22.7289   41.8156 H   0  0  0  0  0  0  0  0  0  0  0  0
   35.9430   31.6564   39.0573 H   0  0  0  0  0  0  0  0  0  0  0  0
   37.6478   31.0706   38.7562 H   0  0  0  0  0  0  0  0  0  0  0  0
   37.4024   32.4526   41.2808 H   0  0  0  0  0  0  0  0  0  0  0  0
   38.5167   32.7227   39.8980 H   0  0  0  0  0  0  0  0  0  0  0  0
   36.8861   33.4763   39.8980 H   0  0  0  0  0  0  0  0  0  0  0  0
  1  2  2  0
  2  3  1  0
  4  3  2  0
  5  8  1  0
  5  4  1  0
  6  1  1  0
  6  5  2  0
  7  1  1  0
  9  8  1  0
 10  9  2  0
 11 12  1  0
 11 10  1  0
 12 13  2  0
 13  9  1  0
 14 15  1  0
 14 12  1  0
  2 16  1  0
  3 17  1  0
  7 18  1  0
  7 19  1  0
 14 20  1  0
 14 21  1  0
 15 22  1  0
 15 23  1  0
 15 24  1  0
M  ISO  7  16  14  17  14  20   8  21   8  22   8  23   8  24   8
M  END
>  <minimizedAffinity>  (1) 
-4.37334442

>  <minimizedRMSD>  (1) 
1.8199302

$$$$
