
     RDKit          3D

 20 21  0  0  0  0  0  0  0  0999 V2000
   38.5320   24.8260   42.5210 C   0  0  0  0  0  0  0  0  0  0  0  0
   39.8290   24.6590   43.0440 C   0  0  0  0  0  0  0  0  0  0  0  0
   40.4080   25.7450   43.7390 C   0  0  0  0  0  0  0  0  0  0  0  0
   39.6640   26.8950   43.8580 N   0  0  0  0  0  0  0  0  0  0  0  0
   38.4200   26.9990   43.3350 C   0  0  0  0  0  0  0  0  0  0  0  0
   37.8740   25.9710   42.6780 N   0  0  0  0  0  0  0  0  0  0  0  0
   37.9580   23.7420   41.8300 N   0  0  0  0  0  0  0  0  0  0  0  0
   37.7860   28.2180   43.5310 O   0  0  0  0  0  0  0  0  0  0  0  0
   37.6500   29.1670   42.5370 C   0  0  0  0  0  0  0  0  0  0  0  0
   36.7780   29.5360   41.5730 N   0  0  0  0  0  0  0  0  0  0  0  0
   37.2580   30.5640   40.9380 O   0  0  0  0  0  0  0  0  0  0  0  0
   38.4260   30.9100   41.4340 C   0  0  0  0  0  0  0  0  0  0  0  0
   38.6920   30.0480   42.4380 N   0  0  0  0  0  0  0  0  0  0  0  0
   39.2850   32.0170   40.9920 C   0  0  0  0  0  0  0  0  0  0  0  0
   38.8450   33.2120   41.1000 O   0  0  0  0  0  0  0  0  0  0  0  0
   40.3746   23.7125   42.9155 H   0  0  0  0  0  0  0  0  0  0  0  0
   41.4178   25.6727   44.1693 H   0  0  0  0  0  0  0  0  0  0  0  0
   38.4853   22.8641   41.7199 H   0  0  0  0  0  0  0  0  0  0  0  0
   37.0107   23.8268   41.4345 H   0  0  0  0  0  0  0  0  0  0  0  0
   40.2849   31.8215   40.5772 H   0  0  0  0  0  0  0  0  0  0  0  0
  1  6  2  0
  1  2  1  0
  2  3  2  0
  3  4  1  0
  5  8  1  0
  5  4  2  0
  6  5  1  0
  7  1  1  0
  9  8  1  0
 10  9  2  0
 11 12  1  0
 11 10  1  0
 12 13  2  0
 13  9  1  0
 14 15  2  0
 14 12  1  0
  2 16  1  0
  3 17  1  0
  7 18  1  0
  7 19  1  0
 14 20  1  0
M  ISO  3  16  14  17  14  20   6
M  END
>  <minimizedAffinity>  (1) 
-4.17188883

>  <minimizedRMSD>  (1) 
0.500712156

$$$$
