
     RDKit          3D

 19 20  0  0  0  0  0  0  0  0999 V2000
   38.2350   24.9380   42.3530 C   0  0  0  0  0  0  0  0  0  0  0  0
   39.4910   24.6130   42.9290 C   0  0  0  0  0  0  0  0  0  0  0  0
   40.1190   25.6010   43.7270 C   0  0  0  0  0  0  0  0  0  0  0  0
   39.4810   26.8000   43.8910 N   0  0  0  0  0  0  0  0  0  0  0  0
   38.2880   27.0500   43.3180 C   0  0  0  0  0  0  0  0  0  0  0  0
   37.6660   26.1220   42.5510 N   0  0  0  0  0  0  0  0  0  0  0  0
   37.6120   23.9580   41.5640 N   0  0  0  0  0  0  0  0  0  0  0  0
   37.7550   28.3120   43.5710 O   0  0  0  0  0  0  0  0  0  0  0  0
   37.7960   29.3410   42.6570 C   0  0  0  0  0  0  0  0  0  0  0  0
   37.0330   29.9520   41.7230 N   0  0  0  0  0  0  0  0  0  0  0  0
   37.7050   30.9260   41.1720 O   0  0  0  0  0  0  0  0  0  0  0  0
   38.8940   31.0020   41.6930 C   0  0  0  0  0  0  0  0  0  0  0  0
   38.9880   30.0250   42.6280 N   0  0  0  0  0  0  0  0  0  0  0  0
   39.8470   31.9440   41.3110 O   0  0  0  0  0  0  0  0  0  0  0  0
   39.9589   23.6315   42.7622 H   0  0  0  0  0  0  0  0  0  0  0  0
   41.0927   25.4093   44.2016 H   0  0  0  0  0  0  0  0  0  0  0  0
   38.0678   23.0454   41.4212 H   0  0  0  0  0  0  0  0  0  0  0  0
   36.6992   24.1516   41.1279 H   0  0  0  0  0  0  0  0  0  0  0  0
   40.7367   31.9521   41.7451 H   0  0  0  0  0  0  0  0  0  0  0  0
  1  6  2  0
  1  2  1  0
  2  3  2  0
  3  4  1  0
  5  8  1  0
  5  4  2  0
  6  5  1  0
  7  1  1  0
  9  8  1  0
 10  9  2  0
 11 12  1  0
 11 10  1  0
 12 13  2  0
 13  9  1  0
 14 12  1  0
  2 15  1  0
  3 16  1  0
  7 17  1  0
  7 18  1  0
 14 19  1  0
M  ISO  3  15  14  16  14  19   3
M  END
>  <minimizedAffinity>  (1) 
-4.0250597

>  <minimizedRMSD>  (1) 
0.03233907

$$$$
