
     RDKit          3D

 36 38  0  0  1  0  0  0  0  0999 V2000
   38.8600   33.0170   40.3670 C   0  0  0  0  0  0  0  0  0  0  0  0
   37.4720   32.8050   40.1170 C   0  0  0  0  0  0  0  0  0  0  0  0
   36.9140   31.6100   40.5350 C   0  0  0  0  0  0  0  0  0  0  0  0
   37.7230   30.7120   41.1590 N   0  0  0  0  0  0  0  0  0  0  0  0
   39.0110   30.9090   41.3920 C   0  0  0  0  0  0  0  0  0  0  0  0
   39.5940   32.0740   40.9940 N   0  0  0  0  0  0  0  0  0  0  0  0
   39.8930   29.9900   42.0280 N   0  0  0  0  0  0  0  0  0  0  0  0
   41.0510   30.4740   42.4370 N   0  0  0  0  0  0  0  0  0  0  0  0
   41.7600   29.4430   43.0020 C   0  0  0  0  0  0  0  0  0  0  0  0
   40.9450   28.3190   42.9000 C   0  0  0  0  0  0  0  0  0  0  0  0
   39.7550   28.6840   42.2760 C   0  0  0  0  0  0  0  0  0  0  0  0
   38.6150   27.8290   41.9920 C   0  0  1  0  0  0  0  0  0  0  0  0
   39.0490   26.4720   41.4220 C   0  0  0  0  0  0  0  0  0  0  0  0
   37.7920   25.6520   41.5890 C   0  0  0  0  0  0  0  0  0  0  0  0
   36.9890   26.3160   42.6670 C   0  0  0  0  0  0  0  0  0  0  0  0
   37.9040   27.3800   43.2390 C   0  0  2  0  0  0  0  0  0  0  0  0
   37.1820   28.4740   43.9410 C   0  0  0  0  0  0  0  0  0  0  0  0
   36.4310   28.0540   45.1650 C   0  0  0  0  0  0  0  0  0  0  0  0
   39.3356   33.9557   40.0465 H   0  0  0  0  0  0  0  0  0  0  0  0
   36.8643   33.5675   39.6079 H   0  0  0  0  0  0  0  0  0  0  0  0
   35.8487   31.3927   40.3678 H   0  0  0  0  0  0  0  0  0  0  0  0
   42.7657   29.4945   43.4445 H   0  0  0  0  0  0  0  0  0  0  0  0
   41.1992   27.3090   43.2540 H   0  0  0  0  0  0  0  0  0  0  0  0
   38.0006   28.4432   41.3172 H   0  0  0  0  0  0  0  0  0  0  0  0
   39.8850   26.0453   41.9956 H   0  0  0  0  0  0  0  0  0  0  0  0
   39.4157   26.5201   40.3860 H   0  0  0  0  0  0  0  0  0  0  0  0
   37.2227   25.6337   40.6480 H   0  0  0  0  0  0  0  0  0  0  0  0
   38.0291   24.6111   41.8543 H   0  0  0  0  0  0  0  0  0  0  0  0
   36.0806   26.7724   42.2469 H   0  0  0  0  0  0  0  0  0  0  0  0
   36.6565   25.6012   43.4341 H   0  0  0  0  0  0  0  0  0  0  0  0
   38.5724   27.0200   44.0350 H   0  0  0  0  0  0  0  0  0  0  0  0
   37.9198   29.2340   44.2377 H   0  0  0  0  0  0  0  0  0  0  0  0
   36.4288   28.8487   43.2323 H   0  0  0  0  0  0  0  0  0  0  0  0
   36.9874   28.3652   46.0614 H   0  0  0  0  0  0  0  0  0  0  0  0
   35.4383   28.5279   45.1667 H   0  0  0  0  0  0  0  0  0  0  0  0
   36.3151   26.9601   45.1667 H   0  0  0  0  0  0  0  0  0  0  0  0
  1  6  2  0
  2  1  1  0
  2  3  2  0
  3  4  1  0
  4  5  2  0
  5  7  1  0
  6  5  1  0
  7 11  1  0
  7  8  1  0
  8  9  2  0
 10  9  1  0
 11 10  2  0
 12 11  1  0
 12 16  1  0
 13 14  1  0
 13 12  1  0
 14 15  1  0
 15 16  1  0
 16 17  1  0
 17 18  1  0
  1 19  1  0
  2 20  1  0
  3 21  1  0
  9 22  1  0
 10 23  1  0
 12 24  1  6
 13 25  1  0
 13 26  1  0
 14 27  1  0
 14 28  1  0
 15 29  1  0
 15 30  1  0
 16 31  1  1
 17 32  1  0
 17 33  1  0
 18 34  1  0
 18 35  1  0
 18 36  1  0
M  ISO  8  19  14  20  14  21  14  22  14  23  14  24  13  25  13  26  13
M  ISO  8  27  13  28  13  29  13  30  13  31  13  32   8  33   8  34   8
M  ISO  2  35   8  36   8
M  END
>  <minimizedAffinity>  (1) 
-5.23959923

>  <minimizedRMSD>  (1) 
2.74383998

$$$$
