
     RDKit          3D

 28 30  0  0  0  0  0  0  0  0999 V2000
   36.6840   28.5660   42.0650 C   0  0  0  0  0  0  0  0  0  0  0  0
   35.9160   28.6320   40.9570 N   0  0  0  0  0  0  0  0  0  0  0  0
   36.1500   29.7580   40.3370 O   0  0  0  0  0  0  0  0  0  0  0  0
   37.0470   30.4500   40.9900 C   0  0  0  0  0  0  0  0  0  0  0  0
   37.4010   29.7260   42.0790 N   0  0  0  0  0  0  0  0  0  0  0  0
   37.5970   31.7730   40.6390 C   0  0  0  0  0  0  0  0  0  0  0  0
   36.9190   32.6790   39.8520 C   0  0  0  0  0  0  0  0  0  0  0  0
   37.4970   33.9150   39.5570 C   0  0  0  0  0  0  0  0  0  0  0  0
   38.7550   34.2500   40.0480 C   0  0  0  0  0  0  0  0  0  0  0  0
   39.4100   33.3270   40.8310 C   0  0  0  0  0  0  0  0  0  0  0  0
   38.8440   32.1140   41.1220 C   0  0  0  0  0  0  0  0  0  0  0  0
   36.9390   27.7160   43.1240 O   0  0  0  0  0  0  0  0  0  0  0  0
   38.4800   24.5340   42.3570 C   0  0  0  0  0  0  0  0  0  0  0  0
   39.7210   24.6600   43.0190 C   0  0  0  0  0  0  0  0  0  0  0  0
   39.9820   25.8760   43.7250 C   0  0  0  0  0  0  0  0  0  0  0  0
   39.0100   26.8380   43.7120 N   0  0  0  0  0  0  0  0  0  0  0  0
   37.8340   26.6610   43.0570 C   0  0  0  0  0  0  0  0  0  0  0  0
   37.5720   25.5210   42.3860 N   0  0  0  0  0  0  0  0  0  0  0  0
   38.2290   23.3470   41.6700 N   0  0  0  0  0  0  0  0  0  0  0  0
   35.9235   32.4284   39.4568 H   0  0  0  0  0  0  0  0  0  0  0  0
   36.9507   34.6335   38.9282 H   0  0  0  0  0  0  0  0  0  0  0  0
   39.2124   35.2234   39.8173 H   0  0  0  0  0  0  0  0  0  0  0  0
   40.4062   33.5677   41.2305 H   0  0  0  0  0  0  0  0  0  0  0  0
   39.3933   31.3989   41.7520 H   0  0  0  0  0  0  0  0  0  0  0  0
   40.4633   23.8487   42.9925 H   0  0  0  0  0  0  0  0  0  0  0  0
   40.9307   26.0320   44.2594 H   0  0  0  0  0  0  0  0  0  0  0  0
   38.9373   22.5993   41.6579 H   0  0  0  0  0  0  0  0  0  0  0  0
   37.3353   23.2178   41.1745 H   0  0  0  0  0  0  0  0  0  0  0  0
  1  5  1  0
  1 12  1  0
  2  1  2  0
  3  2  1  0
  3  4  1  0
  4  5  2  0
  6  4  1  0
  6 11  1  0
  7  6  2  0
  8  7  1  0
  8  9  2  0
  9 10  1  0
 10 11  2  0
 13 18  2  0
 13 14  1  0
 14 15  2  0
 16 15  1  0
 17 12  1  0
 17 16  2  0
 18 17  1  0
 19 13  1  0
  7 20  1  0
  8 21  1  0
  9 22  1  0
 10 23  1  0
 11 24  1  0
 14 25  1  0
 15 26  1  0
 19 27  1  0
 19 28  1  0
M  ISO  7  20  14  21  14  22  14  23  14  24  14  25  14  26  14
M  END
>  <minimizedAffinity>  (1) 
-5.52649736

>  <minimizedRMSD>  (1) 
1.97957242

$$$$
