
     RDKit          3D

 41 44  0  0  0  0  0  0  0  0999 V2000
   38.6990   24.5680   42.4490 C   0  0  0  0  0  0  0  0  0  0  0  0
   40.0070   24.7230   42.9350 C   0  0  0  0  0  0  0  0  0  0  0  0
   40.3620   25.9660   43.5370 C   0  0  0  0  0  0  0  0  0  0  0  0
   39.4070   26.9300   43.6040 N   0  0  0  0  0  0  0  0  0  0  0  0
   38.1550   26.7340   43.1210 C   0  0  0  0  0  0  0  0  0  0  0  0
   37.7920   25.5620   42.5430 N   0  0  0  0  0  0  0  0  0  0  0  0
   38.3510   23.3630   41.8620 N   0  0  0  0  0  0  0  0  0  0  0  0
   41.6770   26.1680   44.0430 N   0  0  0  0  0  0  0  0  0  0  0  0
   41.8090   26.8690   45.1920 C   0  0  0  0  0  0  0  0  0  0  0  0
   43.0620   27.0960   45.7290 C   0  0  0  0  0  0  0  0  0  0  0  0
   43.2360   27.8640   46.9920 C   0  0  0  0  0  0  0  0  0  0  0  0
   44.1370   26.5870   45.0550 C   0  0  0  0  0  0  0  0  0  0  0  0
   45.3320   26.7480   45.4770 O   0  0  0  0  0  0  0  0  0  0  0  0
   44.0210   25.8800   43.8970 N   0  0  0  0  0  0  0  0  0  0  0  0
   42.7810   25.6790   43.4040 C   0  0  0  0  0  0  0  0  0  0  0  0
   42.5420   25.0390   42.3380 O   0  0  0  0  0  0  0  0  0  0  0  0
   37.2750   27.8020   43.2550 O   0  0  0  0  0  0  0  0  0  0  0  0
   36.9290   28.6360   42.2140 C   0  0  0  0  0  0  0  0  0  0  0  0
   36.0790   28.6850   41.1760 N   0  0  0  0  0  0  0  0  0  0  0  0
   36.2410   29.8000   40.5200 O   0  0  0  0  0  0  0  0  0  0  0  0
   37.1840   30.5060   41.0950 C   0  0  0  0  0  0  0  0  0  0  0  0
   37.6290   29.8040   42.1520 N   0  0  0  0  0  0  0  0  0  0  0  0
   37.6880   31.8310   40.6830 C   0  0  0  0  0  0  0  0  0  0  0  0
   36.9650   32.7040   39.8970 C   0  0  0  0  0  0  0  0  0  0  0  0
   37.5010   33.9340   39.5460 C   0  0  0  0  0  0  0  0  0  0  0  0
   38.7740   34.3160   39.9770 C   0  0  0  0  0  0  0  0  0  0  0  0
   39.4780   33.4290   40.7620 C   0  0  0  0  0  0  0  0  0  0  0  0
   38.9540   32.2170   41.1080 C   0  0  0  0  0  0  0  0  0  0  0  0
   40.7394   23.9063   42.8535 H   0  0  0  0  0  0  0  0  0  0  0  0
   39.0450   22.6052   41.7912 H   0  0  0  0  0  0  0  0  0  0  0  0
   37.3981   23.2245   41.4962 H   0  0  0  0  0  0  0  0  0  0  0  0
   40.9157   27.2600   45.7010 H   0  0  0  0  0  0  0  0  0  0  0  0
   43.0844   27.1949   47.8518 H   0  0  0  0  0  0  0  0  0  0  0  0
   44.2520   28.2839   47.0288 H   0  0  0  0  0  0  0  0  0  0  0  0
   42.5001   28.6808   47.0288 H   0  0  0  0  0  0  0  0  0  0  0  0
   44.8521   25.5109   43.4134 H   0  0  0  0  0  0  0  0  0  0  0  0
   35.9603   32.4238   39.5476 H   0  0  0  0  0  0  0  0  0  0  0  0
   36.9141   34.6203   38.9178 H   0  0  0  0  0  0  0  0  0  0  0  0
   39.1996   35.2915   39.6991 H   0  0  0  0  0  0  0  0  0  0  0  0
   40.4824   33.7031   41.1170 H   0  0  0  0  0  0  0  0  0  0  0  0
   39.5447   31.5329   41.7349 H   0  0  0  0  0  0  0  0  0  0  0  0
  1  6  2  0
  1  2  1  0
  2  3  2  0
  3  4  1  0
  3  8  1  0
  5 17  1  0
  5  4  2  0
  6  5  1  0
  7  1  1  0
  8  9  1  0
  9 10  2  0
 10 11  1  0
 12 13  2  0
 12 10  1  0
 14 12  1  0
 15 14  1  0
 15  8  1  0
 16 15  2  0
 18 17  1  0
 19 18  2  0
 20 21  1  0
 20 19  1  0
 21 22  2  0
 22 18  1  0
 23 21  1  0
 23 28  1  0
 24 23  2  0
 25 24  1  0
 25 26  2  0
 26 27  1  0
 27 28  2  0
  2 29  1  0
  7 30  1  0
  7 31  1  0
  9 32  1  0
 11 33  1  0
 11 34  1  0
 11 35  1  0
 14 36  1  0
 24 37  1  0
 25 38  1  0
 26 39  1  0
 27 40  1  0
 28 41  1  0
M  ISO  8  29  14  32  14  33   8  34   8  35   8  36   9  37  14  38  14
M  ISO  3  39  14  40  14  41  14
M  END
>  <minimizedAffinity>  (1) 
-6.89091921

>  <minimizedRMSD>  (1) 
0.636506379

$$$$
