
     RDKit          3D

 42 46  0  0  0  0  0  0  0  0999 V2000
   38.7190   24.9000   42.4180 C   0  0  0  0  0  0  0  0  0  0  0  0
   39.9060   25.4480   42.9240 C   0  0  0  0  0  0  0  0  0  0  0  0
   39.8820   26.8160   43.3770 C   0  0  0  0  0  0  0  0  0  0  0  0
   38.6870   27.4510   43.2690 N   0  0  0  0  0  0  0  0  0  0  0  0
   37.5740   26.8840   42.7790 C   0  0  0  0  0  0  0  0  0  0  0  0
   37.5870   25.6150   42.3550 N   0  0  0  0  0  0  0  0  0  0  0  0
   38.7500   23.5730   41.9620 N   0  0  0  0  0  0  0  0  0  0  0  0
   41.1500   27.2600   43.8670 C   0  0  0  0  0  0  0  0  0  0  0  0
   41.9010   26.5230   44.7150 N   0  0  0  0  0  0  0  0  0  0  0  0
   43.0890   26.8910   45.2010 C   0  0  0  0  0  0  0  0  0  0  0  0
   43.6640   28.0590   44.8850 N   0  0  0  0  0  0  0  0  0  0  0  0
   43.0070   28.8680   44.0520 C   0  0  0  0  0  0  0  0  0  0  0  0
   43.5600   30.0780   43.6990 C   0  0  0  0  0  0  0  0  0  0  0  0
   42.9120   30.9430   42.8410 C   0  0  0  0  0  0  0  0  0  0  0  0
   41.6710   30.5360   42.3450 C   0  0  0  0  0  0  0  0  0  0  0  0
   41.1620   29.3180   42.7270 C   0  0  0  0  0  0  0  0  0  0  0  0
   41.7860   28.4420   43.5790 C   0  0  0  0  0  0  0  0  0  0  0  0
   36.4620   27.6930   42.7540 O   0  0  0  0  0  0  0  0  0  0  0  0
   36.2330   28.6500   41.7720 C   0  0  0  0  0  0  0  0  0  0  0  0
   35.4150   28.8910   40.7250 N   0  0  0  0  0  0  0  0  0  0  0  0
   35.7450   30.0340   40.1870 O   0  0  0  0  0  0  0  0  0  0  0  0
   36.7530   30.5710   40.8320 C   0  0  0  0  0  0  0  0  0  0  0  0
   37.0850   29.7210   41.8390 N   0  0  0  0  0  0  0  0  0  0  0  0
   37.4210   31.8430   40.5480 C   0  0  0  0  0  0  0  0  0  0  0  0
   36.8690   32.8320   39.7660 C   0  0  0  0  0  0  0  0  0  0  0  0
   37.5610   34.0130   39.5370 C   0  0  0  0  0  0  0  0  0  0  0  0
   38.8290   34.2300   40.0920 C   0  0  0  0  0  0  0  0  0  0  0  0
   39.3660   33.2200   40.8780 C   0  0  0  0  0  0  0  0  0  0  0  0
   38.6690   32.0700   41.0880 C   0  0  0  0  0  0  0  0  0  0  0  0
   40.8288   24.8513   42.9738 H   0  0  0  0  0  0  0  0  0  0  0  0
   37.8962   23.1383   41.5839 H   0  0  0  0  0  0  0  0  0  0  0  0
   39.6265   23.0338   42.0055 H   0  0  0  0  0  0  0  0  0  0  0  0
   43.6150   26.2099   45.8862 H   0  0  0  0  0  0  0  0  0  0  0  0
   44.5401   30.3618   44.1099 H   0  0  0  0  0  0  0  0  0  0  0  0
   43.3533   31.9106   42.5599 H   0  0  0  0  0  0  0  0  0  0  0  0
   41.1077   31.1831   41.6565 H   0  0  0  0  0  0  0  0  0  0  0  0
   40.1832   29.0240   42.3202 H   0  0  0  0  0  0  0  0  0  0  0  0
   35.8741   32.6856   39.3202 H   0  0  0  0  0  0  0  0  0  0  0  0
   37.1058   34.7926   38.9085 H   0  0  0  0  0  0  0  0  0  0  0  0
   39.3783   35.1658   39.9116 H   0  0  0  0  0  0  0  0  0  0  0  0
   40.3590   33.3495   41.3331 H   0  0  0  0  0  0  0  0  0  0  0  0
   39.1210   31.2879   41.7157 H   0  0  0  0  0  0  0  0  0  0  0  0
  1  2  2  0
  2  3  1  0
  3  8  1  0
  4  3  2  0
  5  4  1  0
  6  1  1  0
  6  5  2  0
  7  1  1  0
  8  9  2  0
  9 10  1  0
 11 10  2  0
 12 11  1  0
 13 12  2  0
 14 13  1  0
 15 16  1  0
 15 14  2  0
 16 17  2  0
 17  8  1  0
 17 12  1  0
 18  5  1  0
 19 23  1  0
 19 18  1  0
 20 19  2  0
 21 20  1  0
 21 22  1  0
 22 23  2  0
 24 22  1  0
 24 29  1  0
 25 24  2  0
 26 25  1  0
 26 27  2  0
 27 28  1  0
 28 29  2  0
  2 30  1  0
  7 31  1  0
  7 32  1  0
 10 33  1  0
 13 34  1  0
 14 35  1  0
 15 36  1  0
 16 37  1  0
 25 38  1  0
 26 39  1  0
 27 40  1  0
 28 41  1  0
 29 42  1  0
M  ISO  8  30  14  33  14  34  14  35  14  36  14  37  14  38  14  39  14
M  ISO  3  40  14  41  14  42  14
M  END
>  <minimizedAffinity>  (1) 
-6.87385035

>  <minimizedRMSD>  (1) 
1.67369318

$$$$
