
     RDKit          3D

 41 44  0  0  0  0  0  0  0  0999 V2000
   38.2120   24.3010   41.9750 C   0  0  0  0  0  0  0  0  0  0  0  0
   39.5420   24.4560   42.4200 C   0  0  0  0  0  0  0  0  0  0  0  0
   39.8980   25.6750   43.0500 C   0  0  0  0  0  0  0  0  0  0  0  0
   38.9400   26.6270   43.1890 N   0  0  0  0  0  0  0  0  0  0  0  0
   37.6670   26.4400   42.7440 C   0  0  0  0  0  0  0  0  0  0  0  0
   37.3000   25.2840   42.1390 N   0  0  0  0  0  0  0  0  0  0  0  0
   37.8670   23.1040   41.3560 N   0  0  0  0  0  0  0  0  0  0  0  0
   43.7360   26.5120   44.5490 C   0  0  0  0  0  0  0  0  0  0  0  0
   42.6060   27.1630   45.0340 C   0  0  0  0  0  0  0  0  0  0  0  0
   41.3470   26.8890   44.5430 C   0  0  0  0  0  0  0  0  0  0  0  0
   41.2350   25.9430   43.5470 C   0  0  0  0  0  0  0  0  0  0  0  0
   42.3600   25.3080   43.0780 C   0  0  0  0  0  0  0  0  0  0  0  0
   43.6240   25.5770   43.5640 C   0  0  0  0  0  0  0  0  0  0  0  0
   45.2850   26.9180   45.2240 S   0  0  0  0  0  0  0  0  0  0  0  0
   45.4970   28.3900   45.3100 O   0  0  0  0  0  0  0  0  0  0  0  0
   45.4020   26.3610   46.6290 O   0  0  0  0  0  0  0  0  0  0  0  0
   36.7960   27.4920   42.9510 O   0  0  0  0  0  0  0  0  0  0  0  0
   36.4940   28.4250   41.9650 C   0  0  0  0  0  0  0  0  0  0  0  0
   35.6270   28.6370   40.9600 N   0  0  0  0  0  0  0  0  0  0  0  0
   35.8980   29.7760   40.3810 O   0  0  0  0  0  0  0  0  0  0  0  0
   36.9140   30.3380   40.9580 C   0  0  0  0  0  0  0  0  0  0  0  0
   37.3220   29.5160   41.9670 N   0  0  0  0  0  0  0  0  0  0  0  0
   37.5750   31.6290   40.6470 C   0  0  0  0  0  0  0  0  0  0  0  0
   36.9340   32.5990   39.8950 C   0  0  0  0  0  0  0  0  0  0  0  0
   37.5770   33.7990   39.6210 C   0  0  0  0  0  0  0  0  0  0  0  0
   38.8550   34.0400   40.0900 C   0  0  0  0  0  0  0  0  0  0  0  0
   39.4600   33.0570   40.8320 C   0  0  0  0  0  0  0  0  0  0  0  0
   38.8400   31.8660   41.1130 C   0  0  0  0  0  0  0  0  0  0  0  0
   40.2817   23.6536   42.2820 H   0  0  0  0  0  0  0  0  0  0  0  0
   38.5728   22.3632   41.2378 H   0  0  0  0  0  0  0  0  0  0  0  0
   36.9057   22.9584   41.0159 H   0  0  0  0  0  0  0  0  0  0  0  0
   42.7198   27.9149   45.8288 H   0  0  0  0  0  0  0  0  0  0  0  0
   40.4600   27.4090   44.9339 H   0  0  0  0  0  0  0  0  0  0  0  0
   42.2489   24.5553   42.2836 H   0  0  0  0  0  0  0  0  0  0  0  0
   44.5088   25.0553   43.1703 H   0  0  0  0  0  0  0  0  0  0  0  0
   46.2261   26.3758   44.3890 H   0  0  0  0  0  0  0  0  0  0  0  0
   35.9173   32.4194   39.5153 H   0  0  0  0  0  0  0  0  0  0  0  0
   37.0634   34.5668   39.0238 H   0  0  0  0  0  0  0  0  0  0  0  0
   39.3697   34.9882   39.8755 H   0  0  0  0  0  0  0  0  0  0  0  0
   40.4768   33.2299   41.2145 H   0  0  0  0  0  0  0  0  0  0  0  0
   39.3586   31.1028   41.7118 H   0  0  0  0  0  0  0  0  0  0  0  0
  1  6  2  0
  1  2  1  0
  2  3  2  0
  3  4  1  0
  3 11  1  0
  5 17  1  0
  5  4  2  0
  6  5  1  0
  7  1  1  0
  8  9  2  0
  8 14  1  0
 10  9  1  0
 11 10  2  0
 12 11  1  0
 12 13  2  0
 13  8  1  0
 14 15  2  0
 14 16  2  0
 18 22  1  0
 18 17  1  0
 19 18  2  0
 20 21  1  0
 20 19  1  0
 21 22  2  0
 23 21  1  0
 23 28  1  0
 24 23  2  0
 25 24  1  0
 25 26  2  0
 26 27  1  0
 27 28  2  0
  2 29  1  0
  7 30  1  0
  7 31  1  0
  9 32  1  0
 10 33  1  0
 12 34  1  0
 13 35  1  0
 14 36  1  0
 24 37  1  0
 25 38  1  0
 26 39  1  0
 27 40  1  0
 28 41  1  0
M  ISO  8  29  14  32  14  33  14  34  14  35  14  36  11  37  14  38  14
M  ISO  3  39  14  40  14  41  14
M  END
>  <minimizedAffinity>  (1) 
-6.73373938

>  <minimizedRMSD>  (1) 
0.798699677

$$$$
