
     RDKit          3D

 38 41  0  0  0  0  0  0  0  0999 V2000
   38.5260   24.7090   42.3440 C   0  0  0  0  0  0  0  0  0  0  0  0
   39.7630   25.1950   42.8060 C   0  0  0  0  0  0  0  0  0  0  0  0
   39.8330   26.5410   43.2490 C   0  0  0  0  0  0  0  0  0  0  0  0
   38.6960   27.2790   43.2010 N   0  0  0  0  0  0  0  0  0  0  0  0
   37.5160   26.7600   42.7420 C   0  0  0  0  0  0  0  0  0  0  0  0
   37.4450   25.4910   42.3220 N   0  0  0  0  0  0  0  0  0  0  0  0
   38.4720   23.3860   41.9110 N   0  0  0  0  0  0  0  0  0  0  0  0
   41.0510   27.1530   43.7470 C   0  0  0  0  0  0  0  0  0  0  0  0
   41.4580   28.3000   43.1020 C   0  0  0  0  0  0  0  0  0  0  0  0
   42.6250   28.9470   43.5270 C   0  0  0  0  0  0  0  0  0  0  0  0
   43.3750   28.4500   44.5840 C   0  0  0  0  0  0  0  0  0  0  0  0
   42.9250   27.3110   45.1860 C   0  0  0  0  0  0  0  0  0  0  0  0
   41.7800   26.6470   44.7970 C   0  0  0  0  0  0  0  0  0  0  0  0
   36.4460   27.6440   42.7560 O   0  0  0  0  0  0  0  0  0  0  0  0
   36.2480   28.6030   41.7800 C   0  0  0  0  0  0  0  0  0  0  0  0
   35.4440   28.8470   40.7210 N   0  0  0  0  0  0  0  0  0  0  0  0
   35.7830   29.9870   40.1780 O   0  0  0  0  0  0  0  0  0  0  0  0
   36.7890   30.5150   40.8420 C   0  0  0  0  0  0  0  0  0  0  0  0
   37.0900   29.6650   41.8400 N   0  0  0  0  0  0  0  0  0  0  0  0
   37.4840   31.7940   40.5690 C   0  0  0  0  0  0  0  0  0  0  0  0
   36.9060   32.7910   39.8040 C   0  0  0  0  0  0  0  0  0  0  0  0
   37.6370   33.9740   39.5970 C   0  0  0  0  0  0  0  0  0  0  0  0
   38.9010   34.1630   40.1320 C   0  0  0  0  0  0  0  0  0  0  0  0
   39.4200   33.1410   40.8820 C   0  0  0  0  0  0  0  0  0  0  0  0
   38.7390   31.9840   41.1020 C   0  0  0  0  0  0  0  0  0  0  0  0
   40.6526   24.5482   42.8233 H   0  0  0  0  0  0  0  0  0  0  0  0
   37.5848   22.9930   41.5656 H   0  0  0  0  0  0  0  0  0  0  0  0
   39.3193   22.8008   41.9363 H   0  0  0  0  0  0  0  0  0  0  0  0
   40.8729   28.7033   42.2624 H   0  0  0  0  0  0  0  0  0  0  0  0
   42.9526   29.8638   43.0150 H   0  0  0  0  0  0  0  0  0  0  0  0
   44.2931   28.9529   44.9220 H   0  0  0  0  0  0  0  0  0  0  0  0
   43.5056   26.9008   46.0254 H   0  0  0  0  0  0  0  0  0  0  0  0
   41.4573   25.7323   45.3158 H   0  0  0  0  0  0  0  0  0  0  0  0
   35.9034   32.6620   39.3701 H   0  0  0  0  0  0  0  0  0  0  0  0
   37.1908   34.7758   38.9904 H   0  0  0  0  0  0  0  0  0  0  0  0
   39.4632   35.0931   39.9619 H   0  0  0  0  0  0  0  0  0  0  0  0
   40.4214   33.2598   41.3213 H   0  0  0  0  0  0  0  0  0  0  0  0
   39.1963   31.1915   41.7126 H   0  0  0  0  0  0  0  0  0  0  0  0
  1  2  2  0
  2  3  1  0
  3  8  1  0
  4  3  2  0
  5 14  1  0
  5  4  1  0
  6  1  1  0
  6  5  2  0
  7  1  1  0
  8 13  2  0
  9 10  2  0
  9  8  1  0
 10 11  1  0
 11 12  2  0
 13 12  1  0
 15 19  1  0
 15 14  1  0
 16 15  2  0
 17 16  1  0
 17 18  1  0
 18 19  2  0
 20 18  1  0
 20 25  1  0
 21 20  2  0
 22 21  1  0
 22 23  2  0
 23 24  1  0
 24 25  2  0
  2 26  1  0
  7 27  1  0
  7 28  1  0
  9 29  1  0
 10 30  1  0
 11 31  1  0
 12 32  1  0
 13 33  1  0
 21 34  1  0
 22 35  1  0
 23 36  1  0
 24 37  1  0
 25 38  1  0
M  ISO  8  26  14  29  14  30  14  31  14  32  14  33  14  34  14  35  14
M  ISO  3  36  14  37  14  38  14
M  END
>  <minimizedAffinity>  (1) 
-6.61151123

>  <minimizedRMSD>  (1) 
0.911733091

$$$$
