
     RDKit          3D

 38 41  0  0  0  0  0  0  0  0999 V2000
   38.8950   24.6020   42.5210 C   0  0  0  0  0  0  0  0  0  0  0  0
   40.2050   24.7340   43.0040 C   0  0  0  0  0  0  0  0  0  0  0  0
   40.5570   25.9780   43.6370 C   0  0  0  0  0  0  0  0  0  0  0  0
   39.6040   26.9460   43.7300 N   0  0  0  0  0  0  0  0  0  0  0  0
   38.3450   26.7540   43.2380 C   0  0  0  0  0  0  0  0  0  0  0  0
   37.9970   25.5870   42.6380 N   0  0  0  0  0  0  0  0  0  0  0  0
   38.5620   23.4000   41.9110 N   0  0  0  0  0  0  0  0  0  0  0  0
   41.8370   26.2170   44.1560 N   0  0  0  0  0  0  0  0  0  0  0  0
   42.0280   26.9360   45.2950 C   0  0  0  0  0  0  0  0  0  0  0  0
   43.2780   27.1860   45.8270 C   0  0  0  0  0  0  0  0  0  0  0  0
   44.3770   26.6680   45.1440 C   0  0  0  0  0  0  0  0  0  0  0  0
   45.5300   26.8990   45.6320 O   0  0  0  0  0  0  0  0  0  0  0  0
   44.1700   25.9590   44.0150 N   0  0  0  0  0  0  0  0  0  0  0  0
   42.9320   25.7410   43.5370 C   0  0  0  0  0  0  0  0  0  0  0  0
   42.8270   25.0620   42.4660 O   0  0  0  0  0  0  0  0  0  0  0  0
   37.4730   27.8200   43.3980 O   0  0  0  0  0  0  0  0  0  0  0  0
   37.0670   28.6230   42.3430 C   0  0  0  0  0  0  0  0  0  0  0  0
   36.1790   28.6400   41.3250 N   0  0  0  0  0  0  0  0  0  0  0  0
   36.3080   29.7480   40.6500 O   0  0  0  0  0  0  0  0  0  0  0  0
   37.2560   30.4750   41.1810 C   0  0  0  0  0  0  0  0  0  0  0  0
   37.7590   29.8040   42.2500 N   0  0  0  0  0  0  0  0  0  0  0  0
   37.7280   31.8010   40.7310 C   0  0  0  0  0  0  0  0  0  0  0  0
   36.9810   32.6360   39.9390 C   0  0  0  0  0  0  0  0  0  0  0  0
   37.4740   33.8720   39.5460 C   0  0  0  0  0  0  0  0  0  0  0  0
   38.7340   34.2940   39.9450 C   0  0  0  0  0  0  0  0  0  0  0  0
   39.4780   33.4460   40.7420 C   0  0  0  0  0  0  0  0  0  0  0  0
   38.9850   32.2270   41.1270 C   0  0  0  0  0  0  0  0  0  0  0  0
   40.9357   23.9180   42.9030 H   0  0  0  0  0  0  0  0  0  0  0  0
   39.2652   22.6519   41.8291 H   0  0  0  0  0  0  0  0  0  0  0  0
   37.6118   23.2564   41.5404 H   0  0  0  0  0  0  0  0  0  0  0  0
   41.1462   27.3368   45.8164 H   0  0  0  0  0  0  0  0  0  0  0  0
   43.4010   27.7696   46.7513 H   0  0  0  0  0  0  0  0  0  0  0  0
   44.9797   25.5754   43.5069 H   0  0  0  0  0  0  0  0  0  0  0  0
   35.9790   32.3217   39.6116 H   0  0  0  0  0  0  0  0  0  0  0  0
   36.8583   34.5253   38.9103 H   0  0  0  0  0  0  0  0  0  0  0  0
   39.1282   35.2734   39.6362 H   0  0  0  0  0  0  0  0  0  0  0  0
   40.4810   33.7539   41.0725 H   0  0  0  0  0  0  0  0  0  0  0  0
   39.5998   31.5735   41.7634 H   0  0  0  0  0  0  0  0  0  0  0  0
  1  6  2  0
  1  2  1  0
  2  3  2  0
  3  4  1  0
  3  8  1  0
  5 16  1  0
  5  4  2  0
  6  5  1  0
  7  1  1  0
  8  9  1  0
  9 10  2  0
 11 12  2  0
 11 10  1  0
 13 11  1  0
 14 13  1  0
 14  8  1  0
 15 14  2  0
 17 16  1  0
 18 17  2  0
 19 20  1  0
 19 18  1  0
 20 21  2  0
 21 17  1  0
 22 27  1  0
 22 20  1  0
 23 22  2  0
 24 23  1  0
 24 25  2  0
 25 26  1  0
 26 27  2  0
  2 28  1  0
  7 29  1  0
  7 30  1  0
  9 31  1  0
 10 32  1  0
 13 33  1  0
 23 34  1  0
 24 35  1  0
 25 36  1  0
 26 37  1  0
 27 38  1  0
M  ISO  8  28  14  31  14  32  14  33   9  34  14  35  14  36  14  37  14
M  ISO  1  38  14
M  END
>  <minimizedAffinity>  (1) 
-6.54802561

>  <minimizedRMSD>  (1) 
0.596288681

$$$$
