
     RDKit          3D

 36 39  0  0  0  0  0  0  0  0999 V2000
   36.7500   27.5290   42.9390 O   0  0  0  0  0  0  0  0  0  0  0  0
   38.2480   24.3630   42.0490 C   0  0  0  0  0  0  0  0  0  0  0  0
   39.5790   24.5340   42.5030 C   0  0  0  0  0  0  0  0  0  0  0  0
   39.8860   25.7780   43.1100 C   0  0  0  0  0  0  0  0  0  0  0  0
   38.9240   26.7270   43.2290 N   0  0  0  0  0  0  0  0  0  0  0  0
   37.6530   26.5070   42.7720 C   0  0  0  0  0  0  0  0  0  0  0  0
   37.3360   25.3260   42.1890 N   0  0  0  0  0  0  0  0  0  0  0  0
   37.9070   23.1490   41.4450 N   0  0  0  0  0  0  0  0  0  0  0  0
   41.2460   25.9890   43.5880 C   0  0  0  0  0  0  0  0  0  0  0  0
   42.2870   25.3020   43.0030 C   0  0  0  0  0  0  0  0  0  0  0  0
   43.5350   25.5670   43.5230 C   0  0  0  0  0  0  0  0  0  0  0  0
   43.7320   26.4330   44.5290 N   0  0  0  0  0  0  0  0  0  0  0  0
   42.6880   27.1000   45.0890 C   0  0  0  0  0  0  0  0  0  0  0  0
   41.4380   26.8570   44.5940 N   0  0  0  0  0  0  0  0  0  0  0  0
   36.4680   28.4640   41.9620 C   0  0  0  0  0  0  0  0  0  0  0  0
   35.6100   28.6680   40.9410 N   0  0  0  0  0  0  0  0  0  0  0  0
   35.8830   29.8130   40.3660 O   0  0  0  0  0  0  0  0  0  0  0  0
   36.8880   30.3800   40.9620 C   0  0  0  0  0  0  0  0  0  0  0  0
   37.2830   29.5660   41.9660 N   0  0  0  0  0  0  0  0  0  0  0  0
   37.5280   31.6800   40.6440 C   0  0  0  0  0  0  0  0  0  0  0  0
   36.9160   32.6360   39.8680 C   0  0  0  0  0  0  0  0  0  0  0  0
   37.5540   33.8390   39.5960 C   0  0  0  0  0  0  0  0  0  0  0  0
   38.8180   34.0960   40.1040 C   0  0  0  0  0  0  0  0  0  0  0  0
   39.4130   33.1280   40.8780 C   0  0  0  0  0  0  0  0  0  0  0  0
   38.7850   31.9430   41.1450 C   0  0  0  0  0  0  0  0  0  0  0  0
   40.3349   23.7429   42.3905 H   0  0  0  0  0  0  0  0  0  0  0  0
   38.6158   22.4091   41.3398 H   0  0  0  0  0  0  0  0  0  0  0  0
   36.9470   22.9945   41.1053 H   0  0  0  0  0  0  0  0  0  0  0  0
   42.1325   24.5911   42.1779 H   0  0  0  0  0  0  0  0  0  0  0  0
   44.4055   25.0475   43.0961 H   0  0  0  0  0  0  0  0  0  0  0  0
   42.8445   27.8116   45.9131 H   0  0  0  0  0  0  0  0  0  0  0  0
   35.9126   32.4462   39.4592 H   0  0  0  0  0  0  0  0  0  0  0  0
   37.0525   34.5939   38.9726 H   0  0  0  0  0  0  0  0  0  0  0  0
   39.3300   35.0467   39.8939 H   0  0  0  0  0  0  0  0  0  0  0  0
   40.4159   33.3107   41.2914 H   0  0  0  0  0  0  0  0  0  0  0  0
   39.2896   31.1897   41.7678 H   0  0  0  0  0  0  0  0  0  0  0  0
  2  7  2  0
  2  3  1  0
  3  4  2  0
  4  5  1  0
  4  9  1  0
  6  1  1  0
  6  5  2  0
  7  6  1  0
  8  2  1  0
  9 14  2  0
 10 11  2  0
 10  9  1  0
 11 12  1  0
 12 13  2  0
 14 13  1  0
 15 19  1  0
 15  1  1  0
 16 15  2  0
 17 16  1  0
 17 18  1  0
 18 19  2  0
 20 18  1  0
 20 25  1  0
 21 20  2  0
 22 21  1  0
 22 23  2  0
 23 24  1  0
 24 25  2  0
  3 26  1  0
  8 27  1  0
  8 28  1  0
 10 29  1  0
 11 30  1  0
 13 31  1  0
 21 32  1  0
 22 33  1  0
 23 34  1  0
 24 35  1  0
 25 36  1  0
M  ISO  8  26  14  29  14  30  14  31  14  32  14  33  14  34  14  35  14
M  ISO  1  36  14
M  END
>  <minimizedAffinity>  (1) 
-6.49215364

>  <minimizedRMSD>  (1) 
0.584540129

$$$$
