
     RDKit          3D

 33 35  0  0  1  0  0  0  0  0999 V2000
   38.3530   27.6540   42.9850 C   0  0  1  0  0  0  0  0  0  0  0  0
   37.8020   28.8280   43.7930 C   0  0  0  0  0  0  0  0  0  0  0  0
   36.6730   28.1690   44.5550 C   0  0  0  0  0  0  0  0  0  0  0  0
   36.2850   26.9540   43.7670 C   0  0  0  0  0  0  0  0  0  0  0  0
   37.1000   27.0080   42.4870 C   0  0  2  0  0  0  0  0  0  0  0  0
   43.7370   28.1070   43.6010 C   0  0  0  0  0  0  0  0  0  0  0  0
   43.4930   27.3890   44.7850 C   0  0  0  0  0  0  0  0  0  0  0  0
   42.2050   26.9220   44.9780 C   0  0  0  0  0  0  0  0  0  0  0  0
   41.2690   27.1840   44.0270 N   0  0  0  0  0  0  0  0  0  0  0  0
   41.5100   27.8610   42.9150 C   0  0  0  0  0  0  0  0  0  0  0  0
   42.7650   28.3360   42.6900 N   0  0  0  0  0  0  0  0  0  0  0  0
   40.5590   28.1570   41.9070 N   0  0  0  0  0  0  0  0  0  0  0  0
   41.0490   28.5840   40.7480 N   0  0  0  0  0  0  0  0  0  0  0  0
   39.9920   28.8330   39.9070 C   0  0  0  0  0  0  0  0  0  0  0  0
   38.8410   28.5250   40.6430 C   0  0  0  0  0  0  0  0  0  0  0  0
   39.2290   28.0980   41.9100 C   0  0  0  0  0  0  0  0  0  0  0  0
   37.4650   25.5620   42.1600 C   0  0  0  0  0  0  0  0  0  0  0  0
   38.5930   25.1750   42.8590 F   0  0  0  0  0  0  0  0  0  0  0  0
   36.4240   24.7770   42.6210 F   0  0  0  0  0  0  0  0  0  0  0  0
   37.6110   25.4230   40.7980 F   0  0  0  0  0  0  0  0  0  0  0  0
   38.9903   26.9696   43.5642 H   0  0  0  0  0  0  0  0  0  0  0  0
   38.5615   29.2375   44.4752 H   0  0  0  0  0  0  0  0  0  0  0  0
   37.4876   29.6853   43.1796 H   0  0  0  0  0  0  0  0  0  0  0  0
   37.0111   27.8786   45.5607 H   0  0  0  0  0  0  0  0  0  0  0  0
   35.8211   28.8539   44.6782 H   0  0  0  0  0  0  0  0  0  0  0  0
   36.5210   26.0403   44.3322 H   0  0  0  0  0  0  0  0  0  0  0  0
   35.2054   26.9376   43.5570 H   0  0  0  0  0  0  0  0  0  0  0  0
   36.6179   27.4992   41.6289 H   0  0  0  0  0  0  0  0  0  0  0  0
   44.7489   28.4939   43.4104 H   0  0  0  0  0  0  0  0  0  0  0  0
   44.2883   27.2072   45.5228 H   0  0  0  0  0  0  0  0  0  0  0  0
   41.9438   26.3511   45.8812 H   0  0  0  0  0  0  0  0  0  0  0  0
   40.0396   29.1985   38.8706 H   0  0  0  0  0  0  0  0  0  0  0  0
   37.8054   28.6067   40.2812 H   0  0  0  0  0  0  0  0  0  0  0  0
  1  2  1  0
  2  3  1  0
  4  3  1  0
  5  1  1  0
  5  4  1  0
  6  7  2  0
  7  8  1  0
  9  8  2  0
 10  9  1  0
 11 10  2  0
 11  6  1  0
 12 16  1  0
 12 10  1  0
 13 12  1  0
 14 15  1  0
 14 13  2  0
 15 16  2  0
 16  1  1  0
 17  5  1  0
 17 19  1  0
 17 18  1  0
 20 17  1  0
  1 21  1  1
  2 22  1  0
  2 23  1  0
  3 24  1  0
  3 25  1  0
  4 26  1  0
  4 27  1  0
  5 28  1  6
  6 29  1  0
  7 30  1  0
  8 31  1  0
 14 32  1  0
 15 33  1  0
M  ISO  8  21  13  22  13  23  13  24  13  25  13  26  13  27  13  28  13
M  ISO  5  29  14  30  14  31  14  32  14  33  14
M  END
>  <minimizedAffinity>  (1) 
-5.16810226

>  <minimizedRMSD>  (1) 
4.69170952

$$$$
