
     RDKit          3D

 39 43  0  0  0  0  0  0  0  0999 V2000
   38.3680   24.6330   42.2540 C   0  0  0  0  0  0  0  0  0  0  0  0
   39.6310   25.0380   42.7170 C   0  0  0  0  0  0  0  0  0  0  0  0
   39.7600   26.3790   43.1910 C   0  0  0  0  0  0  0  0  0  0  0  0
   38.6640   27.1810   43.1670 N   0  0  0  0  0  0  0  0  0  0  0  0
   37.4600   26.7380   42.7060 C   0  0  0  0  0  0  0  0  0  0  0  0
   37.3230   25.4820   42.2570 N   0  0  0  0  0  0  0  0  0  0  0  0
   38.2240   23.3290   41.7880 N   0  0  0  0  0  0  0  0  0  0  0  0
   41.0160   26.8420   43.6740 N   0  0  0  0  0  0  0  0  0  0  0  0
   41.9790   26.2530   44.4050 C   0  0  0  0  0  0  0  0  0  0  0  0
   42.9850   27.1220   44.5990 N   0  0  0  0  0  0  0  0  0  0  0  0
   42.6410   28.2540   43.9850 C   0  0  0  0  0  0  0  0  0  0  0  0
   43.3140   29.4510   43.8780 C   0  0  0  0  0  0  0  0  0  0  0  0
   42.7720   30.4840   43.1980 N   0  0  0  0  0  0  0  0  0  0  0  0
   41.5490   30.3360   42.6120 C   0  0  0  0  0  0  0  0  0  0  0  0
   40.8850   29.1590   42.7150 N   0  0  0  0  0  0  0  0  0  0  0  0
   41.3870   28.1020   43.3840 C   0  0  0  0  0  0  0  0  0  0  0  0
   36.4250   27.6550   42.7340 O   0  0  0  0  0  0  0  0  0  0  0  0
   36.2280   28.6070   41.7570 C   0  0  0  0  0  0  0  0  0  0  0  0
   35.4400   28.8400   40.6880 N   0  0  0  0  0  0  0  0  0  0  0  0
   35.7660   29.9790   40.1480 O   0  0  0  0  0  0  0  0  0  0  0  0
   36.7550   30.5250   40.8230 C   0  0  0  0  0  0  0  0  0  0  0  0
   37.0610   29.6870   41.8320 N   0  0  0  0  0  0  0  0  0  0  0  0
   37.4220   31.8170   40.5440 C   0  0  0  0  0  0  0  0  0  0  0  0
   36.8690   32.8010   39.7680 C   0  0  0  0  0  0  0  0  0  0  0  0
   37.5540   33.9880   39.5510 C   0  0  0  0  0  0  0  0  0  0  0  0
   38.8030   34.1990   40.1090 C   0  0  0  0  0  0  0  0  0  0  0  0
   39.3480   33.2070   40.8840 C   0  0  0  0  0  0  0  0  0  0  0  0
   38.6620   32.0380   41.0930 C   0  0  0  0  0  0  0  0  0  0  0  0
   40.4880   24.3484   42.7145 H   0  0  0  0  0  0  0  0  0  0  0  0
   39.0310   22.6890   41.7908 H   0  0  0  0  0  0  0  0  0  0  0  0
   37.3104   23.0043   41.4404 H   0  0  0  0  0  0  0  0  0  0  0  0
   41.9478   25.2211   44.7847 H   0  0  0  0  0  0  0  0  0  0  0  0
   44.3008   29.5663   44.3502 H   0  0  0  0  0  0  0  0  0  0  0  0
   41.1014   31.1726   42.0554 H   0  0  0  0  0  0  0  0  0  0  0  0
   35.8781   32.6496   39.3151 H   0  0  0  0  0  0  0  0  0  0  0  0
   37.0986   34.7714   38.9275 H   0  0  0  0  0  0  0  0  0  0  0  0
   39.3457   35.1399   39.9351 H   0  0  0  0  0  0  0  0  0  0  0  0
   40.3390   33.3497   41.3396 H   0  0  0  0  0  0  0  0  0  0  0  0
   39.1173   31.2554   41.7177 H   0  0  0  0  0  0  0  0  0  0  0  0
  1  6  2  0
  1  2  1  0
  2  3  2  0
  3  8  1  0
  4  3  1  0
  5 17  1  0
  5  4  2  0
  6  5  1  0
  7  1  1  0
  8  9  1  0
  9 10  2  0
 11 10  1  0
 12 11  2  0
 13 12  1  0
 14 15  1  0
 14 13  2  0
 15 16  2  0
 16  8  1  0
 16 11  1  0
 18 22  1  0
 18 17  1  0
 19 18  2  0
 20 19  1  0
 20 21  1  0
 21 22  2  0
 23 21  1  0
 23 28  1  0
 24 23  2  0
 25 24  1  0
 25 26  2  0
 26 27  1  0
 27 28  2  0
  2 29  1  0
  7 30  1  0
  7 31  1  0
  9 32  1  0
 12 33  1  0
 14 34  1  0
 24 35  1  0
 25 36  1  0
 26 37  1  0
 27 38  1  0
 28 39  1  0
M  ISO  8  29  14  32  14  33  14  34  14  35  14  36  14  37  14  38  14
M  ISO  1  39  14
M  END
>  <minimizedAffinity>  (1) 
-6.47962666

>  <minimizedRMSD>  (1) 
1.02323008

$$$$
