
     RDKit          3D

 41 44  0  0  0  0  0  0  0  0999 V2000
   36.2830   28.4920   41.8180 C   0  0  0  0  0  0  0  0  0  0  0  0
   35.5220   28.7120   40.7310 N   0  0  0  0  0  0  0  0  0  0  0  0
   35.8620   29.8450   40.1810 O   0  0  0  0  0  0  0  0  0  0  0  0
   36.8320   30.4000   40.8640 C   0  0  0  0  0  0  0  0  0  0  0  0
   37.1140   29.5740   41.8940 N   0  0  0  0  0  0  0  0  0  0  0  0
   37.4980   31.6780   40.5800 C   0  0  0  0  0  0  0  0  0  0  0  0
   36.9190   32.6940   39.8480 C   0  0  0  0  0  0  0  0  0  0  0  0
   37.6160   33.8720   39.6240 C   0  0  0  0  0  0  0  0  0  0  0  0
   38.8960   34.0560   40.1230 C   0  0  0  0  0  0  0  0  0  0  0  0
   39.4660   33.0350   40.8530 C   0  0  0  0  0  0  0  0  0  0  0  0
   38.7740   31.8740   41.0730 C   0  0  0  0  0  0  0  0  0  0  0  0
   36.4660   27.5580   42.8200 O   0  0  0  0  0  0  0  0  0  0  0  0
   38.1770   24.4410   42.1350 C   0  0  0  0  0  0  0  0  0  0  0  0
   39.4340   24.6870   42.7180 C   0  0  0  0  0  0  0  0  0  0  0  0
   39.6460   25.9520   43.3410 C   0  0  0  0  0  0  0  0  0  0  0  0
   38.6280   26.8530   43.3400 N   0  0  0  0  0  0  0  0  0  0  0  0
   37.4260   26.5650   42.7590 C   0  0  0  0  0  0  0  0  0  0  0  0
   37.2060   25.3680   42.1620 N   0  0  0  0  0  0  0  0  0  0  0  0
   37.9820   23.2030   41.5290 N   0  0  0  0  0  0  0  0  0  0  0  0
   40.9060   26.3340   43.9850 C   0  0  0  0  0  0  0  0  0  0  0  0
   41.3620   27.7290   43.6210 C   0  0  0  0  0  0  0  0  0  0  0  0
   42.7470   27.7090   44.2810 C   0  0  0  0  0  0  0  0  0  0  0  0
   43.2530   26.2870   44.0100 C   0  0  0  0  0  0  0  0  0  0  0  0
   42.0720   25.5110   43.4690 C   0  0  0  0  0  0  0  0  0  0  0  0
   35.9043   32.5698   39.4419 H   0  0  0  0  0  0  0  0  0  0  0  0
   37.1441   34.6754   39.0393 H   0  0  0  0  0  0  0  0  0  0  0  0
   39.4430   34.9929   39.9411 H   0  0  0  0  0  0  0  0  0  0  0  0
   40.4809   33.1534   41.2605 H   0  0  0  0  0  0  0  0  0  0  0  0
   39.2481   31.0734   41.6598 H   0  0  0  0  0  0  0  0  0  0  0  0
   40.2286   23.9267   42.6938 H   0  0  0  0  0  0  0  0  0  0  0  0
   38.7422   22.5080   41.5211 H   0  0  0  0  0  0  0  0  0  0  0  0
   37.0775   22.9820   41.0885 H   0  0  0  0  0  0  0  0  0  0  0  0
   40.6854   26.2085   45.0553 H   0  0  0  0  0  0  0  0  0  0  0  0
   41.4261   27.8709   42.5321 H   0  0  0  0  0  0  0  0  0  0  0  0
   40.6963   28.5433   43.9431 H   0  0  0  0  0  0  0  0  0  0  0  0
   43.4114   28.4566   43.8231 H   0  0  0  0  0  0  0  0  0  0  0  0
   42.7142   27.9548   45.3527 H   0  0  0  0  0  0  0  0  0  0  0  0
   44.0667   26.3070   43.2700 H   0  0  0  0  0  0  0  0  0  0  0  0
   43.6504   25.8233   44.9249 H   0  0  0  0  0  0  0  0  0  0  0  0
   42.0480   24.4862   43.8680 H   0  0  0  0  0  0  0  0  0  0  0  0
   42.0819   25.3838   42.3764 H   0  0  0  0  0  0  0  0  0  0  0  0
  1  5  1  0
  1 12  1  0
  2  1  2  0
  3  2  1  0
  3  4  1  0
  4  5  2  0
  6  4  1  0
  6 11  1  0
  7  6  2  0
  8  7  1  0
  8  9  2  0
  9 10  1  0
 10 11  2  0
 13 18  2  0
 13 14  1  0
 14 15  2  0
 15 20  1  0
 16 15  1  0
 17 12  1  0
 17 16  2  0
 18 17  1  0
 19 13  1  0
 21 20  1  0
 21 22  1  0
 23 22  1  0
 24 20  1  0
 24 23  1  0
  7 25  1  0
  8 26  1  0
  9 27  1  0
 10 28  1  0
 11 29  1  0
 14 30  1  0
 19 31  1  0
 19 32  1  0
 20 33  1  0
 21 34  1  0
 21 35  1  0
 22 36  1  0
 22 37  1  0
 23 38  1  0
 23 39  1  0
 24 40  1  0
 24 41  1  0
M  ISO  8  25  14  26  14  27  14  28  14  29  14  30  14  33  13  34  13
M  ISO  7  35  13  36  13  37  13  38  13  39  13  40  13  41  13
M  END
>  <minimizedAffinity>  (1) 
-6.43425131

>  <minimizedRMSD>  (1) 
0.746561646

$$$$
