
     RDKit          3D

 37 39  0  0  1  0  0  0  0  0999 V2000
   37.4320   26.5560   41.7270 C   0  0  1  0  0  0  0  0  0  0  0  0
   37.7100   25.9270   40.3620 C   0  0  0  0  0  0  0  0  0  0  0  0
   37.4990   24.4510   40.6580 C   0  0  0  0  0  0  0  0  0  0  0  0
   37.6140   24.2960   42.1690 C   0  0  0  0  0  0  0  0  0  0  0  0
   38.2330   25.6240   42.5980 C   0  0  1  0  0  0  0  0  0  0  0  0
   36.3660   30.2720   37.8970 C   0  0  0  0  0  0  0  0  0  0  0  0
   35.4510   29.3040   37.4530 C   0  0  0  0  0  0  0  0  0  0  0  0
   35.2770   28.1690   38.2480 C   0  0  0  0  0  0  0  0  0  0  0  0
   36.0050   28.0880   39.3950 N   0  0  0  0  0  0  0  0  0  0  0  0
   36.8650   29.0070   39.8060 C   0  0  0  0  0  0  0  0  0  0  0  0
   37.0340   30.0980   39.0400 N   0  0  0  0  0  0  0  0  0  0  0  0
   37.6250   28.9330   40.9850 N   0  0  0  0  0  0  0  0  0  0  0  0
   38.2020   30.0710   41.3810 N   0  0  0  0  0  0  0  0  0  0  0  0
   38.8970   29.8270   42.5280 C   0  0  0  0  0  0  0  0  0  0  0  0
   38.7070   28.4710   42.8060 C   0  0  0  0  0  0  0  0  0  0  0  0
   37.8970   27.9280   41.8140 C   0  0  0  0  0  0  0  0  0  0  0  0
   39.6090   25.5820   42.1180 N   0  0  0  0  0  0  0  0  0  0  0  0
   40.5620   25.3710   43.1820 C   0  0  0  0  0  0  0  0  0  0  0  0
   40.2780   25.7170   44.4080 N   0  0  0  0  0  0  0  0  0  0  0  0
   41.8460   24.7730   42.9060 N   0  0  0  0  0  0  0  0  0  0  0  0
   40.9770   25.5560   45.1610 H   0  0  0  0  0  0  0  0  0  0  0  0
   36.3673   26.6434   41.9894 H   0  0  0  0  0  0  0  0  0  0  0  0
   38.7395   26.1268   40.0300 H   0  0  0  0  0  0  0  0  0  0  0  0
   37.0759   26.3164   39.5519 H   0  0  0  0  0  0  0  0  0  0  0  0
   36.5025   24.1331   40.3175 H   0  0  0  0  0  0  0  0  0  0  0  0
   38.2404   23.8289   40.1352 H   0  0  0  0  0  0  0  0  0  0  0  0
   36.6252   24.1525   42.6292 H   0  0  0  0  0  0  0  0  0  0  0  0
   38.2062   23.4205   42.4736 H   0  0  0  0  0  0  0  0  0  0  0  0
   38.2271   25.8762   43.6687 H   0  0  0  0  0  0  0  0  0  0  0  0
   36.5337   31.1800   37.2991 H   0  0  0  0  0  0  0  0  0  0  0  0
   34.8923   29.4346   36.5145 H   0  0  0  0  0  0  0  0  0  0  0  0
   34.5780   27.3707   37.9580 H   0  0  0  0  0  0  0  0  0  0  0  0
   39.4857   30.5485   43.1136 H   0  0  0  0  0  0  0  0  0  0  0  0
   39.1268   27.9253   43.6639 H   0  0  0  0  0  0  0  0  0  0  0  0
   39.8725   25.6909   41.1282 H   0  0  0  0  0  0  0  0  0  0  0  0
   42.5205   24.6257   43.6704 H   0  0  0  0  0  0  0  0  0  0  0  0
   42.0880   24.4934   41.9446 H   0  0  0  0  0  0  0  0  0  0  0  0
  1 16  1  0
  1  5  1  0
  2  3  1  0
  2  1  1  0
  3  4  1  0
  4  5  1  0
  6 11  2  0
  7  6  1  0
  7  8  2  0
  8  9  1  0
  9 10  2  0
 10 12  1  0
 11 10  1  0
 12 13  1  0
 12 16  1  0
 13 14  2  0
 14 15  1  0
 16 15  2  0
 17  5  1  0
 17 18  1  0
 18 19  2  0
 19 21  1  0
 20 18  1  0
  1 22  1  1
  2 23  1  0
  2 24  1  0
  3 25  1  0
  3 26  1  0
  4 27  1  0
  4 28  1  0
  5 29  1  1
  6 30  1  0
  7 31  1  0
  8 32  1  0
 14 33  1  0
 15 34  1  0
 17 35  1  0
 20 36  1  0
 20 37  1  0
M  ISO  8  22  13  23  13  24  13  25  13  26  13  27  13  28  13  29  13
M  ISO  5  30  14  31  14  32  14  33  14  34  14
M  END
>  <minimizedAffinity>  (1) 
-5.16768646

>  <minimizedRMSD>  (1) 
2.42402554

$$$$
