
     RDKit          3D

 31 33  0  0  0  0  0  0  0  0999 V2000
   37.1530   28.5480   42.4310 C   0  0  0  0  0  0  0  0  0  0  0  0
   36.1740   28.5790   41.5000 N   0  0  0  0  0  0  0  0  0  0  0  0
   36.2540   29.6880   40.8230 O   0  0  0  0  0  0  0  0  0  0  0  0
   37.2600   30.4120   41.2680 C   0  0  0  0  0  0  0  0  0  0  0  0
   37.8360   29.7170   42.2750 N   0  0  0  0  0  0  0  0  0  0  0  0
   37.7050   31.7340   40.7870 C   0  0  0  0  0  0  0  0  0  0  0  0
   36.9350   32.5040   39.9370 C   0  0  0  0  0  0  0  0  0  0  0  0
   37.4130   33.7460   39.5190 C   0  0  0  0  0  0  0  0  0  0  0  0
   38.6510   34.2220   39.9430 C   0  0  0  0  0  0  0  0  0  0  0  0
   39.3820   33.4230   40.7880 C   0  0  0  0  0  0  0  0  0  0  0  0
   38.9240   32.2100   41.2010 C   0  0  0  0  0  0  0  0  0  0  0  0
   37.6280   27.7250   43.4300 O   0  0  0  0  0  0  0  0  0  0  0  0
   38.8080   24.4790   42.3540 C   0  0  0  0  0  0  0  0  0  0  0  0
   40.1500   24.5000   42.8080 C   0  0  0  0  0  0  0  0  0  0  0  0
   40.5820   25.6730   43.4800 C   0  0  0  0  0  0  0  0  0  0  0  0
   39.7100   26.7000   43.6550 N   0  0  0  0  0  0  0  0  0  0  0  0
   38.4240   26.6230   43.1960 C   0  0  0  0  0  0  0  0  0  0  0  0
   37.9820   25.5190   42.5520 N   0  0  0  0  0  0  0  0  0  0  0  0
   38.3550   23.3370   41.6900 N   0  0  0  0  0  0  0  0  0  0  0  0
   41.9560   25.7370   43.9630 C   0  0  0  0  0  0  0  0  0  0  0  0
   42.2320   26.6580   44.7720 O   0  0  0  0  0  0  0  0  0  0  0  0
   42.8600   24.8110   43.5200 O   0  0  0  0  0  0  0  0  0  0  0  0
   35.9550   32.1414   39.5933 H   0  0  0  0  0  0  0  0  0  0  0  0
   36.8010   34.3604   38.8423 H   0  0  0  0  0  0  0  0  0  0  0  0
   39.0293   35.2010   39.6137 H   0  0  0  0  0  0  0  0  0  0  0  0
   40.3636   33.7730   41.1401 H   0  0  0  0  0  0  0  0  0  0  0  0
   39.5410   31.6008   41.8779 H   0  0  0  0  0  0  0  0  0  0  0  0
   40.8255   23.6469   42.6471 H   0  0  0  0  0  0  0  0  0  0  0  0
   38.9920   22.5416   41.5403 H   0  0  0  0  0  0  0  0  0  0  0  0
   37.3839   23.2901   41.3500 H   0  0  0  0  0  0  0  0  0  0  0  0
   43.7967   24.8416   43.8390 H   0  0  0  0  0  0  0  0  0  0  0  0
  1 12  1  0
  2  1  2  0
  3  4  1  0
  3  2  1  0
  4  5  2  0
  5  1  1  0
  6 11  1  0
  6  4  1  0
  7  6  2  0
  8  7  1  0
  8  9  2  0
  9 10  1  0
 10 11  2  0
 13 18  2  0
 13 14  1  0
 14 15  2  0
 15 16  1  0
 15 20  1  0
 17 12  1  0
 17 16  2  0
 18 17  1  0
 19 13  1  0
 20 21  2  0
 22 20  1  0
  7 23  1  0
  8 24  1  0
  9 25  1  0
 10 26  1  0
 11 27  1  0
 14 28  1  0
 19 29  1  0
 19 30  1  0
 22 31  1  0
M  ISO  7  23  14  24  14  25  14  26  14  27  14  28  14  31   3
M  END
>  <minimizedAffinity>  (1) 
-6.23922539

>  <minimizedRMSD>  (1) 
0.593124747

$$$$
