
     RDKit          3D

 34 37  0  0  0  0  0  0  0  0999 V2000
   36.7820   27.5320   42.9670 O   0  0  0  0  0  0  0  0  0  0  0  0
   38.2280   24.3410   42.0350 C   0  0  0  0  0  0  0  0  0  0  0  0
   39.5510   24.5200   42.4840 C   0  0  0  0  0  0  0  0  0  0  0  0
   39.9000   25.7490   43.0990 C   0  0  0  0  0  0  0  0  0  0  0  0
   38.9030   26.6920   43.2140 N   0  0  0  0  0  0  0  0  0  0  0  0
   37.6520   26.4730   42.7680 C   0  0  0  0  0  0  0  0  0  0  0  0
   37.3170   25.3080   42.1830 N   0  0  0  0  0  0  0  0  0  0  0  0
   37.9050   23.1320   41.4330 N   0  0  0  0  0  0  0  0  0  0  0  0
   41.2570   25.9930   43.5860 C   0  0  0  0  0  0  0  0  0  0  0  0
   42.3550   25.3120   42.9510 C   0  0  0  0  0  0  0  0  0  0  0  0
   43.7260   25.9640   43.9180 S   0  0  0  0  0  0  0  0  0  0  0  0
   42.6420   27.0300   45.0060 C   0  0  0  0  0  0  0  0  0  0  0  0
   41.4280   26.8310   44.5940 N   0  0  0  0  0  0  0  0  0  0  0  0
   36.4820   28.4560   41.9710 C   0  0  0  0  0  0  0  0  0  0  0  0
   35.6170   28.6660   40.9470 N   0  0  0  0  0  0  0  0  0  0  0  0
   35.9000   29.7970   40.3790 O   0  0  0  0  0  0  0  0  0  0  0  0
   36.9100   30.3680   40.9610 C   0  0  0  0  0  0  0  0  0  0  0  0
   37.3080   29.5480   41.9760 N   0  0  0  0  0  0  0  0  0  0  0  0
   37.5640   31.6620   40.6440 C   0  0  0  0  0  0  0  0  0  0  0  0
   36.9190   32.6160   39.8800 C   0  0  0  0  0  0  0  0  0  0  0  0
   37.5800   33.8220   39.6100 C   0  0  0  0  0  0  0  0  0  0  0  0
   38.8510   34.0700   40.0900 C   0  0  0  0  0  0  0  0  0  0  0  0
   39.4580   33.0870   40.8490 C   0  0  0  0  0  0  0  0  0  0  0  0
   38.8290   31.9020   41.1230 C   0  0  0  0  0  0  0  0  0  0  0  0
   40.2984   23.7224   42.3600 H   0  0  0  0  0  0  0  0  0  0  0  0
   38.6226   22.4005   41.3291 H   0  0  0  0  0  0  0  0  0  0  0  0
   36.9478   22.9668   41.0903 H   0  0  0  0  0  0  0  0  0  0  0  0
   42.3559   24.5978   42.1144 H   0  0  0  0  0  0  0  0  0  0  0  0
   42.9661   27.6889   45.8251 H   0  0  0  0  0  0  0  0  0  0  0  0
   35.9065   32.4324   39.4913 H   0  0  0  0  0  0  0  0  0  0  0  0
   37.0754   34.5877   39.0025 H   0  0  0  0  0  0  0  0  0  0  0  0
   39.3638   35.0192   39.8753 H   0  0  0  0  0  0  0  0  0  0  0  0
   40.4705   33.2609   41.2423 H   0  0  0  0  0  0  0  0  0  0  0  0
   39.3389   31.1388   41.7293 H   0  0  0  0  0  0  0  0  0  0  0  0
  2  7  2  0
  2  3  1  0
  3  4  2  0
  4  5  1  0
  4  9  1  0
  6  1  1  0
  6  5  2  0
  7  6  1  0
  8  2  1  0
  9 13  1  0
 10  9  2  0
 10 11  1  0
 11 12  1  0
 13 12  2  0
 14 18  1  0
 14  1  1  0
 15 14  2  0
 16 15  1  0
 16 17  1  0
 17 18  2  0
 19 17  1  0
 19 24  1  0
 20 19  2  0
 21 20  1  0
 21 22  2  0
 22 23  1  0
 23 24  2  0
  3 25  1  0
  8 26  1  0
  8 27  1  0
 10 28  1  0
 12 29  1  0
 20 30  1  0
 21 31  1  0
 22 32  1  0
 23 33  1  0
 24 34  1  0
M  ISO  8  25  14  28  14  29  14  30  14  31  14  32  14  33  14  34  14
M  END
>  <minimizedAffinity>  (1) 
-6.20163536

>  <minimizedRMSD>  (1) 
0.638606131

$$$$
