
     RDKit          3D

 40 43  0  0  0  0  0  0  0  0999 V2000
   36.4450   27.6770   42.7410 O   0  0  0  0  0  0  0  0  0  0  0  0
   38.3520   24.6430   42.2490 C   0  0  0  0  0  0  0  0  0  0  0  0
   39.6300   25.0600   42.6530 C   0  0  0  0  0  0  0  0  0  0  0  0
   39.7950   26.4120   43.0940 C   0  0  0  0  0  0  0  0  0  0  0  0
   38.6930   27.2040   43.0910 N   0  0  0  0  0  0  0  0  0  0  0  0
   37.4800   26.7520   42.6910 C   0  0  0  0  0  0  0  0  0  0  0  0
   37.3220   25.4870   42.2770 N   0  0  0  0  0  0  0  0  0  0  0  0
   38.2220   23.3250   41.8260 N   0  0  0  0  0  0  0  0  0  0  0  0
   41.0570   26.9090   43.5180 N   0  0  0  0  0  0  0  0  0  0  0  0
   41.5460   28.2450   43.2370 C   0  0  0  0  0  0  0  0  0  0  0  0
   42.8190   28.3380   44.0760 C   0  0  0  0  0  0  0  0  0  0  0  0
   42.6380   27.2530   45.1450 C   0  0  0  0  0  0  0  0  0  0  0  0
   42.0210   26.1460   44.2880 C   0  0  0  0  0  0  0  0  0  0  0  0
   36.2290   28.6320   41.7560 C   0  0  0  0  0  0  0  0  0  0  0  0
   35.4320   28.8750   40.7050 N   0  0  0  0  0  0  0  0  0  0  0  0
   35.7610   30.0190   40.1590 O   0  0  0  0  0  0  0  0  0  0  0  0
   36.7650   30.5500   40.8240 C   0  0  0  0  0  0  0  0  0  0  0  0
   37.0850   29.7050   41.8340 N   0  0  0  0  0  0  0  0  0  0  0  0
   37.4460   31.8280   40.5500 C   0  0  0  0  0  0  0  0  0  0  0  0
   36.8910   32.8280   39.7750 C   0  0  0  0  0  0  0  0  0  0  0  0
   37.5900   34.0080   39.5600 C   0  0  0  0  0  0  0  0  0  0  0  0
   38.8520   34.2070   40.1130 C   0  0  0  0  0  0  0  0  0  0  0  0
   39.3820   33.2000   40.8780 C   0  0  0  0  0  0  0  0  0  0  0  0
   38.6970   32.0390   41.0930 C   0  0  0  0  0  0  0  0  0  0  0  0
   40.4829   24.3657   42.6313 H   0  0  0  0  0  0  0  0  0  0  0  0
   39.0430   22.7031   41.8189 H   0  0  0  0  0  0  0  0  0  0  0  0
   37.3047   22.9705   41.5197 H   0  0  0  0  0  0  0  0  0  0  0  0
   41.7699   28.3655   42.1668 H   0  0  0  0  0  0  0  0  0  0  0  0
   40.8142   29.0303   43.4774 H   0  0  0  0  0  0  0  0  0  0  0  0
   43.7084   28.1365   43.4609 H   0  0  0  0  0  0  0  0  0  0  0  0
   42.9692   29.3381   44.5086 H   0  0  0  0  0  0  0  0  0  0  0  0
   43.5992   26.9446   45.5821 H   0  0  0  0  0  0  0  0  0  0  0  0
   42.0404   27.5542   46.0180 H   0  0  0  0  0  0  0  0  0  0  0  0
   41.5307   25.3800   44.9067 H   0  0  0  0  0  0  0  0  0  0  0  0
   42.7443   25.5801   43.6825 H   0  0  0  0  0  0  0  0  0  0  0  0
   35.8954   32.6892   39.3284 H   0  0  0  0  0  0  0  0  0  0  0  0
   37.1392   34.7989   38.9425 H   0  0  0  0  0  0  0  0  0  0  0  0
   39.4060   35.1417   39.9418 H   0  0  0  0  0  0  0  0  0  0  0  0
   40.3778   33.3302   41.3268 H   0  0  0  0  0  0  0  0  0  0  0  0
   39.1528   31.2534   41.7135 H   0  0  0  0  0  0  0  0  0  0  0  0
  2  7  2  0
  2  3  1  0
  3  4  2  0
  4  9  1  0
  5  4  1  0
  6  1  1  0
  6  5  2  0
  7  6  1  0
  8  2  1  0
  9 13  1  0
 10  9  1  0
 10 11  1  0
 11 12  1  0
 13 12  1  0
 14 18  1  0
 14  1  1  0
 15 14  2  0
 16 15  1  0
 16 17  1  0
 17 18  2  0
 19 17  1  0
 19 24  1  0
 20 19  2  0
 21 20  1  0
 21 22  2  0
 22 23  1  0
 23 24  2  0
  3 25  1  0
  8 26  1  0
  8 27  1  0
 10 28  1  0
 10 29  1  0
 11 30  1  0
 11 31  1  0
 12 32  1  0
 12 33  1  0
 13 34  1  0
 13 35  1  0
 20 36  1  0
 21 37  1  0
 22 38  1  0
 23 39  1  0
 24 40  1  0
M  ISO  8  25  14  28  13  29  13  30  13  31  13  32  13  33  13  34  13
M  ISO  6  35  13  36  14  37  14  38  14  39  14  40  14
M  END
>  <minimizedAffinity>  (1) 
-6.19294405

>  <minimizedRMSD>  (1) 
0.807950795

$$$$
