
     RDKit          3D

 37 39  0  0  0  0  0  0  0  0999 V2000
   36.5540   28.5000   41.9870 C   0  0  0  0  0  0  0  0  0  0  0  0
   35.7350   28.6430   40.9110 N   0  0  0  0  0  0  0  0  0  0  0  0
   35.9960   29.7760   40.3170 O   0  0  0  0  0  0  0  0  0  0  0  0
   36.9480   30.3960   40.9440 C   0  0  0  0  0  0  0  0  0  0  0  0
   37.3230   29.6210   42.0020 N   0  0  0  0  0  0  0  0  0  0  0  0
   37.5700   31.7070   40.6330 C   0  0  0  0  0  0  0  0  0  0  0  0
   36.9070   32.6410   39.8480 C   0  0  0  0  0  0  0  0  0  0  0  0
   37.5400   33.8680   39.5860 C   0  0  0  0  0  0  0  0  0  0  0  0
   38.7990   34.1550   40.0920 C   0  0  0  0  0  0  0  0  0  0  0  0
   39.4080   33.1930   40.8630 C   0  0  0  0  0  0  0  0  0  0  0  0
   38.8190   31.9910   41.1360 C   0  0  0  0  0  0  0  0  0  0  0  0
   36.8100   27.6020   43.0050 O   0  0  0  0  0  0  0  0  0  0  0  0
   38.3690   24.4250   42.2200 C   0  0  0  0  0  0  0  0  0  0  0  0
   39.6560   24.6230   42.7460 C   0  0  0  0  0  0  0  0  0  0  0  0
   39.9450   25.8720   43.3660 C   0  0  0  0  0  0  0  0  0  0  0  0
   38.9500   26.8100   43.4130 N   0  0  0  0  0  0  0  0  0  0  0  0
   37.7170   26.5690   42.8870 C   0  0  0  0  0  0  0  0  0  0  0  0
   37.4430   25.3880   42.3020 N   0  0  0  0  0  0  0  0  0  0  0  0
   38.0740   23.2140   41.6140 N   0  0  0  0  0  0  0  0  0  0  0  0
   41.2660   26.1460   43.9350 C   0  0  0  0  0  0  0  0  0  0  0  0
   42.3670   25.3410   43.2750 C   0  0  0  0  0  0  0  0  0  0  0  0
   41.6410   27.5900   43.8820 C   0  0  0  0  0  0  0  0  0  0  0  0
   35.9084   32.4252   39.4402 H   0  0  0  0  0  0  0  0  0  0  0  0
   37.0257   34.6171   38.9661 H   0  0  0  0  0  0  0  0  0  0  0  0
   39.2919   35.1162   39.8843 H   0  0  0  0  0  0  0  0  0  0  0  0
   40.4068   33.3990   41.2754 H   0  0  0  0  0  0  0  0  0  0  0  0
   39.3431   31.2503   41.7578 H   0  0  0  0  0  0  0  0  0  0  0  0
   40.4203   23.8345   42.6808 H   0  0  0  0  0  0  0  0  0  0  0  0
   38.7929   22.4787   41.5555 H   0  0  0  0  0  0  0  0  0  0  0  0
   37.1358   23.0493   41.2221 H   0  0  0  0  0  0  0  0  0  0  0  0
   41.1734   25.8412   44.9879 H   0  0  0  0  0  0  0  0  0  0  0  0
   42.9981   24.8796   44.0488 H   0  0  0  0  0  0  0  0  0  0  0  0
   41.9210   24.5545   42.6485 H   0  0  0  0  0  0  0  0  0  0  0  0
   42.9812   26.0045   42.6485 H   0  0  0  0  0  0  0  0  0  0  0  0
   41.7424   27.9803   44.9054 H   0  0  0  0  0  0  0  0  0  0  0  0
   42.5978   27.7011   43.3508 H   0  0  0  0  0  0  0  0  0  0  0  0
   40.8592   28.1526   43.3508 H   0  0  0  0  0  0  0  0  0  0  0  0
  1  5  1  0
  1 12  1  0
  2  1  2  0
  3  2  1  0
  3  4  1  0
  4  5  2  0
  6  4  1  0
  6 11  1  0
  7  6  2  0
  8  7  1  0
  8  9  2  0
  9 10  1  0
 10 11  2  0
 13 18  2  0
 13 14  1  0
 14 15  2  0
 15 16  1  0
 15 20  1  0
 17 12  1  0
 17 16  2  0
 18 17  1  0
 19 13  1  0
 21 20  1  0
 22 20  1  0
  7 23  1  0
  8 24  1  0
  9 25  1  0
 10 26  1  0
 11 27  1  0
 14 28  1  0
 19 29  1  0
 19 30  1  0
 20 31  1  0
 21 32  1  0
 21 33  1  0
 21 34  1  0
 22 35  1  0
 22 36  1  0
 22 37  1  0
M  ISO  8  23  14  24  14  25  14  26  14  27  14  28  14  31   8  32   8
M  ISO  5  33   8  34   8  35   8  36   8  37   8
M  END
>  <minimizedAffinity>  (1) 
-6.00730419

>  <minimizedRMSD>  (1) 
0.621778607

$$$$
