
     RDKit          3D

 33 35  0  0  1  0  0  0  0  0999 V2000
   37.6790   27.5160   41.2850 C   0  0  1  0  0  0  0  0  0  0  0  0
   37.0940   27.6940   39.8810 C   0  0  0  0  0  0  0  0  0  0  0  0
   36.6380   29.1510   39.9410 C   0  0  0  0  0  0  0  0  0  0  0  0
   36.4400   29.4710   41.3970 C   0  0  0  0  0  0  0  0  0  0  0  0
   36.6190   28.1610   42.1300 C   0  0  2  0  0  0  0  0  0  0  0  0
   42.2650   25.6840   43.5490 C   0  0  0  0  0  0  0  0  0  0  0  0
   42.5060   27.0530   43.7620 C   0  0  0  0  0  0  0  0  0  0  0  0
   41.4850   27.9370   43.4560 C   0  0  0  0  0  0  0  0  0  0  0  0
   40.3210   27.4230   42.9730 N   0  0  0  0  0  0  0  0  0  0  0  0
   40.1020   26.1330   42.7750 C   0  0  0  0  0  0  0  0  0  0  0  0
   41.0930   25.2470   43.0700 N   0  0  0  0  0  0  0  0  0  0  0  0
   38.9130   25.5500   42.2610 N   0  0  0  0  0  0  0  0  0  0  0  0
   38.7730   24.2470   42.4130 N   0  0  0  0  0  0  0  0  0  0  0  0
   37.5850   23.8850   41.8390 C   0  0  0  0  0  0  0  0  0  0  0  0
   37.0200   25.0600   41.3310 C   0  0  0  0  0  0  0  0  0  0  0  0
   37.8820   26.1150   41.6100 C   0  0  0  0  0  0  0  0  0  0  0  0
   37.1860   28.5360   43.4710 C   0  0  0  0  0  0  0  0  0  0  0  0
   36.7410   27.9020   44.4810 O   0  0  0  0  0  0  0  0  0  0  0  0
   38.1470   29.5360   43.5240 O   0  0  0  0  0  0  0  0  0  0  0  0
   38.6774   27.9568   41.4221 H   0  0  0  0  0  0  0  0  0  0  0  0
   36.2485   27.0125   39.7057 H   0  0  0  0  0  0  0  0  0  0  0  0
   37.7962   27.4707   39.0643 H   0  0  0  0  0  0  0  0  0  0  0  0
   37.4057   29.8087   39.5074 H   0  0  0  0  0  0  0  0  0  0  0  0
   35.7115   29.3042   39.3681 H   0  0  0  0  0  0  0  0  0  0  0  0
   37.1873   30.2045   41.7338 H   0  0  0  0  0  0  0  0  0  0  0  0
   35.4495   29.9106   41.5857 H   0  0  0  0  0  0  0  0  0  0  0  0
   35.7303   27.5288   42.2735 H   0  0  0  0  0  0  0  0  0  0  0  0
   43.0564   24.9560   43.7809 H   0  0  0  0  0  0  0  0  0  0  0  0
   43.4693   27.4082   44.1568 H   0  0  0  0  0  0  0  0  0  0  0  0
   41.6107   29.0204   43.5988 H   0  0  0  0  0  0  0  0  0  0  0  0
   37.1590   22.8722   41.7872 H   0  0  0  0  0  0  0  0  0  0  0  0
   36.0587   25.1362   40.8017 H   0  0  0  0  0  0  0  0  0  0  0  0
   38.5368   29.8023   44.3942 H   0  0  0  0  0  0  0  0  0  0  0  0
  1 16  1  0
  1  5  1  0
  2  3  1  0
  2  1  1  0
  3  4  1  0
  4  5  1  0
  5 17  1  0
  6  7  2  0
  8  7  1  0
  9  8  2  0
 10  9  1  0
 10 11  2  0
 11  6  1  0
 12 13  1  0
 12 10  1  0
 14 13  2  0
 15 16  2  0
 15 14  1  0
 16 12  1  0
 17 19  1  0
 17 18  2  0
  1 20  1  6
  2 21  1  0
  2 22  1  0
  3 23  1  0
  3 24  1  0
  4 25  1  0
  4 26  1  0
  5 27  1  1
  6 28  1  0
  7 29  1  0
  8 30  1  0
 14 31  1  0
 15 32  1  0
 19 33  1  0
M  ISO  8  20  13  21  13  22  13  23  13  24  13  25  13  26  13  27  13
M  ISO  6  28  14  29  14  30  14  31  14  32  14  33   3
M  END
>  <minimizedAffinity>  (1) 
-5.13642406

>  <minimizedRMSD>  (1) 
4.73236418

$$$$
