
     RDKit          3D

 31 33  0  0  0  0  0  0  0  0999 V2000
   36.6980   28.5460   42.1250 C   0  0  0  0  0  0  0  0  0  0  0  0
   35.8250   28.6570   41.0900 N   0  0  0  0  0  0  0  0  0  0  0  0
   36.0490   29.7920   40.4770 O   0  0  0  0  0  0  0  0  0  0  0  0
   37.0210   30.4310   41.0500 C   0  0  0  0  0  0  0  0  0  0  0  0
   37.4600   29.6790   42.0950 N   0  0  0  0  0  0  0  0  0  0  0  0
   37.5920   31.7490   40.6760 C   0  0  0  0  0  0  0  0  0  0  0  0
   36.9220   32.6460   39.8860 C   0  0  0  0  0  0  0  0  0  0  0  0
   37.4990   33.8760   39.5600 C   0  0  0  0  0  0  0  0  0  0  0  0
   38.7560   34.2030   40.0290 C   0  0  0  0  0  0  0  0  0  0  0  0
   39.4160   33.2840   40.8250 C   0  0  0  0  0  0  0  0  0  0  0  0
   38.8390   32.0770   41.1410 C   0  0  0  0  0  0  0  0  0  0  0  0
   37.0330   27.6680   43.1510 O   0  0  0  0  0  0  0  0  0  0  0  0
   38.6330   24.5220   42.3210 C   0  0  0  0  0  0  0  0  0  0  0  0
   39.9620   24.7620   42.7670 C   0  0  0  0  0  0  0  0  0  0  0  0
   40.2300   26.0320   43.3430 C   0  0  0  0  0  0  0  0  0  0  0  0
   39.2260   26.9410   43.4400 N   0  0  0  0  0  0  0  0  0  0  0  0
   37.9660   26.6570   42.9940 C   0  0  0  0  0  0  0  0  0  0  0  0
   37.6830   25.4610   42.4440 N   0  0  0  0  0  0  0  0  0  0  0  0
   38.3520   23.2800   41.7530 N   0  0  0  0  0  0  0  0  0  0  0  0
   41.6080   26.3180   43.8200 C   0  0  0  0  0  0  0  0  0  0  0  0
   42.2120   27.2300   42.9780 F   0  0  0  0  0  0  0  0  0  0  0  0
   41.5920   26.8670   45.0870 F   0  0  0  0  0  0  0  0  0  0  0  0
   42.4060   25.1740   43.7550 F   0  0  0  0  0  0  0  0  0  0  0  0
   35.9209   32.3955   39.5051 H   0  0  0  0  0  0  0  0  0  0  0  0
   36.9492   34.5876   38.9265 H   0  0  0  0  0  0  0  0  0  0  0  0
   39.2199   35.1679   39.7765 H   0  0  0  0  0  0  0  0  0  0  0  0
   40.4180   33.5228   41.2110 H   0  0  0  0  0  0  0  0  0  0  0  0
   39.3857   31.3643   41.7760 H   0  0  0  0  0  0  0  0  0  0  0  0
   40.7473   23.9979   42.6701 H   0  0  0  0  0  0  0  0  0  0  0  0
   39.0957   22.5726   41.6677 H   0  0  0  0  0  0  0  0  0  0  0  0
   37.4007   23.0700   41.4187 H   0  0  0  0  0  0  0  0  0  0  0  0
  1 12  1  0
  2  1  2  0
  3  4  1  0
  3  2  1  0
  4  5  2  0
  5  1  1  0
  6  4  1  0
  6 11  1  0
  7  6  2  0
  8  7  1  0
  8  9  2  0
  9 10  1  0
 10 11  2  0
 13 18  2  0
 13 14  1  0
 14 15  2  0
 15 16  1  0
 15 20  1  0
 17 12  1  0
 17 16  2  0
 18 17  1  0
 19 13  1  0
 20 22  1  0
 21 20  1  0
 23 20  1  0
  7 24  1  0
  8 25  1  0
  9 26  1  0
 10 27  1  0
 11 28  1  0
 14 29  1  0
 19 30  1  0
 19 31  1  0
M  ISO  6  24  14  25  14  26  14  27  14  28  14  29  14
M  END
>  <minimizedAffinity>  (1) 
-5.96803713

>  <minimizedRMSD>  (1) 
0.417895496

$$$$
