
     RDKit          3D

 35 38  0  0  1  0  0  0  0  0999 V2000
   37.6300   28.0630   41.7010 C   0  0  1  0  0  0  0  0  0  0  0  0
   36.5320   27.0790   42.1050 C   0  0  0  0  0  0  0  0  0  0  0  0
   36.4650   27.3260   43.6070 C   0  0  0  0  0  0  0  0  0  0  0  0
   37.7920   27.9040   44.0090 C   0  0  0  0  0  0  0  0  0  0  0  0
   38.6590   27.8200   42.7650 C   0  0  2  0  0  0  0  0  0  0  0  0
   37.5560   31.7680   37.7230 C   0  0  0  0  0  0  0  0  0  0  0  0
   37.2590   32.6460   38.7820 C   0  0  0  0  0  0  0  0  0  0  0  0
   37.3120   32.1320   40.0650 C   0  0  0  0  0  0  0  0  0  0  0  0
   37.6440   30.8220   40.2200 N   0  0  0  0  0  0  0  0  0  0  0  0
   37.9210   30.0020   39.2190 C   0  0  0  0  0  0  0  0  0  0  0  0
   37.8770   30.4830   37.9510 N   0  0  0  0  0  0  0  0  0  0  0  0
   38.2610   28.6300   39.3310 N   0  0  0  0  0  0  0  0  0  0  0  0
   38.7790   28.0500   38.2630 N   0  0  0  0  0  0  0  0  0  0  0  0
   39.0190   26.7450   38.5690 C   0  0  0  0  0  0  0  0  0  0  0  0
   38.6180   26.5670   39.8860 C   0  0  0  0  0  0  0  0  0  0  0  0
   38.1350   27.7840   40.3600 C   0  0  0  0  0  0  0  0  0  0  0  0
   39.5830   29.0020   42.7570 C   0  0  0  0  0  0  0  0  0  0  0  0
   39.2180   30.2850   42.9890 N   0  0  0  0  0  0  0  0  0  0  0  0
   40.2630   31.0530   42.9050 O   0  0  0  0  0  0  0  0  0  0  0  0
   41.3290   30.3300   42.6240 C   0  0  0  0  0  0  0  0  0  0  0  0
   40.9110   29.0490   42.5300 N   0  0  0  0  0  0  0  0  0  0  0  0
   37.3002   29.1108   41.6432 H   0  0  0  0  0  0  0  0  0  0  0  0
   35.5766   27.3143   41.6131 H   0  0  0  0  0  0  0  0  0  0  0  0
   36.7310   26.0343   41.8239 H   0  0  0  0  0  0  0  0  0  0  0  0
   35.6567   28.0351   43.8389 H   0  0  0  0  0  0  0  0  0  0  0  0
   36.2580   26.3935   44.1525 H   0  0  0  0  0  0  0  0  0  0  0  0
   37.6758   28.9504   44.3278 H   0  0  0  0  0  0  0  0  0  0  0  0
   38.2363   27.3607   44.8560 H   0  0  0  0  0  0  0  0  0  0  0  0
   39.2482   26.8961   42.6690 H   0  0  0  0  0  0  0  0  0  0  0  0
   37.5248   32.1407   36.6885 H   0  0  0  0  0  0  0  0  0  0  0  0
   36.9955   33.6978   38.5970 H   0  0  0  0  0  0  0  0  0  0  0  0
   37.0916   32.7656   40.9367 H   0  0  0  0  0  0  0  0  0  0  0  0
   39.4469   25.9813   37.9029 H   0  0  0  0  0  0  0  0  0  0  0  0
   38.6723   25.6278   40.4561 H   0  0  0  0  0  0  0  0  0  0  0  0
   42.3572   30.6978   42.4920 H   0  0  0  0  0  0  0  0  0  0  0  0
  1  2  1  0
  1  5  1  0
  2  3  1  0
  3  4  1  0
  5  4  1  0
  6 11  2  0
  6  7  1  0
  7  8  2  0
  8  9  1  0
 10 12  1  0
 10  9  2  0
 11 10  1  0
 12 16  1  0
 13 14  2  0
 13 12  1  0
 14 15  1  0
 15 16  2  0
 16  1  1  0
 17  5  1  0
 17 18  2  0
 19 18  1  0
 20 19  1  0
 21 20  2  0
 21 17  1  0
  1 22  1  6
  2 23  1  0
  2 24  1  0
  3 25  1  0
  3 26  1  0
  4 27  1  0
  4 28  1  0
  5 29  1  6
  6 30  1  0
  7 31  1  0
  8 32  1  0
 14 33  1  0
 15 34  1  0
 20 35  1  0
M  ISO  8  22  13  23  13  24  13  25  13  26  13  27  13  28  13  29  13
M  ISO  6  30  14  31  14  32  14  33  14  34  14  35  14
M  END
>  <minimizedAffinity>  (1) 
-5.10550022

>  <minimizedRMSD>  (1) 
4.7171526

$$$$
