
     RDKit          3D

 33 35  0  0  0  0  0  0  0  0999 V2000
   37.5790   30.0030   42.1520 O   0  0  0  0  0  0  0  0  0  0  0  0
   37.5420   26.4380   41.4680 C   0  0  0  0  0  0  0  0  0  0  0  0
   38.4440   25.9870   42.4530 C   0  0  0  0  0  0  0  0  0  0  0  0
   39.0430   26.9170   43.3270 C   0  0  0  0  0  0  0  0  0  0  0  0
   38.7020   28.2290   43.1590 N   0  0  0  0  0  0  0  0  0  0  0  0
   37.8370   28.6410   42.2110 C   0  0  0  0  0  0  0  0  0  0  0  0
   37.2530   27.7520   41.3630 N   0  0  0  0  0  0  0  0  0  0  0  0
   39.9420   26.4830   44.3100 N   0  0  0  0  0  0  0  0  0  0  0  0
   38.7330   24.5340   42.5330 C   0  0  0  0  0  0  0  0  0  0  0  0
   39.5400   24.2040   43.5910 F   0  0  0  0  0  0  0  0  0  0  0  0
   39.4470   24.1730   41.3870 F   0  0  0  0  0  0  0  0  0  0  0  0
   37.5850   23.7890   42.5220 F   0  0  0  0  0  0  0  0  0  0  0  0
   36.9490   25.5270   40.6030 N   0  0  0  0  0  0  0  0  0  0  0  0
   37.8500   30.7770   41.0360 C   0  0  0  0  0  0  0  0  0  0  0  0
   37.6640   30.7630   39.6980 N   0  0  0  0  0  0  0  0  0  0  0  0
   38.1740   31.8340   39.1770 O   0  0  0  0  0  0  0  0  0  0  0  0
   38.7010   32.5780   40.1140 C   0  0  0  0  0  0  0  0  0  0  0  0
   38.5110   31.9350   41.2910 N   0  0  0  0  0  0  0  0  0  0  0  0
   39.3860   33.8790   39.9650 C   0  0  0  0  0  0  0  0  0  0  0  0
   38.7930   35.0760   40.3120 C   0  0  0  0  0  0  0  0  0  0  0  0
   39.4980   36.2700   40.1510 C   0  0  0  0  0  0  0  0  0  0  0  0
   40.7770   36.2670   39.6510 C   0  0  0  0  0  0  0  0  0  0  0  0
   41.3590   35.0730   39.3070 C   0  0  0  0  0  0  0  0  0  0  0  0
   40.6650   33.8910   39.4650 C   0  0  0  0  0  0  0  0  0  0  0  0
   40.3777   27.1653   44.9468 H   0  0  0  0  0  0  0  0  0  0  0  0
   40.1672   25.4816   44.3959 H   0  0  0  0  0  0  0  0  0  0  0  0
   36.2897   25.8548   39.8827 H   0  0  0  0  0  0  0  0  0  0  0  0
   37.1686   24.5238   40.6819 H   0  0  0  0  0  0  0  0  0  0  0  0
   37.7691   35.0891   40.7138 H   0  0  0  0  0  0  0  0  0  0  0  0
   39.0241   37.2234   40.4276 H   0  0  0  0  0  0  0  0  0  0  0  0
   41.3285   37.2108   39.5277 H   0  0  0  0  0  0  0  0  0  0  0  0
   42.3824   35.0581   38.9039 H   0  0  0  0  0  0  0  0  0  0  0  0
   41.1447   32.9414   39.1855 H   0  0  0  0  0  0  0  0  0  0  0  0
  1  6  1  0
  2  3  2  0
  3  9  1  0
  3  4  1  0
  4  8  1  0
  5  4  2  0
  6  5  1  0
  7  2  1  0
  7  6  2  0
  9 10  1  0
 11  9  1  0
 12  9  1  0
 13  2  1  0
 14 18  1  0
 14  1  1  0
 15 14  2  0
 16 15  1  0
 16 17  1  0
 17 18  2  0
 19 17  1  0
 19 20  2  0
 21 20  1  0
 22 21  2  0
 23 24  2  0
 23 22  1  0
 24 19  1  0
  8 25  1  0
  8 26  1  0
 13 27  1  0
 13 28  1  0
 20 29  1  0
 21 30  1  0
 22 31  1  0
 23 32  1  0
 24 33  1  0
M  ISO  5  29  14  30  14  31  14  32  14  33  14
M  END
>  <minimizedAffinity>  (1) 
-6.58807421

>  <minimizedRMSD>  (1) 
2.59932804

$$$$
