
     RDKit          3D

 39 41  0  0  0  0  0  0  0  0999 V2000
   36.8520   31.5360   40.2870 C   0  0  0  0  0  0  0  0  0  0  0  0
   36.8810   31.8060   38.9720 N   0  0  0  0  0  0  0  0  0  0  0  0
   37.6720   32.8060   38.7550 O   0  0  0  0  0  0  0  0  0  0  0  0
   38.1850   33.2260   39.8880 C   0  0  0  0  0  0  0  0  0  0  0  0
   37.6810   32.4410   40.8680 N   0  0  0  0  0  0  0  0  0  0  0  0
   39.1300   34.3420   40.0780 C   0  0  0  0  0  0  0  0  0  0  0  0
   38.7950   35.6650   39.9960 C   0  0  0  0  0  0  0  0  0  0  0  0
   39.7530   36.6570   40.1890 C   0  0  0  0  0  0  0  0  0  0  0  0
   41.0560   36.3210   40.4660 C   0  0  0  0  0  0  0  0  0  0  0  0
   41.3990   34.9980   40.5500 C   0  0  0  0  0  0  0  0  0  0  0  0
   40.4420   34.0340   40.3560 C   0  0  0  0  0  0  0  0  0  0  0  0
   36.2560   30.6540   41.1790 O   0  0  0  0  0  0  0  0  0  0  0  0
   36.7730   27.1270   40.5630 C   0  0  0  0  0  0  0  0  0  0  0  0
   37.4620   26.7510   41.7320 C   0  0  0  0  0  0  0  0  0  0  0  0
   37.7270   27.7460   42.7100 C   0  0  0  0  0  0  0  0  0  0  0  0
   37.2900   29.0200   42.4430 N   0  0  0  0  0  0  0  0  0  0  0  0
   36.6350   29.3360   41.3110 C   0  0  0  0  0  0  0  0  0  0  0  0
   36.3710   28.4110   40.3690 N   0  0  0  0  0  0  0  0  0  0  0  0
   38.4120   27.4130   43.8940 N   0  0  0  0  0  0  0  0  0  0  0  0
   36.5120   26.1510   39.6020 N   0  0  0  0  0  0  0  0  0  0  0  0
   37.9250   25.3940   42.0110 C   0  0  0  0  0  0  0  0  0  0  0  0
   36.7400   24.4560   42.0150 C   0  0  0  0  0  0  0  0  0  0  0  0
   38.9820   24.8870   41.0630 C   0  0  0  0  0  0  0  0  0  0  0  0
   37.7557   35.9494   39.7748 H   0  0  0  0  0  0  0  0  0  0  0  0
   39.4647   37.7162   40.1192 H   0  0  0  0  0  0  0  0  0  0  0  0
   41.8134   37.1041   40.6182 H   0  0  0  0  0  0  0  0  0  0  0  0
   42.4370   34.7093   40.7720 H   0  0  0  0  0  0  0  0  0  0  0  0
   40.7344   32.9758   40.4253 H   0  0  0  0  0  0  0  0  0  0  0  0
   38.6019   28.1381   44.6004 H   0  0  0  0  0  0  0  0  0  0  0  0
   38.7233   26.4443   44.0538 H   0  0  0  0  0  0  0  0  0  0  0  0
   36.0096   26.4003   38.7381 H   0  0  0  0  0  0  0  0  0  0  0  0
   36.8216   25.1808   39.7560 H   0  0  0  0  0  0  0  0  0  0  0  0
   38.4084   25.4278   42.9985 H   0  0  0  0  0  0  0  0  0  0  0  0
   36.4547   24.2301   43.0531 H   0  0  0  0  0  0  0  0  0  0  0  0
   35.8940   24.9318   41.4974 H   0  0  0  0  0  0  0  0  0  0  0  0
   37.0089   23.5234   41.4974 H   0  0  0  0  0  0  0  0  0  0  0  0
   39.8270   24.4817   41.6389 H   0  0  0  0  0  0  0  0  0  0  0  0
   38.5566   24.0949   40.4292 H   0  0  0  0  0  0  0  0  0  0  0  0
   39.3335   25.7145   40.4292 H   0  0  0  0  0  0  0  0  0  0  0  0
  1  5  1  0
  1 12  1  0
  2  1  2  0
  3  2  1  0
  3  4  1  0
  4  6  1  0
  4  5  2  0
  6 11  1  0
  7  6  2  0
  7  8  1  0
  8  9  2  0
  9 10  1  0
 11 10  2  0
 12 17  1  0
 13 14  2  0
 14 21  1  0
 14 15  1  0
 15 19  1  0
 16 15  2  0
 17 16  1  0
 18 13  1  0
 18 17  2  0
 20 13  1  0
 21 22  1  0
 23 21  1  0
  7 24  1  0
  8 25  1  0
  9 26  1  0
 10 27  1  0
 11 28  1  0
 19 29  1  0
 19 30  1  0
 20 31  1  0
 20 32  1  0
 21 33  1  0
 22 34  1  0
 22 35  1  0
 22 36  1  0
 23 37  1  0
 23 38  1  0
 23 39  1  0
M  ISO  8  24  14  25  14  26  14  27  14  28  14  33   8  34   8  35   8
M  ISO  4  36   8  37   8  38   8  39   8
M  END
>  <minimizedAffinity>  (1) 
-6.2683239

>  <minimizedRMSD>  (1) 
3.35475397

$$$$
