
     RDKit          3D

 32 34  0  0  0  0  0  0  0  0999 V2000
   36.8390   31.4120   40.3520 C   0  0  0  0  0  0  0  0  0  0  0  0
   36.7680   31.6070   39.0160 N   0  0  0  0  0  0  0  0  0  0  0  0
   37.5410   32.5910   38.6820 O   0  0  0  0  0  0  0  0  0  0  0  0
   38.1360   33.0710   39.7520 C   0  0  0  0  0  0  0  0  0  0  0  0
   37.7120   32.3490   40.8070 N   0  0  0  0  0  0  0  0  0  0  0  0
   39.0950   34.1960   39.7970 C   0  0  0  0  0  0  0  0  0  0  0  0
   38.7700   35.4720   40.1350 C   0  0  0  0  0  0  0  0  0  0  0  0
   39.7340   36.4790   40.1540 C   0  0  0  0  0  0  0  0  0  0  0  0
   41.0470   36.1910   39.8240 C   0  0  0  0  0  0  0  0  0  0  0  0
   41.3780   34.9020   39.4820 C   0  0  0  0  0  0  0  0  0  0  0  0
   40.4120   33.9190   39.4690 C   0  0  0  0  0  0  0  0  0  0  0  0
   36.3150   30.5860   41.3260 O   0  0  0  0  0  0  0  0  0  0  0  0
   36.7580   27.0390   40.7150 C   0  0  0  0  0  0  0  0  0  0  0  0
   37.4410   26.6620   41.8900 C   0  0  0  0  0  0  0  0  0  0  0  0
   37.7330   27.6420   42.8660 C   0  0  0  0  0  0  0  0  0  0  0  0
   37.3250   28.9180   42.6020 N   0  0  0  0  0  0  0  0  0  0  0  0
   36.6740   29.2520   41.4720 C   0  0  0  0  0  0  0  0  0  0  0  0
   36.3840   28.3210   40.5210 N   0  0  0  0  0  0  0  0  0  0  0  0
   38.4090   27.2970   44.0400 N   0  0  0  0  0  0  0  0  0  0  0  0
   36.4690   26.0650   39.7470 N   0  0  0  0  0  0  0  0  0  0  0  0
   37.8350   25.2720   42.0770 C   0  0  0  0  0  0  0  0  0  0  0  0
   38.9770   24.9590   41.6980 O   0  0  0  0  0  0  0  0  0  0  0  0
   37.7296   35.7139   40.3978 H   0  0  0  0  0  0  0  0  0  0  0  0
   39.4504   37.5048   40.4319 H   0  0  0  0  0  0  0  0  0  0  0  0
   41.8126   36.9807   39.8353 H   0  0  0  0  0  0  0  0  0  0  0  0
   42.4166   34.6540   39.2179 H   0  0  0  0  0  0  0  0  0  0  0  0
   40.6930   32.8922   39.1921 H   0  0  0  0  0  0  0  0  0  0  0  0
   38.6172   28.0182   44.7453 H   0  0  0  0  0  0  0  0  0  0  0  0
   38.6988   26.3216   44.1997 H   0  0  0  0  0  0  0  0  0  0  0  0
   35.9707   26.3278   38.8847 H   0  0  0  0  0  0  0  0  0  0  0  0
   36.7552   25.0873   39.8988 H   0  0  0  0  0  0  0  0  0  0  0  0
   37.1556   24.5357   42.5311 H   0  0  0  0  0  0  0  0  0  0  0  0
  1  5  1  0
  1 12  1  0
  2  1  2  0
  3  2  1  0
  3  4  1  0
  4  6  1  0
  4  5  2  0
  6  7  2  0
  7  8  1  0
  9  8  2  0
 10  9  1  0
 11 10  2  0
 11  6  1  0
 12 17  1  0
 13 14  2  0
 14 21  1  0
 14 15  1  0
 15 19  1  0
 16 15  2  0
 17 16  1  0
 18 13  1  0
 18 17  2  0
 20 13  1  0
 22 21  2  0
  7 23  1  0
  8 24  1  0
  9 25  1  0
 10 26  1  0
 11 27  1  0
 19 28  1  0
 19 29  1  0
 20 30  1  0
 20 31  1  0
 21 32  1  0
M  ISO  6  23  14  24  14  25  14  26  14  27  14  32   6
M  END
>  <minimizedAffinity>  (1) 
-5.82324362

>  <minimizedRMSD>  (1) 
3.19570756

$$$$
