
     RDKit          3D

 42 44  0  0  0  0  0  0  0  0999 V2000
   36.7580   30.1050   41.8470 O   0  0  0  0  0  0  0  0  0  0  0  0
   37.3110   26.6000   41.0750 C   0  0  0  0  0  0  0  0  0  0  0  0
   38.3360   26.2900   41.9880 C   0  0  0  0  0  0  0  0  0  0  0  0
   38.8090   27.3020   42.8470 C   0  0  0  0  0  0  0  0  0  0  0  0
   38.2370   28.5350   42.7390 N   0  0  0  0  0  0  0  0  0  0  0  0
   37.2480   28.8110   41.8490 C   0  0  0  0  0  0  0  0  0  0  0  0
   36.7820   27.8480   41.0160 N   0  0  0  0  0  0  0  0  0  0  0  0
   39.8230   27.0310   43.7600 N   0  0  0  0  0  0  0  0  0  0  0  0
   38.8260   24.9240   41.9670 C   0  0  0  0  0  0  0  0  0  0  0  0
   37.7060   23.9110   41.6930 C   0  0  0  0  0  0  0  0  0  0  0  0
   39.5830   24.4320   43.1370 C   0  0  0  0  0  0  0  0  0  0  0  0
   39.7750   24.8220   40.7620 C   0  0  0  0  0  0  0  0  0  0  0  0
   36.8200   25.6230   40.2080 N   0  0  0  0  0  0  0  0  0  0  0  0
   37.0030   31.0090   40.8430 C   0  0  0  0  0  0  0  0  0  0  0  0
   36.5870   31.3060   39.6030 N   0  0  0  0  0  0  0  0  0  0  0  0
   37.2410   32.3300   39.1520 O   0  0  0  0  0  0  0  0  0  0  0  0
   38.0980   32.7410   40.0540 C   0  0  0  0  0  0  0  0  0  0  0  0
   37.9670   31.9260   41.1250 N   0  0  0  0  0  0  0  0  0  0  0  0
   39.0330   33.8760   39.9370 C   0  0  0  0  0  0  0  0  0  0  0  0
   38.7180   35.1690   40.2770 C   0  0  0  0  0  0  0  0  0  0  0  0
   39.6750   36.1730   40.1300 C   0  0  0  0  0  0  0  0  0  0  0  0
   40.9390   35.8980   39.6480 C   0  0  0  0  0  0  0  0  0  0  0  0
   41.2470   34.6080   39.3110 C   0  0  0  0  0  0  0  0  0  0  0  0
   40.3070   33.6060   39.4510 C   0  0  0  0  0  0  0  0  0  0  0  0
   40.1650   27.7744   44.3855 H   0  0  0  0  0  0  0  0  0  0  0  0
   40.2318   26.0869   43.8105 H   0  0  0  0  0  0  0  0  0  0  0  0
   37.3011   23.5448   42.6480 H   0  0  0  0  0  0  0  0  0  0  0  0
   36.9046   24.3972   41.1173 H   0  0  0  0  0  0  0  0  0  0  0  0
   38.1096   23.0650   41.1173 H   0  0  0  0  0  0  0  0  0  0  0  0
   39.0824   24.7574   44.0609 H   0  0  0  0  0  0  0  0  0  0  0  0
   39.6256   23.3331   43.1105 H   0  0  0  0  0  0  0  0  0  0  0  0
   40.6045   24.8393   43.1105 H   0  0  0  0  0  0  0  0  0  0  0  0
   40.8097   24.7108   41.1185 H   0  0  0  0  0  0  0  0  0  0  0  0
   39.5012   23.9481   40.1526 H   0  0  0  0  0  0  0  0  0  0  0  0
   39.6932   25.7341   40.1526 H   0  0  0  0  0  0  0  0  0  0  0  0
   36.0697   25.8557   39.5418 H   0  0  0  0  0  0  0  0  0  0  0  0
   37.2079   24.6692   40.2342 H   0  0  0  0  0  0  0  0  0  0  0  0
   37.7168   35.4113   40.6630 H   0  0  0  0  0  0  0  0  0  0  0  0
   39.4169   37.2065   40.4041 H   0  0  0  0  0  0  0  0  0  0  0  0
   41.6838   36.6999   39.5370 H   0  0  0  0  0  0  0  0  0  0  0  0
   42.2492   34.3677   38.9263 H   0  0  0  0  0  0  0  0  0  0  0  0
   40.5714   32.5751   39.1728 H   0  0  0  0  0  0  0  0  0  0  0  0
  1  6  1  0
  2  3  2  0
  3  4  1  0
  4  8  1  0
  5  4  2  0
  6  5  1  0
  7  2  1  0
  7  6  2  0
  9  3  1  0
  9 11  1  0
 10  9  1  0
 12  9  1  0
 13  2  1  0
 14 18  1  0
 14  1  1  0
 15 14  2  0
 16 15  1  0
 16 17  1  0
 17 18  2  0
 19 17  1  0
 19 20  2  0
 21 20  1  0
 22 21  2  0
 23 24  2  0
 23 22  1  0
 24 19  1  0
  8 25  1  0
  8 26  1  0
 10 27  1  0
 10 28  1  0
 10 29  1  0
 11 30  1  0
 11 31  1  0
 11 32  1  0
 12 33  1  0
 12 34  1  0
 12 35  1  0
 13 36  1  0
 13 37  1  0
 20 38  1  0
 21 39  1  0
 22 40  1  0
 23 41  1  0
 24 42  1  0
M  ISO  8  27   8  28   8  29   8  30   8  31   8  32   8  33   8  34   8
M  ISO  6  35   8  38  14  39  14  40  14  41  14  42  14
M  END
>  <minimizedAffinity>  (1) 
-6.47375917

>  <minimizedRMSD>  (1) 
2.65381312

$$$$
