
     RDKit          3D

 58 61  0  0  0  0  0  0  0  0999 V2000
   37.3220   26.6140   41.0650 C   0  0  0  0  0  0  0  0  0  0  0  0
   38.3470   26.3150   41.9860 C   0  0  0  0  0  0  0  0  0  0  0  0
   38.8070   27.3200   42.8420 C   0  0  0  0  0  0  0  0  0  0  0  0
   38.2230   28.5540   42.7300 N   0  0  0  0  0  0  0  0  0  0  0  0
   37.2410   28.8280   41.8420 C   0  0  0  0  0  0  0  0  0  0  0  0
   36.7850   27.8630   41.0060 N   0  0  0  0  0  0  0  0  0  0  0  0
   39.8140   27.0650   43.7540 N   0  0  0  0  0  0  0  0  0  0  0  0
   36.8370   25.6550   40.1890 N   0  0  0  0  0  0  0  0  0  0  0  0
   36.7440   30.1200   41.8420 O   0  0  0  0  0  0  0  0  0  0  0  0
   36.9900   31.0260   40.8400 C   0  0  0  0  0  0  0  0  0  0  0  0
   36.5740   31.3200   39.6020 N   0  0  0  0  0  0  0  0  0  0  0  0
   37.2270   32.3480   39.1560 O   0  0  0  0  0  0  0  0  0  0  0  0
   38.0810   32.7660   40.0560 C   0  0  0  0  0  0  0  0  0  0  0  0
   37.9420   31.9450   41.1170 N   0  0  0  0  0  0  0  0  0  0  0  0
   39.0130   33.9000   39.9460 C   0  0  0  0  0  0  0  0  0  0  0  0
   38.6990   35.1890   40.2970 C   0  0  0  0  0  0  0  0  0  0  0  0
   39.6420   36.1980   40.1600 C   0  0  0  0  0  0  0  0  0  0  0  0
   40.9100   35.9180   39.6670 C   0  0  0  0  0  0  0  0  0  0  0  0
   41.2230   34.6400   39.3170 C   0  0  0  0  0  0  0  0  0  0  0  0
   40.2850   33.6340   39.4530 C   0  0  0  0  0  0  0  0  0  0  0  0
   40.6930   32.2580   39.0530 C   0  0  0  0  0  0  0  0  0  0  0  0
   40.7370   32.1590   37.5370 C   0  0  0  0  0  0  0  0  0  0  0  0
   42.1450   32.2810   37.0050 C   0  0  0  0  0  0  0  0  0  0  0  0
   43.0850   31.2940   37.6530 C   0  0  0  0  0  0  0  0  0  0  0  0
   42.4420   30.5970   38.8340 C   0  0  0  0  0  0  0  0  0  0  0  0
   41.8970   31.7220   39.7200 C   0  0  0  0  0  0  0  0  0  0  0  0
   38.8340   24.9370   41.9510 C   0  0  0  0  0  0  0  0  0  0  0  0
   37.7040   23.9320   41.7170 C   0  0  0  0  0  0  0  0  0  0  0  0
   39.5980   24.4660   43.1400 C   0  0  0  0  0  0  0  0  0  0  0  0
   39.7800   24.8410   40.7600 C   0  0  0  0  0  0  0  0  0  0  0  0
   40.1443   27.8139   44.3793 H   0  0  0  0  0  0  0  0  0  0  0  0
   40.2341   26.1261   43.8083 H   0  0  0  0  0  0  0  0  0  0  0  0
   36.0877   25.8962   39.5247 H   0  0  0  0  0  0  0  0  0  0  0  0
   37.2260   24.7014   40.2025 H   0  0  0  0  0  0  0  0  0  0  0  0
   37.6977   35.4230   40.6878 H   0  0  0  0  0  0  0  0  0  0  0  0
   39.3830   37.2286   40.4443 H   0  0  0  0  0  0  0  0  0  0  0  0
   41.6541   36.7210   39.5604 H   0  0  0  0  0  0  0  0  0  0  0  0
   42.2243   34.4077   38.9253 H   0  0  0  0  0  0  0  0  0  0  0  0
   39.9136   31.5807   39.4322 H   0  0  0  0  0  0  0  0  0  0  0  0
   40.3248   31.1858   37.2321 H   0  0  0  0  0  0  0  0  0  0  0  0
   40.1437   32.9881   37.1240 H   0  0  0  0  0  0  0  0  0  0  0  0
   42.1313   32.0980   35.9204 H   0  0  0  0  0  0  0  0  0  0  0  0
   42.5070   33.2940   37.2347 H   0  0  0  0  0  0  0  0  0  0  0  0
   43.3761   30.5381   36.9087 H   0  0  0  0  0  0  0  0  0  0  0  0
   43.9626   31.8471   38.0188 H   0  0  0  0  0  0  0  0  0  0  0  0
   41.6251   29.9421   38.4968 H   0  0  0  0  0  0  0  0  0  0  0  0
   43.1582   29.9603   39.3740 H   0  0  0  0  0  0  0  0  0  0  0  0
   42.6517   32.5147   39.8296 H   0  0  0  0  0  0  0  0  0  0  0  0
   41.6523   31.3450   40.7240 H   0  0  0  0  0  0  0  0  0  0  0  0
   37.3147   23.5858   42.6858 H   0  0  0  0  0  0  0  0  0  0  0  0
   36.8956   24.4150   41.1485 H   0  0  0  0  0  0  0  0  0  0  0  0
   38.0894   23.0728   41.1485 H   0  0  0  0  0  0  0  0  0  0  0  0
   39.0814   24.7845   44.0575 H   0  0  0  0  0  0  0  0  0  0  0  0
   39.6670   23.3683   43.1202 H   0  0  0  0  0  0  0  0  0  0  0  0
   40.6097   24.8974   43.1202 H   0  0  0  0  0  0  0  0  0  0  0  0
   40.8139   24.7361   41.1205 H   0  0  0  0  0  0  0  0  0  0  0  0
   39.5138   23.9653   40.1499 H   0  0  0  0  0  0  0  0  0  0  0  0
   39.6951   25.7524   40.1499 H   0  0  0  0  0  0  0  0  0  0  0  0
  1  2  2  0
  2  3  1  0
  3  7  1  0
  4  3  2  0
  5  9  1  0
  5  4  1  0
  6  1  1  0
  6  5  2  0
  8  1  1  0
 10 14  1  0
 10  9  1  0
 11 10  2  0
 12 11  1  0
 12 13  1  0
 13 14  2  0
 15 13  1  0
 15 16  2  0
 17 16  1  0
 18 17  2  0
 19 20  2  0
 19 18  1  0
 20 15  1  0
 21 20  1  0
 21 26  1  0
 22 21  1  0
 23 22  1  0
 23 24  1  0
 24 25  1  0
 25 26  1  0
 27  2  1  0
 27 29  1  0
 28 27  1  0
 30 27  1  0
  7 31  1  0
  7 32  1  0
  8 33  1  0
  8 34  1  0
 16 35  1  0
 17 36  1  0
 18 37  1  0
 19 38  1  0
 21 39  1  0
 22 40  1  0
 22 41  1  0
 23 42  1  0
 23 43  1  0
 24 44  1  0
 24 45  1  0
 25 46  1  0
 25 47  1  0
 26 48  1  0
 26 49  1  0
 28 50  1  0
 28 51  1  0
 28 52  1  0
 29 53  1  0
 29 54  1  0
 29 55  1  0
 30 56  1  0
 30 57  1  0
 30 58  1  0
M  ISO  8  35  14  36  14  37  14  38  14  39  13  40  13  41  13  42  13
M  ISO  8  43  13  44  13  45  13  46  13  47  13  48  13  49  13  50   8
M  ISO  8  51   8  52   8  53   8  54   8  55   8  56   8  57   8  58   8
M  END
>  <minimizedAffinity>  (1) 
-7.11788559

>  <minimizedRMSD>  (1) 
0.380992353

$$$$
