
     RDKit          3D

 51 54  0  0  0  0  0  0  0  0999 V2000
   37.3020   26.6410   41.0650 C   0  0  0  0  0  0  0  0  0  0  0  0
   38.3330   26.3570   41.9740 C   0  0  0  0  0  0  0  0  0  0  0  0
   38.8130   27.3840   42.8060 C   0  0  0  0  0  0  0  0  0  0  0  0
   38.2330   28.6140   42.6740 N   0  0  0  0  0  0  0  0  0  0  0  0
   37.2410   28.8750   41.7950 C   0  0  0  0  0  0  0  0  0  0  0  0
   36.7690   27.8910   40.9850 N   0  0  0  0  0  0  0  0  0  0  0  0
   39.8290   27.1340   43.7070 N   0  0  0  0  0  0  0  0  0  0  0  0
   36.7890   25.6730   40.2150 N   0  0  0  0  0  0  0  0  0  0  0  0
   36.7500   30.1700   41.7720 O   0  0  0  0  0  0  0  0  0  0  0  0
   37.0290   31.0700   40.7600 C   0  0  0  0  0  0  0  0  0  0  0  0
   36.6690   31.3510   39.5050 N   0  0  0  0  0  0  0  0  0  0  0  0
   37.3340   32.3780   39.0800 O   0  0  0  0  0  0  0  0  0  0  0  0
   38.1450   32.8080   40.0140 C   0  0  0  0  0  0  0  0  0  0  0  0
   37.9720   32.0020   41.0790 N   0  0  0  0  0  0  0  0  0  0  0  0
   39.0690   33.9520   39.9190 C   0  0  0  0  0  0  0  0  0  0  0  0
   38.7570   35.2220   40.3320 C   0  0  0  0  0  0  0  0  0  0  0  0
   39.7080   36.2370   40.1980 C   0  0  0  0  0  0  0  0  0  0  0  0
   40.9510   36.0000   39.6650 C   0  0  0  0  0  0  0  0  0  0  0  0
   41.2510   34.7320   39.2570 C   0  0  0  0  0  0  0  0  0  0  0  0
   40.3330   33.7070   39.3760 C   0  0  0  0  0  0  0  0  0  0  0  0
   40.7700   32.3930   38.9040 C   0  0  0  0  0  0  0  0  0  0  0  0
   40.6740   31.8520   37.6340 C   0  0  0  0  0  0  0  0  0  0  0  0
   41.1650   30.5680   37.4320 C   0  0  0  0  0  0  0  0  0  0  0  0
   41.7270   29.8730   38.4760 C   0  0  0  0  0  0  0  0  0  0  0  0
   41.8150   30.4300   39.7430 C   0  0  0  0  0  0  0  0  0  0  0  0
   41.3310   31.6590   39.8820 N   0  0  0  0  0  0  0  0  0  0  0  0
   38.8140   24.9780   41.9580 C   0  0  0  0  0  0  0  0  0  0  0  0
   37.6820   23.9770   41.7540 C   0  0  0  0  0  0  0  0  0  0  0  0
   39.5980   24.5370   43.1450 C   0  0  0  0  0  0  0  0  0  0  0  0
   39.7510   24.8530   40.7600 C   0  0  0  0  0  0  0  0  0  0  0  0
   40.1767   27.8901   44.3140 H   0  0  0  0  0  0  0  0  0  0  0  0
   40.2392   26.1915   43.7721 H   0  0  0  0  0  0  0  0  0  0  0  0
   36.0321   25.9126   39.5588 H   0  0  0  0  0  0  0  0  0  0  0  0
   37.1648   24.7143   40.2398 H   0  0  0  0  0  0  0  0  0  0  0  0
   37.7690   35.4392   40.7640 H   0  0  0  0  0  0  0  0  0  0  0  0
   39.4536   37.2547   40.5289 H   0  0  0  0  0  0  0  0  0  0  0  0
   41.6871   36.8118   39.5690 H   0  0  0  0  0  0  0  0  0  0  0  0
   42.2412   34.5232   38.8259 H   0  0  0  0  0  0  0  0  0  0  0  0
   40.2222   32.4217   36.8086 H   0  0  0  0  0  0  0  0  0  0  0  0
   41.1038   30.1071   36.4351 H   0  0  0  0  0  0  0  0  0  0  0  0
   42.1136   28.8577   38.3037 H   0  0  0  0  0  0  0  0  0  0  0  0
   42.2614   29.8836   40.5869 H   0  0  0  0  0  0  0  0  0  0  0  0
   37.3059   23.6444   42.7327 H   0  0  0  0  0  0  0  0  0  0  0  0
   36.8668   24.4551   41.1911 H   0  0  0  0  0  0  0  0  0  0  0  0
   38.0567   23.1094   41.1911 H   0  0  0  0  0  0  0  0  0  0  0  0
   39.0706   24.8337   44.0636 H   0  0  0  0  0  0  0  0  0  0  0  0
   39.7109   23.4430   43.1240 H   0  0  0  0  0  0  0  0  0  0  0  0
   40.5916   25.0086   43.1240 H   0  0  0  0  0  0  0  0  0  0  0  0
   40.7831   24.7153   41.1146 H   0  0  0  0  0  0  0  0  0  0  0  0
   39.4539   23.9865   40.1509 H   0  0  0  0  0  0  0  0  0  0  0  0
   39.6914   25.7671   40.1509 H   0  0  0  0  0  0  0  0  0  0  0  0
  1  2  2  0
  2  3  1  0
  3  7  1  0
  4  3  2  0
  5  4  1  0
  6  1  1  0
  6  5  2  0
  8  1  1  0
  9  5  1  0
 10 14  1  0
 10  9  1  0
 11 10  2  0
 12 11  1  0
 12 13  1  0
 13 14  2  0
 15 13  1  0
 15 16  2  0
 17 16  1  0
 18 17  2  0
 19 20  2  0
 19 18  1  0
 20 15  1  0
 21 20  1  0
 21 26  1  0
 22 21  2  0
 23 22  1  0
 23 24  2  0
 24 25  1  0
 25 26  2  0
 27  2  1  0
 27 29  1  0
 28 27  1  0
 30 27  1  0
  7 31  1  0
  7 32  1  0
  8 33  1  0
  8 34  1  0
 16 35  1  0
 17 36  1  0
 18 37  1  0
 19 38  1  0
 22 39  1  0
 23 40  1  0
 24 41  1  0
 25 42  1  0
 28 43  1  0
 28 44  1  0
 28 45  1  0
 29 46  1  0
 29 47  1  0
 29 48  1  0
 30 49  1  0
 30 50  1  0
 30 51  1  0
M  ISO  8  35  14  36  14  37  14  38  14  39  14  40  14  41  14  42  14
M  ISO  8  43   8  44   8  45   8  46   8  47   8  48   8  49   8  50   8
M  ISO  1  51   8
M  END
>  <minimizedAffinity>  (1) 
-6.99480295

>  <minimizedRMSD>  (1) 
0.466198444

$$$$
