
     RDKit          3D

 49 52  0  0  0  0  0  0  0  0999 V2000
   37.2970   26.6570   41.0780 C   0  0  0  0  0  0  0  0  0  0  0  0
   38.3380   26.3890   41.9780 C   0  0  0  0  0  0  0  0  0  0  0  0
   38.8230   27.4140   42.7940 C   0  0  0  0  0  0  0  0  0  0  0  0
   38.2300   28.6450   42.6500 N   0  0  0  0  0  0  0  0  0  0  0  0
   37.2300   28.8910   41.7790 C   0  0  0  0  0  0  0  0  0  0  0  0
   36.7590   27.9050   40.9900 N   0  0  0  0  0  0  0  0  0  0  0  0
   39.8490   27.1850   43.6890 N   0  0  0  0  0  0  0  0  0  0  0  0
   36.7720   25.6760   40.2320 N   0  0  0  0  0  0  0  0  0  0  0  0
   36.7410   30.1830   41.7540 O   0  0  0  0  0  0  0  0  0  0  0  0
   37.0280   31.0840   40.7490 C   0  0  0  0  0  0  0  0  0  0  0  0
   36.6700   31.3670   39.4860 N   0  0  0  0  0  0  0  0  0  0  0  0
   37.3390   32.3920   39.0580 O   0  0  0  0  0  0  0  0  0  0  0  0
   38.1460   32.8200   39.9940 C   0  0  0  0  0  0  0  0  0  0  0  0
   37.9670   32.0100   41.0670 N   0  0  0  0  0  0  0  0  0  0  0  0
   39.0740   33.9610   39.9070 C   0  0  0  0  0  0  0  0  0  0  0  0
   38.7690   35.2340   40.3290 C   0  0  0  0  0  0  0  0  0  0  0  0
   39.7160   36.2450   40.2050 C   0  0  0  0  0  0  0  0  0  0  0  0
   40.9630   36.0050   39.6660 C   0  0  0  0  0  0  0  0  0  0  0  0
   41.2590   34.7360   39.2480 C   0  0  0  0  0  0  0  0  0  0  0  0
   40.3280   33.7230   39.3660 C   0  0  0  0  0  0  0  0  0  0  0  0
   40.7690   32.4430   38.8890 N   0  0  0  0  0  0  0  0  0  0  0  0
   40.6950   32.1390   37.5800 C   0  0  0  0  0  0  0  0  0  0  0  0
   41.1940   30.8550   37.4870 C   0  0  0  0  0  0  0  0  0  0  0  0
   41.5530   30.4130   38.7080 N   0  0  0  0  0  0  0  0  0  0  0  0
   41.2880   31.4040   39.5880 C   0  0  0  0  0  0  0  0  0  0  0  0
   38.8270   25.0110   41.9660 C   0  0  0  0  0  0  0  0  0  0  0  0
   37.6880   23.9950   41.7850 C   0  0  0  0  0  0  0  0  0  0  0  0
   39.6100   24.5680   43.1530 C   0  0  0  0  0  0  0  0  0  0  0  0
   39.7450   24.8660   40.7630 C   0  0  0  0  0  0  0  0  0  0  0  0
   40.1948   27.9519   44.2833 H   0  0  0  0  0  0  0  0  0  0  0  0
   40.2687   26.2472   43.7624 H   0  0  0  0  0  0  0  0  0  0  0  0
   36.0068   25.9108   39.5837 H   0  0  0  0  0  0  0  0  0  0  0  0
   37.1503   24.7183   40.2569 H   0  0  0  0  0  0  0  0  0  0  0  0
   37.7815   35.4513   40.7622 H   0  0  0  0  0  0  0  0  0  0  0  0
   39.4646   37.2605   40.5449 H   0  0  0  0  0  0  0  0  0  0  0  0
   41.7020   36.8146   39.5744 H   0  0  0  0  0  0  0  0  0  0  0  0
   42.2468   34.5211   38.8144 H   0  0  0  0  0  0  0  0  0  0  0  0
   40.3196   32.7738   36.7639 H   0  0  0  0  0  0  0  0  0  0  0  0
   41.2849   30.2786   36.5545 H   0  0  0  0  0  0  0  0  0  0  0  0
   41.4618   31.3731   40.6737 H   0  0  0  0  0  0  0  0  0  0  0  0
   37.3251   23.6713   42.7717 H   0  0  0  0  0  0  0  0  0  0  0  0
   36.8640   24.4635   41.2269 H   0  0  0  0  0  0  0  0  0  0  0  0
   38.0597   23.1230   41.2269 H   0  0  0  0  0  0  0  0  0  0  0  0
   39.0834   24.8659   44.0716 H   0  0  0  0  0  0  0  0  0  0  0  0
   39.7202   23.4737   43.1320 H   0  0  0  0  0  0  0  0  0  0  0  0
   40.6047   25.0371   43.1320 H   0  0  0  0  0  0  0  0  0  0  0  0
   40.7771   24.7030   41.1069 H   0  0  0  0  0  0  0  0  0  0  0  0
   39.4210   24.0079   40.1558 H   0  0  0  0  0  0  0  0  0  0  0  0
   39.7012   25.7822   40.1558 H   0  0  0  0  0  0  0  0  0  0  0  0
  1  2  2  0
  2  3  1  0
  3  7  1  0
  4  3  2  0
  5  4  1  0
  6  1  1  0
  6  5  2  0
  8  1  1  0
  9  5  1  0
 10 14  1  0
 10  9  1  0
 11 10  2  0
 12 11  1  0
 12 13  1  0
 13 14  2  0
 15 13  1  0
 15 16  2  0
 17 16  1  0
 18 17  2  0
 19 20  2  0
 19 18  1  0
 20 15  1  0
 21 20  1  0
 21 25  1  0
 22 21  1  0
 23 22  2  0
 23 24  1  0
 24 25  2  0
 26  2  1  0
 26 28  1  0
 27 26  1  0
 29 26  1  0
  7 30  1  0
  7 31  1  0
  8 32  1  0
  8 33  1  0
 16 34  1  0
 17 35  1  0
 18 36  1  0
 19 37  1  0
 22 38  1  0
 23 39  1  0
 25 40  1  0
 27 41  1  0
 27 42  1  0
 27 43  1  0
 28 44  1  0
 28 45  1  0
 28 46  1  0
 29 47  1  0
 29 48  1  0
 29 49  1  0
M  ISO  8  34  14  35  14  36  14  37  14  38  14  39  14  40  14  41   8
M  ISO  8  42   8  43   8  44   8  45   8  46   8  47   8  48   8  49   8
M  END
>  <minimizedAffinity>  (1) 
-6.9355607

>  <minimizedRMSD>  (1) 
0.340486258

$$$$
