
     RDKit          3D

 51 53  0  0  0  0  0  0  0  0999 V2000
   37.3240   26.6010   41.0780 C   0  0  0  0  0  0  0  0  0  0  0  0
   38.3530   26.3050   41.9840 C   0  0  0  0  0  0  0  0  0  0  0  0
   38.8190   27.3170   42.8300 C   0  0  0  0  0  0  0  0  0  0  0  0
   38.2310   28.5510   42.7170 N   0  0  0  0  0  0  0  0  0  0  0  0
   37.2440   28.8200   41.8410 C   0  0  0  0  0  0  0  0  0  0  0  0
   36.7810   27.8520   41.0160 N   0  0  0  0  0  0  0  0  0  0  0  0
   39.8350   27.0640   43.7370 N   0  0  0  0  0  0  0  0  0  0  0  0
   36.8090   25.6470   40.2060 N   0  0  0  0  0  0  0  0  0  0  0  0
   36.7460   30.1110   41.8380 O   0  0  0  0  0  0  0  0  0  0  0  0
   36.9990   31.0200   40.8340 C   0  0  0  0  0  0  0  0  0  0  0  0
   36.5890   31.3210   39.5980 N   0  0  0  0  0  0  0  0  0  0  0  0
   37.2480   32.3450   39.1510 O   0  0  0  0  0  0  0  0  0  0  0  0
   38.1060   32.7530   40.0560 C   0  0  0  0  0  0  0  0  0  0  0  0
   37.9670   31.9370   41.1200 N   0  0  0  0  0  0  0  0  0  0  0  0
   39.0430   33.8840   39.9390 C   0  0  0  0  0  0  0  0  0  0  0  0
   38.7440   35.1650   40.3350 C   0  0  0  0  0  0  0  0  0  0  0  0
   39.6950   36.1720   40.1840 C   0  0  0  0  0  0  0  0  0  0  0  0
   40.9300   35.9150   39.6480 C   0  0  0  0  0  0  0  0  0  0  0  0
   41.2230   34.6380   39.2560 C   0  0  0  0  0  0  0  0  0  0  0  0
   40.2930   33.6260   39.3960 C   0  0  0  0  0  0  0  0  0  0  0  0
   40.6250   32.2380   38.9650 C   0  0  0  0  0  0  0  0  0  0  0  0
   41.9430   31.8500   39.6210 C   0  0  0  0  0  0  0  0  0  0  0  0
   40.8570   32.2930   37.4670 C   0  0  0  0  0  0  0  0  0  0  0  0
   38.8410   24.9310   41.9490 C   0  0  0  0  0  0  0  0  0  0  0  0
   37.7130   23.9250   41.7110 C   0  0  0  0  0  0  0  0  0  0  0  0
   39.6070   24.4690   43.1360 C   0  0  0  0  0  0  0  0  0  0  0  0
   39.7860   24.8320   40.7580 C   0  0  0  0  0  0  0  0  0  0  0  0
   40.1717   27.8153   44.3559 H   0  0  0  0  0  0  0  0  0  0  0  0
   40.2537   26.1246   43.7925 H   0  0  0  0  0  0  0  0  0  0  0  0
   36.0530   25.9001   39.5539 H   0  0  0  0  0  0  0  0  0  0  0  0
   37.1838   24.6876   40.2126 H   0  0  0  0  0  0  0  0  0  0  0  0
   37.7595   35.3944   40.7688 H   0  0  0  0  0  0  0  0  0  0  0  0
   39.4492   37.1959   40.5020 H   0  0  0  0  0  0  0  0  0  0  0  0
   41.6710   36.7201   39.5353 H   0  0  0  0  0  0  0  0  0  0  0  0
   42.2098   34.4142   38.8246 H   0  0  0  0  0  0  0  0  0  0  0  0
   39.8300   31.5263   39.2323 H   0  0  0  0  0  0  0  0  0  0  0  0
   41.8317   31.8828   40.7149 H   0  0  0  0  0  0  0  0  0  0  0  0
   42.2211   30.8319   39.3110 H   0  0  0  0  0  0  0  0  0  0  0  0
   42.7284   32.5550   39.3110 H   0  0  0  0  0  0  0  0  0  0  0  0
   41.9097   32.5426   37.2679 H   0  0  0  0  0  0  0  0  0  0  0  0
   40.6220   31.3142   37.0234 H   0  0  0  0  0  0  0  0  0  0  0  0
   40.2076   33.0621   37.0234 H   0  0  0  0  0  0  0  0  0  0  0  0
   37.3223   23.5765   42.6784 H   0  0  0  0  0  0  0  0  0  0  0  0
   36.9051   24.4079   41.1417 H   0  0  0  0  0  0  0  0  0  0  0  0
   38.1007   23.0673   41.1417 H   0  0  0  0  0  0  0  0  0  0  0  0
   39.0867   24.7828   44.0530 H   0  0  0  0  0  0  0  0  0  0  0  0
   39.6867   23.3721   43.1167 H   0  0  0  0  0  0  0  0  0  0  0  0
   40.6144   24.9102   43.1167 H   0  0  0  0  0  0  0  0  0  0  0  0
   40.8197   24.7237   41.1182 H   0  0  0  0  0  0  0  0  0  0  0  0
   39.5167   23.9572   40.1480 H   0  0  0  0  0  0  0  0  0  0  0  0
   39.7039   25.7437   40.1480 H   0  0  0  0  0  0  0  0  0  0  0  0
  1  2  2  0
  2  3  1  0
  3  7  1  0
  4  3  2  0
  5  4  1  0
  6  1  1  0
  6  5  2  0
  8  1  1  0
  9  5  1  0
 10 14  1  0
 10  9  1  0
 11 10  2  0
 12 11  1  0
 12 13  1  0
 13 14  2  0
 15 13  1  0
 15 16  2  0
 17 16  1  0
 18 17  2  0
 19 20  2  0
 19 18  1  0
 20 15  1  0
 21 20  1  0
 21 22  1  0
 23 21  1  0
 24  2  1  0
 24 26  1  0
 25 24  1  0
 27 24  1  0
  7 28  1  0
  7 29  1  0
  8 30  1  0
  8 31  1  0
 16 32  1  0
 17 33  1  0
 18 34  1  0
 19 35  1  0
 21 36  1  0
 22 37  1  0
 22 38  1  0
 22 39  1  0
 23 40  1  0
 23 41  1  0
 23 42  1  0
 25 43  1  0
 25 44  1  0
 25 45  1  0
 26 46  1  0
 26 47  1  0
 26 48  1  0
 27 49  1  0
 27 50  1  0
 27 51  1  0
M  ISO  8  32  14  33  14  34  14  35  14  36   8  37   8  38   8  39   8
M  ISO  8  40   8  41   8  42   8  43   8  44   8  45   8  46   8  47   8
M  ISO  4  48   8  49   8  50   8  51   8
M  END
>  <minimizedAffinity>  (1) 
-6.71562147

>  <minimizedRMSD>  (1) 
0.496520281

$$$$
