
     RDKit          3D

 43 45  0  0  0  0  0  0  0  0999 V2000
   37.3310   26.5870   41.0750 C   0  0  0  0  0  0  0  0  0  0  0  0
   38.3560   26.2870   41.9860 C   0  0  0  0  0  0  0  0  0  0  0  0
   38.8150   27.2870   42.8500 C   0  0  0  0  0  0  0  0  0  0  0  0
   38.2220   28.5210   42.7480 N   0  0  0  0  0  0  0  0  0  0  0  0
   37.2380   28.7960   41.8690 C   0  0  0  0  0  0  0  0  0  0  0  0
   36.7850   27.8380   41.0280 N   0  0  0  0  0  0  0  0  0  0  0  0
   39.8230   27.0300   43.7600 N   0  0  0  0  0  0  0  0  0  0  0  0
   36.8310   25.6400   40.1890 N   0  0  0  0  0  0  0  0  0  0  0  0
   36.7380   30.0870   41.8840 O   0  0  0  0  0  0  0  0  0  0  0  0
   36.9710   31.0030   40.8810 C   0  0  0  0  0  0  0  0  0  0  0  0
   36.5320   31.3180   39.6580 N   0  0  0  0  0  0  0  0  0  0  0  0
   37.1850   32.3410   39.2040 O   0  0  0  0  0  0  0  0  0  0  0  0
   38.0660   32.7360   40.0910 C   0  0  0  0  0  0  0  0  0  0  0  0
   37.9510   31.9100   41.1560 N   0  0  0  0  0  0  0  0  0  0  0  0
   39.0030   33.8620   39.9600 C   0  0  0  0  0  0  0  0  0  0  0  0
   38.6800   35.1730   40.2070 C   0  0  0  0  0  0  0  0  0  0  0  0
   39.6390   36.1640   40.0530 C   0  0  0  0  0  0  0  0  0  0  0  0
   40.9280   35.8690   39.6530 C   0  0  0  0  0  0  0  0  0  0  0  0
   41.2500   34.5650   39.4070 C   0  0  0  0  0  0  0  0  0  0  0  0
   40.3010   33.5640   39.5560 C   0  0  0  0  0  0  0  0  0  0  0  0
   40.6920   32.2490   39.2900 O   0  0  0  0  0  0  0  0  0  0  0  0
   38.8530   24.9130   41.9370 C   0  0  0  0  0  0  0  0  0  0  0  0
   37.7280   23.9080   41.6800 C   0  0  0  0  0  0  0  0  0  0  0  0
   39.6080   24.4350   43.1240 C   0  0  0  0  0  0  0  0  0  0  0  0
   39.8070   24.8380   40.7520 C   0  0  0  0  0  0  0  0  0  0  0  0
   40.1507   27.7762   44.3899 H   0  0  0  0  0  0  0  0  0  0  0  0
   40.2465   26.0923   43.8083 H   0  0  0  0  0  0  0  0  0  0  0  0
   36.0782   25.8946   39.5338 H   0  0  0  0  0  0  0  0  0  0  0  0
   37.2133   24.6836   40.1876 H   0  0  0  0  0  0  0  0  0  0  0  0
   37.6614   35.4379   40.5269 H   0  0  0  0  0  0  0  0  0  0  0  0
   39.3661   37.2104   40.2544 H   0  0  0  0  0  0  0  0  0  0  0  0
   41.6773   36.6657   39.5355 H   0  0  0  0  0  0  0  0  0  0  0  0
   42.2704   34.3060   39.0880 H   0  0  0  0  0  0  0  0  0  0  0  0
   40.0405   31.5098   39.3861 H   0  0  0  0  0  0  0  0  0  0  0  0
   37.3285   23.5512   42.6408 H   0  0  0  0  0  0  0  0  0  0  0  0
   36.9250   24.3950   41.1072 H   0  0  0  0  0  0  0  0  0  0  0  0
   38.1217   23.0554   41.1072 H   0  0  0  0  0  0  0  0  0  0  0  0
   39.0943   24.7602   44.0407 H   0  0  0  0  0  0  0  0  0  0  0  0
   39.6639   23.3366   43.1051 H   0  0  0  0  0  0  0  0  0  0  0  0
   40.6248   24.8543   43.1051 H   0  0  0  0  0  0  0  0  0  0  0  0
   40.8410   24.7567   41.1183 H   0  0  0  0  0  0  0  0  0  0  0  0
   39.5641   23.9562   40.1409 H   0  0  0  0  0  0  0  0  0  0  0  0
   39.7049   25.7469   40.1409 H   0  0  0  0  0  0  0  0  0  0  0  0
  1  2  2  0
  2  3  1  0
  3  7  1  0
  4  3  2  0
  5  9  1  0
  5  4  1  0
  6  1  1  0
  6  5  2  0
  8  1  1  0
 10 14  1  0
 10  9  1  0
 11 10  2  0
 12 11  1  0
 12 13  1  0
 13 14  2  0
 15 13  1  0
 15 16  2  0
 17 16  1  0
 18 17  2  0
 19 20  2  0
 19 18  1  0
 20 15  1  0
 21 20  1  0
 22  2  1  0
 22 24  1  0
 23 22  1  0
 25 22  1  0
  7 26  1  0
  7 27  1  0
  8 28  1  0
  8 29  1  0
 16 30  1  0
 17 31  1  0
 18 32  1  0
 19 33  1  0
 21 34  1  0
 23 35  1  0
 23 36  1  0
 23 37  1  0
 24 38  1  0
 24 39  1  0
 24 40  1  0
 25 41  1  0
 25 42  1  0
 25 43  1  0
M  ISO  8  30  14  31  14  32  14  33  14  34   3  35   8  36   8  37   8
M  ISO  6  38   8  39   8  40   8  41   8  42   8  43   8
M  END
>  <minimizedAffinity>  (1) 
-6.60104656

>  <minimizedRMSD>  (1) 
0.0655095056

$$$$
