
     RDKit          3D

 43 45  0  0  0  0  0  0  0  0999 V2000
   37.3240   26.5920   41.0790 C   0  0  0  0  0  0  0  0  0  0  0  0
   38.3550   26.2930   41.9770 C   0  0  0  0  0  0  0  0  0  0  0  0
   38.8320   27.3110   42.8240 C   0  0  0  0  0  0  0  0  0  0  0  0
   38.2440   28.5470   42.7100 N   0  0  0  0  0  0  0  0  0  0  0  0
   37.2520   28.8160   41.8380 C   0  0  0  0  0  0  0  0  0  0  0  0
   36.7850   27.8440   41.0180 N   0  0  0  0  0  0  0  0  0  0  0  0
   39.8510   27.0580   43.7240 N   0  0  0  0  0  0  0  0  0  0  0  0
   36.8080   25.6380   40.2090 N   0  0  0  0  0  0  0  0  0  0  0  0
   36.7600   30.1080   41.8390 O   0  0  0  0  0  0  0  0  0  0  0  0
   37.0120   31.0150   40.8330 C   0  0  0  0  0  0  0  0  0  0  0  0
   36.6070   31.3100   39.5920 N   0  0  0  0  0  0  0  0  0  0  0  0
   37.2630   32.3370   39.1470 O   0  0  0  0  0  0  0  0  0  0  0  0
   38.1090   32.7540   40.0530 C   0  0  0  0  0  0  0  0  0  0  0  0
   37.9680   31.9380   41.1210 N   0  0  0  0  0  0  0  0  0  0  0  0
   39.0380   33.8920   39.9410 C   0  0  0  0  0  0  0  0  0  0  0  0
   38.7250   35.1800   40.2880 C   0  0  0  0  0  0  0  0  0  0  0  0
   39.6770   36.1880   40.1450 C   0  0  0  0  0  0  0  0  0  0  0  0
   40.9340   35.9220   39.6610 C   0  0  0  0  0  0  0  0  0  0  0  0
   41.2460   34.6430   39.3160 C   0  0  0  0  0  0  0  0  0  0  0  0
   40.3100   33.6320   39.4530 C   0  0  0  0  0  0  0  0  0  0  0  0
   40.8540   31.9870   38.9610 S   0  0  0  0  0  0  0  0  0  0  0  0
   38.8410   24.9230   41.9480 C   0  0  0  0  0  0  0  0  0  0  0  0
   37.7080   23.9200   41.7100 C   0  0  0  0  0  0  0  0  0  0  0  0
   39.5950   24.4560   43.1410 C   0  0  0  0  0  0  0  0  0  0  0  0
   39.7900   24.8180   40.7620 C   0  0  0  0  0  0  0  0  0  0  0  0
   40.1930   27.8098   44.3395 H   0  0  0  0  0  0  0  0  0  0  0  0
   40.2680   26.1178   43.7789 H   0  0  0  0  0  0  0  0  0  0  0  0
   36.0489   25.8899   39.5599 H   0  0  0  0  0  0  0  0  0  0  0  0
   37.1848   24.6794   40.2136 H   0  0  0  0  0  0  0  0  0  0  0  0
   37.7246   35.4180   40.6786 H   0  0  0  0  0  0  0  0  0  0  0  0
   39.4156   37.2189   40.4260 H   0  0  0  0  0  0  0  0  0  0  0  0
   41.6752   36.7277   39.5541 H   0  0  0  0  0  0  0  0  0  0  0  0
   42.2480   34.4110   38.9259 H   0  0  0  0  0  0  0  0  0  0  0  0
   41.1027   31.2349   40.0788 H   0  0  0  0  0  0  0  0  0  0  0  0
   37.3161   23.5731   42.6775 H   0  0  0  0  0  0  0  0  0  0  0  0
   36.9018   24.4058   41.1408 H   0  0  0  0  0  0  0  0  0  0  0  0
   38.0924   23.0608   41.1408 H   0  0  0  0  0  0  0  0  0  0  0  0
   39.0734   24.7791   44.0540 H   0  0  0  0  0  0  0  0  0  0  0  0
   39.6618   23.3581   43.1259 H   0  0  0  0  0  0  0  0  0  0  0  0
   40.6077   24.8852   43.1259 H   0  0  0  0  0  0  0  0  0  0  0  0
   40.8215   24.7039   41.1267 H   0  0  0  0  0  0  0  0  0  0  0  0
   39.5183   23.9444   40.1512 H   0  0  0  0  0  0  0  0  0  0  0  0
   39.7158   25.7298   40.1512 H   0  0  0  0  0  0  0  0  0  0  0  0
  1  2  2  0
  2  3  1  0
  3  7  1  0
  4  3  2  0
  5  9  1  0
  5  4  1  0
  6  1  1  0
  6  5  2  0
  8  1  1  0
 10 14  1  0
 10  9  1  0
 11 10  2  0
 12 11  1  0
 12 13  1  0
 13 14  2  0
 15 13  1  0
 15 16  2  0
 17 16  1  0
 18 17  2  0
 19 20  2  0
 19 18  1  0
 20 15  1  0
 21 20  1  0
 22  2  1  0
 22 24  1  0
 23 22  1  0
 25 22  1  0
  7 26  1  0
  7 27  1  0
  8 28  1  0
  8 29  1  0
 16 30  1  0
 17 31  1  0
 18 32  1  0
 19 33  1  0
 21 34  1  0
 23 35  1  0
 23 36  1  0
 23 37  1  0
 24 38  1  0
 24 39  1  0
 24 40  1  0
 25 41  1  0
 25 42  1  0
 25 43  1  0
M  ISO  8  30  14  31  14  32  14  33  14  34  11  35   8  36   8  37   8
M  ISO  6  38   8  39   8  40   8  41   8  42   8  43   8
M  END
>  <minimizedAffinity>  (1) 
-6.59585381

>  <minimizedRMSD>  (1) 
0.0245571192

$$$$
