
     RDKit          3D

 44 46  0  0  0  0  0  0  0  0999 V2000
   37.3190   26.6170   41.0750 C   0  0  0  0  0  0  0  0  0  0  0  0
   38.3580   26.3280   41.9760 C   0  0  0  0  0  0  0  0  0  0  0  0
   38.8430   27.3410   42.8090 C   0  0  0  0  0  0  0  0  0  0  0  0
   38.2610   28.5790   42.6910 N   0  0  0  0  0  0  0  0  0  0  0  0
   37.2620   28.8460   41.8220 C   0  0  0  0  0  0  0  0  0  0  0  0
   36.7840   27.8680   41.0090 N   0  0  0  0  0  0  0  0  0  0  0  0
   39.8670   27.1000   43.7020 N   0  0  0  0  0  0  0  0  0  0  0  0
   36.8040   25.6550   40.2190 N   0  0  0  0  0  0  0  0  0  0  0  0
   36.7730   30.1410   41.8160 O   0  0  0  0  0  0  0  0  0  0  0  0
   37.0370   31.0450   40.8060 C   0  0  0  0  0  0  0  0  0  0  0  0
   36.6440   31.3350   39.5590 N   0  0  0  0  0  0  0  0  0  0  0  0
   37.3030   32.3580   39.1130 O   0  0  0  0  0  0  0  0  0  0  0  0
   38.1360   32.7760   40.0200 C   0  0  0  0  0  0  0  0  0  0  0  0
   37.9910   31.9660   41.1010 N   0  0  0  0  0  0  0  0  0  0  0  0
   39.0740   33.9140   39.9200 C   0  0  0  0  0  0  0  0  0  0  0  0
   38.7920   35.1830   40.3620 C   0  0  0  0  0  0  0  0  0  0  0  0
   39.7380   36.2000   40.2280 C   0  0  0  0  0  0  0  0  0  0  0  0
   40.9700   35.9420   39.6520 C   0  0  0  0  0  0  0  0  0  0  0  0
   41.2510   34.6870   39.2140 C   0  0  0  0  0  0  0  0  0  0  0  0
   40.3120   33.6850   39.3470 C   0  0  0  0  0  0  0  0  0  0  0  0
   40.7030   32.3610   38.8470 C   0  0  0  0  0  0  0  0  0  0  0  0
   40.6560   32.0330   37.6300 O   0  0  0  0  0  0  0  0  0  0  0  0
   38.8470   24.9500   41.9520 C   0  0  0  0  0  0  0  0  0  0  0  0
   37.7010   23.9480   41.7310 C   0  0  0  0  0  0  0  0  0  0  0  0
   39.6120   24.4800   43.1370 C   0  0  0  0  0  0  0  0  0  0  0  0
   39.7780   24.8310   40.7540 C   0  0  0  0  0  0  0  0  0  0  0  0
   40.2113   27.8586   44.3077 H   0  0  0  0  0  0  0  0  0  0  0  0
   40.2870   26.1615   43.7629 H   0  0  0  0  0  0  0  0  0  0  0  0
   36.0421   25.8980   39.5699 H   0  0  0  0  0  0  0  0  0  0  0  0
   37.1834   24.6975   40.2324 H   0  0  0  0  0  0  0  0  0  0  0  0
   37.8170   35.3987   40.8233 H   0  0  0  0  0  0  0  0  0  0  0  0
   39.5030   37.2143   40.5828 H   0  0  0  0  0  0  0  0  0  0  0  0
   41.7144   36.7454   39.5499 H   0  0  0  0  0  0  0  0  0  0  0  0
   42.2262   34.4700   38.7538 H   0  0  0  0  0  0  0  0  0  0  0  0
   41.0562   31.6144   39.5735 H   0  0  0  0  0  0  0  0  0  0  0  0
   37.3157   23.6111   42.7047 H   0  0  0  0  0  0  0  0  0  0  0  0
   36.8927   24.4343   41.1652 H   0  0  0  0  0  0  0  0  0  0  0  0
   38.0751   23.0820   41.1652 H   0  0  0  0  0  0  0  0  0  0  0  0
   39.0964   24.7968   44.0556 H   0  0  0  0  0  0  0  0  0  0  0  0
   39.6827   23.3825   43.1161 H   0  0  0  0  0  0  0  0  0  0  0  0
   40.6230   24.9130   43.1161 H   0  0  0  0  0  0  0  0  0  0  0  0
   40.8121   24.6988   41.1050 H   0  0  0  0  0  0  0  0  0  0  0  0
   39.4835   23.9632   40.1456 H   0  0  0  0  0  0  0  0  0  0  0  0
   39.7113   25.7450   40.1456 H   0  0  0  0  0  0  0  0  0  0  0  0
  1  2  2  0
  2  3  1  0
  3  7  1  0
  4  3  2  0
  5  4  1  0
  6  1  1  0
  6  5  2  0
  8  1  1  0
  9  5  1  0
 10 14  1  0
 10  9  1  0
 11 10  2  0
 12 11  1  0
 12 13  1  0
 13 14  2  0
 15 13  1  0
 15 16  2  0
 17 16  1  0
 18 17  2  0
 19 20  2  0
 19 18  1  0
 20 15  1  0
 21 20  1  0
 22 21  2  0
 23  2  1  0
 23 25  1  0
 24 23  1  0
 26 23  1  0
  7 27  1  0
  7 28  1  0
  8 29  1  0
  8 30  1  0
 16 31  1  0
 17 32  1  0
 18 33  1  0
 19 34  1  0
 21 35  1  0
 24 36  1  0
 24 37  1  0
 24 38  1  0
 25 39  1  0
 25 40  1  0
 25 41  1  0
 26 42  1  0
 26 43  1  0
 26 44  1  0
M  ISO  8  31  14  32  14  33  14  34  14  35   6  36   8  37   8  38   8
M  ISO  6  39   8  40   8  41   8  42   8  43   8  44   8
M  END
>  <minimizedAffinity>  (1) 
-6.51600933

>  <minimizedRMSD>  (1) 
0.28357172

$$$$
