
     RDKit          3D

 39 41  0  0  1  0  0  0  0  0999 V2000
   36.9620   31.6830   40.0140 C   0  0  0  0  0  0  0  0  0  0  0  0
   37.0920   31.3050   38.6580 C   0  0  0  0  0  0  0  0  0  0  0  0
   37.4080   29.9860   38.3880 C   0  0  0  0  0  0  0  0  0  0  0  0
   37.5750   29.1380   39.4370 N   0  0  0  0  0  0  0  0  0  0  0  0
   37.4540   29.4940   40.7060 C   0  0  0  0  0  0  0  0  0  0  0  0
   37.1430   30.7840   40.9990 N   0  0  0  0  0  0  0  0  0  0  0  0
   37.6270   28.6550   41.8300 N   0  0  0  0  0  0  0  0  0  0  0  0
   37.1950   29.1080   42.9940 N   0  0  0  0  0  0  0  0  0  0  0  0
   37.4740   28.1590   43.9370 C   0  0  0  0  0  0  0  0  0  0  0  0
   38.0960   27.1070   43.2800 C   0  0  0  0  0  0  0  0  0  0  0  0
   38.1890   27.4360   41.9300 C   0  0  0  0  0  0  0  0  0  0  0  0
   38.7520   26.6150   40.8640 C   0  0  1  0  0  0  0  0  0  0  0  0
   40.2530   26.3830   41.0770 C   0  0  0  0  0  0  0  0  0  0  0  0
   40.5170   25.2250   40.1320 C   0  0  0  0  0  0  0  0  0  0  0  0
   39.1770   24.5440   39.9190 C   0  0  0  0  0  0  0  0  0  0  0  0
   38.2310   25.2080   40.8870 C   0  0  2  0  0  0  0  0  0  0  0  0
   36.8010   25.2240   40.4120 C   0  0  0  0  0  0  0  0  0  0  0  0
   36.6190   25.7110   39.0090 C   0  0  0  0  0  0  0  0  0  0  0  0
   36.1550   23.8600   40.5010 C   0  0  0  0  0  0  0  0  0  0  0  0
   36.7101   32.7235   40.2668 H   0  0  0  0  0  0  0  0  0  0  0  0
   36.9470   32.0338   37.8469 H   0  0  0  0  0  0  0  0  0  0  0  0
   37.5211   29.6327   37.3524 H   0  0  0  0  0  0  0  0  0  0  0  0
   37.2484   28.2179   45.0120 H   0  0  0  0  0  0  0  0  0  0  0  0
   38.4532   26.1759   43.7443 H   0  0  0  0  0  0  0  0  0  0  0  0
   38.4969   27.1617   39.9442 H   0  0  0  0  0  0  0  0  0  0  0  0
   40.8403   27.2706   40.7989 H   0  0  0  0  0  0  0  0  0  0  0  0
   40.5320   26.1819   42.1219 H   0  0  0  0  0  0  0  0  0  0  0  0
   40.9137   25.5954   39.1752 H   0  0  0  0  0  0  0  0  0  0  0  0
   41.2611   24.5288   40.5463 H   0  0  0  0  0  0  0  0  0  0  0  0
   38.8324   24.6880   38.8843 H   0  0  0  0  0  0  0  0  0  0  0  0
   39.2388   23.4587   40.0873 H   0  0  0  0  0  0  0  0  0  0  0  0
   38.2052   24.6990   41.8618 H   0  0  0  0  0  0  0  0  0  0  0  0
   36.3158   25.9363   41.0955 H   0  0  0  0  0  0  0  0  0  0  0  0
   36.2340   26.7413   39.0255 H   0  0  0  0  0  0  0  0  0  0  0  0
   37.5859   25.6893   38.4850 H   0  0  0  0  0  0  0  0  0  0  0  0
   35.9033   25.0605   38.4850 H   0  0  0  0  0  0  0  0  0  0  0  0
   36.0245   23.5844   41.5579 H   0  0  0  0  0  0  0  0  0  0  0  0
   35.1735   23.8860   40.0049 H   0  0  0  0  0  0  0  0  0  0  0  0
   36.7970   23.1172   40.0049 H   0  0  0  0  0  0  0  0  0  0  0  0
  1  6  2  0
  2  1  1  0
  3  2  2  0
  3  4  1  0
  4  5  2  0
  5  6  1  0
  5  7  1  0
  7 11  1  0
  7  8  1  0
  8  9  2  0
 10  9  1  0
 11 10  2  0
 12 16  1  0
 12 13  1  0
 12 11  1  0
 14 13  1  0
 15 14  1  0
 15 16  1  0
 17 19  1  0
 17 16  1  0
 18 17  1  0
  1 20  1  0
  2 21  1  0
  3 22  1  0
  9 23  1  0
 10 24  1  0
 12 25  1  6
 13 26  1  0
 13 27  1  0
 14 28  1  0
 14 29  1  0
 15 30  1  0
 15 31  1  0
 16 32  1  1
 17 33  1  0
 18 34  1  0
 18 35  1  0
 18 36  1  0
 19 37  1  0
 19 38  1  0
 19 39  1  0
M  ISO  8  20  14  21  14  22  14  23  14  24  14  25  13  26  13  27  13
M  ISO  8  28  13  29  13  30  13  31  13  32  13  33   8  34   8  35   8
M  ISO  4  36   8  37   8  38   8  39   8
M  END
>  <minimizedAffinity>  (1) 
-4.74178934

>  <minimizedRMSD>  (1) 
2.56284332

$$$$
