
     RDKit          3D

 41 44  0  0  0  0  0  0  0  0999 V2000
   37.4620   28.8660   41.2580 C   0  0  0  0  0  0  0  0  0  0  0  0
   37.5810   29.4260   42.5490 C   0  0  0  0  0  0  0  0  0  0  0  0
   37.5080   28.7070   43.7270 C   0  0  0  0  0  0  0  0  0  0  0  0
   37.3050   27.3490   43.6500 C   0  0  0  0  0  0  0  0  0  0  0  0
   37.1800   26.7380   42.4220 C   0  0  0  0  0  0  0  0  0  0  0  0
   36.9870   25.3760   42.3360 C   0  0  0  0  0  0  0  0  0  0  0  0
   36.8660   24.7110   41.1230 C   0  0  0  0  0  0  0  0  0  0  0  0
   36.9550   25.5270   39.9990 C   0  0  0  0  0  0  0  0  0  0  0  0
   37.1450   26.8720   40.1140 C   0  0  0  0  0  0  0  0  0  0  0  0
   37.2640   27.5220   41.3040 C   0  0  0  0  0  0  0  0  0  0  0  0
   37.5670   29.7790   40.1710 C   0  0  0  0  0  0  0  0  0  0  0  0
   36.6590   30.0690   39.1420 C   0  0  0  0  0  0  0  0  0  0  0  0
   36.8870   31.0230   38.1630 C   0  0  0  0  0  0  0  0  0  0  0  0
   38.0600   31.6720   38.2570 N   0  0  0  0  0  0  0  0  0  0  0  0
   38.9640   31.4280   39.2280 C   0  0  0  0  0  0  0  0  0  0  0  0
   38.6990   30.4990   40.1500 N   0  0  0  0  0  0  0  0  0  0  0  0
   40.1950   32.1680   39.2550 N   0  0  0  0  0  0  0  0  0  0  0  0
   40.9230   32.3450   37.9870 C   0  0  0  0  0  0  0  0  0  0  0  0
   41.6900   33.6170   37.9550 C   0  0  0  0  0  0  0  0  0  0  0  0
   41.2460   34.5590   39.0550 C   0  0  0  0  0  0  0  0  0  0  0  0
   41.6260   33.8550   40.3550 C   0  0  0  0  0  0  0  0  0  0  0  0
   40.6700   32.7050   40.5150 C   0  0  0  0  0  0  0  0  0  0  0  0
   37.7433   30.5115   42.6221 H   0  0  0  0  0  0  0  0  0  0  0  0
   37.6096   29.2080   44.7010 H   0  0  0  0  0  0  0  0  0  0  0  0
   37.2424   26.7500   44.5704 H   0  0  0  0  0  0  0  0  0  0  0  0
   36.9263   24.7920   43.2662 H   0  0  0  0  0  0  0  0  0  0  0  0
   36.7118   23.6239   41.0557 H   0  0  0  0  0  0  0  0  0  0  0  0
   36.8704   25.0779   38.9984 H   0  0  0  0  0  0  0  0  0  0  0  0
   37.2057   27.4670   39.1908 H   0  0  0  0  0  0  0  0  0  0  0  0
   35.7133   29.5080   39.1103 H   0  0  0  0  0  0  0  0  0  0  0  0
   36.1594   31.2340   37.3655 H   0  0  0  0  0  0  0  0  0  0  0  0
   41.6227   31.5058   37.8597 H   0  0  0  0  0  0  0  0  0  0  0  0
   40.1833   32.3753   37.1734 H   0  0  0  0  0  0  0  0  0  0  0  0
   42.7591   33.3934   38.0854 H   0  0  0  0  0  0  0  0  0  0  0  0
   41.5083   34.1061   36.9866 H   0  0  0  0  0  0  0  0  0  0  0  0
   41.7671   35.5241   38.9713 H   0  0  0  0  0  0  0  0  0  0  0  0
   40.1691   34.7771   39.0026 H   0  0  0  0  0  0  0  0  0  0  0  0
   42.6600   33.4841   40.2978 H   0  0  0  0  0  0  0  0  0  0  0  0
   41.5665   34.5430   41.2112 H   0  0  0  0  0  0  0  0  0  0  0  0
   39.8020   33.0519   41.0949 H   0  0  0  0  0  0  0  0  0  0  0  0
   41.2170   31.8982   41.0248 H   0  0  0  0  0  0  0  0  0  0  0  0
  1 10  1  0
  1  2  2  0
  2  3  1  0
  4  3  2  0
  5  4  1  0
  6  5  2  0
  7  6  1  0
  8  9  1  0
  8  7  2  0
  9 10  2  0
 10  5  1  0
 11  1  1  0
 12 11  2  0
 13 14  2  0
 13 12  1  0
 14 15  1  0
 15 17  1  0
 15 16  2  0
 16 11  1  0
 17 22  1  0
 18 17  1  0
 19 18  1  0
 19 20  1  0
 20 21  1  0
 21 22  1  0
  2 23  1  0
  3 24  1  0
  4 25  1  0
  6 26  1  0
  7 27  1  0
  8 28  1  0
  9 29  1  0
 12 30  1  0
 13 31  1  0
 18 32  1  0
 18 33  1  0
 19 34  1  0
 19 35  1  0
 20 36  1  0
 20 37  1  0
 21 38  1  0
 21 39  1  0
 22 40  1  0
 22 41  1  0
M  ISO  8  23  14  24  14  25  14  26  14  27  14  28  14  29  14  30  14
M  ISO  8  31  14  32  13  33  13  34  13  35  13  36  13  37  13  38  13
M  ISO  3  39  13  40  13  41  13
M  END
>  <minimizedAffinity>  (1) 
-6.54219103

>  <minimizedRMSD>  (1) 
1.37207901

$$$$
