
     RDKit          3D

 37 40  0  0  1  0  0  0  0  0999 V2000
   37.2020   31.1690   40.8620 C   0  0  0  0  0  0  0  0  0  0  0  0
   36.2030   30.6200   40.0050 C   0  0  0  0  0  0  0  0  0  0  0  0
   36.2280   29.2540   39.7850 C   0  0  0  0  0  0  0  0  0  0  0  0
   37.1990   28.5240   40.3990 N   0  0  0  0  0  0  0  0  0  0  0  0
   38.1260   29.0340   41.1940 C   0  0  0  0  0  0  0  0  0  0  0  0
   38.1220   30.3710   41.4260 N   0  0  0  0  0  0  0  0  0  0  0  0
   39.1640   28.3150   41.8460 N   0  0  0  0  0  0  0  0  0  0  0  0
   39.8120   28.9400   42.8120 N   0  0  0  0  0  0  0  0  0  0  0  0
   40.7710   28.0930   43.2960 C   0  0  0  0  0  0  0  0  0  0  0  0
   40.6550   26.9130   42.5500 C   0  0  0  0  0  0  0  0  0  0  0  0
   39.6220   27.0780   41.6320 C   0  0  0  0  0  0  0  0  0  0  0  0
   39.1430   26.0870   40.6720 C   0  0  1  0  0  0  0  0  0  0  0  0
   40.0410   26.0130   39.4370 C   0  0  0  0  0  0  0  0  0  0  0  0
   39.5660   24.6960   38.8230 C   0  0  0  0  0  0  0  0  0  0  0  0
   38.9580   23.8960   39.9350 C   0  0  0  0  0  0  0  0  0  0  0  0
   39.2260   24.6860   41.1950 C   0  0  2  0  0  0  0  0  0  0  0  0
   38.0260   24.4770   42.0960 C   0  0  0  0  0  0  0  0  0  0  0  0
   36.7390   24.1350   41.4940 C   0  0  0  0  0  0  0  0  0  0  0  0
   36.9630   25.4730   42.2160 C   0  0  0  0  0  0  0  0  0  0  0  0
   37.2186   32.2506   41.0615 H   0  0  0  0  0  0  0  0  0  0  0  0
   35.4404   31.2591   39.5360 H   0  0  0  0  0  0  0  0  0  0  0  0
   35.4847   28.7721   39.1328 H   0  0  0  0  0  0  0  0  0  0  0  0
   41.4871   28.2969   44.1057 H   0  0  0  0  0  0  0  0  0  0  0  0
   41.2737   26.0114   42.6692 H   0  0  0  0  0  0  0  0  0  0  0  0
   38.1131   26.4109   40.4613 H   0  0  0  0  0  0  0  0  0  0  0  0
   39.8693   26.8620   38.7590 H   0  0  0  0  0  0  0  0  0  0  0  0
   41.1190   26.0552   39.6519 H   0  0  0  0  0  0  0  0  0  0  0  0
   38.8160   24.8906   38.0422 H   0  0  0  0  0  0  0  0  0  0  0  0
   40.4014   24.1533   38.3565 H   0  0  0  0  0  0  0  0  0  0  0  0
   37.8756   23.7795   39.7774 H   0  0  0  0  0  0  0  0  0  0  0  0
   39.3850   22.8837   39.9898 H   0  0  0  0  0  0  0  0  0  0  0  0
   40.1552   24.4369   41.7284 H   0  0  0  0  0  0  0  0  0  0  0  0
   38.6835   24.0053   42.8411 H   0  0  0  0  0  0  0  0  0  0  0  0
   36.6284   24.1068   40.3999 H   0  0  0  0  0  0  0  0  0  0  0  0
   36.0249   23.3028   41.5810 H   0  0  0  0  0  0  0  0  0  0  0  0
   36.4890   25.6638   43.1901 H   0  0  0  0  0  0  0  0  0  0  0  0
   36.8468   26.5362   41.9587 H   0  0  0  0  0  0  0  0  0  0  0  0
  1  6  2  0
  2  1  1  0
  3  2  2  0
  3  4  1  0
  4  5  2  0
  5  6  1  0
  5  7  1  0
  7  8  1  0
  8  9  2  0
 10  9  1  0
 11  7  1  0
 11 10  2  0
 12 16  1  0
 12 11  1  0
 13 12  1  0
 14 13  1  0
 14 15  1  0
 15 16  1  0
 16 17  1  0
 17 19  1  0
 18 17  1  0
 18 19  1  0
  1 20  1  0
  2 21  1  0
  3 22  1  0
  9 23  1  0
 10 24  1  0
 12 25  1  6
 13 26  1  0
 13 27  1  0
 14 28  1  0
 14 29  1  0
 15 30  1  0
 15 31  1  0
 16 32  1  1
 17 33  1  0
 18 34  1  0
 18 35  1  0
 19 36  1  0
 19 37  1  0
M  ISO  8  20  14  21  14  22  14  23  14  24  14  25  13  26  13  27  13
M  ISO  8  28  13  29  13  30  13  31  13  32  13  33  13  34  13  35  13
M  ISO  2  36  13  37  13
M  END
>  <minimizedAffinity>  (1) 
-4.34265804

>  <minimizedRMSD>  (1) 
1.83189905

$$$$
