
     RDKit          3D

 36 39  0  0  0  0  0  0  0  0999 V2000
   37.4630   28.7730   41.2850 C   0  0  0  0  0  0  0  0  0  0  0  0
   37.6100   29.3120   42.5790 C   0  0  0  0  0  0  0  0  0  0  0  0
   37.5290   28.5830   43.7420 C   0  0  0  0  0  0  0  0  0  0  0  0
   37.2870   27.2220   43.6500 C   0  0  0  0  0  0  0  0  0  0  0  0
   37.1350   26.6340   42.4250 C   0  0  0  0  0  0  0  0  0  0  0  0
   36.9090   25.2830   42.3290 C   0  0  0  0  0  0  0  0  0  0  0  0
   36.7620   24.6360   41.1080 C   0  0  0  0  0  0  0  0  0  0  0  0
   36.8620   25.4630   39.9910 C   0  0  0  0  0  0  0  0  0  0  0  0
   37.0860   26.7970   40.1210 C   0  0  0  0  0  0  0  0  0  0  0  0
   37.2300   27.4330   41.3150 C   0  0  0  0  0  0  0  0  0  0  0  0
   37.5830   29.6960   40.2040 C   0  0  0  0  0  0  0  0  0  0  0  0
   36.7070   30.7020   39.7730 C   0  0  0  0  0  0  0  0  0  0  0  0
   36.9860   31.5560   38.7130 C   0  0  0  0  0  0  0  0  0  0  0  0
   38.1840   31.3500   38.1070 N   0  0  0  0  0  0  0  0  0  0  0  0
   39.0350   30.4040   38.4910 C   0  0  0  0  0  0  0  0  0  0  0  0
   38.7340   29.6040   39.5140 N   0  0  0  0  0  0  0  0  0  0  0  0
   40.2940   30.2880   37.7510 C   0  0  0  0  0  0  0  0  0  0  0  0
   41.0190   31.4580   37.5220 C   0  0  0  0  0  0  0  0  0  0  0  0
   42.2070   31.3660   36.8270 C   0  0  0  0  0  0  0  0  0  0  0  0
   42.6050   30.1310   36.4010 C   0  0  0  0  0  0  0  0  0  0  0  0
   41.8880   28.9770   36.6280 C   0  0  0  0  0  0  0  0  0  0  0  0
   40.6990   29.0420   37.3200 C   0  0  0  0  0  0  0  0  0  0  0  0
   37.8031   30.3915   42.6645 H   0  0  0  0  0  0  0  0  0  0  0  0
   37.6533   29.0684   44.7213 H   0  0  0  0  0  0  0  0  0  0  0  0
   37.2170   26.6136   44.5638 H   0  0  0  0  0  0  0  0  0  0  0  0
   36.8418   24.6906   43.2534 H   0  0  0  0  0  0  0  0  0  0  0  0
   36.5806   23.5539   41.0293 H   0  0  0  0  0  0  0  0  0  0  0  0
   36.7578   25.0282   38.9860 H   0  0  0  0  0  0  0  0  0  0  0  0
   37.1552   27.4002   39.2037 H   0  0  0  0  0  0  0  0  0  0  0  0
   35.7495   30.8215   40.3011 H   0  0  0  0  0  0  0  0  0  0  0  0
   36.2877   32.3415   38.3884 H   0  0  0  0  0  0  0  0  0  0  0  0
   40.6525   32.4290   37.8864 H   0  0  0  0  0  0  0  0  0  0  0  0
   42.8149   32.2596   36.6223 H   0  0  0  0  0  0  0  0  0  0  0  0
   43.5512   30.0535   35.8454 H   0  0  0  0  0  0  0  0  0  0  0  0
   42.2623   28.0106   36.2593 H   0  0  0  0  0  0  0  0  0  0  0  0
   40.0998   28.1414   37.5198 H   0  0  0  0  0  0  0  0  0  0  0  0
  1 10  1  0
  1  2  2  0
  2  3  1  0
  4  3  2  0
  5  4  1  0
  6  5  2  0
  7  6  1  0
  8  9  1  0
  8  7  2  0
  9 10  2  0
 10  5  1  0
 11  1  1  0
 12 11  2  0
 13 12  1  0
 14 15  1  0
 14 13  2  0
 15 16  2  0
 16 11  1  0
 17 15  1  0
 18 17  2  0
 19 18  1  0
 20 21  1  0
 20 19  2  0
 21 22  2  0
 22 17  1  0
  2 23  1  0
  3 24  1  0
  4 25  1  0
  6 26  1  0
  7 27  1  0
  8 28  1  0
  9 29  1  0
 12 30  1  0
 13 31  1  0
 18 32  1  0
 19 33  1  0
 20 34  1  0
 21 35  1  0
 22 36  1  0
M  ISO  8  23  14  24  14  25  14  26  14  27  14  28  14  29  14  30  14
M  ISO  6  31  14  32  14  33  14  34  14  35  14  36  14
M  END
>  <minimizedAffinity>  (1) 
-6.10464525

>  <minimizedRMSD>  (1) 
0.678783476

$$$$
