
     RDKit          3D

 33 36  0  0  0  0  0  0  0  0999 V2000
   37.2710   28.4760   40.8640 C   0  0  0  0  0  0  0  0  0  0  0  0
   37.4610   29.2870   42.0040 C   0  0  0  0  0  0  0  0  0  0  0  0
   37.4760   28.8190   43.2950 C   0  0  0  0  0  0  0  0  0  0  0  0
   37.2940   27.4630   43.5150 C   0  0  0  0  0  0  0  0  0  0  0  0
   37.1030   26.6090   42.4390 C   0  0  0  0  0  0  0  0  0  0  0  0
   36.9470   25.2690   42.6530 C   0  0  0  0  0  0  0  0  0  0  0  0
   36.7790   24.3730   41.6100 C   0  0  0  0  0  0  0  0  0  0  0  0
   36.7820   24.9460   40.3480 C   0  0  0  0  0  0  0  0  0  0  0  0
   36.9380   26.2840   40.1680 C   0  0  0  0  0  0  0  0  0  0  0  0
   37.1030   27.1640   41.1890 C   0  0  0  0  0  0  0  0  0  0  0  0
   37.2790   29.1460   39.6010 C   0  0  0  0  0  0  0  0  0  0  0  0
   36.2280   29.4330   38.7170 C   0  0  0  0  0  0  0  0  0  0  0  0
   36.3920   30.1400   37.5460 C   0  0  0  0  0  0  0  0  0  0  0  0
   37.6670   30.5530   37.2920 N   0  0  0  0  0  0  0  0  0  0  0  0
   38.6880   30.2990   38.1050 C   0  0  0  0  0  0  0  0  0  0  0  0
   38.4660   29.6030   39.2330 N   0  0  0  0  0  0  0  0  0  0  0  0
   39.9710   30.7910   37.7190 N   0  0  0  0  0  0  0  0  0  0  0  0
   41.0580   30.1690   37.2970 N   0  0  0  0  0  0  0  0  0  0  0  0
   42.0390   31.0800   37.0490 C   0  0  0  0  0  0  0  0  0  0  0  0
   41.4950   32.3320   37.3450 C   0  0  0  0  0  0  0  0  0  0  0  0
   40.1840   32.1200   37.7660 C   0  0  0  0  0  0  0  0  0  0  0  0
   37.6068   30.3660   41.8476 H   0  0  0  0  0  0  0  0  0  0  0  0
   37.6296   29.5078   44.1388 H   0  0  0  0  0  0  0  0  0  0  0  0
   37.3010   27.0649   44.5404 H   0  0  0  0  0  0  0  0  0  0  0  0
   36.9550   24.8896   43.6855 H   0  0  0  0  0  0  0  0  0  0  0  0
   36.6532   23.2921   41.7707 H   0  0  0  0  0  0  0  0  0  0  0  0
   36.6545   24.2995   39.4672 H   0  0  0  0  0  0  0  0  0  0  0  0
   36.9302   26.6752   39.1399 H   0  0  0  0  0  0  0  0  0  0  0  0
   35.2199   29.0746   38.9724 H   0  0  0  0  0  0  0  0  0  0  0  0
   35.5554   30.3558   36.8652 H   0  0  0  0  0  0  0  0  0  0  0  0
   43.0568   30.8716   36.6876 H   0  0  0  0  0  0  0  0  0  0  0  0
   42.0056   33.3027   37.2614 H   0  0  0  0  0  0  0  0  0  0  0  0
   39.4621   32.8896   38.0768 H   0  0  0  0  0  0  0  0  0  0  0  0
  1 10  1  0
  1  2  2  0
  2  3  1  0
  3  4  2  0
  5  6  2  0
  5  4  1  0
  7  6  1  0
  8  7  2  0
  9  8  1  0
  9 10  2  0
 10  5  1  0
 11  1  1  0
 12 11  2  0
 13 12  1  0
 14 13  2  0
 14 15  1  0
 15 16  2  0
 16 11  1  0
 17 21  1  0
 17 15  1  0
 18 17  1  0
 19 18  2  0
 19 20  1  0
 20 21  2  0
  2 22  1  0
  3 23  1  0
  4 24  1  0
  6 25  1  0
  7 26  1  0
  8 27  1  0
  9 28  1  0
 12 29  1  0
 13 30  1  0
 19 31  1  0
 20 32  1  0
 21 33  1  0
M  ISO  8  22  14  23  14  24  14  25  14  26  14  27  14  28  14  29  14
M  ISO  4  30  14  31  14  32  14  33  14
M  END
>  <minimizedAffinity>  (1) 
-6.09278584

>  <minimizedRMSD>  (1) 
0.692494869

$$$$
