
     RDKit          3D

 42 45  0  0  0  0  0  0  0  0999 V2000
   37.4810   28.8240   41.1960 C   0  0  0  0  0  0  0  0  0  0  0  0
   37.5940   29.4170   42.4700 C   0  0  0  0  0  0  0  0  0  0  0  0
   37.5130   28.7380   43.6690 C   0  0  0  0  0  0  0  0  0  0  0  0
   37.3060   27.3790   43.6340 C   0  0  0  0  0  0  0  0  0  0  0  0
   37.1850   26.7330   42.4240 C   0  0  0  0  0  0  0  0  0  0  0  0
   36.9770   25.3690   42.3780 C   0  0  0  0  0  0  0  0  0  0  0  0
   36.8500   24.6720   41.1850 C   0  0  0  0  0  0  0  0  0  0  0  0
   36.9470   25.4510   40.0360 C   0  0  0  0  0  0  0  0  0  0  0  0
   37.1530   26.8010   40.1120 C   0  0  0  0  0  0  0  0  0  0  0  0
   37.2780   27.4800   41.2840 C   0  0  0  0  0  0  0  0  0  0  0  0
   37.5950   29.7040   40.0830 C   0  0  0  0  0  0  0  0  0  0  0  0
   36.6250   30.1260   39.1630 C   0  0  0  0  0  0  0  0  0  0  0  0
   36.8880   31.0330   38.1380 C   0  0  0  0  0  0  0  0  0  0  0  0
   38.1650   31.4900   38.0850 N   0  0  0  0  0  0  0  0  0  0  0  0
   39.1050   31.1090   38.9410 C   0  0  0  0  0  0  0  0  0  0  0  0
   38.8160   30.2350   39.9130 N   0  0  0  0  0  0  0  0  0  0  0  0
   40.4610   31.6910   38.7620 C   0  0  0  0  0  0  0  0  0  0  0  0
   40.6780   32.8640   39.7020 C   0  0  0  0  0  0  0  0  0  0  0  0
   42.1160   33.2590   39.6050 C   0  0  0  0  0  0  0  0  0  0  0  0
   42.8880   32.5980   38.5080 C   0  0  0  0  0  0  0  0  0  0  0  0
   42.1590   32.4930   37.1960 C   0  0  0  0  0  0  0  0  0  0  0  0
   40.6820   32.2430   37.3670 C   0  0  0  0  0  0  0  0  0  0  0  0
   37.7593   30.5037   42.5117 H   0  0  0  0  0  0  0  0  0  0  0  0
   37.6114   29.2698   44.6269 H   0  0  0  0  0  0  0  0  0  0  0  0
   37.2371   26.8084   44.5719 H   0  0  0  0  0  0  0  0  0  0  0  0
   36.9093   24.8128   43.3246 H   0  0  0  0  0  0  0  0  0  0  0  0
   36.6850   23.5850   41.1501 H   0  0  0  0  0  0  0  0  0  0  0  0
   36.8564   24.9728   39.0495 H   0  0  0  0  0  0  0  0  0  0  0  0
   37.2214   27.3695   39.1728 H   0  0  0  0  0  0  0  0  0  0  0  0
   35.6062   29.7214   39.2546 H   0  0  0  0  0  0  0  0  0  0  0  0
   36.1163   31.3553   37.4234 H   0  0  0  0  0  0  0  0  0  0  0  0
   41.1553   30.8618   38.9630 H   0  0  0  0  0  0  0  0  0  0  0  0
   40.0364   33.7067   39.4049 H   0  0  0  0  0  0  0  0  0  0  0  0
   40.4224   32.5846   40.7348 H   0  0  0  0  0  0  0  0  0  0  0  0
   42.1596   34.3462   39.4437 H   0  0  0  0  0  0  0  0  0  0  0  0
   42.5848   32.9336   40.5454 H   0  0  0  0  0  0  0  0  0  0  0  0
   43.8092   33.1759   38.3420 H   0  0  0  0  0  0  0  0  0  0  0  0
   43.0757   31.5664   38.8405 H   0  0  0  0  0  0  0  0  0  0  0  0
   42.5916   31.6624   36.6190 H   0  0  0  0  0  0  0  0  0  0  0  0
   42.2741   33.4550   36.6751 H   0  0  0  0  0  0  0  0  0  0  0  0
   40.1270   33.1849   37.2456 H   0  0  0  0  0  0  0  0  0  0  0  0
   40.3244   31.5284   36.6111 H   0  0  0  0  0  0  0  0  0  0  0  0
  1 10  1  0
  1  2  2  0
  2  3  1  0
  4  3  2  0
  5  4  1  0
  6  5  2  0
  7  6  1  0
  8  9  1  0
  8  7  2  0
  9 10  2  0
 10  5  1  0
 11  1  1  0
 12 11  2  0
 13 12  1  0
 14 13  2  0
 14 15  1  0
 15 16  2  0
 16 11  1  0
 17 15  1  0
 17 18  1  0
 19 18  1  0
 20 19  1  0
 21 22  1  0
 21 20  1  0
 22 17  1  0
  2 23  1  0
  3 24  1  0
  4 25  1  0
  6 26  1  0
  7 27  1  0
  8 28  1  0
  9 29  1  0
 12 30  1  0
 13 31  1  0
 17 32  1  0
 18 33  1  0
 18 34  1  0
 19 35  1  0
 19 36  1  0
 20 37  1  0
 20 38  1  0
 21 39  1  0
 21 40  1  0
 22 41  1  0
 22 42  1  0
M  ISO  8  23  14  24  14  25  14  26  14  27  14  28  14  29  14  30  14
M  ISO  8  31  14  32  13  33  13  34  13  35  13  36  13  37  13  38  13
M  ISO  4  39  13  40  13  41  13  42  13
M  END
>  <minimizedAffinity>  (1) 
-5.98002243

>  <minimizedRMSD>  (1) 
0.915278018

$$$$
