
     RDKit          3D

 32 35  0  0  0  0  0  0  0  0999 V2000
   37.2570   28.4180   40.9440 C   0  0  0  0  0  0  0  0  0  0  0  0
   37.4480   29.1520   42.1350 C   0  0  0  0  0  0  0  0  0  0  0  0
   37.4660   28.6140   43.3960 C   0  0  0  0  0  0  0  0  0  0  0  0
   37.2840   27.2470   43.5340 C   0  0  0  0  0  0  0  0  0  0  0  0
   37.0910   26.4620   42.4120 C   0  0  0  0  0  0  0  0  0  0  0  0
   36.9330   25.1140   42.5450 C   0  0  0  0  0  0  0  0  0  0  0  0
   36.7600   24.2800   41.4470 C   0  0  0  0  0  0  0  0  0  0  0  0
   36.7580   24.9250   40.2100 C   0  0  0  0  0  0  0  0  0  0  0  0
   36.9190   26.2710   40.1270 C   0  0  0  0  0  0  0  0  0  0  0  0
   37.0900   27.0910   41.1980 C   0  0  0  0  0  0  0  0  0  0  0  0
   37.2700   29.1650   39.7300 C   0  0  0  0  0  0  0  0  0  0  0  0
   36.2210   29.5870   38.9120 C   0  0  0  0  0  0  0  0  0  0  0  0
   36.3950   30.3550   37.7720 C   0  0  0  0  0  0  0  0  0  0  0  0
   37.6700   30.6760   37.4960 N   0  0  0  0  0  0  0  0  0  0  0  0
   38.7250   30.2960   38.2480 C   0  0  0  0  0  0  0  0  0  0  0  0
   38.4940   29.5540   39.3400 N   0  0  0  0  0  0  0  0  0  0  0  0
   40.0520   30.7300   37.8100 C   0  0  0  0  0  0  0  0  0  0  0  0
   41.1180   29.8440   37.5320 C   0  0  0  0  0  0  0  0  0  0  0  0
   42.4700   31.0170   37.0410 S   0  0  0  0  0  0  0  0  0  0  0  0
   41.3160   32.5030   37.3100 C   0  0  0  0  0  0  0  0  0  0  0  0
   40.3430   32.0200   37.6410 N   0  0  0  0  0  0  0  0  0  0  0  0
   37.5935   30.2386   42.0442 H   0  0  0  0  0  0  0  0  0  0  0  0
   37.6213   29.2527   44.2780 H   0  0  0  0  0  0  0  0  0  0  0  0
   37.2930   26.7876   44.5335 H   0  0  0  0  0  0  0  0  0  0  0  0
   36.9428   24.6732   43.5528 H   0  0  0  0  0  0  0  0  0  0  0  0
   36.6340   23.1917   41.5459 H   0  0  0  0  0  0  0  0  0  0  0  0
   36.6244   24.3362   39.2905 H   0  0  0  0  0  0  0  0  0  0  0  0
   36.9105   26.7283   39.1266 H   0  0  0  0  0  0  0  0  0  0  0  0
   35.1976   29.2931   39.1881 H   0  0  0  0  0  0  0  0  0  0  0  0
   35.5535   30.6773   37.1411 H   0  0  0  0  0  0  0  0  0  0  0  0
   41.1403   28.7458   37.5912 H   0  0  0  0  0  0  0  0  0  0  0  0
   41.5371   33.5723   37.1772 H   0  0  0  0  0  0  0  0  0  0  0  0
  1 10  1  0
  1  2  2  0
  2  3  1  0
  3  4  2  0
  5  6  2  0
  5  4  1  0
  7  6  1  0
  8  7  2  0
  9  8  1  0
  9 10  2  0
 10  5  1  0
 11  1  1  0
 12 11  2  0
 13 12  1  0
 14 13  2  0
 14 15  1  0
 15 16  2  0
 16 11  1  0
 17 15  1  0
 18 17  2  0
 19 20  1  0
 19 18  1  0
 20 21  2  0
 21 17  1  0
  2 22  1  0
  3 23  1  0
  4 24  1  0
  6 25  1  0
  7 26  1  0
  8 27  1  0
  9 28  1  0
 12 29  1  0
 13 30  1  0
 18 31  1  0
 20 32  1  0
M  ISO  8  22  14  23  14  24  14  25  14  26  14  27  14  28  14  29  14
M  ISO  3  30  14  31  14  32  14
M  END
>  <minimizedAffinity>  (1) 
-5.81391907

>  <minimizedRMSD>  (1) 
0.63551867

$$$$
