
     RDKit          3D

 31 34  0  0  0  0  0  0  0  0999 V2000
   37.3360   28.4860   41.0290 C   0  0  0  0  0  0  0  0  0  0  0  0
   37.4830   29.1800   42.2480 C   0  0  0  0  0  0  0  0  0  0  0  0
   37.4410   28.5830   43.4970 C   0  0  0  0  0  0  0  0  0  0  0  0
   37.2420   27.2150   43.5640 C   0  0  0  0  0  0  0  0  0  0  0  0
   37.0910   26.4790   42.4080 C   0  0  0  0  0  0  0  0  0  0  0  0
   36.9050   25.1260   42.4690 C   0  0  0  0  0  0  0  0  0  0  0  0
   36.7570   24.3360   41.3370 C   0  0  0  0  0  0  0  0  0  0  0  0
   36.8140   25.0290   40.1410 C   0  0  0  0  0  0  0  0  0  0  0  0
   37.0020   26.3800   40.1040 C   0  0  0  0  0  0  0  0  0  0  0  0
   37.1460   27.1500   41.2150 C   0  0  0  0  0  0  0  0  0  0  0  0
   37.4060   29.2810   39.8500 C   0  0  0  0  0  0  0  0  0  0  0  0
   36.3960   29.6500   38.9480 C   0  0  0  0  0  0  0  0  0  0  0  0
   36.6300   30.4740   37.8500 C   0  0  0  0  0  0  0  0  0  0  0  0
   37.9070   30.9040   37.7010 N   0  0  0  0  0  0  0  0  0  0  0  0
   38.8840   30.5710   38.5370 C   0  0  0  0  0  0  0  0  0  0  0  0
   38.6230   29.7820   39.5750 N   0  0  0  0  0  0  0  0  0  0  0  0
   40.2120   31.1070   38.2520 C   0  0  0  0  0  0  0  0  0  0  0  0
   41.4750   30.8290   38.6510 N   0  0  0  0  0  0  0  0  0  0  0  0
   42.2990   31.6490   38.0600 O   0  0  0  0  0  0  0  0  0  0  0  0
   41.6050   32.4640   37.2770 C   0  0  0  0  0  0  0  0  0  0  0  0
   40.2950   32.1370   37.3870 N   0  0  0  0  0  0  0  0  0  0  0  0
   37.6415   30.2676   42.2038 H   0  0  0  0  0  0  0  0  0  0  0  0
   37.5627   29.1808   44.4123 H   0  0  0  0  0  0  0  0  0  0  0  0
   37.2042   26.7135   44.5423 H   0  0  0  0  0  0  0  0  0  0  0  0
   36.8712   24.6429   43.4567 H   0  0  0  0  0  0  0  0  0  0  0  0
   36.6066   23.2475   41.3870 H   0  0  0  0  0  0  0  0  0  0  0  0
   36.7050   24.4769   39.1959 H   0  0  0  0  0  0  0  0  0  0  0  0
   37.0391   26.8730   39.1214 H   0  0  0  0  0  0  0  0  0  0  0  0
   35.3765   29.2724   39.1154 H   0  0  0  0  0  0  0  0  0  0  0  0
   35.8308   30.7575   37.1493 H   0  0  0  0  0  0  0  0  0  0  0  0
   42.0204   33.2653   36.6483 H   0  0  0  0  0  0  0  0  0  0  0  0
  1 10  1  0
  1  2  2  0
  2  3  1  0
  3  4  2  0
  5  6  2  0
  5  4  1  0
  7  6  1  0
  8  7  2  0
  9  8  1  0
  9 10  2  0
 10  5  1  0
 11  1  1  0
 12 11  2  0
 13 12  1  0
 14 13  2  0
 14 15  1  0
 15 16  2  0
 16 11  1  0
 17 15  1  0
 17 18  2  0
 19 18  1  0
 20 21  2  0
 20 19  1  0
 21 17  1  0
  2 22  1  0
  3 23  1  0
  4 24  1  0
  6 25  1  0
  7 26  1  0
  8 27  1  0
  9 28  1  0
 12 29  1  0
 13 30  1  0
 20 31  1  0
M  ISO  8  22  14  23  14  24  14  25  14  26  14  27  14  28  14  29  14
M  ISO  2  30  14  31  14
M  END
>  <minimizedAffinity>  (1) 
-5.76841688

>  <minimizedRMSD>  (1) 
0.488217801

$$$$
