
     RDKit          3D

 35 37  0  0  0  0  0  0  0  0999 V2000
   37.4780   28.8230   41.2580 C   0  0  0  0  0  0  0  0  0  0  0  0
   37.5810   29.3900   42.5470 C   0  0  0  0  0  0  0  0  0  0  0  0
   37.4830   28.6750   43.7270 C   0  0  0  0  0  0  0  0  0  0  0  0
   37.2680   27.3100   43.6510 C   0  0  0  0  0  0  0  0  0  0  0  0
   37.1590   26.6990   42.4280 C   0  0  0  0  0  0  0  0  0  0  0  0
   36.9550   25.3380   42.3470 C   0  0  0  0  0  0  0  0  0  0  0  0
   36.8460   24.6740   41.1360 C   0  0  0  0  0  0  0  0  0  0  0  0
   36.9600   25.4800   40.0090 C   0  0  0  0  0  0  0  0  0  0  0  0
   37.1630   26.8270   40.1220 C   0  0  0  0  0  0  0  0  0  0  0  0
   37.2680   27.4790   41.3110 C   0  0  0  0  0  0  0  0  0  0  0  0
   37.6020   29.7290   40.1670 C   0  0  0  0  0  0  0  0  0  0  0  0
   36.6630   30.1130   39.1980 C   0  0  0  0  0  0  0  0  0  0  0  0
   36.9430   31.0550   38.2070 C   0  0  0  0  0  0  0  0  0  0  0  0
   38.1920   31.5840   38.2380 N   0  0  0  0  0  0  0  0  0  0  0  0
   39.1000   31.2380   39.1450 C   0  0  0  0  0  0  0  0  0  0  0  0
   38.7960   30.3370   40.0730 N   0  0  0  0  0  0  0  0  0  0  0  0
   40.4150   31.9230   39.0210 C   0  0  0  0  0  0  0  0  0  0  0  0
   40.5190   33.1770   39.8250 C   0  0  0  0  0  0  0  0  0  0  0  0
   40.6270   32.1670   37.5420 C   0  0  0  0  0  0  0  0  0  0  0  0
   37.7508   30.4745   42.6176 H   0  0  0  0  0  0  0  0  0  0  0  0
   37.5736   29.1784   44.7008 H   0  0  0  0  0  0  0  0  0  0  0  0
   37.1845   26.7147   44.5722 H   0  0  0  0  0  0  0  0  0  0  0  0
   36.8759   24.7579   43.2782 H   0  0  0  0  0  0  0  0  0  0  0  0
   36.6813   23.5884   41.0709 H   0  0  0  0  0  0  0  0  0  0  0  0
   36.8856   25.0262   39.0097 H   0  0  0  0  0  0  0  0  0  0  0  0
   37.2463   27.4178   39.1979 H   0  0  0  0  0  0  0  0  0  0  0  0
   35.6643   29.6524   39.2202 H   0  0  0  0  0  0  0  0  0  0  0  0
   36.2002   31.3491   37.4508 H   0  0  0  0  0  0  0  0  0  0  0  0
   41.2087   31.2865   39.4392 H   0  0  0  0  0  0  0  0  0  0  0  0
   40.4984   32.9284   40.8963 H   0  0  0  0  0  0  0  0  0  0  0  0
   41.4627   33.6889   39.5855 H   0  0  0  0  0  0  0  0  0  0  0  0
   39.6725   33.8374   39.5855 H   0  0  0  0  0  0  0  0  0  0  0  0
   41.3429   32.9909   37.4052 H   0  0  0  0  0  0  0  0  0  0  0  0
   41.0241   31.2546   37.0731 H   0  0  0  0  0  0  0  0  0  0  0  0
   39.6681   32.4328   37.0731 H   0  0  0  0  0  0  0  0  0  0  0  0
  1 10  1  0
  1  2  2  0
  2  3  1  0
  4  3  2  0
  5  4  1  0
  6  5  2  0
  7  6  1  0
  8  9  1  0
  8  7  2  0
  9 10  2  0
 10  5  1  0
 11  1  1  0
 12 11  2  0
 13 14  2  0
 13 12  1  0
 14 15  1  0
 15 16  2  0
 16 11  1  0
 17 15  1  0
 17 18  1  0
 19 17  1  0
  2 20  1  0
  3 21  1  0
  4 22  1  0
  6 23  1  0
  7 24  1  0
  8 25  1  0
  9 26  1  0
 12 27  1  0
 13 28  1  0
 17 29  1  0
 18 30  1  0
 18 31  1  0
 18 32  1  0
 19 33  1  0
 19 34  1  0
 19 35  1  0
M  ISO  8  20  14  21  14  22  14  23  14  24  14  25  14  26  14  27  14
M  ISO  8  28  14  29   8  30   8  31   8  32   8  33   8  34   8  35   8
M  END
>  <minimizedAffinity>  (1) 
-5.47568512

>  <minimizedRMSD>  (1) 
0.780655921

$$$$
