
     RDKit          3D

 29 31  0  0  0  0  0  0  0  0999 V2000
   37.4040   28.5700   41.1590 C   0  0  0  0  0  0  0  0  0  0  0  0
   37.5140   29.2000   42.4150 C   0  0  0  0  0  0  0  0  0  0  0  0
   37.4170   28.5460   43.6310 C   0  0  0  0  0  0  0  0  0  0  0  0
   37.1970   27.1810   43.6300 C   0  0  0  0  0  0  0  0  0  0  0  0
   37.0800   26.5020   42.4320 C   0  0  0  0  0  0  0  0  0  0  0  0
   36.8690   25.1480   42.4260 C   0  0  0  0  0  0  0  0  0  0  0  0
   36.7520   24.4220   41.2460 C   0  0  0  0  0  0  0  0  0  0  0  0
   36.8640   25.1730   40.0790 C   0  0  0  0  0  0  0  0  0  0  0  0
   37.0750   26.5210   40.1300 C   0  0  0  0  0  0  0  0  0  0  0  0
   37.1900   27.2310   41.2830 C   0  0  0  0  0  0  0  0  0  0  0  0
   37.5300   29.4200   40.0250 C   0  0  0  0  0  0  0  0  0  0  0  0
   36.5480   30.0940   39.2860 C   0  0  0  0  0  0  0  0  0  0  0  0
   36.8560   30.9300   38.2150 C   0  0  0  0  0  0  0  0  0  0  0  0
   38.1760   31.0550   37.9240 N   0  0  0  0  0  0  0  0  0  0  0  0
   39.1290   30.4290   38.6060 C   0  0  0  0  0  0  0  0  0  0  0  0
   38.7970   29.6350   39.6280 N   0  0  0  0  0  0  0  0  0  0  0  0
   40.5270   30.6620   38.1740 C   0  0  0  0  0  0  0  0  0  0  0  0
   37.6889   30.2859   42.4299 H   0  0  0  0  0  0  0  0  0  0  0  0
   37.5128   29.0996   44.5767 H   0  0  0  0  0  0  0  0  0  0  0  0
   37.1152   26.6359   44.5819 H   0  0  0  0  0  0  0  0  0  0  0  0
   36.7896   24.6179   43.3866 H   0  0  0  0  0  0  0  0  0  0  0  0
   36.5835   23.3350   41.2353 H   0  0  0  0  0  0  0  0  0  0  0  0
   36.7814   24.6735   39.1025 H   0  0  0  0  0  0  0  0  0  0  0  0
   37.1570   27.0664   39.1783 H   0  0  0  0  0  0  0  0  0  0  0  0
   35.4922   29.9574   39.5627 H   0  0  0  0  0  0  0  0  0  0  0  0
   36.0785   31.4557   37.6413 H   0  0  0  0  0  0  0  0  0  0  0  0
   41.1712   30.7694   39.0591 H   0  0  0  0  0  0  0  0  0  0  0  0
   40.8715   29.8089   37.5711 H   0  0  0  0  0  0  0  0  0  0  0  0
   40.5762   31.5807   37.5711 H   0  0  0  0  0  0  0  0  0  0  0  0
  1 10  1  0
  1  2  2  0
  2  3  1  0
  4  3  2  0
  5  4  1  0
  6  5  2  0
  7  6  1  0
  8  9  1  0
  8  7  2  0
  9 10  2  0
 10  5  1  0
 11  1  1  0
 12 11  2  0
 13 12  1  0
 14 13  2  0
 14 15  1  0
 15 16  2  0
 16 11  1  0
 17 15  1  0
  2 18  1  0
  3 19  1  0
  4 20  1  0
  6 21  1  0
  7 22  1  0
  8 23  1  0
  9 24  1  0
 12 25  1  0
 13 26  1  0
 17 27  1  0
 17 28  1  0
 17 29  1  0
M  ISO  8  18  14  19  14  20  14  21  14  22  14  23  14  24  14  25  14
M  ISO  4  26  14  27   8  28   8  29   8
M  END
>  <minimizedAffinity>  (1) 
-5.19269562

>  <minimizedRMSD>  (1) 
0.0555813275

$$$$
