
     RDKit          3D

 28 30  0  0  0  0  0  0  0  0999 V2000
   37.3480   28.5260   41.0900 C   0  0  0  0  0  0  0  0  0  0  0  0
   37.4910   29.1910   42.3270 C   0  0  0  0  0  0  0  0  0  0  0  0
   37.4380   28.5680   43.5580 C   0  0  0  0  0  0  0  0  0  0  0  0
   37.2310   27.1980   43.5970 C   0  0  0  0  0  0  0  0  0  0  0  0
   37.0860   26.4920   42.4210 C   0  0  0  0  0  0  0  0  0  0  0  0
   36.9080   25.1310   42.4560 C   0  0  0  0  0  0  0  0  0  0  0  0
   36.7830   24.3750   41.3060 C   0  0  0  0  0  0  0  0  0  0  0  0
   36.8510   25.0870   40.1220 C   0  0  0  0  0  0  0  0  0  0  0  0
   37.0280   26.4390   40.1170 C   0  0  0  0  0  0  0  0  0  0  0  0
   37.1520   27.1880   41.2440 C   0  0  0  0  0  0  0  0  0  0  0  0
   37.4340   29.3480   39.9310 C   0  0  0  0  0  0  0  0  0  0  0  0
   36.4220   29.8000   39.0710 C   0  0  0  0  0  0  0  0  0  0  0  0
   36.6520   30.6370   37.9890 C   0  0  0  0  0  0  0  0  0  0  0  0
   37.9550   31.0000   37.8100 N   0  0  0  0  0  0  0  0  0  0  0  0
   38.9390   30.5870   38.6080 C   0  0  0  0  0  0  0  0  0  0  0  0
   38.6670   29.7830   39.6370 N   0  0  0  0  0  0  0  0  0  0  0  0
   40.3100   31.0340   38.3310 C   0  0  0  0  0  0  0  0  0  0  0  0
   40.5360   31.8740   37.4180 O   0  0  0  0  0  0  0  0  0  0  0  0
   37.6557   30.2785   42.3089 H   0  0  0  0  0  0  0  0  0  0  0  0
   37.5573   29.1456   44.4865 H   0  0  0  0  0  0  0  0  0  0  0  0
   37.1825   26.6751   44.5635 H   0  0  0  0  0  0  0  0  0  0  0  0
   36.8634   24.6256   43.4320 H   0  0  0  0  0  0  0  0  0  0  0  0
   36.6396   23.2847   41.3304 H   0  0  0  0  0  0  0  0  0  0  0  0
   36.7605   24.5518   39.1653 H   0  0  0  0  0  0  0  0  0  0  0  0
   37.0730   26.9526   39.1453 H   0  0  0  0  0  0  0  0  0  0  0  0
   35.3899   29.4729   39.2653 H   0  0  0  0  0  0  0  0  0  0  0  0
   35.8451   30.9819   37.3256 H   0  0  0  0  0  0  0  0  0  0  0  0
   41.1455   30.6334   38.9239 H   0  0  0  0  0  0  0  0  0  0  0  0
  1 10  1  0
  1  2  2  0
  2  3  1  0
  3  4  2  0
  5  6  2  0
  5  4  1  0
  7  6  1  0
  8  7  2  0
  9  8  1  0
  9 10  2  0
 10  5  1  0
 11  1  1  0
 12 11  2  0
 13 12  1  0
 14 13  2  0
 14 15  1  0
 15 16  2  0
 16 11  1  0
 17 15  1  0
 18 17  2  0
  2 19  1  0
  3 20  1  0
  4 21  1  0
  6 22  1  0
  7 23  1  0
  8 24  1  0
  9 25  1  0
 12 26  1  0
 13 27  1  0
 17 28  1  0
M  ISO  8  19  14  20  14  21  14  22  14  23  14  24  14  25  14  26  14
M  ISO  2  27  14  28   6
M  END
>  <minimizedAffinity>  (1) 
-5.14165211

>  <minimizedRMSD>  (1) 
0.298160195

$$$$
