
     RDKit          3D

 40 43  0  0  0  0  0  0  0  0999 V2000
   37.2040   28.5560   40.9120 C   0  0  0  0  0  0  0  0  0  0  0  0
   37.4030   29.3180   42.0870 C   0  0  0  0  0  0  0  0  0  0  0  0
   37.4670   28.7840   43.3630 C   0  0  0  0  0  0  0  0  0  0  0  0
   37.3260   27.4020   43.5020 C   0  0  0  0  0  0  0  0  0  0  0  0
   37.1280   26.6050   42.3820 C   0  0  0  0  0  0  0  0  0  0  0  0
   36.9960   25.2540   42.5230 C   0  0  0  0  0  0  0  0  0  0  0  0
   36.8030   24.4210   41.4510 C   0  0  0  0  0  0  0  0  0  0  0  0
   36.7540   25.0550   40.2210 C   0  0  0  0  0  0  0  0  0  0  0  0
   36.8900   26.4090   40.1020 C   0  0  0  0  0  0  0  0  0  0  0  0
   37.0800   27.2270   41.1680 C   0  0  0  0  0  0  0  0  0  0  0  0
   37.1650   29.2990   39.7110 C   0  0  0  0  0  0  0  0  0  0  0  0
   36.3130   29.2050   38.5990 C   0  0  0  0  0  0  0  0  0  0  0  0
   36.3860   30.0300   37.4890 C   0  0  0  0  0  0  0  0  0  0  0  0
   37.3690   30.9750   37.5400 N   0  0  0  0  0  0  0  0  0  0  0  0
   38.1940   31.0970   38.5710 C   0  0  0  0  0  0  0  0  0  0  0  0
   38.0900   30.2770   39.6250 N   0  0  0  0  0  0  0  0  0  0  0  0
   39.2150   32.1490   38.5280 C   0  0  0  0  0  0  0  0  0  0  0  0
   40.0750   32.1730   37.6080 O   0  0  0  0  0  0  0  0  0  0  0  0
   39.2060   33.1510   39.5660 N   0  0  0  0  0  0  0  0  0  0  0  0
   38.3560   34.1990   40.1480 C   0  0  0  0  0  0  0  0  0  0  0  0
   39.2560   35.4330   40.1900 C   0  0  0  0  0  0  0  0  0  0  0  0
   40.6640   34.8280   40.1550 C   0  0  0  0  0  0  0  0  0  0  0  0
   40.3240   33.3820   40.4760 C   0  0  0  0  0  0  0  0  0  0  0  0
   37.5143   30.4071   41.9800 H   0  0  0  0  0  0  0  0  0  0  0  0
   37.6241   29.4289   44.2402 H   0  0  0  0  0  0  0  0  0  0  0  0
   37.3718   26.9434   44.5008 H   0  0  0  0  0  0  0  0  0  0  0  0
   37.0462   24.8181   43.5317 H   0  0  0  0  0  0  0  0  0  0  0  0
   36.6953   23.3317   41.5599 H   0  0  0  0  0  0  0  0  0  0  0  0
   36.6013   24.4514   39.3142 H   0  0  0  0  0  0  0  0  0  0  0  0
   36.8435   26.8559   39.0980 H   0  0  0  0  0  0  0  0  0  0  0  0
   35.5371   28.4254   38.6101 H   0  0  0  0  0  0  0  0  0  0  0  0
   35.7037   29.9310   36.6318 H   0  0  0  0  0  0  0  0  0  0  0  0
   37.4739   34.3810   39.5165 H   0  0  0  0  0  0  0  0  0  0  0  0
   37.9708   33.9251   41.1413 H   0  0  0  0  0  0  0  0  0  0  0  0
   39.0813   36.0806   39.3182 H   0  0  0  0  0  0  0  0  0  0  0  0
   39.0783   36.0719   41.0676 H   0  0  0  0  0  0  0  0  0  0  0  0
   41.1297   34.9296   39.1637 H   0  0  0  0  0  0  0  0  0  0  0  0
   41.3927   35.2988   40.8313 H   0  0  0  0  0  0  0  0  0  0  0  0
   40.0214   33.2617   41.5267 H   0  0  0  0  0  0  0  0  0  0  0  0
   41.1622   32.6805   40.3523 H   0  0  0  0  0  0  0  0  0  0  0  0
  1 10  1  0
  1  2  2  0
  2  3  1  0
  3  4  2  0
  5  6  2  0
  5  4  1  0
  7  6  1  0
  8  7  2  0
  9  8  1  0
  9 10  2  0
 10  5  1  0
 11  1  1  0
 12 11  2  0
 13 14  2  0
 13 12  1  0
 14 15  1  0
 15 16  2  0
 16 11  1  0
 17 15  1  0
 17 19  1  0
 18 17  2  0
 19 20  1  0
 19 23  1  0
 20 21  1  0
 22 21  1  0
 22 23  1  0
  2 24  1  0
  3 25  1  0
  4 26  1  0
  6 27  1  0
  7 28  1  0
  8 29  1  0
  9 30  1  0
 12 31  1  0
 13 32  1  0
 20 33  1  0
 20 34  1  0
 21 35  1  0
 21 36  1  0
 22 37  1  0
 22 38  1  0
 23 39  1  0
 23 40  1  0
M  ISO  8  24  14  25  14  26  14  27  14  28  14  29  14  30  14  31  14
M  ISO  8  32  14  33  13  34  13  35  13  36  13  37  13  38  13  39  13
M  ISO  1  40  13
M  END
>  <minimizedAffinity>  (1) 
-6.94513655

>  <minimizedRMSD>  (1) 
2.34179306

$$$$
