
     RDKit          3D

 37 40  0  0  0  0  0  0  0  0999 V2000
   37.3260   28.8440   41.2170 C   0  0  0  0  0  0  0  0  0  0  0  0
   37.4920   29.4260   42.4870 C   0  0  0  0  0  0  0  0  0  0  0  0
   37.4910   28.7080   43.6780 C   0  0  0  0  0  0  0  0  0  0  0  0
   37.3160   27.3330   43.6180 C   0  0  0  0  0  0  0  0  0  0  0  0
   37.1490   26.7070   42.3900 C   0  0  0  0  0  0  0  0  0  0  0  0
   36.9800   25.3450   42.3300 C   0  0  0  0  0  0  0  0  0  0  0  0
   36.8170   24.6880   41.1370 C   0  0  0  0  0  0  0  0  0  0  0  0
   36.8340   25.4870   40.0200 C   0  0  0  0  0  0  0  0  0  0  0  0
   37.0020   26.8420   40.1010 C   0  0  0  0  0  0  0  0  0  0  0  0
   37.1660   27.5000   41.2810 C   0  0  0  0  0  0  0  0  0  0  0  0
   37.3510   29.7490   40.1320 C   0  0  0  0  0  0  0  0  0  0  0  0
   36.8860   29.6080   38.8160 C   0  0  0  0  0  0  0  0  0  0  0  0
   36.9600   30.6110   37.8540 C   0  0  0  0  0  0  0  0  0  0  0  0
   37.5260   31.7700   38.2770 N   0  0  0  0  0  0  0  0  0  0  0  0
   37.9790   31.9430   39.5160 C   0  0  0  0  0  0  0  0  0  0  0  0
   37.8910   30.9550   40.4140 N   0  0  0  0  0  0  0  0  0  0  0  0
   38.5710   33.2390   39.8760 C   0  0  0  0  0  0  0  0  0  0  0  0
   37.8430   34.2600   40.0140 O   0  0  0  0  0  0  0  0  0  0  0  0
   40.0280   33.3530   40.0770 C   0  0  0  0  0  0  0  0  0  0  0  0
   40.7290   34.2480   39.3320 C   0  0  0  0  0  0  0  0  0  0  0  0
   42.0930   34.3860   39.4890 C   0  0  0  0  0  0  0  0  0  0  0  0
   42.6530   33.5650   40.4330 C   0  0  0  0  0  0  0  0  0  0  0  0
   41.9520   32.6530   41.1950 C   0  0  0  0  0  0  0  0  0  0  0  0
   40.6320   32.5870   40.9770 N   0  0  0  0  0  0  0  0  0  0  0  0
   37.6311   30.5158   42.5413 H   0  0  0  0  0  0  0  0  0  0  0  0
   37.6256   29.2175   44.6435 H   0  0  0  0  0  0  0  0  0  0  0  0
   37.3096   26.7386   44.5436 H   0  0  0  0  0  0  0  0  0  0  0  0
   36.9753   24.7651   43.2647 H   0  0  0  0  0  0  0  0  0  0  0  0
   36.6821   23.5978   41.0790 H   0  0  0  0  0  0  0  0  0  0  0  0
   36.7087   25.0232   39.0304 H   0  0  0  0  0  0  0  0  0  0  0  0
   37.0047   27.4269   39.1694 H   0  0  0  0  0  0  0  0  0  0  0  0
   36.4358   28.6468   38.5270 H   0  0  0  0  0  0  0  0  0  0  0  0
   36.5878   30.4748   36.8279 H   0  0  0  0  0  0  0  0  0  0  0  0
   40.2020   34.8706   38.5941 H   0  0  0  0  0  0  0  0  0  0  0  0
   42.6864   35.1013   38.9006 H   0  0  0  0  0  0  0  0  0  0  0  0
   43.7386   33.6384   40.5946 H   0  0  0  0  0  0  0  0  0  0  0  0
   42.4497   32.0153   41.9404 H   0  0  0  0  0  0  0  0  0  0  0  0
  1 10  1  0
  1  2  2  0
  2  3  1  0
  4  3  2  0
  5  4  1  0
  6  5  2  0
  7  6  1  0
  8  9  1  0
  8  7  2  0
  9 10  2  0
 10  5  1  0
 11 16  1  0
 11  1  1  0
 12 11  2  0
 13 14  2  0
 13 12  1  0
 14 15  1  0
 15 17  1  0
 15 16  2  0
 17 18  2  0
 17 19  1  0
 19 24  2  0
 20 21  2  0
 20 19  1  0
 21 22  1  0
 22 23  2  0
 24 23  1  0
  2 25  1  0
  3 26  1  0
  4 27  1  0
  6 28  1  0
  7 29  1  0
  8 30  1  0
  9 31  1  0
 12 32  1  0
 13 33  1  0
 20 34  1  0
 21 35  1  0
 22 36  1  0
 23 37  1  0
M  ISO  8  25  14  26  14  27  14  28  14  29  14  30  14  31  14  32  14
M  ISO  5  33  14  34  14  35  14  36  14  37  14
M  END
>  <minimizedAffinity>  (1) 
-6.48827362

>  <minimizedRMSD>  (1) 
2.39248323

$$$$
