
     RDKit          3D

 41 44  0  0  0  0  0  0  0  0999 V2000
   37.5550   29.4760   39.9890 C   0  0  0  0  0  0  0  0  0  0  0  0
   36.5410   29.8990   39.0920 C   0  0  0  0  0  0  0  0  0  0  0  0
   36.8030   30.7470   38.0230 C   0  0  0  0  0  0  0  0  0  0  0  0
   38.0910   31.1540   37.8810 N   0  0  0  0  0  0  0  0  0  0  0  0
   39.0680   30.7670   38.7160 C   0  0  0  0  0  0  0  0  0  0  0  0
   38.7690   29.9590   39.7190 N   0  0  0  0  0  0  0  0  0  0  0  0
   37.4720   28.6470   41.1450 C   0  0  0  0  0  0  0  0  0  0  0  0
   37.6020   29.3240   42.3790 C   0  0  0  0  0  0  0  0  0  0  0  0
   37.5220   28.6910   43.6060 C   0  0  0  0  0  0  0  0  0  0  0  0
   37.3050   27.3310   43.6380 C   0  0  0  0  0  0  0  0  0  0  0  0
   37.1740   26.6370   42.4650 C   0  0  0  0  0  0  0  0  0  0  0  0
   36.9510   25.2700   42.4850 C   0  0  0  0  0  0  0  0  0  0  0  0
   36.8110   24.5200   41.3410 C   0  0  0  0  0  0  0  0  0  0  0  0
   36.9120   25.2390   40.1530 C   0  0  0  0  0  0  0  0  0  0  0  0
   37.1290   26.5840   40.1430 C   0  0  0  0  0  0  0  0  0  0  0  0
   37.2610   27.3080   41.2750 C   0  0  0  0  0  0  0  0  0  0  0  0
   40.4100   31.2780   38.4950 C   0  0  0  0  0  0  0  0  0  0  0  0
   41.0490   30.9720   37.4310 O   0  0  0  0  0  0  0  0  0  0  0  0
   42.6880   33.7540   41.0850 C   0  0  0  0  0  0  0  0  0  0  0  0
   41.5640   34.2970   40.5060 C   0  0  0  0  0  0  0  0  0  0  0  0
   40.8780   33.4400   39.6800 C   0  0  0  0  0  0  0  0  0  0  0  0
   41.1720   32.1390   39.3680 C   0  0  0  0  0  0  0  0  0  0  0  0
   42.3340   31.6520   39.9940 C   0  0  0  0  0  0  0  0  0  0  0  0
   43.1010   32.4460   40.8540 C   0  0  0  0  0  0  0  0  0  0  0  0
   43.7620   34.6140   42.1740 S   0  0  0  0  0  0  0  0  0  0  0  0
   43.0840   35.7970   42.7830 O   0  0  0  0  0  0  0  0  0  0  0  0
   45.0270   35.0090   41.4560 O   0  0  0  0  0  0  0  0  0  0  0  0
   35.5118   29.5435   39.2480 H   0  0  0  0  0  0  0  0  0  0  0  0
   36.0118   31.0705   37.3306 H   0  0  0  0  0  0  0  0  0  0  0  0
   37.7757   30.4101   42.3625 H   0  0  0  0  0  0  0  0  0  0  0  0
   37.6297   29.2631   44.5394 H   0  0  0  0  0  0  0  0  0  0  0  0
   37.2373   26.8049   44.6017 H   0  0  0  0  0  0  0  0  0  0  0  0
   36.8829   24.7623   43.4585 H   0  0  0  0  0  0  0  0  0  0  0  0
   36.6328   23.4347   41.3628 H   0  0  0  0  0  0  0  0  0  0  0  0
   36.8138   24.7062   39.1957 H   0  0  0  0  0  0  0  0  0  0  0  0
   37.1994   27.1005   39.1744 H   0  0  0  0  0  0  0  0  0  0  0  0
   41.2412   35.3324   40.6895 H   0  0  0  0  0  0  0  0  0  0  0  0
   39.9744   33.8525   39.2073 H   0  0  0  0  0  0  0  0  0  0  0  0
   42.6492   30.6158   39.8016 H   0  0  0  0  0  0  0  0  0  0  0  0
   44.0063   32.0464   41.3345 H   0  0  0  0  0  0  0  0  0  0  0  0
   44.1001   33.7730   43.2013 H   0  0  0  0  0  0  0  0  0  0  0  0
  1  7  1  0
  2  1  2  0
  3  2  1  0
  4  3  2  0
  4  5  1  0
  5  6  2  0
  6  1  1  0
  7 16  1  0
  7  8  2  0
  8  9  1  0
  9 10  2  0
 11 12  2  0
 11 10  1  0
 13 12  1  0
 14 13  2  0
 15 14  1  0
 15 16  2  0
 16 11  1  0
 17  5  1  0
 17 22  1  0
 18 17  2  0
 19 25  1  0
 20 19  2  0
 21 20  1  0
 22 21  2  0
 22 23  1  0
 23 24  2  0
 24 19  1  0
 25 26  2  0
 27 25  2  0
  2 28  1  0
  3 29  1  0
  8 30  1  0
  9 31  1  0
 10 32  1  0
 12 33  1  0
 13 34  1  0
 14 35  1  0
 15 36  1  0
 20 37  1  0
 21 38  1  0
 23 39  1  0
 24 40  1  0
 25 41  1  0
M  ISO  8  28  14  29  14  30  14  31  14  32  14  33  14  34  14  35  14
M  ISO  6  36  14  37  14  38  14  39  14  40  14  41  11
M  END
>  <minimizedAffinity>  (1) 
-6.39440298

>  <minimizedRMSD>  (1) 
2.16839552

$$$$
