
     RDKit          3D

 38 41  0  0  0  0  0  0  0  0999 V2000
   37.3720   29.2670   39.8960 C   0  0  0  0  0  0  0  0  0  0  0  0
   36.3770   29.6350   38.9780 C   0  0  0  0  0  0  0  0  0  0  0  0
   36.6030   30.4580   37.8870 C   0  0  0  0  0  0  0  0  0  0  0  0
   37.8830   30.9040   37.7490 N   0  0  0  0  0  0  0  0  0  0  0  0
   38.8620   30.5740   38.6050 C   0  0  0  0  0  0  0  0  0  0  0  0
   38.5910   29.7830   39.6340 N   0  0  0  0  0  0  0  0  0  0  0  0
   37.3060   28.4590   41.0590 C   0  0  0  0  0  0  0  0  0  0  0  0
   37.4480   29.1580   42.2780 C   0  0  0  0  0  0  0  0  0  0  0  0
   37.4070   28.5440   43.5260 C   0  0  0  0  0  0  0  0  0  0  0  0
   37.2190   27.1830   43.5860 C   0  0  0  0  0  0  0  0  0  0  0  0
   37.0750   26.4460   42.4190 C   0  0  0  0  0  0  0  0  0  0  0  0
   36.8900   25.0860   42.4740 C   0  0  0  0  0  0  0  0  0  0  0  0
   36.7470   24.3200   41.3450 C   0  0  0  0  0  0  0  0  0  0  0  0
   36.8010   25.0160   40.1400 C   0  0  0  0  0  0  0  0  0  0  0  0
   36.9860   26.3690   40.1140 C   0  0  0  0  0  0  0  0  0  0  0  0
   37.1270   27.1250   41.2320 C   0  0  0  0  0  0  0  0  0  0  0  0
   40.1940   31.1170   38.3580 C   0  0  0  0  0  0  0  0  0  0  0  0
   40.5690   32.1900   38.8810 O   0  0  0  0  0  0  0  0  0  0  0  0
   41.1900   30.5020   37.5130 C   0  0  0  0  0  0  0  0  0  0  0  0
   42.2120   31.2370   36.9510 C   0  0  0  0  0  0  0  0  0  0  0  0
   43.2100   30.7660   36.1360 C   0  0  0  0  0  0  0  0  0  0  0  0
   43.1970   29.4120   35.8440 C   0  0  0  0  0  0  0  0  0  0  0  0
   42.2080   28.6030   36.3660 C   0  0  0  0  0  0  0  0  0  0  0  0
   41.2370   29.1450   37.1780 C   0  0  0  0  0  0  0  0  0  0  0  0
   35.3592   29.2478   39.1335 H   0  0  0  0  0  0  0  0  0  0  0  0
   35.8049   30.7323   37.1814 H   0  0  0  0  0  0  0  0  0  0  0  0
   37.5992   30.2468   42.2387 H   0  0  0  0  0  0  0  0  0  0  0  0
   37.5227   29.1354   44.4462 H   0  0  0  0  0  0  0  0  0  0  0  0
   37.1827   26.6770   44.5620 H   0  0  0  0  0  0  0  0  0  0  0  0
   36.8553   24.5942   43.4573 H   0  0  0  0  0  0  0  0  0  0  0  0
   36.5998   23.2308   41.3885 H   0  0  0  0  0  0  0  0  0  0  0  0
   36.6928   24.4668   39.1931 H   0  0  0  0  0  0  0  0  0  0  0  0
   37.0226   26.8718   39.1363 H   0  0  0  0  0  0  0  0  0  0  0  0
   42.2290   32.3128   37.1798 H   0  0  0  0  0  0  0  0  0  0  0  0
   43.9856   31.4335   35.7326 H   0  0  0  0  0  0  0  0  0  0  0  0
   43.9748   28.9815   35.1962 H   0  0  0  0  0  0  0  0  0  0  0  0
   42.1955   27.5278   36.1339 H   0  0  0  0  0  0  0  0  0  0  0  0
   40.4610   28.4786   37.5826 H   0  0  0  0  0  0  0  0  0  0  0  0
  1  7  1  0
  2  1  2  0
  3  2  1  0
  4  3  2  0
  4  5  1  0
  5  6  2  0
  6  1  1  0
  7 16  1  0
  7  8  2  0
  8  9  1  0
  9 10  2  0
 11 12  2  0
 11 10  1  0
 13 12  1  0
 14 13  2  0
 15 14  1  0
 15 16  2  0
 16 11  1  0
 17  5  1  0
 17 18  2  0
 19 17  1  0
 20 19  2  0
 21 20  1  0
 22 21  2  0
 22 23  1  0
 23 24  2  0
 24 19  1  0
  2 25  1  0
  3 26  1  0
  8 27  1  0
  9 28  1  0
 10 29  1  0
 12 30  1  0
 13 31  1  0
 14 32  1  0
 15 33  1  0
 20 34  1  0
 21 35  1  0
 22 36  1  0
 23 37  1  0
 24 38  1  0
M  ISO  8  25  14  26  14  27  14  28  14  29  14  30  14  31  14  32  14
M  ISO  6  33  14  34  14  35  14  36  14  37  14  38  14
M  END
>  <minimizedAffinity>  (1) 
-6.12992811

>  <minimizedRMSD>  (1) 
1.70622849

$$$$
