
     RDKit          3D

 35 38  0  0  0  0  0  0  0  0999 V2000
   37.2250   28.5290   40.9140 C   0  0  0  0  0  0  0  0  0  0  0  0
   37.4140   29.2930   42.0920 C   0  0  0  0  0  0  0  0  0  0  0  0
   37.4610   28.7610   43.3660 C   0  0  0  0  0  0  0  0  0  0  0  0
   37.3140   27.4000   43.5100 C   0  0  0  0  0  0  0  0  0  0  0  0
   37.1230   26.5860   42.3970 C   0  0  0  0  0  0  0  0  0  0  0  0
   36.9760   25.2350   42.5300 C   0  0  0  0  0  0  0  0  0  0  0  0
   36.7880   24.4040   41.4530 C   0  0  0  0  0  0  0  0  0  0  0  0
   36.7570   25.0340   40.2210 C   0  0  0  0  0  0  0  0  0  0  0  0
   36.9070   26.3890   40.1150 C   0  0  0  0  0  0  0  0  0  0  0  0
   37.0920   27.2050   41.1730 C   0  0  0  0  0  0  0  0  0  0  0  0
   37.2110   29.2680   39.7090 C   0  0  0  0  0  0  0  0  0  0  0  0
   36.2540   29.3170   38.6820 C   0  0  0  0  0  0  0  0  0  0  0  0
   36.3820   30.1340   37.5650 C   0  0  0  0  0  0  0  0  0  0  0  0
   37.5100   30.9020   37.5190 N   0  0  0  0  0  0  0  0  0  0  0  0
   38.4300   30.8740   38.4740 C   0  0  0  0  0  0  0  0  0  0  0  0
   38.2750   30.0790   39.5330 N   0  0  0  0  0  0  0  0  0  0  0  0
   39.6100   31.7370   38.3340 C   0  0  0  0  0  0  0  0  0  0  0  0
   40.0240   32.0780   37.1950 O   0  0  0  0  0  0  0  0  0  0  0  0
   40.3010   32.1960   39.5240 C   0  0  0  0  0  0  0  0  0  0  0  0
   41.4890   31.6400   39.9840 C   0  0  0  0  0  0  0  0  0  0  0  0
   41.7620   32.3940   41.1290 C   0  0  0  0  0  0  0  0  0  0  0  0
   40.8070   33.3110   41.3110 N   0  0  0  0  0  0  0  0  0  0  0  0
   39.9190   33.1940   40.3410 N   0  0  0  0  0  0  0  0  0  0  0  0
   37.5310   30.3815   41.9851 H   0  0  0  0  0  0  0  0  0  0  0  0
   37.6120   29.4082   44.2426 H   0  0  0  0  0  0  0  0  0  0  0  0
   37.3478   26.9514   44.5138 H   0  0  0  0  0  0  0  0  0  0  0  0
   37.0094   24.7957   43.5379 H   0  0  0  0  0  0  0  0  0  0  0  0
   36.6705   23.3157   41.5616 H   0  0  0  0  0  0  0  0  0  0  0  0
   36.6091   24.4340   39.3110 H   0  0  0  0  0  0  0  0  0  0  0  0
   36.8750   26.8384   39.1115 H   0  0  0  0  0  0  0  0  0  0  0  0
   35.3618   28.6791   38.7657 H   0  0  0  0  0  0  0  0  0  0  0  0
   35.6232   30.1602   36.7690 H   0  0  0  0  0  0  0  0  0  0  0  0
   42.0706   30.8115   39.5535 H   0  0  0  0  0  0  0  0  0  0  0  0
   42.6345   32.2533   41.7839 H   0  0  0  0  0  0  0  0  0  0  0  0
   40.7699   33.9952   42.0800 H   0  0  0  0  0  0  0  0  0  0  0  0
  1 10  1  0
  1  2  2  0
  2  3  1  0
  3  4  2  0
  5  6  2  0
  5  4  1  0
  7  6  1  0
  8  7  2  0
  9  8  1  0
  9 10  2  0
 10  5  1  0
 11  1  1  0
 12 11  2  0
 13 12  1  0
 14 13  2  0
 14 15  1  0
 15 16  2  0
 16 11  1  0
 17 15  1  0
 17 19  1  0
 18 17  2  0
 19 20  1  0
 19 23  2  0
 20 21  2  0
 21 22  1  0
 23 22  1  0
  2 24  1  0
  3 25  1  0
  4 26  1  0
  6 27  1  0
  7 28  1  0
  8 29  1  0
  9 30  1  0
 12 31  1  0
 13 32  1  0
 20 33  1  0
 21 34  1  0
 22 35  1  0
M  ISO  8  24  14  25  14  26  14  27  14  28  14  29  14  30  14  31  14
M  ISO  4  32  14  33  14  34  14  35   9
M  END
>  <minimizedAffinity>  (1) 
-6.1109786

>  <minimizedRMSD>  (1) 
1.41003394

$$$$
