
     RDKit          3D

 44 47  0  0  0  0  0  0  0  0999 V2000
   37.2370   28.4360   41.2300 C   0  0  0  0  0  0  0  0  0  0  0  0
   37.3590   29.0470   42.5020 C   0  0  0  0  0  0  0  0  0  0  0  0
   37.3100   28.3440   43.7000 C   0  0  0  0  0  0  0  0  0  0  0  0
   37.1320   26.9660   43.6560 C   0  0  0  0  0  0  0  0  0  0  0  0
   37.0090   26.3300   42.4410 C   0  0  0  0  0  0  0  0  0  0  0  0
   36.8330   24.9670   42.3790 C   0  0  0  0  0  0  0  0  0  0  0  0
   36.7070   24.2810   41.1970 C   0  0  0  0  0  0  0  0  0  0  0  0
   36.7680   25.0660   40.0570 C   0  0  0  0  0  0  0  0  0  0  0  0
   36.9420   26.4150   40.1290 C   0  0  0  0  0  0  0  0  0  0  0  0
   37.0670   27.0900   41.2960 C   0  0  0  0  0  0  0  0  0  0  0  0
   37.3130   29.3260   40.1320 C   0  0  0  0  0  0  0  0  0  0  0  0
   36.3900   29.5850   39.1000 C   0  0  0  0  0  0  0  0  0  0  0  0
   36.6130   30.5180   38.0960 C   0  0  0  0  0  0  0  0  0  0  0  0
   37.8110   31.1850   38.1670 N   0  0  0  0  0  0  0  0  0  0  0  0
   38.6960   30.9620   39.1230 C   0  0  0  0  0  0  0  0  0  0  0  0
   38.4500   30.0520   40.0810 N   0  0  0  0  0  0  0  0  0  0  0  0
   39.9460   31.7150   39.1020 C   0  0  0  0  0  0  0  0  0  0  0  0
   40.2050   32.5170   38.1720 O   0  0  0  0  0  0  0  0  0  0  0  0
   40.9240   31.5040   40.2300 C   0  0  0  0  0  0  0  0  0  0  0  0
   42.0190   32.5170   40.0520 C   0  0  0  0  0  0  0  0  0  0  0  0
   42.6210   32.9660   41.3500 C   0  0  0  0  0  0  0  0  0  0  0  0
   42.6400   31.8870   42.4030 C   0  0  0  0  0  0  0  0  0  0  0  0
   41.2880   31.2470   42.6030 C   0  0  0  0  0  0  0  0  0  0  0  0
   40.2880   31.7280   41.5610 C   0  0  0  0  0  0  0  0  0  0  0  0
   37.5002   30.1371   42.5440 H   0  0  0  0  0  0  0  0  0  0  0  0
   37.4100   28.8669   44.6626 H   0  0  0  0  0  0  0  0  0  0  0  0
   37.0895   26.3853   44.5893 H   0  0  0  0  0  0  0  0  0  0  0  0
   36.7913   24.4004   43.3209 H   0  0  0  0  0  0  0  0  0  0  0  0
   36.5681   23.1905   41.1577 H   0  0  0  0  0  0  0  0  0  0  0  0
   36.6737   24.5886   39.0705 H   0  0  0  0  0  0  0  0  0  0  0  0
   36.9831   26.9860   39.1897 H   0  0  0  0  0  0  0  0  0  0  0  0
   35.4460   29.0204   39.0888 H   0  0  0  0  0  0  0  0  0  0  0  0
   35.8801   30.7096   37.2984 H   0  0  0  0  0  0  0  0  0  0  0  0
   41.2954   30.4689   40.2027 H   0  0  0  0  0  0  0  0  0  0  0  0
   42.8120   32.0705   39.4341 H   0  0  0  0  0  0  0  0  0  0  0  0
   41.5732   33.4015   39.5736 H   0  0  0  0  0  0  0  0  0  0  0  0
   43.6557   33.2887   41.1620 H   0  0  0  0  0  0  0  0  0  0  0  0
   41.9949   33.7850   41.7337 H   0  0  0  0  0  0  0  0  0  0  0  0
   43.3560   31.1097   42.0979 H   0  0  0  0  0  0  0  0  0  0  0  0
   42.9307   32.3556   43.3548 H   0  0  0  0  0  0  0  0  0  0  0  0
   41.3930   30.1551   42.5214 H   0  0  0  0  0  0  0  0  0  0  0  0
   40.9145   31.5291   43.5984 H   0  0  0  0  0  0  0  0  0  0  0  0
   40.0737   32.7973   41.7049 H   0  0  0  0  0  0  0  0  0  0  0  0
   39.3348   31.1851   41.6434 H   0  0  0  0  0  0  0  0  0  0  0  0
  1 10  1  0
  1  2  2  0
  2  3  1  0
  4  3  2  0
  5  4  1  0
  6  5  2  0
  7  6  1  0
  8  9  1  0
  8  7  2  0
  9 10  2  0
 10  5  1  0
 11  1  1  0
 12 11  2  0
 13 14  2  0
 13 12  1  0
 14 15  1  0
 15 16  2  0
 16 11  1  0
 17 15  1  0
 17 19  1  0
 18 17  2  0
 19 24  1  0
 20 19  1  0
 20 21  1  0
 21 22  1  0
 22 23  1  0
 24 23  1  0
  2 25  1  0
  3 26  1  0
  4 27  1  0
  6 28  1  0
  7 29  1  0
  8 30  1  0
  9 31  1  0
 12 32  1  0
 13 33  1  0
 19 34  1  0
 20 35  1  0
 20 36  1  0
 21 37  1  0
 21 38  1  0
 22 39  1  0
 22 40  1  0
 23 41  1  0
 23 42  1  0
 24 43  1  0
 24 44  1  0
M  ISO  8  25  14  26  14  27  14  28  14  29  14  30  14  31  14  32  14
M  ISO  8  33  14  34  13  35  13  36  13  37  13  38  13  39  13  40  13
M  ISO  4  41  13  42  13  43  13  44  13
M  END
>  <minimizedAffinity>  (1) 
-6.02920771

>  <minimizedRMSD>  (1) 
1.1002754

$$$$
