
     RDKit          3D

 41 44  0  0  0  0  0  0  0  0999 V2000
   37.2590   28.5740   40.9560 C   0  0  0  0  0  0  0  0  0  0  0  0
   37.4530   29.3190   42.1380 C   0  0  0  0  0  0  0  0  0  0  0  0
   37.4940   28.7630   43.4050 C   0  0  0  0  0  0  0  0  0  0  0  0
   37.3360   27.3840   43.5300 C   0  0  0  0  0  0  0  0  0  0  0  0
   37.1430   26.6110   42.4040 C   0  0  0  0  0  0  0  0  0  0  0  0
   36.9890   25.2480   42.5240 C   0  0  0  0  0  0  0  0  0  0  0  0
   36.7980   24.4380   41.4330 C   0  0  0  0  0  0  0  0  0  0  0  0
   36.7730   25.0880   40.2120 C   0  0  0  0  0  0  0  0  0  0  0  0
   36.9290   26.4400   40.1180 C   0  0  0  0  0  0  0  0  0  0  0  0
   37.1170   27.2410   41.1980 C   0  0  0  0  0  0  0  0  0  0  0  0
   37.2470   29.3330   39.7580 C   0  0  0  0  0  0  0  0  0  0  0  0
   36.3100   29.3800   38.7230 C   0  0  0  0  0  0  0  0  0  0  0  0
   36.4350   30.2070   37.6040 C   0  0  0  0  0  0  0  0  0  0  0  0
   37.5570   30.9840   37.5800 N   0  0  0  0  0  0  0  0  0  0  0  0
   38.4690   30.9610   38.5490 C   0  0  0  0  0  0  0  0  0  0  0  0
   38.3080   30.1530   39.6040 N   0  0  0  0  0  0  0  0  0  0  0  0
   39.6370   31.8260   38.4280 C   0  0  0  0  0  0  0  0  0  0  0  0
   40.2480   31.9330   37.3300 O   0  0  0  0  0  0  0  0  0  0  0  0
   40.0940   32.5760   39.6210 C   0  0  0  0  0  0  0  0  0  0  0  0
   41.4060   31.9770   40.0860 C   0  0  0  0  0  0  0  0  0  0  0  0
   41.9440   33.0730   40.9790 C   0  0  0  0  0  0  0  0  0  0  0  0
   41.2090   34.3480   40.6160 C   0  0  0  0  0  0  0  0  0  0  0  0
   40.4770   33.9870   39.3240 C   0  0  0  0  0  0  0  0  0  0  0  0
   37.5794   30.4080   42.0474 H   0  0  0  0  0  0  0  0  0  0  0  0
   37.6477   29.3947   44.2923 H   0  0  0  0  0  0  0  0  0  0  0  0
   37.3651   26.9133   44.5238 H   0  0  0  0  0  0  0  0  0  0  0  0
   37.0201   24.7943   43.5256 H   0  0  0  0  0  0  0  0  0  0  0  0
   36.6736   23.3488   41.5229 H   0  0  0  0  0  0  0  0  0  0  0  0
   36.6236   24.5002   39.2943 H   0  0  0  0  0  0  0  0  0  0  0  0
   36.9012   26.9029   39.1205 H   0  0  0  0  0  0  0  0  0  0  0  0
   35.4252   28.7302   38.7929 H   0  0  0  0  0  0  0  0  0  0  0  0
   35.6839   30.2303   36.8007 H   0  0  0  0  0  0  0  0  0  0  0  0
   39.2594   32.5307   40.3361 H   0  0  0  0  0  0  0  0  0  0  0  0
   41.2446   31.0451   40.6477 H   0  0  0  0  0  0  0  0  0  0  0  0
   42.0838   31.6957   39.2666 H   0  0  0  0  0  0  0  0  0  0  0  0
   41.7638   32.8216   42.0346 H   0  0  0  0  0  0  0  0  0  0  0  0
   43.0283   33.1939   40.8389 H   0  0  0  0  0  0  0  0  0  0  0  0
   40.4964   34.6287   41.4056 H   0  0  0  0  0  0  0  0  0  0  0  0
   41.8821   35.2101   40.4987 H   0  0  0  0  0  0  0  0  0  0  0  0
   41.1396   34.0533   38.4485 H   0  0  0  0  0  0  0  0  0  0  0  0
   39.6360   34.6491   39.0705 H   0  0  0  0  0  0  0  0  0  0  0  0
  1 10  1  0
  1  2  2  0
  2  3  1  0
  3  4  2  0
  5  6  2  0
  5  4  1  0
  7  6  1  0
  8  7  2  0
  9  8  1  0
  9 10  2  0
 10  5  1  0
 11  1  1  0
 12 11  2  0
 13 12  1  0
 14 13  2  0
 14 15  1  0
 15 16  2  0
 16 11  1  0
 17 15  1  0
 17 19  1  0
 18 17  2  0
 19 20  1  0
 20 21  1  0
 22 21  1  0
 23 19  1  0
 23 22  1  0
  2 24  1  0
  3 25  1  0
  4 26  1  0
  6 27  1  0
  7 28  1  0
  8 29  1  0
  9 30  1  0
 12 31  1  0
 13 32  1  0
 19 33  1  0
 20 34  1  0
 20 35  1  0
 21 36  1  0
 21 37  1  0
 22 38  1  0
 22 39  1  0
 23 40  1  0
 23 41  1  0
M  ISO  8  24  14  25  14  26  14  27  14  28  14  29  14  30  14  31  14
M  ISO  8  32  14  33  13  34  13  35  13  36  13  37  13  38  13  39  13
M  ISO  2  40  13  41  13
M  END
>  <minimizedAffinity>  (1) 
-6.00233221

>  <minimizedRMSD>  (1) 
2.01156902

$$$$
