
     RDKit          3D

 35 38  0  0  0  0  0  0  0  0999 V2000
   37.2060   28.4870   40.9950 C   0  0  0  0  0  0  0  0  0  0  0  0
   37.3870   29.1870   42.2120 C   0  0  0  0  0  0  0  0  0  0  0  0
   37.4250   28.5860   43.4600 C   0  0  0  0  0  0  0  0  0  0  0  0
   37.2780   27.2020   43.5260 C   0  0  0  0  0  0  0  0  0  0  0  0
   37.1010   26.4840   42.3720 C   0  0  0  0  0  0  0  0  0  0  0  0
   36.9520   25.1110   42.4230 C   0  0  0  0  0  0  0  0  0  0  0  0
   36.7710   24.3340   41.3060 C   0  0  0  0  0  0  0  0  0  0  0  0
   36.7460   25.0320   40.1060 C   0  0  0  0  0  0  0  0  0  0  0  0
   36.8950   26.3890   40.0690 C   0  0  0  0  0  0  0  0  0  0  0  0
   37.0720   27.1460   41.1760 C   0  0  0  0  0  0  0  0  0  0  0  0
   37.1930   29.2940   39.8360 C   0  0  0  0  0  0  0  0  0  0  0  0
   36.2890   29.3130   38.7500 C   0  0  0  0  0  0  0  0  0  0  0  0
   36.4060   30.2010   37.6800 C   0  0  0  0  0  0  0  0  0  0  0  0
   37.4640   31.0600   37.7520 N   0  0  0  0  0  0  0  0  0  0  0  0
   38.3360   31.0660   38.7650 C   0  0  0  0  0  0  0  0  0  0  0  0
   38.1910   30.2000   39.7710 N   0  0  0  0  0  0  0  0  0  0  0  0
   39.4250   32.0360   38.7280 C   0  0  0  0  0  0  0  0  0  0  0  0
   40.1100   32.2070   37.6850 O   0  0  0  0  0  0  0  0  0  0  0  0
   39.8150   32.8800   39.8700 C   0  0  0  0  0  0  0  0  0  0  0  0
   38.9390   33.2320   40.9830 C   0  0  0  0  0  0  0  0  0  0  0  0
   39.0640   34.2370   39.9040 C   0  0  0  0  0  0  0  0  0  0  0  0
   37.5052   30.2796   42.1638 H   0  0  0  0  0  0  0  0  0  0  0  0
   37.5671   29.1842   44.3721 H   0  0  0  0  0  0  0  0  0  0  0  0
   37.3038   26.6886   44.4985 H   0  0  0  0  0  0  0  0  0  0  0  0
   36.9798   24.6173   43.4056 H   0  0  0  0  0  0  0  0  0  0  0  0
   36.6546   23.2414   41.3576 H   0  0  0  0  0  0  0  0  0  0  0  0
   36.6031   24.4803   39.1652 H   0  0  0  0  0  0  0  0  0  0  0  0
   36.8698   26.8913   39.0907 H   0  0  0  0  0  0  0  0  0  0  0  0
   35.4554   28.5953   38.7480 H   0  0  0  0  0  0  0  0  0  0  0  0
   35.6967   30.2081   36.8392 H   0  0  0  0  0  0  0  0  0  0  0  0
   40.8355   32.4694   39.8632 H   0  0  0  0  0  0  0  0  0  0  0  0
   37.9880   32.6944   41.1119 H   0  0  0  0  0  0  0  0  0  0  0  0
   39.0816   33.2723   42.0730 H   0  0  0  0  0  0  0  0  0  0  0  0
   39.6143   35.1737   40.0766 H   0  0  0  0  0  0  0  0  0  0  0  0
   38.3726   34.7766   39.2401 H   0  0  0  0  0  0  0  0  0  0  0  0
  1 10  1  0
  1  2  2  0
  2  3  1  0
  3  4  2  0
  5  6  2  0
  5  4  1  0
  7  6  1  0
  8  7  2  0
  9  8  1  0
  9 10  2  0
 10  5  1  0
 11  1  1  0
 12 11  2  0
 13 14  2  0
 13 12  1  0
 14 15  1  0
 15 16  2  0
 16 11  1  0
 17 15  1  0
 17 19  1  0
 18 17  2  0
 19 21  1  0
 19 20  1  0
 21 20  1  0
  2 22  1  0
  3 23  1  0
  4 24  1  0
  6 25  1  0
  7 26  1  0
  8 27  1  0
  9 28  1  0
 12 29  1  0
 13 30  1  0
 19 31  1  0
 20 32  1  0
 20 33  1  0
 21 34  1  0
 21 35  1  0
M  ISO  8  22  14  23  14  24  14  25  14  26  14  27  14  28  14  29  14
M  ISO  6  30  14  31  13  32  13  33  13  34  13  35  13
M  END
>  <minimizedAffinity>  (1) 
-5.82108355

>  <minimizedRMSD>  (1) 
1.46065414

$$$$
