
     RDKit          3D

 35 38  0  0  0  0  0  0  0  0999 V2000
   37.2410   28.4690   40.9700 C   0  0  0  0  0  0  0  0  0  0  0  0
   37.4220   29.2030   42.1580 C   0  0  0  0  0  0  0  0  0  0  0  0
   37.4480   28.6250   43.4240 C   0  0  0  0  0  0  0  0  0  0  0  0
   37.2890   27.2630   43.5290 C   0  0  0  0  0  0  0  0  0  0  0  0
   37.1060   26.4850   42.3920 C   0  0  0  0  0  0  0  0  0  0  0  0
   36.9480   25.1310   42.4860 C   0  0  0  0  0  0  0  0  0  0  0  0
   36.7670   24.3300   41.3880 C   0  0  0  0  0  0  0  0  0  0  0  0
   36.7560   24.9930   40.1830 C   0  0  0  0  0  0  0  0  0  0  0  0
   36.9140   26.3470   40.0980 C   0  0  0  0  0  0  0  0  0  0  0  0
   37.0920   27.1290   41.1820 C   0  0  0  0  0  0  0  0  0  0  0  0
   37.2430   29.2410   39.7780 C   0  0  0  0  0  0  0  0  0  0  0  0
   36.2690   29.4040   38.7900 C   0  0  0  0  0  0  0  0  0  0  0  0
   36.4190   30.2250   37.6820 C   0  0  0  0  0  0  0  0  0  0  0  0
   37.6240   30.8880   37.6120 N   0  0  0  0  0  0  0  0  0  0  0  0
   38.5700   30.7560   38.5350 C   0  0  0  0  0  0  0  0  0  0  0  0
   38.3730   29.9530   39.5820 N   0  0  0  0  0  0  0  0  0  0  0  0
   39.8010   31.5130   38.3570 C   0  0  0  0  0  0  0  0  0  0  0  0
   40.0700   32.1200   37.3060 O   0  0  0  0  0  0  0  0  0  0  0  0
   40.7390   31.5490   39.4570 C   0  0  0  0  0  0  0  0  0  0  0  0
   40.8010   32.4800   40.5220 C   0  0  0  0  0  0  0  0  0  0  0  0
   41.7990   32.2790   41.4360 C   0  0  0  0  0  0  0  0  0  0  0  0
   42.6990   31.2440   41.3490 C   0  0  0  0  0  0  0  0  0  0  0  0
   42.0730   30.4000   39.7390 S   0  0  0  0  0  0  0  0  0  0  0  0
   37.5498   30.2929   42.0814 H   0  0  0  0  0  0  0  0  0  0  0  0
   37.5926   29.2445   44.3214 H   0  0  0  0  0  0  0  0  0  0  0  0
   37.3068   26.7860   44.5200 H   0  0  0  0  0  0  0  0  0  0  0  0
   36.9668   24.6650   43.4823 H   0  0  0  0  0  0  0  0  0  0  0  0
   36.6402   23.2400   41.4650 H   0  0  0  0  0  0  0  0  0  0  0  0
   36.6155   24.4143   39.2582 H   0  0  0  0  0  0  0  0  0  0  0  0
   36.8953   26.8189   39.1045 H   0  0  0  0  0  0  0  0  0  0  0  0
   35.3261   28.8477   38.8971 H   0  0  0  0  0  0  0  0  0  0  0  0
   35.6357   30.3378   36.9180 H   0  0  0  0  0  0  0  0  0  0  0  0
   40.0897   33.3145   40.6092 H   0  0  0  0  0  0  0  0  0  0  0  0
   41.8851   32.9788   42.2803 H   0  0  0  0  0  0  0  0  0  0  0  0
   43.5363   30.9758   42.0101 H   0  0  0  0  0  0  0  0  0  0  0  0
  1 10  1  0
  1  2  2  0
  2  3  1  0
  3  4  2  0
  5  6  2  0
  5  4  1  0
  7  6  1  0
  8  7  2  0
  9  8  1  0
  9 10  2  0
 10  5  1  0
 11  1  1  0
 12 11  2  0
 13 12  1  0
 14 13  2  0
 14 15  1  0
 15 16  2  0
 16 11  1  0
 17 15  1  0
 17 19  1  0
 18 17  2  0
 19 23  1  0
 19 20  2  0
 20 21  1  0
 22 21  2  0
 23 22  1  0
  2 24  1  0
  3 25  1  0
  4 26  1  0
  6 27  1  0
  7 28  1  0
  8 29  1  0
  9 30  1  0
 12 31  1  0
 13 32  1  0
 20 33  1  0
 21 34  1  0
 22 35  1  0
M  ISO  8  24  14  25  14  26  14  27  14  28  14  29  14  30  14  31  14
M  ISO  4  32  14  33  14  34  14  35  14
M  END
>  <minimizedAffinity>  (1) 
-5.72810984

>  <minimizedRMSD>  (1) 
1.05022192

$$$$
