
     RDKit          3D

 38 41  0  0  0  0  0  0  0  0999 V2000
   37.2330   29.2390   39.7900 C   0  0  0  0  0  0  0  0  0  0  0  0
   36.2510   29.3880   38.7990 C   0  0  0  0  0  0  0  0  0  0  0  0
   36.4080   30.2170   37.6880 C   0  0  0  0  0  0  0  0  0  0  0  0
   37.5950   30.8850   37.6250 N   0  0  0  0  0  0  0  0  0  0  0  0
   38.5410   30.7650   38.5430 C   0  0  0  0  0  0  0  0  0  0  0  0
   38.3440   29.9630   39.5830 N   0  0  0  0  0  0  0  0  0  0  0  0
   37.2320   28.4670   40.9710 C   0  0  0  0  0  0  0  0  0  0  0  0
   37.4140   29.1930   42.1740 C   0  0  0  0  0  0  0  0  0  0  0  0
   37.4430   28.6250   43.4340 C   0  0  0  0  0  0  0  0  0  0  0  0
   37.2840   27.2430   43.5320 C   0  0  0  0  0  0  0  0  0  0  0  0
   37.1030   26.4780   42.3980 C   0  0  0  0  0  0  0  0  0  0  0  0
   36.9480   25.1260   42.4870 C   0  0  0  0  0  0  0  0  0  0  0  0
   36.7670   24.3240   41.3900 C   0  0  0  0  0  0  0  0  0  0  0  0
   36.7530   24.9880   40.1830 C   0  0  0  0  0  0  0  0  0  0  0  0
   36.9080   26.3410   40.0980 C   0  0  0  0  0  0  0  0  0  0  0  0
   37.0880   27.1340   41.1950 C   0  0  0  0  0  0  0  0  0  0  0  0
   39.7760   31.5330   38.3660 C   0  0  0  0  0  0  0  0  0  0  0  0
   40.0260   32.0980   37.2650 O   0  0  0  0  0  0  0  0  0  0  0  0
   40.8040   31.7250   39.3790 C   0  0  0  0  0  0  0  0  0  0  0  0
   40.8670   32.9530   40.0280 C   0  0  0  0  0  0  0  0  0  0  0  0
   41.8310   33.1950   41.0120 C   0  0  0  0  0  0  0  0  0  0  0  0
   42.7550   32.2220   41.3720 C   0  0  0  0  0  0  0  0  0  0  0  0
   42.6930   31.0140   40.7310 C   0  0  0  0  0  0  0  0  0  0  0  0
   41.7400   30.7910   39.7690 C   0  0  0  0  0  0  0  0  0  0  0  0
   35.3123   28.8241   38.9031 H   0  0  0  0  0  0  0  0  0  0  0  0
   35.6299   30.3241   36.9179 H   0  0  0  0  0  0  0  0  0  0  0  0
   37.5409   30.2832   42.1004 H   0  0  0  0  0  0  0  0  0  0  0  0
   37.5871   29.2441   44.3317 H   0  0  0  0  0  0  0  0  0  0  0  0
   37.3030   26.7596   44.5199 H   0  0  0  0  0  0  0  0  0  0  0  0
   36.9691   24.6586   43.4825 H   0  0  0  0  0  0  0  0  0  0  0  0
   36.6425   23.2338   41.4676 H   0  0  0  0  0  0  0  0  0  0  0  0
   36.6124   24.4090   39.2583 H   0  0  0  0  0  0  0  0  0  0  0  0
   36.8871   26.8126   39.1044 H   0  0  0  0  0  0  0  0  0  0  0  0
   40.1497   33.7441   39.7642 H   0  0  0  0  0  0  0  0  0  0  0  0
   41.8581   34.1751   41.5107 H   0  0  0  0  0  0  0  0  0  0  0  0
   43.5115   32.4159   42.1466 H   0  0  0  0  0  0  0  0  0  0  0  0
   43.4092   30.2196   40.9878 H   0  0  0  0  0  0  0  0  0  0  0  0
   41.7219   29.8064   39.2789 H   0  0  0  0  0  0  0  0  0  0  0  0
  1  7  1  0
  2  1  2  0
  3  2  1  0
  4  3  2  0
  4  5  1  0
  5  6  2  0
  6  1  1  0
  7 16  1  0
  7  8  2  0
  8  9  1  0
  9 10  2  0
 11 12  2  0
 11 10  1  0
 13 12  1  0
 14 13  2  0
 15 14  1  0
 15 16  2  0
 16 11  1  0
 17  5  1  0
 17 19  1  0
 18 17  2  0
 19 24  1  0
 19 20  2  0
 20 21  1  0
 21 22  2  0
 23 22  1  0
 24 23  2  0
  2 25  1  0
  3 26  1  0
  8 27  1  0
  9 28  1  0
 10 29  1  0
 12 30  1  0
 13 31  1  0
 14 32  1  0
 15 33  1  0
 20 34  1  0
 21 35  1  0
 22 36  1  0
 23 37  1  0
 24 38  1  0
M  ISO  8  25  14  26  14  27  14  28  14  29  14  30  14  31  14  32  14
M  ISO  6  33  14  34  14  35  14  36  14  37  14  38  14
M  END
>  <minimizedAffinity>  (1) 
-5.86122036

>  <minimizedRMSD>  (1) 
1.17709684

$$$$
