
     RDKit          3D

 48 52  0  0  0  0  0  0  0  0999 V2000
   37.5130   29.5380   39.8110 C   0  0  0  0  0  0  0  0  0  0  0  0
   36.5270   29.8610   38.8680 C   0  0  0  0  0  0  0  0  0  0  0  0
   36.7660   30.6660   37.7540 C   0  0  0  0  0  0  0  0  0  0  0  0
   38.0420   31.1330   37.6310 N   0  0  0  0  0  0  0  0  0  0  0  0
   38.9980   30.8470   38.5050 C   0  0  0  0  0  0  0  0  0  0  0  0
   38.7270   30.0750   39.5520 N   0  0  0  0  0  0  0  0  0  0  0  0
   37.4550   28.7640   40.9860 C   0  0  0  0  0  0  0  0  0  0  0  0
   37.6250   29.4690   42.1900 C   0  0  0  0  0  0  0  0  0  0  0  0
   37.6000   28.8870   43.4470 C   0  0  0  0  0  0  0  0  0  0  0  0
   37.3910   27.5140   43.5290 C   0  0  0  0  0  0  0  0  0  0  0  0
   37.2170   26.7680   42.3780 C   0  0  0  0  0  0  0  0  0  0  0  0
   37.0100   25.4210   42.4410 C   0  0  0  0  0  0  0  0  0  0  0  0
   36.8320   24.6380   41.3410 C   0  0  0  0  0  0  0  0  0  0  0  0
   36.8770   25.3160   40.1470 C   0  0  0  0  0  0  0  0  0  0  0  0
   37.0820   26.6640   40.0750 C   0  0  0  0  0  0  0  0  0  0  0  0
   37.2590   27.4340   41.1820 C   0  0  0  0  0  0  0  0  0  0  0  0
   40.3230   31.4110   38.2600 C   0  0  0  0  0  0  0  0  0  0  0  0
   40.5900   31.9810   37.1670 O   0  0  0  0  0  0  0  0  0  0  0  0
   41.4330   31.3820   39.2040 C   0  0  0  0  0  0  0  0  0  0  0  0
   42.2100   30.2320   39.2730 C   0  0  0  0  0  0  0  0  0  0  0  0
   43.2920   30.1370   40.1560 C   0  0  0  0  0  0  0  0  0  0  0  0
   43.6160   31.2000   40.9910 C   0  0  0  0  0  0  0  0  0  0  0  0
   42.8550   32.3260   40.9240 C   0  0  0  0  0  0  0  0  0  0  0  0
   41.8050   32.3910   40.0520 C   0  0  0  0  0  0  0  0  0  0  0  0
   41.0310   33.5920   40.0130 N   0  0  0  0  0  0  0  0  0  0  0  0
   39.8770   33.7130   40.7070 C   0  0  0  0  0  0  0  0  0  0  0  0
   39.0730   34.8340   40.7240 C   0  0  0  0  0  0  0  0  0  0  0  0
   39.5220   35.8900   39.9570 C   0  0  0  0  0  0  0  0  0  0  0  0
   38.8300   36.9400   39.9340 O   0  0  0  0  0  0  0  0  0  0  0  0
   40.6720   35.8150   39.2460 N   0  0  0  0  0  0  0  0  0  0  0  0
   41.3870   34.6750   39.2960 C   0  0  0  0  0  0  0  0  0  0  0  0
   42.4470   34.6500   38.6200 O   0  0  0  0  0  0  0  0  0  0  0  0
   35.5135   29.4592   39.0140 H   0  0  0  0  0  0  0  0  0  0  0  0
   35.9791   30.9078   37.0244 H   0  0  0  0  0  0  0  0  0  0  0  0
   37.7888   30.5551   42.1303 H   0  0  0  0  0  0  0  0  0  0  0  0
   37.7413   29.4930   44.3541 H   0  0  0  0  0  0  0  0  0  0  0  0
   37.3641   27.0208   44.5119 H   0  0  0  0  0  0  0  0  0  0  0  0
   36.9856   24.9427   43.4313 H   0  0  0  0  0  0  0  0  0  0  0  0
   36.6659   23.5524   41.4034 H   0  0  0  0  0  0  0  0  0  0  0  0
   36.7427   24.7510   39.2128 H   0  0  0  0  0  0  0  0  0  0  0  0
   37.1048   27.1446   39.0858 H   0  0  0  0  0  0  0  0  0  0  0  0
   41.9700   29.3794   38.6208 H   0  0  0  0  0  0  0  0  0  0  0  0
   43.8902   29.2145   40.1893 H   0  0  0  0  0  0  0  0  0  0  0  0
   44.4649   31.1327   41.6873 H   0  0  0  0  0  0  0  0  0  0  0  0
   43.0852   33.1844   41.5722 H   0  0  0  0  0  0  0  0  0  0  0  0
   39.5534   32.8488   41.3058 H   0  0  0  0  0  0  0  0  0  0  0  0
   38.1413   34.8827   41.3068 H   0  0  0  0  0  0  0  0  0  0  0  0
   40.9930   36.6128   38.6791 H   0  0  0  0  0  0  0  0  0  0  0  0
  1  7  1  0
  2  1  2  0
  3  2  1  0
  4  3  2  0
  4  5  1  0
  5  6  2  0
  6  1  1  0
  7 16  1  0
  7  8  2  0
  8  9  1  0
  9 10  2  0
 11 12  2  0
 11 10  1  0
 13 12  1  0
 14 13  2  0
 15 14  1  0
 15 16  2  0
 16 11  1  0
 17  5  1  0
 17 19  1  0
 18 17  2  0
 19 20  2  0
 19 24  1  0
 20 21  1  0
 21 22  2  0
 23 22  1  0
 24 23  2  0
 25 24  1  0
 25 26  1  0
 26 27  2  0
 28 27  1  0
 29 28  2  0
 30 31  1  0
 30 28  1  0
 31 25  1  0
 32 31  2  0
  2 33  1  0
  3 34  1  0
  8 35  1  0
  9 36  1  0
 10 37  1  0
 12 38  1  0
 13 39  1  0
 14 40  1  0
 15 41  1  0
 20 42  1  0
 21 43  1  0
 22 44  1  0
 23 45  1  0
 26 46  1  0
 27 47  1  0
 30 48  1  0
M  ISO  8  33  14  34  14  35  14  36  14  37  14  38  14  39  14  40  14
M  ISO  8  41  14  42  14  43  14  44  14  45  14  46  14  47  14  48   9
M  END
>  <minimizedAffinity>  (1) 
-7.44067144

>  <minimizedRMSD>  (1) 
4.05371428

$$$$
