
     RDKit          3D

 40 43  0  0  0  0  0  0  0  0999 V2000
   37.1860   29.2500   39.8090 C   0  0  0  0  0  0  0  0  0  0  0  0
   36.1860   29.4080   38.8330 C   0  0  0  0  0  0  0  0  0  0  0  0
   36.3330   30.2400   37.7220 C   0  0  0  0  0  0  0  0  0  0  0  0
   37.5230   30.9030   37.6350 N   0  0  0  0  0  0  0  0  0  0  0  0
   38.4860   30.7760   38.5390 C   0  0  0  0  0  0  0  0  0  0  0  0
   38.3090   29.9710   39.5880 N   0  0  0  0  0  0  0  0  0  0  0  0
   37.2110   28.4790   40.9880 C   0  0  0  0  0  0  0  0  0  0  0  0
   37.3990   29.2060   42.1840 C   0  0  0  0  0  0  0  0  0  0  0  0
   37.4510   28.6300   43.4420 C   0  0  0  0  0  0  0  0  0  0  0  0
   37.3070   27.2460   43.5350 C   0  0  0  0  0  0  0  0  0  0  0  0
   37.1210   26.4860   42.4010 C   0  0  0  0  0  0  0  0  0  0  0  0
   36.9800   25.1310   42.4780 C   0  0  0  0  0  0  0  0  0  0  0  0
   36.7930   24.3360   41.3900 C   0  0  0  0  0  0  0  0  0  0  0  0
   36.7580   25.0070   40.1920 C   0  0  0  0  0  0  0  0  0  0  0  0
   36.9000   26.3620   40.1100 C   0  0  0  0  0  0  0  0  0  0  0  0
   37.0850   27.1440   41.2030 C   0  0  0  0  0  0  0  0  0  0  0  0
   39.7090   31.5440   38.3280 C   0  0  0  0  0  0  0  0  0  0  0  0
   39.9800   32.0400   37.2070 O   0  0  0  0  0  0  0  0  0  0  0  0
   40.7140   31.8110   39.3540 C   0  0  0  0  0  0  0  0  0  0  0  0
   40.7680   33.0770   39.9100 C   0  0  0  0  0  0  0  0  0  0  0  0
   41.7110   33.3850   40.8960 C   0  0  0  0  0  0  0  0  0  0  0  0
   42.6190   32.4510   41.3530 C   0  0  0  0  0  0  0  0  0  0  0  0
   42.5630   31.2090   40.8040 C   0  0  0  0  0  0  0  0  0  0  0  0
   41.6350   30.9170   39.8380 C   0  0  0  0  0  0  0  0  0  0  0  0
   41.5960   29.6020   39.2750 N   0  0  0  0  0  0  0  0  0  0  0  0
   35.2451   28.8505   38.9505 H   0  0  0  0  0  0  0  0  0  0  0  0
   35.5419   30.3539   36.9662 H   0  0  0  0  0  0  0  0  0  0  0  0
   37.5111   30.2979   42.1117 H   0  0  0  0  0  0  0  0  0  0  0  0
   37.6014   29.2456   44.3411 H   0  0  0  0  0  0  0  0  0  0  0  0
   37.3422   26.7580   44.5202 H   0  0  0  0  0  0  0  0  0  0  0  0
   37.0195   24.6575   43.4701 H   0  0  0  0  0  0  0  0  0  0  0  0
   36.6791   23.2444   41.4637 H   0  0  0  0  0  0  0  0  0  0  0  0
   36.6103   24.4320   39.2659 H   0  0  0  0  0  0  0  0  0  0  0  0
   36.8630   26.8384   39.1192 H   0  0  0  0  0  0  0  0  0  0  0  0
   40.0615   33.8497   39.5728 H   0  0  0  0  0  0  0  0  0  0  0  0
   41.7296   34.4001   41.3192 H   0  0  0  0  0  0  0  0  0  0  0  0
   43.3571   32.7016   42.1292 H   0  0  0  0  0  0  0  0  0  0  0  0
   43.2673   30.4325   41.1371 H   0  0  0  0  0  0  0  0  0  0  0  0
   42.2615   28.8844   39.5960 H   0  0  0  0  0  0  0  0  0  0  0  0
   40.9024   29.3731   38.5487 H   0  0  0  0  0  0  0  0  0  0  0  0
  1  7  1  0
  2  1  2  0
  3  2  1  0
  4  3  2  0
  4  5  1  0
  5  6  2  0
  6  1  1  0
  7 16  1  0
  7  8  2  0
  8  9  1  0
  9 10  2  0
 11 12  2  0
 11 10  1  0
 13 12  1  0
 14 13  2  0
 15 14  1  0
 15 16  2  0
 16 11  1  0
 17  5  1  0
 17 19  1  0
 18 17  2  0
 19 24  1  0
 19 20  2  0
 20 21  1  0
 21 22  2  0
 23 22  1  0
 24 23  2  0
 25 24  1  0
  2 26  1  0
  3 27  1  0
  8 28  1  0
  9 29  1  0
 10 30  1  0
 12 31  1  0
 13 32  1  0
 14 33  1  0
 15 34  1  0
 20 35  1  0
 21 36  1  0
 22 37  1  0
 23 38  1  0
 25 39  1  0
 25 40  1  0
M  ISO  8  26  14  27  14  28  14  29  14  30  14  31  14  32  14  33  14
M  ISO  5  34  14  35  14  36  14  37  14  38  14
M  END
>  <minimizedAffinity>  (1) 
-5.96773624

>  <minimizedRMSD>  (1) 
0.120097518

$$$$
