
     RDKit          3D

 41 44  0  0  0  0  0  0  0  0999 V2000
   37.2180   29.2500   39.7180 C   0  0  0  0  0  0  0  0  0  0  0  0
   36.2460   29.3480   38.7060 C   0  0  0  0  0  0  0  0  0  0  0  0
   36.4060   30.1380   37.5670 C   0  0  0  0  0  0  0  0  0  0  0  0
   37.5710   30.8210   37.4840 N   0  0  0  0  0  0  0  0  0  0  0  0
   38.5090   30.7580   38.4110 C   0  0  0  0  0  0  0  0  0  0  0  0
   38.3100   29.9980   39.4690 N   0  0  0  0  0  0  0  0  0  0  0  0
   37.2260   28.5240   40.9200 C   0  0  0  0  0  0  0  0  0  0  0  0
   37.4140   29.2890   42.0810 C   0  0  0  0  0  0  0  0  0  0  0  0
   37.4600   28.7580   43.3680 C   0  0  0  0  0  0  0  0  0  0  0  0
   37.3140   27.3780   43.5100 C   0  0  0  0  0  0  0  0  0  0  0  0
   37.1280   26.5770   42.4080 C   0  0  0  0  0  0  0  0  0  0  0  0
   36.9790   25.2410   42.5400 C   0  0  0  0  0  0  0  0  0  0  0  0
   36.7820   24.3870   41.4710 C   0  0  0  0  0  0  0  0  0  0  0  0
   36.7510   25.0200   40.2500 C   0  0  0  0  0  0  0  0  0  0  0  0
   36.9010   26.3720   40.1120 C   0  0  0  0  0  0  0  0  0  0  0  0
   37.0950   27.1950   41.1770 C   0  0  0  0  0  0  0  0  0  0  0  0
   39.7440   31.5300   38.2220 C   0  0  0  0  0  0  0  0  0  0  0  0
   39.8720   32.2680   37.1950 O   0  0  0  0  0  0  0  0  0  0  0  0
   40.8910   31.5490   39.1200 C   0  0  0  0  0  0  0  0  0  0  0  0
   40.8310   32.4240   40.2150 C   0  0  0  0  0  0  0  0  0  0  0  0
   41.8880   32.4900   41.1310 C   0  0  0  0  0  0  0  0  0  0  0  0
   43.0090   31.7010   40.9820 C   0  0  0  0  0  0  0  0  0  0  0  0
   43.0470   30.8490   39.8990 C   0  0  0  0  0  0  0  0  0  0  0  0
   42.0100   30.7710   38.9810 C   0  0  0  0  0  0  0  0  0  0  0  0
   42.2290   29.8530   37.8430 C   0  0  0  0  0  0  0  0  0  0  0  0
   41.0800   29.0330   37.7720 F   0  0  0  0  0  0  0  0  0  0  0  0
   43.3130   29.0620   37.8730 F   0  0  0  0  0  0  0  0  0  0  0  0
   42.1680   30.5900   36.6450 F   0  0  0  0  0  0  0  0  0  0  0  0
   35.3144   28.7739   38.8179 H   0  0  0  0  0  0  0  0  0  0  0  0
   35.6339   30.2015   36.7861 H   0  0  0  0  0  0  0  0  0  0  0  0
   37.5326   30.3767   41.9678 H   0  0  0  0  0  0  0  0  0  0  0  0
   37.6068   29.4063   44.2445 H   0  0  0  0  0  0  0  0  0  0  0  0
   37.3480   26.9266   44.5125 H   0  0  0  0  0  0  0  0  0  0  0  0
   37.0164   24.8099   43.5513 H   0  0  0  0  0  0  0  0  0  0  0  0
   36.6610   23.2998   41.5862 H   0  0  0  0  0  0  0  0  0  0  0  0
   36.5990   24.4123   39.3458 H   0  0  0  0  0  0  0  0  0  0  0  0
   36.8634   26.8096   39.1035 H   0  0  0  0  0  0  0  0  0  0  0  0
   39.9468   33.0631   40.3550 H   0  0  0  0  0  0  0  0  0  0  0  0
   41.8230   33.1825   41.9832 H   0  0  0  0  0  0  0  0  0  0  0  0
   43.8411   31.7496   41.6998 H   0  0  0  0  0  0  0  0  0  0  0  0
   43.9303   30.2088   39.7579 H   0  0  0  0  0  0  0  0  0  0  0  0
  1  7  1  0
  2  1  2  0
  3  2  1  0
  4  3  2  0
  4  5  1  0
  5  6  2  0
  6  1  1  0
  7 16  1  0
  7  8  2  0
  8  9  1  0
  9 10  2  0
 11 12  2  0
 11 10  1  0
 13 12  1  0
 14 13  2  0
 15 14  1  0
 15 16  2  0
 16 11  1  0
 17  5  1  0
 17 19  1  0
 18 17  2  0
 19 20  2  0
 20 21  1  0
 22 21  2  0
 23 22  1  0
 24 19  1  0
 24 23  2  0
 25 27  1  0
 25 24  1  0
 26 25  1  0
 28 25  1  0
  2 29  1  0
  3 30  1  0
  8 31  1  0
  9 32  1  0
 10 33  1  0
 12 34  1  0
 13 35  1  0
 14 36  1  0
 15 37  1  0
 20 38  1  0
 21 39  1  0
 22 40  1  0
 23 41  1  0
M  ISO  8  29  14  30  14  31  14  32  14  33  14  34  14  35  14  36  14
M  ISO  5  37  14  38  14  39  14  40  14  41  14
M  END
>  <minimizedAffinity>  (1) 
-5.94135237

>  <minimizedRMSD>  (1) 
0.73270756

$$$$
