
     RDKit          3D

 41 44  0  0  0  0  0  0  0  0999 V2000
   37.2320   29.2420   39.7830 C   0  0  0  0  0  0  0  0  0  0  0  0
   36.2540   29.3940   38.7910 C   0  0  0  0  0  0  0  0  0  0  0  0
   36.4120   30.2100   37.6750 C   0  0  0  0  0  0  0  0  0  0  0  0
   37.5970   30.8680   37.5960 N   0  0  0  0  0  0  0  0  0  0  0  0
   38.5480   30.7500   38.5130 C   0  0  0  0  0  0  0  0  0  0  0  0
   38.3550   29.9620   39.5610 N   0  0  0  0  0  0  0  0  0  0  0  0
   37.2380   28.4810   40.9660 C   0  0  0  0  0  0  0  0  0  0  0  0
   37.4260   29.2090   42.1540 C   0  0  0  0  0  0  0  0  0  0  0  0
   37.4630   28.6430   43.4200 C   0  0  0  0  0  0  0  0  0  0  0  0
   37.3050   27.2690   43.5240 C   0  0  0  0  0  0  0  0  0  0  0  0
   37.1170   26.4990   42.3910 C   0  0  0  0  0  0  0  0  0  0  0  0
   36.9600   25.1400   42.4820 C   0  0  0  0  0  0  0  0  0  0  0  0
   36.7740   24.3410   41.3970 C   0  0  0  0  0  0  0  0  0  0  0  0
   36.7530   25.0030   40.1900 C   0  0  0  0  0  0  0  0  0  0  0  0
   36.9080   26.3550   40.0900 C   0  0  0  0  0  0  0  0  0  0  0  0
   37.0940   27.1410   41.1860 C   0  0  0  0  0  0  0  0  0  0  0  0
   39.7790   31.5130   38.3150 C   0  0  0  0  0  0  0  0  0  0  0  0
   40.0010   32.1240   37.2380 O   0  0  0  0  0  0  0  0  0  0  0  0
   40.8510   31.6490   39.3060 C   0  0  0  0  0  0  0  0  0  0  0  0
   40.7920   32.7170   40.1930 C   0  0  0  0  0  0  0  0  0  0  0  0
   41.7850   32.9010   41.1610 C   0  0  0  0  0  0  0  0  0  0  0  0
   42.8570   32.0240   41.2670 C   0  0  0  0  0  0  0  0  0  0  0  0
   42.9080   30.9760   40.3910 C   0  0  0  0  0  0  0  0  0  0  0  0
   41.9250   30.8130   39.4480 C   0  0  0  0  0  0  0  0  0  0  0  0
   42.0140   29.6610   38.5120 C   0  0  0  0  0  0  0  0  0  0  0  0
   35.3109   28.8385   38.9004 H   0  0  0  0  0  0  0  0  0  0  0  0
   35.6298   30.3149   36.9087 H   0  0  0  0  0  0  0  0  0  0  0  0
   37.5520   30.2989   42.0744 H   0  0  0  0  0  0  0  0  0  0  0  0
   37.6131   29.2653   44.3146 H   0  0  0  0  0  0  0  0  0  0  0  0
   37.3294   26.7891   44.5135 H   0  0  0  0  0  0  0  0  0  0  0  0
   36.9856   24.6744   43.4783 H   0  0  0  0  0  0  0  0  0  0  0  0
   36.6500   23.2510   41.4776 H   0  0  0  0  0  0  0  0  0  0  0  0
   36.6054   24.4188   39.2697 H   0  0  0  0  0  0  0  0  0  0  0  0
   36.8819   26.8234   39.0951 H   0  0  0  0  0  0  0  0  0  0  0  0
   39.9538   33.4268   40.1332 H   0  0  0  0  0  0  0  0  0  0  0  0
   41.7157   33.7553   41.8504 H   0  0  0  0  0  0  0  0  0  0  0  0
   43.6372   32.1678   42.0289 H   0  0  0  0  0  0  0  0  0  0  0  0
   43.7413   30.2598   40.4424 H   0  0  0  0  0  0  0  0  0  0  0  0
   42.0862   28.7261   39.0871 H   0  0  0  0  0  0  0  0  0  0  0  0
   41.1153   29.6332   37.8783 H   0  0  0  0  0  0  0  0  0  0  0  0
   42.9063   29.7716   37.8783 H   0  0  0  0  0  0  0  0  0  0  0  0
  1  7  1  0
  2  1  2  0
  3  2  1  0
  4  3  2  0
  4  5  1  0
  5  6  2  0
  6  1  1  0
  7 16  1  0
  7  8  2  0
  8  9  1  0
  9 10  2  0
 11 12  2  0
 11 10  1  0
 13 12  1  0
 14 13  2  0
 15 14  1  0
 15 16  2  0
 16 11  1  0
 17  5  1  0
 17 19  1  0
 18 17  2  0
 19 24  1  0
 19 20  2  0
 20 21  1  0
 21 22  2  0
 23 22  1  0
 24 23  2  0
 25 24  1  0
  2 26  1  0
  3 27  1  0
  8 28  1  0
  9 29  1  0
 10 30  1  0
 12 31  1  0
 13 32  1  0
 14 33  1  0
 15 34  1  0
 20 35  1  0
 21 36  1  0
 22 37  1  0
 23 38  1  0
 25 39  1  0
 25 40  1  0
 25 41  1  0
M  ISO  8  26  14  27  14  28  14  29  14  30  14  31  14  32  14  33  14
M  ISO  8  34  14  35  14  36  14  37  14  38  14  39   8  40   8  41   8
M  END
>  <minimizedAffinity>  (1) 
-5.92182016

>  <minimizedRMSD>  (1) 
0.207301259

$$$$
