
     RDKit          3D

 21 23  0  0  0  0  0  0  0  0999 V2000
   40.0740   27.8640   43.1710 C   0  0  0  0  0  0  0  0  0  0  0  0
   39.1020   27.0590   43.8120 C   0  0  0  0  0  0  0  0  0  0  0  0
   37.7610   27.4180   43.6680 C   0  0  0  0  0  0  0  0  0  0  0  0
   37.4590   28.5260   42.9150 N   0  0  0  0  0  0  0  0  0  0  0  0
   38.4180   29.2690   42.3180 C   0  0  0  0  0  0  0  0  0  0  0  0
   39.7200   28.9460   42.4410 N   0  0  0  0  0  0  0  0  0  0  0  0
   37.9270   30.3840   41.5750 N   0  0  0  0  0  0  0  0  0  0  0  0
   36.6190   30.4160   41.2460 C   0  0  0  0  0  0  0  0  0  0  0  0
   36.3980   31.5650   40.5490 N   0  0  0  0  0  0  0  0  0  0  0  0
   37.5440   32.2580   40.4330 C   0  0  0  0  0  0  0  0  0  0  0  0
   38.0040   33.4360   39.8810 C   0  0  0  0  0  0  0  0  0  0  0  0
   39.2990   33.8230   39.9730 N   0  0  0  0  0  0  0  0  0  0  0  0
   40.1830   33.0250   40.6310 C   0  0  0  0  0  0  0  0  0  0  0  0
   39.7760   31.8680   41.1830 N   0  0  0  0  0  0  0  0  0  0  0  0
   38.4950   31.5000   41.0840 C   0  0  0  0  0  0  0  0  0  0  0  0
   41.1384   27.6043   43.2686 H   0  0  0  0  0  0  0  0  0  0  0  0
   39.3940   26.1792   44.4043 H   0  0  0  0  0  0  0  0  0  0  0  0
   36.9653   26.8278   44.1460 H   0  0  0  0  0  0  0  0  0  0  0  0
   35.8674   29.6526   41.4955 H   0  0  0  0  0  0  0  0  0  0  0  0
   37.2936   34.0842   39.3470 H   0  0  0  0  0  0  0  0  0  0  0  0
   41.2373   33.3280   40.7120 H   0  0  0  0  0  0  0  0  0  0  0  0
  1  2  2  0
  3  2  1  0
  4  3  2  0
  5  6  2  0
  5  4  1  0
  6  1  1  0
  7  5  1  0
  8  7  1  0
  9  8  2  0
 10  9  1  0
 10 15  2  0
 11 12  2  0
 11 10  1  0
 12 13  1  0
 13 14  2  0
 15 14  1  0
 15  7  1  0
  1 16  1  0
  2 17  1  0
  3 18  1  0
  8 19  1  0
 11 20  1  0
 13 21  1  0
M  ISO  6  16  14  17  14  18  14  19  14  20  14  21  14
M  END
>  <minimizedAffinity>  (1) 
-4.68901014

>  <minimizedRMSD>  (1) 
2.44858289

$$$$
