
     RDKit          3D

 32 35  0  0  0  0  0  0  0  0999 V2000
   40.0420   27.8550   43.1870 C   0  0  0  0  0  0  0  0  0  0  0  0
   39.2030   26.8730   43.7920 C   0  0  0  0  0  0  0  0  0  0  0  0
   37.8390   26.9290   43.5550 C   0  0  0  0  0  0  0  0  0  0  0  0
   37.3870   27.9330   42.7480 N   0  0  0  0  0  0  0  0  0  0  0  0
   38.1970   28.8520   42.1850 C   0  0  0  0  0  0  0  0  0  0  0  0
   39.5360   28.8300   42.3940 N   0  0  0  0  0  0  0  0  0  0  0  0
   37.5260   29.8150   41.3770 N   0  0  0  0  0  0  0  0  0  0  0  0
   36.2760   29.5600   40.9670 C   0  0  0  0  0  0  0  0  0  0  0  0
   35.8610   30.6230   40.2170 N   0  0  0  0  0  0  0  0  0  0  0  0
   36.8490   31.5480   40.1540 C   0  0  0  0  0  0  0  0  0  0  0  0
   37.0740   32.7830   39.5900 C   0  0  0  0  0  0  0  0  0  0  0  0
   38.2470   33.4410   39.7510 N   0  0  0  0  0  0  0  0  0  0  0  0
   39.2310   32.8670   40.4890 C   0  0  0  0  0  0  0  0  0  0  0  0
   39.0310   31.6640   41.0450 N   0  0  0  0  0  0  0  0  0  0  0  0
   37.8820   31.0190   40.8890 C   0  0  0  0  0  0  0  0  0  0  0  0
   40.5040   33.4820   40.7160 N   0  0  0  0  0  0  0  0  0  0  0  0
   41.5470   32.7020   41.0620 C   0  0  0  0  0  0  0  0  0  0  0  0
   42.7720   33.3370   41.2750 C   0  0  0  0  0  0  0  0  0  0  0  0
   42.8780   34.7110   41.1300 C   0  0  0  0  0  0  0  0  0  0  0  0
   44.1470   35.3430   41.3540 N   0  0  0  0  0  0  0  0  0  0  0  0
   41.8150   35.4780   40.7820 N   0  0  0  0  0  0  0  0  0  0  0  0
   40.6340   34.8290   40.5800 C   0  0  0  0  0  0  0  0  0  0  0  0
   39.6410   35.5510   40.2530 O   0  0  0  0  0  0  0  0  0  0  0  0
   41.1263   27.8199   43.3687 H   0  0  0  0  0  0  0  0  0  0  0  0
   39.6298   26.0877   44.4332 H   0  0  0  0  0  0  0  0  0  0  0  0
   37.1495   26.1955   43.9984 H   0  0  0  0  0  0  0  0  0  0  0  0
   35.6899   28.6572   41.1937 H   0  0  0  0  0  0  0  0  0  0  0  0
   36.2780   33.2494   38.9909 H   0  0  0  0  0  0  0  0  0  0  0  0
   41.4380   31.6129   41.1718 H   0  0  0  0  0  0  0  0  0  0  0  0
   43.6549   32.7453   41.5585 H   0  0  0  0  0  0  0  0  0  0  0  0
   44.2397   36.3635   41.2496 H   0  0  0  0  0  0  0  0  0  0  0  0
   44.9650   34.7760   41.6191 H   0  0  0  0  0  0  0  0  0  0  0  0
  1  2  2  0
  3  2  1  0
  4  3  2  0
  5  6  2  0
  5  4  1  0
  6  1  1  0
  7  5  1  0
  8  7  1  0
  9  8  2  0
 10  9  1  0
 10 15  2  0
 11 12  2  0
 11 10  1  0
 12 13  1  0
 13 16  1  0
 13 14  2  0
 15 14  1  0
 15  7  1  0
 16 17  1  0
 17 18  2  0
 19 18  1  0
 19 20  1  0
 21 19  2  0
 22 16  1  0
 22 21  1  0
 23 22  2  0
  1 24  1  0
  2 25  1  0
  3 26  1  0
  8 27  1  0
 11 28  1  0
 17 29  1  0
 18 30  1  0
 20 31  1  0
 20 32  1  0
M  ISO  7  24  14  25  14  26  14  27  14  28  14  29  14  30  14
M  END
>  <minimizedAffinity>  (1) 
-6.72432423

>  <minimizedRMSD>  (1) 
1.0376581

$$$$
