
     RDKit          3D

 28 31  0  0  0  0  0  0  0  0999 V2000
   40.0990   27.9010   43.1660 C   0  0  0  0  0  0  0  0  0  0  0  0
   39.1460   27.0810   43.7980 C   0  0  0  0  0  0  0  0  0  0  0  0
   37.8110   27.4250   43.6430 C   0  0  0  0  0  0  0  0  0  0  0  0
   37.5090   28.5260   42.8960 N   0  0  0  0  0  0  0  0  0  0  0  0
   38.4520   29.2950   42.2990 C   0  0  0  0  0  0  0  0  0  0  0  0
   39.7620   28.9920   42.4280 N   0  0  0  0  0  0  0  0  0  0  0  0
   37.9470   30.3980   41.5640 N   0  0  0  0  0  0  0  0  0  0  0  0
   36.6440   30.4120   41.2410 C   0  0  0  0  0  0  0  0  0  0  0  0
   36.3990   31.5590   40.5450 N   0  0  0  0  0  0  0  0  0  0  0  0
   37.5430   32.2680   40.4250 C   0  0  0  0  0  0  0  0  0  0  0  0
   37.9690   33.4480   39.8720 C   0  0  0  0  0  0  0  0  0  0  0  0
   39.2650   33.8510   39.9610 N   0  0  0  0  0  0  0  0  0  0  0  0
   40.1490   33.0630   40.6120 C   0  0  0  0  0  0  0  0  0  0  0  0
   39.7800   31.9050   41.1680 N   0  0  0  0  0  0  0  0  0  0  0  0
   38.4940   31.5180   41.0730 C   0  0  0  0  0  0  0  0  0  0  0  0
   41.5240   33.5480   40.6740 C   0  0  0  0  0  0  0  0  0  0  0  0
   42.6050   33.3180   39.8470 C   0  0  0  0  0  0  0  0  0  0  0  0
   43.6950   33.9600   40.2620 N   0  0  0  0  0  0  0  0  0  0  0  0
   43.3120   34.6250   41.3900 C   0  0  0  0  0  0  0  0  0  0  0  0
   42.0070   34.3670   41.6220 N   0  0  0  0  0  0  0  0  0  0  0  0
   41.1641   27.6481   43.2738 H   0  0  0  0  0  0  0  0  0  0  0  0
   39.4469   26.2041   44.3900 H   0  0  0  0  0  0  0  0  0  0  0  0
   37.0161   26.8253   44.1105 H   0  0  0  0  0  0  0  0  0  0  0  0
   35.9056   29.6366   41.4928 H   0  0  0  0  0  0  0  0  0  0  0  0
   37.2445   34.0847   39.3431 H   0  0  0  0  0  0  0  0  0  0  0  0
   42.5700   32.6801   38.9515 H   0  0  0  0  0  0  0  0  0  0  0  0
   43.9589   35.2651   42.0079 H   0  0  0  0  0  0  0  0  0  0  0  0
   41.4619   34.7434   42.4107 H   0  0  0  0  0  0  0  0  0  0  0  0
  1  2  2  0
  3  2  1  0
  4  3  2  0
  5  6  2  0
  5  4  1  0
  6  1  1  0
  7  5  1  0
  8  7  1  0
  9  8  2  0
 10  9  1  0
 10 15  2  0
 11 12  2  0
 11 10  1  0
 12 13  1  0
 13 16  1  0
 13 14  2  0
 15 14  1  0
 15  7  1  0
 16 20  1  0
 17 18  1  0
 17 16  2  0
 18 19  2  0
 19 20  1  0
  1 21  1  0
  2 22  1  0
  3 23  1  0
  8 24  1  0
 11 25  1  0
 17 26  1  0
 19 27  1  0
 20 28  1  0
M  ISO  8  21  14  22  14  23  14  24  14  25  14  26  14  27  14  28   9
M  END
>  <minimizedAffinity>  (1) 
-5.82298231

>  <minimizedRMSD>  (1) 
0.101320721

$$$$
