
     RDKit          3D

 29 32  0  0  0  0  0  0  0  0999 V2000
   39.9140   27.8060   43.1810 C   0  0  0  0  0  0  0  0  0  0  0  0
   38.8880   27.0920   43.8340 C   0  0  0  0  0  0  0  0  0  0  0  0
   37.5890   27.5550   43.6880 C   0  0  0  0  0  0  0  0  0  0  0  0
   37.3810   28.6680   42.9250 N   0  0  0  0  0  0  0  0  0  0  0  0
   38.3730   29.3340   42.3120 C   0  0  0  0  0  0  0  0  0  0  0  0
   39.6390   28.9040   42.4380 N   0  0  0  0  0  0  0  0  0  0  0  0
   37.9590   30.4680   41.5640 N   0  0  0  0  0  0  0  0  0  0  0  0
   36.6640   30.5960   41.2330 C   0  0  0  0  0  0  0  0  0  0  0  0
   36.5290   31.7480   40.5280 N   0  0  0  0  0  0  0  0  0  0  0  0
   37.7270   32.3610   40.4050 C   0  0  0  0  0  0  0  0  0  0  0  0
   38.2630   33.4970   39.8420 C   0  0  0  0  0  0  0  0  0  0  0  0
   39.5900   33.7860   39.9340 N   0  0  0  0  0  0  0  0  0  0  0  0
   40.3950   32.9270   40.5980 C   0  0  0  0  0  0  0  0  0  0  0  0
   39.9200   31.8120   41.1600 N   0  0  0  0  0  0  0  0  0  0  0  0
   38.6150   31.5340   41.0650 C   0  0  0  0  0  0  0  0  0  0  0  0
   41.8160   33.2310   40.6990 C   0  0  0  0  0  0  0  0  0  0  0  0
   42.5060   33.7470   39.6250 C   0  0  0  0  0  0  0  0  0  0  0  0
   43.8690   34.0510   39.6830 C   0  0  0  0  0  0  0  0  0  0  0  0
   44.4670   33.8080   40.8590 N   0  0  0  0  0  0  0  0  0  0  0  0
   43.8120   33.3030   41.9220 C   0  0  0  0  0  0  0  0  0  0  0  0
   42.5070   33.0230   41.8330 N   0  0  0  0  0  0  0  0  0  0  0  0
   40.9554   27.4651   43.2769 H   0  0  0  0  0  0  0  0  0  0  0  0
   39.1102   26.1997   44.4376 H   0  0  0  0  0  0  0  0  0  0  0  0
   36.7480   27.0390   44.1743 H   0  0  0  0  0  0  0  0  0  0  0  0
   35.8570   29.8931   41.4876 H   0  0  0  0  0  0  0  0  0  0  0  0
   37.6007   34.1904   39.3029 H   0  0  0  0  0  0  0  0  0  0  0  0
   41.9636   33.9269   38.6851 H   0  0  0  0  0  0  0  0  0  0  0  0
   44.4152   34.4623   38.8213 H   0  0  0  0  0  0  0  0  0  0  0  0
   44.3504   33.1207   42.8637 H   0  0  0  0  0  0  0  0  0  0  0  0
  1  2  2  0
  3  2  1  0
  4  3  2  0
  5  6  2  0
  5  4  1  0
  6  1  1  0
  7  5  1  0
  8  7  1  0
  9  8  2  0
 10  9  1  0
 10 15  2  0
 11 12  2  0
 11 10  1  0
 12 13  1  0
 13 16  1  0
 13 14  2  0
 15 14  1  0
 15  7  1  0
 16 21  2  0
 17 18  2  0
 17 16  1  0
 18 19  1  0
 19 20  2  0
 21 20  1  0
  1 22  1  0
  2 23  1  0
  3 24  1  0
  8 25  1  0
 11 26  1  0
 17 27  1  0
 18 28  1  0
 20 29  1  0
M  ISO  8  22  14  23  14  24  14  25  14  26  14  27  14  28  14  29  14
M  END
>  <minimizedAffinity>  (1) 
-5.59061909

>  <minimizedRMSD>  (1) 
0.277218163

$$$$
