
     RDKit          3D

 27 30  0  0  0  0  0  0  0  0999 V2000
   40.0410   27.8700   43.1660 C   0  0  0  0  0  0  0  0  0  0  0  0
   39.0600   27.0610   43.8010 C   0  0  0  0  0  0  0  0  0  0  0  0
   37.7290   27.4180   43.6480 C   0  0  0  0  0  0  0  0  0  0  0  0
   37.4220   28.5290   42.8980 N   0  0  0  0  0  0  0  0  0  0  0  0
   38.3920   29.2740   42.3080 C   0  0  0  0  0  0  0  0  0  0  0  0
   39.7040   28.9550   42.4350 N   0  0  0  0  0  0  0  0  0  0  0  0
   37.9110   30.3920   41.5630 N   0  0  0  0  0  0  0  0  0  0  0  0
   36.6160   30.4400   41.2270 C   0  0  0  0  0  0  0  0  0  0  0  0
   36.4300   31.5900   40.5350 N   0  0  0  0  0  0  0  0  0  0  0  0
   37.5750   32.2680   40.4270 C   0  0  0  0  0  0  0  0  0  0  0  0
   38.0410   33.4370   39.8800 C   0  0  0  0  0  0  0  0  0  0  0  0
   39.3320   33.8190   39.9720 N   0  0  0  0  0  0  0  0  0  0  0  0
   40.2030   33.0170   40.6330 C   0  0  0  0  0  0  0  0  0  0  0  0
   39.7920   31.8640   41.1840 N   0  0  0  0  0  0  0  0  0  0  0  0
   38.5100   31.5070   41.0780 C   0  0  0  0  0  0  0  0  0  0  0  0
   41.6380   33.3480   40.7880 C   0  0  0  0  0  0  0  0  0  0  0  0
   42.3530   34.1930   39.9940 C   0  0  0  0  0  0  0  0  0  0  0  0
   44.0100   34.1410   40.7310 S   0  0  0  0  0  0  0  0  0  0  0  0
   43.4210   32.9160   42.0640 C   0  0  0  0  0  0  0  0  0  0  0  0
   42.3390   32.8070   41.7650 N   0  0  0  0  0  0  0  0  0  0  0  0
   41.1034   27.6055   43.2726 H   0  0  0  0  0  0  0  0  0  0  0  0
   39.3473   26.1805   44.3944 H   0  0  0  0  0  0  0  0  0  0  0  0
   36.9324   26.8229   44.1184 H   0  0  0  0  0  0  0  0  0  0  0  0
   35.8490   29.6889   41.4670 H   0  0  0  0  0  0  0  0  0  0  0  0
   37.3342   34.0886   39.3453 H   0  0  0  0  0  0  0  0  0  0  0  0
   42.0098   34.7663   39.1202 H   0  0  0  0  0  0  0  0  0  0  0  0
   43.9771   32.4482   42.8898 H   0  0  0  0  0  0  0  0  0  0  0  0
  1  2  2  0
  3  2  1  0
  4  3  2  0
  5  6  2  0
  5  4  1  0
  6  1  1  0
  7  5  1  0
  8  7  1  0
  9  8  2  0
 10  9  1  0
 10 15  2  0
 11 12  2  0
 11 10  1  0
 12 13  1  0
 13 16  1  0
 13 14  2  0
 15 14  1  0
 15  7  1  0
 16 20  1  0
 17 18  1  0
 17 16  2  0
 18 19  1  0
 20 19  2  0
  1 21  1  0
  2 22  1  0
  3 23  1  0
  8 24  1  0
 11 25  1  0
 17 26  1  0
 19 27  1  0
M  ISO  7  21  14  22  14  23  14  24  14  25  14  26  14  27  14
M  END
>  <minimizedAffinity>  (1) 
-5.5148344

>  <minimizedRMSD>  (1) 
0.249997988

$$$$
