
     RDKit          3D

 33 35  0  0  0  0  0  0  0  0999 V2000
   40.1340   27.9090   43.1000 C   0  0  0  0  0  0  0  0  0  0  0  0
   39.1590   27.1460   43.7670 C   0  0  0  0  0  0  0  0  0  0  0  0
   37.8270   27.5290   43.6630 C   0  0  0  0  0  0  0  0  0  0  0  0
   37.5250   28.6420   42.9110 N   0  0  0  0  0  0  0  0  0  0  0  0
   38.4830   29.3530   42.2830 C   0  0  0  0  0  0  0  0  0  0  0  0
   39.7800   28.9910   42.3760 N   0  0  0  0  0  0  0  0  0  0  0  0
   38.0000   30.4760   41.5460 N   0  0  0  0  0  0  0  0  0  0  0  0
   36.6890   30.5480   41.2500 C   0  0  0  0  0  0  0  0  0  0  0  0
   36.4860   31.6920   40.5550 N   0  0  0  0  0  0  0  0  0  0  0  0
   37.6450   32.3530   40.4010 C   0  0  0  0  0  0  0  0  0  0  0  0
   38.1230   33.5170   39.8270 C   0  0  0  0  0  0  0  0  0  0  0  0
   39.4320   33.8640   39.8830 N   0  0  0  0  0  0  0  0  0  0  0  0
   40.2960   33.0430   40.5210 C   0  0  0  0  0  0  0  0  0  0  0  0
   39.8770   31.9050   41.0920 N   0  0  0  0  0  0  0  0  0  0  0  0
   38.5870   31.5720   41.0320 C   0  0  0  0  0  0  0  0  0  0  0  0
   41.7380   33.4080   40.5930 C   0  0  0  0  0  0  0  0  0  0  0  0
   41.8920   34.8950   40.8070 C   0  0  0  0  0  0  0  0  0  0  0  0
   42.3990   32.6000   41.6950 C   0  0  0  0  0  0  0  0  0  0  0  0
   42.3570   33.0820   39.2470 C   0  0  0  0  0  0  0  0  0  0  0  0
   41.1935   27.6214   43.1691 H   0  0  0  0  0  0  0  0  0  0  0  0
   39.4447   26.2640   44.3590 H   0  0  0  0  0  0  0  0  0  0  0  0
   37.0345   26.9576   44.1685 H   0  0  0  0  0  0  0  0  0  0  0  0
   35.9206   29.8100   41.5236 H   0  0  0  0  0  0  0  0  0  0  0  0
   37.4178   34.1829   39.3081 H   0  0  0  0  0  0  0  0  0  0  0  0
   41.9143   35.1099   41.8856 H   0  0  0  0  0  0  0  0  0  0  0  0
   42.8303   35.2366   40.3456 H   0  0  0  0  0  0  0  0  0  0  0  0
   41.0436   35.4216   40.3456 H   0  0  0  0  0  0  0  0  0  0  0  0
   42.0819   32.9876   42.6744 H   0  0  0  0  0  0  0  0  0  0  0  0
   42.1019   31.5448   41.6046 H   0  0  0  0  0  0  0  0  0  0  0  0
   43.4922   32.6821   41.6046 H   0  0  0  0  0  0  0  0  0  0  0  0
   43.3208   32.5744   39.4000 H   0  0  0  0  0  0  0  0  0  0  0  0
   41.6810   32.4229   38.6825 H   0  0  0  0  0  0  0  0  0  0  0  0
   42.5180   34.0123   38.6825 H   0  0  0  0  0  0  0  0  0  0  0  0
  1  2  2  0
  3  2  1  0
  4  3  2  0
  5  6  2  0
  5  4  1  0
  6  1  1  0
  7  5  1  0
  8  7  1  0
  9  8  2  0
 10  9  1  0
 10 15  2  0
 11 12  2  0
 11 10  1  0
 12 13  1  0
 13 16  1  0
 13 14  2  0
 15 14  1  0
 15  7  1  0
 16 17  1  0
 16 18  1  0
 19 16  1  0
  1 20  1  0
  2 21  1  0
  3 22  1  0
  8 23  1  0
 11 24  1  0
 17 25  1  0
 17 26  1  0
 17 27  1  0
 18 28  1  0
 18 29  1  0
 18 30  1  0
 19 31  1  0
 19 32  1  0
 19 33  1  0
M  ISO  8  20  14  21  14  22  14  23  14  24  14  25   8  26   8  27   8
M  ISO  6  28   8  29   8  30   8  31   8  32   8  33   8
M  END
>  <minimizedAffinity>  (1) 
-5.29056406

>  <minimizedRMSD>  (1) 
0.178394541

$$$$
