
     RDKit          3D

 30 32  0  0  0  0  0  0  0  0999 V2000
   40.5860   28.1600   43.0280 C   0  0  0  0  0  0  0  0  0  0  0  0
   39.7710   27.2220   43.6950 C   0  0  0  0  0  0  0  0  0  0  0  0
   38.3900   27.3740   43.6060 C   0  0  0  0  0  0  0  0  0  0  0  0
   37.8830   28.4220   42.8800 N   0  0  0  0  0  0  0  0  0  0  0  0
   38.7020   29.3030   42.2530 C   0  0  0  0  0  0  0  0  0  0  0  0
   40.0500   29.1820   42.3200 N   0  0  0  0  0  0  0  0  0  0  0  0
   38.0160   30.3290   41.5430 N   0  0  0  0  0  0  0  0  0  0  0  0
   36.7190   30.1770   41.2520 C   0  0  0  0  0  0  0  0  0  0  0  0
   36.3110   31.2800   40.5830 N   0  0  0  0  0  0  0  0  0  0  0  0
   37.3430   32.1440   40.4400 C   0  0  0  0  0  0  0  0  0  0  0  0
   37.5820   33.3780   39.8870 C   0  0  0  0  0  0  0  0  0  0  0  0
   38.8050   33.9540   39.9440 N   0  0  0  0  0  0  0  0  0  0  0  0
   39.8140   33.2920   40.5620 C   0  0  0  0  0  0  0  0  0  0  0  0
   39.6120   32.0900   41.1100 N   0  0  0  0  0  0  0  0  0  0  0  0
   38.4030   31.5260   41.0500 C   0  0  0  0  0  0  0  0  0  0  0  0
   41.1510   33.9480   40.6110 C   0  0  0  0  0  0  0  0  0  0  0  0
   42.2880   32.9880   40.7210 C   0  0  0  0  0  0  0  0  0  0  0  0
   41.2450   34.8240   39.3710 C   0  0  0  0  0  0  0  0  0  0  0  0
   41.6799   28.0592   43.0842 H   0  0  0  0  0  0  0  0  0  0  0  0
   40.2136   26.3944   44.2688 H   0  0  0  0  0  0  0  0  0  0  0  0
   37.7162   26.6653   44.1096 H   0  0  0  0  0  0  0  0  0  0  0  0
   36.0949   29.3090   41.5108 H   0  0  0  0  0  0  0  0  0  0  0  0
   36.7601   33.9106   39.3861 H   0  0  0  0  0  0  0  0  0  0  0  0
   41.2380   34.5493   41.5280 H   0  0  0  0  0  0  0  0  0  0  0  0
   42.5090   32.8014   41.7823 H   0  0  0  0  0  0  0  0  0  0  0  0
   42.0172   32.0412   40.2309 H   0  0  0  0  0  0  0  0  0  0  0  0
   43.1760   33.4137   40.2309 H   0  0  0  0  0  0  0  0  0  0  0  0
   41.3579   35.8758   39.6728 H   0  0  0  0  0  0  0  0  0  0  0  0
   42.1156   34.5190   38.7718 H   0  0  0  0  0  0  0  0  0  0  0  0
   40.3295   34.7107   38.7718 H   0  0  0  0  0  0  0  0  0  0  0  0
  1  2  2  0
  3  2  1  0
  4  3  2  0
  5  6  2  0
  5  4  1  0
  6  1  1  0
  7  5  1  0
  8  7  1  0
  9  8  2  0
 10  9  1  0
 10 15  2  0
 11 12  2  0
 11 10  1  0
 12 13  1  0
 13 16  1  0
 13 14  2  0
 15 14  1  0
 15  7  1  0
 16 17  1  0
 18 16  1  0
  1 19  1  0
  2 20  1  0
  3 21  1  0
  8 22  1  0
 11 23  1  0
 16 24  1  0
 17 25  1  0
 17 26  1  0
 17 27  1  0
 18 28  1  0
 18 29  1  0
 18 30  1  0
M  ISO  8  19  14  20  14  21  14  22  14  23  14  24   8  25   8  26   8
M  ISO  4  27   8  28   8  29   8  30   8
M  END
>  <minimizedAffinity>  (1) 
-5.18935299

>  <minimizedRMSD>  (1) 
0.568899572

$$$$
