
     RDKit          3D

 27 29  0  0  0  0  0  0  0  0999 V2000
   40.1250   27.8850   43.1610 C   0  0  0  0  0  0  0  0  0  0  0  0
   39.1780   27.0820   43.8330 C   0  0  0  0  0  0  0  0  0  0  0  0
   37.8330   27.4270   43.7180 C   0  0  0  0  0  0  0  0  0  0  0  0
   37.4970   28.5220   42.9610 N   0  0  0  0  0  0  0  0  0  0  0  0
   38.4330   29.2670   42.3320 C   0  0  0  0  0  0  0  0  0  0  0  0
   39.7490   28.9620   42.4220 N   0  0  0  0  0  0  0  0  0  0  0  0
   37.9050   30.3660   41.5920 N   0  0  0  0  0  0  0  0  0  0  0  0
   36.6020   30.3740   41.2860 C   0  0  0  0  0  0  0  0  0  0  0  0
   36.3410   31.5050   40.5890 N   0  0  0  0  0  0  0  0  0  0  0  0
   37.4740   32.2280   40.4450 C   0  0  0  0  0  0  0  0  0  0  0  0
   37.9000   33.4060   39.8800 C   0  0  0  0  0  0  0  0  0  0  0  0
   39.1900   33.8050   39.9550 N   0  0  0  0  0  0  0  0  0  0  0  0
   40.0980   33.0350   40.5970 C   0  0  0  0  0  0  0  0  0  0  0  0
   39.7290   31.8820   41.1600 N   0  0  0  0  0  0  0  0  0  0  0  0
   38.4560   31.4870   41.0880 C   0  0  0  0  0  0  0  0  0  0  0  0
   41.5390   33.4340   40.7070 C   0  0  0  0  0  0  0  0  0  0  0  0
   41.6340   34.9530   40.6040 C   0  0  0  0  0  0  0  0  0  0  0  0
   41.1930   27.6329   43.2373 H   0  0  0  0  0  0  0  0  0  0  0  0
   39.4919   26.2119   44.4283 H   0  0  0  0  0  0  0  0  0  0  0  0
   37.0563   26.8342   44.2233 H   0  0  0  0  0  0  0  0  0  0  0  0
   35.8708   29.5972   41.5540 H   0  0  0  0  0  0  0  0  0  0  0  0
   37.1727   34.0410   39.3529 H   0  0  0  0  0  0  0  0  0  0  0  0
   41.9422   33.1025   41.6753 H   0  0  0  0  0  0  0  0  0  0  0  0
   42.1207   32.9660   39.8991 H   0  0  0  0  0  0  0  0  0  0  0  0
   41.6612   35.3880   41.6140 H   0  0  0  0  0  0  0  0  0  0  0  0
   42.5510   35.2271   40.0619 H   0  0  0  0  0  0  0  0  0  0  0  0
   40.7583   35.3392   40.0619 H   0  0  0  0  0  0  0  0  0  0  0  0
  1  2  2  0
  3  2  1  0
  4  3  2  0
  5  6  2  0
  5  4  1  0
  6  1  1  0
  7  5  1  0
  8  7  1  0
  9  8  2  0
 10  9  1  0
 10 15  2  0
 11 12  2  0
 11 10  1  0
 12 13  1  0
 13 16  1  0
 13 14  2  0
 15 14  1  0
 15  7  1  0
 17 16  1  0
  1 18  1  0
  2 19  1  0
  3 20  1  0
  8 21  1  0
 11 22  1  0
 16 23  1  0
 16 24  1  0
 17 25  1  0
 17 26  1  0
 17 27  1  0
M  ISO  8  18  14  19  14  20  14  21  14  22  14  23   8  24   8  25   8
M  ISO  2  26   8  27   8
M  END
>  <minimizedAffinity>  (1) 
-5.00237703

>  <minimizedRMSD>  (1) 
0.0910880715

$$$$
