
     RDKit          3D

 23 25  0  0  0  0  0  0  0  0999 V2000
   40.0580   27.8660   43.1640 C   0  0  0  0  0  0  0  0  0  0  0  0
   39.1060   27.0500   43.7990 C   0  0  0  0  0  0  0  0  0  0  0  0
   37.7730   27.4040   43.6650 C   0  0  0  0  0  0  0  0  0  0  0  0
   37.4410   28.5150   42.9320 N   0  0  0  0  0  0  0  0  0  0  0  0
   38.4030   29.2720   42.3380 C   0  0  0  0  0  0  0  0  0  0  0  0
   39.7230   28.9660   42.4400 N   0  0  0  0  0  0  0  0  0  0  0  0
   37.9100   30.3940   41.6060 N   0  0  0  0  0  0  0  0  0  0  0  0
   36.6070   30.4270   41.2700 C   0  0  0  0  0  0  0  0  0  0  0  0
   36.4010   31.5800   40.5880 N   0  0  0  0  0  0  0  0  0  0  0  0
   37.5380   32.2710   40.4880 C   0  0  0  0  0  0  0  0  0  0  0  0
   37.9910   33.4530   39.9510 C   0  0  0  0  0  0  0  0  0  0  0  0
   39.2760   33.8530   40.0460 N   0  0  0  0  0  0  0  0  0  0  0  0
   40.1570   33.0610   40.6970 C   0  0  0  0  0  0  0  0  0  0  0  0
   39.7600   31.8970   41.2370 N   0  0  0  0  0  0  0  0  0  0  0  0
   38.4900   31.5240   41.1300 C   0  0  0  0  0  0  0  0  0  0  0  0
   41.5100   33.4960   40.7890 N   0  0  0  0  0  0  0  0  0  0  0  0
   41.1219   27.6024   43.2573 H   0  0  0  0  0  0  0  0  0  0  0  0
   39.4071   26.1654   44.3794 H   0  0  0  0  0  0  0  0  0  0  0  0
   36.9878   26.7993   44.1423 H   0  0  0  0  0  0  0  0  0  0  0  0
   35.8518   29.6624   41.5047 H   0  0  0  0  0  0  0  0  0  0  0  0
   37.2756   34.0996   39.4217 H   0  0  0  0  0  0  0  0  0  0  0  0
   42.2056   32.9151   41.2786 H   0  0  0  0  0  0  0  0  0  0  0  0
   41.7930   34.3915   40.3660 H   0  0  0  0  0  0  0  0  0  0  0  0
  1  2  2  0
  3  2  1  0
  4  3  2  0
  5  6  2  0
  5  4  1  0
  6  1  1  0
  7  5  1  0
  8  7  1  0
  9  8  2  0
 10  9  1  0
 10 15  2  0
 11 12  2  0
 11 10  1  0
 12 13  1  0
 13 16  1  0
 13 14  2  0
 15 14  1  0
 15  7  1  0
  1 17  1  0
  2 18  1  0
  3 19  1  0
  8 20  1  0
 11 21  1  0
 16 22  1  0
 16 23  1  0
M  ISO  5  17  14  18  14  19  14  20  14  21  14
M  END
>  <minimizedAffinity>  (1) 
-4.98904133

>  <minimizedRMSD>  (1) 
0.0496235676

$$$$
