
     RDKit          3D

 23 25  0  0  0  0  0  0  0  0999 V2000
   40.0680   27.8820   43.1630 C   0  0  0  0  0  0  0  0  0  0  0  0
   39.0970   27.0640   43.8020 C   0  0  0  0  0  0  0  0  0  0  0  0
   37.7630   27.4110   43.6560 C   0  0  0  0  0  0  0  0  0  0  0  0
   37.4580   28.5150   42.9090 N   0  0  0  0  0  0  0  0  0  0  0  0
   38.4100   29.2740   42.3110 C   0  0  0  0  0  0  0  0  0  0  0  0
   39.7250   28.9640   42.4330 N   0  0  0  0  0  0  0  0  0  0  0  0
   37.9160   30.3890   41.5700 N   0  0  0  0  0  0  0  0  0  0  0  0
   36.6040   30.4150   41.2510 C   0  0  0  0  0  0  0  0  0  0  0  0
   36.3910   31.5570   40.5580 N   0  0  0  0  0  0  0  0  0  0  0  0
   37.5410   32.2550   40.4350 C   0  0  0  0  0  0  0  0  0  0  0  0
   37.9800   33.4300   39.8770 C   0  0  0  0  0  0  0  0  0  0  0  0
   39.2700   33.8170   39.9610 N   0  0  0  0  0  0  0  0  0  0  0  0
   40.1550   33.0280   40.6110 C   0  0  0  0  0  0  0  0  0  0  0  0
   39.7610   31.8710   41.1690 N   0  0  0  0  0  0  0  0  0  0  0  0
   38.4890   31.5000   41.0800 C   0  0  0  0  0  0  0  0  0  0  0  0
   41.5600   33.4000   40.7300 C   0  0  0  0  0  0  0  0  0  0  0  0
   41.9660   34.5870   40.8670 O   0  0  0  0  0  0  0  0  0  0  0  0
   41.1325   27.6250   43.2668 H   0  0  0  0  0  0  0  0  0  0  0  0
   39.3943   26.1849   44.3927 H   0  0  0  0  0  0  0  0  0  0  0  0
   36.9698   26.8134   44.1290 H   0  0  0  0  0  0  0  0  0  0  0  0
   35.8524   29.6533   41.5059 H   0  0  0  0  0  0  0  0  0  0  0  0
   37.2614   34.0728   39.3476 H   0  0  0  0  0  0  0  0  0  0  0  0
   42.3115   32.5973   40.6984 H   0  0  0  0  0  0  0  0  0  0  0  0
  1  2  2  0
  3  2  1  0
  4  3  2  0
  5  6  2  0
  5  4  1  0
  6  1  1  0
  7  5  1  0
  8  7  1  0
  9  8  2  0
 10  9  1  0
 10 15  2  0
 11 12  2  0
 11 10  1  0
 12 13  1  0
 13 16  1  0
 13 14  2  0
 15 14  1  0
 15  7  1  0
 16 17  2  0
  1 18  1  0
  2 19  1  0
  3 20  1  0
  8 21  1  0
 11 22  1  0
 16 23  1  0
M  ISO  6  18  14  19  14  20  14  21  14  22  14  23   6
M  END
>  <minimizedAffinity>  (1) 
-4.94318104

>  <minimizedRMSD>  (1) 
0.375047356

$$$$
