
     RDKit          3D

 22 24  0  0  0  0  0  0  0  0999 V2000
   40.0360   27.8630   43.1740 C   0  0  0  0  0  0  0  0  0  0  0  0
   39.0730   27.0630   43.8110 C   0  0  0  0  0  0  0  0  0  0  0  0
   37.7400   27.4180   43.6690 C   0  0  0  0  0  0  0  0  0  0  0  0
   37.4500   28.5240   42.9150 N   0  0  0  0  0  0  0  0  0  0  0  0
   38.4010   29.2740   42.3150 C   0  0  0  0  0  0  0  0  0  0  0  0
   39.7130   28.9490   42.4370 N   0  0  0  0  0  0  0  0  0  0  0  0
   37.9130   30.3870   41.5720 N   0  0  0  0  0  0  0  0  0  0  0  0
   36.6130   30.4260   41.2400 C   0  0  0  0  0  0  0  0  0  0  0  0
   36.4100   31.5670   40.5480 N   0  0  0  0  0  0  0  0  0  0  0  0
   37.5610   32.2590   40.4340 C   0  0  0  0  0  0  0  0  0  0  0  0
   38.0090   33.4290   39.8810 C   0  0  0  0  0  0  0  0  0  0  0  0
   39.3070   33.8190   39.9740 N   0  0  0  0  0  0  0  0  0  0  0  0
   40.1810   33.0230   40.6300 C   0  0  0  0  0  0  0  0  0  0  0  0
   39.7760   31.8660   41.1860 N   0  0  0  0  0  0  0  0  0  0  0  0
   38.4940   31.4960   41.0870 C   0  0  0  0  0  0  0  0  0  0  0  0
   41.5130   33.4450   40.7120 O   0  0  0  0  0  0  0  0  0  0  0  0
   41.0975   27.5944   43.2794 H   0  0  0  0  0  0  0  0  0  0  0  0
   39.3666   26.1837   44.4031 H   0  0  0  0  0  0  0  0  0  0  0  0
   36.9418   26.8306   44.1463 H   0  0  0  0  0  0  0  0  0  0  0  0
   35.8541   29.6688   41.4861 H   0  0  0  0  0  0  0  0  0  0  0  0
   37.2960   34.0727   39.3451 H   0  0  0  0  0  0  0  0  0  0  0  0
   42.1807   32.8875   41.1848 H   0  0  0  0  0  0  0  0  0  0  0  0
  1  2  2  0
  3  2  1  0
  4  3  2  0
  5  6  2  0
  5  4  1  0
  6  1  1  0
  7  5  1  0
  8  7  1  0
  9  8  2  0
 10  9  1  0
 10 15  2  0
 11 12  2  0
 11 10  1  0
 12 13  1  0
 13 16  1  0
 13 14  2  0
 15 14  1  0
 15  7  1  0
  1 17  1  0
  2 18  1  0
  3 19  1  0
  8 20  1  0
 11 21  1  0
 16 22  1  0
M  ISO  6  17  14  18  14  19  14  20  14  21  14  22   3
M  END
>  <minimizedAffinity>  (1) 
-4.94274855

>  <minimizedRMSD>  (1) 
0.0136459032

$$$$
