
     RDKit          3D

 36 40  0  0  0  0  0  0  0  0999 V2000
   42.1110   28.2560   43.0330 C   0  0  0  0  0  0  0  0  0  0  0  0
   42.0150   27.1470   43.9120 C   0  0  0  0  0  0  0  0  0  0  0  0
   40.7320   26.6380   44.1990 C   0  0  0  0  0  0  0  0  0  0  0  0
   39.6610   27.2500   43.6060 N   0  0  0  0  0  0  0  0  0  0  0  0
   39.8000   28.3020   42.7760 C   0  0  0  0  0  0  0  0  0  0  0  0
   41.0160   28.8260   42.4720 N   0  0  0  0  0  0  0  0  0  0  0  0
   38.5780   28.8210   42.2450 N   0  0  0  0  0  0  0  0  0  0  0  0
   37.4710   28.0540   42.2850 C   0  0  0  0  0  0  0  0  0  0  0  0
   36.4670   28.7580   41.7300 N   0  0  0  0  0  0  0  0  0  0  0  0
   36.9020   29.9610   41.3330 C   0  0  0  0  0  0  0  0  0  0  0  0
   36.4060   31.0900   40.7300 C   0  0  0  0  0  0  0  0  0  0  0  0
   37.1850   32.1650   40.4740 N   0  0  0  0  0  0  0  0  0  0  0  0
   38.4940   32.1290   40.8250 C   0  0  0  0  0  0  0  0  0  0  0  0
   39.0100   31.0410   41.4160 N   0  0  0  0  0  0  0  0  0  0  0  0
   38.2320   29.9810   41.6660 C   0  0  0  0  0  0  0  0  0  0  0  0
   39.3780   33.2180   40.5900 N   0  0  0  0  0  0  0  0  0  0  0  0
   39.2960   34.4290   40.0060 C   0  0  0  0  0  0  0  0  0  0  0  0
   40.4730   35.0550   40.0740 N   0  0  0  0  0  0  0  0  0  0  0  0
   41.3080   34.2200   40.7140 C   0  0  0  0  0  0  0  0  0  0  0  0
   40.6330   33.0970   41.0280 N   0  0  0  0  0  0  0  0  0  0  0  0
   42.7270   34.5260   41.0040 C   0  0  0  0  0  0  0  0  0  0  0  0
   43.7010   33.9600   40.2050 C   0  0  0  0  0  0  0  0  0  0  0  0
   45.0140   34.2980   40.5430 C   0  0  0  0  0  0  0  0  0  0  0  0
   45.3100   35.1300   41.5930 C   0  0  0  0  0  0  0  0  0  0  0  0
   44.2880   35.6680   42.3610 C   0  0  0  0  0  0  0  0  0  0  0  0
   42.9990   35.3500   42.0460 N   0  0  0  0  0  0  0  0  0  0  0  0
   43.1044   28.6664   42.7992 H   0  0  0  0  0  0  0  0  0  0  0  0
   42.9151   26.6973   44.3567 H   0  0  0  0  0  0  0  0  0  0  0  0
   40.5967   25.7806   44.8746 H   0  0  0  0  0  0  0  0  0  0  0  0
   37.4005   27.0364   42.6968 H   0  0  0  0  0  0  0  0  0  0  0  0
   35.3435   31.1210   40.4467 H   0  0  0  0  0  0  0  0  0  0  0  0
   38.3895   34.8426   39.5400 H   0  0  0  0  0  0  0  0  0  0  0  0
   43.4608   33.2923   39.3645 H   0  0  0  0  0  0  0  0  0  0  0  0
   45.8393   33.8824   39.9463 H   0  0  0  0  0  0  0  0  0  0  0  0
   46.3579   35.3704   41.8258 H   0  0  0  0  0  0  0  0  0  0  0  0
   44.5117   36.3364   43.2055 H   0  0  0  0  0  0  0  0  0  0  0  0
  1  2  2  0
  2  3  1  0
  4  3  2  0
  5  4  1  0
  6  5  2  0
  6  1  1  0
  7  8  1  0
  7  5  1  0
  9  8  2  0
 10 15  2  0
 10  9  1  0
 11 10  1  0
 12 11  2  0
 12 13  1  0
 13 14  2  0
 14 15  1  0
 15  7  1  0
 16 13  1  0
 16 20  1  0
 17 18  2  0
 17 16  1  0
 18 19  1  0
 19 21  1  0
 19 20  2  0
 21 26  2  0
 22 23  2  0
 22 21  1  0
 23 24  1  0
 24 25  2  0
 26 25  1  0
  1 27  1  0
  2 28  1  0
  3 29  1  0
  8 30  1  0
 11 31  1  0
 17 32  1  0
 22 33  1  0
 23 34  1  0
 24 35  1  0
 25 36  1  0
M  ISO  8  27  14  28  14  29  14  30  14  31  14  32  14  33  14  34  14
M  ISO  2  35  14  36  14
M  END
>  <minimizedAffinity>  (1) 
-7.07079554

>  <minimizedRMSD>  (1) 
2.50917554

$$$$
