
     RDKit          3D

 40 44  0  0  0  0  0  0  0  0999 V2000
   40.6610   28.3400   43.0780 C   0  0  0  0  0  0  0  0  0  0  0  0
   40.0050   27.2600   43.7150 C   0  0  0  0  0  0  0  0  0  0  0  0
   38.6180   27.1370   43.5390 C   0  0  0  0  0  0  0  0  0  0  0  0
   37.9980   28.0730   42.7630 N   0  0  0  0  0  0  0  0  0  0  0  0
   38.6440   29.0840   42.1740 C   0  0  0  0  0  0  0  0  0  0  0  0
   39.9900   29.2420   42.3170 N   0  0  0  0  0  0  0  0  0  0  0  0
   37.8370   29.9730   41.3960 N   0  0  0  0  0  0  0  0  0  0  0  0
   36.6000   29.5710   41.0390 C   0  0  0  0  0  0  0  0  0  0  0  0
   36.0470   30.5680   40.3220 N   0  0  0  0  0  0  0  0  0  0  0  0
   36.8970   31.5960   40.2100 C   0  0  0  0  0  0  0  0  0  0  0  0
   36.9500   32.8370   39.6460 C   0  0  0  0  0  0  0  0  0  0  0  0
   38.0390   33.6370   39.7480 N   0  0  0  0  0  0  0  0  0  0  0  0
   39.1170   33.1930   40.4350 C   0  0  0  0  0  0  0  0  0  0  0  0
   39.1010   31.9820   41.0030 N   0  0  0  0  0  0  0  0  0  0  0  0
   38.0260   31.1970   40.8980 C   0  0  0  0  0  0  0  0  0  0  0  0
   40.2960   33.9720   40.5870 N   0  0  0  0  0  0  0  0  0  0  0  0
   40.7090   35.1920   40.2220 C   0  0  0  0  0  0  0  0  0  0  0  0
   41.9530   35.4080   40.6510 N   0  0  0  0  0  0  0  0  0  0  0  0
   42.3310   34.3040   41.2960 C   0  0  0  0  0  0  0  0  0  0  0  0
   41.3070   33.4180   41.2580 N   0  0  0  0  0  0  0  0  0  0  0  0
   46.1550   33.8620   43.1280 C   0  0  0  0  0  0  0  0  0  0  0  0
   45.3450   32.7600   42.9610 C   0  0  0  0  0  0  0  0  0  0  0  0
   44.0980   32.8930   42.3670 C   0  0  0  0  0  0  0  0  0  0  0  0
   43.6380   34.1180   41.9290 C   0  0  0  0  0  0  0  0  0  0  0  0
   44.4380   35.2350   42.0880 C   0  0  0  0  0  0  0  0  0  0  0  0
   45.6750   35.0810   42.6820 C   0  0  0  0  0  0  0  0  0  0  0  0
   47.7260   33.7270   43.8710 S   0  0  0  0  0  0  0  0  0  0  0  0
   48.5700   32.7910   43.0610 O   0  0  0  0  0  0  0  0  0  0  0  0
   47.6240   33.2870   45.3040 O   0  0  0  0  0  0  0  0  0  0  0  0
   41.7481   28.4521   43.2033 H   0  0  0  0  0  0  0  0  0  0  0  0
   40.5648   26.5392   44.3291 H   0  0  0  0  0  0  0  0  0  0  0  0
   38.0528   26.3182   44.0082 H   0  0  0  0  0  0  0  0  0  0  0  0
   36.1302   28.6079   41.2873 H   0  0  0  0  0  0  0  0  0  0  0  0
   36.0756   33.2021   39.0873 H   0  0  0  0  0  0  0  0  0  0  0  0
   40.1077   35.9137   39.6496 H   0  0  0  0  0  0  0  0  0  0  0  0
   45.6881   31.7713   43.2997 H   0  0  0  0  0  0  0  0  0  0  0  0
   43.4630   32.0034   42.2427 H   0  0  0  0  0  0  0  0  0  0  0  0
   44.0964   36.2241   41.7488 H   0  0  0  0  0  0  0  0  0  0  0  0
   46.3099   35.9706   42.8068 H   0  0  0  0  0  0  0  0  0  0  0  0
   48.3218   34.9605   43.8903 H   0  0  0  0  0  0  0  0  0  0  0  0
  1  2  2  0
  3  2  1  0
  4  3  2  0
  5  6  2  0
  5  4  1  0
  6  1  1  0
  7  5  1  0
  8  7  1  0
  9  8  2  0
 10  9  1  0
 10 15  2  0
 11 12  2  0
 11 10  1  0
 12 13  1  0
 13 16  1  0
 13 14  2  0
 15 14  1  0
 15  7  1  0
 16 20  1  0
 17 16  1  0
 17 18  2  0
 18 19  1  0
 19 24  1  0
 20 19  2  0
 21 27  1  0
 22 21  2  0
 23 22  1  0
 24 25  1  0
 24 23  2  0
 25 26  2  0
 26 21  1  0
 27 29  2  0
 28 27  2  0
  1 30  1  0
  2 31  1  0
  3 32  1  0
  8 33  1  0
 11 34  1  0
 17 35  1  0
 22 36  1  0
 23 37  1  0
 25 38  1  0
 26 39  1  0
 27 40  1  0
M  ISO  8  30  14  31  14  32  14  33  14  34  14  35  14  36  14  37  14
M  ISO  3  38  14  39  14  40  11
M  END
>  <minimizedAffinity>  (1) 
-6.89324379

>  <minimizedRMSD>  (1) 
1.41484761

$$$$
