
     RDKit          3D

 34 38  0  0  0  0  0  0  0  0999 V2000
   40.3600   27.9890   43.1210 C   0  0  0  0  0  0  0  0  0  0  0  0
   39.5600   27.0500   43.7860 C   0  0  0  0  0  0  0  0  0  0  0  0
   38.1800   27.1830   43.6680 C   0  0  0  0  0  0  0  0  0  0  0  0
   37.7090   28.2180   42.9140 N   0  0  0  0  0  0  0  0  0  0  0  0
   38.4930   29.0990   42.2900 C   0  0  0  0  0  0  0  0  0  0  0  0
   39.8510   29.0080   42.3770 N   0  0  0  0  0  0  0  0  0  0  0  0
   37.8390   30.1180   41.5450 N   0  0  0  0  0  0  0  0  0  0  0  0
   36.5420   29.9310   41.2110 C   0  0  0  0  0  0  0  0  0  0  0  0
   36.1450   31.0180   40.5140 N   0  0  0  0  0  0  0  0  0  0  0  0
   37.1550   31.8910   40.3970 C   0  0  0  0  0  0  0  0  0  0  0  0
   37.4030   33.1170   39.8450 C   0  0  0  0  0  0  0  0  0  0  0  0
   38.6140   33.7240   39.9320 N   0  0  0  0  0  0  0  0  0  0  0  0
   39.6160   33.1000   40.5890 C   0  0  0  0  0  0  0  0  0  0  0  0
   39.4060   31.8980   41.1430 N   0  0  0  0  0  0  0  0  0  0  0  0
   38.2080   31.3070   41.0510 C   0  0  0  0  0  0  0  0  0  0  0  0
   40.9150   33.6630   40.7290 N   0  0  0  0  0  0  0  0  0  0  0  0
   41.5070   34.8280   40.4050 C   0  0  0  0  0  0  0  0  0  0  0  0
   42.7920   34.8080   40.7890 N   0  0  0  0  0  0  0  0  0  0  0  0
   43.0000   33.6120   41.3610 C   0  0  0  0  0  0  0  0  0  0  0  0
   41.8450   32.9140   41.3210 N   0  0  0  0  0  0  0  0  0  0  0  0
   44.2250   33.1580   41.9140 N   0  0  0  0  0  0  0  0  0  0  0  0
   45.2330   32.5460   41.2790 C   0  0  0  0  0  0  0  0  0  0  0  0
   46.2340   32.2770   42.2000 C   0  0  0  0  0  0  0  0  0  0  0  0
   45.8120   32.7370   43.4020 N   0  0  0  0  0  0  0  0  0  0  0  0
   44.5930   33.2680   43.2180 C   0  0  0  0  0  0  0  0  0  0  0  0
   41.4530   27.8977   43.2047 H   0  0  0  0  0  0  0  0  0  0  0  0
   40.0063   26.2382   44.3791 H   0  0  0  0  0  0  0  0  0  0  0  0
   37.4945   26.4801   44.1640 H   0  0  0  0  0  0  0  0  0  0  0  0
   35.9244   29.0556   41.4607 H   0  0  0  0  0  0  0  0  0  0  0  0
   36.5906   33.6308   39.3103 H   0  0  0  0  0  0  0  0  0  0  0  0
   41.0110   35.6704   39.9007 H   0  0  0  0  0  0  0  0  0  0  0  0
   45.2619   32.2985   40.2076 H   0  0  0  0  0  0  0  0  0  0  0  0
   47.1939   31.7814   41.9927 H   0  0  0  0  0  0  0  0  0  0  0  0
   43.9802   33.7261   44.0084 H   0  0  0  0  0  0  0  0  0  0  0  0
  1  2  2  0
  3  2  1  0
  4  3  2  0
  5  6  2  0
  5  4  1  0
  6  1  1  0
  7  5  1  0
  8  7  1  0
  9  8  2  0
 10  9  1  0
 10 15  2  0
 11 12  2  0
 11 10  1  0
 12 13  1  0
 13 16  1  0
 13 14  2  0
 15 14  1  0
 15  7  1  0
 16 20  1  0
 17 16  1  0
 17 18  2  0
 18 19  1  0
 19 21  1  0
 20 19  2  0
 21 25  1  0
 22 21  1  0
 22 23  2  0
 23 24  1  0
 25 24  2  0
  1 26  1  0
  2 27  1  0
  3 28  1  0
  8 29  1  0
 11 30  1  0
 17 31  1  0
 22 32  1  0
 23 33  1  0
 25 34  1  0
M  ISO  8  26  14  27  14  28  14  29  14  30  14  31  14  32  14  33  14
M  ISO  1  34  14
M  END
>  <minimizedAffinity>  (1) 
-6.56256104

>  <minimizedRMSD>  (1) 
0.371771038

$$$$
