
     RDKit          3D

 40 44  0  0  0  0  0  0  0  0999 V2000
   40.2820   27.9950   43.1820 C   0  0  0  0  0  0  0  0  0  0  0  0
   39.4340   27.0310   43.7660 C   0  0  0  0  0  0  0  0  0  0  0  0
   38.0430   27.1310   43.5590 C   0  0  0  0  0  0  0  0  0  0  0  0
   37.5950   28.1760   42.7910 N   0  0  0  0  0  0  0  0  0  0  0  0
   38.4470   29.0750   42.2530 C   0  0  0  0  0  0  0  0  0  0  0  0
   39.7810   29.0080   42.4310 N   0  0  0  0  0  0  0  0  0  0  0  0
   37.8090   30.1040   41.4780 N   0  0  0  0  0  0  0  0  0  0  0  0
   36.5390   29.9260   41.0750 C   0  0  0  0  0  0  0  0  0  0  0  0
   36.1770   31.0230   40.3730 N   0  0  0  0  0  0  0  0  0  0  0  0
   37.1850   31.8950   40.3200 C   0  0  0  0  0  0  0  0  0  0  0  0
   37.4550   33.1320   39.7920 C   0  0  0  0  0  0  0  0  0  0  0  0
   38.6540   33.7420   39.9470 N   0  0  0  0  0  0  0  0  0  0  0  0
   39.6200   33.1110   40.6450 C   0  0  0  0  0  0  0  0  0  0  0  0
   39.3930   31.8980   41.1770 N   0  0  0  0  0  0  0  0  0  0  0  0
   38.2070   31.3010   41.0210 C   0  0  0  0  0  0  0  0  0  0  0  0
   40.9080   33.6670   40.8610 N   0  0  0  0  0  0  0  0  0  0  0  0
   41.5100   34.8310   40.5480 C   0  0  0  0  0  0  0  0  0  0  0  0
   42.7720   34.8220   41.0130 N   0  0  0  0  0  0  0  0  0  0  0  0
   42.9470   33.6460   41.6170 C   0  0  0  0  0  0  0  0  0  0  0  0
   41.8060   32.9300   41.5270 N   0  0  0  0  0  0  0  0  0  0  0  0
   44.1800   33.1730   42.2840 C   0  0  0  0  0  0  0  0  0  0  0  0
   44.7460   34.2150   43.2520 C   0  0  0  0  0  0  0  0  0  0  0  0
   45.6260   33.3810   44.1830 C   0  0  0  0  0  0  0  0  0  0  0  0
   45.2750   31.9330   43.9340 C   0  0  0  0  0  0  0  0  0  0  0  0
   43.9260   32.0500   43.2480 C   0  0  0  0  0  0  0  0  0  0  0  0
   41.3686   27.9243   43.3381 H   0  0  0  0  0  0  0  0  0  0  0  0
   39.8513   26.2142   44.3733 H   0  0  0  0  0  0  0  0  0  0  0  0
   37.3454   26.4010   43.9954 H   0  0  0  0  0  0  0  0  0  0  0  0
   35.9091   29.0477   41.2793 H   0  0  0  0  0  0  0  0  0  0  0  0
   36.6683   33.6475   39.2215 H   0  0  0  0  0  0  0  0  0  0  0  0
   41.0419   35.6603   39.9974 H   0  0  0  0  0  0  0  0  0  0  0  0
   44.8312   32.9131   41.4365 H   0  0  0  0  0  0  0  0  0  0  0  0
   45.3413   34.9692   42.7165 H   0  0  0  0  0  0  0  0  0  0  0  0
   43.9662   34.7793   43.7844 H   0  0  0  0  0  0  0  0  0  0  0  0
   46.6883   33.5572   43.9585 H   0  0  0  0  0  0  0  0  0  0  0  0
   45.4563   33.6530   45.2352 H   0  0  0  0  0  0  0  0  0  0  0  0
   46.0154   31.4488   43.2803 H   0  0  0  0  0  0  0  0  0  0  0  0
   45.2577   31.3173   44.8454 H   0  0  0  0  0  0  0  0  0  0  0  0
   43.1314   32.3065   43.9641 H   0  0  0  0  0  0  0  0  0  0  0  0
   43.5807   31.1196   42.7735 H   0  0  0  0  0  0  0  0  0  0  0  0
  1  2  2  0
  3  2  1  0
  4  3  2  0
  5  6  2  0
  5  4  1  0
  6  1  1  0
  7  5  1  0
  8  7  1  0
  9  8  2  0
 10  9  1  0
 10 15  2  0
 11 12  2  0
 11 10  1  0
 12 13  1  0
 13 16  1  0
 13 14  2  0
 15 14  1  0
 15  7  1  0
 16 20  1  0
 17 16  1  0
 17 18  2  0
 18 19  1  0
 19 21  1  0
 20 19  2  0
 21 25  1  0
 21 22  1  0
 22 23  1  0
 24 23  1  0
 25 24  1  0
  1 26  1  0
  2 27  1  0
  3 28  1  0
  8 29  1  0
 11 30  1  0
 17 31  1  0
 21 32  1  0
 22 33  1  0
 22 34  1  0
 23 35  1  0
 23 36  1  0
 24 37  1  0
 24 38  1  0
 25 39  1  0
 25 40  1  0
M  ISO  8  26  14  27  14  28  14  29  14  30  14  31  14  32  13  33  13
M  ISO  7  34  13  35  13  36  13  37  13  38  13  39  13  40  13
M  END
>  <minimizedAffinity>  (1) 
-6.4038415

>  <minimizedRMSD>  (1) 
0.440413445

$$$$
