
     RDKit          3D

 33 37  0  0  0  0  0  0  0  0999 V2000
   40.4700   28.0480   43.1130 C   0  0  0  0  0  0  0  0  0  0  0  0
   39.6780   27.1060   43.7870 C   0  0  0  0  0  0  0  0  0  0  0  0
   38.2760   27.2110   43.6860 C   0  0  0  0  0  0  0  0  0  0  0  0
   37.7770   28.2350   42.9260 N   0  0  0  0  0  0  0  0  0  0  0  0
   38.5640   29.1220   42.2910 C   0  0  0  0  0  0  0  0  0  0  0  0
   39.9180   29.0470   42.3720 N   0  0  0  0  0  0  0  0  0  0  0  0
   37.8740   30.1230   41.5460 N   0  0  0  0  0  0  0  0  0  0  0  0
   36.5820   29.9230   41.2240 C   0  0  0  0  0  0  0  0  0  0  0  0
   36.1690   30.9990   40.5310 N   0  0  0  0  0  0  0  0  0  0  0  0
   37.1590   31.8850   40.4010 C   0  0  0  0  0  0  0  0  0  0  0  0
   37.3890   33.1180   39.8400 C   0  0  0  0  0  0  0  0  0  0  0  0
   38.5860   33.7470   39.9110 N   0  0  0  0  0  0  0  0  0  0  0  0
   39.6010   33.1320   40.5640 C   0  0  0  0  0  0  0  0  0  0  0  0
   39.4190   31.9240   41.1270 N   0  0  0  0  0  0  0  0  0  0  0  0
   38.2270   31.3190   41.0450 C   0  0  0  0  0  0  0  0  0  0  0  0
   40.8910   33.7200   40.6870 N   0  0  0  0  0  0  0  0  0  0  0  0
   41.5160   34.8210   40.2320 C   0  0  0  0  0  0  0  0  0  0  0  0
   42.7700   34.8540   40.6910 N   0  0  0  0  0  0  0  0  0  0  0  0
   42.9410   33.7610   41.4450 C   0  0  0  0  0  0  0  0  0  0  0  0
   41.7850   33.0680   41.4390 N   0  0  0  0  0  0  0  0  0  0  0  0
   44.1390   33.3080   42.1900 C   0  0  0  0  0  0  0  0  0  0  0  0
   45.3820   33.8420   41.7500 C   0  0  0  0  0  0  0  0  0  0  0  0
   46.6020   33.0790   42.8710 S   0  0  0  0  0  0  0  0  0  0  0  0
   45.1980   32.1410   43.7740 C   0  0  0  0  0  0  0  0  0  0  0  0
   44.2870   32.4820   43.2120 N   0  0  0  0  0  0  0  0  0  0  0  0
   41.5653   27.9771   43.1855 H   0  0  0  0  0  0  0  0  0  0  0  0
   40.1407   26.3038   44.3807 H   0  0  0  0  0  0  0  0  0  0  0  0
   37.6102   26.4997   44.1966 H   0  0  0  0  0  0  0  0  0  0  0  0
   35.9758   29.0417   41.4806 H   0  0  0  0  0  0  0  0  0  0  0  0
   36.5641   33.6163   39.3096 H   0  0  0  0  0  0  0  0  0  0  0  0
   41.0619   35.5810   39.5791 H   0  0  0  0  0  0  0  0  0  0  0  0
   45.5645   34.5489   40.9272 H   0  0  0  0  0  0  0  0  0  0  0  0
   45.2660   31.4467   44.6245 H   0  0  0  0  0  0  0  0  0  0  0  0
  1  2  2  0
  3  2  1  0
  4  3  2  0
  5  6  2  0
  5  4  1  0
  6  1  1  0
  7  5  1  0
  8  7  1  0
  9  8  2  0
 10  9  1  0
 10 15  2  0
 11 12  2  0
 11 10  1  0
 12 13  1  0
 13 16  1  0
 13 14  2  0
 15 14  1  0
 15  7  1  0
 16 20  1  0
 17 16  1  0
 17 18  2  0
 18 19  1  0
 19 21  1  0
 20 19  2  0
 21 25  1  0
 22 21  2  0
 22 23  1  0
 23 24  1  0
 25 24  2  0
  1 26  1  0
  2 27  1  0
  3 28  1  0
  8 29  1  0
 11 30  1  0
 17 31  1  0
 22 32  1  0
 24 33  1  0
M  ISO  8  26  14  27  14  28  14  29  14  30  14  31  14  32  14  33  14
M  END
>  <minimizedAffinity>  (1) 
-6.25185442

>  <minimizedRMSD>  (1) 
0.449947357

$$$$
