
     RDKit          3D

 34 38  0  0  0  0  0  0  0  0999 V2000
   40.4090   27.9790   43.1220 C   0  0  0  0  0  0  0  0  0  0  0  0
   39.5850   27.0480   43.7940 C   0  0  0  0  0  0  0  0  0  0  0  0
   38.1910   27.1840   43.6910 C   0  0  0  0  0  0  0  0  0  0  0  0
   37.7050   28.2240   42.9370 N   0  0  0  0  0  0  0  0  0  0  0  0
   38.5350   29.0910   42.3120 C   0  0  0  0  0  0  0  0  0  0  0  0
   39.8830   28.9920   42.3880 N   0  0  0  0  0  0  0  0  0  0  0  0
   37.8660   30.1190   41.5660 N   0  0  0  0  0  0  0  0  0  0  0  0
   36.5680   29.9570   41.2400 C   0  0  0  0  0  0  0  0  0  0  0  0
   36.1890   31.0500   40.5530 N   0  0  0  0  0  0  0  0  0  0  0  0
   37.2020   31.9090   40.4250 C   0  0  0  0  0  0  0  0  0  0  0  0
   37.4560   33.1360   39.8670 C   0  0  0  0  0  0  0  0  0  0  0  0
   38.6740   33.7270   39.9440 N   0  0  0  0  0  0  0  0  0  0  0  0
   39.6680   33.0890   40.5900 C   0  0  0  0  0  0  0  0  0  0  0  0
   39.4560   31.8840   41.1490 N   0  0  0  0  0  0  0  0  0  0  0  0
   38.2530   31.3020   41.0720 C   0  0  0  0  0  0  0  0  0  0  0  0
   40.9820   33.6330   40.7210 N   0  0  0  0  0  0  0  0  0  0  0  0
   41.6070   34.7490   40.3290 C   0  0  0  0  0  0  0  0  0  0  0  0
   42.8840   34.7360   40.7440 N   0  0  0  0  0  0  0  0  0  0  0  0
   43.0540   33.5940   41.4020 C   0  0  0  0  0  0  0  0  0  0  0  0
   41.8830   32.9130   41.3900 N   0  0  0  0  0  0  0  0  0  0  0  0
   44.2500   33.0430   42.0750 C   0  0  0  0  0  0  0  0  0  0  0  0
   45.5550   32.9710   41.5780 C   0  0  0  0  0  0  0  0  0  0  0  0
   46.3190   32.3780   42.5670 C   0  0  0  0  0  0  0  0  0  0  0  0
   45.5040   32.1110   43.6080 N   0  0  0  0  0  0  0  0  0  0  0  0
   44.2630   32.5100   43.3110 N   0  0  0  0  0  0  0  0  0  0  0  0
   41.5021   27.8802   43.1956 H   0  0  0  0  0  0  0  0  0  0  0  0
   40.0268   26.2329   44.3860 H   0  0  0  0  0  0  0  0  0  0  0  0
   37.5119   26.4818   44.1967 H   0  0  0  0  0  0  0  0  0  0  0  0
   35.9361   29.0919   41.4894 H   0  0  0  0  0  0  0  0  0  0  0  0
   36.6443   33.6582   39.3393 H   0  0  0  0  0  0  0  0  0  0  0  0
   41.1418   35.5604   39.7501 H   0  0  0  0  0  0  0  0  0  0  0  0
   45.9051   33.3176   40.5945 H   0  0  0  0  0  0  0  0  0  0  0  0
   47.3965   32.1630   42.5140 H   0  0  0  0  0  0  0  0  0  0  0  0
   45.7923   31.6692   44.4926 H   0  0  0  0  0  0  0  0  0  0  0  0
  1  2  2  0
  3  2  1  0
  4  3  2  0
  5  6  2  0
  5  4  1  0
  6  1  1  0
  7  5  1  0
  8  7  1  0
  9  8  2  0
 10  9  1  0
 10 15  2  0
 11 12  2  0
 11 10  1  0
 12 13  1  0
 13 16  1  0
 13 14  2  0
 15 14  1  0
 15  7  1  0
 16 20  1  0
 17 16  1  0
 17 18  2  0
 18 19  1  0
 19 21  1  0
 20 19  2  0
 21 25  2  0
 22 21  1  0
 22 23  2  0
 23 24  1  0
 25 24  1  0
  1 26  1  0
  2 27  1  0
  3 28  1  0
  8 29  1  0
 11 30  1  0
 17 31  1  0
 22 32  1  0
 23 33  1  0
 24 34  1  0
M  ISO  8  26  14  27  14  28  14  29  14  30  14  31  14  32  14  33  14
M  ISO  1  34   9
M  END
>  <minimizedAffinity>  (1) 
-6.18481731

>  <minimizedRMSD>  (1) 
0.315941662

$$$$
