
     RDKit          3D

 28 31  0  0  0  0  0  0  0  0999 V2000
   40.3310   27.9540   43.0920 C   0  0  0  0  0  0  0  0  0  0  0  0
   39.5050   27.0170   43.7650 C   0  0  0  0  0  0  0  0  0  0  0  0
   38.1220   27.1640   43.6580 C   0  0  0  0  0  0  0  0  0  0  0  0
   37.6420   28.2060   42.9090 N   0  0  0  0  0  0  0  0  0  0  0  0
   38.4570   29.0790   42.2830 C   0  0  0  0  0  0  0  0  0  0  0  0
   39.8150   28.9720   42.3610 N   0  0  0  0  0  0  0  0  0  0  0  0
   37.8090   30.1110   41.5410 N   0  0  0  0  0  0  0  0  0  0  0  0
   36.5160   29.9450   41.2100 C   0  0  0  0  0  0  0  0  0  0  0  0
   36.1490   31.0430   40.5230 N   0  0  0  0  0  0  0  0  0  0  0  0
   37.1590   31.8990   40.4040 C   0  0  0  0  0  0  0  0  0  0  0  0
   37.4290   33.1240   39.8550 C   0  0  0  0  0  0  0  0  0  0  0  0
   38.6440   33.7160   39.9370 N   0  0  0  0  0  0  0  0  0  0  0  0
   39.6320   33.0760   40.5870 C   0  0  0  0  0  0  0  0  0  0  0  0
   39.4120   31.8700   41.1420 N   0  0  0  0  0  0  0  0  0  0  0  0
   38.2070   31.3010   41.0500 C   0  0  0  0  0  0  0  0  0  0  0  0
   40.9440   33.6170   40.7270 N   0  0  0  0  0  0  0  0  0  0  0  0
   41.5250   34.8230   40.5040 C   0  0  0  0  0  0  0  0  0  0  0  0
   42.8330   34.7410   40.8280 N   0  0  0  0  0  0  0  0  0  0  0  0
   43.0540   33.4880   41.2480 C   0  0  0  0  0  0  0  0  0  0  0  0
   41.8950   32.7860   41.1890 N   0  0  0  0  0  0  0  0  0  0  0  0
   44.2580   32.9150   41.6920 O   0  0  0  0  0  0  0  0  0  0  0  0
   41.4237   27.8511   43.1658 H   0  0  0  0  0  0  0  0  0  0  0  0
   39.9428   26.1979   44.3544 H   0  0  0  0  0  0  0  0  0  0  0  0
   37.4374   26.4644   44.1599 H   0  0  0  0  0  0  0  0  0  0  0  0
   35.8816   29.0800   41.4534 H   0  0  0  0  0  0  0  0  0  0  0  0
   36.6227   33.6508   39.3235 H   0  0  0  0  0  0  0  0  0  0  0  0
   41.0144   35.7194   40.1222 H   0  0  0  0  0  0  0  0  0  0  0  0
   44.2797   31.9670   41.9765 H   0  0  0  0  0  0  0  0  0  0  0  0
  1  2  2  0
  3  2  1  0
  4  3  2  0
  5  6  2  0
  5  4  1  0
  6  1  1  0
  7  5  1  0
  8  7  1  0
  9  8  2  0
 10  9  1  0
 10 15  2  0
 11 12  2  0
 11 10  1  0
 12 13  1  0
 13 16  1  0
 13 14  2  0
 15 14  1  0
 15  7  1  0
 16 20  1  0
 17 16  1  0
 17 18  2  0
 18 19  1  0
 19 21  1  0
 20 19  2  0
  1 22  1  0
  2 23  1  0
  3 24  1  0
  8 25  1  0
 11 26  1  0
 17 27  1  0
 21 28  1  0
M  ISO  7  22  14  23  14  24  14  25  14  26  14  27  14  28   3
M  END
>  <minimizedAffinity>  (1) 
-6.00742245

>  <minimizedRMSD>  (1) 
0.269669056

$$$$
