
     RDKit          3D

 29 32  0  0  0  0  0  0  0  0999 V2000
   40.2490   27.8960   43.1130 C   0  0  0  0  0  0  0  0  0  0  0  0
   39.3720   27.0420   43.8260 C   0  0  0  0  0  0  0  0  0  0  0  0
   38.0060   27.2980   43.7510 C   0  0  0  0  0  0  0  0  0  0  0  0
   37.5740   28.3550   42.9980 N   0  0  0  0  0  0  0  0  0  0  0  0
   38.4410   29.1440   42.3330 C   0  0  0  0  0  0  0  0  0  0  0  0
   39.7880   28.9400   42.3710 N   0  0  0  0  0  0  0  0  0  0  0  0
   37.8410   30.2070   41.5880 N   0  0  0  0  0  0  0  0  0  0  0  0
   36.5330   30.1140   41.2620 C   0  0  0  0  0  0  0  0  0  0  0  0
   36.2100   31.2260   40.5720 N   0  0  0  0  0  0  0  0  0  0  0  0
   37.2720   32.0260   40.4480 C   0  0  0  0  0  0  0  0  0  0  0  0
   37.6050   33.2330   39.8940 C   0  0  0  0  0  0  0  0  0  0  0  0
   38.8560   33.7610   39.9700 N   0  0  0  0  0  0  0  0  0  0  0  0
   39.8080   33.0670   40.6160 C   0  0  0  0  0  0  0  0  0  0  0  0
   39.5280   31.8740   41.1770 N   0  0  0  0  0  0  0  0  0  0  0  0
   38.2960   31.3750   41.0920 C   0  0  0  0  0  0  0  0  0  0  0  0
   41.1460   33.5360   40.7490 N   0  0  0  0  0  0  0  0  0  0  0  0
   41.7990   34.6990   40.5060 C   0  0  0  0  0  0  0  0  0  0  0  0
   43.0950   34.5550   40.8310 N   0  0  0  0  0  0  0  0  0  0  0  0
   43.2490   33.2960   41.2790 C   0  0  0  0  0  0  0  0  0  0  0  0
   42.0570   32.6670   41.2300 N   0  0  0  0  0  0  0  0  0  0  0  0
   44.4730   32.6920   41.7410 N   0  0  0  0  0  0  0  0  0  0  0  0
   41.3322   27.7104   43.1602 H   0  0  0  0  0  0  0  0  0  0  0  0
   39.7590   26.2017   44.4211 H   0  0  0  0  0  0  0  0  0  0  0  0
   37.2868   26.6618   44.2876 H   0  0  0  0  0  0  0  0  0  0  0  0
   35.8565   29.2839   41.5134 H   0  0  0  0  0  0  0  0  0  0  0  0
   36.8261   33.8008   39.3639 H   0  0  0  0  0  0  0  0  0  0  0  0
   41.3405   35.6155   40.1061 H   0  0  0  0  0  0  0  0  0  0  0  0
   44.4748   31.7139   42.0637 H   0  0  0  0  0  0  0  0  0  0  0  0
   45.3461   33.2384   41.7485 H   0  0  0  0  0  0  0  0  0  0  0  0
  1  2  2  0
  3  2  1  0
  4  3  2  0
  5  6  2  0
  5  4  1  0
  6  1  1  0
  7  5  1  0
  8  7  1  0
  9  8  2  0
 10  9  1  0
 10 15  2  0
 11 12  2  0
 11 10  1  0
 12 13  1  0
 13 16  1  0
 13 14  2  0
 15 14  1  0
 15  7  1  0
 16 20  1  0
 17 16  1  0
 17 18  2  0
 18 19  1  0
 19 21  1  0
 20 19  2  0
  1 22  1  0
  2 23  1  0
  3 24  1  0
  8 25  1  0
 11 26  1  0
 17 27  1  0
 21 28  1  0
 21 29  1  0
M  ISO  6  22  14  23  14  24  14  25  14  26  14  27  14
M  END
>  <minimizedAffinity>  (1) 
-5.99752522

>  <minimizedRMSD>  (1) 
0.077386789

$$$$
