
     RDKit          3D

 28 31  0  0  0  0  0  0  0  0999 V2000
   40.3430   27.9490   43.0970 C   0  0  0  0  0  0  0  0  0  0  0  0
   39.5020   27.0280   43.7720 C   0  0  0  0  0  0  0  0  0  0  0  0
   38.1030   27.1810   43.6690 C   0  0  0  0  0  0  0  0  0  0  0  0
   37.6410   28.2210   42.9140 N   0  0  0  0  0  0  0  0  0  0  0  0
   38.4770   29.0800   42.2850 C   0  0  0  0  0  0  0  0  0  0  0  0
   39.8330   28.9630   42.3630 N   0  0  0  0  0  0  0  0  0  0  0  0
   37.8220   30.1120   41.5380 N   0  0  0  0  0  0  0  0  0  0  0  0
   36.5310   29.9520   41.1980 C   0  0  0  0  0  0  0  0  0  0  0  0
   36.1550   31.0450   40.5110 N   0  0  0  0  0  0  0  0  0  0  0  0
   37.1750   31.9060   40.4000 C   0  0  0  0  0  0  0  0  0  0  0  0
   37.4450   33.1410   39.8500 C   0  0  0  0  0  0  0  0  0  0  0  0
   38.6560   33.7200   39.9470 N   0  0  0  0  0  0  0  0  0  0  0  0
   39.6420   33.0810   40.6000 C   0  0  0  0  0  0  0  0  0  0  0  0
   39.4230   31.8710   41.1530 N   0  0  0  0  0  0  0  0  0  0  0  0
   38.2230   31.2960   41.0580 C   0  0  0  0  0  0  0  0  0  0  0  0
   40.9490   33.6250   40.7450 N   0  0  0  0  0  0  0  0  0  0  0  0
   41.5290   34.8280   40.5630 C   0  0  0  0  0  0  0  0  0  0  0  0
   42.8330   34.7610   40.8640 N   0  0  0  0  0  0  0  0  0  0  0  0
   43.0690   33.4900   41.2420 C   0  0  0  0  0  0  0  0  0  0  0  0
   41.9090   32.7750   41.1730 N   0  0  0  0  0  0  0  0  0  0  0  0
   44.6350   32.7580   41.7710 S   0  0  0  0  0  0  0  0  0  0  0  0
   41.4345   27.8357   43.1724 H   0  0  0  0  0  0  0  0  0  0  0  0
   39.9329   26.2083   44.3657 H   0  0  0  0  0  0  0  0  0  0  0  0
   37.4128   26.4908   44.1761 H   0  0  0  0  0  0  0  0  0  0  0  0
   35.8979   29.0851   41.4381 H   0  0  0  0  0  0  0  0  0  0  0  0
   36.6438   33.6709   39.3139 H   0  0  0  0  0  0  0  0  0  0  0  0
   41.0078   35.7330   40.2177 H   0  0  0  0  0  0  0  0  0  0  0  0
   44.6882   32.7331   43.1397 H   0  0  0  0  0  0  0  0  0  0  0  0
  1  2  2  0
  3  2  1  0
  4  3  2  0
  5  6  2  0
  5  4  1  0
  6  1  1  0
  7  5  1  0
  8  7  1  0
  9  8  2  0
 10  9  1  0
 10 15  2  0
 11 12  2  0
 11 10  1  0
 12 13  1  0
 13 16  1  0
 13 14  2  0
 15 14  1  0
 15  7  1  0
 16 20  1  0
 17 16  1  0
 17 18  2  0
 18 19  1  0
 19 21  1  0
 20 19  2  0
  1 22  1  0
  2 23  1  0
  3 24  1  0
  8 25  1  0
 11 26  1  0
 17 27  1  0
 21 28  1  0
M  ISO  7  22  14  23  14  24  14  25  14  26  14  27  14  28  11
M  END
>  <minimizedAffinity>  (1) 
-5.99324322

>  <minimizedRMSD>  (1) 
0.262899756

$$$$
