
     RDKit          3D

 47 52  0  0  1  0  0  0  0  0999 V2000
   40.2650   27.9330   43.1880 C   0  0  0  0  0  0  0  0  0  0  0  0
   39.4310   26.9900   43.7820 C   0  0  0  0  0  0  0  0  0  0  0  0
   38.0720   27.1480   43.5930 C   0  0  0  0  0  0  0  0  0  0  0  0
   37.6360   28.1970   42.8490 N   0  0  0  0  0  0  0  0  0  0  0  0
   38.4670   29.0910   42.2880 C   0  0  0  0  0  0  0  0  0  0  0  0
   39.7980   28.9730   42.4490 N   0  0  0  0  0  0  0  0  0  0  0  0
   37.8630   30.1340   41.5420 N   0  0  0  0  0  0  0  0  0  0  0  0
   36.5760   30.0050   41.1550 C   0  0  0  0  0  0  0  0  0  0  0  0
   36.2420   31.1160   40.4720 N   0  0  0  0  0  0  0  0  0  0  0  0
   37.2760   31.9500   40.4090 C   0  0  0  0  0  0  0  0  0  0  0  0
   37.5770   33.1920   39.8790 C   0  0  0  0  0  0  0  0  0  0  0  0
   38.8010   33.7470   40.0220 N   0  0  0  0  0  0  0  0  0  0  0  0
   39.7560   33.0910   40.6910 C   0  0  0  0  0  0  0  0  0  0  0  0
   39.5010   31.8730   41.2260 N   0  0  0  0  0  0  0  0  0  0  0  0
   38.2900   31.3270   41.0840 C   0  0  0  0  0  0  0  0  0  0  0  0
   41.0670   33.5880   40.8660 N   0  0  0  0  0  0  0  0  0  0  0  0
   41.7560   34.6780   40.4570 C   0  0  0  0  0  0  0  0  0  0  0  0
   43.0060   34.6340   40.9060 N   0  0  0  0  0  0  0  0  0  0  0  0
   43.1190   33.5160   41.6040 C   0  0  0  0  0  0  0  0  0  0  0  0
   41.9280   32.8550   41.5920 N   0  0  0  0  0  0  0  0  0  0  0  0
   44.3390   33.0020   42.2830 C   0  0  1  0  0  0  0  0  0  0  0  0
   45.6640   33.6530   41.9690 C   0  0  0  0  0  0  0  0  0  0  0  0
   44.9770   33.8440   43.3560 C   0  0  2  0  0  0  0  0  0  0  0  0
   45.5730   33.2070   44.5010 N   0  0  0  0  0  0  0  0  0  0  0  0
   45.5900   33.9770   45.6990 C   0  0  0  0  0  0  0  0  0  0  0  0
   46.6670   33.3910   46.6020 C   0  0  0  0  0  0  0  0  0  0  0  0
   47.9120   33.5890   46.0500 O   0  0  0  0  0  0  0  0  0  0  0  0
   48.0250   33.2200   44.7310 C   0  0  0  0  0  0  0  0  0  0  0  0
   46.7970   32.5460   44.1680 C   0  0  0  0  0  0  0  0  0  0  0  0
   41.3519   27.8315   43.3231 H   0  0  0  0  0  0  0  0  0  0  0  0
   39.8359   26.1567   44.3750 H   0  0  0  0  0  0  0  0  0  0  0  0
   37.3575   26.4387   44.0361 H   0  0  0  0  0  0  0  0  0  0  0  0
   35.9190   29.1471   41.3606 H   0  0  0  0  0  0  0  0  0  0  0  0
   36.8003   33.7418   39.3272 H   0  0  0  0  0  0  0  0  0  0  0  0
   41.3398   35.4874   39.8392 H   0  0  0  0  0  0  0  0  0  0  0  0
   43.9662   31.9678   42.2457 H   0  0  0  0  0  0  0  0  0  0  0  0
   46.5742   33.0415   41.8817 H   0  0  0  0  0  0  0  0  0  0  0  0
   46.0435   34.3214   41.1821 H   0  0  0  0  0  0  0  0  0  0  0  0
   44.6499   34.6974   43.9682 H   0  0  0  0  0  0  0  0  0  0  0  0
   45.8235   35.0268   45.4679 H   0  0  0  0  0  0  0  0  0  0  0  0
   44.6085   33.9458   46.1946 H   0  0  0  0  0  0  0  0  0  0  0  0
   46.6234   33.8826   47.5851 H   0  0  0  0  0  0  0  0  0  0  0  0
   46.4923   32.3107   46.7132 H   0  0  0  0  0  0  0  0  0  0  0  0
   48.2255   34.1234   44.1363 H   0  0  0  0  0  0  0  0  0  0  0  0
   48.8409   32.4841   44.6781 H   0  0  0  0  0  0  0  0  0  0  0  0
   46.7545   31.5190   44.5597 H   0  0  0  0  0  0  0  0  0  0  0  0
   46.8893   32.5746   43.0722 H   0  0  0  0  0  0  0  0  0  0  0  0
  1  2  2  0
  3  2  1  0
  4  3  2  0
  5  6  2  0
  5  4  1  0
  6  1  1  0
  7  5  1  0
  8  7  1  0
  9  8  2  0
 10  9  1  0
 10 15  2  0
 11 12  2  0
 11 10  1  0
 12 13  1  0
 13 16  1  0
 13 14  2  0
 15 14  1  0
 15  7  1  0
 16 20  1  0
 17 16  1  0
 17 18  2  0
 18 19  1  0
 19 21  1  0
 20 19  2  0
 21 23  1  0
 22 21  1  0
 22 23  1  0
 23 24  1  0
 24 25  1  0
 25 26  1  0
 27 26  1  0
 28 27  1  0
 29 24  1  0
 29 28  1  0
  1 30  1  0
  2 31  1  0
  3 32  1  0
  8 33  1  0
 11 34  1  0
 17 35  1  0
 21 36  1  1
 22 37  1  0
 22 38  1  0
 23 39  1  1
 25 40  1  0
 25 41  1  0
 26 42  1  0
 26 43  1  0
 28 44  1  0
 28 45  1  0
 29 46  1  0
 29 47  1  0
M  ISO  8  30  14  31  14  32  14  33  14  34  14  35  14  36  13  37  13
M  ISO  8  38  13  39  13  40  13  41  13  42  13  43  13  44  13  45  13
M  ISO  2  46  13  47  13
M  END
>  <minimizedAffinity>  (1) 
-7.21514082

>  <minimizedRMSD>  (1) 
1.50846672

$$$$
