
     RDKit          3D

 39 44  0  0  1  0  0  0  0  0999 V2000
   40.4290   27.9940   43.1530 C   0  0  0  0  0  0  0  0  0  0  0  0
   39.6090   27.0790   43.8040 C   0  0  0  0  0  0  0  0  0  0  0  0
   38.2190   27.2250   43.6980 C   0  0  0  0  0  0  0  0  0  0  0  0
   37.7700   28.2730   42.9490 N   0  0  0  0  0  0  0  0  0  0  0  0
   38.5900   29.1420   42.3310 C   0  0  0  0  0  0  0  0  0  0  0  0
   39.9260   29.0190   42.4190 N   0  0  0  0  0  0  0  0  0  0  0  0
   37.9530   30.1850   41.5870 N   0  0  0  0  0  0  0  0  0  0  0  0
   36.6550   30.0420   41.2550 C   0  0  0  0  0  0  0  0  0  0  0  0
   36.2940   31.1410   40.5740 N   0  0  0  0  0  0  0  0  0  0  0  0
   37.3170   31.9880   40.4540 C   0  0  0  0  0  0  0  0  0  0  0  0
   37.6040   33.2170   39.9050 C   0  0  0  0  0  0  0  0  0  0  0  0
   38.8290   33.7770   39.9950 N   0  0  0  0  0  0  0  0  0  0  0  0
   39.8050   33.1270   40.6360 C   0  0  0  0  0  0  0  0  0  0  0  0
   39.5680   31.9200   41.1890 N   0  0  0  0  0  0  0  0  0  0  0  0
   38.3530   31.3670   41.1000 C   0  0  0  0  0  0  0  0  0  0  0  0
   41.1200   33.6360   40.7600 N   0  0  0  0  0  0  0  0  0  0  0  0
   41.7920   34.7200   40.3200 C   0  0  0  0  0  0  0  0  0  0  0  0
   43.0610   34.6900   40.7300 N   0  0  0  0  0  0  0  0  0  0  0  0
   43.1950   33.5790   41.4360 C   0  0  0  0  0  0  0  0  0  0  0  0
   42.0060   32.9110   41.4680 N   0  0  0  0  0  0  0  0  0  0  0  0
   44.4380   33.0780   42.0850 C   0  0  1  0  0  0  0  0  0  0  0  0
   45.6780   32.9430   41.2360 C   0  0  0  0  0  0  0  0  0  0  0  0
   45.5590   34.0520   42.3420 C   0  0  2  0  0  0  0  0  0  0  0  0
   46.3480   33.8260   43.5650 C   0  0  0  0  0  0  0  0  0  0  0  0
   47.6680   33.8700   43.7640 N   0  0  0  0  0  0  0  0  0  0  0  0
   47.9180   33.5990   45.0190 O   0  0  0  0  0  0  0  0  0  0  0  0
   46.8060   33.3760   45.6590 C   0  0  0  0  0  0  0  0  0  0  0  0
   45.8150   33.5160   44.7580 N   0  0  0  0  0  0  0  0  0  0  0  0
   41.5203   27.8836   43.2355 H   0  0  0  0  0  0  0  0  0  0  0  0
   40.0429   26.2562   44.3911 H   0  0  0  0  0  0  0  0  0  0  0  0
   37.5254   26.5298   44.1936 H   0  0  0  0  0  0  0  0  0  0  0  0
   36.0107   29.1839   41.4971 H   0  0  0  0  0  0  0  0  0  0  0  0
   36.8084   33.7613   39.3751 H   0  0  0  0  0  0  0  0  0  0  0  0
   41.3529   35.5203   39.7062 H   0  0  0  0  0  0  0  0  0  0  0  0
   43.8720   32.3863   42.7262 H   0  0  0  0  0  0  0  0  0  0  0  0
   46.3567   32.0891   41.3785 H   0  0  0  0  0  0  0  0  0  0  0  0
   45.8947   32.9281   40.1577 H   0  0  0  0  0  0  0  0  0  0  0  0
   45.6553   35.1473   42.3742 H   0  0  0  0  0  0  0  0  0  0  0  0
   46.6977   33.1234   46.7241 H   0  0  0  0  0  0  0  0  0  0  0  0
  1  2  2  0
  3  2  1  0
  4  3  2  0
  5  6  2  0
  5  4  1  0
  6  1  1  0
  7  5  1  0
  8  7  1  0
  9  8  2  0
 10  9  1  0
 10 15  2  0
 11 12  2  0
 11 10  1  0
 12 13  1  0
 13 16  1  0
 13 14  2  0
 15 14  1  0
 15  7  1  0
 16 20  1  0
 17 18  2  0
 17 16  1  0
 18 19  1  0
 19 20  2  0
 19 21  1  0
 21 23  1  0
 22 21  1  0
 22 23  1  0
 23 24  1  0
 24 25  2  0
 24 28  1  0
 25 26  1  0
 26 27  1  0
 28 27  2  0
  1 29  1  0
  2 30  1  0
  3 31  1  0
  8 32  1  0
 11 33  1  0
 17 34  1  0
 21 35  1  1
 22 36  1  0
 22 37  1  0
 23 38  1  6
 27 39  1  0
M  ISO  8  29  14  30  14  31  14  32  14  33  14  34  14  35  13  36  13
M  ISO  3  37  13  38  13  39  14
M  END
>  <minimizedAffinity>  (1) 
-6.8994422

>  <minimizedRMSD>  (1) 
1.88091183

$$$$
