
     RDKit          3D

 41 46  0  0  1  0  0  0  0  0999 V2000
   42.2390   28.5610   43.0750 C   0  0  0  0  0  0  0  0  0  0  0  0
   42.4290   27.4820   43.9340 C   0  0  0  0  0  0  0  0  0  0  0  0
   41.3160   26.7410   44.2790 C   0  0  0  0  0  0  0  0  0  0  0  0
   40.1120   27.1120   43.7580 N   0  0  0  0  0  0  0  0  0  0  0  0
   39.9610   28.1490   42.9380 C   0  0  0  0  0  0  0  0  0  0  0  0
   41.0240   28.8950   42.5810 N   0  0  0  0  0  0  0  0  0  0  0  0
   38.6420   28.4160   42.4770 N   0  0  0  0  0  0  0  0  0  0  0  0
   37.6900   27.4650   42.6260 C   0  0  0  0  0  0  0  0  0  0  0  0
   36.5510   27.9510   42.1210 N   0  0  0  0  0  0  0  0  0  0  0  0
   36.7310   29.1870   41.6510 C   0  0  0  0  0  0  0  0  0  0  0  0
   35.9980   30.1810   41.0380 C   0  0  0  0  0  0  0  0  0  0  0  0
   36.5420   31.3630   40.6840 N   0  0  0  0  0  0  0  0  0  0  0  0
   37.8430   31.5850   40.9340 C   0  0  0  0  0  0  0  0  0  0  0  0
   38.6000   30.6310   41.5350 N   0  0  0  0  0  0  0  0  0  0  0  0
   38.0480   29.4690   41.8780 C   0  0  0  0  0  0  0  0  0  0  0  0
   38.5110   32.7850   40.5960 N   0  0  0  0  0  0  0  0  0  0  0  0
   38.1780   33.9300   39.9440 C   0  0  0  0  0  0  0  0  0  0  0  0
   39.2190   34.7550   39.9010 N   0  0  0  0  0  0  0  0  0  0  0  0
   40.2150   34.1440   40.5220 C   0  0  0  0  0  0  0  0  0  0  0  0
   39.7870   32.9260   40.9560 N   0  0  0  0  0  0  0  0  0  0  0  0
   41.5950   34.6370   40.7350 C   0  0  1  0  0  0  0  0  0  0  0  0
   42.6770   33.6700   41.1140 C   0  0  0  0  0  0  0  0  0  0  0  0
   42.6670   34.3280   39.7140 C   0  0  1  0  0  0  0  0  0  0  0  0
   42.4210   33.3600   38.6250 C   0  0  0  0  0  0  0  0  0  0  0  0
   43.3370   32.5620   37.9340 C   0  0  0  0  0  0  0  0  0  0  0  0
   42.6680   31.8110   37.0210 N   0  0  0  0  0  0  0  0  0  0  0  0
   41.3590   32.1090   37.1120 C   0  0  0  0  0  0  0  0  0  0  0  0
   41.2300   33.0450   38.0850 N   0  0  0  0  0  0  0  0  0  0  0  0
   43.1110   29.1661   42.7863 H   0  0  0  0  0  0  0  0  0  0  0  0
   43.4266   27.2296   44.3227 H   0  0  0  0  0  0  0  0  0  0  0  0
   41.3984   25.8767   44.9544 H   0  0  0  0  0  0  0  0  0  0  0  0
   37.8283   26.4727   43.0800 H   0  0  0  0  0  0  0  0  0  0  0  0
   34.9324   30.0036   40.8305 H   0  0  0  0  0  0  0  0  0  0  0  0
   37.1885   34.1433   39.5135 H   0  0  0  0  0  0  0  0  0  0  0  0
   41.2040   35.5643   41.1792 H   0  0  0  0  0  0  0  0  0  0  0  0
   43.4394   33.9575   41.8530 H   0  0  0  0  0  0  0  0  0  0  0  0
   42.7040   32.6370   41.4910 H   0  0  0  0  0  0  0  0  0  0  0  0
   43.3065   34.9729   39.0934 H   0  0  0  0  0  0  0  0  0  0  0  0
   44.4239   32.5449   38.1023 H   0  0  0  0  0  0  0  0  0  0  0  0
   40.5466   31.6752   36.5105 H   0  0  0  0  0  0  0  0  0  0  0  0
   40.3335   33.4619   38.3739 H   0  0  0  0  0  0  0  0  0  0  0  0
  1  2  2  0
  2  3  1  0
  4  3  2  0
  5  4  1  0
  6  5  2  0
  6  1  1  0
  7  8  1  0
  7  5  1  0
  9  8  2  0
 10 15  2  0
 10  9  1  0
 11 10  1  0
 12 13  1  0
 12 11  2  0
 13 14  2  0
 14 15  1  0
 15  7  1  0
 16 13  1  0
 16 20  1  0
 17 16  1  0
 18 17  2  0
 18 19  1  0
 19 21  1  0
 19 20  2  0
 21 22  1  0
 23 21  1  0
 23 22  1  0
 24 23  1  0
 25 24  2  0
 26 27  2  0
 26 25  1  0
 27 28  1  0
 28 24  1  0
  1 29  1  0
  2 30  1  0
  3 31  1  0
  8 32  1  0
 11 33  1  0
 17 34  1  0
 21 35  1  1
 22 36  1  0
 22 37  1  0
 23 38  1  6
 25 39  1  0
 27 40  1  0
 28 41  1  0
M  ISO  8  29  14  30  14  31  14  32  14  33  14  34  14  35  13  36  13
M  ISO  5  37  13  38  13  39  14  40  14  41   9
M  END
>  <minimizedAffinity>  (1) 
-6.86907673

>  <minimizedRMSD>  (1) 
4.14942408

$$$$
