
     RDKit          3D

 43 47  0  0  1  0  0  0  0  0999 V2000
   40.5230   28.1230   43.1020 C   0  0  0  0  0  0  0  0  0  0  0  0
   39.7040   27.1990   43.7670 C   0  0  0  0  0  0  0  0  0  0  0  0
   38.3340   27.3680   43.6670 C   0  0  0  0  0  0  0  0  0  0  0  0
   37.8720   28.4150   42.9330 N   0  0  0  0  0  0  0  0  0  0  0  0
   38.6780   29.2890   42.3030 C   0  0  0  0  0  0  0  0  0  0  0  0
   40.0160   29.1540   42.3800 N   0  0  0  0  0  0  0  0  0  0  0  0
   38.0410   30.3270   41.5780 N   0  0  0  0  0  0  0  0  0  0  0  0
   36.7370   30.1990   41.2760 C   0  0  0  0  0  0  0  0  0  0  0  0
   36.3720   31.3020   40.5970 N   0  0  0  0  0  0  0  0  0  0  0  0
   37.4050   32.1340   40.4530 C   0  0  0  0  0  0  0  0  0  0  0  0
   37.6860   33.3630   39.8890 C   0  0  0  0  0  0  0  0  0  0  0  0
   38.9160   33.9090   39.9500 N   0  0  0  0  0  0  0  0  0  0  0  0
   39.9110   33.2410   40.5810 C   0  0  0  0  0  0  0  0  0  0  0  0
   39.6690   32.0380   41.1420 N   0  0  0  0  0  0  0  0  0  0  0  0
   38.4460   31.5020   41.0780 C   0  0  0  0  0  0  0  0  0  0  0  0
   41.2300   33.7540   40.6770 N   0  0  0  0  0  0  0  0  0  0  0  0
   41.8960   34.8280   40.2260 C   0  0  0  0  0  0  0  0  0  0  0  0
   43.1670   34.7970   40.6390 N   0  0  0  0  0  0  0  0  0  0  0  0
   43.2960   33.6970   41.3550 C   0  0  0  0  0  0  0  0  0  0  0  0
   42.1050   33.0390   41.3860 N   0  0  0  0  0  0  0  0  0  0  0  0
   44.5140   33.1890   42.0300 C   0  0  1  0  0  0  0  0  0  0  0  0
   45.8480   33.7510   41.7320 C   0  0  0  0  0  0  0  0  0  0  0  0
   45.1590   33.9740   43.1100 C   0  0  1  0  0  0  0  0  0  0  0  0
   44.9240   35.3820   43.4240 C   0  0  0  0  0  0  0  0  0  0  0  0
   43.5250   35.8890   43.2900 C   0  0  0  0  0  0  0  0  0  0  0  0
   45.7680   36.2320   42.4920 C   0  0  0  0  0  0  0  0  0  0  0  0
   41.6150   28.0079   43.1680 H   0  0  0  0  0  0  0  0  0  0  0  0
   40.1350   26.3698   44.3472 H   0  0  0  0  0  0  0  0  0  0  0  0
   37.6398   26.6761   44.1663 H   0  0  0  0  0  0  0  0  0  0  0  0
   36.0883   29.3495   41.5360 H   0  0  0  0  0  0  0  0  0  0  0  0
   36.8827   33.9116   39.3754 H   0  0  0  0  0  0  0  0  0  0  0  0
   41.4577   35.6223   39.6039 H   0  0  0  0  0  0  0  0  0  0  0  0
   44.0956   32.1733   41.9721 H   0  0  0  0  0  0  0  0  0  0  0  0
   46.7227   33.0890   41.6503 H   0  0  0  0  0  0  0  0  0  0  0  0
   46.2725   34.3984   40.9505 H   0  0  0  0  0  0  0  0  0  0  0  0
   45.2763   33.7515   44.1809 H   0  0  0  0  0  0  0  0  0  0  0  0
   45.1791   35.4563   44.4914 H   0  0  0  0  0  0  0  0  0  0  0  0
   43.0942   36.0451   44.2900 H   0  0  0  0  0  0  0  0  0  0  0  0
   43.5314   36.8420   42.7407 H   0  0  0  0  0  0  0  0  0  0  0  0
   42.9194   35.1532   42.7407 H   0  0  0  0  0  0  0  0  0  0  0  0
   46.4206   36.8893   43.0854 H   0  0  0  0  0  0  0  0  0  0  0  0
   46.3849   35.5786   41.8576 H   0  0  0  0  0  0  0  0  0  0  0  0
   45.1102   36.8442   41.8576 H   0  0  0  0  0  0  0  0  0  0  0  0
  1  2  2  0
  3  2  1  0
  4  3  2  0
  5  6  2  0
  5  4  1  0
  6  1  1  0
  7  5  1  0
  8  7  1  0
  9  8  2  0
 10  9  1  0
 10 15  2  0
 11 12  2  0
 11 10  1  0
 12 13  1  0
 13 16  1  0
 13 14  2  0
 15 14  1  0
 15  7  1  0
 16 20  1  0
 17 18  2  0
 17 16  1  0
 18 19  1  0
 19 20  2  0
 19 21  1  0
 21 23  1  0
 22 21  1  0
 22 23  1  0
 23 24  1  0
 25 24  1  0
 26 24  1  0
  1 27  1  0
  2 28  1  0
  3 29  1  0
  8 30  1  0
 11 31  1  0
 17 32  1  0
 21 33  1  1
 22 34  1  0
 22 35  1  0
 23 36  1  1
 24 37  1  0
 25 38  1  0
 25 39  1  0
 25 40  1  0
 26 41  1  0
 26 42  1  0
 26 43  1  0
M  ISO  8  27  14  28  14  29  14  30  14  31  14  32  14  33  13  34  13
M  ISO  8  35  13  36  13  37   8  38   8  39   8  40   8  41   8  42   8
M  ISO  1  43   8
M  END
>  <minimizedAffinity>  (1) 
-6.82027054

>  <minimizedRMSD>  (1) 
1.79240787

$$$$
