
     RDKit          3D

 41 46  0  0  1  0  0  0  0  0999 V2000
   41.8720   28.3000   43.0850 C   0  0  0  0  0  0  0  0  0  0  0  0
   41.6490   27.1830   43.8840 C   0  0  0  0  0  0  0  0  0  0  0  0
   40.3350   26.7780   44.0380 C   0  0  0  0  0  0  0  0  0  0  0  0
   39.3580   27.4850   43.4120 N   0  0  0  0  0  0  0  0  0  0  0  0
   39.6040   28.5610   42.6470 C   0  0  0  0  0  0  0  0  0  0  0  0
   40.8700   28.9850   42.4730 N   0  0  0  0  0  0  0  0  0  0  0  0
   38.4830   29.1970   42.0610 N   0  0  0  0  0  0  0  0  0  0  0  0
   37.3070   28.5410   42.0280 C   0  0  0  0  0  0  0  0  0  0  0  0
   36.4130   29.3440   41.4340 N   0  0  0  0  0  0  0  0  0  0  0  0
   36.9780   30.4980   41.0840 C   0  0  0  0  0  0  0  0  0  0  0  0
   36.6310   31.6850   40.4690 C   0  0  0  0  0  0  0  0  0  0  0  0
   37.5190   32.6820   40.2730 N   0  0  0  0  0  0  0  0  0  0  0  0
   38.7960   32.5220   40.6900 C   0  0  0  0  0  0  0  0  0  0  0  0
   39.1700   31.3730   41.2950 N   0  0  0  0  0  0  0  0  0  0  0  0
   38.2820   30.3960   41.4830 C   0  0  0  0  0  0  0  0  0  0  0  0
   39.7940   33.5080   40.5180 N   0  0  0  0  0  0  0  0  0  0  0  0
   39.8780   34.7120   39.9190 C   0  0  0  0  0  0  0  0  0  0  0  0
   41.1010   35.2180   40.0600 N   0  0  0  0  0  0  0  0  0  0  0  0
   41.7960   34.3310   40.7520 C   0  0  0  0  0  0  0  0  0  0  0  0
   40.9970   33.2660   41.0420 N   0  0  0  0  0  0  0  0  0  0  0  0
   43.2200   34.4070   41.1640 C   0  0  1  0  0  0  0  0  0  0  0  0
   43.9980   33.1480   41.3660 C   0  0  0  0  0  0  0  0  0  0  0  0
   44.3030   34.1370   40.1880 C   0  0  1  0  0  0  0  0  0  0  0  0
   44.1210   33.5020   38.8940 C   0  0  0  0  0  0  0  0  0  0  0  0
   44.6550   32.2670   38.5640 C   0  0  0  0  0  0  0  0  0  0  0  0
   44.2670   31.9970   37.2500 C   0  0  0  0  0  0  0  0  0  0  0  0
   43.5350   33.0380   36.8340 N   0  0  0  0  0  0  0  0  0  0  0  0
   43.4590   33.9050   37.8020 N   0  0  0  0  0  0  0  0  0  0  0  0
   42.9068   28.6447   42.9420 H   0  0  0  0  0  0  0  0  0  0  0  0
   42.4778   26.6474   44.3701 H   0  0  0  0  0  0  0  0  0  0  0  0
   40.0864   25.9016   44.6546 H   0  0  0  0  0  0  0  0  0  0  0  0
   37.1152   27.5303   42.4176 H   0  0  0  0  0  0  0  0  0  0  0  0
   35.5946   31.8225   40.1270 H   0  0  0  0  0  0  0  0  0  0  0  0
   39.0518   35.2073   39.3879 H   0  0  0  0  0  0  0  0  0  0  0  0
   42.9861   35.2694   41.8055 H   0  0  0  0  0  0  0  0  0  0  0  0
   44.6975   33.0562   42.2099 H   0  0  0  0  0  0  0  0  0  0  0  0
   43.7597   32.0780   41.4578 H   0  0  0  0  0  0  0  0  0  0  0  0
   45.0897   34.8004   39.7994 H   0  0  0  0  0  0  0  0  0  0  0  0
   45.2670   31.6229   39.2124 H   0  0  0  0  0  0  0  0  0  0  0  0
   44.5159   31.0983   36.6666 H   0  0  0  0  0  0  0  0  0  0  0  0
   43.1041   33.1364   35.9037 H   0  0  0  0  0  0  0  0  0  0  0  0
  1  2  2  0
  2  3  1  0
  4  3  2  0
  5  4  1  0
  6  5  2  0
  6  1  1  0
  7  5  1  0
  8  7  1  0
  9  8  2  0
 10  9  1  0
 10 15  2  0
 11 10  1  0
 12 11  2  0
 12 13  1  0
 13 14  2  0
 14 15  1  0
 15  7  1  0
 16 13  1  0
 16 20  1  0
 17 18  2  0
 17 16  1  0
 18 19  1  0
 19 20  2  0
 19 21  1  0
 21 22  1  0
 23 21  1  0
 23 22  1  0
 24 23  1  0
 25 24  1  0
 26 25  2  0
 27 26  1  0
 27 28  1  0
 28 24  2  0
  1 29  1  0
  2 30  1  0
  3 31  1  0
  8 32  1  0
 11 33  1  0
 17 34  1  0
 21 35  1  1
 22 36  1  0
 22 37  1  0
 23 38  1  1
 25 39  1  0
 26 40  1  0
 27 41  1  0
M  ISO  8  29  14  30  14  31  14  32  14  33  14  34  14  35  13  36  13
M  ISO  5  37  13  38  13  39  14  40  14  41   9
M  END
>  <minimizedAffinity>  (1) 
-6.77258921

>  <minimizedRMSD>  (1) 
3.69001961

$$$$
