
     RDKit          3D

 46 51  0  0  1  0  0  0  0  0999 V2000
   40.6810   27.8830   43.1320 C   0  0  0  0  0  0  0  0  0  0  0  0
   39.8450   26.9740   43.7980 C   0  0  0  0  0  0  0  0  0  0  0  0
   38.4720   27.1850   43.7420 C   0  0  0  0  0  0  0  0  0  0  0  0
   38.0310   28.2680   43.0390 N   0  0  0  0  0  0  0  0  0  0  0  0
   38.8380   29.1210   42.4120 C   0  0  0  0  0  0  0  0  0  0  0  0
   40.1910   28.9450   42.4450 N   0  0  0  0  0  0  0  0  0  0  0  0
   38.2250   30.2040   41.7170 N   0  0  0  0  0  0  0  0  0  0  0  0
   36.9140   30.1320   41.4460 C   0  0  0  0  0  0  0  0  0  0  0  0
   36.5830   31.2540   40.7960 N   0  0  0  0  0  0  0  0  0  0  0  0
   37.6330   32.0470   40.6370 C   0  0  0  0  0  0  0  0  0  0  0  0
   37.9360   33.2670   40.0830 C   0  0  0  0  0  0  0  0  0  0  0  0
   39.1870   33.7750   40.1160 N   0  0  0  0  0  0  0  0  0  0  0  0
   40.1710   33.0740   40.7060 C   0  0  0  0  0  0  0  0  0  0  0  0
   39.9040   31.8670   41.2610 N   0  0  0  0  0  0  0  0  0  0  0  0
   38.6660   31.3740   41.2230 C   0  0  0  0  0  0  0  0  0  0  0  0
   41.5180   33.5130   40.7910 N   0  0  0  0  0  0  0  0  0  0  0  0
   42.2130   34.5740   40.3030 C   0  0  0  0  0  0  0  0  0  0  0  0
   43.4980   34.4790   40.6950 N   0  0  0  0  0  0  0  0  0  0  0  0
   43.5950   33.3780   41.4140 C   0  0  0  0  0  0  0  0  0  0  0  0
   42.3850   32.7740   41.4830 N   0  0  0  0  0  0  0  0  0  0  0  0
   44.8190   32.8330   42.0440 C   0  0  1  0  0  0  0  0  0  0  0  0
   45.9460   33.7630   42.4030 C   0  0  0  0  0  0  0  0  0  0  0  0
   45.0680   33.1190   43.5050 C   0  0  2  0  0  0  0  0  0  0  0  0
   45.5800   32.1570   44.3870 N   0  0  0  0  0  0  0  0  0  0  0  0
   45.4840   32.6700   45.7370 C   0  0  0  0  0  0  0  0  0  0  0  0
   44.3610   31.9650   46.4360 C   0  0  0  0  0  0  0  0  0  0  0  0
   44.0400   30.8040   45.5380 C   0  0  0  0  0  0  0  0  0  0  0  0
   45.0290   30.8510   44.3940 C   0  0  0  0  0  0  0  0  0  0  0  0
   41.7696   27.7293   43.1682 H   0  0  0  0  0  0  0  0  0  0  0  0
   40.2640   26.1189   44.3487 H   0  0  0  0  0  0  0  0  0  0  0  0
   37.7685   26.5052   44.2449 H   0  0  0  0  0  0  0  0  0  0  0  0
   36.2372   29.3056   41.7087 H   0  0  0  0  0  0  0  0  0  0  0  0
   37.1367   33.8469   39.5985 H   0  0  0  0  0  0  0  0  0  0  0  0
   41.7928   35.3819   39.6860 H   0  0  0  0  0  0  0  0  0  0  0  0
   44.7511   31.9185   41.4365 H   0  0  0  0  0  0  0  0  0  0  0  0
   46.9899   33.4422   42.2710 H   0  0  0  0  0  0  0  0  0  0  0  0
   46.2302   34.7899   42.1297 H   0  0  0  0  0  0  0  0  0  0  0  0
   44.4564   33.4858   44.3425 H   0  0  0  0  0  0  0  0  0  0  0  0
   46.4275   32.4858   46.2717 H   0  0  0  0  0  0  0  0  0  0  0  0
   45.2932   33.7531   45.7155 H   0  0  0  0  0  0  0  0  0  0  0  0
   44.6785   31.6142   47.4290 H   0  0  0  0  0  0  0  0  0  0  0  0
   43.4932   32.6193   46.6058 H   0  0  0  0  0  0  0  0  0  0  0  0
   44.1438   29.8581   46.0899 H   0  0  0  0  0  0  0  0  0  0  0  0
   43.0056   30.8643   45.1687 H   0  0  0  0  0  0  0  0  0  0  0  0
   44.5169   30.6502   43.4414 H   0  0  0  0  0  0  0  0  0  0  0  0
   45.8140   30.0904   44.5174 H   0  0  0  0  0  0  0  0  0  0  0  0
  1  2  2  0
  3  2  1  0
  4  3  2  0
  5  6  2  0
  5  4  1  0
  6  1  1  0
  7  5  1  0
  8  7  1  0
  9  8  2  0
 10  9  1  0
 10 15  2  0
 11 12  2  0
 11 10  1  0
 12 13  1  0
 13 16  1  0
 13 14  2  0
 15 14  1  0
 15  7  1  0
 16 20  1  0
 17 18  2  0
 17 16  1  0
 18 19  1  0
 19 20  2  0
 19 21  1  0
 21 22  1  0
 21 23  1  0
 22 23  1  0
 23 24  1  0
 24 28  1  0
 24 25  1  0
 25 26  1  0
 27 26  1  0
 28 27  1  0
  1 29  1  0
  2 30  1  0
  3 31  1  0
  8 32  1  0
 11 33  1  0
 17 34  1  0
 21 35  1  1
 22 36  1  0
 22 37  1  0
 23 38  1  1
 25 39  1  0
 25 40  1  0
 26 41  1  0
 26 42  1  0
 27 43  1  0
 27 44  1  0
 28 45  1  0
 28 46  1  0
M  ISO  8  29  14  30  14  31  14  32  14  33  14  34  14  35  13  36  13
M  ISO  8  37  13  38  13  39  13  40  13  41  13  42  13  43  13  44  13
M  ISO  2  45  13  46  13
M  END
>  <minimizedAffinity>  (1) 
-6.69790649

>  <minimizedRMSD>  (1) 
0.836366475

$$$$
