
     RDKit          3D

 37 41  0  0  1  0  0  0  0  0999 V2000
   42.0450   28.3100   43.0340 C   0  0  0  0  0  0  0  0  0  0  0  0
   42.1190   27.2270   43.9060 C   0  0  0  0  0  0  0  0  0  0  0  0
   40.9460   26.5750   44.2480 C   0  0  0  0  0  0  0  0  0  0  0  0
   39.7760   27.0320   43.7070 N   0  0  0  0  0  0  0  0  0  0  0  0
   39.7300   28.0780   42.8670 C   0  0  0  0  0  0  0  0  0  0  0  0
   40.8690   28.7420   42.5110 N   0  0  0  0  0  0  0  0  0  0  0  0
   38.4390   28.4470   42.3760 N   0  0  0  0  0  0  0  0  0  0  0  0
   37.4340   27.5650   42.4940 C   0  0  0  0  0  0  0  0  0  0  0  0
   36.3490   28.1410   41.9670 N   0  0  0  0  0  0  0  0  0  0  0  0
   36.6260   29.3640   41.5150 C   0  0  0  0  0  0  0  0  0  0  0  0
   35.9760   30.4060   40.8990 C   0  0  0  0  0  0  0  0  0  0  0  0
   36.6130   31.5480   40.5720 N   0  0  0  0  0  0  0  0  0  0  0  0
   37.9340   31.6740   40.8590 C   0  0  0  0  0  0  0  0  0  0  0  0
   38.5970   30.6710   41.4620 N   0  0  0  0  0  0  0  0  0  0  0  0
   37.9530   29.5430   41.7810 C   0  0  0  0  0  0  0  0  0  0  0  0
   38.6790   32.8410   40.5450 N   0  0  0  0  0  0  0  0  0  0  0  0
   38.4460   34.0060   39.9160 C   0  0  0  0  0  0  0  0  0  0  0  0
   39.5460   34.7570   39.9090 N   0  0  0  0  0  0  0  0  0  0  0  0
   40.4820   34.0670   40.5400 C   0  0  0  0  0  0  0  0  0  0  0  0
   39.9510   32.8820   40.9340 N   0  0  0  0  0  0  0  0  0  0  0  0
   41.8890   34.4540   40.7920 C   0  0  1  0  0  0  0  0  0  0  0  0
   42.9250   33.3790   40.9720 C   0  0  0  0  0  0  0  0  0  0  0  0
   42.9190   34.3150   39.7130 C   0  0  1  0  0  0  0  0  0  0  0  0
   42.7290   33.6070   38.4310 C   0  0  0  0  0  0  0  0  0  0  0  0
   41.9130   34.2430   37.5320 F   0  0  0  0  0  0  0  0  0  0  0  0
   42.3520   32.2770   38.6020 F   0  0  0  0  0  0  0  0  0  0  0  0
   43.9760   33.5160   37.7910 F   0  0  0  0  0  0  0  0  0  0  0  0
   42.9722   28.8341   42.7591 H   0  0  0  0  0  0  0  0  0  0  0  0
   43.0860   26.8972   44.3135 H   0  0  0  0  0  0  0  0  0  0  0  0
   40.9551   25.7153   44.9342 H   0  0  0  0  0  0  0  0  0  0  0  0
   37.4922   26.5607   42.9391 H   0  0  0  0  0  0  0  0  0  0  0  0
   34.9056   30.3055   40.6661 H   0  0  0  0  0  0  0  0  0  0  0  0
   37.4835   34.2976   39.4704 H   0  0  0  0  0  0  0  0  0  0  0  0
   41.5504   35.3030   41.4041 H   0  0  0  0  0  0  0  0  0  0  0  0
   43.7070   33.4851   41.7383 H   0  0  0  0  0  0  0  0  0  0  0  0
   42.9110   32.2929   41.1460 H   0  0  0  0  0  0  0  0  0  0  0  0
   43.5423   35.0694   39.2107 H   0  0  0  0  0  0  0  0  0  0  0  0
  1  2  2  0
  2  3  1  0
  4  3  2  0
  5  4  1  0
  6  5  2  0
  6  1  1  0
  7  8  1  0
  7  5  1  0
  9  8  2  0
 10 15  2  0
 10  9  1  0
 11 10  1  0
 12 13  1  0
 12 11  2  0
 13 14  2  0
 14 15  1  0
 15  7  1  0
 16 13  1  0
 16 20  1  0
 17 16  1  0
 18 17  2  0
 18 19  1  0
 19 21  1  0
 19 20  2  0
 21 22  1  0
 23 21  1  0
 23 22  1  0
 24 26  1  0
 24 23  1  0
 25 24  1  0
 27 24  1  0
  1 28  1  0
  2 29  1  0
  3 30  1  0
  8 31  1  0
 11 32  1  0
 17 33  1  0
 21 34  1  1
 22 35  1  0
 22 36  1  0
 23 37  1  6
M  ISO  8  28  14  29  14  30  14  31  14  32  14  33  14  34  13  35  13
M  ISO  2  36  13  37  13
M  END
>  <minimizedAffinity>  (1) 
-6.54881287

>  <minimizedRMSD>  (1) 
3.74637675

$$$$
