
     RDKit          3D

 36 40  0  0  1  0  0  0  0  0999 V2000
   40.2080   27.8770   43.1430 C   0  0  0  0  0  0  0  0  0  0  0  0
   39.3310   27.0030   43.7770 C   0  0  0  0  0  0  0  0  0  0  0  0
   37.9610   27.2580   43.6550 C   0  0  0  0  0  0  0  0  0  0  0  0
   37.5830   28.3460   42.9230 N   0  0  0  0  0  0  0  0  0  0  0  0
   38.4630   29.1670   42.3250 C   0  0  0  0  0  0  0  0  0  0  0  0
   39.7890   28.9500   42.4220 N   0  0  0  0  0  0  0  0  0  0  0  0
   37.9060   30.2600   41.6000 N   0  0  0  0  0  0  0  0  0  0  0  0
   36.5990   30.2340   41.2690 C   0  0  0  0  0  0  0  0  0  0  0  0
   36.3250   31.3630   40.6020 N   0  0  0  0  0  0  0  0  0  0  0  0
   37.4130   32.1240   40.4890 C   0  0  0  0  0  0  0  0  0  0  0  0
   37.7910   33.3380   39.9490 C   0  0  0  0  0  0  0  0  0  0  0  0
   39.0600   33.7920   40.0410 N   0  0  0  0  0  0  0  0  0  0  0  0
   39.9930   33.0560   40.6730 C   0  0  0  0  0  0  0  0  0  0  0  0
   39.6640   31.8660   41.2130 N   0  0  0  0  0  0  0  0  0  0  0  0
   38.4070   31.4170   41.1220 C   0  0  0  0  0  0  0  0  0  0  0  0
   41.3400   33.4660   40.7850 N   0  0  0  0  0  0  0  0  0  0  0  0
   42.0890   34.4880   40.3400 C   0  0  0  0  0  0  0  0  0  0  0  0
   43.3520   34.3530   40.7480 N   0  0  0  0  0  0  0  0  0  0  0  0
   43.4010   33.2380   41.4560 C   0  0  0  0  0  0  0  0  0  0  0  0
   42.1660   32.6650   41.4960 N   0  0  0  0  0  0  0  0  0  0  0  0
   44.5960   32.6370   42.1040 C   0  0  1  0  0  0  0  0  0  0  0  0
   45.1330   33.2620   43.3660 C   0  0  0  0  0  0  0  0  0  0  0  0
   44.4270   31.8600   43.3810 C   0  0  1  0  0  0  0  0  0  0  0  0
   43.1680   31.8570   44.0650 N   0  0  0  0  0  0  0  0  0  0  0  0
   41.2888   27.6913   43.2291 H   0  0  0  0  0  0  0  0  0  0  0  0
   39.7014   26.1425   44.3534 H   0  0  0  0  0  0  0  0  0  0  0  0
   37.2152   26.6051   44.1319 H   0  0  0  0  0  0  0  0  0  0  0  0
   35.8860   29.4302   41.5044 H   0  0  0  0  0  0  0  0  0  0  0  0
   37.0391   33.9510   39.4306 H   0  0  0  0  0  0  0  0  0  0  0  0
   41.7138   35.3196   39.7254 H   0  0  0  0  0  0  0  0  0  0  0  0
   45.0351   32.3998   41.1237 H   0  0  0  0  0  0  0  0  0  0  0  0
   46.2183   33.3377   43.5285 H   0  0  0  0  0  0  0  0  0  0  0  0
   44.9936   34.2185   43.8910 H   0  0  0  0  0  0  0  0  0  0  0  0
   44.6604   30.8224   43.6619 H   0  0  0  0  0  0  0  0  0  0  0  0
   43.3299   31.8574   45.0822 H   0  0  0  0  0  0  0  0  0  0  0  0
   42.6325   32.6967   43.8023 H   0  0  0  0  0  0  0  0  0  0  0  0
  1  2  2  0
  3  2  1  0
  4  3  2  0
  5  6  2  0
  5  4  1  0
  6  1  1  0
  7  5  1  0
  8  7  1  0
  9  8  2  0
 10  9  1  0
 10 15  2  0
 11 12  2  0
 11 10  1  0
 12 13  1  0
 13 16  1  0
 13 14  2  0
 15 14  1  0
 15  7  1  0
 16 20  1  0
 17 18  2  0
 17 16  1  0
 18 19  1  0
 19 20  2  0
 19 21  1  0
 21 22  1  0
 21 23  1  0
 22 23  1  0
 23 24  1  0
  1 25  1  0
  2 26  1  0
  3 27  1  0
  8 28  1  0
 11 29  1  0
 17 30  1  0
 21 31  1  6
 22 32  1  0
 22 33  1  0
 23 34  1  6
 24 35  1  0
 24 36  1  0
M  ISO  8  25  14  26  14  27  14  28  14  29  14  30  14  31  13  32  13
M  ISO  4  33  13  34  13  35   5  36   5
M  END
>  <minimizedAffinity>  (1) 
-6.41295481

>  <minimizedRMSD>  (1) 
0.144726574

$$$$
