
     RDKit          3D

 41 46  0  0  1  0  0  0  0  0999 V2000
   40.5640   28.1010   43.0130 C   0  0  0  0  0  0  0  0  0  0  0  0
   39.8620   27.1100   43.7240 C   0  0  0  0  0  0  0  0  0  0  0  0
   38.4690   27.1230   43.6720 C   0  0  0  0  0  0  0  0  0  0  0  0
   37.9080   28.1090   42.9270 N   0  0  0  0  0  0  0  0  0  0  0  0
   38.5740   29.0400   42.2600 C   0  0  0  0  0  0  0  0  0  0  0  0
   39.9300   29.0600   42.2870 N   0  0  0  0  0  0  0  0  0  0  0  0
   37.8070   29.9910   41.5320 N   0  0  0  0  0  0  0  0  0  0  0  0
   36.5270   29.7220   41.2650 C   0  0  0  0  0  0  0  0  0  0  0  0
   36.0300   30.7620   40.5710 N   0  0  0  0  0  0  0  0  0  0  0  0
   36.9610   31.6890   40.3870 C   0  0  0  0  0  0  0  0  0  0  0  0
   37.0800   32.9230   39.7870 C   0  0  0  0  0  0  0  0  0  0  0  0
   38.2410   33.6100   39.8000 N   0  0  0  0  0  0  0  0  0  0  0  0
   39.3230   33.0780   40.4170 C   0  0  0  0  0  0  0  0  0  0  0  0
   39.2310   31.8700   41.0120 N   0  0  0  0  0  0  0  0  0  0  0  0
   38.0810   31.1970   40.9960 C   0  0  0  0  0  0  0  0  0  0  0  0
   40.5840   33.7180   40.4810 N   0  0  0  0  0  0  0  0  0  0  0  0
   41.1150   34.8490   39.9710 C   0  0  0  0  0  0  0  0  0  0  0  0
   42.3930   34.9630   40.3510 N   0  0  0  0  0  0  0  0  0  0  0  0
   42.6640   33.9070   41.0960 C   0  0  0  0  0  0  0  0  0  0  0  0
   41.5520   33.1310   41.1830 N   0  0  0  0  0  0  0  0  0  0  0  0
   43.9540   33.5620   41.7360 C   0  0  1  0  0  0  0  0  0  0  0  0
   44.3490   32.1210   41.8780 C   0  0  0  0  0  0  0  0  0  0  0  0
   45.0980   33.0700   40.8840 C   0  0  1  0  0  0  0  0  0  0  0  0
   44.8840   32.7040   39.5110 N   0  0  0  0  0  0  0  0  0  0  0  0
   44.4360   31.5340   39.0080 C   0  0  0  0  0  0  0  0  0  0  0  0
   44.3790   31.6120   37.6150 C   0  0  0  0  0  0  0  0  0  0  0  0
   44.7980   32.8530   37.2610 N   0  0  0  0  0  0  0  0  0  0  0  0
   45.0910   33.4790   38.4080 C   0  0  0  0  0  0  0  0  0  0  0  0
   41.6635   28.0997   43.0457 H   0  0  0  0  0  0  0  0  0  0  0  0
   40.3982   26.3455   44.3053 H   0  0  0  0  0  0  0  0  0  0  0  0
   37.8598   26.3774   44.2039 H   0  0  0  0  0  0  0  0  0  0  0  0
   35.9784   28.8150   41.5589 H   0  0  0  0  0  0  0  0  0  0  0  0
   36.2050   33.3601   39.2837 H   0  0  0  0  0  0  0  0  0  0  0  0
   40.5774   35.5698   39.3374 H   0  0  0  0  0  0  0  0  0  0  0  0
   43.8356   34.3925   42.4475 H   0  0  0  0  0  0  0  0  0  0  0  0
   44.8498   31.7725   42.7933 H   0  0  0  0  0  0  0  0  0  0  0  0
   43.8302   31.1543   41.7988 H   0  0  0  0  0  0  0  0  0  0  0  0
   46.1106   33.4609   40.7055 H   0  0  0  0  0  0  0  0  0  0  0  0
   44.1580   30.6529   39.6050 H   0  0  0  0  0  0  0  0  0  0  0  0
   44.0542   30.8143   36.9307 H   0  0  0  0  0  0  0  0  0  0  0  0
   45.4612   34.5137   38.4557 H   0  0  0  0  0  0  0  0  0  0  0  0
  1  2  2  0
  3  2  1  0
  4  3  2  0
  5  6  2  0
  5  4  1  0
  6  1  1  0
  7  5  1  0
  8  7  1  0
  9  8  2  0
 10  9  1  0
 10 15  2  0
 11 12  2  0
 11 10  1  0
 12 13  1  0
 13 16  1  0
 13 14  2  0
 15 14  1  0
 15  7  1  0
 16 20  1  0
 17 18  2  0
 17 16  1  0
 18 19  1  0
 19 20  2  0
 19 21  1  0
 21 22  1  0
 23 21  1  0
 23 22  1  0
 24 23  1  0
 25 24  1  0
 26 25  2  0
 27 26  1  0
 27 28  2  0
 28 24  1  0
  1 29  1  0
  2 30  1  0
  3 31  1  0
  8 32  1  0
 11 33  1  0
 17 34  1  0
 21 35  1  1
 22 36  1  0
 22 37  1  0
 23 38  1  1
 25 39  1  0
 26 40  1  0
 28 41  1  0
M  ISO  8  29  14  30  14  31  14  32  14  33  14  34  14  35  13  36  13
M  ISO  5  37  13  38  13  39  14  40  14  41  14
M  END
>  <minimizedAffinity>  (1) 
-6.25489569

>  <minimizedRMSD>  (1) 
3.17231798

$$$$
