
     RDKit          3D

 35 39  0  0  1  0  0  0  0  0999 V2000
   40.3010   27.9030   43.1670 C   0  0  0  0  0  0  0  0  0  0  0  0
   39.4570   26.9880   43.7890 C   0  0  0  0  0  0  0  0  0  0  0  0
   38.0720   27.1530   43.6540 C   0  0  0  0  0  0  0  0  0  0  0  0
   37.6570   28.2160   42.9100 N   0  0  0  0  0  0  0  0  0  0  0  0
   38.4800   29.0820   42.3220 C   0  0  0  0  0  0  0  0  0  0  0  0
   39.8270   28.9460   42.4360 N   0  0  0  0  0  0  0  0  0  0  0  0
   37.8760   30.1420   41.5810 N   0  0  0  0  0  0  0  0  0  0  0  0
   36.5790   30.0370   41.2400 C   0  0  0  0  0  0  0  0  0  0  0  0
   36.2550   31.1470   40.5620 N   0  0  0  0  0  0  0  0  0  0  0  0
   37.2940   31.9650   40.4510 C   0  0  0  0  0  0  0  0  0  0  0  0
   37.6080   33.1950   39.9040 C   0  0  0  0  0  0  0  0  0  0  0  0
   38.8490   33.7210   40.0050 N   0  0  0  0  0  0  0  0  0  0  0  0
   39.8140   33.0420   40.6540 C   0  0  0  0  0  0  0  0  0  0  0  0
   39.5450   31.8420   41.2010 N   0  0  0  0  0  0  0  0  0  0  0  0
   38.3160   31.3180   41.1020 C   0  0  0  0  0  0  0  0  0  0  0  0
   41.1360   33.5240   40.7880 N   0  0  0  0  0  0  0  0  0  0  0  0
   41.8340   34.5900   40.3360 C   0  0  0  0  0  0  0  0  0  0  0  0
   43.0940   34.5340   40.7710 N   0  0  0  0  0  0  0  0  0  0  0  0
   43.1930   33.4340   41.4970 C   0  0  0  0  0  0  0  0  0  0  0  0
   41.9900   32.7910   41.5220 N   0  0  0  0  0  0  0  0  0  0  0  0
   44.4090   32.9170   42.1800 C   0  0  1  0  0  0  0  0  0  0  0  0
   44.9250   33.6460   43.3930 C   0  0  0  0  0  0  0  0  0  0  0  0
   44.2640   32.2280   43.5130 C   0  0  2  0  0  0  0  0  0  0  0  0
   45.3490   30.8600   43.9320 S   0  0  0  0  0  0  0  0  0  0  0  0
   41.3889   27.7778   43.2705 H   0  0  0  0  0  0  0  0  0  0  0  0
   39.8685   26.1526   44.3745 H   0  0  0  0  0  0  0  0  0  0  0  0
   37.3578   26.4608   44.1239 H   0  0  0  0  0  0  0  0  0  0  0  0
   35.9089   29.1966   41.4740 H   0  0  0  0  0  0  0  0  0  0  0  0
   36.8280   33.7602   39.3729 H   0  0  0  0  0  0  0  0  0  0  0  0
   41.4224   35.3884   39.7011 H   0  0  0  0  0  0  0  0  0  0  0  0
   44.8555   32.6243   41.2183 H   0  0  0  0  0  0  0  0  0  0  0  0
   46.0074   33.7672   43.5473 H   0  0  0  0  0  0  0  0  0  0  0  0
   44.7549   34.6331   43.8477 H   0  0  0  0  0  0  0  0  0  0  0  0
   43.4217   31.7783   44.0592 H   0  0  0  0  0  0  0  0  0  0  0  0
   45.4376   30.7482   45.2946 H   0  0  0  0  0  0  0  0  0  0  0  0
  1  2  2  0
  3  2  1  0
  4  3  2  0
  5  6  2  0
  5  4  1  0
  6  1  1  0
  7  5  1  0
  8  7  1  0
  9  8  2  0
 10  9  1  0
 10 15  2  0
 11 12  2  0
 11 10  1  0
 12 13  1  0
 13 16  1  0
 13 14  2  0
 15 14  1  0
 15  7  1  0
 16 20  1  0
 17 18  2  0
 17 16  1  0
 18 19  1  0
 19 20  2  0
 19 21  1  0
 21 22  1  0
 21 23  1  0
 22 23  1  0
 23 24  1  0
  1 25  1  0
  2 26  1  0
  3 27  1  0
  8 28  1  0
 11 29  1  0
 17 30  1  0
 21 31  1  6
 22 32  1  0
 22 33  1  0
 23 34  1  1
 24 35  1  0
M  ISO  8  25  14  26  14  27  14  28  14  29  14  30  14  31  13  32  13
M  ISO  3  33  13  34  13  35  11
M  END
>  <minimizedAffinity>  (1) 
-6.14017344

>  <minimizedRMSD>  (1) 
0.139852881

$$$$
