
     RDKit          3D

 35 37  0  0  1  0  0  0  0  0999 V2000
   38.1730   29.2310   43.3010 C   0  0  0  0  0  0  0  0  0  0  0  0
   37.3500   28.2520   43.8790 C   0  0  0  0  0  0  0  0  0  0  0  0
   36.5650   27.4630   43.0190 C   0  0  0  0  0  0  0  0  0  0  0  0
   36.6620   27.7080   41.6800 N   0  0  0  0  0  0  0  0  0  0  0  0
   37.4710   28.6670   41.1560 C   0  0  0  0  0  0  0  0  0  0  0  0
   38.2130   29.4100   41.9870 N   0  0  0  0  0  0  0  0  0  0  0  0
   37.4790   28.8180   39.7340 N   0  0  0  0  0  0  0  0  0  0  0  0
   36.4230   28.1670   38.9870 C   0  0  0  0  0  0  0  0  0  0  0  0
   36.4550   28.4890   37.5360 C   0  0  0  0  0  0  0  0  0  0  0  0
   36.9960   29.8060   37.3460 N   0  0  0  0  0  0  0  0  0  0  0  0
   38.4220   29.7210   37.6750 C   0  0  0  0  0  0  0  0  0  0  0  0
   38.5730   29.6270   39.1800 C   0  0  1  0  0  0  0  0  0  0  0  0
   38.6210   30.9510   39.7470 N   0  0  0  0  0  0  0  0  0  0  0  0
   39.8360   31.4230   40.1230 C   0  0  0  0  0  0  0  0  0  0  0  0
   39.9660   32.6830   40.6740 C   0  0  0  0  0  0  0  0  0  0  0  0
   38.7910   33.3810   40.8000 C   0  0  0  0  0  0  0  0  0  0  0  0
   38.8980   34.7000   41.3720 N   0  0  0  0  0  0  0  0  0  0  0  0
   37.5680   32.9430   40.4370 N   0  0  0  0  0  0  0  0  0  0  0  0
   37.5120   31.6910   39.9000 C   0  0  0  0  0  0  0  0  0  0  0  0
   36.3840   31.2670   39.5570 O   0  0  0  0  0  0  0  0  0  0  0  0
   38.7973   29.8624   43.9503 H   0  0  0  0  0  0  0  0  0  0  0  0
   37.3199   28.1065   44.9689 H   0  0  0  0  0  0  0  0  0  0  0  0
   35.8993   26.6795   43.4102 H   0  0  0  0  0  0  0  0  0  0  0  0
   36.5282   27.0786   39.1070 H   0  0  0  0  0  0  0  0  0  0  0  0
   35.4648   28.5329   39.3844 H   0  0  0  0  0  0  0  0  0  0  0  0
   37.0853   27.7553   37.0121 H   0  0  0  0  0  0  0  0  0  0  0  0
   35.4328   28.4523   37.1313 H   0  0  0  0  0  0  0  0  0  0  0  0
   36.8736   30.1033   36.3675 H   0  0  0  0  0  0  0  0  0  0  0  0
   38.8572   28.8275   37.2036 H   0  0  0  0  0  0  0  0  0  0  0  0
   38.9446   30.6145   37.3028 H   0  0  0  0  0  0  0  0  0  0  0  0
   39.5174   29.1261   39.4392 H   0  0  0  0  0  0  0  0  0  0  0  0
   40.7286   30.7946   39.9874 H   0  0  0  0  0  0  0  0  0  0  0  0
   40.9364   33.0952   40.9876 H   0  0  0  0  0  0  0  0  0  0  0  0
   38.0544   35.2780   41.4949 H   0  0  0  0  0  0  0  0  0  0  0  0
   39.8181   35.0643   41.6578 H   0  0  0  0  0  0  0  0  0  0  0  0
  1  2  2  0
  3  2  1  0
  4  3  2  0
  5  4  1  0
  5  6  2  0
  6  1  1  0
  7  5  1  0
  8  7  1  0
  9  8  1  0
 10  9  1  0
 10 11  1  0
 11 12  1  0
 12  7  1  0
 12 13  1  0
 13 19  1  0
 13 14  1  0
 14 15  2  0
 15 16  1  0
 16 17  1  0
 18 16  2  0
 19 18  1  0
 20 19  2  0
  1 21  1  0
  2 22  1  0
  3 23  1  0
  8 24  1  0
  8 25  1  0
  9 26  1  0
  9 27  1  0
 10 28  1  0
 11 29  1  0
 11 30  1  0
 12 31  1  6
 14 32  1  0
 15 33  1  0
 17 34  1  0
 17 35  1  0
M  ISO  8  21  14  22  14  23  14  24  13  25  13  26  13  27  13  28   5
M  ISO  5  29  13  30  13  31  13  32  14  33  14
M  END
>  <minimizedAffinity>  (1) 
-5.73022413

>  <minimizedRMSD>  (1) 
3.55461955

$$$$
