
     RDKit          3D

 40 43  0  0  1  0  0  0  0  0999 V2000
   39.7390   26.6100   38.0820 C   0  0  0  0  0  0  0  0  0  0  0  0
   39.4510   26.9500   36.7520 C   0  0  0  0  0  0  0  0  0  0  0  0
   38.6160   28.0440   36.5410 C   0  0  0  0  0  0  0  0  0  0  0  0
   38.1300   28.7150   37.6220 N   0  0  0  0  0  0  0  0  0  0  0  0
   38.4190   28.3720   38.8900 C   0  0  0  0  0  0  0  0  0  0  0  0
   39.2250   27.3180   39.0790 N   0  0  0  0  0  0  0  0  0  0  0  0
   37.8670   29.1300   39.9530 N   0  0  0  0  0  0  0  0  0  0  0  0
   36.7600   30.0250   39.6330 C   0  0  0  0  0  0  0  0  0  0  0  0
   36.2100   30.7080   40.8450 C   0  0  0  0  0  0  0  0  0  0  0  0
   36.3050   29.8300   41.9600 N   0  0  0  0  0  0  0  0  0  0  0  0
   37.7280   29.7310   42.3230 C   0  0  0  0  0  0  0  0  0  0  0  0
   38.4670   28.9390   41.2790 C   0  0  1  0  0  0  0  0  0  0  0  0
   38.3090   27.5250   41.6140 C   0  0  0  0  0  0  0  0  0  0  0  0
   37.0850   26.8900   41.3720 C   0  0  0  0  0  0  0  0  0  0  0  0
   36.8450   25.5610   41.6570 C   0  0  0  0  0  0  0  0  0  0  0  0
   37.8400   24.7830   42.2080 C   0  0  0  0  0  0  0  0  0  0  0  0
   39.0460   25.3950   42.4490 C   0  0  0  0  0  0  0  0  0  0  0  0
   40.0650   24.6430   43.0020 C   0  0  0  0  0  0  0  0  0  0  0  0
   41.2860   25.2190   43.2570 C   0  0  0  0  0  0  0  0  0  0  0  0
   41.5120   26.5480   42.9700 C   0  0  0  0  0  0  0  0  0  0  0  0
   40.5140   27.3030   42.4230 C   0  0  0  0  0  0  0  0  0  0  0  0
   39.2760   26.7190   42.1630 C   0  0  0  0  0  0  0  0  0  0  0  0
   40.3936   25.7530   38.2990 H   0  0  0  0  0  0  0  0  0  0  0  0
   39.8674   26.3763   35.9109 H   0  0  0  0  0  0  0  0  0  0  0  0
   38.3538   28.3604   35.5206 H   0  0  0  0  0  0  0  0  0  0  0  0
   37.1168   30.7901   38.9278 H   0  0  0  0  0  0  0  0  0  0  0  0
   35.9538   29.4180   39.1953 H   0  0  0  0  0  0  0  0  0  0  0  0
   36.7878   31.6221   41.0462 H   0  0  0  0  0  0  0  0  0  0  0  0
   35.1567   30.9745   40.6731 H   0  0  0  0  0  0  0  0  0  0  0  0
   35.7652   30.2072   42.7520 H   0  0  0  0  0  0  0  0  0  0  0  0
   38.1592   30.7408   42.3882 H   0  0  0  0  0  0  0  0  0  0  0  0
   37.8202   29.2248   43.2952 H   0  0  0  0  0  0  0  0  0  0  0  0
   39.5180   29.2630   41.2583 H   0  0  0  0  0  0  0  0  0  0  0  0
   36.2701   27.4826   40.9306 H   0  0  0  0  0  0  0  0  0  0  0  0
   35.8588   25.1226   41.4442 H   0  0  0  0  0  0  0  0  0  0  0  0
   37.6762   23.7212   42.4439 H   0  0  0  0  0  0  0  0  0  0  0  0
   39.8983   23.5817   43.2384 H   0  0  0  0  0  0  0  0  0  0  0  0
   42.0924   24.6126   43.6952 H   0  0  0  0  0  0  0  0  0  0  0  0
   42.4929   26.9990   43.1808 H   0  0  0  0  0  0  0  0  0  0  0  0
   40.6863   28.3640   42.1895 H   0  0  0  0  0  0  0  0  0  0  0  0
  1  6  2  0
  2  1  1  0
  3  2  2  0
  3  4  1  0
  4  5  2  0
  5  6  1  0
  5  7  1  0
  7 12  1  0
  8  7  1  0
  8  9  1  0
  9 10  1  0
 10 11  1  0
 12 13  1  0
 12 11  1  0
 13 22  1  0
 14 13  2  0
 14 15  1  0
 15 16  2  0
 16 17  1  0
 17 18  2  0
 18 19  1  0
 20 19  2  0
 21 20  1  0
 22 21  2  0
 22 17  1  0
  1 23  1  0
  2 24  1  0
  3 25  1  0
  8 26  1  0
  8 27  1  0
  9 28  1  0
  9 29  1  0
 10 30  1  0
 11 31  1  0
 11 32  1  0
 12 33  1  6
 14 34  1  0
 15 35  1  0
 16 36  1  0
 18 37  1  0
 19 38  1  0
 20 39  1  0
 21 40  1  0
M  ISO  8  23  14  24  14  25  14  26  13  27  13  28  13  29  13  30   5
M  ISO  8  31  13  32  13  33  13  34  14  35  14  36  14  37  14  38  14
M  ISO  2  39  14  40  14
M  END
>  <minimizedAffinity>  (1) 
-5.54734468

>  <minimizedRMSD>  (1) 
5.55388594

$$$$
