
     RDKit          3D

 37 39  0  0  1  0  0  0  0  0999 V2000
   40.1030   27.4170   43.5230 C   0  0  0  0  0  0  0  0  0  0  0  0
   39.8250   26.0350   43.3380 C   0  0  0  0  0  0  0  0  0  0  0  0
   38.7420   25.6840   42.5380 C   0  0  0  0  0  0  0  0  0  0  0  0
   38.0140   26.6820   41.9780 N   0  0  0  0  0  0  0  0  0  0  0  0
   38.2970   27.9940   42.1680 C   0  0  0  0  0  0  0  0  0  0  0  0
   39.3460   28.3570   42.9430 N   0  0  0  0  0  0  0  0  0  0  0  0
   37.4580   28.9520   41.5260 N   0  0  0  0  0  0  0  0  0  0  0  0
   36.1810   28.4880   41.0090 C   0  0  0  0  0  0  0  0  0  0  0  0
   35.3190   29.5870   40.5050 C   0  0  0  0  0  0  0  0  0  0  0  0
   35.5790   30.7830   41.2450 N   0  0  0  0  0  0  0  0  0  0  0  0
   36.9160   31.2500   40.8690 C   0  0  0  0  0  0  0  0  0  0  0  0
   37.9650   30.3370   41.4480 C   0  0  2  0  0  0  0  0  0  0  0  0
   41.0640   30.3200   38.6420 C   0  0  0  0  0  0  0  0  0  0  0  0
   39.8160   29.8590   38.2770 C   0  0  0  0  0  0  0  0  0  0  0  0
   38.8130   29.8760   39.2240 C   0  0  0  0  0  0  0  0  0  0  0  0
   39.0980   30.3510   40.4860 C   0  0  0  0  0  0  0  0  0  0  0  0
   40.3420   30.8200   40.8750 C   0  0  0  0  0  0  0  0  0  0  0  0
   41.3300   30.7960   39.9220 C   0  0  0  0  0  0  0  0  0  0  0  0
   42.2940   30.2680   37.3800 S   0  0  0  0  0  0  0  0  0  0  0  0
   42.3930   31.5900   36.7100 O   0  0  0  0  0  0  0  0  0  0  0  0
   41.8850   29.2000   36.3990 O   0  0  0  0  0  0  0  0  0  0  0  0
   40.9532   27.7187   44.1524 H   0  0  0  0  0  0  0  0  0  0  0  0
   40.4490   25.2644   43.8142 H   0  0  0  0  0  0  0  0  0  0  0  0
   38.4840   24.6288   42.3649 H   0  0  0  0  0  0  0  0  0  0  0  0
   36.3722   27.7871   40.1831 H   0  0  0  0  0  0  0  0  0  0  0  0
   35.6459   28.0092   41.8423 H   0  0  0  0  0  0  0  0  0  0  0  0
   35.5346   29.7617   39.4406 H   0  0  0  0  0  0  0  0  0  0  0  0
   34.2625   29.3060   40.6272 H   0  0  0  0  0  0  0  0  0  0  0  0
   34.8774   31.5003   41.0124 H   0  0  0  0  0  0  0  0  0  0  0  0
   37.0042   31.2563   39.7726 H   0  0  0  0  0  0  0  0  0  0  0  0
   37.0663   32.2662   41.2624 H   0  0  0  0  0  0  0  0  0  0  0  0
   38.2509   30.6692   42.4569 H   0  0  0  0  0  0  0  0  0  0  0  0
   39.6259   29.4881   37.2590 H   0  0  0  0  0  0  0  0  0  0  0  0
   37.8033   29.5167   38.9762 H   0  0  0  0  0  0  0  0  0  0  0  0
   40.5284   31.1919   41.8933 H   0  0  0  0  0  0  0  0  0  0  0  0
   42.3390   31.1556   40.1722 H   0  0  0  0  0  0  0  0  0  0  0  0
   43.5254   29.9805   37.9071 H   0  0  0  0  0  0  0  0  0  0  0  0
  2  1  2  0
  3  2  1  0
  4  5  1  0
  4  3  2  0
  5  6  2  0
  6  1  1  0
  7  5  1  0
  8  7  1  0
  9  8  1  0
  9 10  1  0
 11 10  1  0
 11 12  1  0
 12  7  1  0
 13 18  2  0
 14 13  1  0
 14 15  2  0
 15 16  1  0
 16 17  2  0
 16 12  1  0
 18 17  1  0
 19 13  1  0
 20 19  2  0
 21 19  2  0
  1 22  1  0
  2 23  1  0
  3 24  1  0
  8 25  1  0
  8 26  1  0
  9 27  1  0
  9 28  1  0
 10 29  1  0
 11 30  1  0
 11 31  1  0
 12 32  1  1
 14 33  1  0
 15 34  1  0
 17 35  1  0
 18 36  1  0
 19 37  1  0
M  ISO  8  22  14  23  14  24  14  25  13  26  13  27  13  28  13  29   5
M  ISO  8  30  13  31  13  32  13  33  14  34  14  35  14  36  14  37  11
M  END
>  <minimizedAffinity>  (1) 
-5.38452673

>  <minimizedRMSD>  (1) 
0.342923492

$$$$
