
     RDKit          3D

 33 35  0  0  1  0  0  0  0  0999 V2000
   39.5670   26.7020   43.9570 C   0  0  0  0  0  0  0  0  0  0  0  0
   39.6690   25.3870   43.4220 C   0  0  0  0  0  0  0  0  0  0  0  0
   38.9750   25.1030   42.2290 C   0  0  0  0  0  0  0  0  0  0  0  0
   38.2450   26.1180   41.6620 N   0  0  0  0  0  0  0  0  0  0  0  0
   38.1760   27.3430   42.1990 C   0  0  0  0  0  0  0  0  0  0  0  0
   38.8410   27.6340   43.3530 N   0  0  0  0  0  0  0  0  0  0  0  0
   37.3870   28.3390   41.5350 N   0  0  0  0  0  0  0  0  0  0  0  0
   36.5300   27.8750   40.4580 C   0  0  0  0  0  0  0  0  0  0  0  0
   35.5540   28.8890   39.9880 C   0  0  0  0  0  0  0  0  0  0  0  0
   35.2910   29.8570   41.0020 N   0  0  0  0  0  0  0  0  0  0  0  0
   36.5300   30.5970   41.2360 C   0  0  0  0  0  0  0  0  0  0  0  0
   37.4990   29.7210   41.9790 C   0  0  2  0  0  0  0  0  0  0  0  0
   38.8860   30.2260   41.6950 C   0  0  0  0  0  0  0  0  0  0  0  0
   39.6750   30.7660   42.6870 C   0  0  0  0  0  0  0  0  0  0  0  0
   40.9490   31.2300   42.4300 C   0  0  0  0  0  0  0  0  0  0  0  0
   41.4290   31.1370   41.1210 C   0  0  0  0  0  0  0  0  0  0  0  0
   40.6030   30.5900   40.1670 C   0  0  0  0  0  0  0  0  0  0  0  0
   39.3670   30.1440   40.4320 N   0  0  0  0  0  0  0  0  0  0  0  0
   40.0992   26.9499   44.8872 H   0  0  0  0  0  0  0  0  0  0  0  0
   40.2713   24.6159   43.9246 H   0  0  0  0  0  0  0  0  0  0  0  0
   39.0166   24.1047   41.7689 H   0  0  0  0  0  0  0  0  0  0  0  0
   37.1665   27.5868   39.6084 H   0  0  0  0  0  0  0  0  0  0  0  0
   35.9475   27.0303   40.8544 H   0  0  0  0  0  0  0  0  0  0  0  0
   35.9629   29.3980   39.1027 H   0  0  0  0  0  0  0  0  0  0  0  0
   34.6119   28.3784   39.7395 H   0  0  0  0  0  0  0  0  0  0  0  0
   34.5505   30.5011   40.6895 H   0  0  0  0  0  0  0  0  0  0  0  0
   36.9682   30.8942   40.2718 H   0  0  0  0  0  0  0  0  0  0  0  0
   36.3151   31.4965   41.8316 H   0  0  0  0  0  0  0  0  0  0  0  0
   37.2799   29.7541   43.0564 H   0  0  0  0  0  0  0  0  0  0  0  0
   39.2788   30.8290   43.7113 H   0  0  0  0  0  0  0  0  0  0  0  0
   41.5679   31.6600   43.2313 H   0  0  0  0  0  0  0  0  0  0  0  0
   42.4376   31.4908   40.8612 H   0  0  0  0  0  0  0  0  0  0  0  0
   40.9754   30.5147   39.1347 H   0  0  0  0  0  0  0  0  0  0  0  0
  2  1  2  0
  3  2  1  0
  4  5  1  0
  4  3  2  0
  5  6  2  0
  6  1  1  0
  7 12  1  0
  7  5  1  0
  8  7  1  0
  9  8  1  0
  9 10  1  0
 10 11  1  0
 11 12  1  0
 13 12  1  0
 13 14  2  0
 15 14  1  0
 16 15  2  0
 17 18  2  0
 17 16  1  0
 18 13  1  0
  1 19  1  0
  2 20  1  0
  3 21  1  0
  8 22  1  0
  8 23  1  0
  9 24  1  0
  9 25  1  0
 10 26  1  0
 11 27  1  0
 11 28  1  0
 12 29  1  1
 14 30  1  0
 15 31  1  0
 16 32  1  0
 17 33  1  0
M  ISO  8  19  14  20  14  21  14  22  13  23  13  24  13  25  13  26   5
M  ISO  7  27  13  28  13  29  13  30  14  31  14  32  14  33  14
M  END
>  <minimizedAffinity>  (1) 
-5.18374872

>  <minimizedRMSD>  (1) 
1.4500196

$$$$
