
     RDKit          3D

 37 39  0  0  1  0  0  0  0  0999 V2000
   37.9340   29.1850   43.4020 C   0  0  0  0  0  0  0  0  0  0  0  0
   37.3550   28.0500   43.9890 C   0  0  0  0  0  0  0  0  0  0  0  0
   36.6330   27.1810   43.1550 C   0  0  0  0  0  0  0  0  0  0  0  0
   36.5520   27.5110   41.8370 N   0  0  0  0  0  0  0  0  0  0  0  0
   37.1190   28.6070   41.3020 C   0  0  0  0  0  0  0  0  0  0  0  0
   37.8110   29.4420   42.0990 N   0  0  0  0  0  0  0  0  0  0  0  0
   36.9690   28.8530   39.9030 N   0  0  0  0  0  0  0  0  0  0  0  0
   35.9380   28.0750   39.2220 C   0  0  0  0  0  0  0  0  0  0  0  0
   35.8710   28.4170   37.7620 C   0  0  0  0  0  0  0  0  0  0  0  0
   36.0030   29.8400   37.6630 N   0  0  0  0  0  0  0  0  0  0  0  0
   37.4160   30.1580   37.8840 C   0  0  0  0  0  0  0  0  0  0  0  0
   37.8440   29.8440   39.2810 C   0  0  1  0  0  0  0  0  0  0  0  0
   38.1150   30.9750   40.0950 N   0  0  0  0  0  0  0  0  0  0  0  0
   37.1340   32.0080   40.0850 C   0  0  0  0  0  0  0  0  0  0  0  0
   37.8370   33.3440   39.8790 C   0  0  0  0  0  0  0  0  0  0  0  0
   38.7330   33.4980   40.9440 O   0  0  0  0  0  0  0  0  0  0  0  0
   39.7770   32.5880   40.8560 C   0  0  0  0  0  0  0  0  0  0  0  0
   39.4690   31.4170   39.9650 C   0  0  0  0  0  0  0  0  0  0  0  0
   38.5048   29.8818   44.0334 H   0  0  0  0  0  0  0  0  0  0  0  0
   37.4628   27.8478   45.0649 H   0  0  0  0  0  0  0  0  0  0  0  0
   36.1537   26.2730   43.5497 H   0  0  0  0  0  0  0  0  0  0  0  0
   36.1678   27.0046   39.3290 H   0  0  0  0  0  0  0  0  0  0  0  0
   34.9659   28.3123   39.6788 H   0  0  0  0  0  0  0  0  0  0  0  0
   36.6899   27.9222   37.2193 H   0  0  0  0  0  0  0  0  0  0  0  0
   34.9225   28.0772   37.3205 H   0  0  0  0  0  0  0  0  0  0  0  0
   35.7115   30.1576   36.7276 H   0  0  0  0  0  0  0  0  0  0  0  0
   38.0271   29.5696   37.1837 H   0  0  0  0  0  0  0  0  0  0  0  0
   37.5534   31.2368   37.7188 H   0  0  0  0  0  0  0  0  0  0  0  0
   38.8349   29.3752   39.1892 H   0  0  0  0  0  0  0  0  0  0  0  0
   36.4211   31.8341   39.2655 H   0  0  0  0  0  0  0  0  0  0  0  0
   36.5858   32.0149   41.0387 H   0  0  0  0  0  0  0  0  0  0  0  0
   38.3815   33.3420   38.9232 H   0  0  0  0  0  0  0  0  0  0  0  0
   37.1123   34.1711   39.8501 H   0  0  0  0  0  0  0  0  0  0  0  0
   40.6608   33.1075   40.4574 H   0  0  0  0  0  0  0  0  0  0  0  0
   39.9513   32.1920   41.8673 H   0  0  0  0  0  0  0  0  0  0  0  0
   40.1390   30.5857   40.2297 H   0  0  0  0  0  0  0  0  0  0  0  0
   39.6185   31.7390   38.9239 H   0  0  0  0  0  0  0  0  0  0  0  0
  1  2  2  0
  3  2  1  0
  4  3  2  0
  5  4  1  0
  5  6  2  0
  6  1  1  0
  7  5  1  0
  8  7  1  0
  9  8  1  0
 10  9  1  0
 10 11  1  0
 11 12  1  0
 12  7  1  0
 12 13  1  0
 14 13  1  0
 15 14  1  0
 15 16  1  0
 17 16  1  0
 18 13  1  0
 18 17  1  0
  1 19  1  0
  2 20  1  0
  3 21  1  0
  8 22  1  0
  8 23  1  0
  9 24  1  0
  9 25  1  0
 10 26  1  0
 11 27  1  0
 11 28  1  0
 12 29  1  6
 14 30  1  0
 14 31  1  0
 15 32  1  0
 15 33  1  0
 17 34  1  0
 17 35  1  0
 18 36  1  0
 18 37  1  0
M  ISO  8  19  14  20  14  21  14  22  13  23  13  24  13  25  13  26   5
M  ISO  8  27  13  28  13  29  13  30  13  31  13  32  13  33  13  34  13
M  ISO  3  35  13  36  13  37  13
M  END
>  <minimizedAffinity>  (1) 
-4.9624548

>  <minimizedRMSD>  (1) 
3.3098433

$$$$
