
     RDKit          3D

 31 33  0  0  1  0  0  0  0  0999 V2000
   40.0140   27.3380   43.5870 C   0  0  0  0  0  0  0  0  0  0  0  0
   39.7350   25.9740   43.3950 C   0  0  0  0  0  0  0  0  0  0  0  0
   38.6640   25.6390   42.5640 C   0  0  0  0  0  0  0  0  0  0  0  0
   37.9520   26.6480   41.9870 N   0  0  0  0  0  0  0  0  0  0  0  0
   38.2470   27.9520   42.1940 C   0  0  0  0  0  0  0  0  0  0  0  0
   39.2830   28.2930   42.9970 N   0  0  0  0  0  0  0  0  0  0  0  0
   37.4450   28.9340   41.5470 N   0  0  0  0  0  0  0  0  0  0  0  0
   36.1530   28.4900   41.0360 C   0  0  0  0  0  0  0  0  0  0  0  0
   35.3160   29.6040   40.5050 C   0  0  0  0  0  0  0  0  0  0  0  0
   35.6030   30.8020   41.2290 N   0  0  0  0  0  0  0  0  0  0  0  0
   36.9660   31.2300   40.8390 C   0  0  0  0  0  0  0  0  0  0  0  0
   37.9710   30.2910   41.4480 C   0  0  2  0  0  0  0  0  0  0  0  0
   39.1760   30.3510   40.6400 N   0  0  0  0  0  0  0  0  0  0  0  0
   40.2350   31.0610   41.0440 C   0  0  0  0  0  0  0  0  0  0  0  0
   41.2260   30.9340   40.0810 C   0  0  0  0  0  0  0  0  0  0  0  0
   40.7010   30.1280   39.1110 N   0  0  0  0  0  0  0  0  0  0  0  0
   39.4580   29.7840   39.4680 C   0  0  0  0  0  0  0  0  0  0  0  0
   40.8525   27.6283   44.2371 H   0  0  0  0  0  0  0  0  0  0  0  0
   40.3403   25.1960   43.8832 H   0  0  0  0  0  0  0  0  0  0  0  0
   38.4014   24.5868   42.3796 H   0  0  0  0  0  0  0  0  0  0  0  0
   36.3275   27.7671   40.2255 H   0  0  0  0  0  0  0  0  0  0  0  0
   35.6050   28.0428   41.8784 H   0  0  0  0  0  0  0  0  0  0  0  0
   35.5418   29.7566   39.4393 H   0  0  0  0  0  0  0  0  0  0  0  0
   34.2519   29.3510   40.6216 H   0  0  0  0  0  0  0  0  0  0  0  0
   34.9199   31.5337   40.9865 H   0  0  0  0  0  0  0  0  0  0  0  0
   37.0591   31.2087   39.7432 H   0  0  0  0  0  0  0  0  0  0  0  0
   37.1499   32.2531   41.1988 H   0  0  0  0  0  0  0  0  0  0  0  0
   38.2006   30.5966   42.4795 H   0  0  0  0  0  0  0  0  0  0  0  0
   40.3076   31.6426   41.9748 H   0  0  0  0  0  0  0  0  0  0  0  0
   42.2276   31.3885   40.0957 H   0  0  0  0  0  0  0  0  0  0  0  0
   38.7806   29.1391   38.8890 H   0  0  0  0  0  0  0  0  0  0  0  0
  2  1  2  0
  3  2  1  0
  4  5  1  0
  4  3  2  0
  5  6  2  0
  6  1  1  0
  7  5  1  0
  8  7  1  0
  9  8  1  0
  9 10  1  0
 11 10  1  0
 11 12  1  0
 12  7  1  0
 13 14  1  0
 13 12  1  0
 15 14  2  0
 16 17  2  0
 16 15  1  0
 17 13  1  0
  1 18  1  0
  2 19  1  0
  3 20  1  0
  8 21  1  0
  8 22  1  0
  9 23  1  0
  9 24  1  0
 10 25  1  0
 11 26  1  0
 11 27  1  0
 12 28  1  1
 14 29  1  0
 15 30  1  0
 17 31  1  0
M  ISO  8  18  14  19  14  20  14  21  13  22  13  23  13  24  13  25   5
M  ISO  6  26  13  27  13  28  13  29  14  30  14  31  14
M  END
>  <minimizedAffinity>  (1) 
-4.93575001

>  <minimizedRMSD>  (1) 
0.305738777

$$$$
