
     RDKit          3D

 38 41  0  0  1  0  0  0  0  0999 V2000
   38.6340   27.3280   43.7260 C   0  0  0  0  0  0  0  0  0  0  0  0
   37.2610   27.6310   43.7690 C   0  0  0  0  0  0  0  0  0  0  0  0
   36.6900   28.1910   42.6250 C   0  0  0  0  0  0  0  0  0  0  0  0
   37.4920   28.4100   41.5370 N   0  0  0  0  0  0  0  0  0  0  0  0
   38.7980   28.1120   41.5240 C   0  0  0  0  0  0  0  0  0  0  0  0
   39.3400   27.5740   42.6270 N   0  0  0  0  0  0  0  0  0  0  0  0
   39.5670   28.3660   40.3600 N   0  0  0  0  0  0  0  0  0  0  0  0
   38.9140   29.1390   39.3060 C   0  0  0  0  0  0  0  0  0  0  0  0
   39.8120   29.4060   38.1510 C   0  0  0  0  0  0  0  0  0  0  0  0
   41.1490   29.6080   38.6480 N   0  0  0  0  0  0  0  0  0  0  0  0
   41.6250   28.2660   39.0370 C   0  0  0  0  0  0  0  0  0  0  0  0
   40.9420   27.8400   40.3090 C   0  0  1  0  0  0  0  0  0  0  0  0
   41.6600   28.2820   41.4880 N   0  0  0  0  0  0  0  0  0  0  0  0
   42.3380   27.5830   42.4300 C   0  0  0  0  0  0  0  0  0  0  0  0
   42.8540   28.4090   43.3570 N   0  0  0  0  0  0  0  0  0  0  0  0
   42.5370   29.6730   43.0610 C   0  0  0  0  0  0  0  0  0  0  0  0
   42.7620   30.9190   43.6000 C   0  0  0  0  0  0  0  0  0  0  0  0
   43.4310   31.0170   44.6520 O   0  0  0  0  0  0  0  0  0  0  0  0
   42.2720   32.0220   43.0100 N   0  0  0  0  0  0  0  0  0  0  0  0
   41.5490   31.9140   41.8740 C   0  0  0  0  0  0  0  0  0  0  0  0
   40.9630   32.9880   41.1330 N   0  0  0  0  0  0  0  0  0  0  0  0
   41.3140   30.7030   41.3260 N   0  0  0  0  0  0  0  0  0  0  0  0
   41.7930   29.5700   41.8930 C   0  0  0  0  0  0  0  0  0  0  0  0
   39.1253   26.8858   44.6053 H   0  0  0  0  0  0  0  0  0  0  0  0
   36.6605   27.4342   44.6694 H   0  0  0  0  0  0  0  0  0  0  0  0
   35.6213   28.4502   42.5981 H   0  0  0  0  0  0  0  0  0  0  0  0
   38.0383   28.5774   38.9486 H   0  0  0  0  0  0  0  0  0  0  0  0
   38.6265   30.1101   39.7352 H   0  0  0  0  0  0  0  0  0  0  0  0
   39.4739   30.3074   37.6189 H   0  0  0  0  0  0  0  0  0  0  0  0
   39.7936   28.5545   37.4548 H   0  0  0  0  0  0  0  0  0  0  0  0
   41.7512   30.0057   37.9131 H   0  0  0  0  0  0  0  0  0  0  0  0
   41.3911   27.5480   38.2371 H   0  0  0  0  0  0  0  0  0  0  0  0
   42.7129   28.2952   39.1973 H   0  0  0  0  0  0  0  0  0  0  0  0
   40.9238   26.7402   40.3055 H   0  0  0  0  0  0  0  0  0  0  0  0
   42.4509   26.4888   42.4356 H   0  0  0  0  0  0  0  0  0  0  0  0
   42.4474   32.9490   43.4233 H   0  0  0  0  0  0  0  0  0  0  0  0
   40.4285   32.7903   40.2750 H   0  0  0  0  0  0  0  0  0  0  0  0
   41.0755   33.9591   41.4574 H   0  0  0  0  0  0  0  0  0  0  0  0
  1  2  2  0
  3  2  1  0
  4  3  2  0
  5  4  1  0
  5  6  2  0
  6  1  1  0
  7  5  1  0
  8  7  1  0
  9 10  1  0
  9  8  1  0
 10 11  1  0
 11 12  1  0
 12  7  1  0
 12 13  1  0
 13 23  1  0
 13 14  1  0
 14 15  2  0
 16 15  1  0
 16 17  1  0
 17 18  2  0
 19 17  1  0
 20 19  1  0
 21 20  1  0
 22 20  2  0
 22 23  1  0
 23 16  2  0
  1 24  1  0
  2 25  1  0
  3 26  1  0
  8 27  1  0
  8 28  1  0
  9 29  1  0
  9 30  1  0
 10 31  1  0
 11 32  1  0
 11 33  1  0
 12 34  1  6
 14 35  1  0
 19 36  1  0
 21 37  1  0
 21 38  1  0
M  ISO  8  24  14  25  14  26  14  27  13  28  13  29  13  30  13  31   5
M  ISO  5  32  13  33  13  34  13  35  14  36   9
M  END
>  <minimizedAffinity>  (1) 
-4.8123703

>  <minimizedRMSD>  (1) 
4.18914366

$$$$
