
     RDKit          3D

 31 33  0  0  1  0  0  0  0  0999 V2000
   37.2920   26.8340   39.7790 C   0  0  0  0  0  0  0  0  0  0  0  0
   36.7970   26.4660   38.5190 C   0  0  0  0  0  0  0  0  0  0  0  0
   36.5750   27.4750   37.5880 C   0  0  0  0  0  0  0  0  0  0  0  0
   36.8580   28.7440   37.9820 N   0  0  0  0  0  0  0  0  0  0  0  0
   37.3290   29.0760   39.1850 C   0  0  0  0  0  0  0  0  0  0  0  0
   37.5490   28.0900   40.1010 N   0  0  0  0  0  0  0  0  0  0  0  0
   37.5820   30.4460   39.4820 N   0  0  0  0  0  0  0  0  0  0  0  0
   36.9430   31.4240   38.6030 C   0  0  0  0  0  0  0  0  0  0  0  0
   37.3220   32.8250   39.0000 C   0  0  0  0  0  0  0  0  0  0  0  0
   37.2420   32.8690   40.4400 N   0  0  0  0  0  0  0  0  0  0  0  0
   38.4430   32.2040   40.9460 C   0  0  0  0  0  0  0  0  0  0  0  0
   38.4510   30.7490   40.6170 C   0  0  1  0  0  0  0  0  0  0  0  0
   38.0840   29.9030   41.7840 C   0  0  0  0  0  0  0  0  0  0  0  0
   38.9510   29.1250   42.5440 C   0  0  0  0  0  0  0  0  0  0  0  0
   38.2650   28.4750   43.5460 C   0  0  0  0  0  0  0  0  0  0  0  0
   36.9900   28.8630   43.3840 N   0  0  0  0  0  0  0  0  0  0  0  0
   36.8860   29.6840   42.3720 N   0  0  0  0  0  0  0  0  0  0  0  0
   37.4730   26.0480   40.5269 H   0  0  0  0  0  0  0  0  0  0  0  0
   36.5911   25.4133   38.2753 H   0  0  0  0  0  0  0  0  0  0  0  0
   36.1890   27.2562   36.5815 H   0  0  0  0  0  0  0  0  0  0  0  0
   35.8509   31.3122   38.6723 H   0  0  0  0  0  0  0  0  0  0  0  0
   37.2808   31.2456   37.5715 H   0  0  0  0  0  0  0  0  0  0  0  0
   38.3456   33.0522   38.6675 H   0  0  0  0  0  0  0  0  0  0  0  0
   36.6551   33.5677   38.5378 H   0  0  0  0  0  0  0  0  0  0  0  0
   37.2133   33.8461   40.7646 H   0  0  0  0  0  0  0  0  0  0  0  0
   39.3282   32.6759   40.4947 H   0  0  0  0  0  0  0  0  0  0  0  0
   38.4551   32.3069   42.0411 H   0  0  0  0  0  0  0  0  0  0  0  0
   39.4867   30.5054   40.3377 H   0  0  0  0  0  0  0  0  0  0  0  0
   40.0337   29.0406   42.3692 H   0  0  0  0  0  0  0  0  0  0  0  0
   38.6703   27.7921   44.3072 H   0  0  0  0  0  0  0  0  0  0  0  0
   36.2037   28.5566   43.9745 H   0  0  0  0  0  0  0  0  0  0  0  0
  1  6  2  0
  2  1  1  0
  3  4  1  0
  3  2  2  0
  4  5  2  0
  5  7  1  0
  5  6  1  0
  7 12  1  0
  8  9  1  0
  8  7  1  0
  9 10  1  0
 10 11  1  0
 12 11  1  0
 12 13  1  0
 13 17  2  0
 13 14  1  0
 14 15  2  0
 16 15  1  0
 17 16  1  0
  1 18  1  0
  2 19  1  0
  3 20  1  0
  8 21  1  0
  8 22  1  0
  9 23  1  0
  9 24  1  0
 10 25  1  0
 11 26  1  0
 11 27  1  0
 12 28  1  6
 14 29  1  0
 15 30  1  0
 16 31  1  0
M  ISO  8  18  14  19  14  20  14  21  13  22  13  23  13  24  13  25   5
M  ISO  6  26  13  27  13  28  13  29  14  30  14  31   9
M  END
>  <minimizedAffinity>  (1) 
-4.77136707

>  <minimizedRMSD>  (1) 
3.58426094

$$$$
