
     RDKit          3D

 31 33  0  0  1  0  0  0  0  0999 V2000
   38.1000   29.4630   42.9110 C   0  0  0  0  0  0  0  0  0  0  0  0
   37.5340   28.4310   43.6730 C   0  0  0  0  0  0  0  0  0  0  0  0
   36.7460   27.4970   43.0110 C   0  0  0  0  0  0  0  0  0  0  0  0
   36.5810   27.6530   41.6630 N   0  0  0  0  0  0  0  0  0  0  0  0
   37.1390   28.6590   40.9510 C   0  0  0  0  0  0  0  0  0  0  0  0
   37.9060   29.5700   41.5930 N   0  0  0  0  0  0  0  0  0  0  0  0
   36.8880   28.7060   39.5460 N   0  0  0  0  0  0  0  0  0  0  0  0
   35.7940   27.8900   39.0380 C   0  0  0  0  0  0  0  0  0  0  0  0
   35.5420   28.1260   37.5880 C   0  0  0  0  0  0  0  0  0  0  0  0
   35.8280   29.5020   37.2810 N   0  0  0  0  0  0  0  0  0  0  0  0
   37.2900   29.6420   37.3260 C   0  0  0  0  0  0  0  0  0  0  0  0
   37.7640   29.5720   38.7610 C   0  0  1  0  0  0  0  0  0  0  0  0
   37.9980   30.8570   39.3600 C   0  0  0  0  0  0  0  0  0  0  0  0
   37.1720   31.8770   39.6600 C   0  0  0  0  0  0  0  0  0  0  0  0
   37.6280   33.0270   40.2410 C   0  0  0  0  0  0  0  0  0  0  0  0
   39.0450   33.0720   40.5080 C   0  0  0  0  0  0  0  0  0  0  0  0
   39.7000   31.4010   39.8960 S   0  0  0  0  0  0  0  0  0  0  0  0
   38.7269   30.2122   43.4167 H   0  0  0  0  0  0  0  0  0  0  0  0
   37.7076   28.3630   44.7571 H   0  0  0  0  0  0  0  0  0  0  0  0
   36.2730   26.6637   43.5513 H   0  0  0  0  0  0  0  0  0  0  0  0
   36.0449   26.8293   39.1859 H   0  0  0  0  0  0  0  0  0  0  0  0
   34.8827   28.1663   39.5886 H   0  0  0  0  0  0  0  0  0  0  0  0
   36.1926   27.4716   36.9893 H   0  0  0  0  0  0  0  0  0  0  0  0
   34.4909   27.9033   37.3523 H   0  0  0  0  0  0  0  0  0  0  0  0
   35.3893   30.1210   37.9776 H   0  0  0  0  0  0  0  0  0  0  0  0
   37.7533   28.8291   36.7476 H   0  0  0  0  0  0  0  0  0  0  0  0
   37.5770   30.6121   36.8940 H   0  0  0  0  0  0  0  0  0  0  0  0
   38.7620   29.1095   38.7533 H   0  0  0  0  0  0  0  0  0  0  0  0
   36.1003   31.7822   39.4311 H   0  0  0  0  0  0  0  0  0  0  0  0
   36.9582   33.8637   40.4889 H   0  0  0  0  0  0  0  0  0  0  0  0
   39.6177   33.8926   40.9647 H   0  0  0  0  0  0  0  0  0  0  0  0
  1  2  2  0
  3  2  1  0
  4  3  2  0
  5  6  2  0
  5  4  1  0
  6  1  1  0
  7  5  1  0
  8  7  1  0
  9  8  1  0
 10 11  1  0
 10  9  1  0
 11 12  1  0
 12 13  1  0
 12  7  1  0
 13 14  2  0
 13 17  1  0
 14 15  1  0
 15 16  2  0
 17 16  1  0
  1 18  1  0
  2 19  1  0
  3 20  1  0
  8 21  1  0
  8 22  1  0
  9 23  1  0
  9 24  1  0
 10 25  1  0
 11 26  1  0
 11 27  1  0
 12 28  1  6
 14 29  1  0
 15 30  1  0
 16 31  1  0
M  ISO  8  18  14  19  14  20  14  21  13  22  13  23  13  24  13  25   5
M  ISO  6  26  13  27  13  28  13  29  14  30  14  31  14
M  END
>  <minimizedAffinity>  (1) 
-4.58140564

>  <minimizedRMSD>  (1) 
3.29225612

$$$$
