
     RDKit          3D

 50 54  0  0  1  0  0  0  0  0999 V2000
   38.2160   30.5740   39.5110 C   0  0  1  0  0  0  0  0  0  0  0  0
   37.6560   30.6700   38.0660 C   0  0  0  0  0  0  0  0  0  0  0  0
   36.2350   30.1510   38.2780 C   0  0  0  0  0  0  0  0  0  0  0  0
   36.2540   29.3500   39.5620 C   0  0  0  0  0  0  0  0  0  0  0  0
   37.7270   29.2300   39.9070 C   0  0  2  0  0  0  0  0  0  0  0  0
   40.8070   35.3620   39.7220 C   0  0  0  0  0  0  0  0  0  0  0  0
   39.5180   35.8400   40.0580 C   0  0  0  0  0  0  0  0  0  0  0  0
   38.5260   34.9030   40.2560 C   0  0  0  0  0  0  0  0  0  0  0  0
   38.8440   33.5900   40.1180 N   0  0  0  0  0  0  0  0  0  0  0  0
   40.0440   33.1400   39.8060 C   0  0  0  0  0  0  0  0  0  0  0  0
   41.0460   34.0420   39.6040 N   0  0  0  0  0  0  0  0  0  0  0  0
   40.4190   31.7820   39.6420 N   0  0  0  0  0  0  0  0  0  0  0  0
   41.7180   31.5210   39.6070 N   0  0  0  0  0  0  0  0  0  0  0  0
   41.8750   30.1630   39.4260 C   0  0  0  0  0  0  0  0  0  0  0  0
   40.5780   29.6390   39.3580 C   0  0  0  0  0  0  0  0  0  0  0  0
   39.6720   30.6990   39.5010 C   0  0  0  0  0  0  0  0  0  0  0  0
   37.8180   28.9470   41.3120 N   0  0  0  0  0  0  0  0  0  0  0  0
   37.7940   29.7720   42.3270 N   0  0  0  0  0  0  0  0  0  0  0  0
   37.9040   29.1360   43.5070 C   0  0  0  0  0  0  0  0  0  0  0  0
   38.0060   27.7900   43.1840 C   0  0  0  0  0  0  0  0  0  0  0  0
   37.9510   27.6940   41.8190 C   0  0  0  0  0  0  0  0  0  0  0  0
   38.0320   26.4260   41.1760 N   0  0  0  0  0  0  0  0  0  0  0  0
   36.9130   25.6950   40.9020 C   0  0  0  0  0  0  0  0  0  0  0  0
   37.0170   24.4590   40.2740 C   0  0  0  0  0  0  0  0  0  0  0  0
   35.8240   23.6250   39.9540 C   0  0  0  0  0  0  0  0  0  0  0  0
   38.2370   23.9280   39.9080 C   0  0  0  0  0  0  0  0  0  0  0  0
   38.3310   22.8100   39.3390 O   0  0  0  0  0  0  0  0  0  0  0  0
   39.3330   24.6830   40.1960 N   0  0  0  0  0  0  0  0  0  0  0  0
   39.2150   25.8600   40.7950 C   0  0  0  0  0  0  0  0  0  0  0  0
   40.2410   26.5450   41.0540 O   0  0  0  0  0  0  0  0  0  0  0  0
   37.8976   31.3627   40.2085 H   0  0  0  0  0  0  0  0  0  0  0  0
   38.2205   30.0328   37.3694 H   0  0  0  0  0  0  0  0  0  0  0  0
   37.7137   31.6737   37.6197 H   0  0  0  0  0  0  0  0  0  0  0  0
   35.5327   30.9930   38.3663 H   0  0  0  0  0  0  0  0  0  0  0  0
   35.9081   29.5322   37.4294 H   0  0  0  0  0  0  0  0  0  0  0  0
   35.7089   29.8776   40.3586 H   0  0  0  0  0  0  0  0  0  0  0  0
   35.7665   28.3699   39.4533 H   0  0  0  0  0  0  0  0  0  0  0  0
   38.3099   28.4353   39.4185 H   0  0  0  0  0  0  0  0  0  0  0  0
   41.6248   36.0785   39.5550 H   0  0  0  0  0  0  0  0  0  0  0  0
   39.3155   36.9166   40.1573 H   0  0  0  0  0  0  0  0  0  0  0  0
   37.5033   35.2111   40.5190 H   0  0  0  0  0  0  0  0  0  0  0  0
   42.8213   29.6073   39.3507 H   0  0  0  0  0  0  0  0  0  0  0  0
   40.3159   28.5800   39.2169 H   0  0  0  0  0  0  0  0  0  0  0  0
   37.9115   29.5854   44.5110 H   0  0  0  0  0  0  0  0  0  0  0  0
   38.1114   26.9554   43.8928 H   0  0  0  0  0  0  0  0  0  0  0  0
   35.9229   26.0858   41.1796 H   0  0  0  0  0  0  0  0  0  0  0  0
   35.3480   23.2922   40.8882 H   0  0  0  0  0  0  0  0  0  0  0  0
   35.1071   24.2197   39.3688 H   0  0  0  0  0  0  0  0  0  0  0  0
   36.1363   22.7475   39.3688 H   0  0  0  0  0  0  0  0  0  0  0  0
   40.2689   24.3341   39.9444 H   0  0  0  0  0  0  0  0  0  0  0  0
  1  5  1  0
  2  3  1  0
  2  1  1  0
  3  4  1  0
  4  5  1  0
  5 17  1  0
  6  7  2  0
  7  8  1  0
  9  8  2  0
 10  9  1  0
 11  6  1  0
 11 10  2  0
 12 10  1  0
 13 12  1  0
 14 13  2  0
 15 14  1  0
 15 16  2  0
 16  1  1  0
 16 12  1  0
 17 21  1  0
 17 18  1  0
 18 19  2  0
 20 19  1  0
 21 20  2  0
 22 21  1  0
 23 22  1  0
 24 23  2  0
 25 24  1  0
 26 28  1  0
 26 24  1  0
 27 26  2  0
 28 29  1  0
 29 30  2  0
 29 22  1  0
  1 31  1  1
  2 32  1  0
  2 33  1  0
  3 34  1  0
  3 35  1  0
  4 36  1  0
  4 37  1  0
  5 38  1  6
  6 39  1  0
  7 40  1  0
  8 41  1  0
 14 42  1  0
 15 43  1  0
 19 44  1  0
 20 45  1  0
 23 46  1  0
 25 47  1  0
 25 48  1  0
 25 49  1  0
 28 50  1  0
M  ISO  8  31  13  32  13  33  13  34  13  35  13  36  13  37  13  38  13
M  ISO  8  39  14  40  14  41  14  42  14  43  14  44  14  45  14  46  14
M  ISO  4  47   8  48   8  49   8  50   9
M  END
>  <minimizedAffinity>  (1) 
-6.70225286

>  <minimizedRMSD>  (1) 
1.48588097

$$$$
