
     RDKit          3D

 26 27  0  0  1  0  0  0  0  0999 V2000
   40.0330   27.3050   43.5970 C   0  0  0  0  0  0  0  0  0  0  0  0
   39.7470   25.9460   43.4110 C   0  0  0  0  0  0  0  0  0  0  0  0
   38.6540   25.6010   42.6130 C   0  0  0  0  0  0  0  0  0  0  0  0
   37.9140   26.6070   42.0520 N   0  0  0  0  0  0  0  0  0  0  0  0
   38.2110   27.9120   42.2480 C   0  0  0  0  0  0  0  0  0  0  0  0
   39.2740   28.2230   43.0230 N   0  0  0  0  0  0  0  0  0  0  0  0
   37.3990   28.8950   41.6230 N   0  0  0  0  0  0  0  0  0  0  0  0
   36.1370   28.4490   41.0760 C   0  0  0  0  0  0  0  0  0  0  0  0
   35.3260   29.5690   40.5000 C   0  0  0  0  0  0  0  0  0  0  0  0
   35.6020   30.7670   41.2060 N   0  0  0  0  0  0  0  0  0  0  0  0
   36.9650   31.1800   40.8800 C   0  0  0  0  0  0  0  0  0  0  0  0
   37.9330   30.2620   41.5970 C   0  0  2  0  0  0  0  0  0  0  0  0
   39.1520   30.1770   40.8270 N   0  0  0  0  0  0  0  0  0  0  0  0
   40.8878   27.6078   44.2197 H   0  0  0  0  0  0  0  0  0  0  0  0
   40.3681   25.1699   43.8820 H   0  0  0  0  0  0  0  0  0  0  0  0
   38.3939   24.5464   42.4394 H   0  0  0  0  0  0  0  0  0  0  0  0
   36.3380   27.7156   40.2812 H   0  0  0  0  0  0  0  0  0  0  0  0
   35.5559   28.0088   41.8998 H   0  0  0  0  0  0  0  0  0  0  0  0
   35.5853   29.7010   39.4392 H   0  0  0  0  0  0  0  0  0  0  0  0
   34.2561   29.3297   40.5901 H   0  0  0  0  0  0  0  0  0  0  0  0
   34.9372   31.5008   40.9224 H   0  0  0  0  0  0  0  0  0  0  0  0
   37.1235   31.1100   39.7937 H   0  0  0  0  0  0  0  0  0  0  0  0
   37.1284   32.2203   41.1978 H   0  0  0  0  0  0  0  0  0  0  0  0
   38.0960   30.6558   42.6111 H   0  0  0  0  0  0  0  0  0  0  0  0
   39.9582   30.1208   41.4655 H   0  0  0  0  0  0  0  0  0  0  0  0
   39.1250   29.3358   40.2332 H   0  0  0  0  0  0  0  0  0  0  0  0
  2  1  2  0
  3  2  1  0
  4  5  1  0
  4  3  2  0
  5  6  2  0
  6  1  1  0
  7  5  1  0
  8  7  1  0
  9  8  1  0
  9 10  1  0
 11 10  1  0
 11 12  1  0
 12  7  1  0
 13 12  1  0
  1 14  1  0
  2 15  1  0
  3 16  1  0
  8 17  1  0
  8 18  1  0
  9 19  1  0
  9 20  1  0
 10 21  1  0
 11 22  1  0
 11 23  1  0
 12 24  1  1
 13 25  1  0
 13 26  1  0
M  ISO  8  14  14  15  14  16  14  17  13  18  13  19  13  20  13  21   5
M  ISO  5  22  13  23  13  24  13  25   5  26   5
M  END
>  <minimizedAffinity>  (1) 
-4.57899189

>  <minimizedRMSD>  (1) 
0.0480096862

$$$$
