
     RDKit          3D

 31 33  0  0  1  0  0  0  0  0999 V2000
   38.2090   29.2190   43.3080 C   0  0  0  0  0  0  0  0  0  0  0  0
   37.4310   28.2370   43.9390 C   0  0  0  0  0  0  0  0  0  0  0  0
   36.5500   27.5000   43.1530 C   0  0  0  0  0  0  0  0  0  0  0  0
   36.4910   27.7720   41.8150 N   0  0  0  0  0  0  0  0  0  0  0  0
   37.2580   28.7260   41.2430 C   0  0  0  0  0  0  0  0  0  0  0  0
   38.1230   29.4520   42.0060 N   0  0  0  0  0  0  0  0  0  0  0  0
   37.1330   28.9440   39.8320 N   0  0  0  0  0  0  0  0  0  0  0  0
   35.9540   28.3670   39.1950 C   0  0  0  0  0  0  0  0  0  0  0  0
   35.8200   28.7810   37.7690 C   0  0  0  0  0  0  0  0  0  0  0  0
   36.3560   30.0900   37.6010 N   0  0  0  0  0  0  0  0  0  0  0  0
   37.8050   30.0010   37.7360 C   0  0  0  0  0  0  0  0  0  0  0  0
   38.1840   29.7100   39.1670 C   0  0  1  0  0  0  0  0  0  0  0  0
   38.6080   30.8620   39.8980 N   0  0  0  0  0  0  0  0  0  0  0  0
   37.9060   31.9060   40.2590 N   0  0  0  0  0  0  0  0  0  0  0  0
   38.6660   32.7720   40.9320 C   0  0  0  0  0  0  0  0  0  0  0  0
   39.9550   32.2730   41.0260 C   0  0  0  0  0  0  0  0  0  0  0  0
   39.8810   31.0490   40.3530 C   0  0  0  0  0  0  0  0  0  0  0  0
   38.9111   29.8131   43.9114 H   0  0  0  0  0  0  0  0  0  0  0  0
   37.5146   28.0552   45.0207 H   0  0  0  0  0  0  0  0  0  0  0  0
   35.9169   26.7180   43.5977 H   0  0  0  0  0  0  0  0  0  0  0  0
   36.0293   27.2705   39.2392 H   0  0  0  0  0  0  0  0  0  0  0  0
   35.0679   28.7316   39.7353 H   0  0  0  0  0  0  0  0  0  0  0  0
   36.3698   28.0750   37.1292 H   0  0  0  0  0  0  0  0  0  0  0  0
   34.7570   28.7816   37.4863 H   0  0  0  0  0  0  0  0  0  0  0  0
   35.9753   30.7194   38.3220 H   0  0  0  0  0  0  0  0  0  0  0  0
   38.1800   29.1931   37.0905 H   0  0  0  0  0  0  0  0  0  0  0  0
   38.2504   30.9615   37.4376 H   0  0  0  0  0  0  0  0  0  0  0  0
   39.0830   29.0767   39.1425 H   0  0  0  0  0  0  0  0  0  0  0  0
   38.3230   33.7313   41.3469 H   0  0  0  0  0  0  0  0  0  0  0  0
   40.8285   32.7304   41.5137 H   0  0  0  0  0  0  0  0  0  0  0  0
   40.7169   30.3479   40.2126 H   0  0  0  0  0  0  0  0  0  0  0  0
  1  2  2  0
  3  2  1  0
  4  3  2  0
  5  4  1  0
  5  6  2  0
  6  1  1  0
  7  5  1  0
  8  7  1  0
  9  8  1  0
 10 11  1  0
 10  9  1  0
 11 12  1  0
 12  7  1  0
 12 13  1  0
 13 14  1  0
 13 17  1  0
 14 15  2  0
 15 16  1  0
 17 16  2  0
  1 18  1  0
  2 19  1  0
  3 20  1  0
  8 21  1  0
  8 22  1  0
  9 23  1  0
  9 24  1  0
 10 25  1  0
 11 26  1  0
 11 27  1  0
 12 28  1  6
 15 29  1  0
 16 30  1  0
 17 31  1  0
M  ISO  8  18  14  19  14  20  14  21  13  22  13  23  13  24  13  25   5
M  ISO  6  26  13  27  13  28  13  29  14  30  14  31  14
M  END
>  <minimizedAffinity>  (1) 
-4.44931698

>  <minimizedRMSD>  (1) 
2.80408597

$$$$
