
     RDKit          3D

 29 31  0  0  1  0  0  0  0  0999 V2000
   38.3030   29.1750   43.2460 C   0  0  0  0  0  0  0  0  0  0  0  0
   37.4940   28.2580   43.9460 C   0  0  0  0  0  0  0  0  0  0  0  0
   36.5360   27.5520   43.2260 C   0  0  0  0  0  0  0  0  0  0  0  0
   36.4390   27.7870   41.8970 N   0  0  0  0  0  0  0  0  0  0  0  0
   37.2240   28.6730   41.2310 C   0  0  0  0  0  0  0  0  0  0  0  0
   38.1520   29.3570   41.9320 N   0  0  0  0  0  0  0  0  0  0  0  0
   37.0280   28.8350   39.8370 N   0  0  0  0  0  0  0  0  0  0  0  0
   35.8440   28.2450   39.2490 C   0  0  0  0  0  0  0  0  0  0  0  0
   35.6570   28.6190   37.8190 C   0  0  0  0  0  0  0  0  0  0  0  0
   36.1840   29.9130   37.5820 N   0  0  0  0  0  0  0  0  0  0  0  0
   37.6340   29.8840   37.7020 C   0  0  0  0  0  0  0  0  0  0  0  0
   38.0620   29.5970   39.1090 C   0  0  1  0  0  0  0  0  0  0  0  0
   38.4640   30.7950   39.8800 C   0  0  0  0  0  0  0  0  0  0  0  0
   39.6860   31.0320   40.3730 N   0  0  0  0  0  0  0  0  0  0  0  0
   39.6890   32.1640   40.9890 O   0  0  0  0  0  0  0  0  0  0  0  0
   38.4850   32.6590   40.8990 C   0  0  0  0  0  0  0  0  0  0  0  0
   37.6700   31.8380   40.2110 N   0  0  0  0  0  0  0  0  0  0  0  0
   39.0688   29.7483   43.7891 H   0  0  0  0  0  0  0  0  0  0  0  0
   37.6163   28.1052   45.0284 H   0  0  0  0  0  0  0  0  0  0  0  0
   35.8769   26.8244   43.7222 H   0  0  0  0  0  0  0  0  0  0  0  0
   35.9269   27.1502   39.3172 H   0  0  0  0  0  0  0  0  0  0  0  0
   34.9750   28.6261   39.8055 H   0  0  0  0  0  0  0  0  0  0  0  0
   36.1793   27.8908   37.1810 H   0  0  0  0  0  0  0  0  0  0  0  0
   34.5824   28.6189   37.5840 H   0  0  0  0  0  0  0  0  0  0  0  0
   35.7968   30.5717   38.2727 H   0  0  0  0  0  0  0  0  0  0  0  0
   38.0320   29.1006   37.0403 H   0  0  0  0  0  0  0  0  0  0  0  0
   38.0241   30.8722   37.4169 H   0  0  0  0  0  0  0  0  0  0  0  0
   38.9688   28.9817   39.0139 H   0  0  0  0  0  0  0  0  0  0  0  0
   38.1760   33.6228   41.3298 H   0  0  0  0  0  0  0  0  0  0  0  0
  1  2  2  0
  3  2  1  0
  4  3  2  0
  5  4  1  0
  5  6  2  0
  6  1  1  0
  7  5  1  0
  8  7  1  0
  9  8  1  0
 10 11  1  0
 10  9  1  0
 11 12  1  0
 12  7  1  0
 12 13  1  0
 13 17  1  0
 13 14  2  0
 14 15  1  0
 16 15  1  0
 17 16  2  0
  1 18  1  0
  2 19  1  0
  3 20  1  0
  8 21  1  0
  8 22  1  0
  9 23  1  0
  9 24  1  0
 10 25  1  0
 11 26  1  0
 11 27  1  0
 12 28  1  6
 16 29  1  0
M  ISO  8  18  14  19  14  20  14  21  13  22  13  23  13  24  13  25   5
M  ISO  4  26  13  27  13  28  13  29  14
M  END
>  <minimizedAffinity>  (1) 
-4.37077713

>  <minimizedRMSD>  (1) 
2.88423896

$$$$
