
     RDKit          3D

 32 34  0  0  1  0  0  0  0  0999 V2000
   38.1780   29.3500   43.0340 C   0  0  0  0  0  0  0  0  0  0  0  0
   37.5010   28.3840   43.7930 C   0  0  0  0  0  0  0  0  0  0  0  0
   36.6250   27.5400   43.1190 C   0  0  0  0  0  0  0  0  0  0  0  0
   36.4890   27.7130   41.7830 N   0  0  0  0  0  0  0  0  0  0  0  0
   37.1540   28.6550   41.0700 C   0  0  0  0  0  0  0  0  0  0  0  0
   37.9980   29.4660   41.7230 N   0  0  0  0  0  0  0  0  0  0  0  0
   36.9220   28.7320   39.6680 N   0  0  0  0  0  0  0  0  0  0  0  0
   35.7390   28.0480   39.1500 C   0  0  0  0  0  0  0  0  0  0  0  0
   35.6560   28.1760   37.6530 C   0  0  0  0  0  0  0  0  0  0  0  0
   35.9790   29.5520   37.3570 N   0  0  0  0  0  0  0  0  0  0  0  0
   37.4450   29.6510   37.4650 C   0  0  0  0  0  0  0  0  0  0  0  0
   37.8920   29.4820   38.8760 C   0  0  1  0  0  0  0  0  0  0  0  0
   38.2620   30.7550   39.5320 C   0  0  0  0  0  0  0  0  0  0  0  0
   37.3760   31.8020   39.8210 C   0  0  0  0  0  0  0  0  0  0  0  0
   37.8040   32.9580   40.4360 C   0  0  0  0  0  0  0  0  0  0  0  0
   39.1080   33.0940   40.7720 N   0  0  0  0  0  0  0  0  0  0  0  0
   39.9690   32.1030   40.5030 C   0  0  0  0  0  0  0  0  0  0  0  0
   39.5510   30.9940   39.9120 N   0  0  0  0  0  0  0  0  0  0  0  0
   38.8784   30.0314   43.5391 H   0  0  0  0  0  0  0  0  0  0  0  0
   37.6568   28.2975   44.8785 H   0  0  0  0  0  0  0  0  0  0  0  0
   36.0625   26.7595   43.6524 H   0  0  0  0  0  0  0  0  0  0  0  0
   35.7932   26.9825   39.4177 H   0  0  0  0  0  0  0  0  0  0  0  0
   34.8443   28.5107   39.5920 H   0  0  0  0  0  0  0  0  0  0  0  0
   36.3778   27.5008   37.1703 H   0  0  0  0  0  0  0  0  0  0  0  0
   34.6579   27.9049   37.2783 H   0  0  0  0  0  0  0  0  0  0  0  0
   35.5259   30.1809   38.0353 H   0  0  0  0  0  0  0  0  0  0  0  0
   37.9045   28.8662   36.8462 H   0  0  0  0  0  0  0  0  0  0  0  0
   37.7541   30.6480   37.1179 H   0  0  0  0  0  0  0  0  0  0  0  0
   38.8157   28.8869   38.8256 H   0  0  0  0  0  0  0  0  0  0  0  0
   36.3148   31.6982   39.5506 H   0  0  0  0  0  0  0  0  0  0  0  0
   37.0899   33.7661   40.6528 H   0  0  0  0  0  0  0  0  0  0  0  0
   41.0294   32.2113   40.7747 H   0  0  0  0  0  0  0  0  0  0  0  0
  1  2  2  0
  3  2  1  0
  4  3  2  0
  5  6  2  0
  5  4  1  0
  6  1  1  0
  7  5  1  0
  8  7  1  0
  9  8  1  0
 10 11  1  0
 10  9  1  0
 11 12  1  0
 12 13  1  0
 12  7  1  0
 13 14  2  0
 13 18  1  0
 14 15  1  0
 15 16  2  0
 17 16  1  0
 18 17  2  0
  1 19  1  0
  2 20  1  0
  3 21  1  0
  8 22  1  0
  8 23  1  0
  9 24  1  0
  9 25  1  0
 10 26  1  0
 11 27  1  0
 11 28  1  0
 12 29  1  6
 14 30  1  0
 15 31  1  0
 17 32  1  0
M  ISO  8  19  14  20  14  21  14  22  13  23  13  24  13  25  13  26   5
M  ISO  6  27  13  28  13  29  13  30  14  31  14  32  14
M  END
>  <minimizedAffinity>  (1) 
-4.69430113

>  <minimizedRMSD>  (1) 
3.22784519

$$$$
