
     RDKit          3D

 41 44  0  0  1  0  0  0  0  0999 V2000
   37.9990   29.2950   43.0580 C   0  0  0  0  0  0  0  0  0  0  0  0
   37.3700   28.2940   43.8030 C   0  0  0  0  0  0  0  0  0  0  0  0
   36.6450   27.3400   43.1030 C   0  0  0  0  0  0  0  0  0  0  0  0
   36.6020   27.4520   41.7550 N   0  0  0  0  0  0  0  0  0  0  0  0
   37.2180   28.4300   41.0510 C   0  0  0  0  0  0  0  0  0  0  0  0
   37.9180   29.3490   41.7350 N   0  0  0  0  0  0  0  0  0  0  0  0
   37.0980   28.4380   39.6320 N   0  0  0  0  0  0  0  0  0  0  0  0
   36.0350   27.6160   39.0600 C   0  0  0  0  0  0  0  0  0  0  0  0
   36.0520   27.6860   37.5630 C   0  0  0  0  0  0  0  0  0  0  0  0
   36.2490   29.0730   37.2360 N   0  0  0  0  0  0  0  0  0  0  0  0
   37.6700   29.3450   37.4340 C   0  0  0  0  0  0  0  0  0  0  0  0
   38.0350   29.2580   38.8880 C   0  0  1  0  0  0  0  0  0  0  0  0
   38.2300   30.5790   39.5140 C   0  0  0  0  0  0  0  0  0  0  0  0
   37.2620   31.5890   39.5680 C   0  0  0  0  0  0  0  0  0  0  0  0
   37.5140   32.8030   40.1710 C   0  0  0  0  0  0  0  0  0  0  0  0
   38.7320   33.0290   40.7290 N   0  0  0  0  0  0  0  0  0  0  0  0
   39.6630   32.0800   40.6880 C   0  0  0  0  0  0  0  0  0  0  0  0
   39.3960   30.9310   40.1050 N   0  0  0  0  0  0  0  0  0  0  0  0
   40.9750   32.3170   41.2850 C   0  0  0  0  0  0  0  0  0  0  0  0
   41.4530   31.4650   42.2750 C   0  0  0  0  0  0  0  0  0  0  0  0
   42.6940   31.6450   42.8780 C   0  0  0  0  0  0  0  0  0  0  0  0
   43.4480   32.7350   42.4370 C   0  0  0  0  0  0  0  0  0  0  0  0
   42.9630   33.5720   41.4550 C   0  0  0  0  0  0  0  0  0  0  0  0
   41.7570   33.3470   40.9110 N   0  0  0  0  0  0  0  0  0  0  0  0
   38.5811   30.0643   43.5865 H   0  0  0  0  0  0  0  0  0  0  0  0
   37.4465   28.2635   44.8999 H   0  0  0  0  0  0  0  0  0  0  0  0
   36.1246   26.5231   43.6244 H   0  0  0  0  0  0  0  0  0  0  0  0
   36.1792   26.5715   39.3734 H   0  0  0  0  0  0  0  0  0  0  0  0
   35.0664   27.9944   39.4187 H   0  0  0  0  0  0  0  0  0  0  0  0
   36.8752   27.0773   37.1607 H   0  0  0  0  0  0  0  0  0  0  0  0
   35.1187   27.2972   37.1296 H   0  0  0  0  0  0  0  0  0  0  0  0
   35.6823   29.6692   37.8560 H   0  0  0  0  0  0  0  0  0  0  0  0
   38.2598   28.6075   36.8699 H   0  0  0  0  0  0  0  0  0  0  0  0
   37.8858   30.3632   37.0779 H   0  0  0  0  0  0  0  0  0  0  0  0
   39.0130   28.7562   38.9279 H   0  0  0  0  0  0  0  0  0  0  0  0
   36.2747   31.4093   39.1176 H   0  0  0  0  0  0  0  0  0  0  0  0
   36.7367   33.5808   40.2000 H   0  0  0  0  0  0  0  0  0  0  0  0
   40.8272   30.6180   42.5928 H   0  0  0  0  0  0  0  0  0  0  0  0
   43.0618   30.9650   43.6605 H   0  0  0  0  0  0  0  0  0  0  0  0
   44.4376   32.9272   42.8772 H   0  0  0  0  0  0  0  0  0  0  0  0
   43.5664   34.4271   41.1162 H   0  0  0  0  0  0  0  0  0  0  0  0
  1  2  2  0
  3  2  1  0
  4  3  2  0
  5  6  2  0
  5  4  1  0
  6  1  1  0
  7  5  1  0
  8  7  1  0
  9  8  1  0
 10 11  1  0
 10  9  1  0
 11 12  1  0
 12 13  1  0
 12  7  1  0
 13 14  2  0
 13 18  1  0
 14 15  1  0
 15 16  2  0
 17 16  1  0
 17 19  1  0
 18 17  2  0
 19 20  2  0
 20 21  1  0
 22 21  2  0
 23 22  1  0
 24 19  1  0
 24 23  2  0
  1 25  1  0
  2 26  1  0
  3 27  1  0
  8 28  1  0
  8 29  1  0
  9 30  1  0
  9 31  1  0
 10 32  1  0
 11 33  1  0
 11 34  1  0
 12 35  1  6
 14 36  1  0
 15 37  1  0
 20 38  1  0
 21 39  1  0
 22 40  1  0
 23 41  1  0
M  ISO  8  25  14  26  14  27  14  28  13  29  13  30  13  31  13  32   5
M  ISO  8  33  13  34  13  35  13  36  14  37  14  38  14  39  14  40  14
M  ISO  1  41  14
M  END
>  <minimizedAffinity>  (1) 
-5.72220898

>  <minimizedRMSD>  (1) 
0.526505411

$$$$
