
     RDKit          3D

 42 45  0  0  1  0  0  0  0  0999 V2000
   37.9960   29.3140   43.0300 C   0  0  0  0  0  0  0  0  0  0  0  0
   37.3810   28.3080   43.7870 C   0  0  0  0  0  0  0  0  0  0  0  0
   36.6520   27.3430   43.1010 C   0  0  0  0  0  0  0  0  0  0  0  0
   36.5980   27.4540   41.7540 N   0  0  0  0  0  0  0  0  0  0  0  0
   37.2000   28.4340   41.0410 C   0  0  0  0  0  0  0  0  0  0  0  0
   37.8990   29.3580   41.7090 N   0  0  0  0  0  0  0  0  0  0  0  0
   37.0620   28.4340   39.6270 N   0  0  0  0  0  0  0  0  0  0  0  0
   35.9970   27.5970   39.0690 C   0  0  0  0  0  0  0  0  0  0  0  0
   35.9950   27.6600   37.5690 C   0  0  0  0  0  0  0  0  0  0  0  0
   36.1840   29.0320   37.2240 N   0  0  0  0  0  0  0  0  0  0  0  0
   37.5910   29.3380   37.4200 C   0  0  0  0  0  0  0  0  0  0  0  0
   37.9790   29.2540   38.8590 C   0  0  1  0  0  0  0  0  0  0  0  0
   38.1640   30.5900   39.4830 C   0  0  0  0  0  0  0  0  0  0  0  0
   37.1750   31.5870   39.5500 C   0  0  0  0  0  0  0  0  0  0  0  0
   37.4320   32.8050   40.1490 C   0  0  0  0  0  0  0  0  0  0  0  0
   38.6490   33.0500   40.6830 N   0  0  0  0  0  0  0  0  0  0  0  0
   39.5930   32.1150   40.6270 C   0  0  0  0  0  0  0  0  0  0  0  0
   39.3350   30.9620   40.0540 N   0  0  0  0  0  0  0  0  0  0  0  0
   40.9140   32.3650   41.2000 C   0  0  0  0  0  0  0  0  0  0  0  0
   41.6760   33.4370   40.7880 C   0  0  0  0  0  0  0  0  0  0  0  0
   42.9250   33.6890   41.3180 C   0  0  0  0  0  0  0  0  0  0  0  0
   43.3760   32.8150   42.2830 C   0  0  0  0  0  0  0  0  0  0  0  0
   42.6570   31.7140   42.7450 C   0  0  0  0  0  0  0  0  0  0  0  0
   41.4050   31.5030   42.1800 C   0  0  0  0  0  0  0  0  0  0  0  0
   38.5772   30.0911   43.5481 H   0  0  0  0  0  0  0  0  0  0  0  0
   37.4715   28.2826   44.8830 H   0  0  0  0  0  0  0  0  0  0  0  0
   36.1415   26.5251   43.6305 H   0  0  0  0  0  0  0  0  0  0  0  0
   36.1548   26.5553   39.3853 H   0  0  0  0  0  0  0  0  0  0  0  0
   35.0293   27.9685   39.4372 H   0  0  0  0  0  0  0  0  0  0  0  0
   36.8136   27.0488   37.1613 H   0  0  0  0  0  0  0  0  0  0  0  0
   35.0537   27.2701   37.1543 H   0  0  0  0  0  0  0  0  0  0  0  0
   35.6054   29.6307   37.8304 H   0  0  0  0  0  0  0  0  0  0  0  0
   38.1953   28.6206   36.8454 H   0  0  0  0  0  0  0  0  0  0  0  0
   37.7691   30.3677   37.0763 H   0  0  0  0  0  0  0  0  0  0  0  0
   38.9597   28.7561   38.8775 H   0  0  0  0  0  0  0  0  0  0  0  0
   36.1815   31.3943   39.1189 H   0  0  0  0  0  0  0  0  0  0  0  0
   36.6470   33.5745   40.1913 H   0  0  0  0  0  0  0  0  0  0  0  0
   41.2774   34.1106   40.0151 H   0  0  0  0  0  0  0  0  0  0  0  0
   43.5306   34.5453   40.9864 H   0  0  0  0  0  0  0  0  0  0  0  0
   44.3697   32.9984   42.7177 H   0  0  0  0  0  0  0  0  0  0  0  0
   43.0608   31.0448   43.5190 H   0  0  0  0  0  0  0  0  0  0  0  0
   40.7957   30.6482   42.5088 H   0  0  0  0  0  0  0  0  0  0  0  0
  1  2  2  0
  3  2  1  0
  4  3  2  0
  5  6  2  0
  5  4  1  0
  6  1  1  0
  7  5  1  0
  8  7  1  0
  9  8  1  0
 10 11  1  0
 10  9  1  0
 11 12  1  0
 12 13  1  0
 12  7  1  0
 13 14  2  0
 13 18  1  0
 14 15  1  0
 15 16  2  0
 17 16  1  0
 17 19  1  0
 18 17  2  0
 19 24  1  0
 20 19  2  0
 20 21  1  0
 21 22  2  0
 22 23  1  0
 24 23  2  0
  1 25  1  0
  2 26  1  0
  3 27  1  0
  8 28  1  0
  8 29  1  0
  9 30  1  0
  9 31  1  0
 10 32  1  0
 11 33  1  0
 11 34  1  0
 12 35  1  6
 14 36  1  0
 15 37  1  0
 20 38  1  0
 21 39  1  0
 22 40  1  0
 23 41  1  0
 24 42  1  0
M  ISO  8  25  14  26  14  27  14  28  13  29  13  30  13  31  13  32   5
M  ISO  8  33  13  34  13  35  13  36  14  37  14  38  14  39  14  40  14
M  ISO  2  41  14  42  14
M  END
>  <minimizedAffinity>  (1) 
-5.72059298

>  <minimizedRMSD>  (1) 
0.636767566

$$$$
