
     RDKit          3D

 40 43  0  0  1  0  0  0  0  0999 V2000
   37.9740   29.3380   43.0350 C   0  0  0  0  0  0  0  0  0  0  0  0
   37.3790   28.3210   43.7860 C   0  0  0  0  0  0  0  0  0  0  0  0
   36.6750   27.3430   43.0930 C   0  0  0  0  0  0  0  0  0  0  0  0
   36.6160   27.4420   41.7440 N   0  0  0  0  0  0  0  0  0  0  0  0
   37.2060   28.4410   41.0360 C   0  0  0  0  0  0  0  0  0  0  0  0
   37.8790   29.3760   41.7100 N   0  0  0  0  0  0  0  0  0  0  0  0
   37.0740   28.4360   39.6250 N   0  0  0  0  0  0  0  0  0  0  0  0
   36.0240   27.5810   39.0630 C   0  0  0  0  0  0  0  0  0  0  0  0
   36.0460   27.6360   37.5580 C   0  0  0  0  0  0  0  0  0  0  0  0
   36.2030   29.0200   37.2180 N   0  0  0  0  0  0  0  0  0  0  0  0
   37.6070   29.3540   37.4120 C   0  0  0  0  0  0  0  0  0  0  0  0
   37.9820   29.2720   38.8620 C   0  0  1  0  0  0  0  0  0  0  0  0
   38.1570   30.5930   39.4830 C   0  0  0  0  0  0  0  0  0  0  0  0
   37.1610   31.5840   39.5610 C   0  0  0  0  0  0  0  0  0  0  0  0
   37.3840   32.8070   40.1550 C   0  0  0  0  0  0  0  0  0  0  0  0
   38.6000   33.0720   40.6840 N   0  0  0  0  0  0  0  0  0  0  0  0
   39.5600   32.1520   40.6240 C   0  0  0  0  0  0  0  0  0  0  0  0
   39.3390   30.9740   40.0490 N   0  0  0  0  0  0  0  0  0  0  0  0
   40.9030   32.3890   41.1850 C   0  0  0  0  0  0  0  0  0  0  0  0
   41.4460   31.5270   42.1140 C   0  0  0  0  0  0  0  0  0  0  0  0
   42.6980   31.7500   42.6360 C   0  0  0  0  0  0  0  0  0  0  0  0
   43.4370   32.8210   42.2560 N   0  0  0  0  0  0  0  0  0  0  0  0
   42.8900   33.6620   41.3400 C   0  0  0  0  0  0  0  0  0  0  0  0
   41.6570   33.4550   40.8170 N   0  0  0  0  0  0  0  0  0  0  0  0
   38.5360   30.1282   43.5543 H   0  0  0  0  0  0  0  0  0  0  0  0
   37.4643   28.2953   44.8824 H   0  0  0  0  0  0  0  0  0  0  0  0
   36.1817   26.5153   43.6236 H   0  0  0  0  0  0  0  0  0  0  0  0
   36.1890   26.5436   39.3895 H   0  0  0  0  0  0  0  0  0  0  0  0
   35.0464   27.9399   39.4172 H   0  0  0  0  0  0  0  0  0  0  0  0
   36.8886   27.0476   37.1658 H   0  0  0  0  0  0  0  0  0  0  0  0
   35.1265   27.2153   37.1248 H   0  0  0  0  0  0  0  0  0  0  0  0
   35.6138   29.6028   37.8296 H   0  0  0  0  0  0  0  0  0  0  0  0
   38.2273   28.6488   36.8393 H   0  0  0  0  0  0  0  0  0  0  0  0
   37.7743   30.3839   37.0637 H   0  0  0  0  0  0  0  0  0  0  0  0
   38.9663   28.7815   38.8860 H   0  0  0  0  0  0  0  0  0  0  0  0
   36.1696   31.3749   39.1327 H   0  0  0  0  0  0  0  0  0  0  0  0
   36.5824   33.5590   40.1984 H   0  0  0  0  0  0  0  0  0  0  0  0
   40.8698   30.6492   42.4418 H   0  0  0  0  0  0  0  0  0  0  0  0
   43.1077   31.0464   43.3757 H   0  0  0  0  0  0  0  0  0  0  0  0
   43.4666   34.5395   41.0121 H   0  0  0  0  0  0  0  0  0  0  0  0
  1  2  2  0
  3  2  1  0
  4  3  2  0
  5  6  2  0
  5  4  1  0
  6  1  1  0
  7  5  1  0
  8  7  1  0
  9  8  1  0
 10 11  1  0
 10  9  1  0
 11 12  1  0
 12 13  1  0
 12  7  1  0
 13 14  2  0
 13 18  1  0
 14 15  1  0
 15 16  2  0
 17 16  1  0
 17 19  1  0
 18 17  2  0
 19 20  2  0
 20 21  1  0
 22 21  2  0
 23 22  1  0
 24 19  1  0
 24 23  2  0
  1 25  1  0
  2 26  1  0
  3 27  1  0
  8 28  1  0
  8 29  1  0
  9 30  1  0
  9 31  1  0
 10 32  1  0
 11 33  1  0
 11 34  1  0
 12 35  1  6
 14 36  1  0
 15 37  1  0
 20 38  1  0
 21 39  1  0
 23 40  1  0
M  ISO  8  25  14  26  14  27  14  28  13  29  13  30  13  31  13  32   5
M  ISO  8  33  13  34  13  35  13  36  14  37  14  38  14  39  14  40  14
M  END
>  <minimizedAffinity>  (1) 
-5.62361431

>  <minimizedRMSD>  (1) 
0.600858808

$$$$
