
     RDKit          3D

 39 42  0  0  1  0  0  0  0  0999 V2000
   38.0700   29.1960   43.2120 C   0  0  0  0  0  0  0  0  0  0  0  0
   37.3750   28.2090   43.9240 C   0  0  0  0  0  0  0  0  0  0  0  0
   36.6040   27.3160   43.1880 C   0  0  0  0  0  0  0  0  0  0  0  0
   36.5800   27.4640   41.8420 N   0  0  0  0  0  0  0  0  0  0  0  0
   37.2580   28.4240   41.1750 C   0  0  0  0  0  0  0  0  0  0  0  0
   38.0030   29.2860   41.8890 N   0  0  0  0  0  0  0  0  0  0  0  0
   37.1490   28.4750   39.7590 N   0  0  0  0  0  0  0  0  0  0  0  0
   36.0660   27.7120   39.1510 C   0  0  0  0  0  0  0  0  0  0  0  0
   36.0790   27.8430   37.6610 C   0  0  0  0  0  0  0  0  0  0  0  0
   36.3700   29.2130   37.3540 N   0  0  0  0  0  0  0  0  0  0  0  0
   37.7950   29.4260   37.5900 C   0  0  0  0  0  0  0  0  0  0  0  0
   38.1250   29.2790   39.0480 C   0  0  1  0  0  0  0  0  0  0  0  0
   38.3860   30.5670   39.7120 C   0  0  0  0  0  0  0  0  0  0  0  0
   37.4820   31.6260   39.7620 C   0  0  0  0  0  0  0  0  0  0  0  0
   37.7750   32.8140   40.3970 C   0  0  0  0  0  0  0  0  0  0  0  0
   38.9770   32.9640   40.9940 N   0  0  0  0  0  0  0  0  0  0  0  0
   39.8590   31.9670   40.9610 C   0  0  0  0  0  0  0  0  0  0  0  0
   39.5560   30.8430   40.3490 N   0  0  0  0  0  0  0  0  0  0  0  0
   41.1790   32.0890   41.5990 C   0  0  0  0  0  0  0  0  0  0  0  0
   41.6610   31.3080   42.6790 C   0  0  0  0  0  0  0  0  0  0  0  0
   42.9320   31.6090   43.1040 C   0  0  0  0  0  0  0  0  0  0  0  0
   43.6300   32.5880   42.5040 C   0  0  0  0  0  0  0  0  0  0  0  0
   42.5550   33.2410   41.2130 S   0  0  0  0  0  0  0  0  0  0  0  0
   38.6892   29.9173   43.7655 H   0  0  0  0  0  0  0  0  0  0  0  0
   37.4369   28.1434   45.0203 H   0  0  0  0  0  0  0  0  0  0  0  0
   36.0329   26.5164   43.6823 H   0  0  0  0  0  0  0  0  0  0  0  0
   36.1808   26.6512   39.4185 H   0  0  0  0  0  0  0  0  0  0  0  0
   35.1101   28.1065   39.5260 H   0  0  0  0  0  0  0  0  0  0  0  0
   36.8529   27.1891   37.2327 H   0  0  0  0  0  0  0  0  0  0  0  0
   35.1083   27.5474   37.2364 H   0  0  0  0  0  0  0  0  0  0  0  0
   35.8168   29.8341   37.9616 H   0  0  0  0  0  0  0  0  0  0  0  0
   38.3699   28.6858   37.0143 H   0  0  0  0  0  0  0  0  0  0  0  0
   38.0551   30.4464   37.2721 H   0  0  0  0  0  0  0  0  0  0  0  0
   39.0739   28.7239   39.0872 H   0  0  0  0  0  0  0  0  0  0  0  0
   36.5009   31.5102   39.2782 H   0  0  0  0  0  0  0  0  0  0  0  0
   37.0381   33.6305   40.4172 H   0  0  0  0  0  0  0  0  0  0  0  0
   41.0582   30.5147   43.1452 H   0  0  0  0  0  0  0  0  0  0  0  0
   43.3794   31.0474   43.9373 H   0  0  0  0  0  0  0  0  0  0  0  0
   44.6486   32.9223   42.7502 H   0  0  0  0  0  0  0  0  0  0  0  0
  1  2  2  0
  3  2  1  0
  4  3  2  0
  5  4  1  0
  5  6  2  0
  6  1  1  0
  7  5  1  0
  8  7  1  0
  9  8  1  0
 10 11  1  0
 10  9  1  0
 11 12  1  0
 12 13  1  0
 12  7  1  0
 13 14  2  0
 13 18  1  0
 14 15  1  0
 15 16  2  0
 17 16  1  0
 17 19  1  0
 18 17  2  0
 19 20  2  0
 20 21  1  0
 22 21  2  0
 23 19  1  0
 23 22  1  0
  1 24  1  0
  2 25  1  0
  3 26  1  0
  8 27  1  0
  8 28  1  0
  9 29  1  0
  9 30  1  0
 10 31  1  0
 11 32  1  0
 11 33  1  0
 12 34  1  6
 14 35  1  0
 15 36  1  0
 20 37  1  0
 21 38  1  0
 22 39  1  0
M  ISO  8  24  14  25  14  26  14  27  13  28  13  29  13  30  13  31   5
M  ISO  8  32  13  33  13  34  13  35  14  36  14  37  14  38  14  39  14
M  END
>  <minimizedAffinity>  (1) 
-5.49977779

>  <minimizedRMSD>  (1) 
0.598598123

$$$$
