
     RDKit          3D

 35 37  0  0  1  0  0  0  0  0999 V2000
   38.1640   29.4200   42.9580 C   0  0  0  0  0  0  0  0  0  0  0  0
   37.5310   28.4340   43.7250 C   0  0  0  0  0  0  0  0  0  0  0  0
   36.6810   27.5580   43.0540 C   0  0  0  0  0  0  0  0  0  0  0  0
   36.5320   27.7260   41.7220 N   0  0  0  0  0  0  0  0  0  0  0  0
   37.1590   28.6910   41.0030 C   0  0  0  0  0  0  0  0  0  0  0  0
   37.9740   29.5300   41.6530 N   0  0  0  0  0  0  0  0  0  0  0  0
   36.9160   28.7610   39.6010 N   0  0  0  0  0  0  0  0  0  0  0  0
   35.7490   28.0430   39.0990 C   0  0  0  0  0  0  0  0  0  0  0  0
   35.6270   28.1770   37.6040 C   0  0  0  0  0  0  0  0  0  0  0  0
   35.9110   29.5530   37.3070 N   0  0  0  0  0  0  0  0  0  0  0  0
   37.3610   29.7110   37.3980 C   0  0  0  0  0  0  0  0  0  0  0  0
   37.8470   29.5370   38.8050 C   0  0  1  0  0  0  0  0  0  0  0  0
   38.1850   30.8200   39.4590 C   0  0  0  0  0  0  0  0  0  0  0  0
   37.2630   31.8340   39.7740 C   0  0  0  0  0  0  0  0  0  0  0  0
   37.6440   33.0070   40.3840 C   0  0  0  0  0  0  0  0  0  0  0  0
   38.9480   33.1950   40.6920 N   0  0  0  0  0  0  0  0  0  0  0  0
   39.8360   32.2480   40.4040 C   0  0  0  0  0  0  0  0  0  0  0  0
   39.4530   31.1300   39.8200 N   0  0  0  0  0  0  0  0  0  0  0  0
   41.2180   32.5280   40.7700 C   0  0  0  0  0  0  0  0  0  0  0  0
   42.0560   32.8230   39.8860 O   0  0  0  0  0  0  0  0  0  0  0  0
   41.7150   32.4980   42.0560 O   0  0  0  0  0  0  0  0  0  0  0  0
   38.8424   30.1273   43.4574 H   0  0  0  0  0  0  0  0  0  0  0  0
   37.6977   28.3548   44.8094 H   0  0  0  0  0  0  0  0  0  0  0  0
   36.1498   26.7576   43.5899 H   0  0  0  0  0  0  0  0  0  0  0  0
   35.8450   26.9780   39.3569 H   0  0  0  0  0  0  0  0  0  0  0  0
   34.8494   28.4752   39.5614 H   0  0  0  0  0  0  0  0  0  0  0  0
   36.3513   27.5197   37.1007 H   0  0  0  0  0  0  0  0  0  0  0  0
   34.6257   27.8868   37.2532 H   0  0  0  0  0  0  0  0  0  0  0  0
   35.4434   30.1673   37.9889 H   0  0  0  0  0  0  0  0  0  0  0  0
   37.8432   28.9575   36.7579 H   0  0  0  0  0  0  0  0  0  0  0  0
   37.6179   30.7285   37.0683 H   0  0  0  0  0  0  0  0  0  0  0  0
   38.7854   28.9669   38.7385 H   0  0  0  0  0  0  0  0  0  0  0  0
   36.2022   31.6845   39.5245 H   0  0  0  0  0  0  0  0  0  0  0  0
   36.8986   33.7813   40.6181 H   0  0  0  0  0  0  0  0  0  0  0  0
   42.6695   32.7011   42.2227 H   0  0  0  0  0  0  0  0  0  0  0  0
  1  2  2  0
  3  2  1  0
  4  3  2  0
  5  6  2  0
  5  4  1  0
  6  1  1  0
  7  5  1  0
  8  7  1  0
  9  8  1  0
 10 11  1  0
 10  9  1  0
 11 12  1  0
 12 13  1  0
 12  7  1  0
 13 14  2  0
 13 18  1  0
 14 15  1  0
 15 16  2  0
 17 16  1  0
 17 19  1  0
 18 17  2  0
 19 21  1  0
 20 19  2  0
  1 22  1  0
  2 23  1  0
  3 24  1  0
  8 25  1  0
  8 26  1  0
  9 27  1  0
  9 28  1  0
 10 29  1  0
 11 30  1  0
 11 31  1  0
 12 32  1  6
 14 33  1  0
 15 34  1  0
 21 35  1  0
M  ISO  8  22  14  23  14  24  14  25  13  26  13  27  13  28  13  29   5
M  ISO  6  30  13  31  13  32  13  33  14  34  14  35   3
M  END
>  <minimizedAffinity>  (1) 
-5.2140193

>  <minimizedRMSD>  (1) 
0.160775468

$$$$
