
     RDKit          3D

 44 48  0  0  1  0  0  0  0  0999 V2000
   38.0410   30.4620   39.6020 C   0  0  1  0  0  0  0  0  0  0  0  0
   37.5060   30.5350   38.1490 C   0  0  0  0  0  0  0  0  0  0  0  0
   36.0640   30.0920   38.3650 C   0  0  0  0  0  0  0  0  0  0  0  0
   36.0430   29.2940   39.6500 C   0  0  0  0  0  0  0  0  0  0  0  0
   37.5210   29.1050   40.0070 C   0  0  2  0  0  0  0  0  0  0  0  0
   40.8480   35.1160   39.7500 C   0  0  0  0  0  0  0  0  0  0  0  0
   39.5710   35.6580   40.0660 C   0  0  0  0  0  0  0  0  0  0  0  0
   38.5320   34.7650   40.2690 C   0  0  0  0  0  0  0  0  0  0  0  0
   38.7980   33.4390   40.1550 N   0  0  0  0  0  0  0  0  0  0  0  0
   39.9860   32.9360   39.8630 C   0  0  0  0  0  0  0  0  0  0  0  0
   41.0210   33.7880   39.6590 N   0  0  0  0  0  0  0  0  0  0  0  0
   40.2990   31.5570   39.7300 N   0  0  0  0  0  0  0  0  0  0  0  0
   41.5860   31.2320   39.7140 N   0  0  0  0  0  0  0  0  0  0  0  0
   41.6880   29.8740   39.5660 C   0  0  0  0  0  0  0  0  0  0  0  0
   40.3730   29.4050   39.4940 C   0  0  0  0  0  0  0  0  0  0  0  0
   39.5070   30.5020   39.6020 C   0  0  0  0  0  0  0  0  0  0  0  0
   37.5740   28.8360   41.4140 N   0  0  0  0  0  0  0  0  0  0  0  0
   37.6980   29.6970   42.4200 N   0  0  0  0  0  0  0  0  0  0  0  0
   37.7170   29.0650   43.6050 C   0  0  0  0  0  0  0  0  0  0  0  0
   37.5970   27.7210   43.3050 C   0  0  0  0  0  0  0  0  0  0  0  0
   37.5070   27.5880   41.9160 C   0  0  0  0  0  0  0  0  0  0  0  0
   37.3750   26.2300   41.4810 C   0  0  0  0  0  0  0  0  0  0  0  0
   37.6220   25.0860   42.0900 C   0  0  0  0  0  0  0  0  0  0  0  0
   37.5070   23.8270   41.6620 C   0  0  0  0  0  0  0  0  0  0  0  0
   37.0080   23.8400   40.2440 C   0  0  0  0  0  0  0  0  0  0  0  0
   36.8350   25.6820   39.9000 S   0  0  0  0  0  0  0  0  0  0  0  0
   37.7330   31.2823   40.2670 H   0  0  0  0  0  0  0  0  0  0  0  0
   38.0468   29.8480   37.4815 H   0  0  0  0  0  0  0  0  0  0  0  0
   37.6177   31.5174   37.6669 H   0  0  0  0  0  0  0  0  0  0  0  0
   35.4068   30.9697   38.4529 H   0  0  0  0  0  0  0  0  0  0  0  0
   35.7040   29.4889   37.5184 H   0  0  0  0  0  0  0  0  0  0  0  0
   35.5189   29.8475   40.4431 H   0  0  0  0  0  0  0  0  0  0  0  0
   35.5131   28.3364   39.5396 H   0  0  0  0  0  0  0  0  0  0  0  0
   38.0905   28.2891   39.5380 H   0  0  0  0  0  0  0  0  0  0  0  0
   41.7000   35.7904   39.5790 H   0  0  0  0  0  0  0  0  0  0  0  0
   39.4150   36.7439   40.1460 H   0  0  0  0  0  0  0  0  0  0  0  0
   37.5205   35.1202   40.5155 H   0  0  0  0  0  0  0  0  0  0  0  0
   42.6109   29.2777   39.5146 H   0  0  0  0  0  0  0  0  0  0  0  0
   40.0697   28.3546   39.3732 H   0  0  0  0  0  0  0  0  0  0  0  0
   37.8086   29.5202   44.6022 H   0  0  0  0  0  0  0  0  0  0  0  0
   37.5759   26.8974   44.0339 H   0  0  0  0  0  0  0  0  0  0  0  0
   37.9834   25.1867   43.1241 H   0  0  0  0  0  0  0  0  0  0  0  0
   37.7393   22.9272   42.2505 H   0  0  0  0  0  0  0  0  0  0  0  0
   36.7978   22.9902   39.5779 H   0  0  0  0  0  0  0  0  0  0  0  0
  1  5  1  0
  2  3  1  0
  2  1  1  0
  3  4  1  0
  4  5  1  0
  5 17  1  0
  6  7  2  0
  7  8  1  0
  9  8  2  0
 10  9  1  0
 11  6  1  0
 11 10  2  0
 12 10  1  0
 13 12  1  0
 14 13  2  0
 15 14  1  0
 15 16  2  0
 16  1  1  0
 16 12  1  0
 17 21  1  0
 17 18  1  0
 18 19  2  0
 20 19  1  0
 21 20  2  0
 22 21  1  0
 22 23  2  0
 24 23  1  0
 25 24  2  0
 26 25  1  0
 26 22  1  0
  1 27  1  1
  2 28  1  0
  2 29  1  0
  3 30  1  0
  3 31  1  0
  4 32  1  0
  4 33  1  0
  5 34  1  6
  6 35  1  0
  7 36  1  0
  8 37  1  0
 14 38  1  0
 15 39  1  0
 19 40  1  0
 20 41  1  0
 23 42  1  0
 24 43  1  0
 25 44  1  0
M  ISO  8  27  13  28  13  29  13  30  13  31  13  32  13  33  13  34  13
M  ISO  8  35  14  36  14  37  14  38  14  39  14  40  14  41  14  42  14
M  ISO  2  43  14  44  14
M  END
>  <minimizedAffinity>  (1) 
-6.34312916

>  <minimizedRMSD>  (1) 
1.17052412

$$$$
