
     RDKit          3D

 45 49  0  0  1  0  0  0  0  0999 V2000
   38.0250   30.2790   39.5050 C   0  0  1  0  0  0  0  0  0  0  0  0
   37.4230   30.2860   38.0750 C   0  0  0  0  0  0  0  0  0  0  0  0
   35.9920   29.8350   38.3730 C   0  0  0  0  0  0  0  0  0  0  0  0
   36.0350   29.1020   39.6920 C   0  0  0  0  0  0  0  0  0  0  0  0
   37.5290   28.9680   39.9980 C   0  0  2  0  0  0  0  0  0  0  0  0
   40.7210   35.0070   39.6940 C   0  0  0  0  0  0  0  0  0  0  0  0
   39.4500   35.5090   40.0770 C   0  0  0  0  0  0  0  0  0  0  0  0
   38.4420   34.5860   40.2990 C   0  0  0  0  0  0  0  0  0  0  0  0
   38.7320   33.2690   40.1350 N   0  0  0  0  0  0  0  0  0  0  0  0
   39.9170   32.8060   39.7780 C   0  0  0  0  0  0  0  0  0  0  0  0
   40.9120   33.6880   39.5580 N   0  0  0  0  0  0  0  0  0  0  0  0
   40.2540   31.4380   39.5870 N   0  0  0  0  0  0  0  0  0  0  0  0
   41.5460   31.1430   39.5100 N   0  0  0  0  0  0  0  0  0  0  0  0
   41.6650   29.7910   39.3090 C   0  0  0  0  0  0  0  0  0  0  0  0
   40.3610   29.3110   39.2730 C   0  0  0  0  0  0  0  0  0  0  0  0
   39.4760   30.3700   39.4520 C   0  0  0  0  0  0  0  0  0  0  0  0
   37.6570   28.7530   41.4110 N   0  0  0  0  0  0  0  0  0  0  0  0
   37.5780   29.6450   42.3920 N   0  0  0  0  0  0  0  0  0  0  0  0
   37.7480   29.0810   43.5980 C   0  0  0  0  0  0  0  0  0  0  0  0
   37.9470   27.7440   43.3430 C   0  0  0  0  0  0  0  0  0  0  0  0
   37.8890   27.5440   41.9660 C   0  0  0  0  0  0  0  0  0  0  0  0
   38.0520   26.2110   41.4060 C   0  0  0  0  0  0  0  0  0  0  0  0
   37.1420   25.2090   41.6600 C   0  0  0  0  0  0  0  0  0  0  0  0
   37.1910   23.9190   41.1910 C   0  0  0  0  0  0  0  0  0  0  0  0
   38.2290   23.5940   40.4030 N   0  0  0  0  0  0  0  0  0  0  0  0
   39.1610   24.5470   40.1170 C   0  0  0  0  0  0  0  0  0  0  0  0
   39.0420   25.7830   40.6150 N   0  0  0  0  0  0  0  0  0  0  0  0
   37.7402   31.1216   40.1523 H   0  0  0  0  0  0  0  0  0  0  0  0
   37.9423   29.5781   37.4123 H   0  0  0  0  0  0  0  0  0  0  0  0
   37.5001   31.2495   37.5498 H   0  0  0  0  0  0  0  0  0  0  0  0
   35.3266   30.7079   38.4457 H   0  0  0  0  0  0  0  0  0  0  0  0
   35.6061   29.1871   37.5722 H   0  0  0  0  0  0  0  0  0  0  0  0
   35.5263   29.6809   40.4769 H   0  0  0  0  0  0  0  0  0  0  0  0
   35.5243   28.1286   39.6502 H   0  0  0  0  0  0  0  0  0  0  0  0
   38.0881   28.1388   39.5399 H   0  0  0  0  0  0  0  0  0  0  0  0
   41.5521   35.7033   39.5082 H   0  0  0  0  0  0  0  0  0  0  0  0
   39.2727   36.5884   40.1929 H   0  0  0  0  0  0  0  0  0  0  0  0
   37.4347   34.9100   40.5997 H   0  0  0  0  0  0  0  0  0  0  0  0
   42.5934   29.2112   39.1998 H   0  0  0  0  0  0  0  0  0  0  0  0
   40.0737   28.2594   39.1261 H   0  0  0  0  0  0  0  0  0  0  0  0
   37.7317   29.5799   44.5782 H   0  0  0  0  0  0  0  0  0  0  0  0
   38.1223   26.9645   44.0990 H   0  0  0  0  0  0  0  0  0  0  0  0
   36.2889   25.4682   42.3042 H   0  0  0  0  0  0  0  0  0  0  0  0
   36.4142   23.1843   41.4494 H   0  0  0  0  0  0  0  0  0  0  0  0
   40.0168   24.2980   39.4723 H   0  0  0  0  0  0  0  0  0  0  0  0
  1  5  1  0
  2  3  1  0
  2  1  1  0
  3  4  1  0
  4  5  1  0
  5 17  1  0
  6  7  2  0
  7  8  1  0
  9  8  2  0
 10  9  1  0
 11  6  1  0
 11 10  2  0
 12 10  1  0
 13 12  1  0
 14 13  2  0
 15 14  1  0
 15 16  2  0
 16  1  1  0
 16 12  1  0
 17 21  1  0
 17 18  1  0
 18 19  2  0
 20 19  1  0
 21 20  2  0
 22 23  2  0
 22 21  1  0
 24 23  1  0
 25 24  2  0
 26 25  1  0
 26 27  2  0
 27 22  1  0
  1 28  1  1
  2 29  1  0
  2 30  1  0
  3 31  1  0
  3 32  1  0
  4 33  1  0
  4 34  1  0
  5 35  1  6
  6 36  1  0
  7 37  1  0
  8 38  1  0
 14 39  1  0
 15 40  1  0
 19 41  1  0
 20 42  1  0
 23 43  1  0
 24 44  1  0
 26 45  1  0
M  ISO  8  28  13  29  13  30  13  31  13  32  13  33  13  34  13  35  13
M  ISO  8  36  14  37  14  38  14  39  14  40  14  41  14  42  14  43  14
M  ISO  2  44  14  45  14
M  END
>  <minimizedAffinity>  (1) 
-6.31296253

>  <minimizedRMSD>  (1) 
0.900888562

$$$$
