
     RDKit          3D

 42 44  0  0  1  0  0  0  0  0999 V2000
   38.4490   29.8710   42.4920 C   0  0  0  0  0  0  0  0  0  0  0  0
   37.9390   28.9090   43.3970 C   0  0  0  0  0  0  0  0  0  0  0  0
   37.0750   27.9590   42.8920 C   0  0  0  0  0  0  0  0  0  0  0  0
   36.7710   28.0020   41.5810 N   0  0  0  0  0  0  0  0  0  0  0  0
   37.2640   28.9290   40.7190 C   0  0  0  0  0  0  0  0  0  0  0  0
   38.1090   29.8580   41.2100 N   0  0  0  0  0  0  0  0  0  0  0  0
   36.8800   28.8870   39.3490 N   0  0  0  0  0  0  0  0  0  0  0  0
   35.7020   28.0610   39.0410 C   0  0  0  0  0  0  0  0  0  0  0  0
   35.4400   28.0720   37.5450 C   0  0  0  0  0  0  0  0  0  0  0  0
   35.5740   29.4440   37.1340 N   0  0  0  0  0  0  0  0  0  0  0  0
   37.0110   29.6950   37.0490 C   0  0  0  0  0  0  0  0  0  0  0  0
   37.6620   29.6430   38.4020 C   0  0  1  0  0  0  0  0  0  0  0  0
   38.0200   30.9770   38.9150 C   0  0  0  0  0  0  0  0  0  0  0  0
   37.0850   31.9560   39.2810 C   0  0  0  0  0  0  0  0  0  0  0  0
   37.4640   33.1970   39.7590 C   0  0  0  0  0  0  0  0  0  0  0  0
   38.7670   33.4770   39.8760 N   0  0  0  0  0  0  0  0  0  0  0  0
   39.6830   32.5630   39.5350 C   0  0  0  0  0  0  0  0  0  0  0  0
   39.2910   31.3890   39.0840 N   0  0  0  0  0  0  0  0  0  0  0  0
   41.1560   32.8000   39.6390 C   0  0  0  0  0  0  0  0  0  0  0  0
   41.7830   32.9950   38.3500 N   0  0  0  0  0  0  0  0  0  0  0  0
   42.1650   34.3070   37.9640 C   0  0  0  0  0  0  0  0  0  0  0  0
   41.9950   35.3500   38.6990 N   0  0  0  0  0  0  0  0  0  0  0  0
   42.7640   34.4000   36.6800 N   0  0  0  0  0  0  0  0  0  0  0  0
   42.3130   36.2650   38.3170 H   0  0  0  0  0  0  0  0  0  0  0  0
   39.1403   30.6439   42.8590 H   0  0  0  0  0  0  0  0  0  0  0  0
   38.2203   28.9185   44.4604 H   0  0  0  0  0  0  0  0  0  0  0  0
   36.6449   27.1851   43.5448 H   0  0  0  0  0  0  0  0  0  0  0  0
   35.8843   27.0279   39.3718 H   0  0  0  0  0  0  0  0  0  0  0  0
   34.8257   28.4700   39.5652 H   0  0  0  0  0  0  0  0  0  0  0  0
   36.1751   27.4421   37.0227 H   0  0  0  0  0  0  0  0  0  0  0  0
   34.4433   27.6730   37.3055 H   0  0  0  0  0  0  0  0  0  0  0  0
   35.1296   29.5886   36.2161 H   0  0  0  0  0  0  0  0  0  0  0  0
   37.4692   28.9318   36.4027 H   0  0  0  0  0  0  0  0  0  0  0  0
   37.1605   30.7025   36.6335 H   0  0  0  0  0  0  0  0  0  0  0  0
   38.6114   29.1041   38.2669 H   0  0  0  0  0  0  0  0  0  0  0  0
   36.0130   31.7289   39.1845 H   0  0  0  0  0  0  0  0  0  0  0  0
   36.7055   33.9428   40.0389 H   0  0  0  0  0  0  0  0  0  0  0  0
   41.3255   33.6975   40.2520 H   0  0  0  0  0  0  0  0  0  0  0  0
   41.6049   31.9051   40.0946 H   0  0  0  0  0  0  0  0  0  0  0  0
   41.9496   32.1953   37.7226 H   0  0  0  0  0  0  0  0  0  0  0  0
   43.0716   35.3148   36.3202 H   0  0  0  0  0  0  0  0  0  0  0  0
   42.8909   33.5527   36.1083 H   0  0  0  0  0  0  0  0  0  0  0  0
  1  2  2  0
  3  2  1  0
  4  3  2  0
  5  6  2  0
  5  4  1  0
  6  1  1  0
  7  5  1  0
  8  7  1  0
  9  8  1  0
 10  9  1  0
 11 10  1  0
 11 12  1  0
 12 13  1  0
 12  7  1  0
 13 18  1  0
 13 14  2  0
 14 15  1  0
 15 16  2  0
 17 19  1  0
 17 16  1  0
 18 17  2  0
 20 19  1  0
 21 20  1  0
 21 22  2  0
 23 21  1  0
 24 22  1  0
  1 25  1  0
  2 26  1  0
  3 27  1  0
  8 28  1  0
  8 29  1  0
  9 30  1  0
  9 31  1  0
 10 32  1  0
 11 33  1  0
 11 34  1  0
 12 35  1  6
 14 36  1  0
 15 37  1  0
 19 38  1  0
 19 39  1  0
 20 40  1  0
 23 41  1  0
 23 42  1  0
M  ISO  8  25  14  26  14  27  14  28  13  29  13  30  13  31  13  32   5
M  ISO  7  33  13  34  13  35  13  36  14  37  14  38   8  39   8
M  END
>  <minimizedAffinity>  (1) 
-6.31023645

>  <minimizedRMSD>  (1) 
0.880111814

$$$$
