
     RDKit          3D

 49 53  0  0  1  0  0  0  0  0999 V2000
   38.1480   30.4760   39.5100 C   0  0  1  0  0  0  0  0  0  0  0  0
   37.6010   30.5610   38.0630 C   0  0  0  0  0  0  0  0  0  0  0  0
   36.1700   30.0820   38.2950 C   0  0  0  0  0  0  0  0  0  0  0  0
   36.1760   29.2800   39.5690 C   0  0  0  0  0  0  0  0  0  0  0  0
   37.6610   29.1340   39.9200 C   0  0  2  0  0  0  0  0  0  0  0  0
   40.8500   35.2000   39.7410 C   0  0  0  0  0  0  0  0  0  0  0  0
   39.5750   35.7010   40.0640 C   0  0  0  0  0  0  0  0  0  0  0  0
   38.5560   34.7880   40.2560 C   0  0  0  0  0  0  0  0  0  0  0  0
   38.8590   33.4700   40.1190 N   0  0  0  0  0  0  0  0  0  0  0  0
   40.0430   32.9980   39.8180 C   0  0  0  0  0  0  0  0  0  0  0  0
   41.0640   33.8770   39.6240 N   0  0  0  0  0  0  0  0  0  0  0  0
   40.3860   31.6320   39.6560 N   0  0  0  0  0  0  0  0  0  0  0  0
   41.6810   31.3390   39.6240 N   0  0  0  0  0  0  0  0  0  0  0  0
   41.8110   29.9990   39.4430 C   0  0  0  0  0  0  0  0  0  0  0  0
   40.5090   29.4890   39.3680 C   0  0  0  0  0  0  0  0  0  0  0  0
   39.6220   30.5590   39.5080 C   0  0  0  0  0  0  0  0  0  0  0  0
   37.7340   28.8700   41.3390 N   0  0  0  0  0  0  0  0  0  0  0  0
   37.8410   29.7200   42.3350 N   0  0  0  0  0  0  0  0  0  0  0  0
   37.8690   29.0850   43.5170 C   0  0  0  0  0  0  0  0  0  0  0  0
   37.7720   27.7220   43.2150 C   0  0  0  0  0  0  0  0  0  0  0  0
   37.6900   27.6160   41.8470 C   0  0  0  0  0  0  0  0  0  0  0  0
   37.6200   26.3000   41.3130 N   0  0  0  0  0  0  0  0  0  0  0  0
   38.5380   25.2730   41.8250 C   0  0  0  0  0  0  0  0  0  0  0  0
   37.5570   24.0850   41.8350 C   0  0  0  0  0  0  0  0  0  0  0  0
   37.0790   24.1930   40.3790 C   0  0  0  0  0  0  0  0  0  0  0  0
   36.7890   25.6650   40.2810 C   0  0  0  0  0  0  0  0  0  0  0  0
   37.8242   31.2841   40.1824 H   0  0  0  0  0  0  0  0  0  0  0  0
   38.1488   29.8959   37.3793 H   0  0  0  0  0  0  0  0  0  0  0  0
   37.6886   31.5506   37.5908 H   0  0  0  0  0  0  0  0  0  0  0  0
   35.4943   30.9443   38.3945 H   0  0  0  0  0  0  0  0  0  0  0  0
   35.8176   29.4732   37.4493 H   0  0  0  0  0  0  0  0  0  0  0  0
   35.6379   29.8127   40.3669 H   0  0  0  0  0  0  0  0  0  0  0  0
   35.6743   28.3077   39.4550 H   0  0  0  0  0  0  0  0  0  0  0  0
   38.2437   28.3285   39.4493 H   0  0  0  0  0  0  0  0  0  0  0  0
   41.6833   35.9002   39.5820 H   0  0  0  0  0  0  0  0  0  0  0  0
   39.3960   36.7821   40.1602 H   0  0  0  0  0  0  0  0  0  0  0  0
   37.5372   35.1155   40.5103 H   0  0  0  0  0  0  0  0  0  0  0  0
   42.7493   29.4296   39.3701 H   0  0  0  0  0  0  0  0  0  0  0  0
   40.2337   28.4337   39.2244 H   0  0  0  0  0  0  0  0  0  0  0  0
   37.9511   29.5407   44.5148 H   0  0  0  0  0  0  0  0  0  0  0  0
   37.7631   26.8918   43.9365 H   0  0  0  0  0  0  0  0  0  0  0  0
   39.3897   25.1030   41.1500 H   0  0  0  0  0  0  0  0  0  0  0  0
   39.0268   25.5005   42.7838 H   0  0  0  0  0  0  0  0  0  0  0  0
   38.0618   23.1291   42.0383 H   0  0  0  0  0  0  0  0  0  0  0  0
   36.7719   24.1127   42.6050 H   0  0  0  0  0  0  0  0  0  0  0  0
   37.8647   23.8881   39.6721 H   0  0  0  0  0  0  0  0  0  0  0  0
   36.2248   23.5451   40.1328 H   0  0  0  0  0  0  0  0  0  0  0  0
   37.0582   26.0440   39.2841 H   0  0  0  0  0  0  0  0  0  0  0  0
   35.7205   25.8805   40.4288 H   0  0  0  0  0  0  0  0  0  0  0  0
  1  5  1  0
  2  3  1  0
  2  1  1  0
  3  4  1  0
  4  5  1  0
  5 17  1  0
  6  7  2  0
  7  8  1  0
  9  8  2  0
 10  9  1  0
 11  6  1  0
 11 10  2  0
 12 10  1  0
 13 12  1  0
 14 13  2  0
 15 14  1  0
 15 16  2  0
 16  1  1  0
 16 12  1  0
 17 21  1  0
 17 18  1  0
 18 19  2  0
 20 19  1  0
 21 20  2  0
 22 23  1  0
 22 21  1  0
 23 24  1  0
 25 24  1  0
 26 25  1  0
 26 22  1  0
  1 27  1  1
  2 28  1  0
  2 29  1  0
  3 30  1  0
  3 31  1  0
  4 32  1  0
  4 33  1  0
  5 34  1  6
  6 35  1  0
  7 36  1  0
  8 37  1  0
 14 38  1  0
 15 39  1  0
 19 40  1  0
 20 41  1  0
 23 42  1  0
 23 43  1  0
 24 44  1  0
 24 45  1  0
 25 46  1  0
 25 47  1  0
 26 48  1  0
 26 49  1  0
M  ISO  8  27  13  28  13  29  13  30  13  31  13  32  13  33  13  34  13
M  ISO  8  35  14  36  14  37  14  38  14  39  14  40  14  41  14  42  13
M  ISO  7  43  13  44  13  45  13  46  13  47  13  48  13  49  13
M  END
>  <minimizedAffinity>  (1) 
-6.29893732

>  <minimizedRMSD>  (1) 
1.00581658

$$$$
