
     RDKit          3D

 49 52  0  0  1  0  0  0  0  0999 V2000
   38.2290   29.4930   42.9150 C   0  0  0  0  0  0  0  0  0  0  0  0
   37.5890   28.5000   43.6840 C   0  0  0  0  0  0  0  0  0  0  0  0
   36.7420   27.6300   43.0190 C   0  0  0  0  0  0  0  0  0  0  0  0
   36.5900   27.7980   41.6900 N   0  0  0  0  0  0  0  0  0  0  0  0
   37.2130   28.7570   40.9680 C   0  0  0  0  0  0  0  0  0  0  0  0
   38.0390   29.6040   41.6060 N   0  0  0  0  0  0  0  0  0  0  0  0
   36.9690   28.8290   39.5640 N   0  0  0  0  0  0  0  0  0  0  0  0
   35.7920   28.1010   39.0640 C   0  0  0  0  0  0  0  0  0  0  0  0
   35.6910   28.2250   37.5650 C   0  0  0  0  0  0  0  0  0  0  0  0
   35.9520   29.6090   37.2670 N   0  0  0  0  0  0  0  0  0  0  0  0
   37.4100   29.7860   37.3530 C   0  0  0  0  0  0  0  0  0  0  0  0
   37.8920   29.6010   38.7700 C   0  0  1  0  0  0  0  0  0  0  0  0
   38.2420   30.8760   39.4130 C   0  0  0  0  0  0  0  0  0  0  0  0
   37.3260   31.9030   39.7290 C   0  0  0  0  0  0  0  0  0  0  0  0
   37.7080   33.0790   40.3330 C   0  0  0  0  0  0  0  0  0  0  0  0
   39.0000   33.2660   40.6360 N   0  0  0  0  0  0  0  0  0  0  0  0
   39.9010   32.3160   40.3530 C   0  0  0  0  0  0  0  0  0  0  0  0
   39.5140   31.1890   39.7720 N   0  0  0  0  0  0  0  0  0  0  0  0
   41.3460   32.4560   40.6620 C   0  0  0  0  0  0  0  0  0  0  0  0
   42.1280   33.1270   39.7090 N   0  0  0  0  0  0  0  0  0  0  0  0
   43.5360   32.9200   39.7470 C   0  0  0  0  0  0  0  0  0  0  0  0
   44.2090   33.5630   38.5760 C   0  0  0  0  0  0  0  0  0  0  0  0
   43.5840   34.7610   38.1230 N   0  0  0  0  0  0  0  0  0  0  0  0
   42.1600   34.7200   37.9890 C   0  0  0  0  0  0  0  0  0  0  0  0
   41.5800   33.3740   38.4240 C   0  0  0  0  0  0  0  0  0  0  0  0
   38.9079   30.1988   43.4159 H   0  0  0  0  0  0  0  0  0  0  0  0
   37.7558   28.4197   44.7683 H   0  0  0  0  0  0  0  0  0  0  0  0
   36.2117   26.8298   43.5561 H   0  0  0  0  0  0  0  0  0  0  0  0
   35.8822   27.0385   39.3339 H   0  0  0  0  0  0  0  0  0  0  0  0
   34.8878   28.5326   39.5180 H   0  0  0  0  0  0  0  0  0  0  0  0
   36.4368   27.5808   37.0763 H   0  0  0  0  0  0  0  0  0  0  0  0
   34.7022   27.9117   37.1987 H   0  0  0  0  0  0  0  0  0  0  0  0
   35.4787   30.2159   37.9515 H   0  0  0  0  0  0  0  0  0  0  0  0
   37.9016   29.0448   36.7057 H   0  0  0  0  0  0  0  0  0  0  0  0
   37.6599   30.8065   37.0272 H   0  0  0  0  0  0  0  0  0  0  0  0
   38.8214   29.0159   38.7075 H   0  0  0  0  0  0  0  0  0  0  0  0
   36.2640   31.7571   39.4824 H   0  0  0  0  0  0  0  0  0  0  0  0
   36.9632   33.8548   40.5639 H   0  0  0  0  0  0  0  0  0  0  0  0
   41.4331   33.0042   41.6117 H   0  0  0  0  0  0  0  0  0  0  0  0
   41.7386   31.4288   40.6897 H   0  0  0  0  0  0  0  0  0  0  0  0
   43.9376   33.3541   40.6745 H   0  0  0  0  0  0  0  0  0  0  0  0
   43.7302   31.8379   39.7094 H   0  0  0  0  0  0  0  0  0  0  0  0
   45.2439   33.8018   38.8623 H   0  0  0  0  0  0  0  0  0  0  0  0
   44.1491   32.8441   37.7456 H   0  0  0  0  0  0  0  0  0  0  0  0
   43.8150   35.5085   38.7929 H   0  0  0  0  0  0  0  0  0  0  0  0
   41.7221   35.5132   38.6127 H   0  0  0  0  0  0  0  0  0  0  0  0
   41.9153   34.8669   36.9267 H   0  0  0  0  0  0  0  0  0  0  0  0
   40.4825   33.4266   38.4769 H   0  0  0  0  0  0  0  0  0  0  0  0
   41.8267   32.5723   37.7123 H   0  0  0  0  0  0  0  0  0  0  0  0
  1  2  2  0
  3  2  1  0
  4  3  2  0
  5  6  2  0
  5  4  1  0
  6  1  1  0
  7  5  1  0
  8  7  1  0
  9  8  1  0
 10 11  1  0
 10  9  1  0
 11 12  1  0
 12 13  1  0
 12  7  1  0
 13 14  2  0
 13 18  1  0
 14 15  1  0
 15 16  2  0
 17 16  1  0
 17 19  1  0
 18 17  2  0
 20 21  1  0
 20 19  1  0
 22 21  1  0
 23 22  1  0
 24 23  1  0
 24 25  1  0
 25 20  1  0
  1 26  1  0
  2 27  1  0
  3 28  1  0
  8 29  1  0
  8 30  1  0
  9 31  1  0
  9 32  1  0
 10 33  1  0
 11 34  1  0
 11 35  1  0
 12 36  1  6
 14 37  1  0
 15 38  1  0
 19 39  1  0
 19 40  1  0
 21 41  1  0
 21 42  1  0
 22 43  1  0
 22 44  1  0
 23 45  1  0
 24 46  1  0
 24 47  1  0
 25 48  1  0
 25 49  1  0
M  ISO  8  26  14  27  14  28  14  29  13  30  13  31  13  32  13  33   5
M  ISO  8  34  13  35  13  36  13  37  14  38  14  39   8  40   8  41  13
M  ISO  8  42  13  43  13  44  13  45   5  46  13  47  13  48  13  49  13
M  END
>  <minimizedAffinity>  (1) 
-5.96612549

>  <minimizedRMSD>  (1) 
2.74156117

$$$$
