
     RDKit          3D

 45 48  0  0  1  0  0  0  0  0999 V2000
   38.1470   29.3830   43.0500 C   0  0  0  0  0  0  0  0  0  0  0  0
   37.4770   28.3840   43.7930 C   0  0  0  0  0  0  0  0  0  0  0  0
   36.6340   27.5280   43.1180 C   0  0  0  0  0  0  0  0  0  0  0  0
   36.5000   27.6970   41.7830 N   0  0  0  0  0  0  0  0  0  0  0  0
   37.1450   28.6600   41.0670 C   0  0  0  0  0  0  0  0  0  0  0  0
   37.9700   29.4940   41.7410 N   0  0  0  0  0  0  0  0  0  0  0  0
   36.9290   28.7470   39.6710 N   0  0  0  0  0  0  0  0  0  0  0  0
   35.7630   28.0190   39.1450 C   0  0  0  0  0  0  0  0  0  0  0  0
   35.6640   28.1710   37.6490 C   0  0  0  0  0  0  0  0  0  0  0  0
   35.9390   29.5470   37.3690 N   0  0  0  0  0  0  0  0  0  0  0  0
   37.3710   29.7400   37.4770 C   0  0  0  0  0  0  0  0  0  0  0  0
   37.8520   29.5280   38.8870 C   0  0  1  0  0  0  0  0  0  0  0  0
   38.2040   30.7960   39.5520 C   0  0  0  0  0  0  0  0  0  0  0  0
   37.3090   31.8540   39.7850 C   0  0  0  0  0  0  0  0  0  0  0  0
   37.6880   33.0200   40.4100 C   0  0  0  0  0  0  0  0  0  0  0  0
   38.9640   33.1570   40.8160 N   0  0  0  0  0  0  0  0  0  0  0  0
   39.8380   32.1710   40.6110 C   0  0  0  0  0  0  0  0  0  0  0  0
   39.4570   31.0640   40.0110 N   0  0  0  0  0  0  0  0  0  0  0  0
   41.2730   32.2520   41.0350 C   0  0  0  0  0  0  0  0  0  0  0  0
   42.0130   32.9060   39.9160 C   0  0  0  0  0  0  0  0  0  0  0  0
   43.2860   33.4160   39.9850 C   0  0  0  0  0  0  0  0  0  0  0  0
   43.8900   34.0010   38.9040 C   0  0  0  0  0  0  0  0  0  0  0  0
   43.2320   34.0980   37.6980 C   0  0  0  0  0  0  0  0  0  0  0  0
   41.9380   33.6010   37.5520 C   0  0  0  0  0  0  0  0  0  0  0  0
   41.3930   33.0240   38.6870 C   0  0  0  0  0  0  0  0  0  0  0  0
   38.8253   30.0785   43.5659 H   0  0  0  0  0  0  0  0  0  0  0  0
   37.6245   28.2926   44.8792 H   0  0  0  0  0  0  0  0  0  0  0  0
   36.0881   26.7334   43.6477 H   0  0  0  0  0  0  0  0  0  0  0  0
   35.8629   26.9519   39.3927 H   0  0  0  0  0  0  0  0  0  0  0  0
   34.8532   28.4359   39.6015 H   0  0  0  0  0  0  0  0  0  0  0  0
   36.4020   27.5254   37.1504 H   0  0  0  0  0  0  0  0  0  0  0  0
   34.6697   27.8778   37.2810 H   0  0  0  0  0  0  0  0  0  0  0  0
   35.4516   30.1477   38.0491 H   0  0  0  0  0  0  0  0  0  0  0  0
   37.8790   29.0236   36.8147 H   0  0  0  0  0  0  0  0  0  0  0  0
   37.6023   30.7752   37.1857 H   0  0  0  0  0  0  0  0  0  0  0  0
   38.7780   28.9390   38.8125 H   0  0  0  0  0  0  0  0  0  0  0  0
   36.2652   31.7460   39.4551 H   0  0  0  0  0  0  0  0  0  0  0  0
   36.9595   33.8275   40.5752 H   0  0  0  0  0  0  0  0  0  0  0  0
   41.3643   32.8523   41.9522 H   0  0  0  0  0  0  0  0  0  0  0  0
   41.6801   31.2527   41.2487 H   0  0  0  0  0  0  0  0  0  0  0  0
   43.8362   33.3529   40.9354 H   0  0  0  0  0  0  0  0  0  0  0  0
   44.9115   34.3976   39.0000 H   0  0  0  0  0  0  0  0  0  0  0  0
   43.7328   34.5725   36.8413 H   0  0  0  0  0  0  0  0  0  0  0  0
   41.3879   33.6627   36.6014 H   0  0  0  0  0  0  0  0  0  0  0  0
   40.3724   32.6227   38.6021 H   0  0  0  0  0  0  0  0  0  0  0  0
  1  2  2  0
  3  2  1  0
  4  3  2  0
  5  6  2  0
  5  4  1  0
  6  1  1  0
  7  5  1  0
  8  7  1  0
  9  8  1  0
 10 11  1  0
 10  9  1  0
 11 12  1  0
 12 13  1  0
 12  7  1  0
 13 14  2  0
 13 18  1  0
 14 15  1  0
 15 16  2  0
 17 16  1  0
 17 19  1  0
 18 17  2  0
 20 21  2  0
 20 19  1  0
 22 21  1  0
 23 22  2  0
 24 23  1  0
 24 25  2  0
 25 20  1  0
  1 26  1  0
  2 27  1  0
  3 28  1  0
  8 29  1  0
  8 30  1  0
  9 31  1  0
  9 32  1  0
 10 33  1  0
 11 34  1  0
 11 35  1  0
 12 36  1  6
 14 37  1  0
 15 38  1  0
 19 39  1  0
 19 40  1  0
 21 41  1  0
 22 42  1  0
 23 43  1  0
 24 44  1  0
 25 45  1  0
M  ISO  8  26  14  27  14  28  14  29  13  30  13  31  13  32  13  33   5
M  ISO  8  34  13  35  13  36  13  37  14  38  14  39   8  40   8  41  14
M  ISO  4  42  14  43  14  44  14  45  14
M  END
>  <minimizedAffinity>  (1) 
-5.71326542

>  <minimizedRMSD>  (1) 
0.177521124

$$$$
