
     RDKit          3D

 43 46  0  0  1  0  0  0  0  0999 V2000
   38.1550   29.4340   42.9330 C   0  0  0  0  0  0  0  0  0  0  0  0
   37.5110   28.4280   43.6940 C   0  0  0  0  0  0  0  0  0  0  0  0
   36.6780   27.5590   43.0250 C   0  0  0  0  0  0  0  0  0  0  0  0
   36.5290   27.7200   41.7010 N   0  0  0  0  0  0  0  0  0  0  0  0
   37.1480   28.6860   40.9690 C   0  0  0  0  0  0  0  0  0  0  0  0
   37.9660   29.5390   41.6310 N   0  0  0  0  0  0  0  0  0  0  0  0
   36.9130   28.7590   39.5780 N   0  0  0  0  0  0  0  0  0  0  0  0
   35.7640   28.0070   39.0680 C   0  0  0  0  0  0  0  0  0  0  0  0
   35.6430   28.1630   37.5710 C   0  0  0  0  0  0  0  0  0  0  0  0
   35.8870   29.5470   37.2870 N   0  0  0  0  0  0  0  0  0  0  0  0
   37.3410   29.7390   37.3690 C   0  0  0  0  0  0  0  0  0  0  0  0
   37.8250   29.5630   38.7860 C   0  0  1  0  0  0  0  0  0  0  0  0
   38.1730   30.8330   39.4360 C   0  0  0  0  0  0  0  0  0  0  0  0
   37.2630   31.8710   39.6570 C   0  0  0  0  0  0  0  0  0  0  0  0
   37.6170   33.0530   40.2700 C   0  0  0  0  0  0  0  0  0  0  0  0
   38.8960   33.2140   40.6720 N   0  0  0  0  0  0  0  0  0  0  0  0
   39.7820   32.2450   40.4760 C   0  0  0  0  0  0  0  0  0  0  0  0
   39.4110   31.1220   39.8850 N   0  0  0  0  0  0  0  0  0  0  0  0
   41.2240   32.3220   40.8840 C   0  0  0  0  0  0  0  0  0  0  0  0
   42.0400   32.9730   39.8140 C   0  0  0  0  0  0  0  0  0  0  0  0
   41.4350   33.0830   38.5780 C   0  0  0  0  0  0  0  0  0  0  0  0
   42.0540   33.6580   37.4880 C   0  0  0  0  0  0  0  0  0  0  0  0
   43.3040   34.1310   37.6460 N   0  0  0  0  0  0  0  0  0  0  0  0
   43.8720   34.0080   38.8740 C   0  0  0  0  0  0  0  0  0  0  0  0
   43.2990   33.4470   39.9760 N   0  0  0  0  0  0  0  0  0  0  0  0
   38.8273   30.1432   43.4380 H   0  0  0  0  0  0  0  0  0  0  0  0
   37.6703   28.3439   44.7792 H   0  0  0  0  0  0  0  0  0  0  0  0
   36.1500   26.7561   43.5604 H   0  0  0  0  0  0  0  0  0  0  0  0
   35.8937   26.9419   39.3103 H   0  0  0  0  0  0  0  0  0  0  0  0
   34.8497   28.3980   39.5384 H   0  0  0  0  0  0  0  0  0  0  0  0
   36.3872   27.5332   37.0615 H   0  0  0  0  0  0  0  0  0  0  0  0
   34.6489   27.8526   37.2169 H   0  0  0  0  0  0  0  0  0  0  0  0
   35.4098   30.1419   37.9793 H   0  0  0  0  0  0  0  0  0  0  0  0
   37.8393   29.0008   36.7234 H   0  0  0  0  0  0  0  0  0  0  0  0
   37.5810   30.7604   37.0386 H   0  0  0  0  0  0  0  0  0  0  0  0
   38.7667   28.9981   38.7218 H   0  0  0  0  0  0  0  0  0  0  0  0
   36.2217   31.7386   39.3280 H   0  0  0  0  0  0  0  0  0  0  0  0
   36.8738   33.8483   40.4285 H   0  0  0  0  0  0  0  0  0  0  0  0
   41.3067   32.9102   41.8099 H   0  0  0  0  0  0  0  0  0  0  0  0
   41.6014   31.3016   41.0461 H   0  0  0  0  0  0  0  0  0  0  0  0
   40.4130   32.6945   38.4571 H   0  0  0  0  0  0  0  0  0  0  0  0
   41.5409   33.7280   36.5175 H   0  0  0  0  0  0  0  0  0  0  0  0
   44.8935   34.3992   38.9901 H   0  0  0  0  0  0  0  0  0  0  0  0
  1  2  2  0
  3  2  1  0
  4  3  2  0
  5  6  2  0
  5  4  1  0
  6  1  1  0
  7  5  1  0
  8  7  1  0
  9  8  1  0
 10 11  1  0
 10  9  1  0
 11 12  1  0
 12 13  1  0
 12  7  1  0
 13 14  2  0
 13 18  1  0
 14 15  1  0
 15 16  2  0
 17 16  1  0
 17 19  1  0
 18 17  2  0
 20 25  1  0
 20 19  1  0
 21 20  2  0
 22 23  2  0
 22 21  1  0
 23 24  1  0
 24 25  2  0
  1 26  1  0
  2 27  1  0
  3 28  1  0
  8 29  1  0
  8 30  1  0
  9 31  1  0
  9 32  1  0
 10 33  1  0
 11 34  1  0
 11 35  1  0
 12 36  1  6
 14 37  1  0
 15 38  1  0
 19 39  1  0
 19 40  1  0
 21 41  1  0
 22 42  1  0
 24 43  1  0
M  ISO  8  26  14  27  14  28  14  29  13  30  13  31  13  32  13  33   5
M  ISO  8  34  13  35  13  36  13  37  14  38  14  39   8  40   8  41  14
M  ISO  2  42  14  43  14
M  END
>  <minimizedAffinity>  (1) 
-5.70409727

>  <minimizedRMSD>  (1) 
0.277518988

$$$$
