
     RDKit          3D

 42 45  0  0  1  0  0  0  0  0999 V2000
   38.6600   29.9320   42.4550 C   0  0  0  0  0  0  0  0  0  0  0  0
   38.2050   29.0030   43.3980 C   0  0  0  0  0  0  0  0  0  0  0  0
   37.2770   28.0610   42.9620 C   0  0  0  0  0  0  0  0  0  0  0  0
   36.8880   28.1120   41.6790 N   0  0  0  0  0  0  0  0  0  0  0  0
   37.3400   29.0200   40.7790 C   0  0  0  0  0  0  0  0  0  0  0  0
   38.2400   29.9340   41.1980 N   0  0  0  0  0  0  0  0  0  0  0  0
   36.8480   28.9670   39.4450 N   0  0  0  0  0  0  0  0  0  0  0  0
   35.6310   28.1730   39.2270 C   0  0  0  0  0  0  0  0  0  0  0  0
   35.2610   28.1850   37.7600 C   0  0  0  0  0  0  0  0  0  0  0  0
   35.3980   29.5480   37.3270 N   0  0  0  0  0  0  0  0  0  0  0  0
   36.8420   29.7550   37.1200 C   0  0  0  0  0  0  0  0  0  0  0  0
   37.5810   29.6930   38.4330 C   0  0  1  0  0  0  0  0  0  0  0  0
   38.0080   31.0230   38.9040 C   0  0  0  0  0  0  0  0  0  0  0  0
   37.1500   31.9890   39.4550 C   0  0  0  0  0  0  0  0  0  0  0  0
   37.6060   33.2130   39.8770 C   0  0  0  0  0  0  0  0  0  0  0  0
   38.9070   33.5080   39.7660 N   0  0  0  0  0  0  0  0  0  0  0  0
   39.7490   32.6180   39.2490 C   0  0  0  0  0  0  0  0  0  0  0  0
   39.3030   31.4360   38.8420 N   0  0  0  0  0  0  0  0  0  0  0  0
   41.2200   32.8530   39.0810 C   0  0  0  0  0  0  0  0  0  0  0  0
   41.8560   33.2980   40.3200 C   0  0  0  0  0  0  0  0  0  0  0  0
   42.3260   34.6100   40.3900 C   0  0  0  0  0  0  0  0  0  0  0  0
   42.8800   34.7920   41.6470 C   0  0  0  0  0  0  0  0  0  0  0  0
   42.7430   33.6340   42.2940 N   0  0  0  0  0  0  0  0  0  0  0  0
   42.1370   32.7510   41.5080 N   0  0  0  0  0  0  0  0  0  0  0  0
   39.3938   30.6889   42.7691 H   0  0  0  0  0  0  0  0  0  0  0  0
   38.5647   29.0166   44.4375 H   0  0  0  0  0  0  0  0  0  0  0  0
   36.8758   27.2997   43.6472 H   0  0  0  0  0  0  0  0  0  0  0  0
   35.8098   27.1365   39.5491 H   0  0  0  0  0  0  0  0  0  0  0  0
   34.8066   28.6083   39.8108 H   0  0  0  0  0  0  0  0  0  0  0  0
   35.9390   27.5330   37.1897 H   0  0  0  0  0  0  0  0  0  0  0  0
   34.2384   27.8128   37.5999 H   0  0  0  0  0  0  0  0  0  0  0  0
   34.8834   29.6993   36.4477 H   0  0  0  0  0  0  0  0  0  0  0  0
   37.2272   28.9714   36.4511 H   0  0  0  0  0  0  0  0  0  0  0  0
   36.9972   30.7478   36.6724 H   0  0  0  0  0  0  0  0  0  0  0  0
   38.5000   29.1203   38.2394 H   0  0  0  0  0  0  0  0  0  0  0  0
   36.0790   31.7574   39.5514 H   0  0  0  0  0  0  0  0  0  0  0  0
   36.9066   33.9470   40.3038 H   0  0  0  0  0  0  0  0  0  0  0  0
   41.6935   31.9142   38.7577 H   0  0  0  0  0  0  0  0  0  0  0  0
   41.3504   33.6476   38.3316 H   0  0  0  0  0  0  0  0  0  0  0  0
   42.2673   35.3640   39.5912 H   0  0  0  0  0  0  0  0  0  0  0  0
   43.3423   35.7116   42.0352 H   0  0  0  0  0  0  0  0  0  0  0  0
   43.0591   33.4518   43.2572 H   0  0  0  0  0  0  0  0  0  0  0  0
  1  2  2  0
  3  2  1  0
  4  3  2  0
  5  6  2  0
  5  4  1  0
  6  1  1  0
  7  5  1  0
  8  7  1  0
  9  8  1  0
 10  9  1  0
 11 10  1  0
 11 12  1  0
 12 13  1  0
 12  7  1  0
 13 14  2  0
 14 15  1  0
 16 15  2  0
 17 16  1  0
 18 13  1  0
 18 17  2  0
 19 17  1  0
 19 20  1  0
 20 21  1  0
 20 24  2  0
 21 22  2  0
 22 23  1  0
 24 23  1  0
  1 25  1  0
  2 26  1  0
  3 27  1  0
  8 28  1  0
  8 29  1  0
  9 30  1  0
  9 31  1  0
 10 32  1  0
 11 33  1  0
 11 34  1  0
 12 35  1  6
 14 36  1  0
 15 37  1  0
 19 38  1  0
 19 39  1  0
 21 40  1  0
 22 41  1  0
 23 42  1  0
M  ISO  8  25  14  26  14  27  14  28  13  29  13  30  13  31  13  32   5
M  ISO  8  33  13  34  13  35  13  36  14  37  14  38   8  39   8  40  14
M  ISO  2  41  14  42   9
M  END
>  <minimizedAffinity>  (1) 
-5.67342949

>  <minimizedRMSD>  (1) 
1.72354424

$$$$
