
     RDKit          3D

 48 51  0  0  1  0  0  0  0  0999 V2000
   38.0600   29.3780   42.9820 C   0  0  0  0  0  0  0  0  0  0  0  0
   37.4550   28.3730   43.7670 C   0  0  0  0  0  0  0  0  0  0  0  0
   36.7200   27.4110   43.1170 C   0  0  0  0  0  0  0  0  0  0  0  0
   36.6250   27.4900   41.7720 N   0  0  0  0  0  0  0  0  0  0  0  0
   37.2080   28.4570   41.0180 C   0  0  0  0  0  0  0  0  0  0  0  0
   37.9330   29.4050   41.6700 N   0  0  0  0  0  0  0  0  0  0  0  0
   37.0410   28.4420   39.6140 N   0  0  0  0  0  0  0  0  0  0  0  0
   35.9500   27.5980   39.0950 C   0  0  0  0  0  0  0  0  0  0  0  0
   35.9090   27.6540   37.5870 C   0  0  0  0  0  0  0  0  0  0  0  0
   36.0810   29.0340   37.2300 N   0  0  0  0  0  0  0  0  0  0  0  0
   37.5090   29.3200   37.3820 C   0  0  0  0  0  0  0  0  0  0  0  0
   37.9430   29.2410   38.8240 C   0  0  1  0  0  0  0  0  0  0  0  0
   38.1670   30.5760   39.4150 C   0  0  0  0  0  0  0  0  0  0  0  0
   37.1560   31.5380   39.6350 C   0  0  0  0  0  0  0  0  0  0  0  0
   37.4140   32.7620   40.1870 C   0  0  0  0  0  0  0  0  0  0  0  0
   38.6750   33.0670   40.5370 N   0  0  0  0  0  0  0  0  0  0  0  0
   39.6480   32.1910   40.3460 C   0  0  0  0  0  0  0  0  0  0  0  0
   39.3760   31.0090   39.8090 N   0  0  0  0  0  0  0  0  0  0  0  0
   41.0890   32.4320   40.7000 C   0  0  0  0  0  0  0  0  0  0  0  0
   41.8460   33.0640   39.5770 C   0  0  0  0  0  0  0  0  0  0  0  0
   41.4480   32.5520   38.2180 C   0  0  0  0  0  0  0  0  0  0  0  0
   42.2690   33.4950   37.3320 C   0  0  0  0  0  0  0  0  0  0  0  0
   42.2720   34.8210   38.0950 C   0  0  0  0  0  0  0  0  0  0  0  0
   41.6400   34.5340   39.4420 C   0  0  0  0  0  0  0  0  0  0  0  0
   38.6535   30.1599   43.4783 H   0  0  0  0  0  0  0  0  0  0  0  0
   37.5680   28.3603   44.8611 H   0  0  0  0  0  0  0  0  0  0  0  0
   36.2247   26.6023   43.6743 H   0  0  0  0  0  0  0  0  0  0  0  0
   36.1138   26.5581   39.4142 H   0  0  0  0  0  0  0  0  0  0  0  0
   34.9935   27.9703   39.4907 H   0  0  0  0  0  0  0  0  0  0  0  0
   36.7210   27.0464   37.1611 H   0  0  0  0  0  0  0  0  0  0  0  0
   34.9604   27.2557   37.1978 H   0  0  0  0  0  0  0  0  0  0  0  0
   35.5275   29.6364   37.8558 H   0  0  0  0  0  0  0  0  0  0  0  0
   38.0836   28.5875   36.7961 H   0  0  0  0  0  0  0  0  0  0  0  0
   37.6939   30.3435   37.0237 H   0  0  0  0  0  0  0  0  0  0  0  0
   38.9161   28.7281   38.8340 H   0  0  0  0  0  0  0  0  0  0  0  0
   36.1218   31.2929   39.3514 H   0  0  0  0  0  0  0  0  0  0  0  0
   36.6011   33.4866   40.3423 H   0  0  0  0  0  0  0  0  0  0  0  0
   41.1327   33.0966   41.5755 H   0  0  0  0  0  0  0  0  0  0  0  0
   41.5524   31.4578   40.9147 H   0  0  0  0  0  0  0  0  0  0  0  0
   42.8803   32.8099   39.8520 H   0  0  0  0  0  0  0  0  0  0  0  0
   41.7389   31.5007   38.0758 H   0  0  0  0  0  0  0  0  0  0  0  0
   40.3660   32.5523   38.0197 H   0  0  0  0  0  0  0  0  0  0  0  0
   41.7963   33.6136   36.3458 H   0  0  0  0  0  0  0  0  0  0  0  0
   43.2842   33.1165   37.1419 H   0  0  0  0  0  0  0  0  0  0  0  0
   43.3023   35.1832   38.2264 H   0  0  0  0  0  0  0  0  0  0  0  0
   41.7179   35.5991   37.5495 H   0  0  0  0  0  0  0  0  0  0  0  0
   42.1490   35.0841   40.2472 H   0  0  0  0  0  0  0  0  0  0  0  0
   40.5860   34.8413   39.5107 H   0  0  0  0  0  0  0  0  0  0  0  0
  1  2  2  0
  3  2  1  0
  4  3  2  0
  5  6  2  0
  5  4  1  0
  6  1  1  0
  7  5  1  0
  8  7  1  0
  9  8  1  0
 10 11  1  0
 10  9  1  0
 11 12  1  0
 12 13  1  0
 12  7  1  0
 13 14  2  0
 13 18  1  0
 14 15  1  0
 15 16  2  0
 17 16  1  0
 17 19  1  0
 18 17  2  0
 20 19  1  0
 21 20  1  0
 22 23  1  0
 22 21  1  0
 23 24  1  0
 24 20  1  0
  1 25  1  0
  2 26  1  0
  3 27  1  0
  8 28  1  0
  8 29  1  0
  9 30  1  0
  9 31  1  0
 10 32  1  0
 11 33  1  0
 11 34  1  0
 12 35  1  6
 14 36  1  0
 15 37  1  0
 19 38  1  0
 19 39  1  0
 20 40  1  0
 21 41  1  0
 21 42  1  0
 22 43  1  0
 22 44  1  0
 23 45  1  0
 23 46  1  0
 24 47  1  0
 24 48  1  0
M  ISO  8  25  14  26  14  27  14  28  13  29  13  30  13  31  13  32   5
M  ISO  8  33  13  34  13  35  13  36  14  37  14  38   8  39   8  40  13
M  ISO  8  41  13  42  13  43  13  44  13  45  13  46  13  47  13  48  13
M  END
>  <minimizedAffinity>  (1) 
-5.56715584

>  <minimizedRMSD>  (1) 
0.41851601

$$$$
