
     RDKit          3D

 42 45  0  0  1  0  0  0  0  0999 V2000
   38.1690   29.4470   42.9330 C   0  0  0  0  0  0  0  0  0  0  0  0
   37.5360   28.4420   43.6940 C   0  0  0  0  0  0  0  0  0  0  0  0
   36.7040   27.5630   43.0230 C   0  0  0  0  0  0  0  0  0  0  0  0
   36.5600   27.7300   41.6910 N   0  0  0  0  0  0  0  0  0  0  0  0
   37.1710   28.6970   40.9670 C   0  0  0  0  0  0  0  0  0  0  0  0
   37.9830   29.5560   41.6180 N   0  0  0  0  0  0  0  0  0  0  0  0
   36.9410   28.7730   39.5710 N   0  0  0  0  0  0  0  0  0  0  0  0
   35.7760   28.0270   39.0620 C   0  0  0  0  0  0  0  0  0  0  0  0
   35.6570   28.1830   37.5610 C   0  0  0  0  0  0  0  0  0  0  0  0
   35.9070   29.5620   37.2830 N   0  0  0  0  0  0  0  0  0  0  0  0
   37.3530   29.7560   37.3640 C   0  0  0  0  0  0  0  0  0  0  0  0
   37.8570   29.5660   38.7710 C   0  0  1  0  0  0  0  0  0  0  0  0
   38.1850   30.8460   39.4280 C   0  0  0  0  0  0  0  0  0  0  0  0
   37.2550   31.8480   39.7490 C   0  0  0  0  0  0  0  0  0  0  0  0
   37.6130   33.0210   40.3620 C   0  0  0  0  0  0  0  0  0  0  0  0
   38.9050   33.2290   40.6720 N   0  0  0  0  0  0  0  0  0  0  0  0
   39.8170   32.2980   40.3820 C   0  0  0  0  0  0  0  0  0  0  0  0
   39.4520   31.1720   39.7900 N   0  0  0  0  0  0  0  0  0  0  0  0
   41.2670   32.4550   40.6930 C   0  0  0  0  0  0  0  0  0  0  0  0
   41.8720   33.1560   39.5050 C   0  0  0  0  0  0  0  0  0  0  0  0
   41.3450   33.4910   38.2760 C   0  0  0  0  0  0  0  0  0  0  0  0
   42.3510   34.1290   37.5650 C   0  0  0  0  0  0  0  0  0  0  0  0
   43.4530   34.1510   38.4030 C   0  0  0  0  0  0  0  0  0  0  0  0
   43.1380   33.5700   39.5390 O   0  0  0  0  0  0  0  0  0  0  0  0
   38.8351   30.1610   43.4395 H   0  0  0  0  0  0  0  0  0  0  0  0
   37.6975   28.3601   44.7790 H   0  0  0  0  0  0  0  0  0  0  0  0
   36.1786   26.7568   43.5560 H   0  0  0  0  0  0  0  0  0  0  0  0
   35.8946   26.9610   39.3063 H   0  0  0  0  0  0  0  0  0  0  0  0
   34.8659   28.4267   39.5331 H   0  0  0  0  0  0  0  0  0  0  0  0
   36.3992   27.5506   37.0518 H   0  0  0  0  0  0  0  0  0  0  0  0
   34.6632   27.8755   37.2034 H   0  0  0  0  0  0  0  0  0  0  0  0
   35.4306   30.1553   37.9772 H   0  0  0  0  0  0  0  0  0  0  0  0
   37.8489   29.0279   36.7052 H   0  0  0  0  0  0  0  0  0  0  0  0
   37.5814   30.7856   37.0514 H   0  0  0  0  0  0  0  0  0  0  0  0
   38.7970   29.0002   38.6922 H   0  0  0  0  0  0  0  0  0  0  0  0
   36.1963   31.6852   39.4985 H   0  0  0  0  0  0  0  0  0  0  0  0
   36.8538   33.7815   40.5970 H   0  0  0  0  0  0  0  0  0  0  0  0
   41.3997   33.0597   41.6022 H   0  0  0  0  0  0  0  0  0  0  0  0
   41.7479   31.4826   40.8754 H   0  0  0  0  0  0  0  0  0  0  0  0
   40.3217   33.2906   37.9258 H   0  0  0  0  0  0  0  0  0  0  0  0
   42.2864   34.5344   36.5445 H   0  0  0  0  0  0  0  0  0  0  0  0
   44.4337   34.5847   38.1576 H   0  0  0  0  0  0  0  0  0  0  0  0
  1  2  2  0
  3  2  1  0
  4  3  2  0
  5  6  2  0
  5  4  1  0
  6  1  1  0
  7  5  1  0
  8  7  1  0
  9  8  1  0
 10 11  1  0
 10  9  1  0
 11 12  1  0
 12 13  1  0
 12  7  1  0
 13 14  2  0
 13 18  1  0
 14 15  1  0
 15 16  2  0
 17 16  1  0
 17 19  1  0
 18 17  2  0
 20 24  1  0
 20 19  1  0
 21 20  2  0
 22 21  1  0
 22 23  2  0
 23 24  1  0
  1 25  1  0
  2 26  1  0
  3 27  1  0
  8 28  1  0
  8 29  1  0
  9 30  1  0
  9 31  1  0
 10 32  1  0
 11 33  1  0
 11 34  1  0
 12 35  1  6
 14 36  1  0
 15 37  1  0
 19 38  1  0
 19 39  1  0
 21 40  1  0
 22 41  1  0
 23 42  1  0
M  ISO  8  25  14  26  14  27  14  28  13  29  13  30  13  31  13  32   5
M  ISO  8  33  13  34  13  35  13  36  14  37  14  38   8  39   8  40  14
M  ISO  2  41  14  42  14
M  END
>  <minimizedAffinity>  (1) 
-5.54503727

>  <minimizedRMSD>  (1) 
0.207795635

$$$$
