
     RDKit          3D

 42 45  0  0  1  0  0  0  0  0999 V2000
   38.1940   29.4720   42.9180 C   0  0  0  0  0  0  0  0  0  0  0  0
   37.5710   28.4690   43.6800 C   0  0  0  0  0  0  0  0  0  0  0  0
   36.7400   27.5830   43.0140 C   0  0  0  0  0  0  0  0  0  0  0  0
   36.5900   27.7480   41.6790 N   0  0  0  0  0  0  0  0  0  0  0  0
   37.1990   28.7240   40.9570 C   0  0  0  0  0  0  0  0  0  0  0  0
   38.0050   29.5800   41.6100 N   0  0  0  0  0  0  0  0  0  0  0  0
   36.9630   28.7950   39.5620 N   0  0  0  0  0  0  0  0  0  0  0  0
   35.8040   28.0450   39.0550 C   0  0  0  0  0  0  0  0  0  0  0  0
   35.7070   28.1750   37.5590 C   0  0  0  0  0  0  0  0  0  0  0  0
   35.9390   29.5670   37.2690 N   0  0  0  0  0  0  0  0  0  0  0  0
   37.3890   29.7700   37.3570 C   0  0  0  0  0  0  0  0  0  0  0  0
   37.8730   29.5900   38.7710 C   0  0  1  0  0  0  0  0  0  0  0  0
   38.1950   30.8770   39.4230 C   0  0  0  0  0  0  0  0  0  0  0  0
   37.2660   31.8770   39.7280 C   0  0  0  0  0  0  0  0  0  0  0  0
   37.6280   33.0570   40.3370 C   0  0  0  0  0  0  0  0  0  0  0  0
   38.9150   33.2660   40.6550 N   0  0  0  0  0  0  0  0  0  0  0  0
   39.8230   32.3340   40.3790 C   0  0  0  0  0  0  0  0  0  0  0  0
   39.4590   31.2110   39.7950 N   0  0  0  0  0  0  0  0  0  0  0  0
   41.2810   32.4770   40.6950 C   0  0  0  0  0  0  0  0  0  0  0  0
   42.0070   33.1630   39.6270 C   0  0  0  0  0  0  0  0  0  0  0  0
   43.3120   33.5930   39.4810 C   0  0  0  0  0  0  0  0  0  0  0  0
   43.4270   34.1760   38.2630 N   0  0  0  0  0  0  0  0  0  0  0  0
   42.2260   34.1220   37.6470 C   0  0  0  0  0  0  0  0  0  0  0  0
   41.3680   33.5090   38.4720 N   0  0  0  0  0  0  0  0  0  0  0  0
   38.8586   30.1892   43.4219 H   0  0  0  0  0  0  0  0  0  0  0  0
   37.7369   28.3904   44.7646 H   0  0  0  0  0  0  0  0  0  0  0  0
   36.2211   26.7750   43.5505 H   0  0  0  0  0  0  0  0  0  0  0  0
   35.9157   26.9832   39.3198 H   0  0  0  0  0  0  0  0  0  0  0  0
   34.8890   28.4541   39.5082 H   0  0  0  0  0  0  0  0  0  0  0  0
   36.4688   27.5500   37.0702 H   0  0  0  0  0  0  0  0  0  0  0  0
   34.7268   27.8423   37.1869 H   0  0  0  0  0  0  0  0  0  0  0  0
   35.4535   30.1603   37.9569 H   0  0  0  0  0  0  0  0  0  0  0  0
   37.8947   29.0400   36.7078 H   0  0  0  0  0  0  0  0  0  0  0  0
   37.6199   30.7962   37.0350 H   0  0  0  0  0  0  0  0  0  0  0  0
   38.8150   29.0255   38.7075 H   0  0  0  0  0  0  0  0  0  0  0  0
   36.2086   31.7147   39.4721 H   0  0  0  0  0  0  0  0  0  0  0  0
   36.8696   33.8216   40.5610 H   0  0  0  0  0  0  0  0  0  0  0  0
   41.3881   33.0543   41.6252 H   0  0  0  0  0  0  0  0  0  0  0  0
   41.7065   31.4683   40.8023 H   0  0  0  0  0  0  0  0  0  0  0  0
   44.1163   33.4817   40.2231 H   0  0  0  0  0  0  0  0  0  0  0  0
   41.9941   34.5125   36.6451 H   0  0  0  0  0  0  0  0  0  0  0  0
   40.3755   33.3262   38.2660 H   0  0  0  0  0  0  0  0  0  0  0  0
  1  2  2  0
  3  2  1  0
  4  3  2  0
  5  6  2  0
  5  4  1  0
  6  1  1  0
  7  5  1  0
  8  7  1  0
  9  8  1  0
 10 11  1  0
 10  9  1  0
 11 12  1  0
 12 13  1  0
 12  7  1  0
 13 14  2  0
 13 18  1  0
 14 15  1  0
 15 16  2  0
 17 16  1  0
 17 19  1  0
 18 17  2  0
 20 19  1  0
 21 20  2  0
 22 21  1  0
 23 22  2  0
 23 24  1  0
 24 20  1  0
  1 25  1  0
  2 26  1  0
  3 27  1  0
  8 28  1  0
  8 29  1  0
  9 30  1  0
  9 31  1  0
 10 32  1  0
 11 33  1  0
 11 34  1  0
 12 35  1  6
 14 36  1  0
 15 37  1  0
 19 38  1  0
 19 39  1  0
 21 40  1  0
 23 41  1  0
 24 42  1  0
M  ISO  8  25  14  26  14  27  14  28  13  29  13  30  13  31  13  32   5
M  ISO  8  33  13  34  13  35  13  36  14  37  14  38   8  39   8  40  14
M  ISO  2  41  14  42   9
M  END
>  <minimizedAffinity>  (1) 
-5.51309156

>  <minimizedRMSD>  (1) 
0.208380044

$$$$
