
     RDKit          3D

 50 53  0  0  1  0  0  0  0  0999 V2000
   38.2510   29.2830   43.0550 C   0  0  0  0  0  0  0  0  0  0  0  0
   37.5310   28.3530   43.8320 C   0  0  0  0  0  0  0  0  0  0  0  0
   36.5940   27.5690   43.1700 C   0  0  0  0  0  0  0  0  0  0  0  0
   36.4430   27.7500   41.8420 N   0  0  0  0  0  0  0  0  0  0  0  0
   37.1490   28.6520   41.1160 C   0  0  0  0  0  0  0  0  0  0  0  0
   38.0600   29.4160   41.7600 N   0  0  0  0  0  0  0  0  0  0  0  0
   36.9010   28.7550   39.7140 N   0  0  0  0  0  0  0  0  0  0  0  0
   35.6580   28.1320   39.2360 C   0  0  0  0  0  0  0  0  0  0  0  0
   35.5470   28.2820   37.7350 C   0  0  0  0  0  0  0  0  0  0  0  0
   35.9190   29.6490   37.4480 N   0  0  0  0  0  0  0  0  0  0  0  0
   37.3780   29.6860   37.5130 C   0  0  0  0  0  0  0  0  0  0  0  0
   37.8770   29.4480   38.9070 C   0  0  1  0  0  0  0  0  0  0  0  0
   38.3500   30.6860   39.5600 C   0  0  0  0  0  0  0  0  0  0  0  0
   37.5310   31.7420   39.9740 C   0  0  0  0  0  0  0  0  0  0  0  0
   38.0360   32.8690   40.5770 C   0  0  0  0  0  0  0  0  0  0  0  0
   39.3540   32.9690   40.7780 N   0  0  0  0  0  0  0  0  0  0  0  0
   40.1690   31.9870   40.4000 C   0  0  0  0  0  0  0  0  0  0  0  0
   39.6640   30.9160   39.8240 N   0  0  0  0  0  0  0  0  0  0  0  0
   41.6560   32.0070   40.5820 C   0  0  0  0  0  0  0  0  0  0  0  0
   42.0350   32.0130   41.9790 N   0  0  0  0  0  0  0  0  0  0  0  0
   41.4270   30.9340   42.7120 C   0  0  0  0  0  0  0  0  0  0  0  0
   42.4000   29.8720   43.1570 C   0  0  0  0  0  0  0  0  0  0  0  0
   43.4790   30.4200   44.0590 C   0  0  0  0  0  0  0  0  0  0  0  0
   43.7170   31.8810   43.6580 C   0  0  0  0  0  0  0  0  0  0  0  0
   43.4650   31.9270   42.1620 C   0  0  0  0  0  0  0  0  0  0  0  0
   38.9992   29.9203   43.5490 H   0  0  0  0  0  0  0  0  0  0  0  0
   37.7032   28.2524   44.9138 H   0  0  0  0  0  0  0  0  0  0  0  0
   35.9938   26.8236   43.7124 H   0  0  0  0  0  0  0  0  0  0  0  0
   35.6632   27.0631   39.4957 H   0  0  0  0  0  0  0  0  0  0  0  0
   34.7996   28.6280   39.7125 H   0  0  0  0  0  0  0  0  0  0  0  0
   36.2304   27.5845   37.2286 H   0  0  0  0  0  0  0  0  0  0  0  0
   34.5311   28.0553   37.3792 H   0  0  0  0  0  0  0  0  0  0  0  0
   35.5124   30.2859   38.1479 H   0  0  0  0  0  0  0  0  0  0  0  0
   37.7843   28.9071   36.8510 H   0  0  0  0  0  0  0  0  0  0  0  0
   37.7103   30.6854   37.1957 H   0  0  0  0  0  0  0  0  0  0  0  0
   38.7539   28.7902   38.8160 H   0  0  0  0  0  0  0  0  0  0  0  0
   36.4456   31.6677   39.8113 H   0  0  0  0  0  0  0  0  0  0  0  0
   37.3628   33.6803   40.8910 H   0  0  0  0  0  0  0  0  0  0  0  0
   42.0838   31.1142   40.1026 H   0  0  0  0  0  0  0  0  0  0  0  0
   42.0403   32.9301   40.1235 H   0  0  0  0  0  0  0  0  0  0  0  0
   40.9400   31.3532   43.6048 H   0  0  0  0  0  0  0  0  0  0  0  0
   40.7138   30.4475   42.0303 H   0  0  0  0  0  0  0  0  0  0  0  0
   41.8470   29.0924   43.7014 H   0  0  0  0  0  0  0  0  0  0  0  0
   42.8884   29.4676   42.2582 H   0  0  0  0  0  0  0  0  0  0  0  0
   43.1540   30.3668   45.1085 H   0  0  0  0  0  0  0  0  0  0  0  0
   44.4044   29.8343   43.9561 H   0  0  0  0  0  0  0  0  0  0  0  0
   43.0186   32.5455   44.1878 H   0  0  0  0  0  0  0  0  0  0  0  0
   44.7317   32.2188   43.9154 H   0  0  0  0  0  0  0  0  0  0  0  0
   43.8531   31.0149   41.6850 H   0  0  0  0  0  0  0  0  0  0  0  0
   43.9727   32.7886   41.7039 H   0  0  0  0  0  0  0  0  0  0  0  0
  1  2  2  0
  3  2  1  0
  4  3  2  0
  5  6  2  0
  5  4  1  0
  6  1  1  0
  7  5  1  0
  8  7  1  0
  9  8  1  0
 10 11  1  0
 10  9  1  0
 11 12  1  0
 12 13  1  0
 12  7  1  0
 13 18  1  0
 13 14  2  0
 14 15  1  0
 15 16  2  0
 17 19  1  0
 17 16  1  0
 18 17  2  0
 19 20  1  0
 20 25  1  0
 20 21  1  0
 21 22  1  0
 22 23  1  0
 24 23  1  0
 25 24  1  0
  1 26  1  0
  2 27  1  0
  3 28  1  0
  8 29  1  0
  8 30  1  0
  9 31  1  0
  9 32  1  0
 10 33  1  0
 11 34  1  0
 11 35  1  0
 12 36  1  6
 14 37  1  0
 15 38  1  0
 19 39  1  0
 19 40  1  0
 21 41  1  0
 21 42  1  0
 22 43  1  0
 22 44  1  0
 23 45  1  0
 23 46  1  0
 24 47  1  0
 24 48  1  0
 25 49  1  0
 25 50  1  0
M  ISO  8  26  14  27  14  28  14  29  13  30  13  31  13  32  13  33   5
M  ISO  8  34  13  35  13  36  13  37  14  38  14  39   8  40   8  41  13
M  ISO  8  42  13  43  13  44  13  45  13  46  13  47  13  48  13  49  13
M  ISO  1  50  13
M  END
>  <minimizedAffinity>  (1) 
-5.34531879

>  <minimizedRMSD>  (1) 
0.598973572

$$$$
