
     RDKit          3D

 42 45  0  0  1  0  0  0  0  0999 V2000
   38.0400   29.3780   43.0070 C   0  0  0  0  0  0  0  0  0  0  0  0
   37.4330   28.3610   43.7640 C   0  0  0  0  0  0  0  0  0  0  0  0
   36.7270   27.3930   43.0860 C   0  0  0  0  0  0  0  0  0  0  0  0
   36.6660   27.4840   41.7410 N   0  0  0  0  0  0  0  0  0  0  0  0
   37.2490   28.4610   41.0100 C   0  0  0  0  0  0  0  0  0  0  0  0
   37.9450   29.4140   41.6840 N   0  0  0  0  0  0  0  0  0  0  0  0
   37.1210   28.4610   39.5950 N   0  0  0  0  0  0  0  0  0  0  0  0
   36.0620   27.5910   39.0470 C   0  0  0  0  0  0  0  0  0  0  0  0
   36.0610   27.6620   37.5340 C   0  0  0  0  0  0  0  0  0  0  0  0
   36.1950   29.0610   37.2100 N   0  0  0  0  0  0  0  0  0  0  0  0
   37.6200   29.3740   37.3810 C   0  0  0  0  0  0  0  0  0  0  0  0
   38.0130   29.2920   38.8280 C   0  0  1  0  0  0  0  0  0  0  0  0
   38.1880   30.6240   39.4430 C   0  0  0  0  0  0  0  0  0  0  0  0
   37.1530   31.5530   39.6610 C   0  0  0  0  0  0  0  0  0  0  0  0
   37.3700   32.7760   40.2360 C   0  0  0  0  0  0  0  0  0  0  0  0
   38.6130   33.1110   40.6090 N   0  0  0  0  0  0  0  0  0  0  0  0
   39.6140   32.2570   40.4190 C   0  0  0  0  0  0  0  0  0  0  0  0
   39.3780   31.0890   39.8640 N   0  0  0  0  0  0  0  0  0  0  0  0
   41.0300   32.5640   40.8130 C   0  0  0  0  0  0  0  0  0  0  0  0
   41.8340   33.0670   39.6590 C   0  0  0  0  0  0  0  0  0  0  0  0
   41.5890   34.4450   39.1780 C   0  0  0  0  0  0  0  0  0  0  0  0
   42.9020   34.1030   39.9410 C   0  0  0  0  0  0  0  0  0  0  0  0
   38.6086   30.1645   43.5248 H   0  0  0  0  0  0  0  0  0  0  0  0
   37.5191   28.3393   44.8604 H   0  0  0  0  0  0  0  0  0  0  0  0
   36.2289   26.5723   43.6230 H   0  0  0  0  0  0  0  0  0  0  0  0
   36.2444   26.5531   39.3624 H   0  0  0  0  0  0  0  0  0  0  0  0
   35.0861   27.9308   39.4240 H   0  0  0  0  0  0  0  0  0  0  0  0
   36.9058   27.0902   37.1224 H   0  0  0  0  0  0  0  0  0  0  0  0
   35.1427   27.2321   37.1075 H   0  0  0  0  0  0  0  0  0  0  0  0
   35.6226   29.6335   37.8468 H   0  0  0  0  0  0  0  0  0  0  0  0
   38.2192   28.6550   36.8031 H   0  0  0  0  0  0  0  0  0  0  0  0
   37.8019   30.3982   37.0233 H   0  0  0  0  0  0  0  0  0  0  0  0
   38.9978   28.8023   38.8472 H   0  0  0  0  0  0  0  0  0  0  0  0
   36.1301   31.2856   39.3574 H   0  0  0  0  0  0  0  0  0  0  0  0
   36.5348   33.4751   40.3900 H   0  0  0  0  0  0  0  0  0  0  0  0
   41.0212   33.3312   41.6013 H   0  0  0  0  0  0  0  0  0  0  0  0
   41.4934   31.6326   41.1704 H   0  0  0  0  0  0  0  0  0  0  0  0
   41.8329   32.0815   39.1704 H   0  0  0  0  0  0  0  0  0  0  0  0
   41.6197   34.6658   38.1008 H   0  0  0  0  0  0  0  0  0  0  0  0
   40.7834   35.1831   39.3055 H   0  0  0  0  0  0  0  0  0  0  0  0
   43.0630   34.4719   40.9647 H   0  0  0  0  0  0  0  0  0  0  0  0
   43.9799   34.2022   39.7455 H   0  0  0  0  0  0  0  0  0  0  0  0
  1  2  2  0
  3  2  1  0
  4  3  2  0
  5  6  2  0
  5  4  1  0
  6  1  1  0
  7  5  1  0
  8  7  1  0
  9  8  1  0
 10 11  1  0
 10  9  1  0
 11 12  1  0
 12 13  1  0
 12  7  1  0
 13 14  2  0
 13 18  1  0
 14 15  1  0
 15 16  2  0
 17 16  1  0
 17 19  1  0
 18 17  2  0
 20 22  1  0
 20 19  1  0
 21 20  1  0
 21 22  1  0
  1 23  1  0
  2 24  1  0
  3 25  1  0
  8 26  1  0
  8 27  1  0
  9 28  1  0
  9 29  1  0
 10 30  1  0
 11 31  1  0
 11 32  1  0
 12 33  1  6
 14 34  1  0
 15 35  1  0
 19 36  1  0
 19 37  1  0
 20 38  1  0
 21 39  1  0
 21 40  1  0
 22 41  1  0
 22 42  1  0
M  ISO  8  23  14  24  14  25  14  26  13  27  13  28  13  29  13  30   5
M  ISO  8  31  13  32  13  33  13  34  14  35  14  36   8  37   8  38  13
M  ISO  4  39  13  40  13  41  13  42  13
M  END
>  <minimizedAffinity>  (1) 
-5.0454936

>  <minimizedRMSD>  (1) 
1.31229138

$$$$
