
     RDKit          3D

 36 38  0  0  1  0  0  0  0  0999 V2000
   38.1460   29.4080   42.9770 C   0  0  0  0  0  0  0  0  0  0  0  0
   37.5010   28.4100   43.7310 C   0  0  0  0  0  0  0  0  0  0  0  0
   36.6660   27.5370   43.0520 C   0  0  0  0  0  0  0  0  0  0  0  0
   36.5250   27.7010   41.7150 N   0  0  0  0  0  0  0  0  0  0  0  0
   37.1550   28.6720   40.9990 C   0  0  0  0  0  0  0  0  0  0  0  0
   37.9710   29.5220   41.6680 N   0  0  0  0  0  0  0  0  0  0  0  0
   36.9330   28.7480   39.6010 N   0  0  0  0  0  0  0  0  0  0  0  0
   35.7720   28.0110   39.0920 C   0  0  0  0  0  0  0  0  0  0  0  0
   35.6580   28.1690   37.5880 C   0  0  0  0  0  0  0  0  0  0  0  0
   35.9180   29.5530   37.3060 N   0  0  0  0  0  0  0  0  0  0  0  0
   37.3750   29.7280   37.4030 C   0  0  0  0  0  0  0  0  0  0  0  0
   37.8550   29.5350   38.8200 C   0  0  1  0  0  0  0  0  0  0  0  0
   38.1940   30.8120   39.4760 C   0  0  0  0  0  0  0  0  0  0  0  0
   37.2630   31.8280   39.7660 C   0  0  0  0  0  0  0  0  0  0  0  0
   37.6330   33.0000   40.3810 C   0  0  0  0  0  0  0  0  0  0  0  0
   38.9160   33.1880   40.7180 N   0  0  0  0  0  0  0  0  0  0  0  0
   39.8220   32.2360   40.4530 C   0  0  0  0  0  0  0  0  0  0  0  0
   39.4400   31.1230   39.8640 N   0  0  0  0  0  0  0  0  0  0  0  0
   41.2700   32.3770   40.8000 C   0  0  0  0  0  0  0  0  0  0  0  0
   41.9350   32.9730   39.7120 O   0  0  0  0  0  0  0  0  0  0  0  0
   38.8155   30.1147   43.4893 H   0  0  0  0  0  0  0  0  0  0  0  0
   37.6537   28.3262   44.8171 H   0  0  0  0  0  0  0  0  0  0  0  0
   36.1334   26.7345   43.5833 H   0  0  0  0  0  0  0  0  0  0  0  0
   35.8853   26.9444   39.3361 H   0  0  0  0  0  0  0  0  0  0  0  0
   34.8623   28.4137   39.5612 H   0  0  0  0  0  0  0  0  0  0  0  0
   36.3976   27.5318   37.0812 H   0  0  0  0  0  0  0  0  0  0  0  0
   34.6625   27.8686   37.2293 H   0  0  0  0  0  0  0  0  0  0  0  0
   35.4403   30.1528   37.9937 H   0  0  0  0  0  0  0  0  0  0  0  0
   37.8689   28.9904   36.7534 H   0  0  0  0  0  0  0  0  0  0  0  0
   37.6244   30.7518   37.0874 H   0  0  0  0  0  0  0  0  0  0  0  0
   38.7904   28.9594   38.7596 H   0  0  0  0  0  0  0  0  0  0  0  0
   36.2081   31.6791   39.4921 H   0  0  0  0  0  0  0  0  0  0  0  0
   36.8832   33.7760   40.5944 H   0  0  0  0  0  0  0  0  0  0  0  0
   41.3774   33.0108   41.6926 H   0  0  0  0  0  0  0  0  0  0  0  0
   41.7045   31.3888   41.0112 H   0  0  0  0  0  0  0  0  0  0  0  0
   42.6282   33.5943   40.0491 H   0  0  0  0  0  0  0  0  0  0  0  0
  1  2  2  0
  3  2  1  0
  4  3  2  0
  5  6  2  0
  5  4  1  0
  6  1  1  0
  7  5  1  0
  8  7  1  0
  9  8  1  0
 10 11  1  0
 10  9  1  0
 11 12  1  0
 12 13  1  0
 12  7  1  0
 13 14  2  0
 13 18  1  0
 14 15  1  0
 15 16  2  0
 17 16  1  0
 17 19  1  0
 18 17  2  0
 20 19  1  0
  1 21  1  0
  2 22  1  0
  3 23  1  0
  8 24  1  0
  8 25  1  0
  9 26  1  0
  9 27  1  0
 10 28  1  0
 11 29  1  0
 11 30  1  0
 12 31  1  6
 14 32  1  0
 15 33  1  0
 19 34  1  0
 19 35  1  0
 20 36  1  0
M  ISO  8  21  14  22  14  23  14  24  13  25  13  26  13  27  13  28   5
M  ISO  8  29  13  30  13  31  13  32  14  33  14  34   8  35   8  36   3
M  END
>  <minimizedAffinity>  (1) 
-4.81923056

>  <minimizedRMSD>  (1) 
0.027365854

$$$$
