
     RDKit          3D

 19 19  0  0  0  0  0  0  0  0999 V2000
   38.3790   29.2130   43.0900 C   0  0  0  0  0  0  0  0  0  0  0  0
   37.9590   27.9170   43.4500 C   0  0  0  0  0  0  0  0  0  0  0  0
   36.8300   27.3750   42.8070 C   0  0  0  0  0  0  0  0  0  0  0  0
   36.2100   28.1400   41.8720 N   0  0  0  0  0  0  0  0  0  0  0  0
   36.6440   29.3840   41.5520 C   0  0  0  0  0  0  0  0  0  0  0  0
   37.7180   29.9070   42.1580 N   0  0  0  0  0  0  0  0  0  0  0  0
   35.8890   30.1300   40.5140 C   0  0  0  0  0  0  0  0  0  0  0  0
   34.8540   29.1890   39.9230 C   0  0  0  0  0  0  0  0  0  0  0  0
   36.7410   30.7390   39.4500 C   0  0  0  0  0  0  0  0  0  0  0  0
   39.2580   29.6573   43.5799 H   0  0  0  0  0  0  0  0  0  0  0  0
   38.5007   27.3422   44.2156 H   0  0  0  0  0  0  0  0  0  0  0  0
   36.4631   26.3676   43.0532 H   0  0  0  0  0  0  0  0  0  0  0  0
   35.4090   30.9922   41.0001 H   0  0  0  0  0  0  0  0  0  0  0  0
   34.3054   28.6903   40.7356 H   0  0  0  0  0  0  0  0  0  0  0  0
   34.1492   29.7621   39.3026 H   0  0  0  0  0  0  0  0  0  0  0  0
   35.3576   28.4330   39.3026 H   0  0  0  0  0  0  0  0  0  0  0  0
   37.5516   31.3184   39.9162 H   0  0  0  0  0  0  0  0  0  0  0  0
   37.1719   29.9430   38.8249 H   0  0  0  0  0  0  0  0  0  0  0  0
   36.1273   31.4043   38.8249 H   0  0  0  0  0  0  0  0  0  0  0  0
  1  2  2  0
  3  2  1  0
  4  3  2  0
  5  4  1  0
  5  6  2  0
  6  1  1  0
  7  5  1  0
  8  7  1  0
  9  7  1  0
  1 10  1  0
  2 11  1  0
  3 12  1  0
  7 13  1  0
  8 14  1  0
  8 15  1  0
  8 16  1  0
  9 17  1  0
  9 18  1  0
  9 19  1  0
M  ISO  8  10  14  11  14  12  14  13   8  14   8  15   8  16   8  17   8
M  ISO  2  18   8  19   8
M  END
>  <minimizedAffinity>  (1) 
-3.36639667

>  <minimizedRMSD>  (1) 
0.501686692

$$$$
