
     RDKit          3D

 44 48  0  0  1  0  0  0  0  0999 V2000
   37.5160   29.8590   39.5440 C   0  0  1  0  0  0  0  0  0  0  0  0
   36.7270   29.8250   38.2060 C   0  0  0  0  0  0  0  0  0  0  0  0
   35.3320   29.4690   38.7130 C   0  0  0  0  0  0  0  0  0  0  0  0
   35.5060   28.8180   40.0600 C   0  0  0  0  0  0  0  0  0  0  0  0
   37.0100   28.6190   40.1850 C   0  0  2  0  0  0  0  0  0  0  0  0
   40.5560   34.3830   39.5690 C   0  0  0  0  0  0  0  0  0  0  0  0
   39.3900   34.9420   40.1380 C   0  0  0  0  0  0  0  0  0  0  0  0
   38.3550   34.0830   40.4440 C   0  0  0  0  0  0  0  0  0  0  0  0
   38.5150   32.7630   40.1840 N   0  0  0  0  0  0  0  0  0  0  0  0
   39.6010   32.2390   39.6520 C   0  0  0  0  0  0  0  0  0  0  0  0
   40.6330   33.0600   39.3430 N   0  0  0  0  0  0  0  0  0  0  0  0
   39.8090   30.8630   39.3590 N   0  0  0  0  0  0  0  0  0  0  0  0
   41.0560   30.4850   39.0890 N   0  0  0  0  0  0  0  0  0  0  0  0
   41.0510   29.1450   38.8250 C   0  0  0  0  0  0  0  0  0  0  0  0
   39.7200   28.7470   38.9550 C   0  0  0  0  0  0  0  0  0  0  0  0
   38.9500   29.8540   39.2950 C   0  0  0  0  0  0  0  0  0  0  0  0
   37.3190   28.4840   41.5810 N   0  0  0  0  0  0  0  0  0  0  0  0
   37.3380   29.4240   42.5150 N   0  0  0  0  0  0  0  0  0  0  0  0
   37.6700   28.9320   43.7220 C   0  0  0  0  0  0  0  0  0  0  0  0
   37.8730   27.5830   43.5140 C   0  0  0  0  0  0  0  0  0  0  0  0
   37.6500   27.3120   42.1690 C   0  0  0  0  0  0  0  0  0  0  0  0
   37.7760   25.9570   41.6100 C   0  0  0  0  0  0  0  0  0  0  0  0
   37.0020   24.8660   41.9420 C   0  0  0  0  0  0  0  0  0  0  0  0
   37.3880   23.7710   41.2340 C   0  0  0  0  0  0  0  0  0  0  0  0
   38.4280   24.2300   40.4550 C   0  0  0  0  0  0  0  0  0  0  0  0
   38.6040   25.4920   40.7150 O   0  0  0  0  0  0  0  0  0  0  0  0
   37.3740   30.7535   40.1683 H   0  0  0  0  0  0  0  0  0  0  0  0
   37.1189   29.0568   37.5231 H   0  0  0  0  0  0  0  0  0  0  0  0
   36.7779   30.7550   37.6207 H   0  0  0  0  0  0  0  0  0  0  0  0
   34.7214   30.3789   38.8092 H   0  0  0  0  0  0  0  0  0  0  0  0
   34.8207   28.7920   38.0128 H   0  0  0  0  0  0  0  0  0  0  0  0
   35.1308   29.4718   40.8610 H   0  0  0  0  0  0  0  0  0  0  0  0
   34.9467   27.8749   40.1484 H   0  0  0  0  0  0  0  0  0  0  0  0
   37.4519   27.7273   39.7164 H   0  0  0  0  0  0  0  0  0  0  0  0
   41.4046   35.0331   39.3097 H   0  0  0  0  0  0  0  0  0  0  0  0
   39.3104   36.0222   40.3299 H   0  0  0  0  0  0  0  0  0  0  0  0
   37.4223   34.4606   40.8884 H   0  0  0  0  0  0  0  0  0  0  0  0
   41.9133   28.5135   38.5650 H   0  0  0  0  0  0  0  0  0  0  0  0
   39.3414   27.7242   38.8119 H   0  0  0  0  0  0  0  0  0  0  0  0
   37.7601   29.4847   44.6688 H   0  0  0  0  0  0  0  0  0  0  0  0
   38.1616   26.8487   44.2805 H   0  0  0  0  0  0  0  0  0  0  0  0
   36.1847   24.8792   42.6781 H   0  0  0  0  0  0  0  0  0  0  0  0
   36.9678   22.7552   41.2738 H   0  0  0  0  0  0  0  0  0  0  0  0
   39.0089   23.6322   39.7373 H   0  0  0  0  0  0  0  0  0  0  0  0
  1  5  1  0
  2  3  1  0
  2  1  1  0
  3  4  1  0
  4  5  1  0
  5 17  1  0
  6  7  2  0
  7  8  1  0
  9  8  2  0
 10  9  1  0
 11  6  1  0
 11 10  2  0
 12 10  1  0
 13 12  1  0
 14 15  1  0
 14 13  2  0
 15 16  2  0
 16 12  1  0
 16  1  1  0
 17 21  1  0
 17 18  1  0
 18 19  2  0
 20 19  1  0
 21 20  2  0
 22 23  2  0
 22 21  1  0
 24 23  1  0
 25 26  1  0
 25 24  2  0
 26 22  1  0
  1 27  1  1
  2 28  1  0
  2 29  1  0
  3 30  1  0
  3 31  1  0
  4 32  1  0
  4 33  1  0
  5 34  1  6
  6 35  1  0
  7 36  1  0
  8 37  1  0
 14 38  1  0
 15 39  1  0
 19 40  1  0
 20 41  1  0
 23 42  1  0
 24 43  1  0
 25 44  1  0
M  ISO  8  27  13  28  13  29  13  30  13  31  13  32  13  33  13  34  13
M  ISO  8  35  14  36  14  37  14  38  14  39  14  40  14  41  14  42  14
M  ISO  2  43  14  44  14
M  END
>  <minimizedAffinity>  (1) 
-6.25148106

>  <minimizedRMSD>  (1) 
1.37213027

$$$$
