
     RDKit          3D

 33 35  0  0  1  0  0  0  0  0999 V2000
   37.7240   30.6520   39.5140 C   0  0  0  0  0  0  0  0  0  0  0  0
   37.9770   32.0510   39.6580 N   0  0  0  0  0  0  0  0  0  0  0  0
   37.0850   33.0530   39.4090 C   0  0  0  0  0  0  0  0  0  0  0  0
   37.6410   34.2640   39.6750 N   0  0  0  0  0  0  0  0  0  0  0  0
   38.9100   34.0530   40.1010 C   0  0  0  0  0  0  0  0  0  0  0  0
   39.8730   34.9630   40.4740 C   0  0  0  0  0  0  0  0  0  0  0  0
   39.6470   36.2160   40.4740 O   0  0  0  0  0  0  0  0  0  0  0  0
   41.0780   34.5080   40.8460 N   0  0  0  0  0  0  0  0  0  0  0  0
   41.2550   33.1670   40.8240 C   0  0  0  0  0  0  0  0  0  0  0  0
   42.5750   32.7550   41.2360 N   0  0  0  0  0  0  0  0  0  0  0  0
   40.3370   32.2750   40.4680 N   0  0  0  0  0  0  0  0  0  0  0  0
   39.1050   32.6860   40.0850 C   0  0  0  0  0  0  0  0  0  0  0  0
   36.6050   30.1950   40.3500 C   0  0  2  0  0  0  0  0  0  0  0  0
   38.2730   29.0520   43.3940 C   0  0  0  0  0  0  0  0  0  0  0  0
   37.5590   27.8530   43.6910 C   0  0  0  0  0  0  0  0  0  0  0  0
   36.4990   27.4450   42.8330 C   0  0  0  0  0  0  0  0  0  0  0  0
   36.2240   28.2300   41.7630 N   0  0  0  0  0  0  0  0  0  0  0  0
   36.9420   29.3700   41.5270 C   0  0  0  0  0  0  0  0  0  0  0  0
   37.9450   29.7740   42.3240 N   0  0  0  0  0  0  0  0  0  0  0  0
   35.5600   29.4400   39.5520 C   0  0  0  0  0  0  0  0  0  0  0  0
   37.4861   30.4428   38.4606 H   0  0  0  0  0  0  0  0  0  0  0  0
   38.6264   30.1133   39.8387 H   0  0  0  0  0  0  0  0  0  0  0  0
   36.0585   32.9015   39.0437 H   0  0  0  0  0  0  0  0  0  0  0  0
   41.8318   35.1479   41.1343 H   0  0  0  0  0  0  0  0  0  0  0  0
   42.8192   31.7546   41.2567 H   0  0  0  0  0  0  0  0  0  0  0  0
   43.2731   33.4613   41.5094 H   0  0  0  0  0  0  0  0  0  0  0  0
   36.2196   31.1518   40.7322 H   0  0  0  0  0  0  0  0  0  0  0  0
   39.0940   29.3799   44.0485 H   0  0  0  0  0  0  0  0  0  0  0  0
   37.8245   27.2510   44.5726 H   0  0  0  0  0  0  0  0  0  0  0  0
   35.9251   26.5277   43.0309 H   0  0  0  0  0  0  0  0  0  0  0  0
   34.8648   28.9378   40.2408 H   0  0  0  0  0  0  0  0  0  0  0  0
   35.0025   30.1453   38.9181 H   0  0  0  0  0  0  0  0  0  0  0  0
   36.0545   28.6892   38.9181 H   0  0  0  0  0  0  0  0  0  0  0  0
  1  2  1  0
  1 13  1  0
  2 12  1  0
  3  2  1  0
  3  4  2  0
  4  5  1  0
  5  6  1  0
  6  7  2  0
  6  8  1  0
  9  8  1  0
  9 10  1  0
 11  9  2  0
 12  5  2  0
 12 11  1  0
 13 18  1  0
 14 15  2  0
 16 15  1  0
 17 16  2  0
 18 17  1  0
 18 19  2  0
 19 14  1  0
 20 13  1  0
  1 21  1  0
  1 22  1  0
  3 23  1  0
  8 24  1  0
 10 25  1  0
 10 26  1  0
 13 27  1  1
 14 28  1  0
 15 29  1  0
 16 30  1  0
 20 31  1  0
 20 32  1  0
 20 33  1  0
M  ISO  8  21   8  22   8  23  14  24   9  27   8  28  14  29  14  30  14
M  ISO  3  31   8  32   8  33   8
M  END
>  <minimizedAffinity>  (1) 
-5.42749548

>  <minimizedRMSD>  (1) 
1.75702357

$$$$
