
     RDKit          3D

 32 34  0  0  1  0  0  0  0  0999 V2000
   36.1380   30.0130   40.4810 C   0  0  2  0  0  0  0  0  0  0  0  0
   38.0910   28.9440   43.4040 C   0  0  0  0  0  0  0  0  0  0  0  0
   37.8380   27.5420   43.4320 C   0  0  0  0  0  0  0  0  0  0  0  0
   36.9950   26.9860   42.4330 C   0  0  0  0  0  0  0  0  0  0  0  0
   36.4810   27.8450   41.5100 N   0  0  0  0  0  0  0  0  0  0  0  0
   36.7520   29.1680   41.5290 C   0  0  0  0  0  0  0  0  0  0  0  0
   37.5370   29.7270   42.4470 N   0  0  0  0  0  0  0  0  0  0  0  0
   34.9400   29.2910   39.9240 C   0  0  0  0  0  0  0  0  0  0  0  0
   37.0660   30.4840   39.4120 C   0  0  0  0  0  0  0  0  0  0  0  0
   37.5910   31.7970   39.6630 N   0  0  0  0  0  0  0  0  0  0  0  0
   37.0820   33.0410   39.6420 C   0  0  0  0  0  0  0  0  0  0  0  0
   37.9990   33.9650   39.9810 N   0  0  0  0  0  0  0  0  0  0  0  0
   39.1420   33.3190   40.2330 C   0  0  0  0  0  0  0  0  0  0  0  0
   40.3660   33.8230   40.6170 C   0  0  0  0  0  0  0  0  0  0  0  0
   41.3630   32.9430   40.8060 N   0  0  0  0  0  0  0  0  0  0  0  0
   41.1390   31.6140   40.6180 C   0  0  0  0  0  0  0  0  0  0  0  0
   39.9240   31.1570   40.2420 N   0  0  0  0  0  0  0  0  0  0  0  0
   38.8910   31.9860   40.0370 C   0  0  0  0  0  0  0  0  0  0  0  0
   40.5930   35.1990   40.8100 N   0  0  0  0  0  0  0  0  0  0  0  0
   35.8298   30.9519   40.9642 H   0  0  0  0  0  0  0  0  0  0  0  0
   38.7425   29.3951   44.1669 H   0  0  0  0  0  0  0  0  0  0  0  0
   38.2852   26.9049   44.2093 H   0  0  0  0  0  0  0  0  0  0  0  0
   36.7677   25.9101   42.4063 H   0  0  0  0  0  0  0  0  0  0  0  0
   34.3196   28.9171   40.7519 H   0  0  0  0  0  0  0  0  0  0  0  0
   34.3489   29.9834   39.3066 H   0  0  0  0  0  0  0  0  0  0  0  0
   35.2761   28.4449   39.3066 H   0  0  0  0  0  0  0  0  0  0  0  0
   36.5205   30.5013   38.4569 H   0  0  0  0  0  0  0  0  0  0  0  0
   37.9178   29.7885   39.3859 H   0  0  0  0  0  0  0  0  0  0  0  0
   36.0399   33.2754   39.3790 H   0  0  0  0  0  0  0  0  0  0  0  0
   41.9607   30.8997   40.7747 H   0  0  0  0  0  0  0  0  0  0  0  0
   41.5244   35.5320   41.0974 H   0  0  0  0  0  0  0  0  0  0  0  0
   39.8277   35.8727   40.6638 H   0  0  0  0  0  0  0  0  0  0  0  0
  1  6  1  0
  2  3  2  0
  4  3  1  0
  5  6  1  0
  5  4  2  0
  6  7  2  0
  7  2  1  0
  8  1  1  0
  9 10  1  0
  9  1  1  0
 10 18  1  0
 11 10  1  0
 11 12  2  0
 12 13  1  0
 13 14  2  0
 14 15  1  0
 14 19  1  0
 16 15  2  0
 17 16  1  0
 18 13  1  0
 18 17  2  0
  1 20  1  1
  2 21  1  0
  3 22  1  0
  4 23  1  0
  8 24  1  0
  8 25  1  0
  8 26  1  0
  9 27  1  0
  9 28  1  0
 11 29  1  0
 16 30  1  0
 19 31  1  0
 19 32  1  0
M  ISO  8  20   8  21  14  22  14  23  14  24   8  25   8  26   8  27   8
M  ISO  3  28   8  29  14  30  14
M  END
>  <minimizedAffinity>  (1) 
-5.11028814

>  <minimizedRMSD>  (1) 
1.07152402

$$$$
