
     RDKit          3D

 32 33  0  0  1  0  0  0  0  0999 V2000
   36.0580   30.0700   40.5110 C   0  0  2  0  0  0  0  0  0  0  0  0
   38.3160   29.1790   43.2450 C   0  0  0  0  0  0  0  0  0  0  0  0
   37.8470   27.8700   43.5520 C   0  0  0  0  0  0  0  0  0  0  0  0
   36.7890   27.3230   42.8210 C   0  0  0  0  0  0  0  0  0  0  0  0
   36.2680   28.0930   41.8430 N   0  0  0  0  0  0  0  0  0  0  0  0
   36.7360   29.3440   41.5700 C   0  0  0  0  0  0  0  0  0  0  0  0
   37.7370   29.8890   42.2450 N   0  0  0  0  0  0  0  0  0  0  0  0
   34.7740   29.3360   40.1240 C   0  0  0  0  0  0  0  0  0  0  0  0
   36.8440   30.4110   39.3130 C   0  0  0  0  0  0  0  0  0  0  0  0
   37.8510   31.4250   39.4350 N   0  0  0  0  0  0  0  0  0  0  0  0
   37.7370   32.7150   39.8010 C   0  0  0  0  0  0  0  0  0  0  0  0
   38.7900   33.5660   39.8870 C   0  0  0  0  0  0  0  0  0  0  0  0
   38.5680   34.9780   40.2990 C   0  0  0  0  0  0  0  0  0  0  0  0
   40.0670   33.1290   39.5910 C   0  0  0  0  0  0  0  0  0  0  0  0
   41.0760   33.8800   39.6550 O   0  0  0  0  0  0  0  0  0  0  0  0
   40.2020   31.8300   39.2200 N   0  0  0  0  0  0  0  0  0  0  0  0
   39.1230   31.0130   39.1480 C   0  0  0  0  0  0  0  0  0  0  0  0
   39.3800   29.8290   38.7920 O   0  0  0  0  0  0  0  0  0  0  0  0
   35.8467   31.0543   40.9543 H   0  0  0  0  0  0  0  0  0  0  0  0
   39.1476   29.6141   43.8187 H   0  0  0  0  0  0  0  0  0  0  0  0
   38.3158   27.2915   44.3616 H   0  0  0  0  0  0  0  0  0  0  0  0
   36.4006   26.3158   43.0322 H   0  0  0  0  0  0  0  0  0  0  0  0
   34.2381   29.0297   41.0345 H   0  0  0  0  0  0  0  0  0  0  0  0
   34.1343   30.0048   39.5295 H   0  0  0  0  0  0  0  0  0  0  0  0
   35.0257   28.4454   39.5295 H   0  0  0  0  0  0  0  0  0  0  0  0
   36.1353   30.7449   38.5408 H   0  0  0  0  0  0  0  0  0  0  0  0
   37.4046   29.4933   39.0815 H   0  0  0  0  0  0  0  0  0  0  0  0
   36.7357   33.1003   40.0436 H   0  0  0  0  0  0  0  0  0  0  0  0
   38.5579   35.0423   41.3971 H   0  0  0  0  0  0  0  0  0  0  0  0
   39.3782   35.6074   39.9023 H   0  0  0  0  0  0  0  0  0  0  0  0
   37.6037   35.3284   39.9023 H   0  0  0  0  0  0  0  0  0  0  0  0
   41.1358   31.4609   38.9905 H   0  0  0  0  0  0  0  0  0  0  0  0
  1  6  1  0
  2  3  2  0
  4  3  1  0
  5  4  2  0
  6  5  1  0
  6  7  2  0
  7  2  1  0
  8  1  1  0
  9 10  1  0
  9  1  1  0
 10 11  1  0
 11 12  2  0
 12 13  1  0
 14 15  2  0
 14 12  1  0
 16 14  1  0
 17 16  1  0
 17 10  1  0
 18 17  2  0
  1 19  1  1
  2 20  1  0
  3 21  1  0
  4 22  1  0
  8 23  1  0
  8 24  1  0
  8 25  1  0
  9 26  1  0
  9 27  1  0
 11 28  1  0
 13 29  1  0
 13 30  1  0
 13 31  1  0
 16 32  1  0
M  ISO  8  19   8  20  14  21  14  22  14  23   8  24   8  25   8  26   8
M  ISO  6  27   8  28  14  29   8  30   8  31   8  32   9
M  END
>  <minimizedAffinity>  (1) 
-4.95517445

>  <minimizedRMSD>  (1) 
1.1432066

$$$$
