
     RDKit          3D

 26 26  0  0  1  0  0  0  0  0999 V2000
   35.8800   30.2150   40.7380 C   0  0  2  0  0  0  0  0  0  0  0  0
   38.6350   29.2050   42.9550 C   0  0  0  0  0  0  0  0  0  0  0  0
   38.2410   27.8880   43.3180 C   0  0  0  0  0  0  0  0  0  0  0  0
   37.0390   27.3730   42.7960 C   0  0  0  0  0  0  0  0  0  0  0  0
   36.3230   28.1870   41.9620 N   0  0  0  0  0  0  0  0  0  0  0  0
   36.7460   29.4370   41.6490 C   0  0  0  0  0  0  0  0  0  0  0  0
   37.8930   29.9460   42.1380 N   0  0  0  0  0  0  0  0  0  0  0  0
   34.9670   29.2830   39.9950 C   0  0  0  0  0  0  0  0  0  0  0  0
   36.6360   31.1210   39.8020 C   0  0  0  0  0  0  0  0  0  0  0  0
   37.0490   32.2830   40.5650 N   0  0  0  0  0  0  0  0  0  0  0  0
   38.0500   33.1580   40.0690 C   0  0  0  0  0  0  0  0  0  0  0  0
   38.7450   32.8820   39.0430 N   0  0  0  0  0  0  0  0  0  0  0  0
   38.2150   34.3670   40.8110 N   0  0  0  0  0  0  0  0  0  0  0  0
   39.4910   33.5000   38.6510 H   0  0  0  0  0  0  0  0  0  0  0  0
   35.2817   30.8954   41.3617 H   0  0  0  0  0  0  0  0  0  0  0  0
   39.5714   29.6185   43.3578 H   0  0  0  0  0  0  0  0  0  0  0  0
   38.8633   27.2830   43.9937 H   0  0  0  0  0  0  0  0  0  0  0  0
   36.6910   26.3604   43.0479 H   0  0  0  0  0  0  0  0  0  0  0  0
   34.3849   28.6888   40.7148 H   0  0  0  0  0  0  0  0  0  0  0  0
   34.2820   29.8672   39.3629 H   0  0  0  0  0  0  0  0  0  0  0  0
   35.5652   28.6102   39.3629 H   0  0  0  0  0  0  0  0  0  0  0  0
   35.9861   31.4289   38.9697 H   0  0  0  0  0  0  0  0  0  0  0  0
   37.5093   30.6025   39.3795 H   0  0  0  0  0  0  0  0  0  0  0  0
   36.6109   32.4754   41.4771 H   0  0  0  0  0  0  0  0  0  0  0  0
   38.9206   35.0582   40.5190 H   0  0  0  0  0  0  0  0  0  0  0  0
   37.6284   34.5477   41.6381 H   0  0  0  0  0  0  0  0  0  0  0  0
  1  6  1  0
  2  3  2  0
  4  3  1  0
  5  4  2  0
  6  5  1  0
  6  7  2  0
  7  2  1  0
  8  1  1  0
  9 10  1  0
  9  1  1  0
 11 10  1  0
 11 13  1  0
 12 11  2  0
 14 12  1  0
  1 15  1  1
  2 16  1  0
  3 17  1  0
  4 18  1  0
  8 19  1  0
  8 20  1  0
  8 21  1  0
  9 22  1  0
  9 23  1  0
 10 24  1  0
 13 25  1  0
 13 26  1  0
M  ISO  8  15   8  16  14  17  14  18  14  19   8  20   8  21   8  22   8
M  ISO  1  23   8
M  END
>  <minimizedAffinity>  (1) 
-4.6885581

>  <minimizedRMSD>  (1) 
0.752753437

$$$$
