
     RDKit          3D

 32 33  0  0  1  0  0  0  0  0999 V2000
   36.7220   27.4380   42.6870 C   0  0  2  0  0  0  0  0  0  0  0  0
   35.4490   29.8040   40.1590 C   0  0  0  0  0  0  0  0  0  0  0  0
   36.3480   30.8930   40.3050 C   0  0  0  0  0  0  0  0  0  0  0  0
   37.3650   30.7840   41.2580 C   0  0  0  0  0  0  0  0  0  0  0  0
   37.4300   29.6320   41.9910 N   0  0  0  0  0  0  0  0  0  0  0  0
   36.5400   28.6080   41.8150 C   0  0  0  0  0  0  0  0  0  0  0  0
   35.5670   28.6930   40.9150 N   0  0  0  0  0  0  0  0  0  0  0  0
   37.1570   27.8850   44.0580 C   0  0  0  0  0  0  0  0  0  0  0  0
   37.6770   26.4170   42.1140 C   0  0  0  0  0  0  0  0  0  0  0  0
   37.2530   25.0030   42.3380 C   0  0  0  0  0  0  0  0  0  0  0  0
   36.5060   24.3670   41.2160 C   0  0  0  0  0  0  0  0  0  0  0  0
   37.4020   23.3510   40.5540 C   0  0  0  0  0  0  0  0  0  0  0  0
   38.7890   23.7540   40.9990 C   0  0  0  0  0  0  0  0  0  0  0  0
   38.5310   24.1750   42.4360 C   0  0  0  0  0  0  0  0  0  0  0  0
   35.7494   26.9296   42.7627 H   0  0  0  0  0  0  0  0  0  0  0  0
   34.6409   29.8673   39.4154 H   0  0  0  0  0  0  0  0  0  0  0  0
   36.2472   31.7967   39.6860 H   0  0  0  0  0  0  0  0  0  0  0  0
   38.0886   31.5979   41.4128 H   0  0  0  0  0  0  0  0  0  0  0  0
   36.6045   27.3173   44.8212 H   0  0  0  0  0  0  0  0  0  0  0  0
   38.2357   27.7057   44.1770 H   0  0  0  0  0  0  0  0  0  0  0  0
   36.9484   28.9585   44.1770 H   0  0  0  0  0  0  0  0  0  0  0  0
   38.6617   26.5621   42.5822 H   0  0  0  0  0  0  0  0  0  0  0  0
   37.7007   26.5758   41.0258 H   0  0  0  0  0  0  0  0  0  0  0  0
   36.5990   25.0265   43.2222 H   0  0  0  0  0  0  0  0  0  0  0  0
   35.6060   23.8688   41.6057 H   0  0  0  0  0  0  0  0  0  0  0  0
   36.2030   25.1320   40.4860 H   0  0  0  0  0  0  0  0  0  0  0  0
   37.3110   23.4019   39.4590 H   0  0  0  0  0  0  0  0  0  0  0  0
   37.1496   22.3162   40.8288 H   0  0  0  0  0  0  0  0  0  0  0  0
   39.4901   22.9080   40.9471 H   0  0  0  0  0  0  0  0  0  0  0  0
   39.2521   24.5345   40.3775 H   0  0  0  0  0  0  0  0  0  0  0  0
   39.3634   24.7803   42.8243 H   0  0  0  0  0  0  0  0  0  0  0  0
   38.4379   23.3213   43.1234 H   0  0  0  0  0  0  0  0  0  0  0  0
  1  8  1  0
  2  3  2  0
  2  7  1  0
  3  4  1  0
  4  5  2  0
  6  5  1  0
  6  1  1  0
  7  6  2  0
  9 10  1  0
  9  1  1  0
 10 14  1  0
 11 10  1  0
 12 13  1  0
 12 11  1  0
 13 14  1  0
  1 15  1  1
  2 16  1  0
  3 17  1  0
  4 18  1  0
  8 19  1  0
  8 20  1  0
  8 21  1  0
  9 22  1  0
  9 23  1  0
 10 24  1  0
 11 25  1  0
 11 26  1  0
 12 27  1  0
 12 28  1  0
 13 29  1  0
 13 30  1  0
 14 31  1  0
 14 32  1  0
M  ISO  8  15   8  16  14  17  14  18  14  19   8  20   8  21   8  22   8
M  ISO  8  23   8  24  13  25  13  26  13  27  13  28  13  29  13  30  13
M  ISO  2  31  13  32  13
M  END
>  <minimizedAffinity>  (1) 
-4.62695885

>  <minimizedRMSD>  (1) 
5.79655075

$$$$
