
     RDKit          3D

 32 33  0  0  1  0  0  0  0  0999 V2000
   36.1770   30.1680   40.8130 C   0  0  2  0  0  0  0  0  0  0  0  0
   38.4760   28.7840   43.3320 C   0  0  0  0  0  0  0  0  0  0  0  0
   38.0620   27.4240   43.3920 C   0  0  0  0  0  0  0  0  0  0  0  0
   36.9910   27.0080   42.5590 C   0  0  0  0  0  0  0  0  0  0  0  0
   36.4370   27.9540   41.7550 N   0  0  0  0  0  0  0  0  0  0  0  0
   36.8650   29.2340   41.7330 C   0  0  0  0  0  0  0  0  0  0  0  0
   37.8700   29.6510   42.5070 N   0  0  0  0  0  0  0  0  0  0  0  0
   35.0380   29.4530   40.1550 C   0  0  0  0  0  0  0  0  0  0  0  0
   37.0750   30.8110   39.7890 C   0  0  0  0  0  0  0  0  0  0  0  0
   37.8020   31.9320   40.2920 N   0  0  0  0  0  0  0  0  0  0  0  0
   39.1920   31.7570   39.8610 C   0  0  0  0  0  0  0  0  0  0  0  0
   40.0090   32.8550   40.4680 C   0  0  0  0  0  0  0  0  0  0  0  0
   39.6000   34.0670   39.9300 O   0  0  0  0  0  0  0  0  0  0  0  0
   38.2510   34.2960   40.0680 C   0  0  0  0  0  0  0  0  0  0  0  0
   37.3790   33.1500   39.5990 C   0  0  0  0  0  0  0  0  0  0  0  0
   35.8084   31.0048   41.4245 H   0  0  0  0  0  0  0  0  0  0  0  0
   39.3032   29.1287   43.9700 H   0  0  0  0  0  0  0  0  0  0  0  0
   38.5598   26.7126   44.0674 H   0  0  0  0  0  0  0  0  0  0  0  0
   36.6267   25.9701   42.5636 H   0  0  0  0  0  0  0  0  0  0  0  0
   34.3730   29.0356   40.9254 H   0  0  0  0  0  0  0  0  0  0  0  0
   34.4746   30.1597   39.5281 H   0  0  0  0  0  0  0  0  0  0  0  0
   35.4296   28.6384   39.5281 H   0  0  0  0  0  0  0  0  0  0  0  0
   36.4551   31.1484   38.9453 H   0  0  0  0  0  0  0  0  0  0  0  0
   37.8148   30.0548   39.4874 H   0  0  0  0  0  0  0  0  0  0  0  0
   39.5678   30.7808   40.2014 H   0  0  0  0  0  0  0  0  0  0  0  0
   39.2583   31.7947   38.7636 H   0  0  0  0  0  0  0  0  0  0  0  0
   39.8618   32.8660   41.5580 H   0  0  0  0  0  0  0  0  0  0  0  0
   41.0749   32.6909   40.2516 H   0  0  0  0  0  0  0  0  0  0  0  0
   38.0386   34.4791   41.1316 H   0  0  0  0  0  0  0  0  0  0  0  0
   38.0089   35.1602   39.4320 H   0  0  0  0  0  0  0  0  0  0  0  0
   36.3260   33.3643   39.8343 H   0  0  0  0  0  0  0  0  0  0  0  0
   37.4799   33.0197   38.5114 H   0  0  0  0  0  0  0  0  0  0  0  0
  1  6  1  0
  2  3  2  0
  4  3  1  0
  5  4  2  0
  6  5  1  0
  6  7  2  0
  7  2  1  0
  8  1  1  0
  9 10  1  0
  9  1  1  0
 11 10  1  0
 11 12  1  0
 13 14  1  0
 13 12  1  0
 15 14  1  0
 15 10  1  0
  1 16  1  1
  2 17  1  0
  3 18  1  0
  4 19  1  0
  8 20  1  0
  8 21  1  0
  8 22  1  0
  9 23  1  0
  9 24  1  0
 11 25  1  0
 11 26  1  0
 12 27  1  0
 12 28  1  0
 14 29  1  0
 14 30  1  0
 15 31  1  0
 15 32  1  0
M  ISO  8  16   8  17  14  18  14  19  14  20   8  21   8  22   8  23   8
M  ISO  8  24   8  25  13  26  13  27  13  28  13  29  13  30  13  31  13
M  ISO  1  32  13
M  END
>  <minimizedAffinity>  (1) 
-4.34440422

>  <minimizedRMSD>  (1) 
0.511626184

$$$$
