
     RDKit          3D

 43 47  0  0  1  0  0  0  0  0999 V2000
   38.0800   30.4330   39.6010 C   0  0  1  0  0  0  0  0  0  0  0  0
   37.5320   30.5150   38.1540 C   0  0  0  0  0  0  0  0  0  0  0  0
   36.1020   30.0490   38.3720 C   0  0  0  0  0  0  0  0  0  0  0  0
   36.1010   29.2330   39.6530 C   0  0  0  0  0  0  0  0  0  0  0  0
   37.5890   29.0550   39.9890 C   0  0  2  0  0  0  0  0  0  0  0  0
   40.8030   35.1330   39.7500 C   0  0  0  0  0  0  0  0  0  0  0  0
   39.5320   35.6490   40.0690 C   0  0  0  0  0  0  0  0  0  0  0  0
   38.5070   34.7390   40.2790 C   0  0  0  0  0  0  0  0  0  0  0  0
   38.7950   33.4160   40.1610 N   0  0  0  0  0  0  0  0  0  0  0  0
   39.9890   32.9360   39.8600 C   0  0  0  0  0  0  0  0  0  0  0  0
   41.0010   33.8090   39.6540 N   0  0  0  0  0  0  0  0  0  0  0  0
   40.3250   31.5620   39.7160 N   0  0  0  0  0  0  0  0  0  0  0  0
   41.6170   31.2580   39.6840 N   0  0  0  0  0  0  0  0  0  0  0  0
   41.7380   29.9040   39.5220 C   0  0  0  0  0  0  0  0  0  0  0  0
   40.4330   29.4290   39.4600 C   0  0  0  0  0  0  0  0  0  0  0  0
   39.5450   30.4970   39.5860 C   0  0  0  0  0  0  0  0  0  0  0  0
   37.6670   28.7710   41.3890 N   0  0  0  0  0  0  0  0  0  0  0  0
   37.5890   29.6030   42.4230 N   0  0  0  0  0  0  0  0  0  0  0  0
   37.7060   28.9630   43.5900 C   0  0  0  0  0  0  0  0  0  0  0  0
   37.8680   27.6390   43.2530 C   0  0  0  0  0  0  0  0  0  0  0  0
   37.8420   27.5200   41.8560 C   0  0  0  0  0  0  0  0  0  0  0  0
   37.9910   26.1480   41.3810 C   0  0  0  0  0  0  0  0  0  0  0  0
   37.1690   25.1040   41.9440 C   0  0  0  0  0  0  0  0  0  0  0  0
   37.7380   23.5940   41.1010 S   0  0  0  0  0  0  0  0  0  0  0  0
   39.0130   24.5910   40.1040 C   0  0  0  0  0  0  0  0  0  0  0  0
   38.8250   25.6630   40.4990 N   0  0  0  0  0  0  0  0  0  0  0  0
   37.7628   31.2375   40.2808 H   0  0  0  0  0  0  0  0  0  0  0  0
   38.0784   29.8445   37.4743 H   0  0  0  0  0  0  0  0  0  0  0  0
   37.6246   31.5054   37.6844 H   0  0  0  0  0  0  0  0  0  0  0  0
   35.4320   30.9154   38.4736 H   0  0  0  0  0  0  0  0  0  0  0  0
   35.7461   29.4504   37.5205 H   0  0  0  0  0  0  0  0  0  0  0  0
   35.5812   29.7724   40.4585 H   0  0  0  0  0  0  0  0  0  0  0  0
   35.5773   28.2723   39.5396 H   0  0  0  0  0  0  0  0  0  0  0  0
   38.1610   28.2522   39.5008 H   0  0  0  0  0  0  0  0  0  0  0  0
   41.6425   35.8226   39.5777 H   0  0  0  0  0  0  0  0  0  0  0  0
   39.3590   36.7324   40.1485 H   0  0  0  0  0  0  0  0  0  0  0  0
   37.4918   35.0776   40.5333 H   0  0  0  0  0  0  0  0  0  0  0  0
   42.6669   29.3186   39.4553 H   0  0  0  0  0  0  0  0  0  0  0  0
   40.1456   28.3750   39.3316 H   0  0  0  0  0  0  0  0  0  0  0  0
   37.6788   29.3993   44.5994 H   0  0  0  0  0  0  0  0  0  0  0  0
   37.9969   26.8092   43.9635 H   0  0  0  0  0  0  0  0  0  0  0  0
   36.3812   25.1986   42.7059 H   0  0  0  0  0  0  0  0  0  0  0  0
   39.7365   24.2424   39.3523 H   0  0  0  0  0  0  0  0  0  0  0  0
  1  5  1  0
  2  3  1  0
  2  1  1  0
  3  4  1  0
  4  5  1  0
  5 17  1  0
  6  7  2  0
  7  8  1  0
  9  8  2  0
 10  9  1  0
 11  6  1  0
 11 10  2  0
 12 10  1  0
 13 12  1  0
 14 13  2  0
 15 14  1  0
 15 16  2  0
 16  1  1  0
 16 12  1  0
 17 21  1  0
 17 18  1  0
 18 19  2  0
 20 19  1  0
 21 20  2  0
 22 21  1  0
 22 23  2  0
 24 23  1  0
 25 26  2  0
 25 24  1  0
 26 22  1  0
  1 27  1  1
  2 28  1  0
  2 29  1  0
  3 30  1  0
  3 31  1  0
  4 32  1  0
  4 33  1  0
  5 34  1  6
  6 35  1  0
  7 36  1  0
  8 37  1  0
 14 38  1  0
 15 39  1  0
 19 40  1  0
 20 41  1  0
 23 42  1  0
 25 43  1  0
M  ISO  8  27  13  28  13  29  13  30  13  31  13  32  13  33  13  34  13
M  ISO  8  35  14  36  14  37  14  38  14  39  14  40  14  41  14  42  14
M  ISO  1  43  14
M  END
>  <minimizedAffinity>  (1) 
-6.13502264

>  <minimizedRMSD>  (1) 
0.792584836

$$$$
