
     RDKit          3D

 33 34  0  0  1  0  0  0  0  0999 V2000
   39.2990   32.4370   39.2360 C   0  0  0  0  0  0  0  0  0  0  0  0
   39.7880   33.7620   39.5390 N   0  0  0  0  0  0  0  0  0  0  0  0
   39.2120   34.8250   40.0200 N   0  0  0  0  0  0  0  0  0  0  0  0
   40.0290   35.8670   40.1610 C   0  0  0  0  0  0  0  0  0  0  0  0
   41.2740   35.4830   39.7380 C   0  0  0  0  0  0  0  0  0  0  0  0
   41.0710   34.1620   39.3600 C   0  0  0  0  0  0  0  0  0  0  0  0
   42.1170   33.3260   38.8350 N   0  0  0  0  0  0  0  0  0  0  0  0
   42.5440   33.3480   37.4700 C   0  0  0  0  0  0  0  0  0  0  0  0
   42.5200   34.5340   36.9080 N   0  0  0  0  0  0  0  0  0  0  0  0
   42.9540   32.1560   36.8130 N   0  0  0  0  0  0  0  0  0  0  0  0
   42.8260   34.5750   35.9180 H   0  0  0  0  0  0  0  0  0  0  0  0
   38.0260   32.1020   39.9990 C   0  0  2  0  0  0  0  0  0  0  0  0
   39.4980   30.1420   42.7460 C   0  0  0  0  0  0  0  0  0  0  0  0
   38.4210   29.2510   43.0800 C   0  0  0  0  0  0  0  0  0  0  0  0
   37.2190   29.3540   42.3490 C   0  0  0  0  0  0  0  0  0  0  0  0
   37.1730   30.3000   41.3720 N   0  0  0  0  0  0  0  0  0  0  0  0
   38.2260   31.1270   41.0900 C   0  0  0  0  0  0  0  0  0  0  0  0
   39.3730   31.0630   41.7540 N   0  0  0  0  0  0  0  0  0  0  0  0
   36.9580   31.6090   39.0850 C   0  0  0  0  0  0  0  0  0  0  0  0
   39.0916   32.3747   38.1575 H   0  0  0  0  0  0  0  0  0  0  0  0
   40.0723   31.7158   39.5391 H   0  0  0  0  0  0  0  0  0  0  0  0
   39.7533   36.8591   40.5481 H   0  0  0  0  0  0  0  0  0  0  0  0
   42.2019   36.0729   39.7058 H   0  0  0  0  0  0  0  0  0  0  0  0
   42.5859   32.6735   39.4794 H   0  0  0  0  0  0  0  0  0  0  0  0
   43.2587   32.1887   35.8297 H   0  0  0  0  0  0  0  0  0  0  0  0
   42.9463   31.2596   37.3203 H   0  0  0  0  0  0  0  0  0  0  0  0
   37.7124   33.0495   40.4614 H   0  0  0  0  0  0  0  0  0  0  0  0
   40.4433   30.0774   43.3048 H   0  0  0  0  0  0  0  0  0  0  0  0
   38.5310   28.5086   43.8842 H   0  0  0  0  0  0  0  0  0  0  0  0
   36.3594   28.7004   42.5588 H   0  0  0  0  0  0  0  0  0  0  0  0
   36.1174   31.2210   39.6790 H   0  0  0  0  0  0  0  0  0  0  0  0
   36.6076   32.4365   38.4506 H   0  0  0  0  0  0  0  0  0  0  0  0
   37.3604   30.8055   38.4506 H   0  0  0  0  0  0  0  0  0  0  0  0
  1  2  1  0
  1 12  1  0
  2  3  1  0
  3  4  2  0
  5  4  1  0
  6  2  1  0
  6  5  2  0
  7  6  1  0
  8  7  1  0
  9  8  2  0
 10  8  1  0
 11  9  1  0
 12 17  1  0
 13 14  2  0
 15 14  1  0
 16 15  2  0
 17 16  1  0
 17 18  2  0
 18 13  1  0
 19 12  1  0
  1 20  1  0
  1 21  1  0
  4 22  1  0
  5 23  1  0
  7 24  1  0
 10 25  1  0
 10 26  1  0
 12 27  1  1
 13 28  1  0
 14 29  1  0
 15 30  1  0
 19 31  1  0
 19 32  1  0
 19 33  1  0
M  ISO  8  20   8  21   8  22  14  23  14  27   8  28  14  29  14  30  14
M  ISO  3  31   8  32   8  33   8
M  END
>  <minimizedAffinity>  (1) 
-5.35503435

>  <minimizedRMSD>  (1) 
4.0211525

$$$$
