
     RDKit          3D

 40 43  0  0  1  0  0  0  0  0999 V2000
   37.7930   30.0470   39.6240 C   0  0  1  0  0  0  0  0  0  0  0  0
   37.2430   30.1260   38.1760 C   0  0  0  0  0  0  0  0  0  0  0  0
   35.7890   29.7310   38.4270 C   0  0  0  0  0  0  0  0  0  0  0  0
   35.7640   28.9440   39.7070 C   0  0  0  0  0  0  0  0  0  0  0  0
   37.2280   28.7480   40.0630 C   0  0  2  0  0  0  0  0  0  0  0  0
   40.6930   34.6560   39.7930 C   0  0  0  0  0  0  0  0  0  0  0  0
   39.4400   35.2200   40.1220 C   0  0  0  0  0  0  0  0  0  0  0  0
   38.3860   34.3490   40.3260 C   0  0  0  0  0  0  0  0  0  0  0  0
   38.6210   33.0180   40.1980 N   0  0  0  0  0  0  0  0  0  0  0  0
   39.7890   32.4900   39.8920 C   0  0  0  0  0  0  0  0  0  0  0  0
   40.8390   33.3260   39.6860 N   0  0  0  0  0  0  0  0  0  0  0  0
   40.0770   31.1080   39.7410 N   0  0  0  0  0  0  0  0  0  0  0  0
   41.3570   30.7640   39.7070 N   0  0  0  0  0  0  0  0  0  0  0  0
   41.4240   29.3970   39.5420 C   0  0  0  0  0  0  0  0  0  0  0  0
   40.0980   28.9610   39.4820 C   0  0  0  0  0  0  0  0  0  0  0  0
   39.2600   30.0730   39.6120 C   0  0  0  0  0  0  0  0  0  0  0  0
   37.3060   28.4850   41.4720 N   0  0  0  0  0  0  0  0  0  0  0  0
   37.3640   29.3410   42.4670 N   0  0  0  0  0  0  0  0  0  0  0  0
   37.4310   28.7360   43.6620 C   0  0  0  0  0  0  0  0  0  0  0  0
   37.4120   27.3860   43.3720 C   0  0  0  0  0  0  0  0  0  0  0  0
   37.3330   27.2310   41.9930 C   0  0  0  0  0  0  0  0  0  0  0  0
   37.2960   25.8940   41.3960 C   0  0  0  0  0  0  0  0  0  0  0  0
   36.9560   24.9330   42.3610 F   0  0  0  0  0  0  0  0  0  0  0  0
   36.3680   25.7250   40.3970 F   0  0  0  0  0  0  0  0  0  0  0  0
   38.5850   25.5130   40.9970 F   0  0  0  0  0  0  0  0  0  0  0  0
   37.5206   30.8792   40.2897 H   0  0  0  0  0  0  0  0  0  0  0  0
   37.7500   29.4154   37.5067 H   0  0  0  0  0  0  0  0  0  0  0  0
   37.3816   31.0972   37.6785 H   0  0  0  0  0  0  0  0  0  0  0  0
   35.1641   30.6310   38.5243 H   0  0  0  0  0  0  0  0  0  0  0  0
   35.3935   29.1352   37.5912 H   0  0  0  0  0  0  0  0  0  0  0  0
   35.2434   29.5043   40.4976 H   0  0  0  0  0  0  0  0  0  0  0  0
   35.2285   27.9891   39.6000 H   0  0  0  0  0  0  0  0  0  0  0  0
   37.7680   27.9080   39.6017 H   0  0  0  0  0  0  0  0  0  0  0  0
   41.5580   35.3138   39.6227 H   0  0  0  0  0  0  0  0  0  0  0  0
   39.3084   36.3084   40.2122 H   0  0  0  0  0  0  0  0  0  0  0  0
   37.3848   34.7239   40.5848 H   0  0  0  0  0  0  0  0  0  0  0  0
   42.3313   28.7790   39.4722 H   0  0  0  0  0  0  0  0  0  0  0  0
   39.7688   27.9192   39.3541 H   0  0  0  0  0  0  0  0  0  0  0  0
   37.4884   29.2099   44.6530 H   0  0  0  0  0  0  0  0  0  0  0  0
   37.4526   26.5702   44.1087 H   0  0  0  0  0  0  0  0  0  0  0  0
  1  5  1  0
  2  3  1  0
  2  1  1  0
  3  4  1  0
  4  5  1  0
  5 17  1  0
  6  7  2  0
  7  8  1  0
  9  8  2  0
 10  9  1  0
 11  6  1  0
 11 10  2  0
 12 10  1  0
 13 12  1  0
 14 13  2  0
 15 14  1  0
 15 16  2  0
 16  1  1  0
 16 12  1  0
 17 21  1  0
 17 18  1  0
 18 19  2  0
 20 19  1  0
 21 20  2  0
 22 21  1  0
 22 23  1  0
 24 22  1  0
 25 22  1  0
  1 26  1  1
  2 27  1  0
  2 28  1  0
  3 29  1  0
  3 30  1  0
  4 31  1  0
  4 32  1  0
  5 33  1  6
  6 34  1  0
  7 35  1  0
  8 36  1  0
 14 37  1  0
 15 38  1  0
 19 39  1  0
 20 40  1  0
M  ISO  8  26  13  27  13  28  13  29  13  30  13  31  13  32  13  33  13
M  ISO  7  34  14  35  14  36  14  37  14  38  14  39  14  40  14
M  END
>  <minimizedAffinity>  (1) 
-6.01426077

>  <minimizedRMSD>  (1) 
1.3227762

$$$$
