
     RDKit          3D

 44 47  0  0  1  0  0  0  0  0999 V2000
   38.5810   29.8700   39.2410 N   0  0  0  0  0  0  0  0  0  0  0  0
   39.6630   29.5080   39.8810 N   0  0  0  0  0  0  0  0  0  0  0  0
   40.6440   30.4130   39.8200 C   0  0  0  0  0  0  0  0  0  0  0  0
   40.1850   31.4660   39.0800 C   0  0  0  0  0  0  0  0  0  0  0  0
   38.8930   31.0740   38.7450 C   0  0  0  0  0  0  0  0  0  0  0  0
   40.8760   32.6990   38.7220 C   0  0  0  0  0  0  0  0  0  0  0  0
   41.8080   32.6660   37.7540 N   0  0  0  0  0  0  0  0  0  0  0  0
   42.4700   33.7740   37.3910 C   0  0  0  0  0  0  0  0  0  0  0  0
   42.2280   34.9770   37.9850 N   0  0  0  0  0  0  0  0  0  0  0  0
   41.2950   35.0760   38.9700 C   0  0  0  0  0  0  0  0  0  0  0  0
   41.0190   36.2750   39.5960 C   0  0  0  0  0  0  0  0  0  0  0  0
   40.0750   36.3750   40.5960 C   0  0  0  0  0  0  0  0  0  0  0  0
   39.4140   35.2120   40.9390 C   0  0  0  0  0  0  0  0  0  0  0  0
   39.6830   33.9970   40.3180 C   0  0  0  0  0  0  0  0  0  0  0  0
   40.6370   33.9160   39.3160 C   0  0  0  0  0  0  0  0  0  0  0  0
   38.0440   31.9260   37.9440 C   0  0  0  0  0  0  0  0  0  0  0  0
   37.1150   32.6700   38.3760 O   0  0  0  0  0  0  0  0  0  0  0  0
   38.1190   32.0620   36.5180 N   0  0  0  0  0  0  0  0  0  0  0  0
   37.3220   29.1700   39.0800 C   0  0  0  0  0  0  0  0  0  0  0  0
   36.3360   29.4650   40.2320 C   0  0  2  0  0  0  0  0  0  0  0  0
   37.6790   28.9370   43.6080 C   0  0  0  0  0  0  0  0  0  0  0  0
   37.5210   27.5160   43.7660 C   0  0  0  0  0  0  0  0  0  0  0  0
   36.9590   26.7870   42.7090 C   0  0  0  0  0  0  0  0  0  0  0  0
   36.6000   27.4980   41.5930 N   0  0  0  0  0  0  0  0  0  0  0  0
   36.7760   28.8540   41.5030 C   0  0  0  0  0  0  0  0  0  0  0  0
   37.3020   29.5800   42.4740 N   0  0  0  0  0  0  0  0  0  0  0  0
   34.9660   29.0770   39.9110 C   0  0  0  0  0  0  0  0  0  0  0  0
   41.6389   30.3263   40.2811 H   0  0  0  0  0  0  0  0  0  0  0  0
   43.2265   33.7109   36.5949 H   0  0  0  0  0  0  0  0  0  0  0  0
   41.5682   37.1770   39.2880 H   0  0  0  0  0  0  0  0  0  0  0  0
   39.8596   37.3315   41.0947 H   0  0  0  0  0  0  0  0  0  0  0  0
   38.6497   35.2478   41.7293 H   0  0  0  0  0  0  0  0  0  0  0  0
   39.1347   33.0939   40.6243 H   0  0  0  0  0  0  0  0  0  0  0  0
   38.8213   31.5285   35.9860 H   0  0  0  0  0  0  0  0  0  0  0  0
   37.4705   32.6932   36.0260 H   0  0  0  0  0  0  0  0  0  0  0  0
   36.8617   29.4834   38.1314 H   0  0  0  0  0  0  0  0  0  0  0  0
   37.5338   28.0906   39.0863 H   0  0  0  0  0  0  0  0  0  0  0  0
   36.3391   30.5570   40.3641 H   0  0  0  0  0  0  0  0  0  0  0  0
   38.1185   29.5198   44.4309 H   0  0  0  0  0  0  0  0  0  0  0  0
   37.8335   27.0139   44.6935 H   0  0  0  0  0  0  0  0  0  0  0  0
   36.8132   25.6985   42.7717 H   0  0  0  0  0  0  0  0  0  0  0  0
   34.4024   28.9174   40.8421 H   0  0  0  0  0  0  0  0  0  0  0  0
   34.4868   29.8748   39.3245 H   0  0  0  0  0  0  0  0  0  0  0  0
   34.9763   28.1464   39.3245 H   0  0  0  0  0  0  0  0  0  0  0  0
  1  2  1  0
  3  2  2  0
  4  3  1  0
  5  4  2  0
  5  1  1  0
  6  4  1  0
  6 15  1  0
  7  6  2  0
  8  7  1  0
  8  9  2  0
  9 10  1  0
 10 15  2  0
 10 11  1  0
 11 12  2  0
 12 13  1  0
 14 13  2  0
 15 14  1  0
 16 17  2  0
 16  5  1  0
 18 16  1  0
 19  1  1  0
 19 20  1  0
 20 25  1  0
 21 22  2  0
 23 22  1  0
 24 23  2  0
 25 24  1  0
 25 26  2  0
 26 21  1  0
 27 20  1  0
  3 28  1  0
  8 29  1  0
 11 30  1  0
 12 31  1  0
 13 32  1  0
 14 33  1  0
 18 34  1  0
 18 35  1  0
 19 36  1  0
 19 37  1  0
 20 38  1  1
 21 39  1  0
 22 40  1  0
 23 41  1  0
 27 42  1  0
 27 43  1  0
 27 44  1  0
M  ISO  8  28  14  29  14  30  14  31  14  32  14  33  14  36   8  37   8
M  ISO  7  38   8  39  14  40  14  41  14  42   8  43   8  44   8
M  END
>  <minimizedAffinity>  (1) 
-6.62075663

>  <minimizedRMSD>  (1) 
2.00686121

$$$$
