
     RDKit          3D

 44 47  0  0  1  0  0  0  0  0999 V2000
   37.3750   29.7520   39.5360 C   0  0  1  0  0  0  0  0  0  0  0  0
   36.6030   29.6860   38.1910 C   0  0  0  0  0  0  0  0  0  0  0  0
   35.1990   29.3530   38.7010 C   0  0  0  0  0  0  0  0  0  0  0  0
   35.3720   28.7270   40.0610 C   0  0  0  0  0  0  0  0  0  0  0  0
   36.8630   28.5290   40.2040 C   0  0  2  0  0  0  0  0  0  0  0  0
   40.4620   34.2350   39.5760 C   0  0  0  0  0  0  0  0  0  0  0  0
   39.3110   34.8040   40.1450 C   0  0  0  0  0  0  0  0  0  0  0  0
   38.2670   33.9590   40.4630 C   0  0  0  0  0  0  0  0  0  0  0  0
   38.4200   32.6330   40.2040 N   0  0  0  0  0  0  0  0  0  0  0  0
   39.4940   32.0990   39.6720 C   0  0  0  0  0  0  0  0  0  0  0  0
   40.5350   32.9110   39.3510 N   0  0  0  0  0  0  0  0  0  0  0  0
   39.6940   30.7240   39.3710 N   0  0  0  0  0  0  0  0  0  0  0  0
   40.9340   30.3320   39.1060 N   0  0  0  0  0  0  0  0  0  0  0  0
   40.9130   28.9960   38.8290 C   0  0  0  0  0  0  0  0  0  0  0  0
   39.5720   28.5990   38.9440 C   0  0  0  0  0  0  0  0  0  0  0  0
   38.8180   29.7280   39.2940 C   0  0  0  0  0  0  0  0  0  0  0  0
   37.1550   28.4430   41.6090 N   0  0  0  0  0  0  0  0  0  0  0  0
   37.3700   29.4160   42.4710 N   0  0  0  0  0  0  0  0  0  0  0  0
   37.6120   28.9310   43.7110 C   0  0  0  0  0  0  0  0  0  0  0  0
   37.5400   27.5510   43.5930 C   0  0  0  0  0  0  0  0  0  0  0  0
   37.2550   27.2530   42.2780 C   0  0  0  0  0  0  0  0  0  0  0  0
   37.1030   25.9240   41.7840 N   0  0  0  0  0  0  0  0  0  0  0  0
   38.2020   25.0130   41.5740 C   0  0  0  0  0  0  0  0  0  0  0  0
   39.2980   25.5940   41.1480 N   0  0  0  0  0  0  0  0  0  0  0  0
   38.0130   23.6200   41.8340 N   0  0  0  0  0  0  0  0  0  0  0  0
   40.1640   25.0250   40.9610 H   0  0  0  0  0  0  0  0  0  0  0  0
   37.2267   30.6620   40.1359 H   0  0  0  0  0  0  0  0  0  0  0  0
   36.9959   28.8960   37.5340 H   0  0  0  0  0  0  0  0  0  0  0  0
   36.6671   30.5964   37.5769 H   0  0  0  0  0  0  0  0  0  0  0  0
   34.5962   30.2698   38.7791 H   0  0  0  0  0  0  0  0  0  0  0  0
   34.6788   28.6701   38.0133 H   0  0  0  0  0  0  0  0  0  0  0  0
   34.9921   29.3959   40.8473 H   0  0  0  0  0  0  0  0  0  0  0  0
   34.8151   27.7835   40.1592 H   0  0  0  0  0  0  0  0  0  0  0  0
   37.3072   27.6230   39.7660 H   0  0  0  0  0  0  0  0  0  0  0  0
   41.3133   34.8794   39.3114 H   0  0  0  0  0  0  0  0  0  0  0  0
   39.2438   35.8861   40.3309 H   0  0  0  0  0  0  0  0  0  0  0  0
   37.3404   34.3461   40.9118 H   0  0  0  0  0  0  0  0  0  0  0  0
   41.7720   28.3600   38.5687 H   0  0  0  0  0  0  0  0  0  0  0  0
   39.1817   27.5826   38.7874 H   0  0  0  0  0  0  0  0  0  0  0  0
   37.8220   29.5103   44.6222 H   0  0  0  0  0  0  0  0  0  0  0  0
   37.6847   26.8233   44.4051 H   0  0  0  0  0  0  0  0  0  0  0  0
   36.1521   25.5948   41.5640 H   0  0  0  0  0  0  0  0  0  0  0  0
   38.7893   22.9589   41.6882 H   0  0  0  0  0  0  0  0  0  0  0  0
   37.1005   23.2774   42.1671 H   0  0  0  0  0  0  0  0  0  0  0  0
  1  5  1  0
  2  3  1  0
  2  1  1  0
  3  4  1  0
  4  5  1  0
  5 17  1  0
  6  7  2  0
  7  8  1  0
  9  8  2  0
 10  9  1  0
 11  6  1  0
 11 10  2  0
 12 10  1  0
 13 12  1  0
 14 15  1  0
 14 13  2  0
 15 16  2  0
 16 12  1  0
 16  1  1  0
 17 21  1  0
 17 18  1  0
 18 19  2  0
 20 19  1  0
 21 20  2  0
 22 21  1  0
 23 22  1  0
 23 25  1  0
 24 23  2  0
 26 24  1  0
  1 27  1  1
  2 28  1  0
  2 29  1  0
  3 30  1  0
  3 31  1  0
  4 32  1  0
  4 33  1  0
  5 34  1  6
  6 35  1  0
  7 36  1  0
  8 37  1  0
 14 38  1  0
 15 39  1  0
 19 40  1  0
 20 41  1  0
 22 42  1  0
 25 43  1  0
 25 44  1  0
M  ISO  8  27  13  28  13  29  13  30  13  31  13  32  13  33  13  34  13
M  ISO  7  35  14  36  14  37  14  38  14  39  14  40  14  41  14
M  END
>  <minimizedAffinity>  (1) 
-5.94580269

>  <minimizedRMSD>  (1) 
1.70509541

$$$$
