
     RDKit          3D

 43 45  0  0  1  0  0  0  0  0999 V2000
   38.8790   30.2390   39.1860 N   0  0  0  0  0  0  0  0  0  0  0  0
   40.1170   29.8020   39.2530 N   0  0  0  0  0  0  0  0  0  0  0  0
   40.9940   30.7090   39.6850 C   0  0  0  0  0  0  0  0  0  0  0  0
   40.3060   31.8600   39.9360 C   0  0  0  0  0  0  0  0  0  0  0  0
   38.9850   31.5110   39.6070 C   0  0  0  0  0  0  0  0  0  0  0  0
   40.7890   33.0910   40.4050 N   0  0  0  0  0  0  0  0  0  0  0  0
   40.0440   34.1320   39.9680 C   0  0  0  0  0  0  0  0  0  0  0  0
   40.3480   35.4440   40.3170 C   0  0  0  0  0  0  0  0  0  0  0  0
   39.5430   36.6060   39.8470 C   0  0  0  0  0  0  0  0  0  0  0  0
   41.4570   35.6170   41.1370 C   0  0  0  0  0  0  0  0  0  0  0  0
   41.7580   36.8000   41.4710 O   0  0  0  0  0  0  0  0  0  0  0  0
   42.1790   34.5510   41.5560 N   0  0  0  0  0  0  0  0  0  0  0  0
   41.8470   33.2850   41.1920 C   0  0  0  0  0  0  0  0  0  0  0  0
   42.4860   32.2760   41.5570 O   0  0  0  0  0  0  0  0  0  0  0  0
   37.9190   32.4690   39.7340 C   0  0  0  0  0  0  0  0  0  0  0  0
   37.3700   32.8180   40.8180 O   0  0  0  0  0  0  0  0  0  0  0  0
   37.3180   33.1730   38.6540 N   0  0  0  0  0  0  0  0  0  0  0  0
   37.6690   29.5660   38.7720 C   0  0  0  0  0  0  0  0  0  0  0  0
   36.5700   29.6230   39.8620 C   0  0  2  0  0  0  0  0  0  0  0  0
   37.6480   28.8480   43.2860 C   0  0  0  0  0  0  0  0  0  0  0  0
   37.7100   27.4130   43.2430 C   0  0  0  0  0  0  0  0  0  0  0  0
   37.3850   26.7600   42.0550 C   0  0  0  0  0  0  0  0  0  0  0  0
   37.0210   27.5500   40.9930 N   0  0  0  0  0  0  0  0  0  0  0  0
   36.9820   28.9200   41.1020 C   0  0  0  0  0  0  0  0  0  0  0  0
   37.2800   29.5800   42.1990 N   0  0  0  0  0  0  0  0  0  0  0  0
   35.2850   29.1340   39.3740 C   0  0  0  0  0  0  0  0  0  0  0  0
   42.0756   30.5567   39.8153 H   0  0  0  0  0  0  0  0  0  0  0  0
   39.1764   33.9364   39.3207 H   0  0  0  0  0  0  0  0  0  0  0  0
   39.1585   37.1610   40.7154 H   0  0  0  0  0  0  0  0  0  0  0  0
   40.1763   37.2690   39.2393 H   0  0  0  0  0  0  0  0  0  0  0  0
   38.6997   36.2461   39.2393 H   0  0  0  0  0  0  0  0  0  0  0  0
   42.9969   34.7031   42.1633 H   0  0  0  0  0  0  0  0  0  0  0  0
   36.5575   33.8434   38.8359 H   0  0  0  0  0  0  0  0  0  0  0  0
   37.6433   33.0124   37.6900 H   0  0  0  0  0  0  0  0  0  0  0  0
   37.2891   30.0484   37.8593 H   0  0  0  0  0  0  0  0  0  0  0  0
   37.9135   28.5088   38.5917 H   0  0  0  0  0  0  0  0  0  0  0  0
   36.4364   30.6848   40.1162 H   0  0  0  0  0  0  0  0  0  0  0  0
   37.9044   29.3680   44.2208 H   0  0  0  0  0  0  0  0  0  0  0  0
   38.0089   26.8393   44.1327 H   0  0  0  0  0  0  0  0  0  0  0  0
   37.4186   25.6636   41.9725 H   0  0  0  0  0  0  0  0  0  0  0  0
   34.6378   28.8877   40.2287 H   0  0  0  0  0  0  0  0  0  0  0  0
   34.8047   29.9122   38.7627 H   0  0  0  0  0  0  0  0  0  0  0  0
   35.4436   28.2334   38.7627 H   0  0  0  0  0  0  0  0  0  0  0  0
  1  2  1  0
  1  5  1  0
  2  3  2  0
  3  4  1  0
  4  6  1  0
  5 15  1  0
  5  4  2  0
  6 13  1  0
  7  8  2  0
  7  6  1  0
  8 10  1  0
  9  8  1  0
 10 11  2  0
 10 12  1  0
 13 12  1  0
 13 14  2  0
 15 16  2  0
 17 15  1  0
 18  1  1  0
 18 19  1  0
 19 24  1  0
 21 20  2  0
 22 21  1  0
 23 24  1  0
 23 22  2  0
 24 25  2  0
 25 20  1  0
 26 19  1  0
  3 27  1  0
  7 28  1  0
  9 29  1  0
  9 30  1  0
  9 31  1  0
 12 32  1  0
 17 33  1  0
 17 34  1  0
 18 35  1  0
 18 36  1  0
 19 37  1  1
 20 38  1  0
 21 39  1  0
 22 40  1  0
 26 41  1  0
 26 42  1  0
 26 43  1  0
M  ISO  8  27  14  28  14  29   8  30   8  31   8  32   9  35   8  36   8
M  ISO  7  37   8  38  14  39  14  40  14  41   8  42   8  43   8
M  END
>  <minimizedAffinity>  (1) 
-5.84028721

>  <minimizedRMSD>  (1) 
1.19585264

$$$$
