
     RDKit          3D

 40 42  0  0  1  0  0  0  0  0999 V2000
   38.1490   30.3610   39.4920 N   0  0  0  0  0  0  0  0  0  0  0  0
   39.1260   29.5020   39.3130 N   0  0  0  0  0  0  0  0  0  0  0  0
   40.3210   29.9530   39.6960 C   0  0  0  0  0  0  0  0  0  0  0  0
   40.1480   31.2160   40.1750 C   0  0  0  0  0  0  0  0  0  0  0  0
   38.7680   31.4250   40.0240 C   0  0  0  0  0  0  0  0  0  0  0  0
   41.1080   32.1150   40.6980 N   0  0  0  0  0  0  0  0  0  0  0  0
   41.5090   32.9880   39.7360 C   0  0  0  0  0  0  0  0  0  0  0  0
   42.4570   33.9800   40.0030 C   0  0  0  0  0  0  0  0  0  0  0  0
   42.9670   34.0340   41.2840 C   0  0  0  0  0  0  0  0  0  0  0  0
   43.8230   34.9120   41.5660 O   0  0  0  0  0  0  0  0  0  0  0  0
   42.5400   33.1530   42.1900 N   0  0  0  0  0  0  0  0  0  0  0  0
   41.6270   32.2020   41.9220 C   0  0  0  0  0  0  0  0  0  0  0  0
   41.1790   31.3430   42.7190 O   0  0  0  0  0  0  0  0  0  0  0  0
   38.1620   32.6680   40.4210 C   0  0  0  0  0  0  0  0  0  0  0  0
   38.5630   33.4170   41.3560 O   0  0  0  0  0  0  0  0  0  0  0  0
   37.0100   33.2480   39.8150 N   0  0  0  0  0  0  0  0  0  0  0  0
   36.7340   30.2390   39.2010 C   0  0  0  0  0  0  0  0  0  0  0  0
   35.9130   29.8750   40.4640 C   0  0  2  0  0  0  0  0  0  0  0  0
   37.9760   28.6920   43.2610 C   0  0  0  0  0  0  0  0  0  0  0  0
   38.0460   27.2740   42.9820 C   0  0  0  0  0  0  0  0  0  0  0  0
   37.3870   26.7850   41.8550 C   0  0  0  0  0  0  0  0  0  0  0  0
   36.7120   27.6990   41.0830 N   0  0  0  0  0  0  0  0  0  0  0  0
   36.6820   29.0300   41.3980 C   0  0  0  0  0  0  0  0  0  0  0  0
   37.2890   29.5420   42.4550 N   0  0  0  0  0  0  0  0  0  0  0  0
   34.6330   29.2610   40.1270 C   0  0  0  0  0  0  0  0  0  0  0  0
   41.2728   29.4049   39.6360 H   0  0  0  0  0  0  0  0  0  0  0  0
   41.0785   32.9121   38.7266 H   0  0  0  0  0  0  0  0  0  0  0  0
   42.7823   34.6869   39.2256 H   0  0  0  0  0  0  0  0  0  0  0  0
   42.9288   33.2034   43.1425 H   0  0  0  0  0  0  0  0  0  0  0  0
   36.6410   34.1444   40.1632 H   0  0  0  0  0  0  0  0  0  0  0  0
   36.5463   32.7708   39.0287 H   0  0  0  0  0  0  0  0  0  0  0  0
   36.3688   31.1975   38.8036 H   0  0  0  0  0  0  0  0  0  0  0  0
   36.6057   29.4302   38.4665 H   0  0  0  0  0  0  0  0  0  0  0  0
   35.6962   30.8221   40.9797 H   0  0  0  0  0  0  0  0  0  0  0  0
   38.4915   29.0910   44.1470 H   0  0  0  0  0  0  0  0  0  0  0  0
   38.6063   26.5973   43.6439 H   0  0  0  0  0  0  0  0  0  0  0  0
   37.4066   25.7162   41.5958 H   0  0  0  0  0  0  0  0  0  0  0  0
   34.0954   29.0031   41.0514 H   0  0  0  0  0  0  0  0  0  0  0  0
   34.0309   29.9683   39.5378 H   0  0  0  0  0  0  0  0  0  0  0  0
   34.8078   28.3487   39.5378 H   0  0  0  0  0  0  0  0  0  0  0  0
  1  5  1  0
  2  1  1  0
  2  3  2  0
  3  4  1  0
  4  6  1  0
  5  4  2  0
  5 14  1  0
  6 12  1  0
  7  8  2  0
  7  6  1  0
  8  9  1  0
  9 10  2  0
  9 11  1  0
 12 11  1  0
 12 13  2  0
 14 15  2  0
 16 14  1  0
 17  1  1  0
 17 18  1  0
 18 23  1  0
 20 19  2  0
 21 20  1  0
 22 23  1  0
 22 21  2  0
 23 24  2  0
 24 19  1  0
 25 18  1  0
  3 26  1  0
  7 27  1  0
  8 28  1  0
 11 29  1  0
 16 30  1  0
 16 31  1  0
 17 32  1  0
 17 33  1  0
 18 34  1  1
 19 35  1  0
 20 36  1  0
 21 37  1  0
 25 38  1  0
 25 39  1  0
 25 40  1  0
M  ISO  8  26  14  27  14  28  14  29   9  32   8  33   8  34   8  35  14
M  ISO  5  36  14  37  14  38   8  39   8  40   8
M  END
>  <minimizedAffinity>  (1) 
-5.63676119

>  <minimizedRMSD>  (1) 
0.433790326

$$$$
