
     RDKit          3D

 40 42  0  0  1  0  0  0  0  0999 V2000
   38.5230   29.8040   39.1380 N   0  0  0  0  0  0  0  0  0  0  0  0
   39.6380   29.4010   39.6920 N   0  0  0  0  0  0  0  0  0  0  0  0
   40.6260   30.2970   39.6150 C   0  0  0  0  0  0  0  0  0  0  0  0
   40.1280   31.3920   38.9530 C   0  0  0  0  0  0  0  0  0  0  0  0
   38.8200   31.0260   38.6820 C   0  0  0  0  0  0  0  0  0  0  0  0
   40.9050   32.5910   38.6650 C   0  0  0  0  0  0  0  0  0  0  0  0
   40.8830   33.7870   39.3520 C   0  0  0  0  0  0  0  0  0  0  0  0
   41.6800   34.8440   38.9650 C   0  0  0  0  0  0  0  0  0  0  0  0
   42.5300   34.7390   37.8710 C   0  0  0  0  0  0  0  0  0  0  0  0
   42.5520   33.5430   37.1830 C   0  0  0  0  0  0  0  0  0  0  0  0
   41.7590   32.4800   37.5630 C   0  0  0  0  0  0  0  0  0  0  0  0
   37.9200   31.9230   37.9780 C   0  0  0  0  0  0  0  0  0  0  0  0
   37.0680   32.6760   38.5260 O   0  0  0  0  0  0  0  0  0  0  0  0
   37.8660   32.0870   36.5660 N   0  0  0  0  0  0  0  0  0  0  0  0
   37.2560   29.1130   39.0240 C   0  0  0  0  0  0  0  0  0  0  0  0
   36.3030   29.4460   40.1970 C   0  0  2  0  0  0  0  0  0  0  0  0
   37.7030   28.9720   43.5540 C   0  0  0  0  0  0  0  0  0  0  0  0
   37.5460   27.5480   43.7270 C   0  0  0  0  0  0  0  0  0  0  0  0
   36.9710   26.8070   42.6950 C   0  0  0  0  0  0  0  0  0  0  0  0
   36.5870   27.4930   41.5680 N   0  0  0  0  0  0  0  0  0  0  0  0
   36.7640   28.8580   41.4670 C   0  0  0  0  0  0  0  0  0  0  0  0
   37.3050   29.6040   42.4180 N   0  0  0  0  0  0  0  0  0  0  0  0
   34.9190   29.0780   39.9120 C   0  0  0  0  0  0  0  0  0  0  0  0
   41.6466   30.1796   40.0081 H   0  0  0  0  0  0  0  0  0  0  0  0
   40.2194   33.8995   40.2221 H   0  0  0  0  0  0  0  0  0  0  0  0
   41.6421   35.7859   39.5320 H   0  0  0  0  0  0  0  0  0  0  0  0
   43.1653   35.5825   37.5630 H   0  0  0  0  0  0  0  0  0  0  0  0
   43.2162   33.4349   36.3128 H   0  0  0  0  0  0  0  0  0  0  0  0
   41.7987   31.5386   36.9953 H   0  0  0  0  0  0  0  0  0  0  0  0
   38.4980   31.5445   35.9600 H   0  0  0  0  0  0  0  0  0  0  0  0
   37.1949   32.7482   36.1496 H   0  0  0  0  0  0  0  0  0  0  0  0
   36.7741   29.4093   38.0806 H   0  0  0  0  0  0  0  0  0  0  0  0
   37.4568   28.0317   39.0475 H   0  0  0  0  0  0  0  0  0  0  0  0
   36.3272   30.5397   40.3122 H   0  0  0  0  0  0  0  0  0  0  0  0
   38.1572   29.5623   44.3635 H   0  0  0  0  0  0  0  0  0  0  0  0
   37.8735   27.0565   44.6550 H   0  0  0  0  0  0  0  0  0  0  0  0
   36.8308   25.7193   42.7796 H   0  0  0  0  0  0  0  0  0  0  0  0
   34.3758   28.9336   40.8576 H   0  0  0  0  0  0  0  0  0  0  0  0
   34.4385   29.8796   39.3319 H   0  0  0  0  0  0  0  0  0  0  0  0
   34.9001   28.1436   39.3319 H   0  0  0  0  0  0  0  0  0  0  0  0
  1  2  1  0
  3  2  2  0
  4  3  1  0
  5  4  2  0
  5  1  1  0
  6  4  1  0
  6  7  2  0
  8  7  1  0
  9  8  2  0
 10 11  2  0
 10  9  1  0
 11  6  1  0
 12 13  2  0
 12  5  1  0
 14 12  1  0
 15  1  1  0
 15 16  1  0
 16 21  1  0
 17 18  2  0
 19 18  1  0
 20 19  2  0
 21 20  1  0
 21 22  2  0
 22 17  1  0
 23 16  1  0
  3 24  1  0
  7 25  1  0
  8 26  1  0
  9 27  1  0
 10 28  1  0
 11 29  1  0
 14 30  1  0
 14 31  1  0
 15 32  1  0
 15 33  1  0
 16 34  1  1
 17 35  1  0
 18 36  1  0
 19 37  1  0
 23 38  1  0
 23 39  1  0
 23 40  1  0
M  ISO  8  24  14  25  14  26  14  27  14  28  14  29  14  32   8  33   8
M  ISO  7  34   8  35  14  36  14  37  14  38   8  39   8  40   8
M  END
>  <minimizedAffinity>  (1) 
-5.41958094

>  <minimizedRMSD>  (1) 
1.86763644

$$$$
