
     RDKit          3D

 44 48  0  0  1  0  0  0  0  0999 V2000
   38.0730   30.3970   39.6080 C   0  0  1  0  0  0  0  0  0  0  0  0
   37.5220   30.4940   38.1620 C   0  0  0  0  0  0  0  0  0  0  0  0
   36.0870   30.0200   38.3860 C   0  0  0  0  0  0  0  0  0  0  0  0
   36.0870   29.2130   39.6620 C   0  0  0  0  0  0  0  0  0  0  0  0
   37.5580   29.0630   40.0060 C   0  0  2  0  0  0  0  0  0  0  0  0
   40.7620   35.1340   39.7620 C   0  0  0  0  0  0  0  0  0  0  0  0
   39.4880   35.6450   40.0720 C   0  0  0  0  0  0  0  0  0  0  0  0
   38.4690   34.7320   40.2700 C   0  0  0  0  0  0  0  0  0  0  0  0
   38.7600   33.4090   40.1550 N   0  0  0  0  0  0  0  0  0  0  0  0
   39.9530   32.9310   39.8650 C   0  0  0  0  0  0  0  0  0  0  0  0
   40.9720   33.8090   39.6640 N   0  0  0  0  0  0  0  0  0  0  0  0
   40.3000   31.5610   39.7270 N   0  0  0  0  0  0  0  0  0  0  0  0
   41.5940   31.2700   39.7030 N   0  0  0  0  0  0  0  0  0  0  0  0
   41.7260   29.9110   39.5520 C   0  0  0  0  0  0  0  0  0  0  0  0
   40.4200   29.4090   39.4880 C   0  0  0  0  0  0  0  0  0  0  0  0
   39.5330   30.4910   39.6030 C   0  0  0  0  0  0  0  0  0  0  0  0
   37.6390   28.7830   41.4170 N   0  0  0  0  0  0  0  0  0  0  0  0
   37.5770   29.6120   42.4280 N   0  0  0  0  0  0  0  0  0  0  0  0
   37.6900   28.9630   43.6090 C   0  0  0  0  0  0  0  0  0  0  0  0
   37.8320   27.6190   43.2800 C   0  0  0  0  0  0  0  0  0  0  0  0
   37.8000   27.5260   41.9150 C   0  0  0  0  0  0  0  0  0  0  0  0
   37.9160   26.2990   41.1900 N   0  0  0  0  0  0  0  0  0  0  0  0
   37.0710   25.4460   40.5810 C   0  0  0  0  0  0  0  0  0  0  0  0
   37.8540   24.4170   40.0500 C   0  0  0  0  0  0  0  0  0  0  0  0
   39.1640   24.6530   40.3380 N   0  0  0  0  0  0  0  0  0  0  0  0
   39.1730   25.7930   41.0270 C   0  0  0  0  0  0  0  0  0  0  0  0
   37.7670   31.1960   40.2993 H   0  0  0  0  0  0  0  0  0  0  0  0
   38.0669   29.8316   37.4733 H   0  0  0  0  0  0  0  0  0  0  0  0
   37.6123   31.4882   37.7000 H   0  0  0  0  0  0  0  0  0  0  0  0
   35.4140   30.8844   38.4849 H   0  0  0  0  0  0  0  0  0  0  0  0
   35.7345   29.4155   37.5373 H   0  0  0  0  0  0  0  0  0  0  0  0
   35.5516   29.7464   40.4613 H   0  0  0  0  0  0  0  0  0  0  0  0
   35.5793   28.2438   39.5483 H   0  0  0  0  0  0  0  0  0  0  0  0
   38.1261   28.2565   39.5194 H   0  0  0  0  0  0  0  0  0  0  0  0
   41.5988   35.8287   39.5973 H   0  0  0  0  0  0  0  0  0  0  0  0
   39.3101   36.7275   40.1535 H   0  0  0  0  0  0  0  0  0  0  0  0
   37.4501   35.0670   40.5140 H   0  0  0  0  0  0  0  0  0  0  0  0
   42.6623   29.3367   39.4935 H   0  0  0  0  0  0  0  0  0  0  0  0
   40.1387   28.3523   39.3686 H   0  0  0  0  0  0  0  0  0  0  0  0
   37.6732   29.4044   44.6164 H   0  0  0  0  0  0  0  0  0  0  0  0
   37.9486   26.7844   43.9870 H   0  0  0  0  0  0  0  0  0  0  0  0
   35.9771   25.5405   40.5143 H   0  0  0  0  0  0  0  0  0  0  0  0
   37.4720   23.5522   39.4877 H   0  0  0  0  0  0  0  0  0  0  0  0
   40.0842   26.2694   41.4177 H   0  0  0  0  0  0  0  0  0  0  0  0
  1  5  1  0
  2  3  1  0
  2  1  1  0
  3  4  1  0
  4  5  1  0
  5 17  1  0
  6  7  2  0
  7  8  1  0
  9  8  2  0
 10  9  1  0
 11  6  1  0
 11 10  2  0
 12 10  1  0
 13 12  1  0
 14 13  2  0
 15 14  1  0
 15 16  2  0
 16  1  1  0
 16 12  1  0
 17 21  1  0
 17 18  1  0
 18 19  2  0
 20 19  1  0
 21 20  2  0
 22 21  1  0
 23 22  1  0
 24 25  1  0
 24 23  2  0
 25 26  2  0
 26 22  1  0
  1 27  1  1
  2 28  1  0
  2 29  1  0
  3 30  1  0
  3 31  1  0
  4 32  1  0
  4 33  1  0
  5 34  1  6
  6 35  1  0
  7 36  1  0
  8 37  1  0
 14 38  1  0
 15 39  1  0
 19 40  1  0
 20 41  1  0
 23 42  1  0
 24 43  1  0
 26 44  1  0
M  ISO  8  27  13  28  13  29  13  30  13  31  13  32  13  33  13  34  13
M  ISO  8  35  14  36  14  37  14  38  14  39  14  40  14  41  14  42  14
M  ISO  2  43  14  44  14
M  END
>  <minimizedAffinity>  (1) 
-5.9258523

>  <minimizedRMSD>  (1) 
0.818807304

$$$$
