
     RDKit          3D

 37 39  0  0  1  0  0  0  0  0999 V2000
   37.2740   29.1270   39.0060 C   0  0  0  0  0  0  0  0  0  0  0  0
   38.5670   29.7710   39.0870 N   0  0  0  0  0  0  0  0  0  0  0  0
   39.6960   29.3440   39.6050 N   0  0  0  0  0  0  0  0  0  0  0  0
   40.7040   30.2110   39.5000 C   0  0  0  0  0  0  0  0  0  0  0  0
   40.2300   31.3190   38.8620 C   0  0  0  0  0  0  0  0  0  0  0  0
   38.8850   30.9900   38.6260 C   0  0  0  0  0  0  0  0  0  0  0  0
   38.0080   31.9150   37.9540 C   0  0  0  0  0  0  0  0  0  0  0  0
   37.1670   32.6710   38.5220 O   0  0  0  0  0  0  0  0  0  0  0  0
   37.9570   32.1170   36.5450 N   0  0  0  0  0  0  0  0  0  0  0  0
   40.9070   32.5030   38.5190 N   0  0  0  0  0  0  0  0  0  0  0  0
   40.8960   33.5560   39.3830 C   0  0  0  0  0  0  0  0  0  0  0  0
   41.6230   34.5760   38.8110 C   0  0  0  0  0  0  0  0  0  0  0  0
   42.0610   34.1330   37.6190 N   0  0  0  0  0  0  0  0  0  0  0  0
   41.6220   32.8620   37.4400 C   0  0  0  0  0  0  0  0  0  0  0  0
   36.3620   29.5030   40.2010 C   0  0  2  0  0  0  0  0  0  0  0  0
   37.8460   29.0010   43.5170 C   0  0  0  0  0  0  0  0  0  0  0  0
   37.6210   27.5960   43.7210 C   0  0  0  0  0  0  0  0  0  0  0  0
   36.9740   26.8720   42.7230 C   0  0  0  0  0  0  0  0  0  0  0  0
   36.5920   27.5670   41.6020 N   0  0  0  0  0  0  0  0  0  0  0  0
   36.8380   28.9110   41.4700 C   0  0  0  0  0  0  0  0  0  0  0  0
   37.4430   29.6370   42.3820 N   0  0  0  0  0  0  0  0  0  0  0  0
   34.9670   29.1610   39.9380 C   0  0  0  0  0  0  0  0  0  0  0  0
   36.7813   29.4360   38.0723 H   0  0  0  0  0  0  0  0  0  0  0  0
   37.4343   28.0390   39.0303 H   0  0  0  0  0  0  0  0  0  0  0  0
   41.7315   30.0597   39.8624 H   0  0  0  0  0  0  0  0  0  0  0  0
   38.5792   31.5793   35.9248 H   0  0  0  0  0  0  0  0  0  0  0  0
   37.2979   32.8008   36.1463 H   0  0  0  0  0  0  0  0  0  0  0  0
   40.3959   33.5861   40.3623 H   0  0  0  0  0  0  0  0  0  0  0  0
   41.8106   35.5681   39.2475 H   0  0  0  0  0  0  0  0  0  0  0  0
   41.8183   32.2319   36.5600 H   0  0  0  0  0  0  0  0  0  0  0  0
   36.4180   30.5954   40.3172 H   0  0  0  0  0  0  0  0  0  0  0  0
   38.3584   29.5792   44.3001 H   0  0  0  0  0  0  0  0  0  0  0  0
   37.9531   27.1029   44.6465 H   0  0  0  0  0  0  0  0  0  0  0  0
   36.7782   25.7946   42.8276 H   0  0  0  0  0  0  0  0  0  0  0  0
   34.4353   29.0306   40.8921 H   0  0  0  0  0  0  0  0  0  0  0  0
   34.4936   29.9697   39.3619 H   0  0  0  0  0  0  0  0  0  0  0  0
   34.9213   28.2250   39.3619 H   0  0  0  0  0  0  0  0  0  0  0  0
  1  2  1  0
  1 15  1  0
  2  3  1  0
  4  3  2  0
  5  4  1  0
  6  5  2  0
  6  2  1  0
  7  8  2  0
  7  6  1  0
  9  7  1  0
 10  5  1  0
 10 11  1  0
 12 11  2  0
 13 12  1  0
 14 13  2  0
 14 10  1  0
 15 20  1  0
 16 17  2  0
 18 17  1  0
 19 18  2  0
 20 19  1  0
 20 21  2  0
 21 16  1  0
 22 15  1  0
  1 23  1  0
  1 24  1  0
  4 25  1  0
  9 26  1  0
  9 27  1  0
 11 28  1  0
 12 29  1  0
 14 30  1  0
 15 31  1  1
 16 32  1  0
 17 33  1  0
 18 34  1  0
 22 35  1  0
 22 36  1  0
 22 37  1  0
M  ISO  8  23   8  24   8  25  14  28  14  29  14  30  14  31   8  32  14
M  ISO  5  33  14  34  14  35   8  36   8  37   8
M  END
>  <minimizedAffinity>  (1) 
-5.21402884

>  <minimizedRMSD>  (1) 
1.8222003

$$$$
