
     RDKit          3D

 46 48  0  0  1  0  0  0  0  0999 V2000
   37.0280   29.3150   39.0250 C   0  0  0  0  0  0  0  0  0  0  0  0
   38.4070   29.7320   39.1500 N   0  0  0  0  0  0  0  0  0  0  0  0
   39.5060   29.0060   39.2040 N   0  0  0  0  0  0  0  0  0  0  0  0
   40.6140   29.7320   39.3150 C   0  0  0  0  0  0  0  0  0  0  0  0
   40.2460   31.0440   39.3390 C   0  0  0  0  0  0  0  0  0  0  0  0
   38.8660   30.9890   39.2330 C   0  0  0  0  0  0  0  0  0  0  0  0
   41.2160   32.1630   39.4550 C   0  0  0  0  0  0  0  0  0  0  0  0
   40.9760   32.8870   40.7350 C   0  0  0  0  0  0  0  0  0  0  0  0
   41.4090   34.3030   40.8000 C   0  0  0  0  0  0  0  0  0  0  0  0
   40.8210   35.0040   39.5710 C   0  0  0  0  0  0  0  0  0  0  0  0
   41.6560   34.4270   38.4190 C   0  0  0  0  0  0  0  0  0  0  0  0
   41.1380   33.0240   38.2300 C   0  0  0  0  0  0  0  0  0  0  0  0
   38.0690   32.1910   39.2220 C   0  0  0  0  0  0  0  0  0  0  0  0
   37.7300   32.8590   40.2480 O   0  0  0  0  0  0  0  0  0  0  0  0
   37.5360   32.8180   38.0560 N   0  0  0  0  0  0  0  0  0  0  0  0
   36.2160   29.5920   40.3120 C   0  0  2  0  0  0  0  0  0  0  0  0
   37.9930   28.9590   43.4560 C   0  0  0  0  0  0  0  0  0  0  0  0
   37.8340   27.5370   43.5860 C   0  0  0  0  0  0  0  0  0  0  0  0
   37.1270   26.8410   42.6000 C   0  0  0  0  0  0  0  0  0  0  0  0
   36.6300   27.5890   41.5610 N   0  0  0  0  0  0  0  0  0  0  0  0
   36.8130   28.9450   41.4890 C   0  0  0  0  0  0  0  0  0  0  0  0
   37.4750   29.6440   42.4010 N   0  0  0  0  0  0  0  0  0  0  0  0
   34.8060   29.2440   40.1690 C   0  0  0  0  0  0  0  0  0  0  0  0
   36.5665   29.8625   38.1900 H   0  0  0  0  0  0  0  0  0  0  0  0
   37.0178   28.2297   38.8458 H   0  0  0  0  0  0  0  0  0  0  0  0
   41.6415   29.3441   39.3764 H   0  0  0  0  0  0  0  0  0  0  0  0
   42.2521   31.7960   39.4981 H   0  0  0  0  0  0  0  0  0  0  0  0
   39.8942   32.8617   40.9325 H   0  0  0  0  0  0  0  0  0  0  0  0
   41.5962   32.3648   41.4785 H   0  0  0  0  0  0  0  0  0  0  0  0
   41.0312   34.7724   41.7203 H   0  0  0  0  0  0  0  0  0  0  0  0
   42.5063   34.3796   40.8101 H   0  0  0  0  0  0  0  0  0  0  0  0
   39.7552   34.7611   39.4483 H   0  0  0  0  0  0  0  0  0  0  0  0
   40.8640   36.1014   39.6332 H   0  0  0  0  0  0  0  0  0  0  0  0
   41.5131   35.0191   37.5030 H   0  0  0  0  0  0  0  0  0  0  0  0
   42.7336   34.4446   38.6391 H   0  0  0  0  0  0  0  0  0  0  0  0
   40.0845   33.0855   37.9196 H   0  0  0  0  0  0  0  0  0  0  0  0
   41.7820   32.5516   37.4736 H   0  0  0  0  0  0  0  0  0  0  0  0
   36.9756   33.6777   38.1441 H   0  0  0  0  0  0  0  0  0  0  0  0
   37.7117   32.4108   37.1264 H   0  0  0  0  0  0  0  0  0  0  0  0
   36.2604   30.6788   40.4758 H   0  0  0  0  0  0  0  0  0  0  0  0
   38.5485   29.5085   44.2303 H   0  0  0  0  0  0  0  0  0  0  0  0
   38.2617   27.0038   44.4478 H   0  0  0  0  0  0  0  0  0  0  0  0
   36.9771   25.7526   42.6539 H   0  0  0  0  0  0  0  0  0  0  0  0
   34.3531   29.1322   41.1652 H   0  0  0  0  0  0  0  0  0  0  0  0
   34.2858   30.0407   39.6170 H   0  0  0  0  0  0  0  0  0  0  0  0
   34.7163   28.2968   39.6170 H   0  0  0  0  0  0  0  0  0  0  0  0
  1  2  1  0
  1 16  1  0
  2  3  1  0
  2  6  1  0
  3  4  2  0
  4  5  1  0
  5  7  1  0
  6  5  2  0
  7  8  1  0
  8  9  1  0
 10  9  1  0
 11 10  1  0
 12 11  1  0
 12  7  1  0
 13  6  1  0
 13 14  2  0
 15 13  1  0
 16 21  1  0
 17 18  2  0
 19 18  1  0
 20 19  2  0
 21 20  1  0
 21 22  2  0
 22 17  1  0
 23 16  1  0
  1 24  1  0
  1 25  1  0
  4 26  1  0
  7 27  1  0
  8 28  1  0
  8 29  1  0
  9 30  1  0
  9 31  1  0
 10 32  1  0
 10 33  1  0
 11 34  1  0
 11 35  1  0
 12 36  1  0
 12 37  1  0
 15 38  1  0
 15 39  1  0
 16 40  1  1
 17 41  1  0
 18 42  1  0
 19 43  1  0
 23 44  1  0
 23 45  1  0
 23 46  1  0
M  ISO  8  24   8  25   8  26  14  27  13  28  13  29  13  30  13  31  13
M  ISO  8  32  13  33  13  34  13  35  13  36  13  37  13  40   8  41  14
M  ISO  5  42  14  43  14  44   8  45   8  46   8
M  END
>  <minimizedAffinity>  (1) 
-5.183496

>  <minimizedRMSD>  (1) 
0.9640311

$$$$
