
     RDKit          3D

 39 41  0  0  1  0  0  0  0  0999 V2000
   37.3760   29.4940   39.0610 C   0  0  0  0  0  0  0  0  0  0  0  0
   38.6450   30.0610   39.4840 N   0  0  0  0  0  0  0  0  0  0  0  0
   39.7760   29.4640   39.7440 N   0  0  0  0  0  0  0  0  0  0  0  0
   40.7510   30.2780   40.1010 C   0  0  0  0  0  0  0  0  0  0  0  0
   40.2460   31.5470   40.0870 C   0  0  0  0  0  0  0  0  0  0  0  0
   38.9350   31.3500   39.6970 C   0  0  0  0  0  0  0  0  0  0  0  0
   41.0260   32.7240   40.4240 C   0  0  0  0  0  0  0  0  0  0  0  0
   42.0910   32.6290   41.2860 C   0  0  0  0  0  0  0  0  0  0  0  0
   42.8970   33.6470   41.6800 C   0  0  0  0  0  0  0  0  0  0  0  0
   42.6460   34.9040   41.1860 C   0  0  0  0  0  0  0  0  0  0  0  0
   41.5950   35.0330   40.3250 C   0  0  0  0  0  0  0  0  0  0  0  0
   40.8470   33.9780   39.9850 N   0  0  0  0  0  0  0  0  0  0  0  0
   38.0020   32.4610   39.5450 C   0  0  0  0  0  0  0  0  0  0  0  0
   37.4990   33.1290   40.4920 O   0  0  0  0  0  0  0  0  0  0  0  0
   37.5050   32.9680   38.3020 N   0  0  0  0  0  0  0  0  0  0  0  0
   36.3130   29.5500   40.1810 C   0  0  2  0  0  0  0  0  0  0  0  0
   37.6500   28.8530   43.5300 C   0  0  0  0  0  0  0  0  0  0  0  0
   37.5690   27.4050   43.5700 C   0  0  0  0  0  0  0  0  0  0  0  0
   37.0640   26.7250   42.4620 C   0  0  0  0  0  0  0  0  0  0  0  0
   36.6750   27.4930   41.3950 N   0  0  0  0  0  0  0  0  0  0  0  0
   36.7780   28.8740   41.4170 C   0  0  0  0  0  0  0  0  0  0  0  0
   37.2470   29.5610   42.4390 N   0  0  0  0  0  0  0  0  0  0  0  0
   35.0300   29.0050   39.7370 C   0  0  0  0  0  0  0  0  0  0  0  0
   37.0066   30.0593   38.1927 H   0  0  0  0  0  0  0  0  0  0  0  0
   37.5449   28.4373   38.8064 H   0  0  0  0  0  0  0  0  0  0  0  0
   41.7797   29.9884   40.3616 H   0  0  0  0  0  0  0  0  0  0  0  0
   42.3117   31.6325   41.6962 H   0  0  0  0  0  0  0  0  0  0  0  0
   43.7296   33.4703   42.3768 H   0  0  0  0  0  0  0  0  0  0  0  0
   43.2643   35.7678   41.4716 H   0  0  0  0  0  0  0  0  0  0  0  0
   41.3593   36.0214   39.9037 H   0  0  0  0  0  0  0  0  0  0  0  0
   36.8462   33.7598   38.2953 H   0  0  0  0  0  0  0  0  0  0  0  0
   37.8061   32.5410   37.4144 H   0  0  0  0  0  0  0  0  0  0  0  0
   36.1601   30.6126   40.4209 H   0  0  0  0  0  0  0  0  0  0  0  0
   38.0468   29.3923   44.4027 H   0  0  0  0  0  0  0  0  0  0  0  0
   37.9009   26.8517   44.4609 H   0  0  0  0  0  0  0  0  0  0  0  0
   36.9820   25.6282   42.4451 H   0  0  0  0  0  0  0  0  0  0  0  0
   34.4187   28.7453   40.6139 H   0  0  0  0  0  0  0  0  0  0  0  0
   34.5021   29.7566   39.1316 H   0  0  0  0  0  0  0  0  0  0  0  0
   35.2044   28.1033   39.1316 H   0  0  0  0  0  0  0  0  0  0  0  0
  1  2  1  0
  1 16  1  0
  2  6  1  0
  2  3  1  0
  3  4  2  0
  5  4  1  0
  5  7  1  0
  6  5  2  0
  7  8  2  0
  8  9  1  0
 10  9  2  0
 11 10  1  0
 12 11  2  0
 12  7  1  0
 13  6  1  0
 13 14  2  0
 15 13  1  0
 16 21  1  0
 17 18  2  0
 19 18  1  0
 20 21  1  0
 20 19  2  0
 21 22  2  0
 22 17  1  0
 23 16  1  0
  1 24  1  0
  1 25  1  0
  4 26  1  0
  8 27  1  0
  9 28  1  0
 10 29  1  0
 11 30  1  0
 15 31  1  0
 15 32  1  0
 16 33  1  1
 17 34  1  0
 18 35  1  0
 19 36  1  0
 23 37  1  0
 23 38  1  0
 23 39  1  0
M  ISO  8  24   8  25   8  26  14  27  14  28  14  29  14  30  14  33   8
M  ISO  6  34  14  35  14  36  14  37   8  38   8  39   8
M  END
>  <minimizedAffinity>  (1) 
-5.09709787

>  <minimizedRMSD>  (1) 
0.792312682

$$$$
