
     RDKit          3D

 38 40  0  0  1  0  0  0  0  0999 V2000
   37.0190   29.3910   38.9850 C   0  0  0  0  0  0  0  0  0  0  0  0
   38.3670   29.8840   39.2030 N   0  0  0  0  0  0  0  0  0  0  0  0
   39.4940   29.2290   39.2750 N   0  0  0  0  0  0  0  0  0  0  0  0
   40.5540   29.9870   39.4770 C   0  0  0  0  0  0  0  0  0  0  0  0
   40.1210   31.2820   39.5520 C   0  0  0  0  0  0  0  0  0  0  0  0
   38.7580   31.1550   39.3760 C   0  0  0  0  0  0  0  0  0  0  0  0
   41.0050   32.4140   39.7680 C   0  0  0  0  0  0  0  0  0  0  0  0
   41.7520   32.5010   40.9190 C   0  0  0  0  0  0  0  0  0  0  0  0
   42.6190   33.5240   41.2290 C   0  0  0  0  0  0  0  0  0  0  0  0
   42.7410   34.5180   40.3290 N   0  0  0  0  0  0  0  0  0  0  0  0
   42.0340   34.4840   39.1850 C   0  0  0  0  0  0  0  0  0  0  0  0
   41.2150   33.4600   38.9560 N   0  0  0  0  0  0  0  0  0  0  0  0
   37.8700   32.3130   39.3850 C   0  0  0  0  0  0  0  0  0  0  0  0
   37.4190   32.8790   40.4200 O   0  0  0  0  0  0  0  0  0  0  0  0
   37.3710   32.9900   38.2270 N   0  0  0  0  0  0  0  0  0  0  0  0
   36.1300   29.5670   40.2390 C   0  0  2  0  0  0  0  0  0  0  0  0
   37.7830   28.8770   43.4460 C   0  0  0  0  0  0  0  0  0  0  0  0
   37.7270   27.4430   43.4960 C   0  0  0  0  0  0  0  0  0  0  0  0
   37.1310   26.7550   42.4400 C   0  0  0  0  0  0  0  0  0  0  0  0
   36.6340   27.5230   41.4150 N   0  0  0  0  0  0  0  0  0  0  0  0
   36.7160   28.8940   41.4240 C   0  0  0  0  0  0  0  0  0  0  0  0
   37.2710   29.5810   42.4000 N   0  0  0  0  0  0  0  0  0  0  0  0
   34.7540   29.1190   40.0120 C   0  0  0  0  0  0  0  0  0  0  0  0
   36.5683   29.9459   38.1490 H   0  0  0  0  0  0  0  0  0  0  0  0
   37.0816   28.3161   38.7599 H   0  0  0  0  0  0  0  0  0  0  0  0
   41.5943   29.6415   39.5683 H   0  0  0  0  0  0  0  0  0  0  0  0
   41.6483   31.6870   41.6515 H   0  0  0  0  0  0  0  0  0  0  0  0
   43.1874   33.5293   42.1708 H   0  0  0  0  0  0  0  0  0  0  0  0
   42.1317   35.2937   38.4468 H   0  0  0  0  0  0  0  0  0  0  0  0
   36.7465   33.8020   38.3343 H   0  0  0  0  0  0  0  0  0  0  0  0
   37.6363   32.6652   37.2863 H   0  0  0  0  0  0  0  0  0  0  0  0
   36.0926   30.6469   40.4451 H   0  0  0  0  0  0  0  0  0  0  0  0
   38.2535   29.4223   44.2774 H   0  0  0  0  0  0  0  0  0  0  0  0
   38.1473   26.8965   44.3531 H   0  0  0  0  0  0  0  0  0  0  0  0
   37.0624   25.6572   42.4281 H   0  0  0  0  0  0  0  0  0  0  0  0
   34.2567   28.9571   40.9797 H   0  0  0  0  0  0  0  0  0  0  0  0
   34.2079   29.8858   39.4429 H   0  0  0  0  0  0  0  0  0  0  0  0
   34.7640   28.1777   39.4429 H   0  0  0  0  0  0  0  0  0  0  0  0
  1  2  1  0
  1 16  1  0
  2  3  1  0
  2  6  1  0
  3  4  2  0
  4  5  1  0
  5  7  1  0
  6 13  1  0
  6  5  2  0
  7  8  2  0
  8  9  1  0
 10  9  2  0
 11 10  1  0
 12 11  2  0
 12  7  1  0
 13 14  2  0
 15 13  1  0
 16 21  1  0
 17 18  2  0
 19 18  1  0
 20 21  1  0
 20 19  2  0
 21 22  2  0
 22 17  1  0
 23 16  1  0
  1 24  1  0
  1 25  1  0
  4 26  1  0
  8 27  1  0
  9 28  1  0
 11 29  1  0
 15 30  1  0
 15 31  1  0
 16 32  1  1
 17 33  1  0
 18 34  1  0
 19 35  1  0
 23 36  1  0
 23 37  1  0
 23 38  1  0
M  ISO  8  24   8  25   8  26  14  27  14  28  14  29  14  32   8  33  14
M  ISO  5  34  14  35  14  36   8  37   8  38   8
M  END
>  <minimizedAffinity>  (1) 
-5.06383371

>  <minimizedRMSD>  (1) 
1.00574493

$$$$
