
     RDKit          3D

 38 40  0  0  1  0  0  0  0  0999 V2000
   37.0200   29.3930   38.9810 C   0  0  0  0  0  0  0  0  0  0  0  0
   38.3680   29.8890   39.1980 N   0  0  0  0  0  0  0  0  0  0  0  0
   39.4960   29.2340   39.2640 N   0  0  0  0  0  0  0  0  0  0  0  0
   40.5550   29.9910   39.4680 C   0  0  0  0  0  0  0  0  0  0  0  0
   40.1210   31.2840   39.5500 C   0  0  0  0  0  0  0  0  0  0  0  0
   38.7570   31.1580   39.3750 C   0  0  0  0  0  0  0  0  0  0  0  0
   41.0050   32.4170   39.7700 C   0  0  0  0  0  0  0  0  0  0  0  0
   41.7510   32.5040   40.9120 C   0  0  0  0  0  0  0  0  0  0  0  0
   42.6170   33.5300   41.2190 C   0  0  0  0  0  0  0  0  0  0  0  0
   42.7360   34.5260   40.3200 N   0  0  0  0  0  0  0  0  0  0  0  0
   42.0250   34.4870   39.1820 C   0  0  0  0  0  0  0  0  0  0  0  0
   41.2140   33.4660   38.9630 N   0  0  0  0  0  0  0  0  0  0  0  0
   37.8700   32.3170   39.3900 C   0  0  0  0  0  0  0  0  0  0  0  0
   37.4210   32.8820   40.4270 O   0  0  0  0  0  0  0  0  0  0  0  0
   37.3690   32.9960   38.2350 N   0  0  0  0  0  0  0  0  0  0  0  0
   36.1310   29.5670   40.2360 C   0  0  2  0  0  0  0  0  0  0  0  0
   37.7850   28.8820   43.4440 C   0  0  0  0  0  0  0  0  0  0  0  0
   37.7270   27.4430   43.4920 C   0  0  0  0  0  0  0  0  0  0  0  0
   37.1310   26.7550   42.4380 C   0  0  0  0  0  0  0  0  0  0  0  0
   36.6290   27.5150   41.4040 N   0  0  0  0  0  0  0  0  0  0  0  0
   36.7170   28.8960   41.4200 C   0  0  0  0  0  0  0  0  0  0  0  0
   37.2730   29.5890   42.3960 N   0  0  0  0  0  0  0  0  0  0  0  0
   34.7550   29.1170   40.0120 C   0  0  0  0  0  0  0  0  0  0  0  0
   36.5676   29.9471   38.1453 H   0  0  0  0  0  0  0  0  0  0  0  0
   37.0848   28.3182   38.7559 H   0  0  0  0  0  0  0  0  0  0  0  0
   41.5958   29.6459   39.5560 H   0  0  0  0  0  0  0  0  0  0  0  0
   41.6518   31.6894   41.6445 H   0  0  0  0  0  0  0  0  0  0  0  0
   43.1878   33.5358   42.1593 H   0  0  0  0  0  0  0  0  0  0  0  0
   42.1160   35.2946   38.4407 H   0  0  0  0  0  0  0  0  0  0  0  0
   36.7456   33.8085   38.3452 H   0  0  0  0  0  0  0  0  0  0  0  0
   37.6316   32.6725   37.2931 H   0  0  0  0  0  0  0  0  0  0  0  0
   36.0931   30.6473   40.4399 H   0  0  0  0  0  0  0  0  0  0  0  0
   38.2556   29.4258   44.2763 H   0  0  0  0  0  0  0  0  0  0  0  0
   38.1474   26.8959   44.3487 H   0  0  0  0  0  0  0  0  0  0  0  0
   37.0642   25.6571   42.4312 H   0  0  0  0  0  0  0  0  0  0  0  0
   34.2599   28.9551   40.9808 H   0  0  0  0  0  0  0  0  0  0  0  0
   34.2068   29.8827   39.4435 H   0  0  0  0  0  0  0  0  0  0  0  0
   34.7651   28.1754   39.4435 H   0  0  0  0  0  0  0  0  0  0  0  0
  1  2  1  0
  1 16  1  0
  2  3  1  0
  2  6  1  0
  3  4  2  0
  4  5  1  0
  5  7  1  0
  6 13  1  0
  6  5  2  0
  7  8  2  0
  8  9  1  0
 10  9  2  0
 11 10  1  0
 12 11  2  0
 12  7  1  0
 13 14  2  0
 15 13  1  0
 16 21  1  0
 17 18  2  0
 19 18  1  0
 20 21  1  0
 20 19  2  0
 21 22  2  0
 22 17  1  0
 23 16  1  0
  1 24  1  0
  1 25  1  0
  4 26  1  0
  8 27  1  0
  9 28  1  0
 11 29  1  0
 15 30  1  0
 15 31  1  0
 16 32  1  1
 17 33  1  0
 18 34  1  0
 19 35  1  0
 23 36  1  0
 23 37  1  0
 23 38  1  0
M  ISO  8  24   8  25   8  26  14  27  14  28  14  29  14  32   8  33  14
M  ISO  5  34  14  35  14  36   8  37   8  38   8
M  END
>  <minimizedAffinity>  (1) 
-5.06200266

>  <minimizedRMSD>  (1) 
1.05460072

$$$$
