
     RDKit          3D

 42 44  0  0  1  0  0  0  0  0999 V2000
   37.1270   29.3580   39.0120 C   0  0  0  0  0  0  0  0  0  0  0  0
   38.4660   29.8970   39.1600 N   0  0  0  0  0  0  0  0  0  0  0  0
   39.6130   29.2720   39.2250 N   0  0  0  0  0  0  0  0  0  0  0  0
   40.6630   30.0970   39.3590 C   0  0  0  0  0  0  0  0  0  0  0  0
   40.1900   31.3770   39.3880 C   0  0  0  0  0  0  0  0  0  0  0  0
   38.8120   31.1890   39.2590 C   0  0  0  0  0  0  0  0  0  0  0  0
   40.8800   32.6170   39.5130 N   0  0  0  0  0  0  0  0  0  0  0  0
   41.2750   33.3910   40.7010 C   0  0  0  0  0  0  0  0  0  0  0  0
   40.7870   34.7720   40.2410 C   0  0  0  0  0  0  0  0  0  0  0  0
   41.5560   34.8130   38.9180 C   0  0  0  0  0  0  0  0  0  0  0  0
   41.3660   33.4240   38.4020 C   0  0  0  0  0  0  0  0  0  0  0  0
   37.8980   32.3210   39.2440 C   0  0  0  0  0  0  0  0  0  0  0  0
   37.4710   32.9190   40.2700 O   0  0  0  0  0  0  0  0  0  0  0  0
   37.3500   32.9210   38.0780 N   0  0  0  0  0  0  0  0  0  0  0  0
   36.2620   29.6020   40.2730 C   0  0  2  0  0  0  0  0  0  0  0  0
   37.9780   28.9660   43.4560 C   0  0  0  0  0  0  0  0  0  0  0  0
   37.8230   27.5370   43.5850 C   0  0  0  0  0  0  0  0  0  0  0  0
   37.1410   26.8490   42.5830 C   0  0  0  0  0  0  0  0  0  0  0  0
   36.6550   27.5830   41.5290 N   0  0  0  0  0  0  0  0  0  0  0  0
   36.8440   28.9530   41.4750 C   0  0  0  0  0  0  0  0  0  0  0  0
   37.4790   29.6500   42.3920 N   0  0  0  0  0  0  0  0  0  0  0  0
   34.8710   29.2040   40.0760 C   0  0  0  0  0  0  0  0  0  0  0  0
   36.6429   29.8406   38.1502 H   0  0  0  0  0  0  0  0  0  0  0  0
   37.2122   28.2715   38.8628 H   0  0  0  0  0  0  0  0  0  0  0  0
   41.7182   29.7950   39.4325 H   0  0  0  0  0  0  0  0  0  0  0  0
   40.7577   33.0495   41.6097 H   0  0  0  0  0  0  0  0  0  0  0  0
   42.3364   33.3275   40.9829 H   0  0  0  0  0  0  0  0  0  0  0  0
   39.6972   34.8057   40.0951 H   0  0  0  0  0  0  0  0  0  0  0  0
   40.9565   35.6092   40.9341 H   0  0  0  0  0  0  0  0  0  0  0  0
   41.1274   35.5566   38.2300 H   0  0  0  0  0  0  0  0  0  0  0  0
   42.6112   35.1035   39.0284 H   0  0  0  0  0  0  0  0  0  0  0  0
   40.6301   33.4226   37.5844 H   0  0  0  0  0  0  0  0  0  0  0  0
   42.3104   33.0200   38.0084 H   0  0  0  0  0  0  0  0  0  0  0  0
   36.7084   33.7222   38.1641 H   0  0  0  0  0  0  0  0  0  0  0  0
   37.5944   32.5547   37.1469 H   0  0  0  0  0  0  0  0  0  0  0  0
   36.2646   30.6880   40.4480 H   0  0  0  0  0  0  0  0  0  0  0  0
   38.5154   29.5179   44.2412 H   0  0  0  0  0  0  0  0  0  0  0  0
   38.2338   27.0029   44.4545 H   0  0  0  0  0  0  0  0  0  0  0  0
   36.9975   25.7596   42.6345 H   0  0  0  0  0  0  0  0  0  0  0  0
   34.3872   29.0656   41.0541 H   0  0  0  0  0  0  0  0  0  0  0  0
   34.3419   29.9868   39.5127 H   0  0  0  0  0  0  0  0  0  0  0  0
   34.8360   28.2598   39.5127 H   0  0  0  0  0  0  0  0  0  0  0  0
  1  2  1  0
  1 15  1  0
  2  3  1  0
  2  6  1  0
  3  4  2  0
  4  5  1  0
  5  7  1  0
  6  5  2  0
  7  8  1  0
  9  8  1  0
 10  9  1  0
 11 10  1  0
 11  7  1  0
 12  6  1  0
 12 13  2  0
 14 12  1  0
 15 20  1  0
 16 17  2  0
 18 17  1  0
 19 18  2  0
 20 19  1  0
 20 21  2  0
 21 16  1  0
 22 15  1  0
  1 23  1  0
  1 24  1  0
  4 25  1  0
  8 26  1  0
  8 27  1  0
  9 28  1  0
  9 29  1  0
 10 30  1  0
 10 31  1  0
 11 32  1  0
 11 33  1  0
 14 34  1  0
 14 35  1  0
 15 36  1  1
 16 37  1  0
 17 38  1  0
 18 39  1  0
 22 40  1  0
 22 41  1  0
 22 42  1  0
M  ISO  8  23   8  24   8  25  14  26  13  27  13  28  13  29  13  30  13
M  ISO  8  31  13  32  13  33  13  36   8  37  14  38  14  39  14  40   8
M  ISO  2  41   8  42   8
M  END
>  <minimizedAffinity>  (1) 
-5.06071949

>  <minimizedRMSD>  (1) 
1.01405025

$$$$
