
     RDKit          3D

 36 38  0  0  1  0  0  0  0  0999 V2000
   37.6300   29.2960   39.1220 C   0  0  0  0  0  0  0  0  0  0  0  0
   38.7590   30.1500   39.4300 N   0  0  0  0  0  0  0  0  0  0  0  0
   39.8950   29.8600   40.0170 N   0  0  0  0  0  0  0  0  0  0  0  0
   40.7180   30.9070   40.1380 C   0  0  0  0  0  0  0  0  0  0  0  0
   40.0970   31.9900   39.5930 C   0  0  0  0  0  0  0  0  0  0  0  0
   38.8720   31.4590   39.1640 C   0  0  0  0  0  0  0  0  0  0  0  0
   37.8870   32.2960   38.5150 C   0  0  0  0  0  0  0  0  0  0  0  0
   37.0630   33.0450   39.1110 O   0  0  0  0  0  0  0  0  0  0  0  0
   37.6980   32.3990   37.1130 N   0  0  0  0  0  0  0  0  0  0  0  0
   40.5450   33.3340   39.4710 N   0  0  0  0  0  0  0  0  0  0  0  0
   41.4920   33.5420   38.5100 C   0  0  0  0  0  0  0  0  0  0  0  0
   41.8450   34.8410   38.4760 N   0  0  0  0  0  0  0  0  0  0  0  0
   41.0940   35.4330   39.4420 C   0  0  0  0  0  0  0  0  0  0  0  0
   40.3020   34.5020   40.0430 N   0  0  0  0  0  0  0  0  0  0  0  0
   36.5000   29.4260   40.1720 C   0  0  2  0  0  0  0  0  0  0  0  0
   37.6450   28.8890   43.6160 C   0  0  0  0  0  0  0  0  0  0  0  0
   37.5040   27.4660   43.7470 C   0  0  0  0  0  0  0  0  0  0  0  0
   37.0240   26.7380   42.6590 C   0  0  0  0  0  0  0  0  0  0  0  0
   36.7120   27.4350   41.5150 N   0  0  0  0  0  0  0  0  0  0  0  0
   36.8760   28.8130   41.4690 C   0  0  0  0  0  0  0  0  0  0  0  0
   37.3250   29.5430   42.4670 N   0  0  0  0  0  0  0  0  0  0  0  0
   35.2370   28.8870   39.6760 C   0  0  0  0  0  0  0  0  0  0  0  0
   37.2319   29.5759   38.1355 H   0  0  0  0  0  0  0  0  0  0  0  0
   37.9812   28.2536   39.1286 H   0  0  0  0  0  0  0  0  0  0  0  0
   41.7181   30.8957   40.5959 H   0  0  0  0  0  0  0  0  0  0  0  0
   38.2898   31.8515   36.4720 H   0  0  0  0  0  0  0  0  0  0  0  0
   36.9689   33.0213   36.7360 H   0  0  0  0  0  0  0  0  0  0  0  0
   41.9073   32.7603   37.8569 H   0  0  0  0  0  0  0  0  0  0  0  0
   41.1217   36.5021   39.6994 H   0  0  0  0  0  0  0  0  0  0  0  0
   36.3530   30.5015   40.3500 H   0  0  0  0  0  0  0  0  0  0  0  0
   38.0235   29.4681   44.4712 H   0  0  0  0  0  0  0  0  0  0  0  0
   37.7694   26.9603   44.6871 H   0  0  0  0  0  0  0  0  0  0  0  0
   36.8994   25.6464   42.7135 H   0  0  0  0  0  0  0  0  0  0  0  0
   34.5958   28.6134   40.5269 H   0  0  0  0  0  0  0  0  0  0  0  0
   34.7293   29.6468   39.0637 H   0  0  0  0  0  0  0  0  0  0  0  0
   35.4344   27.9947   39.0637 H   0  0  0  0  0  0  0  0  0  0  0  0
  1  2  1  0
  1 15  1  0
  2  3  1  0
  3  4  2  0
  5  4  1  0
  6  2  1  0
  6  5  2  0
  7  8  2  0
  7  6  1  0
  9  7  1  0
 10  5  1  0
 10 14  1  0
 11 10  1  0
 12 11  2  0
 12 13  1  0
 13 14  2  0
 15 20  1  0
 16 17  2  0
 18 17  1  0
 19 18  2  0
 20 19  1  0
 20 21  2  0
 21 16  1  0
 22 15  1  0
  1 23  1  0
  1 24  1  0
  4 25  1  0
  9 26  1  0
  9 27  1  0
 11 28  1  0
 13 29  1  0
 15 30  1  1
 16 31  1  0
 17 32  1  0
 18 33  1  0
 22 34  1  0
 22 35  1  0
 22 36  1  0
M  ISO  8  23   8  24   8  25  14  28  14  29  14  30   8  31  14  32  14
M  ISO  4  33  14  34   8  35   8  36   8
M  END
>  <minimizedAffinity>  (1) 
-5.02317333

>  <minimizedRMSD>  (1) 
1.50451708

$$$$
