
     RDKit          3D

 43 45  0  0  1  0  0  0  0  0999 V2000
   36.9750   29.3040   38.9970 C   0  0  0  0  0  0  0  0  0  0  0  0
   38.3670   29.6900   39.1330 N   0  0  0  0  0  0  0  0  0  0  0  0
   39.4450   28.9460   39.1750 N   0  0  0  0  0  0  0  0  0  0  0  0
   40.5700   29.6400   39.3050 C   0  0  0  0  0  0  0  0  0  0  0  0
   40.2380   30.9630   39.3560 C   0  0  0  0  0  0  0  0  0  0  0  0
   38.8570   30.9300   39.2450 C   0  0  0  0  0  0  0  0  0  0  0  0
   38.0830   32.1570   39.2540 C   0  0  0  0  0  0  0  0  0  0  0  0
   37.7590   32.8170   40.2780 O   0  0  0  0  0  0  0  0  0  0  0  0
   37.5630   32.8130   38.1000 N   0  0  0  0  0  0  0  0  0  0  0  0
   41.1240   32.1460   39.4960 C   0  0  0  0  0  0  0  0  0  0  0  0
   40.9030   33.1990   38.4580 C   0  0  0  0  0  0  0  0  0  0  0  0
   41.2420   34.5400   39.1030 C   0  0  0  0  0  0  0  0  0  0  0  0
   41.3040   34.3050   40.5780 C   0  0  0  0  0  0  0  0  0  0  0  0
   40.8540   32.8920   40.7910 C   0  0  0  0  0  0  0  0  0  0  0  0
   36.1680   29.5770   40.2890 C   0  0  2  0  0  0  0  0  0  0  0  0
   37.9520   28.9590   43.4330 C   0  0  0  0  0  0  0  0  0  0  0  0
   37.8310   27.5300   43.5470 C   0  0  0  0  0  0  0  0  0  0  0  0
   37.1470   26.8260   42.5500 C   0  0  0  0  0  0  0  0  0  0  0  0
   36.6280   27.5610   41.5120 N   0  0  0  0  0  0  0  0  0  0  0  0
   36.7850   28.9340   41.4730 C   0  0  0  0  0  0  0  0  0  0  0  0
   37.4200   29.6410   42.3850 N   0  0  0  0  0  0  0  0  0  0  0  0
   34.7620   29.2120   40.1510 C   0  0  0  0  0  0  0  0  0  0  0  0
   36.5270   29.8760   38.1711 H   0  0  0  0  0  0  0  0  0  0  0  0
   36.9405   28.2228   38.7973 H   0  0  0  0  0  0  0  0  0  0  0  0
   41.5865   29.2235   39.3614 H   0  0  0  0  0  0  0  0  0  0  0  0
   37.0225   33.6838   38.2023 H   0  0  0  0  0  0  0  0  0  0  0  0
   37.7278   32.4162   37.1639 H   0  0  0  0  0  0  0  0  0  0  0  0
   42.1317   31.7104   39.4260 H   0  0  0  0  0  0  0  0  0  0  0  0
   39.8529   33.1921   38.1306 H   0  0  0  0  0  0  0  0  0  0  0  0
   41.5333   33.0179   37.5749 H   0  0  0  0  0  0  0  0  0  0  0  0
   42.2136   34.9022   38.7359 H   0  0  0  0  0  0  0  0  0  0  0  0
   40.4863   35.3000   38.8553 H   0  0  0  0  0  0  0  0  0  0  0  0
   42.3332   34.4374   40.9431 H   0  0  0  0  0  0  0  0  0  0  0  0
   40.6691   35.0167   41.1261 H   0  0  0  0  0  0  0  0  0  0  0  0
   39.7795   32.8679   41.0250 H   0  0  0  0  0  0  0  0  0  0  0  0
   41.3905   32.4293   41.6325 H   0  0  0  0  0  0  0  0  0  0  0  0
   36.2005   30.6641   40.4538 H   0  0  0  0  0  0  0  0  0  0  0  0
   38.4897   29.5146   44.2154 H   0  0  0  0  0  0  0  0  0  0  0  0
   38.2695   26.9991   44.4048 H   0  0  0  0  0  0  0  0  0  0  0  0
   37.0301   25.7332   42.5953 H   0  0  0  0  0  0  0  0  0  0  0  0
   34.3138   29.0956   41.1488 H   0  0  0  0  0  0  0  0  0  0  0  0
   34.2305   30.0019   39.6001 H   0  0  0  0  0  0  0  0  0  0  0  0
   34.6818   28.2633   39.6001 H   0  0  0  0  0  0  0  0  0  0  0  0
  1  2  1  0
  1 15  1  0
  2  3  1  0
  2  6  1  0
  3  4  2  0
  4  5  1  0
  5 10  1  0
  6  7  1  0
  6  5  2  0
  7  8  2  0
  9  7  1  0
 10 14  1  0
 11 12  1  0
 11 10  1  0
 12 13  1  0
 13 14  1  0
 15 20  1  0
 16 17  2  0
 18 17  1  0
 19 18  2  0
 20 19  1  0
 20 21  2  0
 21 16  1  0
 22 15  1  0
  1 23  1  0
  1 24  1  0
  4 25  1  0
  9 26  1  0
  9 27  1  0
 10 28  1  0
 11 29  1  0
 11 30  1  0
 12 31  1  0
 12 32  1  0
 13 33  1  0
 13 34  1  0
 14 35  1  0
 14 36  1  0
 15 37  1  1
 16 38  1  0
 17 39  1  0
 18 40  1  0
 22 41  1  0
 22 42  1  0
 22 43  1  0
M  ISO  8  23   8  24   8  25  14  28  13  29  13  30  13  31  13  32  13
M  ISO  8  33  13  34  13  35  13  36  13  37   8  38  14  39  14  40  14
M  ISO  3  41   8  42   8  43   8
M  END
>  <minimizedAffinity>  (1) 
-4.95718575

>  <minimizedRMSD>  (1) 
0.913528979

$$$$
