
     RDKit          3D

 35 37  0  0  1  0  0  0  0  0999 V2000
   37.2540   29.4500   39.0280 C   0  0  0  0  0  0  0  0  0  0  0  0
   38.5590   30.0450   39.2540 N   0  0  0  0  0  0  0  0  0  0  0  0
   39.7270   29.4670   39.3640 N   0  0  0  0  0  0  0  0  0  0  0  0
   40.7250   30.3070   39.5680 C   0  0  0  0  0  0  0  0  0  0  0  0
   40.1970   31.5680   39.6000 C   0  0  0  0  0  0  0  0  0  0  0  0
   38.8450   31.3490   39.4010 C   0  0  0  0  0  0  0  0  0  0  0  0
   40.9680   32.7960   39.8040 C   0  0  0  0  0  0  0  0  0  0  0  0
   41.1460   33.8740   39.0240 N   0  0  0  0  0  0  0  0  0  0  0  0
   41.9010   34.7460   39.5680 O   0  0  0  0  0  0  0  0  0  0  0  0
   42.2540   34.2770   40.7380 C   0  0  0  0  0  0  0  0  0  0  0  0
   41.6880   33.0750   40.9000 N   0  0  0  0  0  0  0  0  0  0  0  0
   37.8940   32.4340   39.3580 C   0  0  0  0  0  0  0  0  0  0  0  0
   37.4190   33.0390   40.3570 O   0  0  0  0  0  0  0  0  0  0  0  0
   37.3310   33.0020   38.1770 N   0  0  0  0  0  0  0  0  0  0  0  0
   36.3190   29.6180   40.2500 C   0  0  2  0  0  0  0  0  0  0  0  0
   37.9380   28.9610   43.4780 C   0  0  0  0  0  0  0  0  0  0  0  0
   37.7890   27.5170   43.5880 C   0  0  0  0  0  0  0  0  0  0  0  0
   37.1380   26.8310   42.5500 C   0  0  0  0  0  0  0  0  0  0  0  0
   36.6880   27.5910   41.4950 N   0  0  0  0  0  0  0  0  0  0  0  0
   36.8640   28.9530   41.4580 C   0  0  0  0  0  0  0  0  0  0  0  0
   37.4680   29.6480   42.4070 N   0  0  0  0  0  0  0  0  0  0  0  0
   34.9590   29.1670   39.9710 C   0  0  0  0  0  0  0  0  0  0  0  0
   36.7893   29.9342   38.1564 H   0  0  0  0  0  0  0  0  0  0  0  0
   37.3975   28.3730   38.8563 H   0  0  0  0  0  0  0  0  0  0  0  0
   41.7855   30.0415   39.6898 H   0  0  0  0  0  0  0  0  0  0  0  0
   42.9053   34.7846   41.4647 H   0  0  0  0  0  0  0  0  0  0  0  0
   36.6570   33.7775   38.2493 H   0  0  0  0  0  0  0  0  0  0  0  0
   37.5984   32.6366   37.2518 H   0  0  0  0  0  0  0  0  0  0  0  0
   36.2692   30.6972   40.4568 H   0  0  0  0  0  0  0  0  0  0  0  0
   38.4454   29.5097   44.2851 H   0  0  0  0  0  0  0  0  0  0  0  0
   38.1772   26.9761   44.4636 H   0  0  0  0  0  0  0  0  0  0  0  0
   36.9950   25.7407   42.5789 H   0  0  0  0  0  0  0  0  0  0  0  0
   34.4292   28.9913   40.9189 H   0  0  0  0  0  0  0  0  0  0  0  0
   34.4288   29.9374   39.3919 H   0  0  0  0  0  0  0  0  0  0  0  0
   34.9942   28.2324   39.3919 H   0  0  0  0  0  0  0  0  0  0  0  0
  1  2  1  0
  1 15  1  0
  2  3  1  0
  2  6  1  0
  3  4  2  0
  4  5  1  0
  5  7  1  0
  6  5  2  0
  7 11  1  0
  8  9  1  0
  8  7  2  0
  9 10  1  0
 10 11  2  0
 12  6  1  0
 12 13  2  0
 14 12  1  0
 15 20  1  0
 16 17  2  0
 18 17  1  0
 19 18  2  0
 20 19  1  0
 20 21  2  0
 21 16  1  0
 22 15  1  0
  1 23  1  0
  1 24  1  0
  4 25  1  0
 10 26  1  0
 14 27  1  0
 14 28  1  0
 15 29  1  1
 16 30  1  0
 17 31  1  0
 18 32  1  0
 22 33  1  0
 22 34  1  0
 22 35  1  0
M  ISO  8  23   8  24   8  25  14  26  14  29   8  30  14  31  14  32  14
M  ISO  3  33   8  34   8  35   8
M  END
>  <minimizedAffinity>  (1) 
-4.92433786

>  <minimizedRMSD>  (1) 
0.950362206

$$$$
