
     RDKit          3D

 43 46  0  0  1  0  0  0  0  0999 V2000
   37.7850   30.0760   39.6290 C   0  0  1  0  0  0  0  0  0  0  0  0
   37.2280   30.2440   38.1910 C   0  0  0  0  0  0  0  0  0  0  0  0
   35.7780   29.8220   38.3940 C   0  0  0  0  0  0  0  0  0  0  0  0
   35.7330   28.9930   39.6570 C   0  0  0  0  0  0  0  0  0  0  0  0
   37.2010   28.7640   40.0040 C   0  0  2  0  0  0  0  0  0  0  0  0
   40.7030   34.6750   39.8040 C   0  0  0  0  0  0  0  0  0  0  0  0
   39.4490   35.2440   40.1280 C   0  0  0  0  0  0  0  0  0  0  0  0
   38.3920   34.3810   40.3320 C   0  0  0  0  0  0  0  0  0  0  0  0
   38.6200   33.0480   40.2090 N   0  0  0  0  0  0  0  0  0  0  0  0
   39.7810   32.5150   39.9080 C   0  0  0  0  0  0  0  0  0  0  0  0
   40.8350   33.3440   39.7040 N   0  0  0  0  0  0  0  0  0  0  0  0
   40.0620   31.1290   39.7590 N   0  0  0  0  0  0  0  0  0  0  0  0
   41.3390   30.7680   39.7280 N   0  0  0  0  0  0  0  0  0  0  0  0
   41.4010   29.4140   39.5600 C   0  0  0  0  0  0  0  0  0  0  0  0
   40.0730   28.9910   39.4950 C   0  0  0  0  0  0  0  0  0  0  0  0
   39.2380   30.0970   39.6240 C   0  0  0  0  0  0  0  0  0  0  0  0
   37.2700   28.4460   41.4040 N   0  0  0  0  0  0  0  0  0  0  0  0
   37.3450   29.2460   42.4360 N   0  0  0  0  0  0  0  0  0  0  0  0
   37.3900   28.5830   43.6030 C   0  0  0  0  0  0  0  0  0  0  0  0
   37.3370   27.2490   43.2480 C   0  0  0  0  0  0  0  0  0  0  0  0
   37.2610   27.1600   41.8600 C   0  0  0  0  0  0  0  0  0  0  0  0
   37.1810   25.8560   41.2020 C   0  0  0  0  0  0  0  0  0  0  0  0
   36.9660   24.7270   42.1890 C   0  0  0  0  0  0  0  0  0  0  0  0
   37.5256   30.8743   40.3399 H   0  0  0  0  0  0  0  0  0  0  0  0
   37.7449   29.5856   37.4774 H   0  0  0  0  0  0  0  0  0  0  0  0
   37.3536   31.2522   37.7693 H   0  0  0  0  0  0  0  0  0  0  0  0
   35.1375   30.7098   38.5016 H   0  0  0  0  0  0  0  0  0  0  0  0
   35.4122   29.2450   37.5319 H   0  0  0  0  0  0  0  0  0  0  0  0
   35.2214   29.5381   40.4639 H   0  0  0  0  0  0  0  0  0  0  0  0
   35.1785   28.0522   39.5251 H   0  0  0  0  0  0  0  0  0  0  0  0
   37.7292   27.9395   39.5029 H   0  0  0  0  0  0  0  0  0  0  0  0
   41.5728   35.3264   39.6335 H   0  0  0  0  0  0  0  0  0  0  0  0
   39.3215   36.3332   40.2140 H   0  0  0  0  0  0  0  0  0  0  0  0
   37.3922   34.7622   40.5872 H   0  0  0  0  0  0  0  0  0  0  0  0
   42.3045   28.7904   39.4908 H   0  0  0  0  0  0  0  0  0  0  0  0
   39.7397   27.9510   39.3631 H   0  0  0  0  0  0  0  0  0  0  0  0
   37.4546   29.0075   44.6157 H   0  0  0  0  0  0  0  0  0  0  0  0
   37.3523   26.3985   43.9454 H   0  0  0  0  0  0  0  0  0  0  0  0
   36.3417   25.8692   40.4911 H   0  0  0  0  0  0  0  0  0  0  0  0
   38.1380   25.6779   40.6898 H   0  0  0  0  0  0  0  0  0  0  0  0
   37.0404   25.1175   43.2147 H   0  0  0  0  0  0  0  0  0  0  0  0
   35.9685   24.2899   42.0345 H   0  0  0  0  0  0  0  0  0  0  0  0
   37.7331   23.9538   42.0345 H   0  0  0  0  0  0  0  0  0  0  0  0
  1  5  1  0
  2  3  1  0
  2  1  1  0
  3  4  1  0
  4  5  1  0
  5 17  1  0
  6  7  2  0
  7  8  1  0
  9  8  2  0
 10  9  1  0
 11  6  1  0
 11 10  2  0
 12 10  1  0
 13 12  1  0
 14 13  2  0
 15 14  1  0
 15 16  2  0
 16  1  1  0
 16 12  1  0
 17 21  1  0
 17 18  1  0
 18 19  2  0
 20 19  1  0
 21 20  2  0
 22 21  1  0
 22 23  1  0
  1 24  1  1
  2 25  1  0
  2 26  1  0
  3 27  1  0
  3 28  1  0
  4 29  1  0
  4 30  1  0
  5 31  1  6
  6 32  1  0
  7 33  1  0
  8 34  1  0
 14 35  1  0
 15 36  1  0
 19 37  1  0
 20 38  1  0
 22 39  1  0
 22 40  1  0
 23 41  1  0
 23 42  1  0
 23 43  1  0
M  ISO  8  24  13  25  13  26  13  27  13  28  13  29  13  30  13  31  13
M  ISO  8  32  14  33  14  34  14  35  14  36  14  37  14  38  14  39   8
M  ISO  4  40   8  41   8  42   8  43   8
M  END
>  <minimizedAffinity>  (1) 
-5.80222607

>  <minimizedRMSD>  (1) 
1.24990833

$$$$
