
     RDKit          3D

 48 51  0  0  1  0  0  0  0  0999 V2000
   37.8230   28.8570   39.5660 C   0  0  1  0  0  0  0  0  0  0  0  0
   37.1910   28.8050   43.1820 C   0  0  0  0  0  0  0  0  0  0  0  0
   37.0470   27.3870   43.4210 C   0  0  0  0  0  0  0  0  0  0  0  0
   37.1700   26.5190   42.3450 C   0  0  0  0  0  0  0  0  0  0  0  0
   37.4230   27.0640   41.1130 N   0  0  0  0  0  0  0  0  0  0  0  0
   37.5520   28.4280   40.9490 C   0  0  0  0  0  0  0  0  0  0  0  0
   37.4420   29.2960   41.9430 N   0  0  0  0  0  0  0  0  0  0  0  0
   39.3180   29.1970   39.3450 C   0  0  0  0  0  0  0  0  0  0  0  0
   39.6590   30.5110   39.8500 N   0  0  0  0  0  0  0  0  0  0  0  0
   40.2690   30.8570   40.9660 N   0  0  0  0  0  0  0  0  0  0  0  0
   40.4220   32.1710   41.1170 C   0  0  0  0  0  0  0  0  0  0  0  0
   39.8730   32.7560   40.0190 C   0  0  0  0  0  0  0  0  0  0  0  0
   39.4140   31.6810   39.2650 C   0  0  0  0  0  0  0  0  0  0  0  0
   38.7580   31.9050   38.0060 C   0  0  0  0  0  0  0  0  0  0  0  0
   37.5190   31.9040   37.8000 O   0  0  0  0  0  0  0  0  0  0  0  0
   39.4310   32.1700   36.7640 N   0  0  0  0  0  0  0  0  0  0  0  0
   39.7920   34.1800   39.7180 C   0  0  0  0  0  0  0  0  0  0  0  0
   38.7890   34.8290   40.1390 O   0  0  0  0  0  0  0  0  0  0  0  0
   37.3190   27.8860   38.6150 C   0  0  0  0  0  0  0  0  0  0  0  0
   36.7530   28.3120   37.3460 C   0  0  0  0  0  0  0  0  0  0  0  0
   37.5670   28.4310   36.2110 C   0  0  0  0  0  0  0  0  0  0  0  0
   37.1640   28.8400   34.9560 C   0  0  0  0  0  0  0  0  0  0  0  0
   35.8290   29.1640   34.8040 C   0  0  0  0  0  0  0  0  0  0  0  0
   34.9590   29.0730   35.8720 C   0  0  0  0  0  0  0  0  0  0  0  0
   33.6100   29.3940   35.7200 C   0  0  0  0  0  0  0  0  0  0  0  0
   32.7430   29.2920   36.8070 C   0  0  0  0  0  0  0  0  0  0  0  0
   33.2090   28.8760   38.0320 C   0  0  0  0  0  0  0  0  0  0  0  0
   34.5540   28.5610   38.1680 C   0  0  0  0  0  0  0  0  0  0  0  0
   35.4270   28.6580   37.1010 C   0  0  0  0  0  0  0  0  0  0  0  0
   37.2751   29.7943   39.3890 H   0  0  0  0  0  0  0  0  0  0  0  0
   37.0946   29.5036   44.0262 H   0  0  0  0  0  0  0  0  0  0  0  0
   36.8446   27.0045   44.4323 H   0  0  0  0  0  0  0  0  0  0  0  0
   37.0680   25.4316   42.4763 H   0  0  0  0  0  0  0  0  0  0  0  0
   39.9327   28.4470   39.8643 H   0  0  0  0  0  0  0  0  0  0  0  0
   39.5101   29.1903   38.2619 H   0  0  0  0  0  0  0  0  0  0  0  0
   40.8996   32.6836   41.9650 H   0  0  0  0  0  0  0  0  0  0  0  0
   38.8845   32.3198   35.9039 H   0  0  0  0  0  0  0  0  0  0  0  0
   40.4598   32.2102   36.7341 H   0  0  0  0  0  0  0  0  0  0  0  0
   40.5831   34.6791   39.1391 H   0  0  0  0  0  0  0  0  0  0  0  0
   38.1584   27.2167   38.3753 H   0  0  0  0  0  0  0  0  0  0  0  0
   36.4508   27.4593   39.1386 H   0  0  0  0  0  0  0  0  0  0  0  0
   38.6295   28.1735   36.3323 H   0  0  0  0  0  0  0  0  0  0  0  0
   37.8718   28.9050   34.1165 H   0  0  0  0  0  0  0  0  0  0  0  0
   35.4567   29.4971   33.8240 H   0  0  0  0  0  0  0  0  0  0  0  0
   33.2305   29.7275   34.7429 H   0  0  0  0  0  0  0  0  0  0  0  0
   31.6798   29.5458   36.6840 H   0  0  0  0  0  0  0  0  0  0  0  0
   32.5265   28.7941   38.8908 H   0  0  0  0  0  0  0  0  0  0  0  0
   34.9329   28.2273   39.1453 H   0  0  0  0  0  0  0  0  0  0  0  0
  1  6  1  0
  2  3  2  0
  4  3  1  0
  5  4  2  0
  6  5  1  0
  6  7  2  0
  7  2  1  0
  8  1  1  0
  8  9  1  0
  9 10  1  0
 10 11  2  0
 12 11  1  0
 13  9  1  0
 13 12  2  0
 14 13  1  0
 15 14  2  0
 16 14  1  0
 17 12  1  0
 17 18  2  0
 19  1  1  0
 20 19  1  0
 21 20  2  0
 22 21  1  0
 23 22  2  0
 23 24  1  0
 24 29  2  0
 25 24  1  0
 25 26  2  0
 26 27  1  0
 27 28  2  0
 29 20  1  0
 29 28  1  0
  1 30  1  6
  2 31  1  0
  3 32  1  0
  4 33  1  0
  8 34  1  0
  8 35  1  0
 11 36  1  0
 16 37  1  0
 16 38  1  0
 17 39  1  0
 19 40  1  0
 19 41  1  0
 21 42  1  0
 22 43  1  0
 23 44  1  0
 25 45  1  0
 26 46  1  0
 27 47  1  0
 28 48  1  0
M  ISO  8  30   8  31  14  32  14  33  14  34   8  35   8  36  14  39   6
M  ISO  8  40   8  41   8  42  14  43  14  44  14  45  14  46  14  47  14
M  ISO  1  48  14
M  END
>  <minimizedAffinity>  (1) 
-5.73206902

>  <minimizedRMSD>  (1) 
2.78023267

$$$$
