
     RDKit          3D

 42 44  0  0  1  0  0  0  0  0999 V2000
   40.5550   31.3810   40.4280 C   0  0  1  0  0  0  0  0  0  0  0  0
   44.2070   31.1570   40.6920 C   0  0  0  0  0  0  0  0  0  0  0  0
   44.4400   31.7740   41.9710 C   0  0  0  0  0  0  0  0  0  0  0  0
   43.3360   32.2420   42.6940 C   0  0  0  0  0  0  0  0  0  0  0  0
   42.1130   32.0700   42.1120 N   0  0  0  0  0  0  0  0  0  0  0  0
   41.9610   31.4750   40.8890 C   0  0  0  0  0  0  0  0  0  0  0  0
   42.9720   31.0170   40.1690 N   0  0  0  0  0  0  0  0  0  0  0  0
   39.5570   31.5480   41.6010 C   0  0  0  0  0  0  0  0  0  0  0  0
   39.0520   30.2670   42.0800 N   0  0  0  0  0  0  0  0  0  0  0  0
   39.6180   29.4080   42.8950 N   0  0  0  0  0  0  0  0  0  0  0  0
   38.8740   28.3240   43.1310 C   0  0  0  0  0  0  0  0  0  0  0  0
   37.7290   28.4730   42.4220 C   0  0  0  0  0  0  0  0  0  0  0  0
   37.8880   29.7020   41.7830 C   0  0  0  0  0  0  0  0  0  0  0  0
   36.8680   30.2120   40.9250 C   0  0  0  0  0  0  0  0  0  0  0  0
   36.8290   30.1260   39.6760 O   0  0  0  0  0  0  0  0  0  0  0  0
   35.6970   30.9220   41.3850 N   0  0  0  0  0  0  0  0  0  0  0  0
   36.5990   27.5580   42.3490 C   0  0  0  0  0  0  0  0  0  0  0  0
   36.7790   26.3460   42.7060 O   0  0  0  0  0  0  0  0  0  0  0  0
   40.2790   32.2740   39.3230 C   0  0  0  0  0  0  0  0  0  0  0  0
   40.1530   33.6830   39.5250 N   0  0  0  0  0  0  0  0  0  0  0  0
   39.0420   34.3010   40.0050 C   0  0  0  0  0  0  0  0  0  0  0  0
   38.8980   35.6520   40.2400 C   0  0  0  0  0  0  0  0  0  0  0  0
   39.9660   36.4710   39.9720 C   0  0  0  0  0  0  0  0  0  0  0  0
   39.8860   37.7060   40.1680 O   0  0  0  0  0  0  0  0  0  0  0  0
   41.0860   35.9010   39.4970 N   0  0  0  0  0  0  0  0  0  0  0  0
   41.1360   34.5740   39.2980 C   0  0  0  0  0  0  0  0  0  0  0  0
   42.2510   34.1970   38.8540 O   0  0  0  0  0  0  0  0  0  0  0  0
   40.4087   30.3641   40.0350 H   0  0  0  0  0  0  0  0  0  0  0  0
   45.0693   30.7854   40.1190 H   0  0  0  0  0  0  0  0  0  0  0  0
   45.4598   31.8754   42.3706 H   0  0  0  0  0  0  0  0  0  0  0  0
   43.4480   32.7221   43.6773 H   0  0  0  0  0  0  0  0  0  0  0  0
   40.0671   32.0603   42.4301 H   0  0  0  0  0  0  0  0  0  0  0  0
   38.7006   32.1336   41.2354 H   0  0  0  0  0  0  0  0  0  0  0  0
   39.1397   27.4740   43.7767 H   0  0  0  0  0  0  0  0  0  0  0  0
   35.0010   31.2619   40.7060 H   0  0  0  0  0  0  0  0  0  0  0  0
   35.5580   31.0883   42.3919 H   0  0  0  0  0  0  0  0  0  0  0  0
   35.6159   27.9022   41.9954 H   0  0  0  0  0  0  0  0  0  0  0  0
   39.3311   31.9365   38.8784 H   0  0  0  0  0  0  0  0  0  0  0  0
   41.1951   32.1989   38.7188 H   0  0  0  0  0  0  0  0  0  0  0  0
   38.1745   33.6623   40.2274 H   0  0  0  0  0  0  0  0  0  0  0  0
   37.9547   36.0613   40.6308 H   0  0  0  0  0  0  0  0  0  0  0  0
   41.9086   36.4835   39.2849 H   0  0  0  0  0  0  0  0  0  0  0  0
  1  6  1  0
  1  8  1  0
  2  3  2  0
  3  4  1  0
  5  4  2  0
  6  5  1  0
  7  2  1  0
  7  6  2  0
  8  9  1  0
  9 10  1  0
 10 11  2  0
 12 11  1  0
 13  9  1  0
 13 12  2  0
 14 16  1  0
 14 13  1  0
 15 14  2  0
 17 12  1  0
 17 18  2  0
 19 20  1  0
 19  1  1  0
 20 21  1  0
 21 22  2  0
 23 24  2  0
 23 22  1  0
 25 23  1  0
 26 25  1  0
 26 20  1  0
 27 26  2  0
  1 28  1  6
  2 29  1  0
  3 30  1  0
  4 31  1  0
  8 32  1  0
  8 33  1  0
 11 34  1  0
 16 35  1  0
 16 36  1  0
 17 37  1  0
 19 38  1  0
 19 39  1  0
 21 40  1  0
 22 41  1  0
 25 42  1  0
M  ISO  8  28   8  29  14  30  14  31  14  32   8  33   8  34  14  37   6
M  ISO  5  38   8  39   8  40  14  41  14  42   9
M  END
>  <minimizedAffinity>  (1) 
-5.69654799

>  <minimizedRMSD>  (1) 
7.80455732

$$$$
