
     RDKit          3D

 48 50  0  0  1  0  0  0  0  0999 V2000
   37.8670   29.2710   39.9000 C   0  0  1  0  0  0  0  0  0  0  0  0
   37.5800   28.8230   43.5470 C   0  0  0  0  0  0  0  0  0  0  0  0
   37.2310   27.4270   43.6370 C   0  0  0  0  0  0  0  0  0  0  0  0
   37.1070   26.6890   42.4530 C   0  0  0  0  0  0  0  0  0  0  0  0
   37.3280   27.3590   41.2890 N   0  0  0  0  0  0  0  0  0  0  0  0
   37.6590   28.6990   41.2650 C   0  0  0  0  0  0  0  0  0  0  0  0
   37.7860   29.4330   42.3640 N   0  0  0  0  0  0  0  0  0  0  0  0
   39.3620   29.5170   39.6210 C   0  0  0  0  0  0  0  0  0  0  0  0
   39.8030   30.8410   40.0520 N   0  0  0  0  0  0  0  0  0  0  0  0
   40.5400   31.1940   41.0700 N   0  0  0  0  0  0  0  0  0  0  0  0
   40.7490   32.5060   41.1600 C   0  0  0  0  0  0  0  0  0  0  0  0
   40.1010   33.0780   40.1220 C   0  0  0  0  0  0  0  0  0  0  0  0
   39.5200   31.9980   39.4510 C   0  0  0  0  0  0  0  0  0  0  0  0
   38.7380   32.2090   38.2750 C   0  0  0  0  0  0  0  0  0  0  0  0
   37.4980   32.3630   38.2220 O   0  0  0  0  0  0  0  0  0  0  0  0
   39.2760   32.2800   36.9370 N   0  0  0  0  0  0  0  0  0  0  0  0
   40.0270   34.4910   39.7850 C   0  0  0  0  0  0  0  0  0  0  0  0
   39.0540   35.1720   40.2540 O   0  0  0  0  0  0  0  0  0  0  0  0
   37.2370   28.4400   38.8990 C   0  0  0  0  0  0  0  0  0  0  0  0
   36.0020   29.0030   38.2530 C   0  0  0  0  0  0  0  0  0  0  0  0
   36.2290   29.4070   36.8230 C   0  0  0  0  0  0  0  0  0  0  0  0
   35.1580   29.1490   35.8580 C   0  0  0  0  0  0  0  0  0  0  0  0
   33.7940   28.8770   36.3670 C   0  0  0  0  0  0  0  0  0  0  0  0
   33.6530   28.9910   37.8620 C   0  0  0  0  0  0  0  0  0  0  0  0
   34.7910   28.1010   38.3920 C   0  0  0  0  0  0  0  0  0  0  0  0
   37.3791   30.2556   39.8510 H   0  0  0  0  0  0  0  0  0  0  0  0
   37.6811   29.4079   44.4731 H   0  0  0  0  0  0  0  0  0  0  0  0
   37.0656   26.9515   44.6150 H   0  0  0  0  0  0  0  0  0  0  0  0
   36.8441   25.6209   42.4633 H   0  0  0  0  0  0  0  0  0  0  0  0
   39.9501   28.7578   40.1574 H   0  0  0  0  0  0  0  0  0  0  0  0
   39.5130   29.4531   38.5333 H   0  0  0  0  0  0  0  0  0  0  0  0
   41.3367   33.0246   41.9318 H   0  0  0  0  0  0  0  0  0  0  0  0
   38.6467   32.4351   36.1365 H   0  0  0  0  0  0  0  0  0  0  0  0
   40.2891   32.1755   36.7831 H   0  0  0  0  0  0  0  0  0  0  0  0
   40.7881   34.9599   39.1440 H   0  0  0  0  0  0  0  0  0  0  0  0
   37.9752   28.2518   38.1055 H   0  0  0  0  0  0  0  0  0  0  0  0
   36.9057   27.5363   39.4315 H   0  0  0  0  0  0  0  0  0  0  0  0
   35.7742   29.9203   38.8158 H   0  0  0  0  0  0  0  0  0  0  0  0
   36.4222   30.4899   36.8156 H   0  0  0  0  0  0  0  0  0  0  0  0
   37.0614   28.7715   36.4865 H   0  0  0  0  0  0  0  0  0  0  0  0
   35.4618   28.2754   35.2626 H   0  0  0  0  0  0  0  0  0  0  0  0
   35.0555   30.0983   35.3118 H   0  0  0  0  0  0  0  0  0  0  0  0
   33.1034   29.5950   35.9007 H   0  0  0  0  0  0  0  0  0  0  0  0
   33.5655   27.8323   36.1092 H   0  0  0  0  0  0  0  0  0  0  0  0
   33.7807   30.0326   38.1919 H   0  0  0  0  0  0  0  0  0  0  0  0
   32.6611   28.6850   38.2261 H   0  0  0  0  0  0  0  0  0  0  0  0
   34.9007   27.1911   37.7837 H   0  0  0  0  0  0  0  0  0  0  0  0
   34.6262   27.7419   39.4186 H   0  0  0  0  0  0  0  0  0  0  0  0
  1  6  1  0
  2  3  2  0
  4  3  1  0
  5  4  2  0
  6  5  1  0
  6  7  2  0
  7  2  1  0
  8  1  1  0
  8  9  1  0
  9 10  1  0
 10 11  2  0
 12 11  1  0
 13  9  1  0
 13 12  2  0
 14 13  1  0
 15 14  2  0
 16 14  1  0
 17 12  1  0
 17 18  2  0
 19  1  1  0
 20 25  1  0
 20 19  1  0
 21 20  1  0
 22 23  1  0
 22 21  1  0
 23 24  1  0
 24 25  1  0
  1 26  1  1
  2 27  1  0
  3 28  1  0
  4 29  1  0
  8 30  1  0
  8 31  1  0
 11 32  1  0
 16 33  1  0
 16 34  1  0
 17 35  1  0
 19 36  1  0
 19 37  1  0
 20 38  1  0
 21 39  1  0
 21 40  1  0
 22 41  1  0
 22 42  1  0
 23 43  1  0
 23 44  1  0
 24 45  1  0
 24 46  1  0
 25 47  1  0
 25 48  1  0
M  ISO  8  26   8  27  14  28  14  29  14  30   8  31   8  32  14  35   6
M  ISO  8  36   8  37   8  38  13  39  13  40  13  41  13  42  13  43  13
M  ISO  5  44  13  45  13  46  13  47  13  48  13
M  END
>  <minimizedAffinity>  (1) 
-5.26884937

>  <minimizedRMSD>  (1) 
1.911538

$$$$
