
     RDKit          3D

 45 47  0  0  1  0  0  0  0  0999 V2000
   37.5840   29.3800   40.0590 C   0  0  1  0  0  0  0  0  0  0  0  0
   37.5550   28.8630   43.6880 C   0  0  0  0  0  0  0  0  0  0  0  0
   37.1260   27.4870   43.7820 C   0  0  0  0  0  0  0  0  0  0  0  0
   36.8660   26.7920   42.6070 C   0  0  0  0  0  0  0  0  0  0  0  0
   37.0360   27.4730   41.4210 N   0  0  0  0  0  0  0  0  0  0  0  0
   37.4490   28.7900   41.4080 C   0  0  0  0  0  0  0  0  0  0  0  0
   37.7090   29.4920   42.5040 N   0  0  0  0  0  0  0  0  0  0  0  0
   39.0720   29.4100   39.6020 C   0  0  0  0  0  0  0  0  0  0  0  0
   39.7210   30.6620   39.9480 N   0  0  0  0  0  0  0  0  0  0  0  0
   40.5220   30.9470   40.9510 N   0  0  0  0  0  0  0  0  0  0  0  0
   40.9440   32.2090   40.9700 C   0  0  0  0  0  0  0  0  0  0  0  0
   40.3890   32.8220   39.9030 C   0  0  0  0  0  0  0  0  0  0  0  0
   39.6340   31.8180   39.2940 C   0  0  0  0  0  0  0  0  0  0  0  0
   38.8830   32.0880   38.1070 C   0  0  0  0  0  0  0  0  0  0  0  0
   37.6510   32.2900   38.0340 O   0  0  0  0  0  0  0  0  0  0  0  0
   39.4500   32.1720   36.7810 N   0  0  0  0  0  0  0  0  0  0  0  0
   40.5460   34.2100   39.4880 C   0  0  0  0  0  0  0  0  0  0  0  0
   39.7040   35.0650   39.9090 O   0  0  0  0  0  0  0  0  0  0  0  0
   36.7450   28.6880   39.1010 C   0  0  0  0  0  0  0  0  0  0  0  0
   35.6430   29.4390   38.4640 C   0  0  0  0  0  0  0  0  0  0  0  0
   35.8750   29.3870   36.9510 C   0  0  0  0  0  0  0  0  0  0  0  0
   34.7580   28.5120   36.4020 C   0  0  0  0  0  0  0  0  0  0  0  0
   33.5950   28.9600   37.2900 C   0  0  0  0  0  0  0  0  0  0  0  0
   34.2840   28.8510   38.6580 C   0  0  0  0  0  0  0  0  0  0  0  0
   37.2367   30.4225   40.1103 H   0  0  0  0  0  0  0  0  0  0  0  0
   37.7636   29.4180   44.6145 H   0  0  0  0  0  0  0  0  0  0  0  0
   37.0078   27.0003   44.7614 H   0  0  0  0  0  0  0  0  0  0  0  0
   36.5382   25.7421   42.6229 H   0  0  0  0  0  0  0  0  0  0  0  0
   39.1112   29.2792   38.5105 H   0  0  0  0  0  0  0  0  0  0  0  0
   39.6032   28.5972   40.1189 H   0  0  0  0  0  0  0  0  0  0  0  0
   41.6157   32.6648   41.7123 H   0  0  0  0  0  0  0  0  0  0  0  0
   38.8430   32.3706   35.9730 H   0  0  0  0  0  0  0  0  0  0  0  0
   40.4613   32.0333   36.6436 H   0  0  0  0  0  0  0  0  0  0  0  0
   41.3723   34.5107   38.8270 H   0  0  0  0  0  0  0  0  0  0  0  0
   37.4008   28.3260   38.2954 H   0  0  0  0  0  0  0  0  0  0  0  0
   36.2380   27.9127   39.6942 H   0  0  0  0  0  0  0  0  0  0  0  0
   35.6568   30.4397   38.9205 H   0  0  0  0  0  0  0  0  0  0  0  0
   35.8211   30.3969   36.5182 H   0  0  0  0  0  0  0  0  0  0  0  0
   36.8688   28.9863   36.7026 H   0  0  0  0  0  0  0  0  0  0  0  0
   34.5625   28.7210   35.3399 H   0  0  0  0  0  0  0  0  0  0  0  0
   34.9657   27.4321   36.4270 H   0  0  0  0  0  0  0  0  0  0  0  0
   33.2790   29.9900   37.0679 H   0  0  0  0  0  0  0  0  0  0  0  0
   32.6654   28.3823   37.1804 H   0  0  0  0  0  0  0  0  0  0  0  0
   34.3605   27.7983   38.9679 H   0  0  0  0  0  0  0  0  0  0  0  0
   33.7196   29.3744   39.4438 H   0  0  0  0  0  0  0  0  0  0  0  0
  1  6  1  0
  2  3  2  0
  4  3  1  0
  5  4  2  0
  6  5  1  0
  6  7  2  0
  7  2  1  0
  8  9  1  0
  8  1  1  0
  9 10  1  0
 10 11  2  0
 12 11  1  0
 13 12  2  0
 13  9  1  0
 14 13  1  0
 15 14  2  0
 16 14  1  0
 17 12  1  0
 17 18  2  0
 19  1  1  0
 20 24  1  0
 20 19  1  0
 21 20  1  0
 22 21  1  0
 22 23  1  0
 23 24  1  0
  1 25  1  1
  2 26  1  0
  3 27  1  0
  4 28  1  0
  8 29  1  0
  8 30  1  0
 11 31  1  0
 16 32  1  0
 16 33  1  0
 17 34  1  0
 19 35  1  0
 19 36  1  0
 20 37  1  0
 21 38  1  0
 21 39  1  0
 22 40  1  0
 22 41  1  0
 23 42  1  0
 23 43  1  0
 24 44  1  0
 24 45  1  0
M  ISO  8  25   8  26  14  27  14  28  14  29   8  30   8  31  14  34   6
M  ISO  8  35   8  36   8  37  13  38  13  39  13  40  13  41  13  42  13
M  ISO  3  43  13  44  13  45  13
M  END
>  <minimizedAffinity>  (1) 
-5.23404169

>  <minimizedRMSD>  (1) 
1.65280914

$$$$
