
     RDKit          3D

 45 47  0  0  1  0  0  0  0  0999 V2000
   36.7420   29.5540   40.2420 C   0  0  1  0  0  0  0  0  0  0  0  0
   37.8740   29.0780   43.6920 C   0  0  0  0  0  0  0  0  0  0  0  0
   37.2900   27.7940   44.0090 C   0  0  0  0  0  0  0  0  0  0  0  0
   36.5390   27.1510   43.0320 C   0  0  0  0  0  0  0  0  0  0  0  0
   36.4100   27.7920   41.8320 N   0  0  0  0  0  0  0  0  0  0  0  0
   36.9850   29.0100   41.5890 C   0  0  0  0  0  0  0  0  0  0  0  0
   37.7100   29.6630   42.4860 N   0  0  0  0  0  0  0  0  0  0  0  0
   37.8730   29.1530   39.2470 C   0  0  0  0  0  0  0  0  0  0  0  0
   39.0070   30.0570   39.3240 N   0  0  0  0  0  0  0  0  0  0  0  0
   40.1750   29.8980   39.9100 N   0  0  0  0  0  0  0  0  0  0  0  0
   40.9950   30.9410   39.7840 C   0  0  0  0  0  0  0  0  0  0  0  0
   40.3320   31.8760   39.0580 C   0  0  0  0  0  0  0  0  0  0  0  0
   39.1000   31.2810   38.7950 C   0  0  0  0  0  0  0  0  0  0  0  0
   38.1070   31.9730   38.0390 C   0  0  0  0  0  0  0  0  0  0  0  0
   37.1510   32.6490   38.4970 O   0  0  0  0  0  0  0  0  0  0  0  0
   38.0500   32.0010   36.5950 N   0  0  0  0  0  0  0  0  0  0  0  0
   40.8050   33.1920   38.6530 C   0  0  0  0  0  0  0  0  0  0  0  0
   40.4950   34.1980   39.3820 O   0  0  0  0  0  0  0  0  0  0  0  0
   35.4410   29.1810   39.7190 C   0  0  0  0  0  0  0  0  0  0  0  0
   35.1310   27.6260   35.7200 C   0  0  0  0  0  0  0  0  0  0  0  0
   35.1280   28.9800   35.9980 C   0  0  0  0  0  0  0  0  0  0  0  0
   35.2400   29.4030   37.3020 C   0  0  0  0  0  0  0  0  0  0  0  0
   35.3580   28.5360   38.3960 C   0  0  0  0  0  0  0  0  0  0  0  0
   35.3550   27.1940   38.0760 C   0  0  0  0  0  0  0  0  0  0  0  0
   35.2440   26.7590   36.7730 C   0  0  0  0  0  0  0  0  0  0  0  0
   34.9920   27.0440   34.0840 S   0  0  0  0  0  0  0  0  0  0  0  0
   35.7520   25.7650   33.9530 O   0  0  0  0  0  0  0  0  0  0  0  0
   33.5790   26.8770   33.6630 O   0  0  0  0  0  0  0  0  0  0  0  0
   36.7496   30.6490   40.3464 H   0  0  0  0  0  0  0  0  0  0  0  0
   38.4710   29.5950   44.4577 H   0  0  0  0  0  0  0  0  0  0  0  0
   37.4364   27.3372   44.9989 H   0  0  0  0  0  0  0  0  0  0  0  0
   36.0708   26.1728   43.2160 H   0  0  0  0  0  0  0  0  0  0  0  0
   37.4703   29.1739   38.2236 H   0  0  0  0  0  0  0  0  0  0  0  0
   38.2217   28.1448   39.5152 H   0  0  0  0  0  0  0  0  0  0  0  0
   42.0135   31.0273   40.1905 H   0  0  0  0  0  0  0  0  0  0  0  0
   38.7585   31.4982   36.0418 H   0  0  0  0  0  0  0  0  0  0  0  0
   37.3008   32.5238   36.1192 H   0  0  0  0  0  0  0  0  0  0  0  0
   41.4126   33.3187   37.7448 H   0  0  0  0  0  0  0  0  0  0  0  0
   34.9894   28.4877   40.4439 H   0  0  0  0  0  0  0  0  0  0  0  0
   34.9302   30.1444   39.5740 H   0  0  0  0  0  0  0  0  0  0  0  0
   35.0368   29.7132   35.1831 H   0  0  0  0  0  0  0  0  0  0  0  0
   35.2367   30.4855   37.4973 H   0  0  0  0  0  0  0  0  0  0  0  0
   35.4436   26.4513   38.8825 H   0  0  0  0  0  0  0  0  0  0  0  0
   35.2463   25.6775   36.5723 H   0  0  0  0  0  0  0  0  0  0  0  0
   35.5300   27.9832   33.2441 H   0  0  0  0  0  0  0  0  0  0  0  0
  1  6  1  0
  2  3  2  0
  4  3  1  0
  5  4  2  0
  6  5  1  0
  6  7  2  0
  7  2  1  0
  8  9  1  0
  8  1  1  0
  9 10  1  0
 11 10  2  0
 12 11  1  0
 13 12  2  0
 13  9  1  0
 14 15  2  0
 14 13  1  0
 16 14  1  0
 17 12  1  0
 17 18  2  0
 19  1  1  0
 20 21  2  0
 20 25  1  0
 21 22  1  0
 22 23  2  0
 23 19  1  0
 24 23  1  0
 25 24  2  0
 26 20  1  0
 27 26  2  0
 28 26  2  0
  1 29  1  1
  2 30  1  0
  3 31  1  0
  4 32  1  0
  8 33  1  0
  8 34  1  0
 11 35  1  0
 16 36  1  0
 16 37  1  0
 17 38  1  0
 19 39  1  0
 19 40  1  0
 21 41  1  0
 22 42  1  0
 24 43  1  0
 25 44  1  0
 26 45  1  0
M  ISO  8  29   8  30  14  31  14  32  14  33   8  34   8  35  14  38   6
M  ISO  7  39   8  40   8  41  14  42  14  43  14  44  14  45  11
M  END
>  <minimizedAffinity>  (1) 
-5.03242636

>  <minimizedRMSD>  (1) 
2.70649624

$$$$
