
     RDKit          3D

 40 42  0  0  1  0  0  0  0  0999 V2000
   36.6640   29.3520   40.0750 C   0  0  1  0  0  0  0  0  0  0  0  0
   37.7810   29.1170   43.5810 C   0  0  0  0  0  0  0  0  0  0  0  0
   37.4160   27.7520   43.9000 C   0  0  0  0  0  0  0  0  0  0  0  0
   36.8080   26.9760   42.9100 C   0  0  0  0  0  0  0  0  0  0  0  0
   36.5930   27.5600   41.6930 N   0  0  0  0  0  0  0  0  0  0  0  0
   36.9680   28.8760   41.4530 C   0  0  0  0  0  0  0  0  0  0  0  0
   37.5480   29.6440   42.3650 N   0  0  0  0  0  0  0  0  0  0  0  0
   37.8000   29.0090   39.1010 C   0  0  0  0  0  0  0  0  0  0  0  0
   38.9340   29.9170   39.2240 N   0  0  0  0  0  0  0  0  0  0  0  0
   40.0870   29.7190   39.8250 N   0  0  0  0  0  0  0  0  0  0  0  0
   40.9110   30.7640   39.7520 C   0  0  0  0  0  0  0  0  0  0  0  0
   40.2660   31.7270   39.0560 C   0  0  0  0  0  0  0  0  0  0  0  0
   39.0350   31.1530   38.7480 C   0  0  0  0  0  0  0  0  0  0  0  0
   38.0530   31.8720   38.0040 C   0  0  0  0  0  0  0  0  0  0  0  0
   37.0890   32.5250   38.4700 O   0  0  0  0  0  0  0  0  0  0  0  0
   38.0060   31.9670   36.5640 N   0  0  0  0  0  0  0  0  0  0  0  0
   40.7420   33.0630   38.7070 C   0  0  0  0  0  0  0  0  0  0  0  0
   40.4090   34.0380   39.4730 O   0  0  0  0  0  0  0  0  0  0  0  0
   35.3690   28.8830   39.6400 C   0  0  0  0  0  0  0  0  0  0  0  0
   34.9690   28.9740   38.2370 C   0  0  0  0  0  0  0  0  0  0  0  0
   35.5830   29.1370   37.0210 C   0  0  0  0  0  0  0  0  0  0  0  0
   34.9010   29.2130   35.8330 C   0  0  0  0  0  0  0  0  0  0  0  0
   33.5600   29.1250   35.8710 N   0  0  0  0  0  0  0  0  0  0  0  0
   32.9210   28.9680   37.0210 C   0  0  0  0  0  0  0  0  0  0  0  0
   33.6030   28.8960   38.1600 N   0  0  0  0  0  0  0  0  0  0  0  0
   36.6039   30.4503   40.0881 H   0  0  0  0  0  0  0  0  0  0  0  0
   38.2605   29.7381   44.3519 H   0  0  0  0  0  0  0  0  0  0  0  0
   37.6130   27.3359   44.8990 H   0  0  0  0  0  0  0  0  0  0  0  0
   36.5133   25.9339   43.1027 H   0  0  0  0  0  0  0  0  0  0  0  0
   37.4125   29.0657   38.0731 H   0  0  0  0  0  0  0  0  0  0  0  0
   38.1546   27.9965   39.3442 H   0  0  0  0  0  0  0  0  0  0  0  0
   41.9233   30.8303   40.1772 H   0  0  0  0  0  0  0  0  0  0  0  0
   38.7202   31.4929   35.9930 H   0  0  0  0  0  0  0  0  0  0  0  0
   37.2582   32.5088   36.1078 H   0  0  0  0  0  0  0  0  0  0  0  0
   41.3659   33.2285   37.8163 H   0  0  0  0  0  0  0  0  0  0  0  0
   35.3136   27.8188   39.9129 H   0  0  0  0  0  0  0  0  0  0  0  0
   34.6790   29.5824   40.1347 H   0  0  0  0  0  0  0  0  0  0  0  0
   36.6803   29.2107   36.9973 H   0  0  0  0  0  0  0  0  0  0  0  0
   35.4344   29.3418   34.8797 H   0  0  0  0  0  0  0  0  0  0  0  0
   31.8234   28.8970   37.0334 H   0  0  0  0  0  0  0  0  0  0  0  0
  1  6  1  0
  2  3  2  0
  4  3  1  0
  5  4  2  0
  6  5  1  0
  6  7  2  0
  7  2  1  0
  8  9  1  0
  8  1  1  0
  9 10  1  0
 11 10  2  0
 12 11  1  0
 13 12  2  0
 13  9  1  0
 14 15  2  0
 14 13  1  0
 16 14  1  0
 17 12  1  0
 17 18  2  0
 19  1  1  0
 20 19  1  0
 21 20  2  0
 22 23  2  0
 22 21  1  0
 23 24  1  0
 24 25  2  0
 25 20  1  0
  1 26  1  1
  2 27  1  0
  3 28  1  0
  4 29  1  0
  8 30  1  0
  8 31  1  0
 11 32  1  0
 16 33  1  0
 16 34  1  0
 17 35  1  0
 19 36  1  0
 19 37  1  0
 21 38  1  0
 22 39  1  0
 24 40  1  0
M  ISO  8  26   8  27  14  28  14  29  14  30   8  31   8  32  14  35   6
M  ISO  5  36   8  37   8  38  14  39  14  40  14
M  END
>  <minimizedAffinity>  (1) 
-4.99973536

>  <minimizedRMSD>  (1) 
1.52566922

$$$$
