
     RDKit          3D

 40 43  0  0  1  0  0  0  0  0999 V2000
   38.2900   30.6420   39.5290 C   0  0  1  0  0  0  0  0  0  0  0  0
   37.7080   30.7850   38.0970 C   0  0  0  0  0  0  0  0  0  0  0  0
   36.2930   30.2490   38.3140 C   0  0  0  0  0  0  0  0  0  0  0  0
   36.3400   29.3980   39.5640 C   0  0  0  0  0  0  0  0  0  0  0  0
   37.8190   29.2830   39.8840 C   0  0  2  0  0  0  0  0  0  0  0  0
   40.8400   35.4520   39.7170 C   0  0  0  0  0  0  0  0  0  0  0  0
   39.5520   35.9180   40.0670 C   0  0  0  0  0  0  0  0  0  0  0  0
   38.5710   34.9700   40.2770 C   0  0  0  0  0  0  0  0  0  0  0  0
   38.8980   33.6620   40.1360 N   0  0  0  0  0  0  0  0  0  0  0  0
   40.0970   33.2240   39.8080 C   0  0  0  0  0  0  0  0  0  0  0  0
   41.0790   34.1390   39.5970 N   0  0  0  0  0  0  0  0  0  0  0  0
   40.4880   31.8680   39.6360 N   0  0  0  0  0  0  0  0  0  0  0  0
   41.7900   31.6180   39.5820 N   0  0  0  0  0  0  0  0  0  0  0  0
   41.9520   30.2670   39.3970 C   0  0  0  0  0  0  0  0  0  0  0  0
   40.6590   29.7250   39.3430 C   0  0  0  0  0  0  0  0  0  0  0  0
   39.7470   30.7780   39.5010 C   0  0  0  0  0  0  0  0  0  0  0  0
   37.9350   28.9490   41.2780 N   0  0  0  0  0  0  0  0  0  0  0  0
   37.5900   29.6450   42.3310 N   0  0  0  0  0  0  0  0  0  0  0  0
   37.8590   28.9860   43.4780 C   0  0  0  0  0  0  0  0  0  0  0  0
   38.4170   27.7820   43.0910 C   0  0  0  0  0  0  0  0  0  0  0  0
   38.4560   27.7750   41.7230 C   0  0  0  0  0  0  0  0  0  0  0  0
   38.9850   26.6610   40.9140 C   0  0  0  0  0  0  0  0  0  0  0  0
   37.9755   31.4029   40.2584 H   0  0  0  0  0  0  0  0  0  0  0  0
   38.2654   30.1762   37.3699 H   0  0  0  0  0  0  0  0  0  0  0  0
   37.7531   31.8037   37.6845 H   0  0  0  0  0  0  0  0  0  0  0  0
   35.5879   31.0825   38.4486 H   0  0  0  0  0  0  0  0  0  0  0  0
   35.9538   29.6625   37.4474 H   0  0  0  0  0  0  0  0  0  0  0  0
   35.7998   29.8864   40.3884 H   0  0  0  0  0  0  0  0  0  0  0  0
   35.8631   28.4169   39.4226 H   0  0  0  0  0  0  0  0  0  0  0  0
   38.4023   28.5125   39.3586 H   0  0  0  0  0  0  0  0  0  0  0  0
   41.6522   36.1728   39.5418 H   0  0  0  0  0  0  0  0  0  0  0  0
   39.3402   36.9927   40.1679 H   0  0  0  0  0  0  0  0  0  0  0  0
   37.5487   35.2686   40.5521 H   0  0  0  0  0  0  0  0  0  0  0  0
   42.9026   29.7206   39.3090 H   0  0  0  0  0  0  0  0  0  0  0  0
   40.4061   28.6638   39.2019 H   0  0  0  0  0  0  0  0  0  0  0  0
   37.6732   29.3340   44.5048 H   0  0  0  0  0  0  0  0  0  0  0  0
   38.7648   26.9794   43.7580 H   0  0  0  0  0  0  0  0  0  0  0  0
   39.3605   25.8702   41.5800 H   0  0  0  0  0  0  0  0  0  0  0  0
   38.1832   26.2557   40.2793 H   0  0  0  0  0  0  0  0  0  0  0  0
   39.8058   27.0263   40.2793 H   0  0  0  0  0  0  0  0  0  0  0  0
  1  5  1  0
  2  3  1  0
  2  1  1  0
  3  4  1  0
  4  5  1  0
  5 17  1  0
  6  7  2  0
  7  8  1  0
  9  8  2  0
 10  9  1  0
 11  6  1  0
 11 10  2  0
 12 10  1  0
 13 12  1  0
 14 13  2  0
 15 14  1  0
 15 16  2  0
 16  1  1  0
 16 12  1  0
 17 21  1  0
 17 18  1  0
 18 19  2  0
 20 19  1  0
 21 20  2  0
 22 21  1  0
  1 23  1  1
  2 24  1  0
  2 25  1  0
  3 26  1  0
  3 27  1  0
  4 28  1  0
  4 29  1  0
  5 30  1  6
  6 31  1  0
  7 32  1  0
  8 33  1  0
 14 34  1  0
 15 35  1  0
 19 36  1  0
 20 37  1  0
 22 38  1  0
 22 39  1  0
 22 40  1  0
M  ISO  8  23  13  24  13  25  13  26  13  27  13  28  13  29  13  30  13
M  ISO  8  31  14  32  14  33  14  34  14  35  14  36  14  37  14  38   8
M  ISO  2  39   8  40   8
M  END
>  <minimizedAffinity>  (1) 
-5.59895658

>  <minimizedRMSD>  (1) 
0.0450413339

$$$$
