
     RDKit          3D

 39 41  0  0  1  0  0  0  0  0999 V2000
   37.6950   28.8010   39.4240 C   0  0  1  0  0  0  0  0  0  0  0  0
   36.8140   27.8710   42.8550 C   0  0  0  0  0  0  0  0  0  0  0  0
   36.9550   26.4370   42.8070 C   0  0  0  0  0  0  0  0  0  0  0  0
   37.3430   25.8510   41.6060 C   0  0  0  0  0  0  0  0  0  0  0  0
   37.5610   26.6960   40.5570 N   0  0  0  0  0  0  0  0  0  0  0  0
   37.4120   28.0520   40.6620 C   0  0  0  0  0  0  0  0  0  0  0  0
   37.0460   28.6550   41.7780 N   0  0  0  0  0  0  0  0  0  0  0  0
   39.1970   29.2020   39.3210 C   0  0  0  0  0  0  0  0  0  0  0  0
   39.4540   30.5020   39.9080 N   0  0  0  0  0  0  0  0  0  0  0  0
   39.8940   30.8100   41.1110 N   0  0  0  0  0  0  0  0  0  0  0  0
   40.0210   32.1220   41.3260 C   0  0  0  0  0  0  0  0  0  0  0  0
   39.6360   32.7430   40.1810 C   0  0  0  0  0  0  0  0  0  0  0  0
   39.2930   31.6940   39.3300 C   0  0  0  0  0  0  0  0  0  0  0  0
   38.8300   31.9580   38.0060 C   0  0  0  0  0  0  0  0  0  0  0  0
   37.6350   31.9670   37.6170 O   0  0  0  0  0  0  0  0  0  0  0  0
   39.6910   32.2630   36.8880 N   0  0  0  0  0  0  0  0  0  0  0  0
   39.5940   34.1740   39.9150 C   0  0  0  0  0  0  0  0  0  0  0  0
   38.5250   34.8160   40.2210 O   0  0  0  0  0  0  0  0  0  0  0  0
   37.2600   28.0950   38.2320 C   0  0  0  0  0  0  0  0  0  0  0  0
   35.9040   28.2690   37.7830 N   0  0  0  0  0  0  0  0  0  0  0  0
   35.1660   27.1280   37.6180 C   0  0  0  0  0  0  0  0  0  0  0  0
   33.9110   27.4280   37.1730 C   0  0  0  0  0  0  0  0  0  0  0  0
   33.8610   28.7500   37.0580 N   0  0  0  0  0  0  0  0  0  0  0  0
   35.0520   29.2410   37.4240 C   0  0  0  0  0  0  0  0  0  0  0  0
   37.1021   29.7256   39.4834 H   0  0  0  0  0  0  0  0  0  0  0  0
   36.5073   28.3434   43.7999 H   0  0  0  0  0  0  0  0  0  0  0  0
   36.7607   25.8214   43.6977 H   0  0  0  0  0  0  0  0  0  0  0  0
   37.4676   24.7625   41.5073 H   0  0  0  0  0  0  0  0  0  0  0  0
   39.8023   28.4490   39.8469 H   0  0  0  0  0  0  0  0  0  0  0  0
   39.4626   29.2525   38.2547 H   0  0  0  0  0  0  0  0  0  0  0  0
   40.3696   32.6056   42.2505 H   0  0  0  0  0  0  0  0  0  0  0  0
   39.2844   32.4429   35.9589 H   0  0  0  0  0  0  0  0  0  0  0  0
   40.7119   32.3007   37.0195 H   0  0  0  0  0  0  0  0  0  0  0  0
   40.4542   34.6907   39.4644 H   0  0  0  0  0  0  0  0  0  0  0  0
   37.9170   28.4132   37.4092 H   0  0  0  0  0  0  0  0  0  0  0  0
   37.3138   27.0335   38.5152 H   0  0  0  0  0  0  0  0  0  0  0  0
   35.5334   26.1104   37.8165 H   0  0  0  0  0  0  0  0  0  0  0  0
   33.1017   26.7161   36.9533 H   0  0  0  0  0  0  0  0  0  0  0  0
   35.3016   30.3123   37.4296 H   0  0  0  0  0  0  0  0  0  0  0  0
  1  6  1  0
  3  2  2  0
  4  3  1  0
  5  6  1  0
  5  4  2  0
  6  7  2  0
  7  2  1  0
  8  1  1  0
  8  9  1  0
  9 10  1  0
 10 11  2  0
 12 11  1  0
 13  9  1  0
 13 12  2  0
 14 13  1  0
 15 14  2  0
 16 14  1  0
 17 12  1  0
 17 18  2  0
 19  1  1  0
 20 19  1  0
 21 20  1  0
 22 21  2  0
 23 22  1  0
 23 24  2  0
 24 20  1  0
  1 25  1  1
  2 26  1  0
  3 27  1  0
  4 28  1  0
  8 29  1  0
  8 30  1  0
 11 31  1  0
 16 32  1  0
 16 33  1  0
 17 34  1  0
 19 35  1  0
 19 36  1  0
 21 37  1  0
 22 38  1  0
 24 39  1  0
M  ISO  8  25   8  26  14  27  14  28  14  29   8  30   8  31  14  34   6
M  ISO  5  35   8  36   8  37  14  38  14  39  14
M  END
>  <minimizedAffinity>  (1) 
-4.58346033

>  <minimizedRMSD>  (1) 
2.28910828

$$$$
