
     RDKit          3D

 33 34  0  0  1  0  0  0  0  0999 V2000
   37.2450   29.4130   39.0270 C   0  0  0  0  0  0  0  0  0  0  0  0
   38.5690   29.9940   39.2190 N   0  0  0  0  0  0  0  0  0  0  0  0
   39.7380   29.4000   39.3070 N   0  0  0  0  0  0  0  0  0  0  0  0
   40.7590   30.2390   39.4820 C   0  0  0  0  0  0  0  0  0  0  0  0
   40.2380   31.4860   39.5170 C   0  0  0  0  0  0  0  0  0  0  0  0
   38.8650   31.2840   39.3480 C   0  0  0  0  0  0  0  0  0  0  0  0
   37.9590   32.3870   39.3290 C   0  0  0  0  0  0  0  0  0  0  0  0
   37.5360   33.0230   40.3190 O   0  0  0  0  0  0  0  0  0  0  0  0
   37.3770   32.9530   38.1360 N   0  0  0  0  0  0  0  0  0  0  0  0
   40.9460   32.7480   39.6890 C   0  0  0  0  0  0  0  0  0  0  0  0
   41.0350   33.2290   40.8580 O   0  0  0  0  0  0  0  0  0  0  0  0
   36.3290   29.6330   40.2390 C   0  0  2  0  0  0  0  0  0  0  0  0
   37.9530   28.9430   43.4690 C   0  0  0  0  0  0  0  0  0  0  0  0
   37.7580   27.5170   43.5880 C   0  0  0  0  0  0  0  0  0  0  0  0
   37.0850   26.8520   42.5730 C   0  0  0  0  0  0  0  0  0  0  0  0
   36.6470   27.6100   41.5160 N   0  0  0  0  0  0  0  0  0  0  0  0
   36.8640   28.9640   41.4610 C   0  0  0  0  0  0  0  0  0  0  0  0
   37.5020   29.6370   42.4080 N   0  0  0  0  0  0  0  0  0  0  0  0
   34.9560   29.2370   39.9960 C   0  0  0  0  0  0  0  0  0  0  0  0
   34.8220   28.3490   38.9460 O   0  0  0  0  0  0  0  0  0  0  0  0
   36.7804   29.8763   38.1441 H   0  0  0  0  0  0  0  0  0  0  0  0
   37.3704   28.3284   38.8934 H   0  0  0  0  0  0  0  0  0  0  0  0
   41.8208   29.9688   39.5792 H   0  0  0  0  0  0  0  0  0  0  0  0
   36.7299   33.7511   38.2074 H   0  0  0  0  0  0  0  0  0  0  0  0
   37.6087   32.5589   37.2130 H   0  0  0  0  0  0  0  0  0  0  0  0
   41.3908   33.2686   38.8281 H   0  0  0  0  0  0  0  0  0  0  0  0
   36.3190   30.7191   40.4128 H   0  0  0  0  0  0  0  0  0  0  0  0
   38.4859   29.4776   44.2692 H   0  0  0  0  0  0  0  0  0  0  0  0
   38.1349   26.9697   44.4646 H   0  0  0  0  0  0  0  0  0  0  0  0
   36.9105   25.7667   42.6137 H   0  0  0  0  0  0  0  0  0  0  0  0
   34.5628   28.7625   40.9072 H   0  0  0  0  0  0  0  0  0  0  0  0
   34.3969   30.1457   39.7282 H   0  0  0  0  0  0  0  0  0  0  0  0
   34.6842   27.4355   39.3019 H   0  0  0  0  0  0  0  0  0  0  0  0
  1  2  1  0
  1 12  1  0
  2  3  1  0
  2  6  1  0
  3  4  2  0
  4  5  1  0
  5 10  1  0
  6  5  2  0
  7  6  1  0
  7  8  2  0
  9  7  1  0
 10 11  2  0
 12 17  1  0
 13 14  2  0
 15 14  1  0
 16 15  2  0
 17 16  1  0
 17 18  2  0
 18 13  1  0
 19 12  1  0
 20 19  1  0
  1 21  1  0
  1 22  1  0
  4 23  1  0
  9 24  1  0
  9 25  1  0
 10 26  1  0
 12 27  1  1
 13 28  1  0
 14 29  1  0
 15 30  1  0
 19 31  1  0
 19 32  1  0
 20 33  1  0
M  ISO  8  21   8  22   8  23  14  26   6  27   8  28  14  29  14  30  14
M  ISO  3  31   8  32   8  33   3
M  END
>  <minimizedAffinity>  (1) 
-4.17318439

>  <minimizedRMSD>  (1) 
0.291640997

$$$$
