
     RDKit          3D

 39 42  0  0  1  0  0  0  0  0999 V2000
   38.3060   30.6550   39.5140 C   0  0  1  0  0  0  0  0  0  0  0  0
   37.7160   30.8040   38.0860 C   0  0  0  0  0  0  0  0  0  0  0  0
   36.3060   30.2660   38.3160 C   0  0  0  0  0  0  0  0  0  0  0  0
   36.3680   29.3990   39.5490 C   0  0  0  0  0  0  0  0  0  0  0  0
   37.8450   29.2900   39.8600 C   0  0  2  0  0  0  0  0  0  0  0  0
   40.8370   35.4760   39.7120 C   0  0  0  0  0  0  0  0  0  0  0  0
   39.5470   35.9310   40.0730 C   0  0  0  0  0  0  0  0  0  0  0  0
   38.5770   34.9800   40.2830 C   0  0  0  0  0  0  0  0  0  0  0  0
   38.9110   33.6730   40.1320 N   0  0  0  0  0  0  0  0  0  0  0  0
   40.1070   33.2430   39.7960 C   0  0  0  0  0  0  0  0  0  0  0  0
   41.0910   34.1600   39.5800 N   0  0  0  0  0  0  0  0  0  0  0  0
   40.5030   31.8900   39.6140 N   0  0  0  0  0  0  0  0  0  0  0  0
   41.8040   31.6400   39.5500 N   0  0  0  0  0  0  0  0  0  0  0  0
   41.9710   30.2940   39.3590 C   0  0  0  0  0  0  0  0  0  0  0  0
   40.6810   29.7490   39.3110 C   0  0  0  0  0  0  0  0  0  0  0  0
   39.7640   30.7960   39.4770 C   0  0  0  0  0  0  0  0  0  0  0  0
   37.9710   28.9410   41.2500 N   0  0  0  0  0  0  0  0  0  0  0  0
   37.6050   29.6120   42.3100 N   0  0  0  0  0  0  0  0  0  0  0  0
   37.8910   28.9580   43.4510 C   0  0  0  0  0  0  0  0  0  0  0  0
   38.4880   27.7730   43.0500 C   0  0  0  0  0  0  0  0  0  0  0  0
   38.5300   27.7780   41.6820 C   0  0  0  0  0  0  0  0  0  0  0  0
   39.0600   26.7590   40.8470 N   0  0  0  0  0  0  0  0  0  0  0  0
   37.9916   31.4093   40.2504 H   0  0  0  0  0  0  0  0  0  0  0  0
   38.2681   30.1983   37.3523 H   0  0  0  0  0  0  0  0  0  0  0  0
   37.7585   31.8232   37.6743 H   0  0  0  0  0  0  0  0  0  0  0  0
   35.6037   31.0980   38.4727 H   0  0  0  0  0  0  0  0  0  0  0  0
   35.9551   29.6916   37.4460 H   0  0  0  0  0  0  0  0  0  0  0  0
   35.8284   29.8704   40.3836 H   0  0  0  0  0  0  0  0  0  0  0  0
   35.8990   28.4162   39.3939 H   0  0  0  0  0  0  0  0  0  0  0  0
   38.4309   28.5281   39.3250 H   0  0  0  0  0  0  0  0  0  0  0  0
   41.6417   36.2053   39.5371 H   0  0  0  0  0  0  0  0  0  0  0  0
   39.3288   37.0037   40.1814 H   0  0  0  0  0  0  0  0  0  0  0  0
   37.5548   35.2711   40.5666 H   0  0  0  0  0  0  0  0  0  0  0  0
   42.9232   29.7517   39.2629 H   0  0  0  0  0  0  0  0  0  0  0  0
   40.4320   28.6871   39.1683 H   0  0  0  0  0  0  0  0  0  0  0  0
   37.6935   29.2920   44.4803 H   0  0  0  0  0  0  0  0  0  0  0  0
   38.8597   26.9753   43.7099 H   0  0  0  0  0  0  0  0  0  0  0  0
   39.4650   25.9093   41.2652 H   0  0  0  0  0  0  0  0  0  0  0  0
   39.0394   26.8696   39.8232 H   0  0  0  0  0  0  0  0  0  0  0  0
  1  5  1  0
  2  3  1  0
  2  1  1  0
  3  4  1  0
  4  5  1  0
  5 17  1  0
  6  7  2  0
  7  8  1  0
  9  8  2  0
 10  9  1  0
 11  6  1  0
 11 10  2  0
 12 10  1  0
 13 12  1  0
 14 13  2  0
 15 14  1  0
 15 16  2  0
 16  1  1  0
 16 12  1  0
 17 21  1  0
 17 18  1  0
 18 19  2  0
 20 19  1  0
 21 20  2  0
 22 21  1  0
  1 23  1  1
  2 24  1  0
  2 25  1  0
  3 26  1  0
  3 27  1  0
  4 28  1  0
  4 29  1  0
  5 30  1  6
  6 31  1  0
  7 32  1  0
  8 33  1  0
 14 34  1  0
 15 35  1  0
 19 36  1  0
 20 37  1  0
 22 38  1  0
 22 39  1  0
M  ISO  8  23  13  24  13  25  13  26  13  27  13  28  13  29  13  30  13
M  ISO  7  31  14  32  14  33  14  34  14  35  14  36  14  37  14
M  END
>  <minimizedAffinity>  (1) 
-5.58327579

>  <minimizedRMSD>  (1) 
0.0225305818

$$$$
