
     RDKit          3D

 42 44  0  0  1  0  0  0  0  0999 V2000
   38.7370   29.7530   38.9000 C   0  0  1  0  0  0  0  0  0  0  0  0
   41.9900   28.0690   39.0610 C   0  0  0  0  0  0  0  0  0  0  0  0
   42.0930   27.5110   37.7400 C   0  0  0  0  0  0  0  0  0  0  0  0
   41.0500   27.7320   36.8530 C   0  0  0  0  0  0  0  0  0  0  0  0
   39.9970   28.4750   37.3190 N   0  0  0  0  0  0  0  0  0  0  0  0
   39.9550   28.9760   38.5770 C   0  0  0  0  0  0  0  0  0  0  0  0
   40.9250   28.7880   39.4510 N   0  0  0  0  0  0  0  0  0  0  0  0
   38.5510   30.9550   37.9390 C   0  0  0  0  0  0  0  0  0  0  0  0
   39.5570   31.9730   38.1350 N   0  0  0  0  0  0  0  0  0  0  0  0
   40.6110   32.2670   37.4040 N   0  0  0  0  0  0  0  0  0  0  0  0
   41.3380   33.2790   37.8800 C   0  0  0  0  0  0  0  0  0  0  0  0
   40.7260   33.7020   39.0230 C   0  0  0  0  0  0  0  0  0  0  0  0
   39.6260   32.8520   39.1280 C   0  0  0  0  0  0  0  0  0  0  0  0
   38.7190   32.9920   40.2320 C   0  0  0  0  0  0  0  0  0  0  0  0
   38.8780   32.5620   41.4080 O   0  0  0  0  0  0  0  0  0  0  0  0
   37.4420   33.6750   40.1480 N   0  0  0  0  0  0  0  0  0  0  0  0
   41.1340   34.7800   39.9070 C   0  0  0  0  0  0  0  0  0  0  0  0
   41.9020   34.5020   40.8870 O   0  0  0  0  0  0  0  0  0  0  0  0
   37.5390   28.9130   38.9330 C   0  0  0  0  0  0  0  0  0  0  0  0
   37.3730   28.0830   40.1530 C   0  0  0  0  0  0  0  0  0  0  0  0
   37.0630   26.7680   40.3990 C   0  0  0  0  0  0  0  0  0  0  0  0
   37.0370   26.4970   41.7540 C   0  0  0  0  0  0  0  0  0  0  0  0
   37.3380   27.6780   42.3150 N   0  0  0  0  0  0  0  0  0  0  0  0
   37.5340   28.6020   41.3990 N   0  0  0  0  0  0  0  0  0  0  0  0
   37.4350   27.9070   43.7580 C   0  0  0  0  0  0  0  0  0  0  0  0
   37.6420   29.2240   44.0360 F   0  0  0  0  0  0  0  0  0  0  0  0
   38.4410   27.1360   44.2790 F   0  0  0  0  0  0  0  0  0  0  0  0
   36.2540   27.5310   44.3910 F   0  0  0  0  0  0  0  0  0  0  0  0
   38.8810   30.1550   39.9138 H   0  0  0  0  0  0  0  0  0  0  0  0
   42.8098   27.9016   39.7751 H   0  0  0  0  0  0  0  0  0  0  0  0
   42.9746   26.9250   37.4411 H   0  0  0  0  0  0  0  0  0  0  0  0
   41.0671   27.3317   35.8286 H   0  0  0  0  0  0  0  0  0  0  0  0
   37.5598   31.3985   38.1146 H   0  0  0  0  0  0  0  0  0  0  0  0
   38.6463   30.5809   36.9090 H   0  0  0  0  0  0  0  0  0  0  0  0
   42.2552   33.6930   37.4358 H   0  0  0  0  0  0  0  0  0  0  0  0
   36.8372   33.7402   40.9792 H   0  0  0  0  0  0  0  0  0  0  0  0
   37.1401   34.0948   39.2572 H   0  0  0  0  0  0  0  0  0  0  0  0
   40.7893   35.8105   39.7357 H   0  0  0  0  0  0  0  0  0  0  0  0
   36.6615   29.5709   38.8489 H   0  0  0  0  0  0  0  0  0  0  0  0
   37.6441   28.2046   38.0981 H   0  0  0  0  0  0  0  0  0  0  0  0
   36.8606   26.0232   39.6153 H   0  0  0  0  0  0  0  0  0  0  0  0
   36.8210   25.5410   42.2534 H   0  0  0  0  0  0  0  0  0  0  0  0
  1 19  1  0
  2  7  2  0
  3  2  1  0
  4  5  1  0
  4  3  2  0
  5  6  2  0
  6  1  1  0
  6  7  1  0
  8  9  1  0
  8  1  1  0
  9 13  1  0
 10 11  2  0
 10  9  1  0
 11 12  1  0
 12 13  2  0
 12 17  1  0
 13 14  1  0
 14 15  2  0
 16 14  1  0
 17 18  2  0
 19 20  1  0
 20 21  1  0
 20 24  2  0
 21 22  2  0
 22 23  1  0
 23 25  1  0
 24 23  1  0
 25 26  1  0
 25 27  1  0
 25 28  1  0
  1 29  1  1
  2 30  1  0
  3 31  1  0
  4 32  1  0
  8 33  1  0
  8 34  1  0
 11 35  1  0
 16 36  1  0
 16 37  1  0
 17 38  1  0
 19 39  1  0
 19 40  1  0
 21 41  1  0
 22 42  1  0
M  ISO  8  29   8  30  14  31  14  32  14  33   8  34   8  35  14  38   6
M  ISO  4  39   8  40   8  41  14  42  14
M  END
>  <minimizedAffinity>  (1) 
-5.42298508

>  <minimizedRMSD>  (1) 
1.51991642

$$$$
