
     RDKit          3D

 29 29  0  0  0  0  0  0  0  0999 V2000
   40.4700   30.2960   42.1630 C   0  0  0  0  0  0  0  0  0  0  0  0
   39.6710   31.2310   41.4610 C   0  0  0  0  0  0  0  0  0  0  0  0
   38.3080   30.9850   41.3630 C   0  0  0  0  0  0  0  0  0  0  0  0
   37.8170   29.8450   41.9550 N   0  0  0  0  0  0  0  0  0  0  0  0
   38.5840   28.9660   42.6170 C   0  0  0  0  0  0  0  0  0  0  0  0
   39.9000   29.2010   42.7150 N   0  0  0  0  0  0  0  0  0  0  0  0
   37.4270   31.8690   40.6720 N   0  0  0  0  0  0  0  0  0  0  0  0
   37.7370   33.2110   40.3720 C   0  0  0  0  0  0  0  0  0  0  0  0
   38.5360   33.8010   41.1860 N   0  0  0  0  0  0  0  0  0  0  0  0
   37.1330   33.7590   39.2050 N   0  0  0  0  0  0  0  0  0  0  0  0
   38.8250   34.7770   40.9190 H   0  0  0  0  0  0  0  0  0  0  0  0
   37.9160   27.7770   43.2070 C   0  0  0  0  0  0  0  0  0  0  0  0
   37.0580   28.2240   44.3770 C   0  0  0  0  0  0  0  0  0  0  0  0
   37.0560   27.0220   42.2370 C   0  0  0  0  0  0  0  0  0  0  0  0
   38.9590   26.8290   43.7780 C   0  0  0  0  0  0  0  0  0  0  0  0
   41.5534   30.4603   42.2592 H   0  0  0  0  0  0  0  0  0  0  0  0
   40.1178   32.1273   41.0060 H   0  0  0  0  0  0  0  0  0  0  0  0
   36.5104   31.5052   40.3748 H   0  0  0  0  0  0  0  0  0  0  0  0
   37.3233   34.7350   38.9365 H   0  0  0  0  0  0  0  0  0  0  0  0
   36.5057   33.1794   38.6292 H   0  0  0  0  0  0  0  0  0  0  0  0
   37.5596   27.9627   45.3205 H   0  0  0  0  0  0  0  0  0  0  0  0
   36.9113   29.3131   44.3291 H   0  0  0  0  0  0  0  0  0  0  0  0
   36.0814   27.7201   44.3291 H   0  0  0  0  0  0  0  0  0  0  0  0
   36.3419   26.3951   42.7911 H   0  0  0  0  0  0  0  0  0  0  0  0
   36.5052   27.7336   41.6043 H   0  0  0  0  0  0  0  0  0  0  0  0
   37.6903   26.3837   41.6043 H   0  0  0  0  0  0  0  0  0  0  0  0
   38.9223   26.8623   44.8769 H   0  0  0  0  0  0  0  0  0  0  0  0
   38.7505   25.8048   43.4351 H   0  0  0  0  0  0  0  0  0  0  0  0
   39.9587   27.1341   43.4351 H   0  0  0  0  0  0  0  0  0  0  0  0
  1  6  2  0
  2  1  1  0
  3  2  2  0
  3  4  1  0
  4  5  2  0
  5  6  1  0
  5 12  1  0
  7  3  1  0
  8  7  1  0
  8  9  2  0
 10  8  1  0
 11  9  1  0
 12 15  1  0
 12 13  1  0
 14 12  1  0
  1 16  1  0
  2 17  1  0
  7 18  1  0
 10 19  1  0
 10 20  1  0
 13 21  1  0
 13 22  1  0
 13 23  1  0
 14 24  1  0
 14 25  1  0
 14 26  1  0
 15 27  1  0
 15 28  1  0
 15 29  1  0
M  ISO  8  16  14  17  14  21   8  22   8  23   8  24   8  25   8  26   8
M  ISO  3  27   8  28   8  29   8
M  END
>  <minimizedAffinity>  (1) 
-5.23984241

>  <minimizedRMSD>  (1) 
5.54256439

$$$$
