
     RDKit          3D

 19 19  0  0  0  0  0  0  0  0999 V2000
   39.8560   30.9850   41.6730 C   0  0  0  0  0  0  0  0  0  0  0  0
   39.0520   30.1760   42.5110 C   0  0  0  0  0  0  0  0  0  0  0  0
   37.7020   30.0600   42.2090 C   0  0  0  0  0  0  0  0  0  0  0  0
   37.2250   30.7410   41.1100 N   0  0  0  0  0  0  0  0  0  0  0  0
   38.0080   31.5020   40.3280 C   0  0  0  0  0  0  0  0  0  0  0  0
   39.3070   31.6210   40.6110 N   0  0  0  0  0  0  0  0  0  0  0  0
   36.8150   29.2700   43.0030 N   0  0  0  0  0  0  0  0  0  0  0  0
   37.2430   28.2670   43.8990 C   0  0  0  0  0  0  0  0  0  0  0  0
   38.3390   27.6570   43.5620 N   0  0  0  0  0  0  0  0  0  0  0  0
   36.4340   28.0470   45.0500 N   0  0  0  0  0  0  0  0  0  0  0  0
   38.6820   26.9420   44.2520 H   0  0  0  0  0  0  0  0  0  0  0  0
   37.4300   32.1860   39.1890 C   0  0  0  0  0  0  0  0  0  0  0  0
   37.0950   33.3950   39.2880 O   0  0  0  0  0  0  0  0  0  0  0  0
   40.9295   31.0974   41.8849 H   0  0  0  0  0  0  0  0  0  0  0  0
   39.4846   29.6539   43.3772 H   0  0  0  0  0  0  0  0  0  0  0  0
   35.8033   29.4427   42.9164 H   0  0  0  0  0  0  0  0  0  0  0  0
   36.7003   27.3269   45.7366 H   0  0  0  0  0  0  0  0  0  0  0  0
   35.5826   28.6080   45.1959 H   0  0  0  0  0  0  0  0  0  0  0  0
   37.2843   31.6497   38.2397 H   0  0  0  0  0  0  0  0  0  0  0  0
  1  2  2  0
  3  2  1  0
  3  7  1  0
  4  3  2  0
  5  6  2  0
  5  4  1  0
  6  1  1  0
  7  8  1  0
  8 10  1  0
  9  8  2  0
  9 11  1  0
 12 13  2  0
 12  5  1  0
  1 14  1  0
  2 15  1  0
  7 16  1  0
 10 17  1  0
 10 18  1  0
 12 19  1  0
M  ISO  3  14  14  15  14  19   6
M  END
>  <minimizedAffinity>  (1) 
-4.33814478

>  <minimizedRMSD>  (1) 
1.36984134

$$$$
