
     RDKit          3D

 37 39  0  0  0  0  0  0  0  0999 V2000
   38.9970   28.5410   40.1630 C   0  0  0  0  0  0  0  0  0  0  0  0
   38.3660   28.4030   41.4250 C   0  0  0  0  0  0  0  0  0  0  0  0
   37.5130   29.4050   41.8440 C   0  0  0  0  0  0  0  0  0  0  0  0
   37.3550   30.4420   41.0010 N   0  0  0  0  0  0  0  0  0  0  0  0
   37.9360   30.5940   39.8140 C   0  0  0  0  0  0  0  0  0  0  0  0
   38.7660   29.6210   39.4040 N   0  0  0  0  0  0  0  0  0  0  0  0
   36.8500   29.3300   43.1010 N   0  0  0  0  0  0  0  0  0  0  0  0
   36.6650   28.1410   43.8310 C   0  0  0  0  0  0  0  0  0  0  0  0
   36.5730   27.0640   43.1490 N   0  0  0  0  0  0  0  0  0  0  0  0
   36.5940   28.2440   45.2350 N   0  0  0  0  0  0  0  0  0  0  0  0
   36.4500   26.1620   43.6570 H   0  0  0  0  0  0  0  0  0  0  0  0
   37.6770   31.7900   38.9630 C   0  0  0  0  0  0  0  0  0  0  0  0
   37.7030   32.9790   39.8830 C   0  0  0  0  0  0  0  0  0  0  0  0
   39.0690   33.3400   40.3220 C   0  0  0  0  0  0  0  0  0  0  0  0
   40.1700   32.6570   40.7820 C   0  0  0  0  0  0  0  0  0  0  0  0
   41.1810   33.5170   41.0450 N   0  0  0  0  0  0  0  0  0  0  0  0
   40.7650   34.7800   40.7630 C   0  0  0  0  0  0  0  0  0  0  0  0
   41.3620   36.0210   40.8410 C   0  0  0  0  0  0  0  0  0  0  0  0
   40.7320   37.1930   40.4940 C   0  0  0  0  0  0  0  0  0  0  0  0
   39.4310   37.1130   40.0470 C   0  0  0  0  0  0  0  0  0  0  0  0
   38.8320   35.8750   39.9680 C   0  0  0  0  0  0  0  0  0  0  0  0
   39.4600   34.6830   40.3150 C   0  0  0  0  0  0  0  0  0  0  0  0
   39.6803   27.7569   39.8047 H   0  0  0  0  0  0  0  0  0  0  0  0
   38.5511   27.5202   42.0545 H   0  0  0  0  0  0  0  0  0  0  0  0
   36.4812   30.2036   43.5031 H   0  0  0  0  0  0  0  0  0  0  0  0
   36.4593   27.3983   45.8073 H   0  0  0  0  0  0  0  0  0  0  0  0
   36.6769   29.1650   45.6887 H   0  0  0  0  0  0  0  0  0  0  0  0
   38.4580   31.8865   38.1944 H   0  0  0  0  0  0  0  0  0  0  0  0
   36.7107   31.7084   38.4438 H   0  0  0  0  0  0  0  0  0  0  0  0
   37.2651   33.8396   39.3561 H   0  0  0  0  0  0  0  0  0  0  0  0
   37.1280   32.7123   40.7820 H   0  0  0  0  0  0  0  0  0  0  0  0
   40.2216   31.5665   40.9170 H   0  0  0  0  0  0  0  0  0  0  0  0
   42.1123   33.2574   41.4003 H   0  0  0  0  0  0  0  0  0  0  0  0
   42.4000   36.0762   41.2009 H   0  0  0  0  0  0  0  0  0  0  0  0
   41.2488   38.1610   40.5706 H   0  0  0  0  0  0  0  0  0  0  0  0
   38.8809   38.0209   39.7586 H   0  0  0  0  0  0  0  0  0  0  0  0
   37.7936   35.8259   39.6085 H   0  0  0  0  0  0  0  0  0  0  0  0
  1  2  2  0
  2  3  1  0
  3  7  1  0
  4  3  2  0
  5  4  1  0
  6  5  2  0
  6  1  1  0
  7  8  1  0
  8 10  1  0
  9 11  1  0
  9  8  2  0
 12  5  1  0
 12 13  1  0
 13 14  1  0
 14 15  2  0
 15 16  1  0
 17 18  2  0
 17 16  1  0
 19 18  1  0
 20 19  2  0
 21 20  1  0
 21 22  2  0
 22 14  1  0
 22 17  1  0
  1 23  1  0
  2 24  1  0
  7 25  1  0
 10 26  1  0
 10 27  1  0
 12 28  1  0
 12 29  1  0
 13 30  1  0
 13 31  1  0
 15 32  1  0
 16 33  1  0
 18 34  1  0
 19 35  1  0
 20 36  1  0
 21 37  1  0
M  ISO  8  23  14  24  14  28   8  29   8  30   8  31   8  32  14  33   9
M  ISO  4  34  14  35  14  36  14  37  14
M  END
>  <minimizedAffinity>  (1) 
-6.58202505

>  <minimizedRMSD>  (1) 
1.51768303

$$$$
