
     RDKit          3D

 12 12  0  0  0  0  0  0  0  0999 V2000
   38.3710   29.1860   43.1610 C   0  0  0  0  0  0  0  0  0  0  0  0
   37.9140   27.9020   43.5570 C   0  0  0  0  0  0  0  0  0  0  0  0
   36.8090   27.3630   42.9020 C   0  0  0  0  0  0  0  0  0  0  0  0
   36.2180   28.1020   41.9050 N   0  0  0  0  0  0  0  0  0  0  0  0
   36.6800   29.3150   41.5570 C   0  0  0  0  0  0  0  0  0  0  0  0
   37.7500   29.8650   42.1740 N   0  0  0  0  0  0  0  0  0  0  0  0
   36.0000   30.0200   40.5020 N   0  0  0  0  0  0  0  0  0  0  0  0
   39.2412   29.6327   43.6643 H   0  0  0  0  0  0  0  0  0  0  0  0
   38.4195   27.3466   44.3607 H   0  0  0  0  0  0  0  0  0  0  0  0
   36.4194   26.3714   43.1756 H   0  0  0  0  0  0  0  0  0  0  0  0
   36.3280   30.9518   40.2105 H   0  0  0  0  0  0  0  0  0  0  0  0
   35.1854   29.5926   40.0387 H   0  0  0  0  0  0  0  0  0  0  0  0
  1  2  2  0
  3  2  1  0
  4  3  2  0
  5  4  1  0
  5  6  2  0
  6  1  1  0
  7  5  1  0
  1  8  1  0
  2  9  1  0
  3 10  1  0
  7 11  1  0
  7 12  1  0
M  ISO  3   8  14   9  14  10  14
M  END
>  <minimizedAffinity>  (1) 
-2.57994151

>  <minimizedRMSD>  (1) 
0.275119424

$$$$
