
     RDKit          3D

 32 33  0  0  0  0  0  0  0  0999 V2000
   40.6020   29.7890   41.7150 C   0  0  0  0  0  0  0  0  0  0  0  0
   39.5650   29.3450   42.5640 C   0  0  0  0  0  0  0  0  0  0  0  0
   38.2930   29.8460   42.3820 C   0  0  0  0  0  0  0  0  0  0  0  0
   38.1490   30.7400   41.3820 N   0  0  0  0  0  0  0  0  0  0  0  0
   39.1060   31.1760   40.5690 C   0  0  0  0  0  0  0  0  0  0  0  0
   40.3450   30.6840   40.7490 N   0  0  0  0  0  0  0  0  0  0  0  0
   37.2060   29.4440   43.2030 N   0  0  0  0  0  0  0  0  0  0  0  0
   37.1820   28.2580   43.9530 C   0  0  0  0  0  0  0  0  0  0  0  0
   37.8630   27.2840   43.5140 N   0  0  0  0  0  0  0  0  0  0  0  0
   36.3910   28.2680   45.1310 N   0  0  0  0  0  0  0  0  0  0  0  0
   37.9100   26.4060   44.0880 H   0  0  0  0  0  0  0  0  0  0  0  0
   38.8580   32.1750   39.4820 C   0  0  0  0  0  0  0  0  0  0  0  0
   38.2330   33.3810   40.1550 C   0  0  0  0  0  0  0  0  0  0  0  0
   39.1520   34.5300   40.2240 C   0  0  0  0  0  0  0  0  0  0  0  0
   38.7890   35.8450   39.9930 C   0  0  0  0  0  0  0  0  0  0  0  0
   39.7120   36.8850   40.0760 C   0  0  0  0  0  0  0  0  0  0  0  0
   41.0370   36.5980   40.4000 C   0  0  0  0  0  0  0  0  0  0  0  0
   41.3120   35.2630   40.6140 C   0  0  0  0  0  0  0  0  0  0  0  0
   40.4480   34.2340   40.5430 N   0  0  0  0  0  0  0  0  0  0  0  0
   41.6227   29.4004   41.8458 H   0  0  0  0  0  0  0  0  0  0  0  0
   39.7683   28.6113   43.3579 H   0  0  0  0  0  0  0  0  0  0  0  0
   36.3833   30.0619   43.2510 H   0  0  0  0  0  0  0  0  0  0  0  0
   36.3355   27.4257   45.7212 H   0  0  0  0  0  0  0  0  0  0  0  0
   35.8723   29.1176   45.3959 H   0  0  0  0  0  0  0  0  0  0  0  0
   38.1714   31.7587   38.7301 H   0  0  0  0  0  0  0  0  0  0  0  0
   39.7894   32.4426   38.9616 H   0  0  0  0  0  0  0  0  0  0  0  0
   37.3394   33.6781   39.5865 H   0  0  0  0  0  0  0  0  0  0  0  0
   37.9804   33.0937   41.1863 H   0  0  0  0  0  0  0  0  0  0  0  0
   37.7442   36.0752   39.7371 H   0  0  0  0  0  0  0  0  0  0  0  0
   39.3984   37.9224   39.8877 H   0  0  0  0  0  0  0  0  0  0  0  0
   41.8074   37.3791   40.4793 H   0  0  0  0  0  0  0  0  0  0  0  0
   42.3518   35.0124   40.8709 H   0  0  0  0  0  0  0  0  0  0  0  0
  1  2  2  0
  3  2  1  0
  3  7  1  0
  4  3  2  0
  5  6  2  0
  5  4  1  0
  6  1  1  0
  7  8  1  0
  8 10  1  0
  9  8  2  0
  9 11  1  0
 12 13  1  0
 12  5  1  0
 13 14  1  0
 14 19  2  0
 15 16  2  0
 15 14  1  0
 16 17  1  0
 17 18  2  0
 19 18  1  0
  1 20  1  0
  2 21  1  0
  7 22  1  0
 10 23  1  0
 10 24  1  0
 12 25  1  0
 12 26  1  0
 13 27  1  0
 13 28  1  0
 15 29  1  0
 16 30  1  0
 17 31  1  0
 18 32  1  0
M  ISO  8  20  14  21  14  25   8  26   8  27   8  28   8  29  14  30  14
M  ISO  2  31  14  32  14
M  END
>  <minimizedAffinity>  (1) 
-5.88764811

>  <minimizedRMSD>  (1) 
1.04101956

$$$$
