
     RDKit          3D

 37 38  0  0  0  0  0  0  0  0999 V2000
   40.7570   29.6870   41.9260 C   0  0  0  0  0  0  0  0  0  0  0  0
   39.6580   29.2650   42.7040 C   0  0  0  0  0  0  0  0  0  0  0  0
   38.4040   29.7630   42.4240 C   0  0  0  0  0  0  0  0  0  0  0  0
   38.2940   30.6510   41.3920 N   0  0  0  0  0  0  0  0  0  0  0  0
   39.3240   31.0550   40.6520 C   0  0  0  0  0  0  0  0  0  0  0  0
   40.5640   30.5610   40.9300 N   0  0  0  0  0  0  0  0  0  0  0  0
   37.2470   29.3880   43.1700 N   0  0  0  0  0  0  0  0  0  0  0  0
   37.2020   28.2310   43.9890 C   0  0  0  0  0  0  0  0  0  0  0  0
   37.9030   27.2370   43.6100 N   0  0  0  0  0  0  0  0  0  0  0  0
   36.3850   28.2920   45.1510 N   0  0  0  0  0  0  0  0  0  0  0  0
   37.9150   26.3820   44.2240 H   0  0  0  0  0  0  0  0  0  0  0  0
   39.2040   32.0220   39.5290 C   0  0  0  0  0  0  0  0  0  0  0  0
   38.7540   33.3420   40.1430 C   0  0  0  0  0  0  0  0  0  0  0  0
   39.5930   34.4510   39.7950 N   0  0  0  0  0  0  0  0  0  0  0  0
   39.1600   35.6530   40.4810 C   0  0  0  0  0  0  0  0  0  0  0  0
   39.9830   36.8150   39.9840 C   0  0  0  0  0  0  0  0  0  0  0  0
   41.3660   36.5860   40.3370 N   0  0  0  0  0  0  0  0  0  0  0  0
   41.6070   35.2610   40.8220 C   0  0  0  0  0  0  0  0  0  0  0  0
   40.9990   34.2250   39.8970 C   0  0  0  0  0  0  0  0  0  0  0  0
   41.7653   29.3007   42.1362 H   0  0  0  0  0  0  0  0  0  0  0  0
   39.8007   28.5466   43.5247 H   0  0  0  0  0  0  0  0  0  0  0  0
   36.4084   29.9831   43.1112 H   0  0  0  0  0  0  0  0  0  0  0  0
   36.3193   27.4773   45.7777 H   0  0  0  0  0  0  0  0  0  0  0  0
   35.8588   29.1509   45.3661 H   0  0  0  0  0  0  0  0  0  0  0  0
   38.4597   31.6682   38.8004 H   0  0  0  0  0  0  0  0  0  0  0  0
   40.1601   32.1355   38.9970 H   0  0  0  0  0  0  0  0  0  0  0  0
   37.7322   33.5565   39.7966 H   0  0  0  0  0  0  0  0  0  0  0  0
   38.8089   33.2256   41.2354 H   0  0  0  0  0  0  0  0  0  0  0  0
   38.0959   35.8362   40.2712 H   0  0  0  0  0  0  0  0  0  0  0  0
   39.2945   35.5348   41.5663 H   0  0  0  0  0  0  0  0  0  0  0  0
   39.6304   37.7458   40.4523 H   0  0  0  0  0  0  0  0  0  0  0  0
   39.8842   36.9053   38.8922 H   0  0  0  0  0  0  0  0  0  0  0  0
   41.9480   36.7407   39.5014 H   0  0  0  0  0  0  0  0  0  0  0  0
   42.6922   35.0933   40.8862 H   0  0  0  0  0  0  0  0  0  0  0  0
   41.1423   35.1609   41.8140 H   0  0  0  0  0  0  0  0  0  0  0  0
   41.1810   33.2187   40.3021 H   0  0  0  0  0  0  0  0  0  0  0  0
   41.4585   34.3054   38.9008 H   0  0  0  0  0  0  0  0  0  0  0  0
  1  2  2  0
  3  2  1  0
  3  7  1  0
  4  3  2  0
  5  6  2  0
  5  4  1  0
  6  1  1  0
  7  8  1  0
  8 10  1  0
  9  8  2  0
  9 11  1  0
 12 13  1  0
 12  5  1  0
 14 19  1  0
 14 13  1  0
 14 15  1  0
 16 17  1  0
 16 15  1  0
 17 18  1  0
 19 18  1  0
  1 20  1  0
  2 21  1  0
  7 22  1  0
 10 23  1  0
 10 24  1  0
 12 25  1  0
 12 26  1  0
 13 27  1  0
 13 28  1  0
 15 29  1  0
 15 30  1  0
 16 31  1  0
 16 32  1  0
 17 33  1  0
 18 34  1  0
 18 35  1  0
 19 36  1  0
 19 37  1  0
M  ISO  8  20  14  21  14  25   8  26   8  27   8  28   8  29  13  30  13
M  ISO  7  31  13  32  13  33   5  34  13  35  13  36  13  37  13
M  END
>  <minimizedAffinity>  (1) 
-5.76550341

>  <minimizedRMSD>  (1) 
3.16279984

$$$$
