
     RDKit          3D

 31 32  0  0  0  0  0  0  0  0999 V2000
   40.5410   29.4290   41.6180 C   0  0  0  0  0  0  0  0  0  0  0  0
   39.4980   29.0870   42.4930 C   0  0  0  0  0  0  0  0  0  0  0  0
   38.2730   29.7130   42.3840 C   0  0  0  0  0  0  0  0  0  0  0  0
   38.1720   30.6380   41.4110 N   0  0  0  0  0  0  0  0  0  0  0  0
   39.1510   30.9860   40.5590 C   0  0  0  0  0  0  0  0  0  0  0  0
   40.3440   30.3570   40.6850 N   0  0  0  0  0  0  0  0  0  0  0  0
   37.1930   29.4010   43.2470 N   0  0  0  0  0  0  0  0  0  0  0  0
   37.0960   28.2170   43.9920 C   0  0  0  0  0  0  0  0  0  0  0  0
   37.6730   27.1750   43.5170 N   0  0  0  0  0  0  0  0  0  0  0  0
   36.3660   28.2770   45.2040 N   0  0  0  0  0  0  0  0  0  0  0  0
   37.6360   26.2920   44.0740 H   0  0  0  0  0  0  0  0  0  0  0  0
   38.9520   32.0310   39.5040 C   0  0  0  0  0  0  0  0  0  0  0  0
   38.3830   33.2360   40.2390 C   0  0  0  0  0  0  0  0  0  0  0  0
   39.3020   34.3840   40.2540 C   0  0  0  0  0  0  0  0  0  0  0  0
   38.8170   35.6550   40.0410 C   0  0  0  0  0  0  0  0  0  0  0  0
   39.7300   36.7080   40.0640 C   0  0  0  0  0  0  0  0  0  0  0  0
   41.0550   36.4730   40.2910 N   0  0  0  0  0  0  0  0  0  0  0  0
   41.4420   35.1870   40.4900 C   0  0  0  0  0  0  0  0  0  0  0  0
   40.6170   34.1020   40.4840 N   0  0  0  0  0  0  0  0  0  0  0  0
   41.5183   28.9313   41.7034 H   0  0  0  0  0  0  0  0  0  0  0  0
   39.6571   28.3202   43.2654 H   0  0  0  0  0  0  0  0  0  0  0  0
   36.4304   30.0880   43.3325 H   0  0  0  0  0  0  0  0  0  0  0  0
   36.2659   27.4339   45.7872 H   0  0  0  0  0  0  0  0  0  0  0  0
   35.9351   29.1637   45.5023 H   0  0  0  0  0  0  0  0  0  0  0  0
   38.2456   31.6770   38.7387 H   0  0  0  0  0  0  0  0  0  0  0  0
   39.8898   32.2726   38.9823 H   0  0  0  0  0  0  0  0  0  0  0  0
   37.4492   33.5404   39.7436 H   0  0  0  0  0  0  0  0  0  0  0  0
   38.2134   32.9355   41.2835 H   0  0  0  0  0  0  0  0  0  0  0  0
   37.7469   35.8331   39.8591 H   0  0  0  0  0  0  0  0  0  0  0  0
   39.3795   37.7373   39.8977 H   0  0  0  0  0  0  0  0  0  0  0  0
   42.5116   35.0053   40.6714 H   0  0  0  0  0  0  0  0  0  0  0  0
  1  2  2  0
  3  2  1  0
  3  7  1  0
  4  3  2  0
  5  6  2  0
  5  4  1  0
  6  1  1  0
  7  8  1  0
  8 10  1  0
  9  8  2  0
  9 11  1  0
 12 13  1  0
 12  5  1  0
 13 14  1  0
 14 19  2  0
 15 16  2  0
 15 14  1  0
 16 17  1  0
 17 18  2  0
 19 18  1  0
  1 20  1  0
  2 21  1  0
  7 22  1  0
 10 23  1  0
 10 24  1  0
 12 25  1  0
 12 26  1  0
 13 27  1  0
 13 28  1  0
 15 29  1  0
 16 30  1  0
 18 31  1  0
M  ISO  8  20  14  21  14  25   8  26   8  27   8  28   8  29  14  30  14
M  ISO  1  31  14
M  END
>  <minimizedAffinity>  (1) 
-5.6802063

>  <minimizedRMSD>  (1) 
3.08347607

$$$$
