
     RDKit          3D

 30 31  0  0  0  0  0  0  0  0999 V2000
   40.7300   29.7590   41.8440 C   0  0  0  0  0  0  0  0  0  0  0  0
   39.6530   29.3230   42.6610 C   0  0  0  0  0  0  0  0  0  0  0  0
   38.3930   29.8360   42.4270 C   0  0  0  0  0  0  0  0  0  0  0  0
   38.2990   30.7250   41.4200 N   0  0  0  0  0  0  0  0  0  0  0  0
   39.2880   31.1500   40.6390 C   0  0  0  0  0  0  0  0  0  0  0  0
   40.5160   30.6500   40.8690 N   0  0  0  0  0  0  0  0  0  0  0  0
   37.2810   29.4390   43.2130 N   0  0  0  0  0  0  0  0  0  0  0  0
   37.2240   28.2530   43.9630 C   0  0  0  0  0  0  0  0  0  0  0  0
   37.9140   27.2730   43.5500 N   0  0  0  0  0  0  0  0  0  0  0  0
   36.3950   28.2760   45.1150 N   0  0  0  0  0  0  0  0  0  0  0  0
   37.9260   26.3920   44.1210 H   0  0  0  0  0  0  0  0  0  0  0  0
   39.0770   32.1470   39.5410 C   0  0  0  0  0  0  0  0  0  0  0  0
   40.4160   32.8490   39.3620 C   0  0  0  0  0  0  0  0  0  0  0  0
   40.1640   34.2880   39.6510 C   0  0  0  0  0  0  0  0  0  0  0  0
   39.0750   34.9350   40.1980 C   0  0  0  0  0  0  0  0  0  0  0  0
   39.4200   36.2910   40.2200 C   0  0  0  0  0  0  0  0  0  0  0  0
   40.6830   36.3940   39.6930 C   0  0  0  0  0  0  0  0  0  0  0  0
   41.0880   35.2020   39.3690 O   0  0  0  0  0  0  0  0  0  0  0  0
   41.7423   29.3633   42.0132 H   0  0  0  0  0  0  0  0  0  0  0  0
   39.8198   28.5907   43.4647 H   0  0  0  0  0  0  0  0  0  0  0  0
   36.4609   30.0618   43.2352 H   0  0  0  0  0  0  0  0  0  0  0  0
   36.3116   27.4368   45.7063 H   0  0  0  0  0  0  0  0  0  0  0  0
   35.8769   29.1319   45.3596 H   0  0  0  0  0  0  0  0  0  0  0  0
   38.7832   31.6378   38.6113 H   0  0  0  0  0  0  0  0  0  0  0  0
   38.2743   32.8581   39.7859 H   0  0  0  0  0  0  0  0  0  0  0  0
   41.1584   32.4420   40.0643 H   0  0  0  0  0  0  0  0  0  0  0  0
   40.8153   32.7047   38.3472 H   0  0  0  0  0  0  0  0  0  0  0  0
   38.1346   34.4810   40.5437 H   0  0  0  0  0  0  0  0  0  0  0  0
   38.7965   37.1183   40.5899 H   0  0  0  0  0  0  0  0  0  0  0  0
   41.2545   37.3253   39.5665 H   0  0  0  0  0  0  0  0  0  0  0  0
  1  2  2  0
  3  2  1  0
  3  7  1  0
  4  3  2  0
  5  6  2  0
  5  4  1  0
  6  1  1  0
  7  8  1  0
  8 10  1  0
  9  8  2  0
  9 11  1  0
 12  5  1  0
 13 12  1  0
 13 14  1  0
 14 15  2  0
 15 16  1  0
 17 16  2  0
 18 14  1  0
 18 17  1  0
  1 19  1  0
  2 20  1  0
  7 21  1  0
 10 22  1  0
 10 23  1  0
 12 24  1  0
 12 25  1  0
 13 26  1  0
 13 27  1  0
 15 28  1  0
 16 29  1  0
 17 30  1  0
M  ISO  8  19  14  20  14  24   8  25   8  26   8  27   8  28  14  29  14
M  ISO  1  30  14
M  END
>  <minimizedAffinity>  (1) 
-5.47332478

>  <minimizedRMSD>  (1) 
2.87274313

$$$$
