
     RDKit          3D

 30 31  0  0  0  0  0  0  0  0999 V2000
   40.5820   29.8440   41.8110 C   0  0  0  0  0  0  0  0  0  0  0  0
   39.5370   29.3920   42.6320 C   0  0  0  0  0  0  0  0  0  0  0  0
   38.2460   29.8170   42.4030 C   0  0  0  0  0  0  0  0  0  0  0  0
   38.0740   30.6660   41.3720 N   0  0  0  0  0  0  0  0  0  0  0  0
   39.0550   31.1160   40.5690 C   0  0  0  0  0  0  0  0  0  0  0  0
   40.3250   30.6880   40.8060 N   0  0  0  0  0  0  0  0  0  0  0  0
   37.1600   29.3860   43.2060 N   0  0  0  0  0  0  0  0  0  0  0  0
   37.1980   28.2380   44.0240 C   0  0  0  0  0  0  0  0  0  0  0  0
   37.9750   27.2820   43.6610 N   0  0  0  0  0  0  0  0  0  0  0  0
   36.3680   28.2570   45.1710 N   0  0  0  0  0  0  0  0  0  0  0  0
   38.0230   26.4410   44.2880 H   0  0  0  0  0  0  0  0  0  0  0  0
   38.7880   32.0630   39.4400 C   0  0  0  0  0  0  0  0  0  0  0  0
   38.2750   33.3370   40.0920 C   0  0  0  0  0  0  0  0  0  0  0  0
   39.2350   34.4210   39.9490 N   0  0  0  0  0  0  0  0  0  0  0  0
   40.5450   34.2710   39.5980 C   0  0  0  0  0  0  0  0  0  0  0  0
   41.0670   35.5450   39.5870 C   0  0  0  0  0  0  0  0  0  0  0  0
   40.1210   36.4450   39.9170 N   0  0  0  0  0  0  0  0  0  0  0  0
   39.0070   35.7210   40.1340 C   0  0  0  0  0  0  0  0  0  0  0  0
   41.6120   29.5041   41.9942 H   0  0  0  0  0  0  0  0  0  0  0  0
   39.7486   28.6980   43.4588 H   0  0  0  0  0  0  0  0  0  0  0  0
   36.2938   29.9432   43.1910 H   0  0  0  0  0  0  0  0  0  0  0  0
   36.3514   27.4479   45.8082 H   0  0  0  0  0  0  0  0  0  0  0  0
   35.7808   29.0799   45.3682 H   0  0  0  0  0  0  0  0  0  0  0  0
   38.0300   31.6468   38.7601 H   0  0  0  0  0  0  0  0  0  0  0  0
   39.6908   32.2468   38.8390 H   0  0  0  0  0  0  0  0  0  0  0  0
   37.3286   33.6296   39.6137 H   0  0  0  0  0  0  0  0  0  0  0  0
   38.1224   33.1442   41.1642 H   0  0  0  0  0  0  0  0  0  0  0  0
   41.0718   33.3322   39.3720 H   0  0  0  0  0  0  0  0  0  0  0  0
   42.1105   35.7930   39.3429 H   0  0  0  0  0  0  0  0  0  0  0  0
   38.0356   36.1467   40.4258 H   0  0  0  0  0  0  0  0  0  0  0  0
  1  2  2  0
  3  2  1  0
  3  7  1  0
  4  3  2  0
  5  6  2  0
  5  4  1  0
  6  1  1  0
  7  8  1  0
  8 10  1  0
  9  8  2  0
  9 11  1  0
 12 13  1  0
 12  5  1  0
 14 13  1  0
 14 18  1  0
 15 14  1  0
 16 15  2  0
 16 17  1  0
 17 18  2  0
  1 19  1  0
  2 20  1  0
  7 21  1  0
 10 22  1  0
 10 23  1  0
 12 24  1  0
 12 25  1  0
 13 26  1  0
 13 27  1  0
 15 28  1  0
 16 29  1  0
 18 30  1  0
M  ISO  8  19  14  20  14  24   8  25   8  26   8  27   8  28  14  29  14
M  ISO  1  30  14
M  END
>  <minimizedAffinity>  (1) 
-5.45239115

>  <minimizedRMSD>  (1) 
2.60098147

$$$$
