
     RDKit          3D

 30 31  0  0  0  0  0  0  0  0999 V2000
   40.3060   31.0090   42.2710 C   0  0  0  0  0  0  0  0  0  0  0  0
   39.2860   30.1210   42.7030 C   0  0  0  0  0  0  0  0  0  0  0  0
   38.0130   30.2710   42.1880 C   0  0  0  0  0  0  0  0  0  0  0  0
   37.8460   31.2760   41.2940 N   0  0  0  0  0  0  0  0  0  0  0  0
   38.7900   32.1160   40.8770 C   0  0  0  0  0  0  0  0  0  0  0  0
   40.0390   31.9670   41.3840 N   0  0  0  0  0  0  0  0  0  0  0  0
   36.9570   29.4140   42.5870 N   0  0  0  0  0  0  0  0  0  0  0  0
   37.1400   28.1400   43.1550 C   0  0  0  0  0  0  0  0  0  0  0  0
   38.1950   27.5140   42.8440 N   0  0  0  0  0  0  0  0  0  0  0  0
   36.1380   27.6710   44.0190 N   0  0  0  0  0  0  0  0  0  0  0  0
   38.3830   26.5800   43.2790 H   0  0  0  0  0  0  0  0  0  0  0  0
   38.5040   33.2010   39.8810 C   0  0  0  0  0  0  0  0  0  0  0  0
   38.7520   34.5000   40.6290 C   0  0  0  0  0  0  0  0  0  0  0  0
   39.7940   35.3660   39.9840 C   0  0  0  0  0  0  0  0  0  0  0  0
   39.7190   36.8300   40.0210 C   0  0  0  0  0  0  0  0  0  0  0  0
   40.6750   36.1080   40.9480 C   0  0  0  0  0  0  0  0  0  0  0  0
   41.3251   30.9054   42.6718 H   0  0  0  0  0  0  0  0  0  0  0  0
   39.5052   29.3287   43.4339 H   0  0  0  0  0  0  0  0  0  0  0  0
   35.9914   29.7460   42.4521 H   0  0  0  0  0  0  0  0  0  0  0  0
   36.2292   26.7438   44.4581 H   0  0  0  0  0  0  0  0  0  0  0  0
   35.3116   28.2541   44.2138 H   0  0  0  0  0  0  0  0  0  0  0  0
   37.4601   33.1457   39.5387 H   0  0  0  0  0  0  0  0  0  0  0  0
   39.1355   33.1145   38.9845 H   0  0  0  0  0  0  0  0  0  0  0  0
   37.8082   35.0633   40.6731 H   0  0  0  0  0  0  0  0  0  0  0  0
   39.1229   34.2342   41.6299 H   0  0  0  0  0  0  0  0  0  0  0  0
   39.9157   34.6656   39.1446 H   0  0  0  0  0  0  0  0  0  0  0  0
   40.1112   37.4209   39.1802 H   0  0  0  0  0  0  0  0  0  0  0  0
   38.9090   37.5612   40.1595 H   0  0  0  0  0  0  0  0  0  0  0  0
   40.4744   36.0656   42.0287 H   0  0  0  0  0  0  0  0  0  0  0  0
   41.7541   36.1511   41.1571 H   0  0  0  0  0  0  0  0  0  0  0  0
  1  2  2  0
  3  7  1  0
  3  2  1  0
  4  3  2  0
  5  4  1  0
  5  6  2  0
  6  1  1  0
  7  8  1  0
  8 10  1  0
  9  8  2  0
  9 11  1  0
 12 13  1  0
 12  5  1  0
 14 15  1  0
 14 13  1  0
 14 16  1  0
 15 16  1  0
  1 17  1  0
  2 18  1  0
  7 19  1  0
 10 20  1  0
 10 21  1  0
 12 22  1  0
 12 23  1  0
 13 24  1  0
 13 25  1  0
 14 26  1  0
 15 27  1  0
 15 28  1  0
 16 29  1  0
 16 30  1  0
M  ISO  8  17  14  18  14  22   8  23   8  24   8  25   8  26  13  27  13
M  ISO  3  28  13  29  13  30  13
M  END
>  <minimizedAffinity>  (1) 
-4.89605808

>  <minimizedRMSD>  (1) 
2.56558323

$$$$
