
     RDKit          3D

 24 24  0  0  0  0  0  0  0  0999 V2000
   39.8780   30.8680   41.7090 C   0  0  0  0  0  0  0  0  0  0  0  0
   39.0490   30.0870   42.5440 C   0  0  0  0  0  0  0  0  0  0  0  0
   37.7070   29.9940   42.2390 C   0  0  0  0  0  0  0  0  0  0  0  0
   37.2990   30.6710   41.1480 N   0  0  0  0  0  0  0  0  0  0  0  0
   38.0590   31.4120   40.3470 C   0  0  0  0  0  0  0  0  0  0  0  0
   39.3680   31.5020   40.6450 N   0  0  0  0  0  0  0  0  0  0  0  0
   36.8050   29.2370   43.0300 N   0  0  0  0  0  0  0  0  0  0  0  0
   37.2050   28.2450   43.9440 C   0  0  0  0  0  0  0  0  0  0  0  0
   38.2750   27.6120   43.6630 N   0  0  0  0  0  0  0  0  0  0  0  0
   36.3860   28.0400   45.0860 N   0  0  0  0  0  0  0  0  0  0  0  0
   38.6370   26.9190   44.3700 H   0  0  0  0  0  0  0  0  0  0  0  0
   37.5180   32.1340   39.1570 C   0  0  0  0  0  0  0  0  0  0  0  0
   37.3890   33.5890   39.5790 C   0  0  0  0  0  0  0  0  0  0  0  0
   38.6290   34.2190   39.5200 O   0  0  0  0  0  0  0  0  0  0  0  0
   40.9511   30.9564   41.9342 H   0  0  0  0  0  0  0  0  0  0  0  0
   39.4643   29.5644   43.4183 H   0  0  0  0  0  0  0  0  0  0  0  0
   35.7973   29.4248   42.9292 H   0  0  0  0  0  0  0  0  0  0  0  0
   36.6413   27.3240   45.7810 H   0  0  0  0  0  0  0  0  0  0  0  0
   35.5367   28.6073   45.2192 H   0  0  0  0  0  0  0  0  0  0  0  0
   36.5349   31.7278   38.8767 H   0  0  0  0  0  0  0  0  0  0  0  0
   38.1757   32.0228   38.2823 H   0  0  0  0  0  0  0  0  0  0  0  0
   36.6883   34.1022   38.9040 H   0  0  0  0  0  0  0  0  0  0  0  0
   37.0142   33.6309   40.6123 H   0  0  0  0  0  0  0  0  0  0  0  0
   38.9582   34.3863   40.4386 H   0  0  0  0  0  0  0  0  0  0  0  0
  1  2  2  0
  3  2  1  0
  3  7  1  0
  4  3  2  0
  5  6  2  0
  5  4  1  0
  6  1  1  0
  7  8  1  0
  8 10  1  0
  9  8  2  0
  9 11  1  0
 12 13  1  0
 12  5  1  0
 14 13  1  0
  1 15  1  0
  2 16  1  0
  7 17  1  0
 10 18  1  0
 10 19  1  0
 12 20  1  0
 12 21  1  0
 13 22  1  0
 13 23  1  0
 14 24  1  0
M  ISO  7  15  14  16  14  20   8  21   8  22   8  23   8  24   3
M  END
>  <minimizedAffinity>  (1) 
-4.68221188

>  <minimizedRMSD>  (1) 
0.134278953

$$$$
