
     RDKit          3D

 29 32  0  0  0  0  0  0  0  0999 V2000
   39.0640   33.9690   40.0010 N   0  0  0  0  0  0  0  0  0  0  0  0
   38.8970   35.2960   40.0840 C   0  0  0  0  0  0  0  0  0  0  0  0
   40.0700   35.8390   40.4950 N   0  0  0  0  0  0  0  0  0  0  0  0
   40.9620   34.8300   40.6650 C   0  0  0  0  0  0  0  0  0  0  0  0
   40.3100   33.6770   40.3510 N   0  0  0  0  0  0  0  0  0  0  0  0
   42.3360   34.9390   41.0950 N   0  0  0  0  0  0  0  0  0  0  0  0
   43.3220   34.2050   40.5110 C   0  0  0  0  0  0  0  0  0  0  0  0
   44.4830   34.4920   41.0890 N   0  0  0  0  0  0  0  0  0  0  0  0
   44.2580   35.4110   42.0470 C   0  0  0  0  0  0  0  0  0  0  0  0
   45.0880   36.0560   42.9430 C   0  0  0  0  0  0  0  0  0  0  0  0
   44.5640   36.9430   43.7990 N   0  0  0  0  0  0  0  0  0  0  0  0
   43.2200   37.1780   43.7550 C   0  0  0  0  0  0  0  0  0  0  0  0
   42.3780   36.5550   42.8800 N   0  0  0  0  0  0  0  0  0  0  0  0
   42.9030   35.6790   42.0360 C   0  0  0  0  0  0  0  0  0  0  0  0
   38.3040   32.8090   39.6530 C   0  0  0  0  0  0  0  0  0  0  0  0
   37.2610   32.2870   40.4350 C   0  0  0  0  0  0  0  0  0  0  0  0
   36.6110   31.1480   39.9630 C   0  0  0  0  0  0  0  0  0  0  0  0
   37.0180   30.6060   38.7770 N   0  0  0  0  0  0  0  0  0  0  0  0
   38.0150   31.1330   38.0610 C   0  0  0  0  0  0  0  0  0  0  0  0
   38.6740   32.2360   38.4800 N   0  0  0  0  0  0  0  0  0  0  0  0
   46.4860   35.7070   42.8750 N   0  0  0  0  0  0  0  0  0  0  0  0
   37.9722   35.8474   39.8587 H   0  0  0  0  0  0  0  0  0  0  0  0
   43.1799   33.4872   39.6897 H   0  0  0  0  0  0  0  0  0  0  0  0
   42.7940   37.9065   44.4606 H   0  0  0  0  0  0  0  0  0  0  0  0
   36.9680   32.7592   41.3843 H   0  0  0  0  0  0  0  0  0  0  0  0
   35.7871   30.6948   40.5338 H   0  0  0  0  0  0  0  0  0  0  0  0
   38.3054   30.6598   37.1114 H   0  0  0  0  0  0  0  0  0  0  0  0
   47.1595   36.1514   43.5152 H   0  0  0  0  0  0  0  0  0  0  0  0
   46.8108   35.0134   42.1862 H   0  0  0  0  0  0  0  0  0  0  0  0
  1  2  1  0
  1  5  1  0
  2  3  2  0
  3  4  1  0
  4  6  1  0
  5  4  2  0
  6 14  1  0
  7  8  2  0
  7  6  1  0
  8  9  1  0
  9 10  1  0
 10 11  2  0
 12 11  1  0
 13 12  2  0
 14  9  2  0
 14 13  1  0
 15  1  1  0
 15 16  2  0
 17 16  1  0
 18 17  2  0
 19 20  2  0
 19 18  1  0
 20 15  1  0
 21 10  1  0
  2 22  1  0
  7 23  1  0
 12 24  1  0
 16 25  1  0
 17 26  1  0
 19 27  1  0
 21 28  1  0
 21 29  1  0
M  ISO  6  22  14  23  14  24  14  25  14  26  14  27  14
M  END
>  <minimizedAffinity>  (1) 
-6.62513733

>  <minimizedRMSD>  (1) 
2.49623847

$$$$
