
     RDKit          3D

 30 33  0  0  0  0  0  0  0  0999 V2000
   39.4220   34.0530   40.4060 N   0  0  0  0  0  0  0  0  0  0  0  0
   39.2830   35.3820   40.3430 C   0  0  0  0  0  0  0  0  0  0  0  0
   40.4740   35.9460   40.6370 N   0  0  0  0  0  0  0  0  0  0  0  0
   41.3550   34.9430   40.8820 C   0  0  0  0  0  0  0  0  0  0  0  0
   40.6760   33.7910   40.7330 N   0  0  0  0  0  0  0  0  0  0  0  0
   42.7810   35.0860   41.2440 C   0  0  0  0  0  0  0  0  0  0  0  0
   43.8530   34.4640   40.6420 C   0  0  0  0  0  0  0  0  0  0  0  0
   44.9750   34.8630   41.2680 N   0  0  0  0  0  0  0  0  0  0  0  0
   44.6190   35.7260   42.2540 C   0  0  0  0  0  0  0  0  0  0  0  0
   45.4630   36.3700   43.1350 C   0  0  0  0  0  0  0  0  0  0  0  0
   44.9080   37.2290   44.0890 C   0  0  0  0  0  0  0  0  0  0  0  0
   43.5360   37.3710   44.0760 C   0  0  0  0  0  0  0  0  0  0  0  0
   42.7060   36.7270   43.1940 C   0  0  0  0  0  0  0  0  0  0  0  0
   43.2400   35.8860   42.2610 C   0  0  0  0  0  0  0  0  0  0  0  0
   38.6240   32.8770   40.2270 C   0  0  0  0  0  0  0  0  0  0  0  0
   38.7020   31.7530   41.0660 C   0  0  0  0  0  0  0  0  0  0  0  0
   37.8600   30.6790   40.7660 C   0  0  0  0  0  0  0  0  0  0  0  0
   37.0320   30.7790   39.7040 N   0  0  0  0  0  0  0  0  0  0  0  0
   36.9860   31.8730   38.9220 C   0  0  0  0  0  0  0  0  0  0  0  0
   37.7790   32.9290   39.1760 N   0  0  0  0  0  0  0  0  0  0  0  0
   38.3577   35.9223   40.0945 H   0  0  0  0  0  0  0  0  0  0  0  0
   43.8005   33.7627   39.7961 H   0  0  0  0  0  0  0  0  0  0  0  0
   45.9345   34.5663   41.0397 H   0  0  0  0  0  0  0  0  0  0  0  0
   46.5504   36.2111   43.0881 H   0  0  0  0  0  0  0  0  0  0  0  0
   45.5358   37.7659   44.8153 H   0  0  0  0  0  0  0  0  0  0  0  0
   43.0794   38.0419   44.8186 H   0  0  0  0  0  0  0  0  0  0  0  0
   41.6186   36.8871   43.2383 H   0  0  0  0  0  0  0  0  0  0  0  0
   39.3943   31.7199   41.9202 H   0  0  0  0  0  0  0  0  0  0  0  0
   37.8714   29.7688   41.3836 H   0  0  0  0  0  0  0  0  0  0  0  0
   36.2938   31.9039   38.0676 H   0  0  0  0  0  0  0  0  0  0  0  0
  1  5  1  0
  2  1  1  0
  2  3  2  0
  3  4  1  0
  4  6  1  0
  5  4  2  0
  6 14  1  0
  7  6  2  0
  7  8  1  0
  8  9  1  0
  9 14  2  0
  9 10  1  0
 10 11  2  0
 12 11  1  0
 13 12  2  0
 14 13  1  0
 15  1  1  0
 15 16  2  0
 17 16  1  0
 18 17  2  0
 19 20  2  0
 19 18  1  0
 20 15  1  0
  2 21  1  0
  7 22  1  0
  8 23  1  0
 10 24  1  0
 11 25  1  0
 12 26  1  0
 13 27  1  0
 16 28  1  0
 17 29  1  0
 19 30  1  0
M  ISO  8  21  14  22  14  23   9  24  14  25  14  26  14  27  14  28  14
M  ISO  2  29  14  30  14
M  END
>  <minimizedAffinity>  (1) 
-6.2093997

>  <minimizedRMSD>  (1) 
2.86675668

$$$$
