
     RDKit          3D

 26 28  0  0  0  0  0  0  0  0999 V2000
   37.9580   30.7310   41.4310 N   0  0  0  0  0  0  0  0  0  0  0  0
   36.9020   31.2220   40.7650 C   0  0  0  0  0  0  0  0  0  0  0  0
   37.2650   32.4220   40.2390 N   0  0  0  0  0  0  0  0  0  0  0  0
   38.5550   32.6550   40.5960 C   0  0  0  0  0  0  0  0  0  0  0  0
   38.9610   31.5890   41.3360 N   0  0  0  0  0  0  0  0  0  0  0  0
   38.2860   29.5700   42.1960 C   0  0  0  0  0  0  0  0  0  0  0  0
   37.3510   28.8590   42.9810 C   0  0  0  0  0  0  0  0  0  0  0  0
   37.8250   27.7370   43.6760 C   0  0  0  0  0  0  0  0  0  0  0  0
   39.1330   27.4040   43.5580 N   0  0  0  0  0  0  0  0  0  0  0  0
   39.9910   28.1060   42.8010 C   0  0  0  0  0  0  0  0  0  0  0  0
   39.5810   29.1920   42.1140 N   0  0  0  0  0  0  0  0  0  0  0  0
   39.3630   33.8430   40.2430 C   0  0  0  0  0  0  0  0  0  0  0  0
   40.6650   33.6940   39.8120 C   0  0  0  0  0  0  0  0  0  0  0  0
   41.3790   34.8180   39.4960 C   0  0  0  0  0  0  0  0  0  0  0  0
   40.7610   36.0550   39.6220 C   0  0  0  0  0  0  0  0  0  0  0  0
   39.4600   36.1900   40.0540 C   0  0  0  0  0  0  0  0  0  0  0  0
   38.7270   35.0690   40.3770 C   0  0  0  0  0  0  0  0  0  0  0  0
   35.9185   30.7400   40.6628 H   0  0  0  0  0  0  0  0  0  0  0  0
   36.2982   29.1715   43.0442 H   0  0  0  0  0  0  0  0  0  0  0  0
   37.1484   27.1392   44.3044 H   0  0  0  0  0  0  0  0  0  0  0  0
   41.0432   27.7912   42.7401 H   0  0  0  0  0  0  0  0  0  0  0  0
   41.1184   32.6956   39.7244 H   0  0  0  0  0  0  0  0  0  0  0  0
   42.4203   34.7430   39.1496 H   0  0  0  0  0  0  0  0  0  0  0  0
   41.3313   36.9605   39.3675 H   0  0  0  0  0  0  0  0  0  0  0  0
   39.0080   37.1891   40.1408 H   0  0  0  0  0  0  0  0  0  0  0  0
   37.6861   35.1425   40.7249 H   0  0  0  0  0  0  0  0  0  0  0  0
  1  6  1  0
  2  1  1  0
  3  4  1  0
  3  2  2  0
  4  5  2  0
  5  1  1  0
  6  7  2  0
  7  8  1  0
  9  8  2  0
 10  9  1  0
 11  6  1  0
 11 10  2  0
 12 17  1  0
 12  4  1  0
 13 12  2  0
 14 15  2  0
 14 13  1  0
 15 16  1  0
 16 17  2  0
  2 18  1  0
  7 19  1  0
  8 20  1  0
 10 21  1  0
 13 22  1  0
 14 23  1  0
 15 24  1  0
 16 25  1  0
 17 26  1  0
M  ISO  8  18  14  19  14  20  14  21  14  22  14  23  14  24  14  25  14
M  ISO  1  26  14
M  END
>  <minimizedAffinity>  (1) 
-5.41756821

>  <minimizedRMSD>  (1) 
3.11696863

$$$$
