
     RDKit          3D

 29 31  0  0  0  0  0  0  0  0999 V2000
   38.3250   33.9070   39.8080 N   0  0  0  0  0  0  0  0  0  0  0  0
   38.0980   35.2170   39.6360 C   0  0  0  0  0  0  0  0  0  0  0  0
   39.1520   35.8970   40.1590 N   0  0  0  0  0  0  0  0  0  0  0  0
   40.0220   34.9860   40.6530 C   0  0  0  0  0  0  0  0  0  0  0  0
   39.4850   33.7560   40.4220 N   0  0  0  0  0  0  0  0  0  0  0  0
   37.6810   32.6660   39.5230 C   0  0  0  0  0  0  0  0  0  0  0  0
   36.9810   31.9050   40.4900 C   0  0  0  0  0  0  0  0  0  0  0  0
   36.4030   30.7090   40.0580 C   0  0  0  0  0  0  0  0  0  0  0  0
   36.5440   30.3500   38.7540 N   0  0  0  0  0  0  0  0  0  0  0  0
   37.2190   31.1020   37.8660 C   0  0  0  0  0  0  0  0  0  0  0  0
   37.7840   32.2540   38.2500 N   0  0  0  0  0  0  0  0  0  0  0  0
   43.4760   36.2420   42.7310 C   0  0  0  0  0  0  0  0  0  0  0  0
   42.2800   36.9250   42.7900 C   0  0  0  0  0  0  0  0  0  0  0  0
   41.1840   36.4390   42.0680 C   0  0  0  0  0  0  0  0  0  0  0  0
   41.3040   35.2890   41.3110 C   0  0  0  0  0  0  0  0  0  0  0  0
   42.4930   34.6110   41.2530 C   0  0  0  0  0  0  0  0  0  0  0  0
   43.5680   35.0960   41.9660 C   0  0  0  0  0  0  0  0  0  0  0  0
   44.8960   36.7670   43.5920 S   0  0  0  0  0  0  0  0  0  0  0  0
   45.0700   36.0750   44.9120 O   0  0  0  0  0  0  0  0  0  0  0  0
   46.0670   36.5670   42.6880 O   0  0  0  0  0  0  0  0  0  0  0  0
   37.2143   35.6629   39.1561 H   0  0  0  0  0  0  0  0  0  0  0  0
   36.8961   32.2403   41.5342 H   0  0  0  0  0  0  0  0  0  0  0  0
   35.8450   30.0704   40.7586 H   0  0  0  0  0  0  0  0  0  0  0  0
   37.3072   30.7697   36.8211 H   0  0  0  0  0  0  0  0  0  0  0  0
   42.1884   37.8386   43.3957 H   0  0  0  0  0  0  0  0  0  0  0  0
   40.2237   36.9742   42.1032 H   0  0  0  0  0  0  0  0  0  0  0  0
   42.5879   33.6967   40.6487 H   0  0  0  0  0  0  0  0  0  0  0  0
   44.5252   34.5556   41.9246 H   0  0  0  0  0  0  0  0  0  0  0  0
   44.7703   38.0918   43.9174 H   0  0  0  0  0  0  0  0  0  0  0  0
  1  5  1  0
  2  1  1  0
  2  3  2  0
  3  4  1  0
  4 15  1  0
  5  4  2  0
  6  1  1  0
  6  7  2  0
  8  7  1  0
  9  8  2  0
 10 11  2  0
 10  9  1  0
 11  6  1  0
 12 13  2  0
 12 18  1  0
 14 13  1  0
 15 14  2  0
 16 15  1  0
 16 17  2  0
 17 12  1  0
 18 19  2  0
 20 18  2  0
  2 21  1  0
  7 22  1  0
  8 23  1  0
 10 24  1  0
 13 25  1  0
 14 26  1  0
 16 27  1  0
 17 28  1  0
 18 29  1  0
M  ISO  8  21  14  22  14  23  14  24  14  25  14  26  14  27  14  28  14
M  ISO  1  29  11
M  END
>  <minimizedAffinity>  (1) 
-5.37972403

>  <minimizedRMSD>  (1) 
1.57366264

$$$$
