
     RDKit          3D

 25 27  0  0  0  0  0  0  0  0999 V2000
   37.4650   31.0700   40.6840 N   0  0  0  0  0  0  0  0  0  0  0  0
   36.7340   31.5720   39.6650 C   0  0  0  0  0  0  0  0  0  0  0  0
   37.3180   32.7460   39.2950 N   0  0  0  0  0  0  0  0  0  0  0  0
   38.3910   32.9340   40.0950 C   0  0  0  0  0  0  0  0  0  0  0  0
   38.4720   31.8860   40.9540 N   0  0  0  0  0  0  0  0  0  0  0  0
   37.4480   29.9210   41.5340 C   0  0  0  0  0  0  0  0  0  0  0  0
   36.4700   28.9030   41.4600 C   0  0  0  0  0  0  0  0  0  0  0  0
   36.5660   27.8330   42.3450 C   0  0  0  0  0  0  0  0  0  0  0  0
   37.6060   27.8360   43.2320 N   0  0  0  0  0  0  0  0  0  0  0  0
   38.5170   28.8160   43.2770 C   0  0  0  0  0  0  0  0  0  0  0  0
   38.4480   29.8610   42.4330 N   0  0  0  0  0  0  0  0  0  0  0  0
   39.2430   34.1100   39.9580 C   0  0  0  0  0  0  0  0  0  0  0  0
   38.8280   35.3850   40.2850 C   0  0  0  0  0  0  0  0  0  0  0  0
   39.6780   36.4820   40.1380 C   0  0  0  0  0  0  0  0  0  0  0  0
   40.9560   36.2080   39.6440 C   0  0  0  0  0  0  0  0  0  0  0  0
   41.3600   34.9160   39.3170 C   0  0  0  0  0  0  0  0  0  0  0  0
   40.4930   33.8760   39.4800 N   0  0  0  0  0  0  0  0  0  0  0  0
   35.8368   31.1186   39.2184 H   0  0  0  0  0  0  0  0  0  0  0  0
   35.6551   28.9551   40.7229 H   0  0  0  0  0  0  0  0  0  0  0  0
   35.8313   27.0144   42.3311 H   0  0  0  0  0  0  0  0  0  0  0  0
   39.3324   28.7659   44.0136 H   0  0  0  0  0  0  0  0  0  0  0  0
   37.8086   35.5393   40.6685 H   0  0  0  0  0  0  0  0  0  0  0  0
   39.3604   37.5030   40.3960 H   0  0  0  0  0  0  0  0  0  0  0  0
   41.6648   37.0383   39.5092 H   0  0  0  0  0  0  0  0  0  0  0  0
   42.3734   34.7352   38.9292 H   0  0  0  0  0  0  0  0  0  0  0  0
  1  5  1  0
  1  6  1  0
  2  1  1  0
  3  2  2  0
  3  4  1  0
  4  5  2  0
  6 11  1  0
  7  6  2  0
  7  8  1  0
  8  9  2  0
  9 10  1  0
 11 10  2  0
 12  4  1  0
 12 13  2  0
 14 13  1  0
 15 14  2  0
 16 17  2  0
 16 15  1  0
 17 12  1  0
  2 18  1  0
  7 19  1  0
  8 20  1  0
 10 21  1  0
 13 22  1  0
 14 23  1  0
 15 24  1  0
 16 25  1  0
M  ISO  8  18  14  19  14  20  14  21  14  22  14  23  14  24  14  25  14
M  END
>  <minimizedAffinity>  (1) 
-5.37274027

>  <minimizedRMSD>  (1) 
2.66334462

$$$$
