
     RDKit          3D

 23 24  0  0  0  0  0  0  0  0999 V2000
   37.7190   32.5780   40.4670 N   0  0  0  0  0  0  0  0  0  0  0  0
   37.3380   33.5320   39.6130 C   0  0  0  0  0  0  0  0  0  0  0  0
   38.1370   34.6060   39.7750 N   0  0  0  0  0  0  0  0  0  0  0  0
   39.0340   34.2900   40.7660 C   0  0  0  0  0  0  0  0  0  0  0  0
   38.7490   33.0410   41.1660 N   0  0  0  0  0  0  0  0  0  0  0  0
   40.0800   35.1540   41.2660 N   0  0  0  0  0  0  0  0  0  0  0  0
   40.2020   36.4510   40.6900 C   0  0  0  0  0  0  0  0  0  0  0  0
   39.2220   36.8730   39.9320 N   0  0  0  0  0  0  0  0  0  0  0  0
   41.3850   37.1630   40.9990 N   0  0  0  0  0  0  0  0  0  0  0  0
   39.3790   37.8380   39.5410 H   0  0  0  0  0  0  0  0  0  0  0  0
   37.3510   31.2530   40.8300 C   0  0  0  0  0  0  0  0  0  0  0  0
   36.1310   30.6530   40.4900 C   0  0  0  0  0  0  0  0  0  0  0  0
   35.8900   29.3420   40.9120 C   0  0  0  0  0  0  0  0  0  0  0  0
   36.8640   28.7280   41.6310 N   0  0  0  0  0  0  0  0  0  0  0  0
   38.0360   29.3320   41.9460 C   0  0  0  0  0  0  0  0  0  0  0  0
   38.2820   30.5850   41.5500 N   0  0  0  0  0  0  0  0  0  0  0  0
   36.5082   33.4541   38.8951 H   0  0  0  0  0  0  0  0  0  0  0  0
   40.7158   34.8420   42.0139 H   0  0  0  0  0  0  0  0  0  0  0  0
   41.5338   38.1065   40.6136 H   0  0  0  0  0  0  0  0  0  0  0  0
   42.0974   36.7378   41.6094 H   0  0  0  0  0  0  0  0  0  0  0  0
   35.3792   31.2017   39.9037 H   0  0  0  0  0  0  0  0  0  0  0  0
   34.9478   28.8281   40.6708 H   0  0  0  0  0  0  0  0  0  0  0  0
   38.7906   28.7869   42.5321 H   0  0  0  0  0  0  0  0  0  0  0  0
  1 11  1  0
  1  5  1  0
  2  3  2  0
  2  1  1  0
  3  4  1  0
  4  5  2  0
  4  6  1  0
  7  9  1  0
  7  6  1  0
  8  7  2  0
 10  8  1  0
 11 16  1  0
 12 11  2  0
 12 13  1  0
 13 14  2  0
 14 15  1  0
 16 15  2  0
  2 17  1  0
  6 18  1  0
  9 19  1  0
  9 20  1  0
 12 21  1  0
 13 22  1  0
 15 23  1  0
M  ISO  4  17  14  21  14  22  14  23  14
M  END
>  <minimizedAffinity>  (1) 
-5.30010986

>  <minimizedRMSD>  (1) 
1.15683246

$$$$
