
     RDKit          3D

 23 25  0  0  0  0  0  0  0  0999 V2000
   37.4290   31.1730   40.5210 N   0  0  0  0  0  0  0  0  0  0  0  0
   36.7740   31.6190   39.4450 C   0  0  0  0  0  0  0  0  0  0  0  0
   37.3260   32.8130   39.0960 N   0  0  0  0  0  0  0  0  0  0  0  0
   38.3230   33.0860   39.9720 C   0  0  0  0  0  0  0  0  0  0  0  0
   38.3600   32.0550   40.8350 N   0  0  0  0  0  0  0  0  0  0  0  0
   39.1630   34.2540   39.9570 N   0  0  0  0  0  0  0  0  0  0  0  0
   38.7790   35.4630   40.2470 N   0  0  0  0  0  0  0  0  0  0  0  0
   39.7840   36.3460   40.1460 C   0  0  0  0  0  0  0  0  0  0  0  0
   40.8670   35.5540   39.7550 C   0  0  0  0  0  0  0  0  0  0  0  0
   40.4690   34.2210   39.6350 C   0  0  0  0  0  0  0  0  0  0  0  0
   37.4100   30.0440   41.4010 C   0  0  0  0  0  0  0  0  0  0  0  0
   36.4510   29.0230   41.3480 C   0  0  0  0  0  0  0  0  0  0  0  0
   36.5500   27.9800   42.2680 C   0  0  0  0  0  0  0  0  0  0  0  0
   37.5720   28.0190   43.1600 N   0  0  0  0  0  0  0  0  0  0  0  0
   38.4720   29.0070   43.1870 C   0  0  0  0  0  0  0  0  0  0  0  0
   38.4060   30.0330   42.3100 N   0  0  0  0  0  0  0  0  0  0  0  0
   35.9409   31.1135   38.9347 H   0  0  0  0  0  0  0  0  0  0  0  0
   39.7611   37.4307   40.3271 H   0  0  0  0  0  0  0  0  0  0  0  0
   41.8851   35.9266   39.5688 H   0  0  0  0  0  0  0  0  0  0  0  0
   41.0778   33.3515   39.3462 H   0  0  0  0  0  0  0  0  0  0  0  0
   35.6432   29.0441   40.6017 H   0  0  0  0  0  0  0  0  0  0  0  0
   35.8242   27.1534   42.2707 H   0  0  0  0  0  0  0  0  0  0  0  0
   39.2787   28.9845   43.9345 H   0  0  0  0  0  0  0  0  0  0  0  0
  1  5  1  0
  1 11  1  0
  2  1  1  0
  3  2  2  0
  3  4  1  0
  4  5  2  0
  6  4  1  0
  6  7  1  0
  8  7  2  0
  9  8  1  0
 10  9  2  0
 10  6  1  0
 11 16  1  0
 12 11  2  0
 12 13  1  0
 13 14  2  0
 14 15  1  0
 16 15  2  0
  2 17  1  0
  8 18  1  0
  9 19  1  0
 10 20  1  0
 12 21  1  0
 13 22  1  0
 15 23  1  0
M  ISO  7  17  14  18  14  19  14  20  14  21  14  22  14  23  14
M  END
>  <minimizedAffinity>  (1) 
-5.22553539

>  <minimizedRMSD>  (1) 
2.52100396

$$$$
