
     RDKit          3D

 22 24  0  0  0  0  0  0  0  0999 V2000
   37.3800   30.9660   40.6510 N   0  0  0  0  0  0  0  0  0  0  0  0
   36.6520   31.4530   39.6320 C   0  0  0  0  0  0  0  0  0  0  0  0
   37.2180   32.6250   39.2440 N   0  0  0  0  0  0  0  0  0  0  0  0
   38.2970   32.8470   40.0360 C   0  0  0  0  0  0  0  0  0  0  0  0
   38.3710   31.8100   40.8900 N   0  0  0  0  0  0  0  0  0  0  0  0
   39.1760   33.9900   39.9500 N   0  0  0  0  0  0  0  0  0  0  0  0
   38.8680   35.2510   40.2810 C   0  0  0  0  0  0  0  0  0  0  0  0
   39.9500   36.0280   40.0600 N   0  0  0  0  0  0  0  0  0  0  0  0
   40.9430   35.2470   39.5870 C   0  0  0  0  0  0  0  0  0  0  0  0
   40.4300   33.9890   39.5310 N   0  0  0  0  0  0  0  0  0  0  0  0
   37.3980   29.8370   41.5250 C   0  0  0  0  0  0  0  0  0  0  0  0
   36.4490   28.8020   41.5010 C   0  0  0  0  0  0  0  0  0  0  0  0
   36.6150   27.7640   42.4310 C   0  0  0  0  0  0  0  0  0  0  0  0
   37.6640   27.8210   43.2810 N   0  0  0  0  0  0  0  0  0  0  0  0
   38.5530   28.8240   43.2770 C   0  0  0  0  0  0  0  0  0  0  0  0
   38.4340   29.8360   42.4070 N   0  0  0  0  0  0  0  0  0  0  0  0
   35.7586   30.9865   39.1914 H   0  0  0  0  0  0  0  0  0  0  0  0
   37.8975   35.5954   40.6676 H   0  0  0  0  0  0  0  0  0  0  0  0
   41.9582   35.5627   39.3048 H   0  0  0  0  0  0  0  0  0  0  0  0
   35.6134   28.8047   40.7857 H   0  0  0  0  0  0  0  0  0  0  0  0
   35.9070   26.9229   42.4672 H   0  0  0  0  0  0  0  0  0  0  0  0
   39.3872   28.8163   43.9939 H   0  0  0  0  0  0  0  0  0  0  0  0
  1  5  1  0
  1 11  1  0
  2  1  1  0
  3  2  2  0
  3  4  1  0
  4  5  2  0
  6  4  1  0
  6  7  1  0
  8  7  2  0
  9  8  1  0
 10  9  2  0
 10  6  1  0
 11 16  1  0
 12 11  2  0
 12 13  1  0
 13 14  2  0
 15 14  1  0
 16 15  2  0
  2 17  1  0
  7 18  1  0
  9 19  1  0
 12 20  1  0
 13 21  1  0
 15 22  1  0
M  ISO  6  17  14  18  14  19  14  20  14  21  14  22  14
M  END
>  <minimizedAffinity>  (1) 
-5.09672642

>  <minimizedRMSD>  (1) 
2.66165638

$$$$
