
     RDKit          3D

 17 17  0  0  0  0  0  0  0  0999 V2000
   38.6460   28.6500   43.2610 C   0  0  0  0  0  0  0  0  0  0  0  0
   38.0250   27.4030   43.0850 C   0  0  0  0  0  0  0  0  0  0  0  0
   36.8940   27.3410   42.2730 C   0  0  0  0  0  0  0  0  0  0  0  0
   36.4610   28.4970   41.7020 N   0  0  0  0  0  0  0  0  0  0  0  0
   37.0750   29.6790   41.8890 C   0  0  0  0  0  0  0  0  0  0  0  0
   38.1620   29.7500   42.6660 N   0  0  0  0  0  0  0  0  0  0  0  0
   36.5670   30.8470   41.2600 N   0  0  0  0  0  0  0  0  0  0  0  0
   37.4360   31.7620   40.6090 C   0  0  0  0  0  0  0  0  0  0  0  0
   38.6800   31.3880   40.5060 N   0  0  0  0  0  0  0  0  0  0  0  0
   36.8670   33.0000   40.1290 N   0  0  0  0  0  0  0  0  0  0  0  0
   39.3670   32.0360   40.0280 H   0  0  0  0  0  0  0  0  0  0  0  0
   39.5414   28.7256   43.8954 H   0  0  0  0  0  0  0  0  0  0  0  0
   38.4201   26.5005   43.5742 H   0  0  0  0  0  0  0  0  0  0  0  0
   36.3695   26.3897   42.0998 H   0  0  0  0  0  0  0  0  0  0  0  0
   35.5540   31.0328   41.2764 H   0  0  0  0  0  0  0  0  0  0  0  0
   37.4640   33.6902   39.6514 H   0  0  0  0  0  0  0  0  0  0  0  0
   35.8643   33.1925   40.2644 H   0  0  0  0  0  0  0  0  0  0  0  0
  2  1  2  0
  3  2  1  0
  4  5  1  0
  4  3  2  0
  5  6  2  0
  6  1  1  0
  7  5  1  0
  8  7  1  0
  9  8  2  0
 10  8  1  0
 11  9  1  0
  1 12  1  0
  2 13  1  0
  3 14  1  0
  7 15  1  0
 10 16  1  0
 10 17  1  0
M  ISO  3  12  14  13  14  14  14
M  END
>  <minimizedAffinity>  (1) 
-3.93251801

>  <minimizedRMSD>  (1) 
1.26419246

$$$$
