
     RDKit          3D

 21 23  0  0  0  0  0  0  0  0999 V2000
   37.4590   31.2940   40.6030 N   0  0  0  0  0  0  0  0  0  0  0  0
   36.8280   31.8160   39.5450 C   0  0  0  0  0  0  0  0  0  0  0  0
   37.3800   33.0120   39.2610 N   0  0  0  0  0  0  0  0  0  0  0  0
   38.3780   33.2310   40.1690 C   0  0  0  0  0  0  0  0  0  0  0  0
   38.4000   32.1500   40.9820 N   0  0  0  0  0  0  0  0  0  0  0  0
   37.4200   30.1210   41.4180 C   0  0  0  0  0  0  0  0  0  0  0  0
   36.4400   29.1120   41.3040 C   0  0  0  0  0  0  0  0  0  0  0  0
   36.5440   28.0280   42.1790 C   0  0  0  0  0  0  0  0  0  0  0  0
   37.5550   27.9980   43.0710 N   0  0  0  0  0  0  0  0  0  0  0  0
   38.4760   28.9850   43.1490 C   0  0  0  0  0  0  0  0  0  0  0  0
   38.4150   30.0430   42.3310 N   0  0  0  0  0  0  0  0  0  0  0  0
   39.2450   34.4180   40.2290 C   0  0  0  0  0  0  0  0  0  0  0  0
   40.5790   34.4840   40.4710 N   0  0  0  0  0  0  0  0  0  0  0  0
   40.9680   35.7340   40.4360 O   0  0  0  0  0  0  0  0  0  0  0  0
   39.9380   36.5170   40.1790 C   0  0  0  0  0  0  0  0  0  0  0  0
   38.8490   35.7080   40.0450 N   0  0  0  0  0  0  0  0  0  0  0  0
   35.9969   31.3469   38.9980 H   0  0  0  0  0  0  0  0  0  0  0  0
   35.6317   29.1761   40.5606 H   0  0  0  0  0  0  0  0  0  0  0  0
   35.8105   27.2092   42.1409 H   0  0  0  0  0  0  0  0  0  0  0  0
   39.2839   28.9179   43.8925 H   0  0  0  0  0  0  0  0  0  0  0  0
   39.9546   37.6133   40.0899 H   0  0  0  0  0  0  0  0  0  0  0  0
  1  5  1  0
  1  6  1  0
  2  1  1  0
  3  2  2  0
  3  4  1  0
  4 12  1  0
  4  5  2  0
  6 11  1  0
  7  6  2  0
  7  8  1  0
  8  9  2  0
  9 10  1  0
 11 10  2  0
 12 13  2  0
 14 13  1  0
 15 14  1  0
 16 15  2  0
 16 12  1  0
  2 17  1  0
  7 18  1  0
  8 19  1  0
 10 20  1  0
 15 21  1  0
M  ISO  5  17  14  18  14  19  14  20  14  21  14
M  END
>  <minimizedAffinity>  (1) 
-4.9086237

>  <minimizedRMSD>  (1) 
2.39971805

$$$$
