
     RDKit          3D

 24 24  0  0  0  0  0  0  0  0999 V2000
   39.2500   30.2980   41.2390 C   0  0  0  0  0  0  0  0  0  0  0  0
   39.2420   29.1250   42.0240 C   0  0  0  0  0  0  0  0  0  0  0  0
   38.0410   28.6400   42.5000 C   0  0  0  0  0  0  0  0  0  0  0  0
   36.8930   29.3280   42.1810 N   0  0  0  0  0  0  0  0  0  0  0  0
   36.9320   30.4390   41.4310 C   0  0  0  0  0  0  0  0  0  0  0  0
   38.0920   30.9430   40.9500 N   0  0  0  0  0  0  0  0  0  0  0  0
   35.6820   31.1010   41.1440 N   0  0  0  0  0  0  0  0  0  0  0  0
   37.8640   27.4440   43.3220 C   0  0  0  0  0  0  0  0  0  0  0  0
   37.0110   27.8440   44.5220 C   0  0  0  0  0  0  0  0  0  0  0  0
   37.1900   26.3100   42.5620 C   0  0  0  0  0  0  0  0  0  0  0  0
   39.1580   26.8990   43.8710 C   0  0  0  0  0  0  0  0  0  0  0  0
   40.2035   30.6927   40.8582 H   0  0  0  0  0  0  0  0  0  0  0  0
   40.1827   28.6032   42.2538 H   0  0  0  0  0  0  0  0  0  0  0  0
   35.6722   31.9570   40.5712 H   0  0  0  0  0  0  0  0  0  0  0  0
   34.7997   30.7175   41.5120 H   0  0  0  0  0  0  0  0  0  0  0  0
   37.5445   27.5938   45.4508 H   0  0  0  0  0  0  0  0  0  0  0  0
   36.8180   28.9265   44.4902 H   0  0  0  0  0  0  0  0  0  0  0  0
   36.0554   27.3001   44.4902 H   0  0  0  0  0  0  0  0  0  0  0  0
   36.7632   25.5918   43.2776 H   0  0  0  0  0  0  0  0  0  0  0  0
   36.3879   26.7183   41.9296 H   0  0  0  0  0  0  0  0  0  0  0  0
   37.9320   25.8005   41.9296 H   0  0  0  0  0  0  0  0  0  0  0  0
   39.1247   26.9130   44.9704 H   0  0  0  0  0  0  0  0  0  0  0  0
   39.2981   25.8654   43.5216 H   0  0  0  0  0  0  0  0  0  0  0  0
   39.9954   27.5209   43.5216 H   0  0  0  0  0  0  0  0  0  0  0  0
  1  2  2  0
  2  3  1  0
  3  8  1  0
  4  3  2  0
  5  4  1  0
  6  1  1  0
  6  5  2  0
  7  5  1  0
  8 11  1  0
  8  9  1  0
 10  8  1  0
  1 12  1  0
  2 13  1  0
  7 14  1  0
  7 15  1  0
  9 16  1  0
  9 17  1  0
  9 18  1  0
 10 19  1  0
 10 20  1  0
 10 21  1  0
 11 22  1  0
 11 23  1  0
 11 24  1  0
M  ISO  8  12  14  13  14  16   8  17   8  18   8  19   8  20   8  21   8
M  ISO  3  22   8  23   8  24   8
M  END
>  <minimizedAffinity>  (1) 
-4.48724699

>  <minimizedRMSD>  (1) 
2.36418009

$$$$
