
     RDKit          3D

 37 41  0  0  0  0  0  0  0  0999 V2000
   40.8050   33.3140   39.4420 C   0  0  0  0  0  0  0  0  0  0  0  0
   41.8320   32.8820   38.6370 C   0  0  0  0  0  0  0  0  0  0  0  0
   43.1050   33.3310   38.9150 C   0  0  0  0  0  0  0  0  0  0  0  0
   43.3550   34.1730   39.9480 N   0  0  0  0  0  0  0  0  0  0  0  0
   42.3450   34.5920   40.7320 C   0  0  0  0  0  0  0  0  0  0  0  0
   41.0750   34.1630   40.4790 N   0  0  0  0  0  0  0  0  0  0  0  0
   42.6110   35.4650   41.8010 N   0  0  0  0  0  0  0  0  0  0  0  0
   41.9340   36.5900   42.0960 C   0  0  0  0  0  0  0  0  0  0  0  0
   42.4660   37.1750   43.1880 N   0  0  0  0  0  0  0  0  0  0  0  0
   43.5110   36.4120   43.6080 C   0  0  0  0  0  0  0  0  0  0  0  0
   44.3390   36.6380   44.6880 C   0  0  0  0  0  0  0  0  0  0  0  0
   45.3060   35.6910   44.8610 N   0  0  0  0  0  0  0  0  0  0  0  0
   45.3910   34.6390   44.0020 C   0  0  0  0  0  0  0  0  0  0  0  0
   44.5670   34.4440   42.9520 N   0  0  0  0  0  0  0  0  0  0  0  0
   43.5950   35.3440   42.7340 C   0  0  0  0  0  0  0  0  0  0  0  0
   37.5590   31.8850   38.7260 N   0  0  0  0  0  0  0  0  0  0  0  0
   37.2130   32.9550   39.4600 C   0  0  0  0  0  0  0  0  0  0  0  0
   38.3260   33.6130   39.8180 N   0  0  0  0  0  0  0  0  0  0  0  0
   39.3850   32.9380   39.2940 C   0  0  0  0  0  0  0  0  0  0  0  0
   38.8850   31.8760   38.6250 N   0  0  0  0  0  0  0  0  0  0  0  0
   36.9380   30.8020   38.0520 C   0  0  0  0  0  0  0  0  0  0  0  0
   36.0440   29.9090   38.6660 C   0  0  0  0  0  0  0  0  0  0  0  0
   35.4990   28.8850   37.8970 C   0  0  0  0  0  0  0  0  0  0  0  0
   35.8710   28.8170   36.5950 N   0  0  0  0  0  0  0  0  0  0  0  0
   36.7230   29.6780   36.0330 C   0  0  0  0  0  0  0  0  0  0  0  0
   37.2740   30.6840   36.7410 N   0  0  0  0  0  0  0  0  0  0  0  0
   44.1740   37.7690   45.5320 N   0  0  0  0  0  0  0  0  0  0  0  0
   41.6435   32.1984   37.7961 H   0  0  0  0  0  0  0  0  0  0  0  0
   43.9405   32.9974   38.2820 H   0  0  0  0  0  0  0  0  0  0  0  0
   41.0734   36.9755   41.5296 H   0  0  0  0  0  0  0  0  0  0  0  0
   46.1851   33.8978   44.1756 H   0  0  0  0  0  0  0  0  0  0  0  0
   36.1853   33.2446   39.7244 H   0  0  0  0  0  0  0  0  0  0  0  0
   35.7812   30.0165   39.7287 H   0  0  0  0  0  0  0  0  0  0  0  0
   34.7940   28.1592   38.3286 H   0  0  0  0  0  0  0  0  0  0  0  0
   36.9807   29.5639   34.9697 H   0  0  0  0  0  0  0  0  0  0  0  0
   44.8076   37.9119   46.3314 H   0  0  0  0  0  0  0  0  0  0  0  0
   43.4208   38.4460   45.3445 H   0  0  0  0  0  0  0  0  0  0  0  0
  1  6  2  0
  2  3  2  0
  2  1  1  0
  3  4  1  0
  4  5  2  0
  5  7  1  0
  6  5  1  0
  7  8  1  0
  7 15  1  0
  8  9  2  0
  9 10  1  0
 10 11  2  0
 11 12  1  0
 11 27  1  0
 13 12  2  0
 14 13  1  0
 15 14  2  0
 15 10  1  0
 16 17  1  0
 17 18  2  0
 19  1  1  0
 19 18  1  0
 20 16  1  0
 20 19  2  0
 21 22  2  0
 21 16  1  0
 23 22  1  0
 24 23  2  0
 25 24  1  0
 25 26  2  0
 26 21  1  0
  2 28  1  0
  3 29  1  0
  8 30  1  0
 13 31  1  0
 17 32  1  0
 22 33  1  0
 23 34  1  0
 25 35  1  0
 27 36  1  0
 27 37  1  0
M  ISO  8  28  14  29  14  30  14  31  14  32  14  33  14  34  14  35  14
M  END
>  <minimizedAffinity>  (1) 
-7.49032593

>  <minimizedRMSD>  (1) 
2.98546672

$$$$
