
     RDKit          3D

 27 29  0  0  0  0  0  0  0  0999 V2000
   39.8860   34.7790   40.1650 N   0  0  0  0  0  0  0  0  0  0  0  0
   39.7730   36.1160   40.2970 C   0  0  0  0  0  0  0  0  0  0  0  0
   40.8820   36.5820   40.9050 N   0  0  0  0  0  0  0  0  0  0  0  0
   41.6850   35.5100   41.1480 C   0  0  0  0  0  0  0  0  0  0  0  0
   41.0480   34.3980   40.6810 N   0  0  0  0  0  0  0  0  0  0  0  0
   39.1280   33.6930   39.6430 C   0  0  0  0  0  0  0  0  0  0  0  0
   37.7450   33.5680   39.7970 C   0  0  0  0  0  0  0  0  0  0  0  0
   37.1260   32.4570   39.2370 C   0  0  0  0  0  0  0  0  0  0  0  0
   37.9040   31.5520   38.5670 N   0  0  0  0  0  0  0  0  0  0  0  0
   39.2190   31.7090   38.4420 C   0  0  0  0  0  0  0  0  0  0  0  0
   39.8620   32.7680   38.9680 N   0  0  0  0  0  0  0  0  0  0  0  0
   43.0110   35.5570   41.8040 C   0  0  0  0  0  0  0  0  0  0  0  0
   44.1240   34.8490   41.4010 C   0  0  0  0  0  0  0  0  0  0  0  0
   45.2880   35.0120   42.1330 C   0  0  0  0  0  0  0  0  0  0  0  0
   45.3450   35.8320   43.2060 N   0  0  0  0  0  0  0  0  0  0  0  0
   44.2520   36.5090   43.5790 C   0  0  0  0  0  0  0  0  0  0  0  0
   43.0890   36.3830   42.8960 N   0  0  0  0  0  0  0  0  0  0  0  0
   44.3510   37.3840   44.7420 C   0  0  0  0  0  0  0  0  0  0  0  0
   44.6700   38.5860   44.5450 O   0  0  0  0  0  0  0  0  0  0  0  0
   44.1230   37.0010   46.0380 O   0  0  0  0  0  0  0  0  0  0  0  0
   38.9191   36.7244   39.9643 H   0  0  0  0  0  0  0  0  0  0  0  0
   37.1644   34.3252   40.3443 H   0  0  0  0  0  0  0  0  0  0  0  0
   36.0400   32.3089   39.3297 H   0  0  0  0  0  0  0  0  0  0  0  0
   39.7976   30.9515   37.8929 H   0  0  0  0  0  0  0  0  0  0  0  0
   44.0882   34.1789   40.5294 H   0  0  0  0  0  0  0  0  0  0  0  0
   46.1906   34.4593   41.8332 H   0  0  0  0  0  0  0  0  0  0  0  0
   44.2120   37.6596   46.7718 H   0  0  0  0  0  0  0  0  0  0  0  0
  1  2  1  0
  1  5  1  0
  2  3  2  0
  3  4  1  0
  4 12  1  0
  5  4  2  0
  6  7  2  0
  6  1  1  0
  8  7  1  0
  9  8  2  0
 10  9  1  0
 10 11  2  0
 11  6  1  0
 12 17  1  0
 13 12  2  0
 13 14  1  0
 14 15  2  0
 15 16  1  0
 16 18  1  0
 17 16  2  0
 18 20  1  0
 19 18  2  0
  2 21  1  0
  7 22  1  0
  8 23  1  0
 10 24  1  0
 13 25  1  0
 14 26  1  0
 20 27  1  0
M  ISO  7  21  14  22  14  23  14  24  14  25  14  26  14  27   3
M  END
>  <minimizedAffinity>  (1) 
-6.32096338

>  <minimizedRMSD>  (1) 
2.66047931

$$$$
