
     RDKit          3D

 27 29  0  0  0  0  0  0  0  0999 V2000
   39.9420   34.6110   40.1000 N   0  0  0  0  0  0  0  0  0  0  0  0
   39.8800   35.9450   40.2480 C   0  0  0  0  0  0  0  0  0  0  0  0
   41.0150   36.3770   40.8340 N   0  0  0  0  0  0  0  0  0  0  0  0
   41.7910   35.2830   41.0510 C   0  0  0  0  0  0  0  0  0  0  0  0
   41.1000   34.2080   40.5880 N   0  0  0  0  0  0  0  0  0  0  0  0
   39.1410   33.5640   39.5880 C   0  0  0  0  0  0  0  0  0  0  0  0
   37.7470   33.4720   39.8240 C   0  0  0  0  0  0  0  0  0  0  0  0
   37.0700   32.3890   39.2640 C   0  0  0  0  0  0  0  0  0  0  0  0
   37.7940   31.4850   38.5240 N   0  0  0  0  0  0  0  0  0  0  0  0
   39.1110   31.6150   38.3290 C   0  0  0  0  0  0  0  0  0  0  0  0
   39.8010   32.6420   38.8500 N   0  0  0  0  0  0  0  0  0  0  0  0
   43.1300   35.2680   41.6730 C   0  0  0  0  0  0  0  0  0  0  0  0
   44.2520   34.6810   41.1670 C   0  0  0  0  0  0  0  0  0  0  0  0
   45.4260   34.7650   41.8830 C   0  0  0  0  0  0  0  0  0  0  0  0
   45.4860   35.4070   43.0610 N   0  0  0  0  0  0  0  0  0  0  0  0
   44.3720   35.9940   43.5720 C   0  0  0  0  0  0  0  0  0  0  0  0
   43.2100   35.9180   42.8720 N   0  0  0  0  0  0  0  0  0  0  0  0
   44.4340   36.7080   44.8780 C   0  0  0  0  0  0  0  0  0  0  0  0
   45.0430   35.8820   45.8270 F   0  0  0  0  0  0  0  0  0  0  0  0
   45.0530   37.9320   44.7750 F   0  0  0  0  0  0  0  0  0  0  0  0
   43.1460   36.9280   45.3350 F   0  0  0  0  0  0  0  0  0  0  0  0
   39.0381   36.5826   39.9404 H   0  0  0  0  0  0  0  0  0  0  0  0
   37.2188   34.2261   40.4260 H   0  0  0  0  0  0  0  0  0  0  0  0
   35.9872   32.2619   39.4104 H   0  0  0  0  0  0  0  0  0  0  0  0
   39.6414   30.8623   37.7273 H   0  0  0  0  0  0  0  0  0  0  0  0
   44.2203   34.1499   40.2043 H   0  0  0  0  0  0  0  0  0  0  0  0
   46.3355   34.2952   41.4804 H   0  0  0  0  0  0  0  0  0  0  0  0
  1  2  1  0
  1  5  1  0
  2  3  2  0
  3  4  1  0
  4 12  1  0
  5  4  2  0
  6  7  2  0
  6  1  1  0
  8  7  1  0
  9  8  2  0
 10  9  1  0
 10 11  2  0
 11  6  1  0
 12 17  1  0
 13 12  2  0
 13 14  1  0
 14 15  2  0
 15 16  1  0
 16 18  1  0
 17 16  2  0
 18 21  1  0
 18 19  1  0
 20 18  1  0
  2 22  1  0
  7 23  1  0
  8 24  1  0
 10 25  1  0
 13 26  1  0
 14 27  1  0
M  ISO  6  22  14  23  14  24  14  25  14  26  14  27  14
M  END
>  <minimizedAffinity>  (1) 
-6.18109226

>  <minimizedRMSD>  (1) 
2.79682374

$$$$
