
     RDKit          3D

 38 42  0  0  0  0  0  0  0  0999 V2000
   46.1650   32.0220   39.9330 C   0  0  0  0  0  0  0  0  0  0  0  0
   47.3360   31.3990   40.2630 C   0  0  0  0  0  0  0  0  0  0  0  0
   48.0260   31.8310   41.3740 C   0  0  0  0  0  0  0  0  0  0  0  0
   47.5740   32.8430   42.1310 N   0  0  0  0  0  0  0  0  0  0  0  0
   46.4270   33.4560   41.8110 C   0  0  0  0  0  0  0  0  0  0  0  0
   45.7330   33.0450   40.7210 N   0  0  0  0  0  0  0  0  0  0  0  0
   45.8530   34.5440   42.5440 N   0  0  0  0  0  0  0  0  0  0  0  0
   45.5300   35.7380   42.0300 C   0  0  0  0  0  0  0  0  0  0  0  0
   45.0150   36.5210   42.9940 N   0  0  0  0  0  0  0  0  0  0  0  0
   45.0200   35.7940   44.1310 C   0  0  0  0  0  0  0  0  0  0  0  0
   44.6190   36.0650   45.4140 C   0  0  0  0  0  0  0  0  0  0  0  0
   44.1390   37.1710   45.7180 O   0  0  0  0  0  0  0  0  0  0  0  0
   44.7670   35.0930   46.3290 N   0  0  0  0  0  0  0  0  0  0  0  0
   45.2760   33.8920   46.0540 C   0  0  0  0  0  0  0  0  0  0  0  0
   45.4420   32.8420   47.0100 N   0  0  0  0  0  0  0  0  0  0  0  0
   45.6760   33.6020   44.7980 N   0  0  0  0  0  0  0  0  0  0  0  0
   45.5410   34.5610   43.8530 C   0  0  0  0  0  0  0  0  0  0  0  0
   43.9880   30.6240   37.4160 N   0  0  0  0  0  0  0  0  0  0  0  0
   44.1300   31.8730   36.9430 C   0  0  0  0  0  0  0  0  0  0  0  0
   44.9360   32.5540   37.7830 N   0  0  0  0  0  0  0  0  0  0  0  0
   45.2870   31.7020   38.7840 C   0  0  0  0  0  0  0  0  0  0  0  0
   44.6870   30.5120   38.5340 N   0  0  0  0  0  0  0  0  0  0  0  0
   43.3140   29.4190   37.0630 C   0  0  0  0  0  0  0  0  0  0  0  0
   41.9210   29.2340   37.2130 C   0  0  0  0  0  0  0  0  0  0  0  0
   41.3970   28.0040   36.8260 C   0  0  0  0  0  0  0  0  0  0  0  0
   42.2570   27.0540   36.3280 N   0  0  0  0  0  0  0  0  0  0  0  0
   43.5630   27.2760   36.2060 C   0  0  0  0  0  0  0  0  0  0  0  0
   44.1260   28.4470   36.5640 N   0  0  0  0  0  0  0  0  0  0  0  0
   47.7201   30.5683   39.6528 H   0  0  0  0  0  0  0  0  0  0  0  0
   48.9692   31.3352   41.6472 H   0  0  0  0  0  0  0  0  0  0  0  0
   45.6655   36.0331   40.9790 H   0  0  0  0  0  0  0  0  0  0  0  0
   44.4709   35.2862   47.2964 H   0  0  0  0  0  0  0  0  0  0  0  0
   45.8441   31.9395   46.7191 H   0  0  0  0  0  0  0  0  0  0  0  0
   45.1594   32.9881   47.9897 H   0  0  0  0  0  0  0  0  0  0  0  0
   43.6683   32.2720   36.0278 H   0  0  0  0  0  0  0  0  0  0  0  0
   41.2778   30.0288   37.6186 H   0  0  0  0  0  0  0  0  0  0  0  0
   40.3205   27.7970   36.9164 H   0  0  0  0  0  0  0  0  0  0  0  0
   44.2034   26.4789   35.8003 H   0  0  0  0  0  0  0  0  0  0  0  0
  1  2  2  0
  1  6  1  0
  2  3  1  0
  3  4  2  0
  5  4  1  0
  5  7  1  0
  6  5  2  0
  7 17  1  0
  8  7  1  0
  8  9  2  0
  9 10  1  0
 10 11  1  0
 11 12  2  0
 11 13  1  0
 14 13  1  0
 14 15  1  0
 16 14  2  0
 17 10  2  0
 17 16  1  0
 18 22  1  0
 19 18  1  0
 19 20  2  0
 20 21  1  0
 21  1  1  0
 22 21  2  0
 23 24  2  0
 23 18  1  0
 25 24  1  0
 26 25  2  0
 27 26  1  0
 27 28  2  0
 28 23  1  0
  2 29  1  0
  3 30  1  0
  8 31  1  0
 13 32  1  0
 15 33  1  0
 15 34  1  0
 19 35  1  0
 24 36  1  0
 25 37  1  0
 27 38  1  0
M  ISO  8  29  14  30  14  31  14  32   9  35  14  36  14  37  14  38  14
M  END
>  <minimizedAffinity>  (1) 
-5.90007687

>  <minimizedRMSD>  (1) 
6.13698387

$$$$
