
     RDKit          3D

 31 34  0  0  0  0  0  0  0  0999 V2000
   38.2200   33.1510   39.8140 N   0  0  0  0  0  0  0  0  0  0  0  0
   38.0880   34.4850   39.8950 C   0  0  0  0  0  0  0  0  0  0  0  0
   39.3120   35.0260   40.0410 N   0  0  0  0  0  0  0  0  0  0  0  0
   40.2110   34.0220   40.0520 C   0  0  0  0  0  0  0  0  0  0  0  0
   39.5150   32.8520   39.9090 N   0  0  0  0  0  0  0  0  0  0  0  0
   37.4000   31.9920   39.6620 C   0  0  0  0  0  0  0  0  0  0  0  0
   36.7040   31.3870   40.7360 C   0  0  0  0  0  0  0  0  0  0  0  0
   35.9390   30.2600   40.4440 C   0  0  0  0  0  0  0  0  0  0  0  0
   35.9130   29.8180   39.1440 N   0  0  0  0  0  0  0  0  0  0  0  0
   36.5850   30.4210   38.1600 C   0  0  0  0  0  0  0  0  0  0  0  0
   37.3390   31.5150   38.3930 N   0  0  0  0  0  0  0  0  0  0  0  0
   41.6700   34.1500   40.1910 C   0  0  0  0  0  0  0  0  0  0  0  0
   42.6170   33.7750   39.2830 C   0  0  0  0  0  0  0  0  0  0  0  0
   43.9410   33.9580   39.5630 C   0  0  0  0  0  0  0  0  0  0  0  0
   44.3300   34.5080   40.7360 N   0  0  0  0  0  0  0  0  0  0  0  0
   43.4120   34.8830   41.6460 C   0  0  0  0  0  0  0  0  0  0  0  0
   42.0930   34.6980   41.3600 N   0  0  0  0  0  0  0  0  0  0  0  0
   43.8540   35.4730   42.9040 C   0  0  0  0  0  0  0  0  0  0  0  0
   44.8090   35.0810   43.7460 C   0  0  0  0  0  0  0  0  0  0  0  0
   45.0680   35.7910   44.8930 C   0  0  0  0  0  0  0  0  0  0  0  0
   44.2670   36.9180   45.0870 C   0  0  0  0  0  0  0  0  0  0  0  0
   43.1670   36.9450   43.6370 S   0  0  0  0  0  0  0  0  0  0  0  0
   37.1402   35.0414   39.8497 H   0  0  0  0  0  0  0  0  0  0  0  0
   36.7647   31.7897   41.7578 H   0  0  0  0  0  0  0  0  0  0  0  0
   35.3729   29.7399   41.2308 H   0  0  0  0  0  0  0  0  0  0  0  0
   36.5224   30.0173   37.1387 H   0  0  0  0  0  0  0  0  0  0  0  0
   42.3140   33.3255   38.3258 H   0  0  0  0  0  0  0  0  0  0  0  0
   44.6996   33.6548   38.8264 H   0  0  0  0  0  0  0  0  0  0  0  0
   45.3966   34.1789   43.5203 H   0  0  0  0  0  0  0  0  0  0  0  0
   45.8499   35.4932   45.6071 H   0  0  0  0  0  0  0  0  0  0  0  0
   44.2945   37.6287   45.9261 H   0  0  0  0  0  0  0  0  0  0  0  0
  1  2  1  0
  1  5  1  0
  2  3  2  0
  3  4  1  0
  4 12  1  0
  5  4  2  0
  6  1  1  0
  6  7  2  0
  8  7  1  0
  9  8  2  0
 10 11  2  0
 10  9  1  0
 11  6  1  0
 12 17  2  0
 13 14  2  0
 13 12  1  0
 14 15  1  0
 15 16  2  0
 16 18  1  0
 17 16  1  0
 18 22  1  0
 18 19  2  0
 19 20  1  0
 20 21  2  0
 22 21  1  0
  2 23  1  0
  7 24  1  0
  8 25  1  0
 10 26  1  0
 13 27  1  0
 14 28  1  0
 19 29  1  0
 20 30  1  0
 21 31  1  0
M  ISO  8  23  14  24  14  25  14  26  14  27  14  28  14  29  14  30  14
M  ISO  1  31  14
M  END
>  <minimizedAffinity>  (1) 
-5.81733131

>  <minimizedRMSD>  (1) 
2.27709675

$$$$
