
     RDKit          3D

 36 39  0  0  0  0  0  0  0  0999 V2000
   38.1630   32.8890   39.7880 N   0  0  0  0  0  0  0  0  0  0  0  0
   38.0710   34.1920   40.0980 C   0  0  0  0  0  0  0  0  0  0  0  0
   39.3030   34.7390   40.0440 N   0  0  0  0  0  0  0  0  0  0  0  0
   40.1640   33.7570   39.6950 C   0  0  0  0  0  0  0  0  0  0  0  0
   39.4360   32.6140   39.5400 N   0  0  0  0  0  0  0  0  0  0  0  0
   41.6270   33.8870   39.5120 C   0  0  0  0  0  0  0  0  0  0  0  0
   42.3210   33.7140   38.3490 C   0  0  0  0  0  0  0  0  0  0  0  0
   43.6850   33.8770   38.3750 C   0  0  0  0  0  0  0  0  0  0  0  0
   44.3430   34.1970   39.4920 N   0  0  0  0  0  0  0  0  0  0  0  0
   43.6600   34.3690   40.6510 C   0  0  0  0  0  0  0  0  0  0  0  0
   42.3130   34.2130   40.6490 N   0  0  0  0  0  0  0  0  0  0  0  0
   44.3120   34.7100   41.8690 N   0  0  0  0  0  0  0  0  0  0  0  0
   44.3630   35.9760   42.5740 C   0  0  0  0  0  0  0  0  0  0  0  0
   45.8190   36.1180   42.9710 C   0  0  0  0  0  0  0  0  0  0  0  0
   46.2300   34.6830   43.2190 C   0  0  0  0  0  0  0  0  0  0  0  0
   45.0970   33.8100   42.6920 C   0  0  0  0  0  0  0  0  0  0  0  0
   37.3040   31.7730   39.6580 C   0  0  0  0  0  0  0  0  0  0  0  0
   36.6140   31.1970   40.7510 C   0  0  0  0  0  0  0  0  0  0  0  0
   35.7950   30.1000   40.5080 C   0  0  0  0  0  0  0  0  0  0  0  0
   35.7140   29.6480   39.2120 N   0  0  0  0  0  0  0  0  0  0  0  0
   36.3780   30.2150   38.2080 C   0  0  0  0  0  0  0  0  0  0  0  0
   37.1810   31.2800   38.4070 N   0  0  0  0  0  0  0  0  0  0  0  0
   37.1438   34.7257   40.3539 H   0  0  0  0  0  0  0  0  0  0  0  0
   41.8017   33.4510   37.4156 H   0  0  0  0  0  0  0  0  0  0  0  0
   44.2544   33.7392   37.4440 H   0  0  0  0  0  0  0  0  0  0  0  0
   44.0550   36.8022   41.9163 H   0  0  0  0  0  0  0  0  0  0  0  0
   43.6841   36.0059   43.4390 H   0  0  0  0  0  0  0  0  0  0  0  0
   46.4107   36.5668   42.1595 H   0  0  0  0  0  0  0  0  0  0  0  0
   45.9757   36.7761   43.8384 H   0  0  0  0  0  0  0  0  0  0  0  0
   47.1640   34.4574   42.6834 H   0  0  0  0  0  0  0  0  0  0  0  0
   46.4081   34.4999   44.2889 H   0  0  0  0  0  0  0  0  0  0  0  0
   44.4932   33.4113   43.5205 H   0  0  0  0  0  0  0  0  0  0  0  0
   45.4620   32.9359   42.1328 H   0  0  0  0  0  0  0  0  0  0  0  0
   36.7227   31.6064   41.7662 H   0  0  0  0  0  0  0  0  0  0  0  0
   35.2345   29.6134   41.3198 H   0  0  0  0  0  0  0  0  0  0  0  0
   36.2695   29.8058   37.1927 H   0  0  0  0  0  0  0  0  0  0  0  0
  1  2  1  0
  3  2  2  0
  4  3  1  0
  5  4  2  0
  5  1  1  0
  6  4  1  0
  6 11  2  0
  7  8  2  0
  7  6  1  0
  8  9  1  0
  9 10  2  0
 10 12  1  0
 11 10  1  0
 12 13  1  0
 12 16  1  0
 13 14  1  0
 14 15  1  0
 16 15  1  0
 17  1  1  0
 17 18  2  0
 19 18  1  0
 20 19  2  0
 21 22  2  0
 21 20  1  0
 22 17  1  0
  2 23  1  0
  7 24  1  0
  8 25  1  0
 13 26  1  0
 13 27  1  0
 14 28  1  0
 14 29  1  0
 15 30  1  0
 15 31  1  0
 16 32  1  0
 16 33  1  0
 18 34  1  0
 19 35  1  0
 21 36  1  0
M  ISO  8  23  14  24  14  25  14  26  13  27  13  28  13  29  13  30  13
M  ISO  6  31  13  32  13  33  13  34  14  35  14  36  14
M  END
>  <minimizedAffinity>  (1) 
-5.76994514

>  <minimizedRMSD>  (1) 
2.92503786

$$$$
