
     RDKit          3D

 30 32  0  0  0  0  0  0  0  0999 V2000
   39.7300   34.4440   40.1800 N   0  0  0  0  0  0  0  0  0  0  0  0
   39.5860   35.7510   40.4460 C   0  0  0  0  0  0  0  0  0  0  0  0
   40.7360   36.2180   40.9710 N   0  0  0  0  0  0  0  0  0  0  0  0
   41.6040   35.1800   41.0290 C   0  0  0  0  0  0  0  0  0  0  0  0
   40.9630   34.0900   40.5340 N   0  0  0  0  0  0  0  0  0  0  0  0
   38.9720   33.3690   39.6470 C   0  0  0  0  0  0  0  0  0  0  0  0
   37.6190   33.1430   39.9430 C   0  0  0  0  0  0  0  0  0  0  0  0
   36.9930   32.0500   39.3520 C   0  0  0  0  0  0  0  0  0  0  0  0
   37.7290   31.2640   38.5230 N   0  0  0  0  0  0  0  0  0  0  0  0
   39.0160   31.5060   38.2600 C   0  0  0  0  0  0  0  0  0  0  0  0
   39.6770   32.5520   38.8050 N   0  0  0  0  0  0  0  0  0  0  0  0
   42.9890   35.2390   41.5380 C   0  0  0  0  0  0  0  0  0  0  0  0
   44.0400   34.4540   41.1000 C   0  0  0  0  0  0  0  0  0  0  0  0
   45.2710   34.6480   41.6920 C   0  0  0  0  0  0  0  0  0  0  0  0
   45.4600   35.5680   42.6680 N   0  0  0  0  0  0  0  0  0  0  0  0
   44.4310   36.3210   43.0820 C   0  0  0  0  0  0  0  0  0  0  0  0
   43.1980   36.1670   42.5290 N   0  0  0  0  0  0  0  0  0  0  0  0
   44.6890   37.3160   44.1560 C   0  0  0  0  0  0  0  0  0  0  0  0
   43.9800   36.9010   45.4440 C   0  0  0  0  0  0  0  0  0  0  0  0
   38.6777   36.3445   40.2651 H   0  0  0  0  0  0  0  0  0  0  0  0
   37.0692   33.8107   40.6227 H   0  0  0  0  0  0  0  0  0  0  0  0
   35.9338   31.8287   39.5499 H   0  0  0  0  0  0  0  0  0  0  0  0
   39.5556   30.8325   37.5779 H   0  0  0  0  0  0  0  0  0  0  0  0
   43.8997   33.7027   40.3089 H   0  0  0  0  0  0  0  0  0  0  0  0
   46.1243   34.0375   41.3616 H   0  0  0  0  0  0  0  0  0  0  0  0
   45.7715   37.3776   44.3413 H   0  0  0  0  0  0  0  0  0  0  0  0
   44.3053   38.2960   43.8359 H   0  0  0  0  0  0  0  0  0  0  0  0
   44.5644   37.2431   46.3108 H   0  0  0  0  0  0  0  0  0  0  0  0
   42.9788   37.3557   45.4743 H   0  0  0  0  0  0  0  0  0  0  0  0
   43.8862   35.8054   45.4743 H   0  0  0  0  0  0  0  0  0  0  0  0
  1  2  1  0
  1  5  1  0
  2  3  2  0
  3  4  1  0
  4 12  1  0
  5  4  2  0
  6  7  2  0
  6  1  1  0
  8  7  1  0
  9  8  2  0
 10  9  1  0
 10 11  2  0
 11  6  1  0
 12 17  1  0
 13 12  2  0
 13 14  1  0
 14 15  2  0
 15 16  1  0
 16 18  1  0
 17 16  2  0
 18 19  1  0
  2 20  1  0
  7 21  1  0
  8 22  1  0
 10 23  1  0
 13 24  1  0
 14 25  1  0
 18 26  1  0
 18 27  1  0
 19 28  1  0
 19 29  1  0
 19 30  1  0
M  ISO  8  20  14  21  14  22  14  23  14  24  14  25  14  26   8  27   8
M  ISO  3  28   8  29   8  30   8
M  END
>  <minimizedAffinity>  (1) 
-5.51917553

>  <minimizedRMSD>  (1) 
2.42630553

$$$$
