
     RDKit          3D

 31 34  0  0  0  0  0  0  0  0999 V2000
   39.0460   33.7720   40.0350 N   0  0  0  0  0  0  0  0  0  0  0  0
   38.9480   35.0900   40.2910 C   0  0  0  0  0  0  0  0  0  0  0  0
   40.1840   35.5570   40.5640 N   0  0  0  0  0  0  0  0  0  0  0  0
   41.0430   34.5140   40.4730 C   0  0  0  0  0  0  0  0  0  0  0  0
   40.3180   33.4120   40.1430 N   0  0  0  0  0  0  0  0  0  0  0  0
   38.1870   32.6870   39.6900 C   0  0  0  0  0  0  0  0  0  0  0  0
   37.3060   32.0770   40.5870 C   0  0  0  0  0  0  0  0  0  0  0  0
   36.5230   31.0270   40.1210 C   0  0  0  0  0  0  0  0  0  0  0  0
   36.6630   30.6530   38.8080 N   0  0  0  0  0  0  0  0  0  0  0  0
   37.5110   31.2570   37.9880 C   0  0  0  0  0  0  0  0  0  0  0  0
   38.2940   32.2820   38.3920 N   0  0  0  0  0  0  0  0  0  0  0  0
   42.5050   34.5760   40.6950 C   0  0  0  0  0  0  0  0  0  0  0  0
   43.1260   35.0210   41.8380 C   0  0  0  0  0  0  0  0  0  0  0  0
   44.5030   35.0100   41.8740 C   0  0  0  0  0  0  0  0  0  0  0  0
   45.2330   34.5850   40.8400 N   0  0  0  0  0  0  0  0  0  0  0  0
   44.6270   34.1430   39.7070 C   0  0  0  0  0  0  0  0  0  0  0  0
   43.2630   34.1480   39.6580 N   0  0  0  0  0  0  0  0  0  0  0  0
   45.3160   33.6550   38.5160 C   0  0  0  0  0  0  0  0  0  0  0  0
   46.4930   34.0620   37.9200 C   0  0  0  0  0  0  0  0  0  0  0  0
   46.7440   33.2940   36.8020 C   0  0  0  0  0  0  0  0  0  0  0  0
   45.6600   32.4140   36.7630 C   0  0  0  0  0  0  0  0  0  0  0  0
   44.8630   32.6600   37.7710 O   0  0  0  0  0  0  0  0  0  0  0  0
   38.0216   35.6829   40.2796 H   0  0  0  0  0  0  0  0  0  0  0  0
   37.2342   32.4174   41.6305 H   0  0  0  0  0  0  0  0  0  0  0  0
   35.8129   30.5117   40.7845 H   0  0  0  0  0  0  0  0  0  0  0  0
   37.5798   30.9132   36.9454 H   0  0  0  0  0  0  0  0  0  0  0  0
   42.5402   35.3756   42.6989 H   0  0  0  0  0  0  0  0  0  0  0  0
   45.0162   35.3617   42.7812 H   0  0  0  0  0  0  0  0  0  0  0  0
   47.1354   34.8778   38.2829 H   0  0  0  0  0  0  0  0  0  0  0  0
   47.5944   33.3590   36.1073 H   0  0  0  0  0  0  0  0  0  0  0  0
   45.5011   31.6350   36.0028 H   0  0  0  0  0  0  0  0  0  0  0  0
  1  5  1  0
  1  2  1  0
  2  3  2  0
  4  3  1  0
  4 12  1  0
  5  4  2  0
  6  1  1  0
  6  7  2  0
  8  7  1  0
  9  8  2  0
 10 11  2  0
 10  9  1  0
 11  6  1  0
 12 13  2  0
 13 14  1  0
 15 14  2  0
 16 15  1  0
 17 16  2  0
 17 12  1  0
 18 16  1  0
 19 18  2  0
 20 19  1  0
 21 20  2  0
 21 22  1  0
 22 18  1  0
  2 23  1  0
  7 24  1  0
  8 25  1  0
 10 26  1  0
 13 27  1  0
 14 28  1  0
 19 29  1  0
 20 30  1  0
 21 31  1  0
M  ISO  8  23  14  24  14  25  14  26  14  27  14  28  14  29  14  30  14
M  ISO  1  31  14
M  END
>  <minimizedAffinity>  (1) 
-5.32976007

>  <minimizedRMSD>  (1) 
4.78266668

$$$$
