
     RDKit          3D

 31 34  0  0  0  0  0  0  0  0999 V2000
   43.8630   32.8240   38.1580 N   0  0  0  0  0  0  0  0  0  0  0  0
   43.3050   31.5990   38.0200 C   0  0  0  0  0  0  0  0  0  0  0  0
   42.0310   31.6690   38.4310 N   0  0  0  0  0  0  0  0  0  0  0  0
   41.8010   32.9540   38.8270 C   0  0  0  0  0  0  0  0  0  0  0  0
   42.9450   33.6500   38.6500 N   0  0  0  0  0  0  0  0  0  0  0  0
   45.1230   33.4540   37.9280 C   0  0  0  0  0  0  0  0  0  0  0  0
   45.6610   34.4400   38.7750 C   0  0  0  0  0  0  0  0  0  0  0  0
   46.9090   34.9640   38.4150 C   0  0  0  0  0  0  0  0  0  0  0  0
   47.5150   34.5000   37.2940 N   0  0  0  0  0  0  0  0  0  0  0  0
   46.9620   33.5550   36.5150 C   0  0  0  0  0  0  0  0  0  0  0  0
   45.7620   33.0120   36.8070 N   0  0  0  0  0  0  0  0  0  0  0  0
   40.5150   33.4800   39.3570 C   0  0  0  0  0  0  0  0  0  0  0  0
   40.2840   34.7700   39.7600 C   0  0  0  0  0  0  0  0  0  0  0  0
   39.0300   35.0810   40.2250 C   0  0  0  0  0  0  0  0  0  0  0  0
   38.0430   34.1680   40.2930 N   0  0  0  0  0  0  0  0  0  0  0  0
   38.2810   32.9110   39.8970 C   0  0  0  0  0  0  0  0  0  0  0  0
   39.5110   32.5510   39.4260 N   0  0  0  0  0  0  0  0  0  0  0  0
   37.2950   31.8130   39.9180 C   0  0  0  0  0  0  0  0  0  0  0  0
   36.5040   31.1780   40.8520 C   0  0  0  0  0  0  0  0  0  0  0  0
   35.8040   30.2040   40.1360 C   0  0  0  0  0  0  0  0  0  0  0  0
   36.1720   30.2700   38.8400 N   0  0  0  0  0  0  0  0  0  0  0  0
   37.0760   31.2490   38.7200 N   0  0  0  0  0  0  0  0  0  0  0  0
   43.8100   30.7002   37.6365 H   0  0  0  0  0  0  0  0  0  0  0  0
   45.1284   34.7822   39.6746 H   0  0  0  0  0  0  0  0  0  0  0  0
   47.3893   35.7385   39.0309 H   0  0  0  0  0  0  0  0  0  0  0  0
   47.5006   33.2161   35.6178 H   0  0  0  0  0  0  0  0  0  0  0  0
   41.0771   35.5307   39.7124 H   0  0  0  0  0  0  0  0  0  0  0  0
   38.8250   36.1108   40.5530 H   0  0  0  0  0  0  0  0  0  0  0  0
   36.4383   31.3923   41.9289 H   0  0  0  0  0  0  0  0  0  0  0  0
   35.0731   29.4993   40.5593 H   0  0  0  0  0  0  0  0  0  0  0  0
   35.8197   29.6729   38.0782 H   0  0  0  0  0  0  0  0  0  0  0  0
  1  5  1  0
  2  1  1  0
  2  3  2  0
  3  4  1  0
  4 12  1  0
  5  4  2  0
  6  1  1  0
  6  7  2  0
  8  7  1  0
  9  8  2  0
 10 11  2  0
 10  9  1  0
 11  6  1  0
 12 17  1  0
 12 13  2  0
 13 14  1  0
 14 15  2  0
 16 18  1  0
 16 15  1  0
 17 16  2  0
 18 19  1  0
 20 19  2  0
 21 20  1  0
 22 21  1  0
 22 18  2  0
  2 23  1  0
  7 24  1  0
  8 25  1  0
 10 26  1  0
 13 27  1  0
 14 28  1  0
 19 29  1  0
 20 30  1  0
 21 31  1  0
M  ISO  8  23  14  24  14  25  14  26  14  27  14  28  14  29  14  30  14
M  ISO  1  31   9
M  END
>  <minimizedAffinity>  (1) 
-5.25567055

>  <minimizedRMSD>  (1) 
8.15224361

$$$$
