
     RDKit          3D

 27 29  0  0  0  0  0  0  0  0999 V2000
   38.9680   33.8620   39.9830 N   0  0  0  0  0  0  0  0  0  0  0  0
   38.8120   35.1870   40.1240 C   0  0  0  0  0  0  0  0  0  0  0  0
   39.9800   35.7290   40.5130 N   0  0  0  0  0  0  0  0  0  0  0  0
   40.8770   34.7130   40.6140 C   0  0  0  0  0  0  0  0  0  0  0  0
   40.2250   33.5720   40.2810 N   0  0  0  0  0  0  0  0  0  0  0  0
   38.1930   32.7320   39.6180 C   0  0  0  0  0  0  0  0  0  0  0  0
   37.2470   32.1340   40.4870 C   0  0  0  0  0  0  0  0  0  0  0  0
   36.5420   31.0310   40.0330 C   0  0  0  0  0  0  0  0  0  0  0  0
   36.8060   30.5920   38.7790 N   0  0  0  0  0  0  0  0  0  0  0  0
   37.7090   31.1740   37.9680 C   0  0  0  0  0  0  0  0  0  0  0  0
   38.4120   32.2480   38.3760 N   0  0  0  0  0  0  0  0  0  0  0  0
   42.2930   34.8420   41.0130 C   0  0  0  0  0  0  0  0  0  0  0  0
   43.3550   34.2090   40.4340 C   0  0  0  0  0  0  0  0  0  0  0  0
   44.6190   34.4260   40.9120 C   0  0  0  0  0  0  0  0  0  0  0  0
   44.8280   35.2630   41.9560 N   0  0  0  0  0  0  0  0  0  0  0  0
   43.7880   35.8920   42.5350 C   0  0  0  0  0  0  0  0  0  0  0  0
   42.5300   35.6740   42.0560 N   0  0  0  0  0  0  0  0  0  0  0  0
   43.9350   36.8350   43.6970 C   0  0  0  0  0  0  0  0  0  0  0  0
   37.8782   35.7415   39.9494 H   0  0  0  0  0  0  0  0  0  0  0  0
   37.0766   32.5354   41.4969 H   0  0  0  0  0  0  0  0  0  0  0  0
   35.7956   30.5304   40.6673 H   0  0  0  0  0  0  0  0  0  0  0  0
   37.8749   30.7674   36.9594 H   0  0  0  0  0  0  0  0  0  0  0  0
   43.1953   33.5268   39.5860 H   0  0  0  0  0  0  0  0  0  0  0  0
   45.4735   33.9156   40.4436 H   0  0  0  0  0  0  0  0  0  0  0  0
   43.8474   36.2731   44.6386 H   0  0  0  0  0  0  0  0  0  0  0  0
   44.9200   37.3225   43.6512 H   0  0  0  0  0  0  0  0  0  0  0  0
   43.1451   37.5992   43.6512 H   0  0  0  0  0  0  0  0  0  0  0  0
  1  2  1  0
  1  5  1  0
  2  3  2  0
  3  4  1  0
  4 12  1  0
  5  4  2  0
  6  1  1  0
  6  7  2  0
  8  7  1  0
  9  8  2  0
 10 11  2  0
 10  9  1  0
 11  6  1  0
 12 17  2  0
 13 14  2  0
 13 12  1  0
 14 15  1  0
 15 16  2  0
 16 18  1  0
 17 16  1  0
  2 19  1  0
  7 20  1  0
  8 21  1  0
 10 22  1  0
 13 23  1  0
 14 24  1  0
 18 25  1  0
 18 26  1  0
 18 27  1  0
M  ISO  8  19  14  20  14  21  14  22  14  23  14  24  14  25   8  26   8
M  ISO  1  27   8
M  END
>  <minimizedAffinity>  (1) 
-5.10213852

>  <minimizedRMSD>  (1) 
1.50519657

$$$$
