
     RDKit          3D

 25 27  0  0  0  0  0  0  0  0999 V2000
   37.7450   33.2470   39.8450 N   0  0  0  0  0  0  0  0  0  0  0  0
   37.4770   34.5350   39.5660 C   0  0  0  0  0  0  0  0  0  0  0  0
   38.5400   35.2790   39.9110 N   0  0  0  0  0  0  0  0  0  0  0  0
   39.4790   34.4310   40.4110 C   0  0  0  0  0  0  0  0  0  0  0  0
   38.9670   33.1770   40.3610 N   0  0  0  0  0  0  0  0  0  0  0  0
   37.1050   31.9740   39.7450 C   0  0  0  0  0  0  0  0  0  0  0  0
   36.5610   31.2910   40.8400 C   0  0  0  0  0  0  0  0  0  0  0  0
   35.9620   30.0480   40.5930 C   0  0  0  0  0  0  0  0  0  0  0  0
   35.9490   29.5910   39.3150 N   0  0  0  0  0  0  0  0  0  0  0  0
   36.4730   30.2670   38.3010 C   0  0  0  0  0  0  0  0  0  0  0  0
   37.0610   31.4660   38.4840 N   0  0  0  0  0  0  0  0  0  0  0  0
   40.8200   34.8090   40.9180 C   0  0  0  0  0  0  0  0  0  0  0  0
   41.9650   34.0600   40.7940 C   0  0  0  0  0  0  0  0  0  0  0  0
   43.1310   34.5770   41.3340 C   0  0  0  0  0  0  0  0  0  0  0  0
   43.1640   35.7660   41.9600 N   0  0  0  0  0  0  0  0  0  0  0  0
   42.0360   36.4910   42.0750 C   0  0  0  0  0  0  0  0  0  0  0  0
   40.8700   36.0170   41.5590 N   0  0  0  0  0  0  0  0  0  0  0  0
   42.1410   37.6900   42.7230 O   0  0  0  0  0  0  0  0  0  0  0  0
   36.5425   34.9156   39.1280 H   0  0  0  0  0  0  0  0  0  0  0  0
   36.6022   31.7137   41.8547 H   0  0  0  0  0  0  0  0  0  0  0  0
   35.5163   29.4611   41.4096 H   0  0  0  0  0  0  0  0  0  0  0  0
   36.4266   29.8396   37.2885 H   0  0  0  0  0  0  0  0  0  0  0  0
   41.9561   33.0852   40.2844 H   0  0  0  0  0  0  0  0  0  0  0  0
   44.0607   33.9954   41.2477 H   0  0  0  0  0  0  0  0  0  0  0  0
   41.3419   38.2635   42.8356 H   0  0  0  0  0  0  0  0  0  0  0  0
  1  5  1  0
  2  1  1  0
  2  3  2  0
  3  4  1  0
  4 12  1  0
  5  4  2  0
  6  1  1  0
  6  7  2  0
  8  7  1  0
  9  8  2  0
 10 11  2  0
 10  9  1  0
 11  6  1  0
 12 17  1  0
 13 12  2  0
 13 14  1  0
 14 15  2  0
 15 16  1  0
 16 18  1  0
 17 16  2  0
  2 19  1  0
  7 20  1  0
  8 21  1  0
 10 22  1  0
 13 23  1  0
 14 24  1  0
 18 25  1  0
M  ISO  7  19  14  20  14  21  14  22  14  23  14  24  14  25   3
M  END
>  <minimizedAffinity>  (1) 
-4.86012411

>  <minimizedRMSD>  (1) 
0.277907461

$$$$
