
     RDKit          3D

 38 41  0  0  0  0  0  0  0  0999 V2000
   45.1050   31.4010   36.0610 N   0  0  0  0  0  0  0  0  0  0  0  0
   44.8910   30.5350   35.0530 C   0  0  0  0  0  0  0  0  0  0  0  0
   43.7020   29.9340   35.2600 N   0  0  0  0  0  0  0  0  0  0  0  0
   43.1870   30.4340   36.4000 C   0  0  0  0  0  0  0  0  0  0  0  0
   44.0800   31.3470   36.8820 N   0  0  0  0  0  0  0  0  0  0  0  0
   41.8940   30.0530   37.0070 C   0  0  0  0  0  0  0  0  0  0  0  0
   41.2370   28.8490   36.8070 C   0  0  0  0  0  0  0  0  0  0  0  0
   40.0310   28.6560   37.4480 C   0  0  0  0  0  0  0  0  0  0  0  0
   39.4930   29.6000   38.2480 N   0  0  0  0  0  0  0  0  0  0  0  0
   40.1440   30.7570   38.4270 C   0  0  0  0  0  0  0  0  0  0  0  0
   41.3320   31.0040   37.8240 N   0  0  0  0  0  0  0  0  0  0  0  0
   39.6420   31.8020   39.2550 N   0  0  0  0  0  0  0  0  0  0  0  0
   38.7780   32.8660   38.7790 C   0  0  0  0  0  0  0  0  0  0  0  0
   37.4180   32.7950   39.4680 C   0  0  0  0  0  0  0  0  0  0  0  0
   37.5000   32.1630   40.7640 N   0  0  0  0  0  0  0  0  0  0  0  0
   38.7460   32.3730   41.4460 C   0  0  0  0  0  0  0  0  0  0  0  0
   39.9510   31.8970   40.6680 C   0  0  0  0  0  0  0  0  0  0  0  0
   46.1060   32.3300   36.4730 C   0  0  0  0  0  0  0  0  0  0  0  0
   45.8860   33.3160   37.4650 C   0  0  0  0  0  0  0  0  0  0  0  0
   46.9540   34.1560   37.7680 C   0  0  0  0  0  0  0  0  0  0  0  0
   48.1390   33.9780   37.0970 N   0  0  0  0  0  0  0  0  0  0  0  0
   48.2980   33.0240   36.1620 C   0  0  0  0  0  0  0  0  0  0  0  0
   47.2910   32.1910   35.8390 N   0  0  0  0  0  0  0  0  0  0  0  0
   45.5689   30.3497   34.2068 H   0  0  0  0  0  0  0  0  0  0  0  0
   41.6643   28.0712   36.1570 H   0  0  0  0  0  0  0  0  0  0  0  0
   39.4935   27.7072   37.3031 H   0  0  0  0  0  0  0  0  0  0  0  0
   39.2450   33.8375   38.9980 H   0  0  0  0  0  0  0  0  0  0  0  0
   38.6350   32.7514   37.6944 H   0  0  0  0  0  0  0  0  0  0  0  0
   37.0306   33.8166   39.5951 H   0  0  0  0  0  0  0  0  0  0  0  0
   36.7490   32.1911   38.8374 H   0  0  0  0  0  0  0  0  0  0  0  0
   36.7426   32.5366   41.3536 H   0  0  0  0  0  0  0  0  0  0  0  0
   38.8597   33.4501   41.6381 H   0  0  0  0  0  0  0  0  0  0  0  0
   38.7085   31.7834   42.3739 H   0  0  0  0  0  0  0  0  0  0  0  0
   40.2527   30.9065   41.0393 H   0  0  0  0  0  0  0  0  0  0  0  0
   40.7687   32.6201   40.8040 H   0  0  0  0  0  0  0  0  0  0  0  0
   44.9153   33.4139   37.9732 H   0  0  0  0  0  0  0  0  0  0  0  0
   46.8511   34.9447   38.5279 H   0  0  0  0  0  0  0  0  0  0  0  0
   49.2676   32.9228   35.6525 H   0  0  0  0  0  0  0  0  0  0  0  0
  1 18  1  0
  1  5  1  0
  2  3  2  0
  2  1  1  0
  3  4  1  0
  4  5  2  0
  4  6  1  0
  6 11  1  0
  7  6  2  0
  7  8  1  0
  8  9  2  0
  9 10  1  0
 10 12  1  0
 11 10  2  0
 12 17  1  0
 13 12  1  0
 13 14  1  0
 14 15  1  0
 15 16  1  0
 17 16  1  0
 18 19  2  0
 19 20  1  0
 21 20  2  0
 22 21  1  0
 23 22  2  0
 23 18  1  0
  2 24  1  0
  7 25  1  0
  8 26  1  0
 13 27  1  0
 13 28  1  0
 14 29  1  0
 14 30  1  0
 15 31  1  0
 16 32  1  0
 16 33  1  0
 17 34  1  0
 17 35  1  0
 19 36  1  0
 20 37  1  0
 22 38  1  0
M  ISO  8  24  14  25  14  26  14  27  13  28  13  29  13  30  13  31   5
M  ISO  7  32  13  33  13  34  13  35  13  36  14  37  14  38  14
M  END
>  <minimizedAffinity>  (1) 
-4.66815042

>  <minimizedRMSD>  (1) 
9.00329399

$$$$
