
     RDKit          3D

 35 37  0  0  0  0  0  0  0  0999 V2000
   37.4670   31.9500   40.4350 N   0  0  0  0  0  0  0  0  0  0  0  0
   37.0950   33.0100   39.7120 C   0  0  0  0  0  0  0  0  0  0  0  0
   38.1030   33.8990   39.7230 N   0  0  0  0  0  0  0  0  0  0  0  0
   39.1150   33.3630   40.4750 C   0  0  0  0  0  0  0  0  0  0  0  0
   38.6860   32.1550   40.9000 N   0  0  0  0  0  0  0  0  0  0  0  0
   40.4170   34.0070   40.7520 C   0  0  0  0  0  0  0  0  0  0  0  0
   41.6180   33.3420   40.8530 C   0  0  0  0  0  0  0  0  0  0  0  0
   42.7310   34.1250   41.1180 C   0  0  0  0  0  0  0  0  0  0  0  0
   42.6670   35.4540   41.2710 N   0  0  0  0  0  0  0  0  0  0  0  0
   41.4860   36.0820   41.1680 C   0  0  0  0  0  0  0  0  0  0  0  0
   40.3550   35.3760   40.9100 N   0  0  0  0  0  0  0  0  0  0  0  0
   41.3170   37.4770   41.3140 N   0  0  0  0  0  0  0  0  0  0  0  0
   36.9230   30.6910   40.8330 C   0  0  0  0  0  0  0  0  0  0  0  0
   35.8530   30.0590   40.1880 C   0  0  0  0  0  0  0  0  0  0  0  0
   35.4150   28.8380   40.6680 C   0  0  0  0  0  0  0  0  0  0  0  0
   36.0530   28.3130   41.7550 N   0  0  0  0  0  0  0  0  0  0  0  0
   37.0700   28.9430   42.3460 C   0  0  0  0  0  0  0  0  0  0  0  0
   37.5280   30.1280   41.9140 N   0  0  0  0  0  0  0  0  0  0  0  0
   37.7410   28.3340   43.5320 C   0  0  0  0  0  0  0  0  0  0  0  0
   36.7320   28.0390   44.6460 C   0  0  0  0  0  0  0  0  0  0  0  0
   38.4250   27.0240   43.2060 C   0  0  0  0  0  0  0  0  0  0  0  0
   36.1309   33.1338   39.1970 H   0  0  0  0  0  0  0  0  0  0  0  0
   41.6905   32.2513   40.7304 H   0  0  0  0  0  0  0  0  0  0  0  0
   43.7106   33.6326   41.2066 H   0  0  0  0  0  0  0  0  0  0  0  0
   40.3799   37.8946   41.2223 H   0  0  0  0  0  0  0  0  0  0  0  0
   42.1308   38.0764   41.5121 H   0  0  0  0  0  0  0  0  0  0  0  0
   35.3700   30.5246   39.3163 H   0  0  0  0  0  0  0  0  0  0  0  0
   34.5792   28.3068   40.1892 H   0  0  0  0  0  0  0  0  0  0  0  0
   38.4883   29.0743   43.8539 H   0  0  0  0  0  0  0  0  0  0  0  0
   37.2144   28.1800   45.6245 H   0  0  0  0  0  0  0  0  0  0  0  0
   35.8764   28.7246   44.5568 H   0  0  0  0  0  0  0  0  0  0  0  0
   36.3805   27.0005   44.5568 H   0  0  0  0  0  0  0  0  0  0  0  0
   38.6941   26.5086   44.1398 H   0  0  0  0  0  0  0  0  0  0  0  0
   37.7429   26.3899   42.6206 H   0  0  0  0  0  0  0  0  0  0  0  0
   39.3352   27.2213   42.6206 H   0  0  0  0  0  0  0  0  0  0  0  0
  1 13  1  0
  1  5  1  0
  2  3  2  0
  2  1  1  0
  3  4  1  0
  4  6  1  0
  4  5  2  0
  6  7  2  0
  6 11  1  0
  7  8  1  0
  8  9  2  0
 10  9  1  0
 10 12  1  0
 11 10  2  0
 13 18  2  0
 14 15  2  0
 14 13  1  0
 15 16  1  0
 16 17  2  0
 17 19  1  0
 18 17  1  0
 19 20  1  0
 21 19  1  0
  2 22  1  0
  7 23  1  0
  8 24  1  0
 12 25  1  0
 12 26  1  0
 14 27  1  0
 15 28  1  0
 19 29  1  0
 20 30  1  0
 20 31  1  0
 20 32  1  0
 21 33  1  0
 21 34  1  0
 21 35  1  0
M  ISO  8  22  14  23  14  24  14  27  14  28  14  29   8  30   8  31   8
M  ISO  4  32   8  33   8  34   8  35   8
M  END
>  <minimizedAffinity>  (1) 
-6.33471727

>  <minimizedRMSD>  (1) 
3.59546733

$$$$
