
     RDKit          3D

 36 39  0  0  0  0  0  0  0  0999 V2000
   37.5550   32.9290   39.7920 N   0  0  0  0  0  0  0  0  0  0  0  0
   37.2830   34.2080   39.5320 C   0  0  0  0  0  0  0  0  0  0  0  0
   38.3620   34.9480   39.8520 N   0  0  0  0  0  0  0  0  0  0  0  0
   39.3170   34.1110   40.3200 C   0  0  0  0  0  0  0  0  0  0  0  0
   38.7950   32.8480   40.2750 N   0  0  0  0  0  0  0  0  0  0  0  0
   36.9170   31.6490   39.7050 C   0  0  0  0  0  0  0  0  0  0  0  0
   36.4030   30.9510   40.7900 C   0  0  0  0  0  0  0  0  0  0  0  0
   35.8060   29.7180   40.5840 C   0  0  0  0  0  0  0  0  0  0  0  0
   35.7630   29.2640   39.3100 N   0  0  0  0  0  0  0  0  0  0  0  0
   36.2570   29.9410   38.2790 C   0  0  0  0  0  0  0  0  0  0  0  0
   36.8500   31.1540   38.4540 N   0  0  0  0  0  0  0  0  0  0  0  0
   36.1790   29.4030   36.9510 N   0  0  0  0  0  0  0  0  0  0  0  0
   34.9780   29.2550   36.3740 C   0  0  0  0  0  0  0  0  0  0  0  0
   34.8300   28.7390   35.0860 C   0  0  0  0  0  0  0  0  0  0  0  0
   36.0070   28.3950   34.4530 C   0  0  0  0  0  0  0  0  0  0  0  0
   35.8870   27.9230   33.2780 O   0  0  0  0  0  0  0  0  0  0  0  0
   37.2140   28.5430   35.0270 N   0  0  0  0  0  0  0  0  0  0  0  0
   37.2990   29.0530   36.2910 C   0  0  0  0  0  0  0  0  0  0  0  0
   38.4430   29.1780   36.7970 O   0  0  0  0  0  0  0  0  0  0  0  0
   40.6590   34.4900   40.7850 C   0  0  0  0  0  0  0  0  0  0  0  0
   41.7930   33.6940   40.6830 C   0  0  0  0  0  0  0  0  0  0  0  0
   42.9710   34.2170   41.1770 C   0  0  0  0  0  0  0  0  0  0  0  0
   43.0360   35.4400   41.7330 N   0  0  0  0  0  0  0  0  0  0  0  0
   41.9320   36.1950   41.8250 C   0  0  0  0  0  0  0  0  0  0  0  0
   40.7440   35.7340   41.3570 N   0  0  0  0  0  0  0  0  0  0  0  0
   41.9120   37.4850   42.3930 N   0  0  0  0  0  0  0  0  0  0  0  0
   36.3368   34.5939   39.1248 H   0  0  0  0  0  0  0  0  0  0  0  0
   36.4693   31.3733   41.8036 H   0  0  0  0  0  0  0  0  0  0  0  0
   35.3865   29.1352   41.4173 H   0  0  0  0  0  0  0  0  0  0  0  0
   34.0789   29.5503   36.9348 H   0  0  0  0  0  0  0  0  0  0  0  0
   33.8462   28.6154   34.6097 H   0  0  0  0  0  0  0  0  0  0  0  0
   38.0677   28.2738   34.5174 H   0  0  0  0  0  0  0  0  0  0  0  0
   41.7539   32.6927   40.2293 H   0  0  0  0  0  0  0  0  0  0  0  0
   43.8881   33.6129   41.1138 H   0  0  0  0  0  0  0  0  0  0  0  0
   41.0303   38.0158   42.4345 H   0  0  0  0  0  0  0  0  0  0  0  0
   42.7791   37.8967   42.7666 H   0  0  0  0  0  0  0  0  0  0  0  0
  1  5  1  0
  2  1  1  0
  2  3  2  0
  3  4  1  0
  4 20  1  0
  5  4  2  0
  6  1  1  0
  6  7  2  0
  8  7  1  0
  9  8  2  0
 10 11  2  0
 10  9  1  0
 11  6  1  0
 12 10  1  0
 13 12  1  0
 14 13  2  0
 15 17  1  0
 15 14  1  0
 16 15  2  0
 17 18  1  0
 18 19  2  0
 18 12  1  0
 20 25  1  0
 21 20  2  0
 21 22  1  0
 22 23  2  0
 23 24  1  0
 24 26  1  0
 25 24  2  0
  2 27  1  0
  7 28  1  0
  8 29  1  0
 13 30  1  0
 14 31  1  0
 17 32  1  0
 21 33  1  0
 22 34  1  0
 26 35  1  0
 26 36  1  0
M  ISO  8  27  14  28  14  29  14  30  14  31  14  32   9  33  14  34  14
M  END
>  <minimizedAffinity>  (1) 
-6.25676632

>  <minimizedRMSD>  (1) 
0.638034642

$$$$
