
     RDKit          3D

 41 44  0  0  0  0  0  0  0  0999 V2000
   37.3080   32.5440   39.7090 N   0  0  0  0  0  0  0  0  0  0  0  0
   37.0000   33.8110   39.4290 C   0  0  0  0  0  0  0  0  0  0  0  0
   38.0690   34.5780   39.7190 N   0  0  0  0  0  0  0  0  0  0  0  0
   39.0450   33.7580   40.1860 C   0  0  0  0  0  0  0  0  0  0  0  0
   38.5550   32.4870   40.1740 N   0  0  0  0  0  0  0  0  0  0  0  0
   36.6900   31.2530   39.6540 C   0  0  0  0  0  0  0  0  0  0  0  0
   36.1450   30.6050   40.7780 C   0  0  0  0  0  0  0  0  0  0  0  0
   35.5760   29.3590   40.6050 C   0  0  0  0  0  0  0  0  0  0  0  0
   35.5700   28.8240   39.3610 N   0  0  0  0  0  0  0  0  0  0  0  0
   36.0970   29.4650   38.3090 C   0  0  0  0  0  0  0  0  0  0  0  0
   36.6710   30.6900   38.4160 N   0  0  0  0  0  0  0  0  0  0  0  0
   36.0810   28.8840   37.0090 N   0  0  0  0  0  0  0  0  0  0  0  0
   37.2200   28.8710   36.1100 C   0  0  0  0  0  0  0  0  0  0  0  0
   36.7110   28.8110   34.6830 C   0  0  0  0  0  0  0  0  0  0  0  0
   35.4380   29.6140   34.5150 C   0  0  0  0  0  0  0  0  0  0  0  0
   34.3270   29.1840   35.4220 C   0  0  0  0  0  0  0  0  0  0  0  0
   34.9010   28.2430   36.4600 C   0  0  0  0  0  0  0  0  0  0  0  0
   40.3920   34.1800   40.6240 C   0  0  0  0  0  0  0  0  0  0  0  0
   41.4970   33.3350   40.7210 C   0  0  0  0  0  0  0  0  0  0  0  0
   42.6770   33.9160   41.1530 C   0  0  0  0  0  0  0  0  0  0  0  0
   42.7730   35.2100   41.4620 N   0  0  0  0  0  0  0  0  0  0  0  0
   41.6980   36.0010   41.3590 C   0  0  0  0  0  0  0  0  0  0  0  0
   40.5100   35.5040   40.9450 N   0  0  0  0  0  0  0  0  0  0  0  0
   41.7140   37.3930   41.6690 N   0  0  0  0  0  0  0  0  0  0  0  0
   36.0391   34.1681   39.0301 H   0  0  0  0  0  0  0  0  0  0  0  0
   36.1717   31.0795   41.7700 H   0  0  0  0  0  0  0  0  0  0  0  0
   35.1390   28.8151   41.4554 H   0  0  0  0  0  0  0  0  0  0  0  0
   37.8150   29.7851   36.2528 H   0  0  0  0  0  0  0  0  0  0  0  0
   37.8534   27.9964   36.3195 H   0  0  0  0  0  0  0  0  0  0  0  0
   37.4814   29.2172   34.0111 H   0  0  0  0  0  0  0  0  0  0  0  0
   36.4924   27.7612   34.4378 H   0  0  0  0  0  0  0  0  0  0  0  0
   35.6648   30.6704   34.7214 H   0  0  0  0  0  0  0  0  0  0  0  0
   35.0906   29.4510   33.4841 H   0  0  0  0  0  0  0  0  0  0  0  0
   33.8896   30.0632   35.9177 H   0  0  0  0  0  0  0  0  0  0  0  0
   33.5394   28.6779   34.8445 H   0  0  0  0  0  0  0  0  0  0  0  0
   34.1635   28.0641   37.2563 H   0  0  0  0  0  0  0  0  0  0  0  0
   35.1557   27.2718   36.0106 H   0  0  0  0  0  0  0  0  0  0  0  0
   41.4346   32.2662   40.4683 H   0  0  0  0  0  0  0  0  0  0  0  0
   43.5727   33.2842   41.2453 H   0  0  0  0  0  0  0  0  0  0  0  0
   40.8548   37.9524   41.5707 H   0  0  0  0  0  0  0  0  0  0  0  0
   42.5848   37.8389   41.9912 H   0  0  0  0  0  0  0  0  0  0  0  0
  1  5  1  0
  2  1  1  0
  2  3  2  0
  3  4  1  0
  4 18  1  0
  5  4  2  0
  6  1  1  0
  6  7  2  0
  8  7  1  0
  9  8  2  0
 10 11  2  0
 10  9  1  0
 11  6  1  0
 12 10  1  0
 13 12  1  0
 14 13  1  0
 15 14  1  0
 15 16  1  0
 16 17  1  0
 17 12  1  0
 18 19  2  0
 18 23  1  0
 19 20  1  0
 20 21  2  0
 22 21  1  0
 22 24  1  0
 23 22  2  0
  2 25  1  0
  7 26  1  0
  8 27  1  0
 13 28  1  0
 13 29  1  0
 14 30  1  0
 14 31  1  0
 15 32  1  0
 15 33  1  0
 16 34  1  0
 16 35  1  0
 17 36  1  0
 17 37  1  0
 19 38  1  0
 20 39  1  0
 24 40  1  0
 24 41  1  0
M  ISO  8  25  14  26  14  27  14  28  13  29  13  30  13  31  13  32  13
M  ISO  7  33  13  34  13  35  13  36  13  37  13  38  14  39  14
M  END
>  <minimizedAffinity>  (1) 
-6.1002574

>  <minimizedRMSD>  (1) 
1.12778795

$$$$
