
     RDKit          3D

 33 36  0  0  0  0  0  0  0  0999 V2000
   37.5880   32.9740   39.7140 N   0  0  0  0  0  0  0  0  0  0  0  0
   37.2950   34.2590   39.5110 C   0  0  0  0  0  0  0  0  0  0  0  0
   38.3710   34.9990   39.8630 N   0  0  0  0  0  0  0  0  0  0  0  0
   39.3370   34.1250   40.2910 C   0  0  0  0  0  0  0  0  0  0  0  0
   38.8280   32.8790   40.1900 N   0  0  0  0  0  0  0  0  0  0  0  0
   40.6840   34.5110   40.7720 C   0  0  0  0  0  0  0  0  0  0  0  0
   41.8080   33.7200   40.6590 C   0  0  0  0  0  0  0  0  0  0  0  0
   42.9920   34.2460   41.1670 C   0  0  0  0  0  0  0  0  0  0  0  0
   43.0450   35.4550   41.7360 N   0  0  0  0  0  0  0  0  0  0  0  0
   41.9400   36.2040   41.8330 C   0  0  0  0  0  0  0  0  0  0  0  0
   40.7580   35.7420   41.3550 N   0  0  0  0  0  0  0  0  0  0  0  0
   41.9230   37.4890   42.4210 N   0  0  0  0  0  0  0  0  0  0  0  0
   36.9510   31.6990   39.5650 C   0  0  0  0  0  0  0  0  0  0  0  0
   36.3340   31.0200   40.6160 C   0  0  0  0  0  0  0  0  0  0  0  0
   35.7460   29.7880   40.3660 C   0  0  0  0  0  0  0  0  0  0  0  0
   35.8110   29.3160   39.0960 N   0  0  0  0  0  0  0  0  0  0  0  0
   36.4110   29.9880   38.0980 C   0  0  0  0  0  0  0  0  0  0  0  0
   36.9920   31.1870   38.3100 N   0  0  0  0  0  0  0  0  0  0  0  0
   36.4660   29.4520   36.7320 C   0  0  0  0  0  0  0  0  0  0  0  0
   35.6070   29.3120   35.6550 C   0  0  0  0  0  0  0  0  0  0  0  0
   36.3590   28.7040   34.6720 C   0  0  0  0  0  0  0  0  0  0  0  0
   37.6090   28.4870   35.1240 N   0  0  0  0  0  0  0  0  0  0  0  0
   37.6630   28.9440   36.3760 N   0  0  0  0  0  0  0  0  0  0  0  0
   36.3424   34.6498   39.1240 H   0  0  0  0  0  0  0  0  0  0  0  0
   41.7706   32.7249   40.1916 H   0  0  0  0  0  0  0  0  0  0  0  0
   43.9131   33.6486   41.0984 H   0  0  0  0  0  0  0  0  0  0  0  0
   41.0428   38.0218   42.4689 H   0  0  0  0  0  0  0  0  0  0  0  0
   42.7908   37.8927   42.8016 H   0  0  0  0  0  0  0  0  0  0  0  0
   36.3139   31.4541   41.6265 H   0  0  0  0  0  0  0  0  0  0  0  0
   35.2481   29.2181   41.1643 H   0  0  0  0  0  0  0  0  0  0  0  0
   34.5525   29.6194   35.5963 H   0  0  0  0  0  0  0  0  0  0  0  0
   35.9931   28.4365   33.6697 H   0  0  0  0  0  0  0  0  0  0  0  0
   38.3803   28.0493   34.6001 H   0  0  0  0  0  0  0  0  0  0  0  0
  1  5  1  0
  2  1  1  0
  2  3  2  0
  3  4  1  0
  4  6  1  0
  5  4  2  0
  6 11  1  0
  7  6  2  0
  7  8  1  0
  8  9  2  0
  9 10  1  0
 10 12  1  0
 11 10  2  0
 13  1  1  0
 13 14  2  0
 15 14  1  0
 16 15  2  0
 17 18  2  0
 17 16  1  0
 18 13  1  0
 19 17  1  0
 20 19  1  0
 21 22  1  0
 21 20  2  0
 22 23  1  0
 23 19  2  0
  2 24  1  0
  7 25  1  0
  8 26  1  0
 12 27  1  0
 12 28  1  0
 14 29  1  0
 15 30  1  0
 20 31  1  0
 21 32  1  0
 22 33  1  0
M  ISO  8  24  14  25  14  26  14  29  14  30  14  31  14  32  14  33   9
M  END
>  <minimizedAffinity>  (1) 
-5.84665155

>  <minimizedRMSD>  (1) 
0.532855093

$$$$
