
     RDKit          3D

 39 42  0  0  0  0  0  0  0  0999 V2000
   37.3270   32.5720   39.7260 N   0  0  0  0  0  0  0  0  0  0  0  0
   37.0280   33.8460   39.4340 C   0  0  0  0  0  0  0  0  0  0  0  0
   38.1030   34.6060   39.7230 N   0  0  0  0  0  0  0  0  0  0  0  0
   39.0730   33.7820   40.1980 C   0  0  0  0  0  0  0  0  0  0  0  0
   38.5670   32.5270   40.1910 N   0  0  0  0  0  0  0  0  0  0  0  0
   40.4240   34.1890   40.6380 C   0  0  0  0  0  0  0  0  0  0  0  0
   41.5180   33.3590   40.7350 C   0  0  0  0  0  0  0  0  0  0  0  0
   42.7010   33.9170   41.1650 C   0  0  0  0  0  0  0  0  0  0  0  0
   42.8070   35.2010   41.4800 N   0  0  0  0  0  0  0  0  0  0  0  0
   41.7320   36.0080   41.3830 C   0  0  0  0  0  0  0  0  0  0  0  0
   40.5350   35.5170   40.9640 N   0  0  0  0  0  0  0  0  0  0  0  0
   41.7460   37.3980   41.6980 N   0  0  0  0  0  0  0  0  0  0  0  0
   36.6940   31.2890   39.6760 C   0  0  0  0  0  0  0  0  0  0  0  0
   36.1820   30.6330   40.7920 C   0  0  0  0  0  0  0  0  0  0  0  0
   35.5920   29.3920   40.6020 C   0  0  0  0  0  0  0  0  0  0  0  0
   35.5460   28.8870   39.3420 N   0  0  0  0  0  0  0  0  0  0  0  0
   36.0470   29.5430   38.2960 C   0  0  0  0  0  0  0  0  0  0  0  0
   36.6290   30.7490   38.4210 N   0  0  0  0  0  0  0  0  0  0  0  0
   35.9710   28.9460   36.9340 C   0  0  0  0  0  0  0  0  0  0  0  0
   34.5370   28.9470   36.4570 C   0  0  0  0  0  0  0  0  0  0  0  0
   34.5650   29.2660   34.9710 C   0  0  0  0  0  0  0  0  0  0  0  0
   36.0490   29.2300   34.6140 C   0  0  0  0  0  0  0  0  0  0  0  0
   36.6730   29.7700   35.9060 C   0  0  0  0  0  0  0  0  0  0  0  0
   36.0715   34.2081   39.0289 H   0  0  0  0  0  0  0  0  0  0  0  0
   41.4497   32.2914   40.4789 H   0  0  0  0  0  0  0  0  0  0  0  0
   43.5901   33.2749   41.2503 H   0  0  0  0  0  0  0  0  0  0  0  0
   40.8862   37.9567   41.6010 H   0  0  0  0  0  0  0  0  0  0  0  0
   42.6159   37.8438   42.0227 H   0  0  0  0  0  0  0  0  0  0  0  0
   36.2434   31.0846   41.7932 H   0  0  0  0  0  0  0  0  0  0  0  0
   35.1721   28.8313   41.4501 H   0  0  0  0  0  0  0  0  0  0  0  0
   36.4194   27.9460   37.0279 H   0  0  0  0  0  0  0  0  0  0  0  0
   34.0826   27.9591   36.6231 H   0  0  0  0  0  0  0  0  0  0  0  0
   33.9400   29.6891   37.0074 H   0  0  0  0  0  0  0  0  0  0  0  0
   34.0065   28.5109   34.3983 H   0  0  0  0  0  0  0  0  0  0  0  0
   34.0962   30.2331   34.7364 H   0  0  0  0  0  0  0  0  0  0  0  0
   36.3881   28.2060   34.3987 H   0  0  0  0  0  0  0  0  0  0  0  0
   36.3123   29.7994   33.7104 H   0  0  0  0  0  0  0  0  0  0  0  0
   37.7600   29.6029   35.9291 H   0  0  0  0  0  0  0  0  0  0  0  0
   36.5590   30.8555   36.0429 H   0  0  0  0  0  0  0  0  0  0  0  0
  1  5  1  0
  2  3  2  0
  2  1  1  0
  3  4  1  0
  4  6  1  0
  5  4  2  0
  6  7  2  0
  6 11  1  0
  7  8  1  0
  8  9  2  0
 10  9  1  0
 10 12  1  0
 11 10  2  0
 13  1  1  0
 13 14  2  0
 15 14  1  0
 16 15  2  0
 17 18  2  0
 17 16  1  0
 18 13  1  0
 19 17  1  0
 20 19  1  0
 21 20  1  0
 22 21  1  0
 22 23  1  0
 23 19  1  0
  2 24  1  0
  7 25  1  0
  8 26  1  0
 12 27  1  0
 12 28  1  0
 14 29  1  0
 15 30  1  0
 19 31  1  0
 20 32  1  0
 20 33  1  0
 21 34  1  0
 21 35  1  0
 22 36  1  0
 22 37  1  0
 23 38  1  0
 23 39  1  0
M  ISO  8  24  14  25  14  26  14  29  14  30  14  31  13  32  13  33  13
M  ISO  6  34  13  35  13  36  13  37  13  38  13  39  13
M  END
>  <minimizedAffinity>  (1) 
-5.82226038

>  <minimizedRMSD>  (1) 
1.37307322

$$$$
