
     RDKit          3D

 33 36  0  0  0  0  0  0  0  0999 V2000
   37.5550   32.9290   39.8280 N   0  0  0  0  0  0  0  0  0  0  0  0
   37.2990   34.2050   39.5340 C   0  0  0  0  0  0  0  0  0  0  0  0
   38.3760   34.9420   39.8360 N   0  0  0  0  0  0  0  0  0  0  0  0
   39.3270   34.0940   40.3310 C   0  0  0  0  0  0  0  0  0  0  0  0
   38.7890   32.8460   40.3150 N   0  0  0  0  0  0  0  0  0  0  0  0
   36.9040   31.6580   39.7730 C   0  0  0  0  0  0  0  0  0  0  0  0
   36.3920   30.9920   40.8790 C   0  0  0  0  0  0  0  0  0  0  0  0
   35.7820   29.7590   40.6960 C   0  0  0  0  0  0  0  0  0  0  0  0
   35.7160   29.2660   39.4370 N   0  0  0  0  0  0  0  0  0  0  0  0
   36.2190   29.9270   38.3830 C   0  0  0  0  0  0  0  0  0  0  0  0
   36.8170   31.1250   38.5310 N   0  0  0  0  0  0  0  0  0  0  0  0
   36.1450   29.3950   37.0460 N   0  0  0  0  0  0  0  0  0  0  0  0
   37.2620   29.1380   36.3810 N   0  0  0  0  0  0  0  0  0  0  0  0
   36.9650   28.6490   35.1560 C   0  0  0  0  0  0  0  0  0  0  0  0
   35.5790   28.5980   35.0540 C   0  0  0  0  0  0  0  0  0  0  0  0
   35.0860   29.0780   36.2690 C   0  0  0  0  0  0  0  0  0  0  0  0
   40.6830   34.4770   40.7930 C   0  0  0  0  0  0  0  0  0  0  0  0
   41.8060   33.6890   40.6880 C   0  0  0  0  0  0  0  0  0  0  0  0
   42.9830   34.2260   41.1810 C   0  0  0  0  0  0  0  0  0  0  0  0
   43.0440   35.4510   41.7370 N   0  0  0  0  0  0  0  0  0  0  0  0
   41.9340   36.2050   41.8290 C   0  0  0  0  0  0  0  0  0  0  0  0
   40.7530   35.7290   41.3630 N   0  0  0  0  0  0  0  0  0  0  0  0
   41.9130   37.4920   42.3940 N   0  0  0  0  0  0  0  0  0  0  0  0
   36.3581   34.5887   39.1128 H   0  0  0  0  0  0  0  0  0  0  0  0
   36.4687   31.4344   41.8832 H   0  0  0  0  0  0  0  0  0  0  0  0
   35.3654   29.2001   41.5469 H   0  0  0  0  0  0  0  0  0  0  0  0
   37.6866   28.3471   34.3826 H   0  0  0  0  0  0  0  0  0  0  0  0
   34.9909   28.2504   34.1918 H   0  0  0  0  0  0  0  0  0  0  0  0
   34.0259   29.1798   36.5442 H   0  0  0  0  0  0  0  0  0  0  0  0
   41.7706   32.6865   40.2367 H   0  0  0  0  0  0  0  0  0  0  0  0
   43.9044   33.6287   41.1160 H   0  0  0  0  0  0  0  0  0  0  0  0
   41.0306   38.0216   42.4362 H   0  0  0  0  0  0  0  0  0  0  0  0
   42.7800   37.9054   42.7658 H   0  0  0  0  0  0  0  0  0  0  0  0
  1  5  1  0
  2  1  1  0
  2  3  2  0
  3  4  1  0
  4 17  1  0
  5  4  2  0
  6  1  1  0
  6  7  2  0
  8  7  1  0
  9  8  2  0
 10 11  2  0
 10  9  1  0
 11  6  1  0
 12 10  1  0
 13 12  1  0
 14 13  2  0
 15 14  1  0
 15 16  2  0
 16 12  1  0
 17 22  1  0
 18 17  2  0
 18 19  1  0
 19 20  2  0
 20 21  1  0
 21 23  1  0
 22 21  2  0
  2 24  1  0
  7 25  1  0
  8 26  1  0
 14 27  1  0
 15 28  1  0
 16 29  1  0
 18 30  1  0
 19 31  1  0
 23 32  1  0
 23 33  1  0
M  ISO  8  24  14  25  14  26  14  27  14  28  14  29  14  30  14  31  14
M  END
>  <minimizedAffinity>  (1) 
-5.75059509

>  <minimizedRMSD>  (1) 
0.662016392

$$$$
