
     RDKit          3D

 39 42  0  0  0  0  0  0  0  0999 V2000
   36.9810   30.6710   40.5100 C   0  0  0  0  0  0  0  0  0  0  0  0
   37.1830   29.9720   41.7040 C   0  0  0  0  0  0  0  0  0  0  0  0
   36.6340   28.7070   41.8370 C   0  0  0  0  0  0  0  0  0  0  0  0
   35.9170   28.2200   40.7720 N   0  0  0  0  0  0  0  0  0  0  0  0
   35.7440   28.9110   39.6500 C   0  0  0  0  0  0  0  0  0  0  0  0
   36.2660   30.1480   39.4880 N   0  0  0  0  0  0  0  0  0  0  0  0
   37.4950   31.9740   40.2580 N   0  0  0  0  0  0  0  0  0  0  0  0
   37.1000   33.1130   39.6880 C   0  0  0  0  0  0  0  0  0  0  0  0
   38.0970   34.0180   39.7790 N   0  0  0  0  0  0  0  0  0  0  0  0
   39.1270   33.4180   40.4220 C   0  0  0  0  0  0  0  0  0  0  0  0
   38.7280   32.1500   40.7080 N   0  0  0  0  0  0  0  0  0  0  0  0
   40.4310   34.0310   40.7460 C   0  0  0  0  0  0  0  0  0  0  0  0
   41.6210   33.3470   40.8890 C   0  0  0  0  0  0  0  0  0  0  0  0
   42.7340   34.1090   41.1940 C   0  0  0  0  0  0  0  0  0  0  0  0
   42.6880   35.4390   41.3480 N   0  0  0  0  0  0  0  0  0  0  0  0
   41.5230   36.0850   41.2040 C   0  0  0  0  0  0  0  0  0  0  0  0
   40.4010   35.3920   40.9050 N   0  0  0  0  0  0  0  0  0  0  0  0
   41.3750   37.4910   41.3480 N   0  0  0  0  0  0  0  0  0  0  0  0
   33.5210   27.2390   36.4740 C   0  0  0  0  0  0  0  0  0  0  0  0
   33.1300   28.4580   36.9900 C   0  0  0  0  0  0  0  0  0  0  0  0
   33.8700   28.9890   38.0290 C   0  0  0  0  0  0  0  0  0  0  0  0
   34.9710   28.3370   38.5510 C   0  0  0  0  0  0  0  0  0  0  0  0
   35.3260   27.1200   38.0040 C   0  0  0  0  0  0  0  0  0  0  0  0
   34.6230   26.5220   36.9510 C   0  0  0  0  0  0  0  0  0  0  0  0
   32.5240   26.6270   35.1480 S   0  0  0  0  0  0  0  0  0  0  0  0
   31.5420   27.6860   34.7170 O   0  0  0  0  0  0  0  0  0  0  0  0
   33.4100   26.3400   33.9680 O   0  0  0  0  0  0  0  0  0  0  0  0
   37.7669   30.4182   42.5225 H   0  0  0  0  0  0  0  0  0  0  0  0
   36.7668   28.1179   42.7564 H   0  0  0  0  0  0  0  0  0  0  0  0
   36.1201   33.2868   39.2194 H   0  0  0  0  0  0  0  0  0  0  0  0
   41.6810   32.2554   40.7671 H   0  0  0  0  0  0  0  0  0  0  0  0
   43.7014   33.5997   41.3157 H   0  0  0  0  0  0  0  0  0  0  0  0
   40.4500   37.9268   41.2242 H   0  0  0  0  0  0  0  0  0  0  0  0
   42.1927   38.0742   41.5762 H   0  0  0  0  0  0  0  0  0  0  0  0
   32.2561   28.9904   36.5865 H   0  0  0  0  0  0  0  0  0  0  0  0
   33.5739   29.9597   38.4533 H   0  0  0  0  0  0  0  0  0  0  0  0
   36.2017   26.5959   38.4145 H   0  0  0  0  0  0  0  0  0  0  0  0
   34.9183   25.5512   36.5264 H   0  0  0  0  0  0  0  0  0  0  0  0
   31.8659   25.5017   35.5692 H   0  0  0  0  0  0  0  0  0  0  0  0
  1  2  2  0
  2  3  1  0
  4  3  2  0
  5  4  1  0
  6  5  2  0
  6  1  1  0
  7  1  1  0
  7 11  1  0
  8  9  2  0
  8  7  1  0
  9 10  1  0
 10 11  2  0
 10 12  1  0
 12 13  2  0
 12 17  1  0
 13 14  1  0
 14 15  2  0
 16 15  1  0
 16 18  1  0
 17 16  2  0
 19 24  2  0
 19 20  1  0
 20 21  2  0
 21 22  1  0
 22  5  1  0
 23 22  2  0
 24 23  1  0
 25 19  1  0
 26 25  2  0
 27 25  2  0
  2 28  1  0
  3 29  1  0
  8 30  1  0
 13 31  1  0
 14 32  1  0
 18 33  1  0
 18 34  1  0
 20 35  1  0
 21 36  1  0
 23 37  1  0
 24 38  1  0
 25 39  1  0
M  ISO  8  28  14  29  14  30  14  31  14  32  14  35  14  36  14  37  14
M  ISO  2  38  14  39  11
M  END
>  <minimizedAffinity>  (1) 
-5.72493219

>  <minimizedRMSD>  (1) 
2.75962305

$$$$
