
     RDKit          3D

 35 38  0  0  0  0  0  0  0  0999 V2000
   37.3520   32.6180   39.7210 N   0  0  0  0  0  0  0  0  0  0  0  0
   37.0710   33.8950   39.4600 C   0  0  0  0  0  0  0  0  0  0  0  0
   38.1420   34.6480   39.7610 N   0  0  0  0  0  0  0  0  0  0  0  0
   39.1180   33.8010   40.2240 C   0  0  0  0  0  0  0  0  0  0  0  0
   38.5940   32.5500   40.1870 N   0  0  0  0  0  0  0  0  0  0  0  0
   40.4630   34.2060   40.6690 C   0  0  0  0  0  0  0  0  0  0  0  0
   41.5490   33.3480   40.7520 C   0  0  0  0  0  0  0  0  0  0  0  0
   42.7420   33.9090   41.1930 C   0  0  0  0  0  0  0  0  0  0  0  0
   42.8490   35.2100   41.5250 N   0  0  0  0  0  0  0  0  0  0  0  0
   41.7800   36.0160   41.4350 C   0  0  0  0  0  0  0  0  0  0  0  0
   40.5880   35.5280   41.0110 N   0  0  0  0  0  0  0  0  0  0  0  0
   41.8040   37.3840   41.7620 N   0  0  0  0  0  0  0  0  0  0  0  0
   36.7160   31.3560   39.6430 C   0  0  0  0  0  0  0  0  0  0  0  0
   36.2240   30.6570   40.7530 C   0  0  0  0  0  0  0  0  0  0  0  0
   35.6200   29.4220   40.5400 C   0  0  0  0  0  0  0  0  0  0  0  0
   35.5410   28.9600   39.2500 N   0  0  0  0  0  0  0  0  0  0  0  0
   36.0210   29.6520   38.2160 C   0  0  0  0  0  0  0  0  0  0  0  0
   36.6080   30.8470   38.3940 N   0  0  0  0  0  0  0  0  0  0  0  0
   35.9120   29.1150   36.8630 C   0  0  0  0  0  0  0  0  0  0  0  0
   36.5610   29.7200   35.8050 C   0  0  0  0  0  0  0  0  0  0  0  0
   36.4800   29.2360   34.5040 C   0  0  0  0  0  0  0  0  0  0  0  0
   35.7180   28.1100   34.2790 C   0  0  0  0  0  0  0  0  0  0  0  0
   35.0720   27.5120   35.3450 C   0  0  0  0  0  0  0  0  0  0  0  0
   35.1760   28.0180   36.6080 N   0  0  0  0  0  0  0  0  0  0  0  0
   36.1167   34.2710   39.0626 H   0  0  0  0  0  0  0  0  0  0  0  0
   41.4710   32.2840   40.4841 H   0  0  0  0  0  0  0  0  0  0  0  0
   43.6314   33.2668   41.2738 H   0  0  0  0  0  0  0  0  0  0  0  0
   40.9484   37.9502   41.6715 H   0  0  0  0  0  0  0  0  0  0  0  0
   42.6772   37.8194   42.0920 H   0  0  0  0  0  0  0  0  0  0  0  0
   36.3130   31.0740   41.7670 H   0  0  0  0  0  0  0  0  0  0  0  0
   35.2185   28.8344   41.3788 H   0  0  0  0  0  0  0  0  0  0  0  0
   37.1649   30.6188   35.9987 H   0  0  0  0  0  0  0  0  0  0  0  0
   37.0082   29.7368   33.6793 H   0  0  0  0  0  0  0  0  0  0  0  0
   35.6251   27.6929   33.2654 H   0  0  0  0  0  0  0  0  0  0  0  0
   34.4633   26.6122   35.1720 H   0  0  0  0  0  0  0  0  0  0  0  0
  1  5  1  0
  2  1  1  0
  2  3  2  0
  3  4  1  0
  4  6  1  0
  5  4  2  0
  6  7  2  0
  6 11  1  0
  7  8  1  0
  8  9  2  0
 10  9  1  0
 10 12  1  0
 11 10  2  0
 13  1  1  0
 13 14  2  0
 15 14  1  0
 16 15  2  0
 17 18  2  0
 17 16  1  0
 18 13  1  0
 19 17  1  0
 20 19  2  0
 21 20  1  0
 22 21  2  0
 22 23  1  0
 23 24  2  0
 24 19  1  0
  2 25  1  0
  7 26  1  0
  8 27  1  0
 12 28  1  0
 12 29  1  0
 14 30  1  0
 15 31  1  0
 20 32  1  0
 21 33  1  0
 22 34  1  0
 23 35  1  0
M  ISO  8  25  14  26  14  27  14  30  14  31  14  32  14  33  14  34  14
M  ISO  1  35  14
M  END
>  <minimizedAffinity>  (1) 
-5.70510101

>  <minimizedRMSD>  (1) 
1.13569069

$$$$
