
     RDKit          3D

 34 37  0  0  0  0  0  0  0  0999 V2000
   37.3170   32.5620   39.6680 N   0  0  0  0  0  0  0  0  0  0  0  0
   37.0070   33.8380   39.4370 C   0  0  0  0  0  0  0  0  0  0  0  0
   38.0760   34.6010   39.7480 N   0  0  0  0  0  0  0  0  0  0  0  0
   39.0600   33.7730   40.1780 C   0  0  0  0  0  0  0  0  0  0  0  0
   38.5600   32.5010   40.1190 N   0  0  0  0  0  0  0  0  0  0  0  0
   40.4090   34.1690   40.6240 C   0  0  0  0  0  0  0  0  0  0  0  0
   41.4990   33.3250   40.7220 C   0  0  0  0  0  0  0  0  0  0  0  0
   42.6880   33.8880   41.1640 C   0  0  0  0  0  0  0  0  0  0  0  0
   42.7870   35.1780   41.4810 N   0  0  0  0  0  0  0  0  0  0  0  0
   41.7130   35.9930   41.3800 C   0  0  0  0  0  0  0  0  0  0  0  0
   40.5250   35.5030   40.9560 N   0  0  0  0  0  0  0  0  0  0  0  0
   41.7520   37.3660   41.6990 N   0  0  0  0  0  0  0  0  0  0  0  0
   36.6990   31.2800   39.5680 C   0  0  0  0  0  0  0  0  0  0  0  0
   36.2120   30.5700   40.6810 C   0  0  0  0  0  0  0  0  0  0  0  0
   35.6300   29.3240   40.4400 C   0  0  0  0  0  0  0  0  0  0  0  0
   35.5660   28.8690   39.1490 N   0  0  0  0  0  0  0  0  0  0  0  0
   36.0400   29.5810   38.1350 C   0  0  0  0  0  0  0  0  0  0  0  0
   36.6100   30.7860   38.3100 N   0  0  0  0  0  0  0  0  0  0  0  0
   35.9520   29.0580   36.7750 C   0  0  0  0  0  0  0  0  0  0  0  0
   36.5000   29.7250   35.6980 C   0  0  0  0  0  0  0  0  0  0  0  0
   36.4530   29.2890   34.3890 C   0  0  0  0  0  0  0  0  0  0  0  0
   35.8080   28.1040   34.1770 N   0  0  0  0  0  0  0  0  0  0  0  0
   35.2670   27.4400   35.2160 C   0  0  0  0  0  0  0  0  0  0  0  0
   35.3280   27.8940   36.5030 N   0  0  0  0  0  0  0  0  0  0  0  0
   36.0428   34.2067   39.0571 H   0  0  0  0  0  0  0  0  0  0  0  0
   41.4276   32.2585   40.4622 H   0  0  0  0  0  0  0  0  0  0  0  0
   43.5779   33.2479   41.2556 H   0  0  0  0  0  0  0  0  0  0  0  0
   40.9029   37.9412   41.6036 H   0  0  0  0  0  0  0  0  0  0  0  0
   42.6296   37.7937   42.0274 H   0  0  0  0  0  0  0  0  0  0  0  0
   36.2868   30.9798   41.6991 H   0  0  0  0  0  0  0  0  0  0  0  0
   35.2314   28.7205   41.2687 H   0  0  0  0  0  0  0  0  0  0  0  0
   37.0136   30.6770   35.8980 H   0  0  0  0  0  0  0  0  0  0  0  0
   36.9074   29.8612   33.5668 H   0  0  0  0  0  0  0  0  0  0  0  0
   34.7521   26.4880   35.0194 H   0  0  0  0  0  0  0  0  0  0  0  0
  1  5  1  0
  2  1  1  0
  2  3  2  0
  3  4  1  0
  4  6  1  0
  5  4  2  0
  6  7  2  0
  6 11  1  0
  7  8  1  0
  8  9  2  0
 10  9  1  0
 10 12  1  0
 11 10  2  0
 13  1  1  0
 13 14  2  0
 15 14  1  0
 16 15  2  0
 17 18  2  0
 17 16  1  0
 18 13  1  0
 19 17  1  0
 20 19  2  0
 21 20  1  0
 22 21  2  0
 22 23  1  0
 23 24  2  0
 24 19  1  0
  2 25  1  0
  7 26  1  0
  8 27  1  0
 12 28  1  0
 12 29  1  0
 14 30  1  0
 15 31  1  0
 20 32  1  0
 21 33  1  0
 23 34  1  0
M  ISO  8  25  14  26  14  27  14  30  14  31  14  32  14  33  14  34  14
M  END
>  <minimizedAffinity>  (1) 
-5.65431738

>  <minimizedRMSD>  (1) 
1.1218853

$$$$
