
     RDKit          3D

 34 37  0  0  0  0  0  0  0  0999 V2000
   37.5100   32.8400   39.8390 N   0  0  0  0  0  0  0  0  0  0  0  0
   37.2470   34.1070   39.5210 C   0  0  0  0  0  0  0  0  0  0  0  0
   38.3290   34.8550   39.8130 N   0  0  0  0  0  0  0  0  0  0  0  0
   39.2760   34.0140   40.3260 C   0  0  0  0  0  0  0  0  0  0  0  0
   38.7460   32.7680   40.3330 N   0  0  0  0  0  0  0  0  0  0  0  0
   40.6210   34.4230   40.7810 C   0  0  0  0  0  0  0  0  0  0  0  0
   41.7520   33.6290   40.6930 C   0  0  0  0  0  0  0  0  0  0  0  0
   42.9340   34.1760   41.1700 C   0  0  0  0  0  0  0  0  0  0  0  0
   42.9910   35.4150   41.6920 N   0  0  0  0  0  0  0  0  0  0  0  0
   41.8810   36.1660   41.7660 C   0  0  0  0  0  0  0  0  0  0  0  0
   40.7000   35.6780   41.3140 N   0  0  0  0  0  0  0  0  0  0  0  0
   41.8590   37.4690   42.2970 N   0  0  0  0  0  0  0  0  0  0  0  0
   36.8620   31.5680   39.8040 C   0  0  0  0  0  0  0  0  0  0  0  0
   36.4360   30.8830   40.9360 C   0  0  0  0  0  0  0  0  0  0  0  0
   35.8190   29.6470   40.7790 C   0  0  0  0  0  0  0  0  0  0  0  0
   35.6650   29.1720   39.5090 N   0  0  0  0  0  0  0  0  0  0  0  0
   36.0870   29.8580   38.4430 C   0  0  0  0  0  0  0  0  0  0  0  0
   36.6870   31.0540   38.5590 N   0  0  0  0  0  0  0  0  0  0  0  0
   35.9130   29.3290   37.0750 C   0  0  0  0  0  0  0  0  0  0  0  0
   34.6860   28.9100   36.6060 C   0  0  0  0  0  0  0  0  0  0  0  0
   34.5630   28.4190   35.3150 C   0  0  0  0  0  0  0  0  0  0  0  0
   35.6340   28.3420   34.4960 N   0  0  0  0  0  0  0  0  0  0  0  0
   36.8360   28.7580   34.9680 C   0  0  0  0  0  0  0  0  0  0  0  0
   36.9340   29.2240   36.2050 N   0  0  0  0  0  0  0  0  0  0  0  0
   36.3050   34.4796   39.0922 H   0  0  0  0  0  0  0  0  0  0  0  0
   41.7150   32.6158   40.2664 H   0  0  0  0  0  0  0  0  0  0  0  0
   43.8553   33.5772   41.1199 H   0  0  0  0  0  0  0  0  0  0  0  0
   40.9756   37.9978   42.3276 H   0  0  0  0  0  0  0  0  0  0  0  0
   42.7263   37.8939   42.6551 H   0  0  0  0  0  0  0  0  0  0  0  0
   36.5844   31.3112   41.9383 H   0  0  0  0  0  0  0  0  0  0  0  0
   35.4672   29.0720   41.6483 H   0  0  0  0  0  0  0  0  0  0  0  0
   33.8018   28.9654   37.2580 H   0  0  0  0  0  0  0  0  0  0  0  0
   33.5787   28.0874   34.9527 H   0  0  0  0  0  0  0  0  0  0  0  0
   37.7274   28.7087   34.3254 H   0  0  0  0  0  0  0  0  0  0  0  0
  1  5  1  0
  2  3  2  0
  2  1  1  0
  3  4  1  0
  4  5  2  0
  4  6  1  0
  6 11  1  0
  7  6  2  0
  7  8  1  0
  8  9  2  0
  9 10  1  0
 10 12  1  0
 11 10  2  0
 13  1  1  0
 13 14  2  0
 15 14  1  0
 16 15  2  0
 17 18  2  0
 17 16  1  0
 18 13  1  0
 19 17  1  0
 20 19  2  0
 21 20  1  0
 22 23  1  0
 22 21  2  0
 23 24  2  0
 24 19  1  0
  2 25  1  0
  7 26  1  0
  8 27  1  0
 12 28  1  0
 12 29  1  0
 14 30  1  0
 15 31  1  0
 20 32  1  0
 21 33  1  0
 23 34  1  0
M  ISO  8  25  14  26  14  27  14  30  14  31  14  32  14  33  14  34  14
M  END
>  <minimizedAffinity>  (1) 
-5.64225578

>  <minimizedRMSD>  (1) 
0.86644733

$$$$
