
     RDKit          3D

 33 36  0  0  0  0  0  0  0  0999 V2000
   37.6250   33.0400   39.7740 N   0  0  0  0  0  0  0  0  0  0  0  0
   37.3620   34.3240   39.5370 C   0  0  0  0  0  0  0  0  0  0  0  0
   38.4440   35.0570   39.8770 N   0  0  0  0  0  0  0  0  0  0  0  0
   39.3950   34.1820   40.3380 C   0  0  0  0  0  0  0  0  0  0  0  0
   38.8620   32.9440   40.2630 N   0  0  0  0  0  0  0  0  0  0  0  0
   40.7280   34.5720   40.8120 C   0  0  0  0  0  0  0  0  0  0  0  0
   41.8650   33.7760   40.6820 C   0  0  0  0  0  0  0  0  0  0  0  0
   43.0470   34.2950   41.1840 C   0  0  0  0  0  0  0  0  0  0  0  0
   43.1090   35.5060   41.7710 N   0  0  0  0  0  0  0  0  0  0  0  0
   42.0040   36.2510   41.8830 C   0  0  0  0  0  0  0  0  0  0  0  0
   40.8200   35.7930   41.4100 N   0  0  0  0  0  0  0  0  0  0  0  0
   41.9900   37.5230   42.4820 N   0  0  0  0  0  0  0  0  0  0  0  0
   36.9820   31.7710   39.6590 C   0  0  0  0  0  0  0  0  0  0  0  0
   36.4430   31.0730   40.7450 C   0  0  0  0  0  0  0  0  0  0  0  0
   35.8400   29.8410   40.5040 C   0  0  0  0  0  0  0  0  0  0  0  0
   35.8150   29.3910   39.2070 N   0  0  0  0  0  0  0  0  0  0  0  0
   36.3430   30.0890   38.1960 C   0  0  0  0  0  0  0  0  0  0  0  0
   36.9300   31.2800   38.3970 N   0  0  0  0  0  0  0  0  0  0  0  0
   36.2730   29.5370   36.8460 C   0  0  0  0  0  0  0  0  0  0  0  0
   35.1490   28.9980   36.2270 C   0  0  0  0  0  0  0  0  0  0  0  0
   35.4940   28.5990   34.9900 N   0  0  0  0  0  0  0  0  0  0  0  0
   36.8120   28.8890   34.8520 C   0  0  0  0  0  0  0  0  0  0  0  0
   37.3000   29.4630   35.9790 N   0  0  0  0  0  0  0  0  0  0  0  0
   36.4198   34.7214   39.1316 H   0  0  0  0  0  0  0  0  0  0  0  0
   41.8255   32.7857   40.2048 H   0  0  0  0  0  0  0  0  0  0  0  0
   43.9669   33.6977   41.1005 H   0  0  0  0  0  0  0  0  0  0  0  0
   41.1097   38.0544   42.5418 H   0  0  0  0  0  0  0  0  0  0  0  0
   42.8600   37.9234   42.8610 H   0  0  0  0  0  0  0  0  0  0  0  0
   36.4942   31.4866   41.7630 H   0  0  0  0  0  0  0  0  0  0  0  0
   35.4005   29.2508   41.3216 H   0  0  0  0  0  0  0  0  0  0  0  0
   34.1476   28.9128   36.6741 H   0  0  0  0  0  0  0  0  0  0  0  0
   37.4046   28.6859   33.9478 H   0  0  0  0  0  0  0  0  0  0  0  0
   38.2666   29.7801   36.1402 H   0  0  0  0  0  0  0  0  0  0  0  0
  1  5  1  0
  2  1  1  0
  2  3  2  0
  3  4  1  0
  4  6  1  0
  5  4  2  0
  6 11  1  0
  7  6  2  0
  7  8  1  0
  8  9  2  0
  9 10  1  0
 10 12  1  0
 11 10  2  0
 13  1  1  0
 13 14  2  0
 15 14  1  0
 16 15  2  0
 17 18  2  0
 17 16  1  0
 18 13  1  0
 19 17  1  0
 20 19  2  0
 21 20  1  0
 22 21  2  0
 22 23  1  0
 23 19  1  0
  2 24  1  0
  7 25  1  0
  8 26  1  0
 12 27  1  0
 12 28  1  0
 14 29  1  0
 15 30  1  0
 20 31  1  0
 22 32  1  0
 23 33  1  0
M  ISO  8  24  14  25  14  26  14  29  14  30  14  31  14  32  14  33   9
M  END
>  <minimizedAffinity>  (1) 
-5.56130123

>  <minimizedRMSD>  (1) 
0.514464557

$$$$
