
     RDKit          3D

 19 20  0  0  0  0  0  0  0  0999 V2000
   38.9870   29.5580   41.9250 C   0  0  0  0  0  0  0  0  0  0  0  0
   39.6920   30.1030   40.8310 C   0  0  0  0  0  0  0  0  0  0  0  0
   39.0050   30.9060   39.9370 C   0  0  0  0  0  0  0  0  0  0  0  0
   37.6640   31.1410   40.1480 N   0  0  0  0  0  0  0  0  0  0  0  0
   37.0340   30.5970   41.2080 C   0  0  0  0  0  0  0  0  0  0  0  0
   37.6770   29.8110   42.0960 N   0  0  0  0  0  0  0  0  0  0  0  0
   35.6330   30.8920   41.3560 N   0  0  0  0  0  0  0  0  0  0  0  0
   39.6110   31.5350   38.7630 C   0  0  0  0  0  0  0  0  0  0  0  0
   40.9050   32.0070   38.6940 C   0  0  0  0  0  0  0  0  0  0  0  0
   41.1540   32.5380   37.4460 C   0  0  0  0  0  0  0  0  0  0  0  0
   39.9660   32.3570   36.7990 N   0  0  0  0  0  0  0  0  0  0  0  0
   39.0470   31.7710   37.5500 N   0  0  0  0  0  0  0  0  0  0  0  0
   39.5153   28.9182   42.6471 H   0  0  0  0  0  0  0  0  0  0  0  0
   40.7630   29.8945   40.6918 H   0  0  0  0  0  0  0  0  0  0  0  0
   35.1053   30.5007   42.1493 H   0  0  0  0  0  0  0  0  0  0  0  0
   35.1581   31.4944   40.6686 H   0  0  0  0  0  0  0  0  0  0  0  0
   41.6340   31.9658   39.5167 H   0  0  0  0  0  0  0  0  0  0  0  0
   42.0801   32.9942   37.0662 H   0  0  0  0  0  0  0  0  0  0  0  0
   39.8012   32.6472   35.8246 H   0  0  0  0  0  0  0  0  0  0  0  0
  1  6  2  0
  2  1  1  0
  3  4  1  0
  3  2  2  0
  4  5  2  0
  5  7  1  0
  5  6  1  0
  8  3  1  0
  9  8  1  0
 10  9  2  0
 11 10  1  0
 11 12  1  0
 12  8  2  0
  1 13  1  0
  2 14  1  0
  7 15  1  0
  7 16  1  0
  9 17  1  0
 10 18  1  0
 11 19  1  0
M  ISO  5  13  14  14  14  17  14  18  14  19   9
M  END
>  <minimizedAffinity>  (1) 
-4.32581234

>  <minimizedRMSD>  (1) 
6.90829468

$$$$
