
     RDKit          3D

 33 36  0  0  0  0  0  0  0  0999 V2000
   37.3300   32.5960   39.7140 N   0  0  0  0  0  0  0  0  0  0  0  0
   37.0410   33.8700   39.4430 C   0  0  0  0  0  0  0  0  0  0  0  0
   38.1170   34.6320   39.7400 N   0  0  0  0  0  0  0  0  0  0  0  0
   39.0820   33.7980   40.2020 C   0  0  0  0  0  0  0  0  0  0  0  0
   38.5750   32.5390   40.1800 N   0  0  0  0  0  0  0  0  0  0  0  0
   40.4340   34.2070   40.6460 C   0  0  0  0  0  0  0  0  0  0  0  0
   41.5210   33.3600   40.7340 C   0  0  0  0  0  0  0  0  0  0  0  0
   42.7100   33.9120   41.1680 C   0  0  0  0  0  0  0  0  0  0  0  0
   42.8280   35.2120   41.4960 N   0  0  0  0  0  0  0  0  0  0  0  0
   41.7520   36.0240   41.4040 C   0  0  0  0  0  0  0  0  0  0  0  0
   40.5530   35.5330   40.9800 N   0  0  0  0  0  0  0  0  0  0  0  0
   41.7700   37.3940   41.7230 N   0  0  0  0  0  0  0  0  0  0  0  0
   36.7030   31.3180   39.6490 C   0  0  0  0  0  0  0  0  0  0  0  0
   36.2040   30.6390   40.7780 C   0  0  0  0  0  0  0  0  0  0  0  0
   35.6150   29.4000   40.5850 C   0  0  0  0  0  0  0  0  0  0  0  0
   35.5530   28.9070   39.3090 N   0  0  0  0  0  0  0  0  0  0  0  0
   36.0410   29.5870   38.2570 C   0  0  0  0  0  0  0  0  0  0  0  0
   36.6200   30.7940   38.4100 N   0  0  0  0  0  0  0  0  0  0  0  0
   35.9490   29.0090   36.8900 C   0  0  0  0  0  0  0  0  0  0  0  0
   36.5610   29.7160   35.7330 C   0  0  0  0  0  0  0  0  0  0  0  0
   37.2350   28.4990   36.2770 C   0  0  0  0  0  0  0  0  0  0  0  0
   36.0848   34.2392   39.0438 H   0  0  0  0  0  0  0  0  0  0  0  0
   41.4434   32.2948   40.4706 H   0  0  0  0  0  0  0  0  0  0  0  0
   43.5952   33.2640   41.2488 H   0  0  0  0  0  0  0  0  0  0  0  0
   40.9117   37.9558   41.6299 H   0  0  0  0  0  0  0  0  0  0  0  0
   42.6415   37.8353   42.0497 H   0  0  0  0  0  0  0  0  0  0  0  0
   36.2798   31.0796   41.7831 H   0  0  0  0  0  0  0  0  0  0  0  0
   35.2087   28.8286   41.4326 H   0  0  0  0  0  0  0  0  0  0  0  0
   34.9441   28.6088   37.0902 H   0  0  0  0  0  0  0  0  0  0  0  0
   37.0193   30.7056   35.8766 H   0  0  0  0  0  0  0  0  0  0  0  0
   36.2042   30.0211   34.7382 H   0  0  0  0  0  0  0  0  0  0  0  0
   37.2374   27.5639   35.6976 H   0  0  0  0  0  0  0  0  0  0  0  0
   38.2418   28.2651   36.6535 H   0  0  0  0  0  0  0  0  0  0  0  0
  1  5  1  0
  2  1  1  0
  2  3  2  0
  3  4  1  0
  4  6  1  0
  5  4  2  0
  6  7  2  0
  6 11  1  0
  7  8  1  0
  8  9  2  0
 10  9  1  0
 10 12  1  0
 11 10  2  0
 13  1  1  0
 13 14  2  0
 15 14  1  0
 16 15  2  0
 17 18  2  0
 17 16  1  0
 18 13  1  0
 19 17  1  0
 20 21  1  0
 20 19  1  0
 21 19  1  0
  2 22  1  0
  7 23  1  0
  8 24  1  0
 12 25  1  0
 12 26  1  0
 14 27  1  0
 15 28  1  0
 19 29  1  0
 20 30  1  0
 20 31  1  0
 21 32  1  0
 21 33  1  0
M  ISO  8  22  14  23  14  24  14  27  14  28  14  29  13  30  13  31  13
M  ISO  2  32  13  33  13
M  END
>  <minimizedAffinity>  (1) 
-5.31697083

>  <minimizedRMSD>  (1) 
1.01575065

$$$$
