
     RDKit          3D

 32 34  0  0  0  0  0  0  0  0999 V2000
   37.3140   32.5510   39.7150 N   0  0  0  0  0  0  0  0  0  0  0  0
   37.0180   33.8300   39.4260 C   0  0  0  0  0  0  0  0  0  0  0  0
   38.0860   34.5940   39.7140 N   0  0  0  0  0  0  0  0  0  0  0  0
   39.0610   33.7670   40.1910 C   0  0  0  0  0  0  0  0  0  0  0  0
   38.5560   32.5080   40.1800 N   0  0  0  0  0  0  0  0  0  0  0  0
   40.4070   34.1840   40.6310 C   0  0  0  0  0  0  0  0  0  0  0  0
   41.5010   33.3480   40.7250 C   0  0  0  0  0  0  0  0  0  0  0  0
   42.6910   33.9130   41.1580 C   0  0  0  0  0  0  0  0  0  0  0  0
   42.7970   35.2000   41.4720 N   0  0  0  0  0  0  0  0  0  0  0  0
   41.7200   36.0040   41.3740 C   0  0  0  0  0  0  0  0  0  0  0  0
   40.5220   35.5160   40.9560 N   0  0  0  0  0  0  0  0  0  0  0  0
   41.7330   37.3920   41.6860 N   0  0  0  0  0  0  0  0  0  0  0  0
   36.6880   31.2740   39.6620 C   0  0  0  0  0  0  0  0  0  0  0  0
   36.1780   30.6200   40.7750 C   0  0  0  0  0  0  0  0  0  0  0  0
   35.5860   29.3680   40.5940 C   0  0  0  0  0  0  0  0  0  0  0  0
   35.5440   28.8570   39.3210 N   0  0  0  0  0  0  0  0  0  0  0  0
   36.0490   29.5230   38.2870 C   0  0  0  0  0  0  0  0  0  0  0  0
   36.6260   30.7290   38.4210 N   0  0  0  0  0  0  0  0  0  0  0  0
   35.9210   28.8250   36.9740 C   0  0  0  0  0  0  0  0  0  0  0  0
   36.5120   29.6950   35.8610 C   0  0  0  0  0  0  0  0  0  0  0  0
   36.0611   34.1913   39.0212 H   0  0  0  0  0  0  0  0  0  0  0  0
   41.4320   32.2807   40.4678 H   0  0  0  0  0  0  0  0  0  0  0  0
   43.5806   33.2719   41.2448 H   0  0  0  0  0  0  0  0  0  0  0  0
   40.8725   37.9498   41.5889 H   0  0  0  0  0  0  0  0  0  0  0  0
   42.6029   37.8391   42.0090 H   0  0  0  0  0  0  0  0  0  0  0  0
   36.2385   31.0761   41.7741 H   0  0  0  0  0  0  0  0  0  0  0  0
   35.1670   28.8097   41.4442 H   0  0  0  0  0  0  0  0  0  0  0  0
   36.4623   27.8683   37.0153 H   0  0  0  0  0  0  0  0  0  0  0  0
   34.8570   28.6417   36.7637 H   0  0  0  0  0  0  0  0  0  0  0  0
   37.0771   30.5268   36.3068 H   0  0  0  0  0  0  0  0  0  0  0  0
   37.1847   29.0869   35.2383 H   0  0  0  0  0  0  0  0  0  0  0  0
   35.6988   30.0962   35.2383 H   0  0  0  0  0  0  0  0  0  0  0  0
  1  5  1  0
  2  3  2  0
  2  1  1  0
  3  4  1  0
  4  6  1  0
  5  4  2  0
  6  7  2  0
  6 11  1  0
  7  8  1  0
  8  9  2  0
 10  9  1  0
 10 12  1  0
 11 10  2  0
 13  1  1  0
 13 14  2  0
 15 14  1  0
 16 15  2  0
 17 18  2  0
 17 16  1  0
 18 13  1  0
 19 17  1  0
 20 19  1  0
  2 21  1  0
  7 22  1  0
  8 23  1  0
 12 24  1  0
 12 25  1  0
 14 26  1  0
 15 27  1  0
 19 28  1  0
 19 29  1  0
 20 30  1  0
 20 31  1  0
 20 32  1  0
M  ISO  8  21  14  22  14  23  14  26  14  27  14  28   8  29   8  30   8
M  ISO  2  31   8  32   8
M  END
>  <minimizedAffinity>  (1) 
-5.12717533

>  <minimizedRMSD>  (1) 
1.04257739

$$$$
