
     RDKit          3D

 27 29  0  0  0  0  0  0  0  0999 V2000
   38.8870   29.8830   42.6560 C   0  0  0  0  0  0  0  0  0  0  0  0
   38.5710   28.5320   42.5130 C   0  0  0  0  0  0  0  0  0  0  0  0
   37.8370   28.1230   41.3840 C   0  0  0  0  0  0  0  0  0  0  0  0
   37.5200   29.1180   40.5480 N   0  0  0  0  0  0  0  0  0  0  0  0
   37.8110   30.3960   40.6660 C   0  0  0  0  0  0  0  0  0  0  0  0
   38.5070   30.7950   41.7350 N   0  0  0  0  0  0  0  0  0  0  0  0
   37.5720   26.7080   41.3510 C   0  0  0  0  0  0  0  0  0  0  0  0
   37.9650   25.8850   42.3360 N   0  0  0  0  0  0  0  0  0  0  0  0
   37.7430   24.5680   42.3510 C   0  0  0  0  0  0  0  0  0  0  0  0
   37.0850   23.9380   41.3480 N   0  0  0  0  0  0  0  0  0  0  0  0
   36.6390   24.6830   40.2930 C   0  0  0  0  0  0  0  0  0  0  0  0
   35.9690   24.0800   39.2590 C   0  0  0  0  0  0  0  0  0  0  0  0
   35.5150   24.8220   38.1900 C   0  0  0  0  0  0  0  0  0  0  0  0
   35.7620   26.1770   38.2070 C   0  0  0  0  0  0  0  0  0  0  0  0
   36.4380   26.7260   39.2680 C   0  0  0  0  0  0  0  0  0  0  0  0
   36.9090   26.0300   40.3560 C   0  0  0  0  0  0  0  0  0  0  0  0
   37.2830   31.1890   39.5270 C   0  0  0  0  0  0  0  0  0  0  0  0
   38.2970   31.4680   38.6110 F   0  0  0  0  0  0  0  0  0  0  0  0
   36.8330   32.4150   40.0160 F   0  0  0  0  0  0  0  0  0  0  0  0
   36.2220   30.5750   38.9200 F   0  0  0  0  0  0  0  0  0  0  0  0
   39.4574   30.2125   43.5369 H   0  0  0  0  0  0  0  0  0  0  0  0
   38.8898   27.7994   43.2691 H   0  0  0  0  0  0  0  0  0  0  0  0
   38.1057   23.9763   43.2044 H   0  0  0  0  0  0  0  0  0  0  0  0
   35.7925   22.9945   39.2833 H   0  0  0  0  0  0  0  0  0  0  0  0
   34.9760   24.3502   37.3552 H   0  0  0  0  0  0  0  0  0  0  0  0
   35.4205   26.8136   37.3775 H   0  0  0  0  0  0  0  0  0  0  0  0
   36.6175   27.8110   39.2459 H   0  0  0  0  0  0  0  0  0  0  0  0
  2  1  2  0
  3  2  1  0
  4  5  1  0
  4  3  2  0
  5  6  2  0
  6  1  1  0
  7  3  1  0
  7  8  2  0
  8  9  1  0
 10  9  2  0
 11 16  2  0
 11 10  1  0
 12 11  1  0
 13 14  1  0
 13 12  2  0
 14 15  2  0
 15 16  1  0
 16  7  1  0
 17 19  1  0
 17  5  1  0
 18 17  1  0
 20 17  1  0
  1 21  1  0
  2 22  1  0
  9 23  1  0
 12 24  1  0
 13 25  1  0
 14 26  1  0
 15 27  1  0
M  ISO  7  21  14  22  14  23  14  24  14  25  14  26  14  27  14
M  END
>  <minimizedAffinity>  (1) 
-4.92195988

>  <minimizedRMSD>  (1) 
3.04778647

$$$$
