
     RDKit          3D

 20 21  0  0  0  0  0  0  0  0999 V2000
   40.2030   31.4720   41.9100 C   0  0  0  0  0  0  0  0  0  0  0  0
   39.5670   30.4160   42.5960 C   0  0  0  0  0  0  0  0  0  0  0  0
   38.2750   30.0730   42.2150 C   0  0  0  0  0  0  0  0  0  0  0  0
   37.6750   30.7500   41.2140 N   0  0  0  0  0  0  0  0  0  0  0  0
   38.3080   31.7590   40.5720 C   0  0  0  0  0  0  0  0  0  0  0  0
   39.5590   32.1140   40.9210 N   0  0  0  0  0  0  0  0  0  0  0  0
   37.5540   28.9750   42.8940 C   0  0  0  0  0  0  0  0  0  0  0  0
   37.2160   27.7860   42.2830 C   0  0  0  0  0  0  0  0  0  0  0  0
   36.5870   27.0760   43.2130 N   0  0  0  0  0  0  0  0  0  0  0  0
   36.5590   27.8280   44.3310 C   0  0  0  0  0  0  0  0  0  0  0  0
   37.1600   29.0330   44.1670 N   0  0  0  0  0  0  0  0  0  0  0  0
   37.4740   32.3650   39.5120 C   0  0  0  0  0  0  0  0  0  0  0  0
   38.1280   32.3590   38.2830 F   0  0  0  0  0  0  0  0  0  0  0  0
   37.1190   33.6500   39.8410 F   0  0  0  0  0  0  0  0  0  0  0  0
   36.2800   31.6560   39.3900 F   0  0  0  0  0  0  0  0  0  0  0  0
   41.2257   31.7696   42.1847 H   0  0  0  0  0  0  0  0  0  0  0  0
   40.0787   29.8797   43.4087 H   0  0  0  0  0  0  0  0  0  0  0  0
   37.4234   27.4882   41.2446 H   0  0  0  0  0  0  0  0  0  0  0  0
   36.0985   27.5001   45.2746 H   0  0  0  0  0  0  0  0  0  0  0  0
   37.2808   29.7954   44.8490 H   0  0  0  0  0  0  0  0  0  0  0  0
  1  2  2  0
  3  2  1  0
  3  7  1  0
  4  3  2  0
  5  6  2  0
  5  4  1  0
  6  1  1  0
  7 11  1  0
  8  7  2  0
  8  9  1  0
  9 10  2  0
 11 10  1  0
 12 14  1  0
 12  5  1  0
 13 12  1  0
 15 12  1  0
  1 16  1  0
  2 17  1  0
  8 18  1  0
 10 19  1  0
 11 20  1  0
M  ISO  5  16  14  17  14  18  14  19  14  20   9
M  END
>  <minimizedAffinity>  (1) 
-4.77722025

>  <minimizedRMSD>  (1) 
3.31530118

$$$$
