
     RDKit          3D

 27 29  0  0  0  0  0  0  0  0999 V2000
   39.9790   29.9360   42.5330 C   0  0  0  0  0  0  0  0  0  0  0  0
   39.5590   28.5990   42.5740 C   0  0  0  0  0  0  0  0  0  0  0  0
   38.3510   28.2610   41.9700 C   0  0  0  0  0  0  0  0  0  0  0  0
   37.6390   29.2480   41.3670 N   0  0  0  0  0  0  0  0  0  0  0  0
   38.0620   30.5280   41.3400 C   0  0  0  0  0  0  0  0  0  0  0  0
   39.2240   30.8620   41.9200 N   0  0  0  0  0  0  0  0  0  0  0  0
   37.8770   26.8690   41.9920 C   0  0  0  0  0  0  0  0  0  0  0  0
   36.8580   26.4010   42.7950 C   0  0  0  0  0  0  0  0  0  0  0  0
   36.7610   25.0930   42.4910 N   0  0  0  0  0  0  0  0  0  0  0  0
   37.6700   24.7490   41.5460 C   0  0  0  0  0  0  0  0  0  0  0  0
   37.8740   23.4880   40.9770 C   0  0  0  0  0  0  0  0  0  0  0  0
   38.8660   23.4100   40.0330 C   0  0  0  0  0  0  0  0  0  0  0  0
   39.6230   24.5170   39.6640 C   0  0  0  0  0  0  0  0  0  0  0  0
   39.3970   25.7590   40.2460 C   0  0  0  0  0  0  0  0  0  0  0  0
   38.4080   25.8750   41.2000 C   0  0  0  0  0  0  0  0  0  0  0  0
   37.0980   31.3910   40.6240 C   0  0  0  0  0  0  0  0  0  0  0  0
   37.0360   31.0430   39.2720 F   0  0  0  0  0  0  0  0  0  0  0  0
   37.5060   32.7130   40.7160 F   0  0  0  0  0  0  0  0  0  0  0  0
   35.8460   31.3340   41.2000 F   0  0  0  0  0  0  0  0  0  0  0  0
   40.9294   30.2272   43.0042 H   0  0  0  0  0  0  0  0  0  0  0  0
   40.1710   27.8332   43.0729 H   0  0  0  0  0  0  0  0  0  0  0  0
   36.2586   26.9693   43.5214 H   0  0  0  0  0  0  0  0  0  0  0  0
   36.0872   24.4418   42.9186 H   0  0  0  0  0  0  0  0  0  0  0  0
   37.2756   22.6123   41.2686 H   0  0  0  0  0  0  0  0  0  0  0  0
   39.0693   22.4415   39.5526 H   0  0  0  0  0  0  0  0  0  0  0  0
   40.4096   24.4084   38.9028 H   0  0  0  0  0  0  0  0  0  0  0  0
   39.9960   26.6332   39.9510 H   0  0  0  0  0  0  0  0  0  0  0  0
  1  2  2  0
  3  7  1  0
  3  2  1  0
  4  3  2  0
  5  4  1  0
  5  6  2  0
  6  1  1  0
  7  8  2  0
  9  8  1  0
 10  9  1  0
 11 10  2  0
 12 11  1  0
 13 12  2  0
 13 14  1  0
 14 15  2  0
 15 10  1  0
 15  7  1  0
 16 18  1  0
 16 19  1  0
 16  5  1  0
 17 16  1  0
  1 20  1  0
  2 21  1  0
  8 22  1  0
  9 23  1  0
 11 24  1  0
 12 25  1  0
 13 26  1  0
 14 27  1  0
M  ISO  8  20  14  21  14  22  14  23   9  24  14  25  14  26  14  27  14
M  END
>  <minimizedAffinity>  (1) 
-4.6905818

>  <minimizedRMSD>  (1) 
2.87041783

$$$$
