
     RDKit          3D

 20 21  0  0  0  0  0  0  0  0999 V2000
   38.0440   28.7420   43.4330 C   0  0  0  0  0  0  0  0  0  0  0  0
   38.1970   27.3740   43.2140 C   0  0  0  0  0  0  0  0  0  0  0  0
   37.5440   26.8100   42.1070 C   0  0  0  0  0  0  0  0  0  0  0  0
   36.8000   27.6240   41.3090 N   0  0  0  0  0  0  0  0  0  0  0  0
   36.6750   28.9370   41.5500 C   0  0  0  0  0  0  0  0  0  0  0  0
   37.2940   29.4890   42.6050 N   0  0  0  0  0  0  0  0  0  0  0  0
   37.6470   25.3670   41.7940 C   0  0  0  0  0  0  0  0  0  0  0  0
   36.8770   24.7700   40.8220 C   0  0  0  0  0  0  0  0  0  0  0  0
   37.2710   23.4380   40.8400 C   0  0  0  0  0  0  0  0  0  0  0  0
   38.2290   23.2640   41.7800 N   0  0  0  0  0  0  0  0  0  0  0  0
   38.4550   24.4520   42.3600 N   0  0  0  0  0  0  0  0  0  0  0  0
   35.8110   29.6130   40.5390 C   0  0  0  0  0  0  0  0  0  0  0  0
   35.7360   30.9660   40.7810 F   0  0  0  0  0  0  0  0  0  0  0  0
   34.5460   29.0510   40.5780 F   0  0  0  0  0  0  0  0  0  0  0  0
   36.3150   29.3680   39.2640 F   0  0  0  0  0  0  0  0  0  0  0  0
   38.5421   29.2149   44.2922 H   0  0  0  0  0  0  0  0  0  0  0  0
   38.8098   26.7563   43.8871 H   0  0  0  0  0  0  0  0  0  0  0  0
   36.1207   25.2410   40.1769 H   0  0  0  0  0  0  0  0  0  0  0  0
   36.8670   22.6472   40.1908 H   0  0  0  0  0  0  0  0  0  0  0  0
   38.7005   22.3774   42.0091 H   0  0  0  0  0  0  0  0  0  0  0  0
  2  1  2  0
  3  2  1  0
  4  5  1  0
  4  3  2  0
  5  6  2  0
  6  1  1  0
  7  3  1  0
  7 11  2  0
  8  9  2  0
  8  7  1  0
  9 10  1  0
 10 11  1  0
 12 14  1  0
 12 13  1  0
 12  5  1  0
 15 12  1  0
  1 16  1  0
  2 17  1  0
  8 18  1  0
  9 19  1  0
 10 20  1  0
M  ISO  5  16  14  17  14  18  14  19  14  20   9
M  END
>  <minimizedAffinity>  (1) 
-4.68592787

>  <minimizedRMSD>  (1) 
2.15372634

$$$$
