
     RDKit          3D

 18 19  0  0  0  0  0  0  0  0999 V2000
   38.6420   29.7040   42.6610 C   0  0  0  0  0  0  0  0  0  0  0  0
   39.5100   30.6880   42.1390 C   0  0  0  0  0  0  0  0  0  0  0  0
   38.9840   31.6120   41.2530 C   0  0  0  0  0  0  0  0  0  0  0  0
   37.6620   31.5390   40.9190 N   0  0  0  0  0  0  0  0  0  0  0  0
   36.8620   30.5780   41.4420 C   0  0  0  0  0  0  0  0  0  0  0  0
   37.3400   29.6580   42.3110 N   0  0  0  0  0  0  0  0  0  0  0  0
   35.4850   30.5710   41.0390 N   0  0  0  0  0  0  0  0  0  0  0  0
   39.8130   32.6250   40.6980 N   0  0  0  0  0  0  0  0  0  0  0  0
   39.4420   33.5500   39.8210 C   0  0  0  0  0  0  0  0  0  0  0  0
   40.5030   34.3320   39.5290 N   0  0  0  0  0  0  0  0  0  0  0  0
   41.5520   33.8740   40.2460 C   0  0  0  0  0  0  0  0  0  0  0  0
   41.0950   32.8120   40.9640 N   0  0  0  0  0  0  0  0  0  0  0  0
   39.0359   28.9591   43.3681 H   0  0  0  0  0  0  0  0  0  0  0  0
   40.5710   30.7191   42.4276 H   0  0  0  0  0  0  0  0  0  0  0  0
   34.8426   29.8578   41.4127 H   0  0  0  0  0  0  0  0  0  0  0  0
   35.1388   31.2792   40.3760 H   0  0  0  0  0  0  0  0  0  0  0  0
   38.4320   33.6614   39.3998 H   0  0  0  0  0  0  0  0  0  0  0  0
   42.5745   34.2796   40.2490 H   0  0  0  0  0  0  0  0  0  0  0  0
  2  1  2  0
  3  2  1  0
  4  3  2  0
  4  5  1  0
  5  6  2  0
  6  1  1  0
  7  5  1  0
  8 12  1  0
  8  3  1  0
  9  8  1  0
 10  9  2  0
 10 11  1  0
 11 12  2  0
  1 13  1  0
  2 14  1  0
  7 15  1  0
  7 16  1  0
  9 17  1  0
 11 18  1  0
M  ISO  4  13  14  14  14  17  14  18  14
M  END
>  <minimizedAffinity>  (1) 
-4.20243168

>  <minimizedRMSD>  (1) 
6.94460964

$$$$
