
     RDKit          3D

 18 19  0  0  0  0  0  0  0  0999 V2000
   40.1130   31.4360   41.9700 C   0  0  0  0  0  0  0  0  0  0  0  0
   39.4520   30.3530   42.5820 C   0  0  0  0  0  0  0  0  0  0  0  0
   38.1900   30.0220   42.1060 C   0  0  0  0  0  0  0  0  0  0  0  0
   37.6450   30.7380   41.0880 N   0  0  0  0  0  0  0  0  0  0  0  0
   38.3080   31.7650   40.5300 C   0  0  0  0  0  0  0  0  0  0  0  0
   39.5300   32.1100   40.9680 N   0  0  0  0  0  0  0  0  0  0  0  0
   37.5020   28.9010   42.7380 C   0  0  0  0  0  0  0  0  0  0  0  0
   37.4650   28.7570   44.0760 N   0  0  0  0  0  0  0  0  0  0  0  0
   36.7820   27.6660   44.3500 O   0  0  0  0  0  0  0  0  0  0  0  0
   36.3830   27.1090   43.2090 C   0  0  0  0  0  0  0  0  0  0  0  0
   36.8360   27.8870   42.1990 N   0  0  0  0  0  0  0  0  0  0  0  0
   37.5230   32.3980   39.4430 C   0  0  0  0  0  0  0  0  0  0  0  0
   38.2430   32.4670   38.2730 F   0  0  0  0  0  0  0  0  0  0  0  0
   37.1590   33.6860   39.8210 F   0  0  0  0  0  0  0  0  0  0  0  0
   36.3290   31.7010   39.2530 F   0  0  0  0  0  0  0  0  0  0  0  0
   41.1145   31.7309   42.3165 H   0  0  0  0  0  0  0  0  0  0  0  0
   39.9175   29.7911   43.4052 H   0  0  0  0  0  0  0  0  0  0  0  0
   35.7935   26.1860   43.1061 H   0  0  0  0  0  0  0  0  0  0  0  0
  1  2  2  0
  3  2  1  0
  3  7  1  0
  4  3  2  0
  5  6  2  0
  5  4  1  0
  6  1  1  0
  7  8  2  0
  8  9  1  0
 10  9  1  0
 11  7  1  0
 11 10  2  0
 12 14  1  0
 12  5  1  0
 13 12  1  0
 15 12  1  0
  1 16  1  0
  2 17  1  0
 10 18  1  0
M  ISO  3  16  14  17  14  18  14
M  END
>  <minimizedAffinity>  (1) 
-4.26063251

>  <minimizedRMSD>  (1) 
3.33411145

$$$$
