
     RDKit          3D

 19 20  0  0  0  0  0  0  0  0999 V2000
   37.9850   28.2370   43.5360 C   0  0  0  0  0  0  0  0  0  0  0  0
   38.2180   26.9880   42.9590 C   0  0  0  0  0  0  0  0  0  0  0  0
   37.7110   26.7360   41.6980 C   0  0  0  0  0  0  0  0  0  0  0  0
   37.0080   27.7350   41.0950 N   0  0  0  0  0  0  0  0  0  0  0  0
   36.7940   28.9250   41.6600 C   0  0  0  0  0  0  0  0  0  0  0  0
   37.2860   29.1670   42.8810 N   0  0  0  0  0  0  0  0  0  0  0  0
   37.9110   25.4350   41.0100 C   0  0  0  0  0  0  0  0  0  0  0  0
   38.6020   25.3830   39.8310 C   0  0  0  0  0  0  0  0  0  0  0  0
   38.5990   23.6180   39.3600 S   0  0  0  0  0  0  0  0  0  0  0  0
   37.6040   23.2180   40.9320 C   0  0  0  0  0  0  0  0  0  0  0  0
   37.5040   24.2420   41.3770 N   0  0  0  0  0  0  0  0  0  0  0  0
   36.0020   29.8280   40.7860 C   0  0  0  0  0  0  0  0  0  0  0  0
   35.8940   31.0960   41.3610 F   0  0  0  0  0  0  0  0  0  0  0  0
   34.7440   29.3160   40.5930 F   0  0  0  0  0  0  0  0  0  0  0  0
   36.6000   29.9500   39.5390 F   0  0  0  0  0  0  0  0  0  0  0  0
   38.3804   28.4571   44.5386 H   0  0  0  0  0  0  0  0  0  0  0  0
   38.7933   26.2198   43.4966 H   0  0  0  0  0  0  0  0  0  0  0  0
   39.0598   26.2212   39.2853 H   0  0  0  0  0  0  0  0  0  0  0  0
   37.2309   22.2513   41.3012 H   0  0  0  0  0  0  0  0  0  0  0  0
  2  1  2  0
  3  2  1  0
  4  5  1  0
  4  3  2  0
  5  6  2  0
  6  1  1  0
  7 11  1  0
  7  3  1  0
  8  7  2  0
  9  8  1  0
  9 10  1  0
 10 11  2  0
 12 13  1  0
 12  5  1  0
 14 12  1  0
 15 12  1  0
  1 16  1  0
  2 17  1  0
  8 18  1  0
 10 19  1  0
M  ISO  4  16  14  17  14  18  14  19  14
M  END
>  <minimizedAffinity>  (1) 
-4.04579782

>  <minimizedRMSD>  (1) 
2.699929

$$$$
