
     RDKit          3D

 15 15  0  0  0  0  0  0  0  0999 V2000
   39.6780   29.4380   42.4850 C   0  0  0  0  0  0  0  0  0  0  0  0
   40.6620   28.5920   42.9960 C   0  0  0  0  0  0  0  0  0  0  0  0
   40.2450   27.3690   43.5340 C   0  0  0  0  0  0  0  0  0  0  0  0
   38.9160   27.0690   43.5330 N   0  0  0  0  0  0  0  0  0  0  0  0
   38.0090   27.9200   43.0280 C   0  0  0  0  0  0  0  0  0  0  0  0
   38.3800   29.1090   42.5010 N   0  0  0  0  0  0  0  0  0  0  0  0
   36.6320   27.3740   43.1400 C   0  0  0  0  0  0  0  0  0  0  0  0
   35.7770   28.0140   42.2660 F   0  0  0  0  0  0  0  0  0  0  0  0
   36.1580   27.5290   44.4220 F   0  0  0  0  0  0  0  0  0  0  0  0
   36.6420   25.9980   42.9060 F   0  0  0  0  0  0  0  0  0  0  0  0
   41.2390   26.4440   44.0850 C   0  0  0  0  0  0  0  0  0  0  0  0
   42.0520   26.8430   44.9270 O   0  0  0  0  0  0  0  0  0  0  0  0
   39.9774   30.4054   42.0555 H   0  0  0  0  0  0  0  0  0  0  0  0
   41.7248   28.8750   42.9770 H   0  0  0  0  0  0  0  0  0  0  0  0
   41.2619   25.3964   43.7502 H   0  0  0  0  0  0  0  0  0  0  0  0
  1  6  2  0
  1  2  1  0
  2  3  2  0
  3 11  1  0
  4  3  1  0
  5  7  1  0
  5  4  2  0
  6  5  1  0
  7  9  1  0
  8  7  1  0
 10  7  1  0
 11 12  2  0
  1 13  1  0
  2 14  1  0
 11 15  1  0
M  ISO  3  13  14  14  14  15   6
M  END
>  <minimizedAffinity>  (1) 
-3.99315977

>  <minimizedRMSD>  (1) 
3.94020009

$$$$
