
     RDKit          3D

 16 16  0  0  0  0  0  0  0  0999 V2000
   38.3410   28.6070   43.4230 C   0  0  0  0  0  0  0  0  0  0  0  0
   38.1430   27.2210   43.2800 C   0  0  0  0  0  0  0  0  0  0  0  0
   37.2540   26.7760   42.3170 C   0  0  0  0  0  0  0  0  0  0  0  0
   36.6120   27.6990   41.5500 N   0  0  0  0  0  0  0  0  0  0  0  0
   36.8190   29.0190   41.7070 C   0  0  0  0  0  0  0  0  0  0  0  0
   37.6810   29.4790   42.6400 N   0  0  0  0  0  0  0  0  0  0  0  0
   36.0000   29.8150   40.7440 C   0  0  0  0  0  0  0  0  0  0  0  0
   36.6410   29.8650   39.5070 F   0  0  0  0  0  0  0  0  0  0  0  0
   35.8470   31.0940   41.2090 F   0  0  0  0  0  0  0  0  0  0  0  0
   34.7430   29.2740   40.6160 F   0  0  0  0  0  0  0  0  0  0  0  0
   37.0270   25.3140   42.1450 C   0  0  0  0  0  0  0  0  0  0  0  0
   39.0428   28.9810   44.1830 H   0  0  0  0  0  0  0  0  0  0  0  0
   38.6829   26.5071   43.9195 H   0  0  0  0  0  0  0  0  0  0  0  0
   36.9527   24.8358   43.1328 H   0  0  0  0  0  0  0  0  0  0  0  0
   36.0928   25.1511   41.5876 H   0  0  0  0  0  0  0  0  0  0  0  0
   37.8678   24.8755   41.5876 H   0  0  0  0  0  0  0  0  0  0  0  0
  2  1  2  0
  3  2  1  0
  4  5  1  0
  4  3  2  0
  5  6  2  0
  6  1  1  0
  7  9  1  0
  7  5  1  0
  8  7  1  0
 10  7  1  0
 11  3  1  0
  1 12  1  0
  2 13  1  0
 11 14  1  0
 11 15  1  0
 11 16  1  0
M  ISO  5  12  14  13  14  14   8  15   8  16   8
M  END
>  <minimizedAffinity>  (1) 
-3.82527018

>  <minimizedRMSD>  (1) 
0.691080272

$$$$
