
     RDKit          3D

 15 15  0  0  0  0  0  0  0  0999 V2000
   38.2940   28.7710   43.3730 C   0  0  0  0  0  0  0  0  0  0  0  0
   38.1240   27.3870   43.3320 C   0  0  0  0  0  0  0  0  0  0  0  0
   37.2410   26.8650   42.3850 C   0  0  0  0  0  0  0  0  0  0  0  0
   36.5980   27.7290   41.5580 N   0  0  0  0  0  0  0  0  0  0  0  0
   36.7850   29.0590   41.6250 C   0  0  0  0  0  0  0  0  0  0  0  0
   37.6340   29.5770   42.5340 N   0  0  0  0  0  0  0  0  0  0  0  0
   37.0410   25.4470   42.3150 N   0  0  0  0  0  0  0  0  0  0  0  0
   35.9700   29.7770   40.6180 C   0  0  0  0  0  0  0  0  0  0  0  0
   36.5450   29.7190   39.3680 F   0  0  0  0  0  0  0  0  0  0  0  0
   35.8160   31.1000   41.0010 F   0  0  0  0  0  0  0  0  0  0  0  0
   34.6810   29.2540   40.5710 F   0  0  0  0  0  0  0  0  0  0  0  0
   38.9842   29.2080   44.1096 H   0  0  0  0  0  0  0  0  0  0  0  0
   38.6685   26.7278   44.0240 H   0  0  0  0  0  0  0  0  0  0  0  0
   36.3916   25.0522   41.6198 H   0  0  0  0  0  0  0  0  0  0  0  0
   37.5467   24.8231   42.9599 H   0  0  0  0  0  0  0  0  0  0  0  0
  2  1  2  0
  3  2  1  0
  4  5  1  0
  4  3  2  0
  5  6  2  0
  6  1  1  0
  7  3  1  0
  8 10  1  0
  8  5  1  0
  9  8  1  0
 11  8  1  0
  1 12  1  0
  2 13  1  0
  7 14  1  0
  7 15  1  0
M  ISO  2  12  14  13  14
M  END
>  <minimizedAffinity>  (1) 
-3.6750381

>  <minimizedRMSD>  (1) 
0.580094516

$$$$
