
     RDKit          3D

 14 14  0  0  0  0  0  0  0  0999 V2000
   39.6110   30.0920   42.5510 C   0  0  0  0  0  0  0  0  0  0  0  0
   38.8970   29.0290   43.1010 C   0  0  0  0  0  0  0  0  0  0  0  0
   37.5980   28.7940   42.6550 C   0  0  0  0  0  0  0  0  0  0  0  0
   37.0880   29.6160   41.7030 N   0  0  0  0  0  0  0  0  0  0  0  0
   37.7920   30.6300   41.1900 C   0  0  0  0  0  0  0  0  0  0  0  0
   39.0580   30.8800   41.6060 N   0  0  0  0  0  0  0  0  0  0  0  0
   37.0290   31.3960   40.1600 C   0  0  0  0  0  0  0  0  0  0  0  0
   37.5530   31.1620   38.8930 F   0  0  0  0  0  0  0  0  0  0  0  0
   37.0670   32.7400   40.4370 F   0  0  0  0  0  0  0  0  0  0  0  0
   35.6960   31.0210   40.1890 F   0  0  0  0  0  0  0  0  0  0  0  0
   36.6610   27.4360   43.3450 S   0  0  0  0  0  0  0  0  0  0  0  0
   40.6379   30.2909   42.8916 H   0  0  0  0  0  0  0  0  0  0  0  0
   39.3499   28.3882   43.8719 H   0  0  0  0  0  0  0  0  0  0  0  0
   36.7048   27.4994   44.7128 H   0  0  0  0  0  0  0  0  0  0  0  0
  1  2  2  0
  3  2  1  0
  3 11  1  0
  4  3  2  0
  5  6  2  0
  5  4  1  0
  6  1  1  0
  7 10  1  0
  7  9  1  0
  7  5  1  0
  8  7  1  0
  1 12  1  0
  2 13  1  0
 11 14  1  0
M  ISO  3  12  14  13  14  14  11
M  END
>  <minimizedAffinity>  (1) 
-3.34855199

>  <minimizedRMSD>  (1) 
1.90468574

$$$$
