
     RDKit          3D

 26 27  0  0  0  0  0  0  0  0999 V2000
   40.7640   32.6780   40.5410 C   0  0  0  0  0  0  0  0  0  0  0  0
   40.6550   31.7230   41.5400 C   0  0  0  0  0  0  0  0  0  0  0  0
   39.4310   31.0800   41.7070 C   0  0  0  0  0  0  0  0  0  0  0  0
   38.4010   31.4170   40.8840 N   0  0  0  0  0  0  0  0  0  0  0  0
   38.5430   32.3480   39.9260 C   0  0  0  0  0  0  0  0  0  0  0  0
   39.7260   32.9950   39.7380 N   0  0  0  0  0  0  0  0  0  0  0  0
   37.2810   32.5490   39.1520 C   0  0  0  0  0  0  0  0  0  0  0  0
   37.5050   32.2870   37.8100 F   0  0  0  0  0  0  0  0  0  0  0  0
   36.8240   33.8250   39.2880 F   0  0  0  0  0  0  0  0  0  0  0  0
   36.2900   31.7250   39.6390 F   0  0  0  0  0  0  0  0  0  0  0  0
   39.2720   30.0490   42.7650 C   0  0  0  0  0  0  0  0  0  0  0  0
   37.9100   29.4010   42.7330 C   0  0  0  0  0  0  0  0  0  0  0  0
   37.8480   28.1540   43.5750 C   0  0  0  0  0  0  0  0  0  0  0  0
   36.7540   28.0790   44.6650 C   0  0  0  0  0  0  0  0  0  0  0  0
   36.5640   27.3730   43.3900 C   0  0  0  0  0  0  0  0  0  0  0  0
   41.7254   33.1931   40.3983 H   0  0  0  0  0  0  0  0  0  0  0  0
   41.5129   31.4795   42.1840 H   0  0  0  0  0  0  0  0  0  0  0  0
   40.0369   29.2720   42.6195 H   0  0  0  0  0  0  0  0  0  0  0  0
   39.3851   30.5466   43.7395 H   0  0  0  0  0  0  0  0  0  0  0  0
   37.1678   30.1197   43.1108 H   0  0  0  0  0  0  0  0  0  0  0  0
   37.6994   29.1139   41.6922 H   0  0  0  0  0  0  0  0  0  0  0  0
   38.9316   27.9653   43.5581 H   0  0  0  0  0  0  0  0  0  0  0  0
   36.9357   27.5080   45.5874 H   0  0  0  0  0  0  0  0  0  0  0  0
   36.1751   28.8195   45.2364 H   0  0  0  0  0  0  0  0  0  0  0  0
   35.8072   27.7327   42.6774 H   0  0  0  0  0  0  0  0  0  0  0  0
   36.3362   26.3310   43.1208 H   0  0  0  0  0  0  0  0  0  0  0  0
  1  2  2  0
  2  3  1  0
  3 11  1  0
  4  3  2  0
  5  4  1  0
  6  5  2  0
  6  1  1  0
  7  9  1  0
  7 10  1  0
  7  5  1  0
  8  7  1  0
 12 11  1  0
 12 13  1  0
 13 14  1  0
 15 13  1  0
 15 14  1  0
  1 16  1  0
  2 17  1  0
 11 18  1  0
 11 19  1  0
 12 20  1  0
 12 21  1  0
 13 22  1  0
 14 23  1  0
 14 24  1  0
 15 25  1  0
 15 26  1  0
M  ISO  8  16  14  17  14  18   8  19   8  20   8  21   8  22  13  23  13
M  ISO  3  24  13  25  13  26  13
M  END
>  <minimizedAffinity>  (1) 
-4.78144169

>  <minimizedRMSD>  (1) 
2.89709449

$$$$
