
     RDKit          3D

 31 32  0  0  0  0  0  0  0  0999 V2000
   35.2560   29.6080   40.1940 C   0  0  0  0  0  0  0  0  0  0  0  0
   37.3710   30.7410   37.3420 C   0  0  0  0  0  0  0  0  0  0  0  0
   36.4680   30.0090   38.1070 C   0  0  0  0  0  0  0  0  0  0  0  0
   36.2120   30.3950   39.4140 C   0  0  0  0  0  0  0  0  0  0  0  0
   36.8560   31.4820   39.9010 N   0  0  0  0  0  0  0  0  0  0  0  0
   37.7290   32.1840   39.1480 C   0  0  0  0  0  0  0  0  0  0  0  0
   38.0000   31.8280   37.8630 N   0  0  0  0  0  0  0  0  0  0  0  0
   38.3020   33.3380   39.9030 C   0  0  0  0  0  0  0  0  0  0  0  0
   39.5550   33.6670   39.3650 F   0  0  0  0  0  0  0  0  0  0  0  0
   38.4570   33.0200   41.2220 F   0  0  0  0  0  0  0  0  0  0  0  0
   37.4650   34.4260   39.8350 F   0  0  0  0  0  0  0  0  0  0  0  0
   35.8370   28.6650   41.1690 C   0  0  0  0  0  0  0  0  0  0  0  0
   36.6450   29.3160   42.2000 N   0  0  0  0  0  0  0  0  0  0  0  0
   37.8770   28.7440   42.6210 C   0  0  0  0  0  0  0  0  0  0  0  0
   39.0470   29.4070   42.3100 C   0  0  0  0  0  0  0  0  0  0  0  0
   40.2450   28.8820   42.7000 C   0  0  0  0  0  0  0  0  0  0  0  0
   40.2210   27.6750   43.4080 C   0  0  0  0  0  0  0  0  0  0  0  0
   39.0440   27.0090   43.7200 C   0  0  0  0  0  0  0  0  0  0  0  0
   37.8340   27.5540   43.3170 C   0  0  0  0  0  0  0  0  0  0  0  0
   34.6432   29.0276   39.4886 H   0  0  0  0  0  0  0  0  0  0  0  0
   34.6877   30.3376   40.7897 H   0  0  0  0  0  0  0  0  0  0  0  0
   37.5780   30.4371   36.3053 H   0  0  0  0  0  0  0  0  0  0  0  0
   35.9615   29.1316   37.6785 H   0  0  0  0  0  0  0  0  0  0  0  0
   35.0160   28.1228   41.6608 H   0  0  0  0  0  0  0  0  0  0  0  0
   36.5052   27.9929   40.6106 H   0  0  0  0  0  0  0  0  0  0  0  0
   36.3189   30.1960   42.6246 H   0  0  0  0  0  0  0  0  0  0  0  0
   39.0141   30.3536   41.7507 H   0  0  0  0  0  0  0  0  0  0  0  0
   41.1933   29.3883   42.4667 H   0  0  0  0  0  0  0  0  0  0  0  0
   41.1761   27.2352   43.7311 H   0  0  0  0  0  0  0  0  0  0  0  0
   39.0705   26.0621   44.2791 H   0  0  0  0  0  0  0  0  0  0  0  0
   36.8789   27.0574   43.5432 H   0  0  0  0  0  0  0  0  0  0  0  0
  1 12  1  0
  2  7  2  0
  2  3  1  0
  3  4  2  0
  4  5  1  0
  4  1  1  0
  6  5  2  0
  6  8  1  0
  7  6  1  0
  8 10  1  0
  9  8  1  0
 11  8  1  0
 12 13  1  0
 13 14  1  0
 14 19  1  0
 15 14  2  0
 15 16  1  0
 16 17  2  0
 17 18  1  0
 19 18  2  0
  1 20  1  0
  1 21  1  0
  2 22  1  0
  3 23  1  0
 12 24  1  0
 12 25  1  0
 13 26  1  0
 15 27  1  0
 16 28  1  0
 17 29  1  0
 18 30  1  0
 19 31  1  0
M  ISO  8  20   8  21   8  22  14  23  14  24   8  25   8  27  14  28  14
M  ISO  3  29  14  30  14  31  14
M  END
>  <minimizedAffinity>  (1) 
-5.24245787

>  <minimizedRMSD>  (1) 
4.13419104

$$$$
