
     RDKit          3D

 33 33  0  0  0  0  0  0  0  0999 V2000
   40.5680   31.5990   40.6480 C   0  0  0  0  0  0  0  0  0  0  0  0
   39.3400   30.9780   40.7780 C   0  0  0  0  0  0  0  0  0  0  0  0
   38.1910   31.7520   40.7320 C   0  0  0  0  0  0  0  0  0  0  0  0
   38.3050   33.0890   40.5600 N   0  0  0  0  0  0  0  0  0  0  0  0
   39.5060   33.6820   40.4340 C   0  0  0  0  0  0  0  0  0  0  0  0
   40.6560   32.9500   40.4770 N   0  0  0  0  0  0  0  0  0  0  0  0
   39.4000   35.1460   40.2500 C   0  0  0  0  0  0  0  0  0  0  0  0
   40.3770   35.5900   39.3470 F   0  0  0  0  0  0  0  0  0  0  0  0
   39.5380   35.8040   41.4370 F   0  0  0  0  0  0  0  0  0  0  0  0
   38.1590   35.4750   39.7600 F   0  0  0  0  0  0  0  0  0  0  0  0
   36.8890   31.0800   40.8790 C   0  0  0  0  0  0  0  0  0  0  0  0
   36.9340   29.6950   41.3810 C   0  0  0  0  0  0  0  0  0  0  0  0
   36.8400   29.6130   42.8400 N   0  0  0  0  0  0  0  0  0  0  0  0
   37.2960   28.2820   43.1960 C   0  0  0  0  0  0  0  0  0  0  0  0
   38.8080   28.1980   43.2430 C   0  0  0  0  0  0  0  0  0  0  0  0
   36.7860   27.9240   44.5980 C   0  0  0  0  0  0  0  0  0  0  0  0
   36.8190   27.2220   42.2410 C   0  0  0  0  0  0  0  0  0  0  0  0
   41.4872   30.9958   40.6829 H   0  0  0  0  0  0  0  0  0  0  0  0
   39.2757   29.8885   40.9156 H   0  0  0  0  0  0  0  0  0  0  0  0
   36.2806   31.6726   41.5781 H   0  0  0  0  0  0  0  0  0  0  0  0
   36.4701   31.0159   39.8639 H   0  0  0  0  0  0  0  0  0  0  0  0
   36.0938   29.1359   40.9434 H   0  0  0  0  0  0  0  0  0  0  0  0
   37.9057   29.2701   41.0890 H   0  0  0  0  0  0  0  0  0  0  0  0
   37.4405   30.3261   43.2780 H   0  0  0  0  0  0  0  0  0  0  0  0
   39.1418   28.1795   44.2910 H   0  0  0  0  0  0  0  0  0  0  0  0
   39.1402   27.2800   42.7361 H   0  0  0  0  0  0  0  0  0  0  0  0
   39.2398   29.0735   42.7361 H   0  0  0  0  0  0  0  0  0  0  0  0
   37.4398   28.3829   45.3543 H   0  0  0  0  0  0  0  0  0  0  0  0
   35.7603   28.3013   44.7225 H   0  0  0  0  0  0  0  0  0  0  0  0
   36.7923   26.8311   44.7225 H   0  0  0  0  0  0  0  0  0  0  0  0
   36.4326   26.3633   42.8096 H   0  0  0  0  0  0  0  0  0  0  0  0
   36.0188   27.6324   41.6076 H   0  0  0  0  0  0  0  0  0  0  0  0
   37.6569   26.8953   41.6076 H   0  0  0  0  0  0  0  0  0  0  0  0
  1  2  2  0
  3  2  1  0
  3 11  1  0
  4  3  2  0
  5  6  2  0
  5  4  1  0
  6  1  1  0
  7  5  1  0
  7  9  1  0
  8  7  1  0
 10  7  1  0
 11 12  1  0
 12 13  1  0
 13 14  1  0
 14 15  1  0
 14 16  1  0
 17 14  1  0
  1 18  1  0
  2 19  1  0
 11 20  1  0
 11 21  1  0
 12 22  1  0
 12 23  1  0
 13 24  1  0
 15 25  1  0
 15 26  1  0
 15 27  1  0
 16 28  1  0
 16 29  1  0
 16 30  1  0
 17 31  1  0
 17 32  1  0
 17 33  1  0
M  ISO  8  18  14  19  14  20   8  21   8  22   8  23   8  24   5  25   8
M  ISO  8  26   8  27   8  28   8  29   8  30   8  31   8  32   8  33   8
M  END
>  <minimizedAffinity>  (1) 
-5.14781952

>  <minimizedRMSD>  (1) 
3.09889126

$$$$
