
     RDKit          3D

 18 19  0  0  0  0  0  0  0  0999 V2000
   40.1980   32.6740   40.8020 C   0  0  0  0  0  0  0  0  0  0  0  0
   39.7880   31.4570   41.3790 C   0  0  0  0  0  0  0  0  0  0  0  0
   38.4570   31.1020   41.3200 C   0  0  0  0  0  0  0  0  0  0  0  0
   37.5990   31.9600   40.6970 N   0  0  0  0  0  0  0  0  0  0  0  0
   37.9930   33.1110   40.1520 C   0  0  0  0  0  0  0  0  0  0  0  0
   39.2900   33.4590   40.2090 N   0  0  0  0  0  0  0  0  0  0  0  0
   37.0170   33.9440   39.5200 N   0  0  0  0  0  0  0  0  0  0  0  0
   37.8610   29.8900   41.8600 C   0  0  0  0  0  0  0  0  0  0  0  0
   38.4350   29.4000   43.0940 C   0  0  0  0  0  0  0  0  0  0  0  0
   37.4350   27.8440   43.4920 S   0  0  0  0  0  0  0  0  0  0  0  0
   36.4360   28.1640   41.9100 C   0  0  0  0  0  0  0  0  0  0  0  0
   36.8920   29.0940   41.4950 N   0  0  0  0  0  0  0  0  0  0  0  0
   41.2548   32.9771   40.8381 H   0  0  0  0  0  0  0  0  0  0  0  0
   40.5195   30.7984   41.8701 H   0  0  0  0  0  0  0  0  0  0  0  0
   36.0301   33.6507   39.4920 H   0  0  0  0  0  0  0  0  0  0  0  0
   37.3011   34.8372   39.0929 H   0  0  0  0  0  0  0  0  0  0  0  0
   39.2652   29.8339   43.6706 H   0  0  0  0  0  0  0  0  0  0  0  0
   35.6043   27.5726   41.4995 H   0  0  0  0  0  0  0  0  0  0  0  0
  1  2  2  0
  3  2  1  0
  3  8  1  0
  4  3  2  0
  5  6  2  0
  5  4  1  0
  6  1  1  0
  7  5  1  0
  8  9  2  0
  9 10  1  0
 11 10  1  0
 12  8  1  0
 12 11  2  0
  1 13  1  0
  2 14  1  0
  7 15  1  0
  7 16  1  0
  9 17  1  0
 11 18  1  0
M  ISO  4  13  14  14  14  17  14  18  14
M  END
>  <minimizedAffinity>  (1) 
-4.00113487

>  <minimizedRMSD>  (1) 
4.37670708

$$$$
