
     RDKit          3D

 28 29  0  0  0  0  0  0  0  0999 V2000
   39.8140   29.2840   42.1170 C   0  0  0  0  0  0  0  0  0  0  0  0
   40.7650   28.5510   42.8160 C   0  0  0  0  0  0  0  0  0  0  0  0
   40.3580   27.4800   43.5950 C   0  0  0  0  0  0  0  0  0  0  0  0
   39.0340   27.1910   43.6400 N   0  0  0  0  0  0  0  0  0  0  0  0
   38.1190   27.9030   42.9620 C   0  0  0  0  0  0  0  0  0  0  0  0
   38.4910   28.9520   42.1960 N   0  0  0  0  0  0  0  0  0  0  0  0
   36.7400   27.3800   43.1690 C   0  0  0  0  0  0  0  0  0  0  0  0
   36.7210   26.0020   42.9140 F   0  0  0  0  0  0  0  0  0  0  0  0
   35.8630   28.0000   42.3290 F   0  0  0  0  0  0  0  0  0  0  0  0
   36.3260   27.6050   44.4540 F   0  0  0  0  0  0  0  0  0  0  0  0
   41.3800   26.7120   44.3200 C   0  0  0  0  0  0  0  0  0  0  0  0
   42.7650   27.2160   44.1920 C   0  0  0  0  0  0  0  0  0  0  0  0
   43.2270   27.9970   45.3330 N   0  0  0  0  0  0  0  0  0  0  0  0
   42.9590   27.3250   46.5630 C   0  0  0  0  0  0  0  0  0  0  0  0
   43.0340   28.1390   47.8440 C   0  0  0  0  0  0  0  0  0  0  0  0
   44.1240   27.1700   47.4680 C   0  0  0  0  0  0  0  0  0  0  0  0
   40.1279   30.1363   41.4965 H   0  0  0  0  0  0  0  0  0  0  0  0
   41.8301   28.8182   42.7516 H   0  0  0  0  0  0  0  0  0  0  0  0
   41.1145   26.7178   45.3875 H   0  0  0  0  0  0  0  0  0  0  0  0
   41.3807   25.7088   43.8688 H   0  0  0  0  0  0  0  0  0  0  0  0
   43.4359   26.3528   44.0710 H   0  0  0  0  0  0  0  0  0  0  0  0
   42.7757   27.8907   43.3233 H   0  0  0  0  0  0  0  0  0  0  0  0
   44.2422   28.1481   45.2474 H   0  0  0  0  0  0  0  0  0  0  0  0
   42.2022   26.6573   46.1255 H   0  0  0  0  0  0  0  0  0  0  0  0
   43.2178   29.2227   47.8013 H   0  0  0  0  0  0  0  0  0  0  0  0
   42.3837   28.2888   48.7185 H   0  0  0  0  0  0  0  0  0  0  0  0
   44.2510   26.2401   48.0417 H   0  0  0  0  0  0  0  0  0  0  0  0
   45.2141   27.2463   47.3420 H   0  0  0  0  0  0  0  0  0  0  0  0
  1  6  2  0
  1  2  1  0
  2  3  2  0
  3  4  1  0
  3 11  1  0
  5  7  1  0
  5  4  2  0
  6  5  1  0
  7 10  1  0
  8  7  1  0
  9  7  1  0
 12 11  1  0
 12 13  1  0
 13 14  1  0
 14 16  1  0
 14 15  1  0
 16 15  1  0
  1 17  1  0
  2 18  1  0
 11 19  1  0
 11 20  1  0
 12 21  1  0
 12 22  1  0
 13 23  1  0
 14 24  1  0
 15 25  1  0
 15 26  1  0
 16 27  1  0
 16 28  1  0
M  ISO  8  17  14  18  14  19   8  20   8  21   8  22   8  23   5  24  13
M  ISO  4  25  13  26  13  27  13  28  13
M  END
>  <minimizedAffinity>  (1) 
-4.46661663

>  <minimizedRMSD>  (1) 
6.05863667

$$$$
