
     RDKit          3D

 30 31  0  0  0  0  0  0  0  0999 V2000
   39.1490   31.0440   39.1540 C   0  0  0  0  0  0  0  0  0  0  0  0
   41.8000   33.1460   37.5910 C   0  0  0  0  0  0  0  0  0  0  0  0
   40.6970   32.7730   38.3340 C   0  0  0  0  0  0  0  0  0  0  0  0
   40.3340   31.4370   38.3610 C   0  0  0  0  0  0  0  0  0  0  0  0
   41.0780   30.5570   37.6560 N   0  0  0  0  0  0  0  0  0  0  0  0
   42.1470   30.9290   36.9380 C   0  0  0  0  0  0  0  0  0  0  0  0
   42.5240   32.2250   36.8930 N   0  0  0  0  0  0  0  0  0  0  0  0
   42.7990   29.7880   36.2600 C   0  0  0  0  0  0  0  0  0  0  0  0
   43.9050   29.3580   37.0100 F   0  0  0  0  0  0  0  0  0  0  0  0
   43.2160   30.1360   35.0050 F   0  0  0  0  0  0  0  0  0  0  0  0
   41.9130   28.7400   36.1140 F   0  0  0  0  0  0  0  0  0  0  0  0
   39.2100   31.3990   40.5930 C   0  0  0  0  0  0  0  0  0  0  0  0
   38.1460   30.8080   41.3970 N   0  0  0  0  0  0  0  0  0  0  0  0
   38.3030   29.6500   42.1930 C   0  0  0  0  0  0  0  0  0  0  0  0
   39.5090   29.0440   42.4140 C   0  0  0  0  0  0  0  0  0  0  0  0
   39.7060   27.8990   43.1940 C   0  0  0  0  0  0  0  0  0  0  0  0
   38.5420   27.4000   43.7510 C   0  0  0  0  0  0  0  0  0  0  0  0
   37.3250   27.9810   43.5490 C   0  0  0  0  0  0  0  0  0  0  0  0
   37.2370   29.0860   42.7790 N   0  0  0  0  0  0  0  0  0  0  0  0
   39.0336   29.9528   39.0766 H   0  0  0  0  0  0  0  0  0  0  0  0
   38.3001   31.6046   38.7355 H   0  0  0  0  0  0  0  0  0  0  0  0
   42.0995   34.2040   37.5618 H   0  0  0  0  0  0  0  0  0  0  0  0
   40.1182   33.5227   38.8934 H   0  0  0  0  0  0  0  0  0  0  0  0
   40.1760   31.0568   40.9927 H   0  0  0  0  0  0  0  0  0  0  0  0
   39.0871   32.4903   40.6564 H   0  0  0  0  0  0  0  0  0  0  0  0
   37.2220   31.2630   41.3840 H   0  0  0  0  0  0  0  0  0  0  0  0
   40.3949   29.4925   41.9408 H   0  0  0  0  0  0  0  0  0  0  0  0
   40.6931   27.4391   43.3496 H   0  0  0  0  0  0  0  0  0  0  0  0
   38.6005   26.5001   44.3809 H   0  0  0  0  0  0  0  0  0  0  0  0
   36.4226   27.5527   44.0097 H   0  0  0  0  0  0  0  0  0  0  0  0
  1 12  1  0
  2  3  2  0
  3  4  1  0
  4  1  1  0
  5  4  2  0
  6  5  1  0
  7  6  2  0
  7  2  1  0
  8  6  1  0
  8  9  1  0
 10  8  1  0
 11  8  1  0
 12 13  1  0
 13 14  1  0
 14 15  2  0
 14 19  1  0
 15 16  1  0
 16 17  2  0
 18 17  1  0
 19 18  2  0
  1 20  1  0
  1 21  1  0
  2 22  1  0
  3 23  1  0
 12 24  1  0
 12 25  1  0
 13 26  1  0
 15 27  1  0
 16 28  1  0
 17 29  1  0
 18 30  1  0
M  ISO  8  20   8  21   8  22  14  23  14  24   8  25   8  27  14  28  14
M  ISO  2  29  14  30  14
M  END
>  <minimizedAffinity>  (1) 
-4.17387438

>  <minimizedRMSD>  (1) 
5.80695391

$$$$
