
     RDKit          3D

 23 23  0  0  0  0  0  0  0  0999 V2000
   37.4390   29.8320   40.5680 C   0  0  0  0  0  0  0  0  0  0  0  0
   38.4520   30.6130   41.1090 C   0  0  0  0  0  0  0  0  0  0  0  0
   38.9590   30.2930   42.3600 C   0  0  0  0  0  0  0  0  0  0  0  0
   38.4440   29.2230   43.0100 N   0  0  0  0  0  0  0  0  0  0  0  0
   37.4600   28.4740   42.4720 C   0  0  0  0  0  0  0  0  0  0  0  0
   36.9430   28.7620   41.2520 N   0  0  0  0  0  0  0  0  0  0  0  0
   37.0680   27.3520   43.3750 C   0  0  0  0  0  0  0  0  0  0  0  0
   37.2530   26.1330   42.7060 F   0  0  0  0  0  0  0  0  0  0  0  0
   35.7550   27.4610   43.7340 F   0  0  0  0  0  0  0  0  0  0  0  0
   37.8190   27.3640   44.5140 F   0  0  0  0  0  0  0  0  0  0  0  0
   40.0220   31.1380   42.9150 C   0  0  0  0  0  0  0  0  0  0  0  0
   41.1840   31.3730   42.0240 C   0  0  0  0  0  0  0  0  0  0  0  0
   42.1890   32.2530   42.5960 N   0  0  0  0  0  0  0  0  0  0  0  0
   43.0720   33.1420   41.9330 C   0  0  0  0  0  0  0  0  0  0  0  0
   43.6780   34.0260   42.5830 O   0  0  0  0  0  0  0  0  0  0  0  0
   37.0322   30.0795   39.5764 H   0  0  0  0  0  0  0  0  0  0  0  0
   38.8477   31.4752   40.5521 H   0  0  0  0  0  0  0  0  0  0  0  0
   39.5826   32.1154   43.1632 H   0  0  0  0  0  0  0  0  0  0  0  0
   40.4156   30.5935   43.7860 H   0  0  0  0  0  0  0  0  0  0  0  0
   40.8194   31.8234   41.0890 H   0  0  0  0  0  0  0  0  0  0  0  0
   41.6659   30.3980   41.8596 H   0  0  0  0  0  0  0  0  0  0  0  0
   42.2709   32.2273   43.6224 H   0  0  0  0  0  0  0  0  0  0  0  0
   43.2255   33.0560   40.8472 H   0  0  0  0  0  0  0  0  0  0  0  0
  1  2  2  0
  1  6  1  0
  2  3  1  0
  3 11  1  0
  3  4  2  0
  5  4  1  0
  5  7  1  0
  6  5  2  0
  7  9  1  0
  7 10  1  0
  8  7  1  0
 12 13  1  0
 12 11  1  0
 14 15  2  0
 14 13  1  0
  1 16  1  0
  2 17  1  0
 11 18  1  0
 11 19  1  0
 12 20  1  0
 12 21  1  0
 13 22  1  0
 14 23  1  0
M  ISO  7  16  14  17  14  18   8  19   8  20   8  21   8  23   6
M  END
>  <minimizedAffinity>  (1) 
-4.10467434

>  <minimizedRMSD>  (1) 
5.89192152

$$$$
