
     RDKit          3D

 27 27  0  0  0  0  0  0  0  0999 V2000
   40.6530   32.2640   40.8590 C   0  0  0  0  0  0  0  0  0  0  0  0
   39.3620   31.7200   40.7910 C   0  0  0  0  0  0  0  0  0  0  0  0
   38.2920   32.5580   40.5200 C   0  0  0  0  0  0  0  0  0  0  0  0
   38.5280   33.8770   40.3300 N   0  0  0  0  0  0  0  0  0  0  0  0
   39.7680   34.3870   40.3960 C   0  0  0  0  0  0  0  0  0  0  0  0
   40.8490   33.5980   40.6600 N   0  0  0  0  0  0  0  0  0  0  0  0
   39.7810   35.8530   40.1570 C   0  0  0  0  0  0  0  0  0  0  0  0
   40.7420   36.1970   39.2280 F   0  0  0  0  0  0  0  0  0  0  0  0
   40.0440   36.5210   41.3460 F   0  0  0  0  0  0  0  0  0  0  0  0
   38.5310   36.2860   39.7660 F   0  0  0  0  0  0  0  0  0  0  0  0
   36.9490   31.9920   40.4520 C   0  0  0  0  0  0  0  0  0  0  0  0
   36.8410   30.5270   40.5540 C   0  0  0  0  0  0  0  0  0  0  0  0
   36.2760   30.0770   41.8310 N   0  0  0  0  0  0  0  0  0  0  0  0
   37.3130   28.8030   42.3860 S   0  0  0  0  0  0  0  0  0  0  0  0
   38.2360   28.0660   41.0560 C   0  0  0  0  0  0  0  0  0  0  0  0
   38.2320   29.3050   43.4350 O   0  0  0  0  0  0  0  0  0  0  0  0
   36.4520   27.6910   42.9660 O   0  0  0  0  0  0  0  0  0  0  0  0
   41.5115   31.6108   41.0740 H   0  0  0  0  0  0  0  0  0  0  0  0
   39.2011   30.6436   40.9505 H   0  0  0  0  0  0  0  0  0  0  0  0
   36.3622   32.4272   41.2744 H   0  0  0  0  0  0  0  0  0  0  0  0
   36.5829   32.2386   39.4444 H   0  0  0  0  0  0  0  0  0  0  0  0
   36.1955   30.1664   39.7396 H   0  0  0  0  0  0  0  0  0  0  0  0
   37.8600   30.1184   40.4851 H   0  0  0  0  0  0  0  0  0  0  0  0
   36.2643   30.8511   42.5103 H   0  0  0  0  0  0  0  0  0  0  0  0
   39.0322   27.4302   41.4705 H   0  0  0  0  0  0  0  0  0  0  0  0
   37.5629   27.4542   40.4375 H   0  0  0  0  0  0  0  0  0  0  0  0
   38.6837   28.8579   40.4375 H   0  0  0  0  0  0  0  0  0  0  0  0
  2  1  2  0
  3  2  1  0
  4  5  1  0
  4  3  2  0
  5  6  2  0
  6  1  1  0
  7  5  1  0
  7  9  1  0
  8  7  1  0
 10  7  1  0
 11  3  1  0
 11 12  1  0
 12 13  1  0
 13 14  1  0
 14 17  2  0
 14 16  2  0
 15 14  1  0
  1 18  1  0
  2 19  1  0
 11 20  1  0
 11 21  1  0
 12 22  1  0
 12 23  1  0
 13 24  1  0
 15 25  1  0
 15 26  1  0
 15 27  1  0
M  ISO  8  18  14  19  14  20   8  21   8  22   8  23   8  24   5  25   8
M  ISO  2  26   8  27   8
M  END
>  <minimizedAffinity>  (1) 
-4.82879925

>  <minimizedRMSD>  (1) 
3.91595483

$$$$
