
     RDKit          3D

 41 43  0  0  0  0  0  0  0  0999 V2000
   36.1740   30.6260   41.4300 N   0  0  0  0  0  0  0  0  0  0  0  0
   36.8740   31.0660   40.1750 C   0  0  0  0  0  0  0  0  0  0  0  0
   37.0270   32.5310   40.1200 C   0  0  0  0  0  0  0  0  0  0  0  0
   40.7030   32.6970   40.6130 C   0  0  0  0  0  0  0  0  0  0  0  0
   39.4130   32.1950   40.4740 C   0  0  0  0  0  0  0  0  0  0  0  0
   38.3680   33.0560   40.2400 C   0  0  0  0  0  0  0  0  0  0  0  0
   38.6130   34.3840   40.1480 N   0  0  0  0  0  0  0  0  0  0  0  0
   39.8680   34.8650   40.2830 C   0  0  0  0  0  0  0  0  0  0  0  0
   40.9210   34.0430   40.5160 N   0  0  0  0  0  0  0  0  0  0  0  0
   39.9060   36.3460   40.1250 C   0  0  0  0  0  0  0  0  0  0  0  0
   40.8240   36.7050   39.1430 F   0  0  0  0  0  0  0  0  0  0  0  0
   40.2680   36.9330   41.3160 F   0  0  0  0  0  0  0  0  0  0  0  0
   38.6490   36.8290   39.8140 F   0  0  0  0  0  0  0  0  0  0  0  0
   37.0880   29.1870   41.9590 S   0  0  0  0  0  0  0  0  0  0  0  0
   37.5300   29.3260   43.3190 O   0  0  0  0  0  0  0  0  0  0  0  0
   36.0690   28.0270   41.8590 O   0  0  0  0  0  0  0  0  0  0  0  0
   38.3360   28.8050   40.7990 C   0  0  0  0  0  0  0  0  0  0  0  0
   39.4900   28.2300   41.5810 N   0  0  0  0  0  0  0  0  0  0  0  0
   40.5930   28.9000   42.0220 C   0  0  0  0  0  0  0  0  0  0  0  0
   41.3720   28.0190   42.6720 N   0  0  0  0  0  0  0  0  0  0  0  0
   40.8050   26.7990   42.6630 C   0  0  0  0  0  0  0  0  0  0  0  0
   41.1440   25.5560   43.1600 C   0  0  0  0  0  0  0  0  0  0  0  0
   42.2360   25.4620   43.7860 O   0  0  0  0  0  0  0  0  0  0  0  0
   40.3220   24.4980   42.9690 N   0  0  0  0  0  0  0  0  0  0  0  0
   39.1450   24.6320   42.2860 C   0  0  0  0  0  0  0  0  0  0  0  0
   38.3370   23.4800   42.1280 N   0  0  0  0  0  0  0  0  0  0  0  0
   38.8110   25.8520   41.7970 N   0  0  0  0  0  0  0  0  0  0  0  0
   39.6160   26.9270   41.9750 C   0  0  0  0  0  0  0  0  0  0  0  0
   35.1921   30.3838   41.2349 H   0  0  0  0  0  0  0  0  0  0  0  0
   37.8709   30.6022   40.1417 H   0  0  0  0  0  0  0  0  0  0  0  0
   36.2640   30.7528   39.3148 H   0  0  0  0  0  0  0  0  0  0  0  0
   36.6229   32.8708   39.1550 H   0  0  0  0  0  0  0  0  0  0  0  0
   36.4929   32.9072   41.0050 H   0  0  0  0  0  0  0  0  0  0  0  0
   41.5443   32.0135   40.8002 H   0  0  0  0  0  0  0  0  0  0  0  0
   39.2303   31.1130   40.5511 H   0  0  0  0  0  0  0  0  0  0  0  0
   38.6529   29.7153   40.2689 H   0  0  0  0  0  0  0  0  0  0  0  0
   37.9722   28.0906   40.0459 H   0  0  0  0  0  0  0  0  0  0  0  0
   40.8064   29.9687   41.8726 H   0  0  0  0  0  0  0  0  0  0  0  0
   40.5874   23.5763   43.3444 H   0  0  0  0  0  0  0  0  0  0  0  0
   37.4437   23.5433   41.6192 H   0  0  0  0  0  0  0  0  0  0  0  0
   38.6426   22.5787   42.5219 H   0  0  0  0  0  0  0  0  0  0  0  0
  1 14  1  0
  2  1  1  0
  3  2  1  0
  3  6  1  0
  5  4  2  0
  6  5  1  0
  7  6  2  0
  7  8  1  0
  8  9  2  0
  9  4  1  0
 10  8  1  0
 10 12  1  0
 11 10  1  0
 13 10  1  0
 14 15  2  0
 16 14  2  0
 17 18  1  0
 17 14  1  0
 18 28  1  0
 18 19  1  0
 19 20  2  0
 21 20  1  0
 21 22  1  0
 22 23  2  0
 24 22  1  0
 25 24  1  0
 26 25  1  0
 27 28  1  0
 27 25  2  0
 28 21  2  0
  1 29  1  0
  2 30  1  0
  2 31  1  0
  3 32  1  0
  3 33  1  0
  4 34  1  0
  5 35  1  0
 17 36  1  0
 17 37  1  0
 19 38  1  0
 24 39  1  0
 26 40  1  0
 26 41  1  0
M  ISO  8  29   5  30   8  31   8  32   8  33   8  34  14  35  14  36   8
M  ISO  3  37   8  38  14  39   9
M  END
>  <minimizedAffinity>  (1) 
-6.49015045

>  <minimizedRMSD>  (1) 
1.43819845

$$$$
