
     RDKit          3D

 19 20  0  0  0  0  0  0  0  0999 V2000
   39.3700   30.4600   41.9270 C   0  0  0  0  0  0  0  0  0  0  0  0
   38.6920   29.2530   42.2500 C   0  0  0  0  0  0  0  0  0  0  0  0
   37.3510   29.1480   41.9290 C   0  0  0  0  0  0  0  0  0  0  0  0
   36.7280   30.1990   41.3200 N   0  0  0  0  0  0  0  0  0  0  0  0
   37.3900   31.3340   41.0250 C   0  0  0  0  0  0  0  0  0  0  0  0
   38.7090   31.4680   41.3260 N   0  0  0  0  0  0  0  0  0  0  0  0
   36.6750   32.3960   40.3850 N   0  0  0  0  0  0  0  0  0  0  0  0
   36.5220   27.9460   42.2090 C   0  0  0  0  0  0  0  0  0  0  0  0
   37.1910   26.7090   42.7090 C   0  0  0  0  0  0  0  0  0  0  0  0
   36.4630   27.5410   43.6890 C   0  0  0  0  0  0  0  0  0  0  0  0
   40.4374   30.5711   42.1686 H   0  0  0  0  0  0  0  0  0  0  0  0
   39.2206   28.4237   42.7427 H   0  0  0  0  0  0  0  0  0  0  0  0
   37.1592   33.2740   40.1492 H   0  0  0  0  0  0  0  0  0  0  0  0
   35.6763   32.2823   40.1603 H   0  0  0  0  0  0  0  0  0  0  0  0
   35.8125   28.1543   41.3946 H   0  0  0  0  0  0  0  0  0  0  0  0
   36.7908   25.7234   42.4289 H   0  0  0  0  0  0  0  0  0  0  0  0
   38.2178   26.3187   42.6510 H   0  0  0  0  0  0  0  0  0  0  0  0
   37.0182   28.1196   44.4420 H   0  0  0  0  0  0  0  0  0  0  0  0
   35.6599   27.3653   44.4198 H   0  0  0  0  0  0  0  0  0  0  0  0
  1  2  2  0
  3  8  1  0
  3  2  1  0
  4  3  2  0
  5  4  1  0
  5  6  2  0
  6  1  1  0
  7  5  1  0
  8  9  1  0
  8 10  1  0
  9 10  1  0
  1 11  1  0
  2 12  1  0
  7 13  1  0
  7 14  1  0
  8 15  1  0
  9 16  1  0
  9 17  1  0
 10 18  1  0
 10 19  1  0
M  ISO  7  11  14  12  14  15  13  16  13  17  13  18  13  19  13
M  END
>  <minimizedAffinity>  (1) 
-3.92130423

>  <minimizedRMSD>  (1) 
2.16153646

$$$$
