
     RDKit          3D

 41 43  0  0  0  0  0  0  0  0999 V2000
   36.7340   31.3590   39.9510 C   0  0  0  0  0  0  0  0  0  0  0  0
   36.9760   32.7990   39.9100 C   0  0  0  0  0  0  0  0  0  0  0  0
   40.6240   32.8420   40.6440 C   0  0  0  0  0  0  0  0  0  0  0  0
   39.2980   32.3970   40.4390 C   0  0  0  0  0  0  0  0  0  0  0  0
   38.3130   33.2960   40.1260 C   0  0  0  0  0  0  0  0  0  0  0  0
   38.6420   34.6060   40.0220 N   0  0  0  0  0  0  0  0  0  0  0  0
   39.9020   35.0360   40.2180 C   0  0  0  0  0  0  0  0  0  0  0  0
   40.9120   34.1690   40.5290 N   0  0  0  0  0  0  0  0  0  0  0  0
   40.0200   36.5060   40.0670 C   0  0  0  0  0  0  0  0  0  0  0  0
   40.9260   36.8400   39.0890 F   0  0  0  0  0  0  0  0  0  0  0  0
   40.4380   37.0640   41.2820 F   0  0  0  0  0  0  0  0  0  0  0  0
   38.7770   37.0700   39.8420 F   0  0  0  0  0  0  0  0  0  0  0  0
   36.0450   30.9230   41.2130 N   0  0  0  0  0  0  0  0  0  0  0  0
   36.7520   29.3910   41.5760 S   0  0  0  0  0  0  0  0  0  0  0  0
   37.1340   29.3920   43.0350 O   0  0  0  0  0  0  0  0  0  0  0  0
   35.7160   28.2970   41.3680 O   0  0  0  0  0  0  0  0  0  0  0  0
   38.1470   28.9530   40.6090 C   0  0  0  0  0  0  0  0  0  0  0  0
   39.0680   28.2220   41.5830 C   0  0  0  0  0  0  0  0  0  0  0  0
   40.1360   28.8370   42.2240 C   0  0  0  0  0  0  0  0  0  0  0  0
   40.7990   27.9740   43.0090 N   0  0  0  0  0  0  0  0  0  0  0  0
   40.1750   26.7900   42.8870 C   0  0  0  0  0  0  0  0  0  0  0  0
   40.4340   25.5670   43.4750 C   0  0  0  0  0  0  0  0  0  0  0  0
   39.6170   24.4780   43.1810 C   0  0  0  0  0  0  0  0  0  0  0  0
   38.5630   24.6570   42.3050 C   0  0  0  0  0  0  0  0  0  0  0  0
   38.2740   25.8750   41.6970 C   0  0  0  0  0  0  0  0  0  0  0  0
   39.1130   26.9190   42.0200 C   0  0  0  0  0  0  0  0  0  0  0  0
   37.6999   30.8376   39.8791 H   0  0  0  0  0  0  0  0  0  0  0  0
   36.0732   31.1088   39.1080 H   0  0  0  0  0  0  0  0  0  0  0  0
   36.6598   33.1495   38.9164 H   0  0  0  0  0  0  0  0  0  0  0  0
   36.4124   33.1829   40.7732 H   0  0  0  0  0  0  0  0  0  0  0  0
   41.4174   32.1225   40.8945 H   0  0  0  0  0  0  0  0  0  0  0  0
   39.0569   31.3277   40.5309 H   0  0  0  0  0  0  0  0  0  0  0  0
   36.2185   31.5947   41.9744 H   0  0  0  0  0  0  0  0  0  0  0  0
   37.8541   28.2924   39.7796 H   0  0  0  0  0  0  0  0  0  0  0  0
   38.6308   29.8276   40.1497 H   0  0  0  0  0  0  0  0  0  0  0  0
   40.4042   29.8970   42.1034 H   0  0  0  0  0  0  0  0  0  0  0  0
   41.6240   28.1787   43.5907 H   0  0  0  0  0  0  0  0  0  0  0  0
   41.2790   25.4541   44.1701 H   0  0  0  0  0  0  0  0  0  0  0  0
   39.8068   23.4951   43.6369 H   0  0  0  0  0  0  0  0  0  0  0  0
   37.9206   23.7937   42.0770 H   0  0  0  0  0  0  0  0  0  0  0  0
   37.4295   25.9965   41.0027 H   0  0  0  0  0  0  0  0  0  0  0  0
  1 13  1  0
  2  1  1  0
  2  5  1  0
  4  3  2  0
  5  4  1  0
  6  5  2  0
  6  7  1  0
  7  8  2  0
  8  3  1  0
  9  7  1  0
  9 11  1  0
 10  9  1  0
 12  9  1  0
 13 14  1  0
 14 15  2  0
 16 14  2  0
 17 14  1  0
 17 18  1  0
 18 26  1  0
 18 19  2  0
 19 20  1  0
 21 20  1  0
 21 22  2  0
 23 22  1  0
 24 23  2  0
 25 26  2  0
 25 24  1  0
 26 21  1  0
  1 27  1  0
  1 28  1  0
  2 29  1  0
  2 30  1  0
  3 31  1  0
  4 32  1  0
 13 33  1  0
 17 34  1  0
 17 35  1  0
 19 36  1  0
 20 37  1  0
 22 38  1  0
 23 39  1  0
 24 40  1  0
 25 41  1  0
M  ISO  8  27   8  28   8  29   8  30   8  31  14  32  14  33   5  34   8
M  ISO  7  35   8  36  14  37   9  38  14  39  14  40  14  41  14
M  END
>  <minimizedAffinity>  (1) 
-6.34875584

>  <minimizedRMSD>  (1) 
1.32699764

$$$$
