
     RDKit          3D

 40 41  0  0  0  0  0  0  0  0999 V2000
   36.6890   30.9230   40.1720 C   0  0  0  0  0  0  0  0  0  0  0  0
   36.8860   32.3770   40.1320 C   0  0  0  0  0  0  0  0  0  0  0  0
   40.5850   32.4930   40.5480 C   0  0  0  0  0  0  0  0  0  0  0  0
   39.2630   32.0120   40.4520 C   0  0  0  0  0  0  0  0  0  0  0  0
   38.2340   32.8910   40.2450 C   0  0  0  0  0  0  0  0  0  0  0  0
   38.5400   34.2030   40.1420 N   0  0  0  0  0  0  0  0  0  0  0  0
   39.7860   34.6650   40.2320 C   0  0  0  0  0  0  0  0  0  0  0  0
   40.8340   33.8220   40.4360 N   0  0  0  0  0  0  0  0  0  0  0  0
   39.8600   36.1420   40.0990 C   0  0  0  0  0  0  0  0  0  0  0  0
   40.8120   36.5230   39.1910 F   0  0  0  0  0  0  0  0  0  0  0  0
   40.1630   36.7030   41.3470 F   0  0  0  0  0  0  0  0  0  0  0  0
   38.6110   36.6630   39.8010 F   0  0  0  0  0  0  0  0  0  0  0  0
   36.1280   30.4630   41.4890 N   0  0  0  0  0  0  0  0  0  0  0  0
   37.1290   29.1430   41.9470 S   0  0  0  0  0  0  0  0  0  0  0  0
   38.0710   29.6350   43.0250 O   0  0  0  0  0  0  0  0  0  0  0  0
   36.2750   28.0520   42.5550 O   0  0  0  0  0  0  0  0  0  0  0  0
   38.0620   28.4180   40.6590 C   0  0  0  0  0  0  0  0  0  0  0  0
   37.9550   26.9290   40.7380 N   0  0  0  0  0  0  0  0  0  0  0  0
   36.9740   26.2430   40.1250 C   0  0  0  0  0  0  0  0  0  0  0  0
   36.9230   24.8690   40.2320 C   0  0  0  0  0  0  0  0  0  0  0  0
   35.8400   24.1030   39.5560 C   0  0  0  0  0  0  0  0  0  0  0  0
   37.8800   24.2140   40.9690 C   0  0  0  0  0  0  0  0  0  0  0  0
   37.7800   22.9460   41.0310 O   0  0  0  0  0  0  0  0  0  0  0  0
   38.8580   24.9080   41.5800 N   0  0  0  0  0  0  0  0  0  0  0  0
   38.8940   26.2540   41.4650 C   0  0  0  0  0  0  0  0  0  0  0  0
   39.7930   26.9470   42.0200 O   0  0  0  0  0  0  0  0  0  0  0  0
   37.6582   30.4293   40.0077 H   0  0  0  0  0  0  0  0  0  0  0  0
   35.9669   30.6578   39.3857 H   0  0  0  0  0  0  0  0  0  0  0  0
   36.4808   32.7341   39.1737 H   0  0  0  0  0  0  0  0  0  0  0  0
   36.3793   32.7441   41.0367 H   0  0  0  0  0  0  0  0  0  0  0  0
   41.4149   31.7903   40.7138 H   0  0  0  0  0  0  0  0  0  0  0  0
   39.0593   30.9349   40.5431 H   0  0  0  0  0  0  0  0  0  0  0  0
   36.1773   31.2171   42.1889 H   0  0  0  0  0  0  0  0  0  0  0  0
   39.1164   28.7149   40.7591 H   0  0  0  0  0  0  0  0  0  0  0  0
   37.6730   28.7609   39.6889 H   0  0  0  0  0  0  0  0  0  0  0  0
   36.2125   26.7777   39.5384 H   0  0  0  0  0  0  0  0  0  0  0  0
   35.1888   23.6424   40.3135 H   0  0  0  0  0  0  0  0  0  0  0  0
   35.2469   24.7836   38.9275 H   0  0  0  0  0  0  0  0  0  0  0  0
   36.2841   23.3170   38.9275 H   0  0  0  0  0  0  0  0  0  0  0  0
   39.5749   24.4160   42.1321 H   0  0  0  0  0  0  0  0  0  0  0  0
  1 13  1  0
  2  1  1  0
  2  5  1  0
  4  3  2  0
  5  4  1  0
  6  7  1  0
  6  5  2  0
  7  8  2  0
  8  3  1  0
  9  7  1  0
  9 11  1  0
 10  9  1  0
 12  9  1  0
 13 14  1  0
 14 16  2  0
 14 15  2  0
 17 18  1  0
 17 14  1  0
 18 25  1  0
 19 20  2  0
 19 18  1  0
 20 22  1  0
 21 20  1  0
 22 23  2  0
 22 24  1  0
 25 24  1  0
 25 26  2  0
  1 27  1  0
  1 28  1  0
  2 29  1  0
  2 30  1  0
  3 31  1  0
  4 32  1  0
 13 33  1  0
 17 34  1  0
 17 35  1  0
 19 36  1  0
 21 37  1  0
 21 38  1  0
 21 39  1  0
 24 40  1  0
M  ISO  8  27   8  28   8  29   8  30   8  31  14  32  14  33   5  34   8
M  ISO  6  35   8  36  14  37   8  38   8  39   8  40   9
M  END
>  <minimizedAffinity>  (1) 
-6.01923656

>  <minimizedRMSD>  (1) 
1.83916593

$$$$
