
     RDKit          3D

 43 44  0  0  0  0  0  0  0  0999 V2000
   36.8570   30.4990   40.5500 C   0  0  0  0  0  0  0  0  0  0  0  0
   36.9600   31.9670   40.4660 C   0  0  0  0  0  0  0  0  0  0  0  0
   40.6510   32.2280   40.8980 C   0  0  0  0  0  0  0  0  0  0  0  0
   39.3480   31.7020   40.8340 C   0  0  0  0  0  0  0  0  0  0  0  0
   38.2910   32.5270   40.5450 C   0  0  0  0  0  0  0  0  0  0  0  0
   38.5240   33.8430   40.3300 N   0  0  0  0  0  0  0  0  0  0  0  0
   39.7720   34.3450   40.3940 C   0  0  0  0  0  0  0  0  0  0  0  0
   40.8520   33.5570   40.6760 N   0  0  0  0  0  0  0  0  0  0  0  0
   39.7890   35.8090   40.1360 C   0  0  0  0  0  0  0  0  0  0  0  0
   40.7550   36.1480   39.2270 F   0  0  0  0  0  0  0  0  0  0  0  0
   40.0440   36.4890   41.3330 F   0  0  0  0  0  0  0  0  0  0  0  0
   38.5340   36.2510   39.7660 F   0  0  0  0  0  0  0  0  0  0  0  0
   36.2440   30.0590   41.8360 N   0  0  0  0  0  0  0  0  0  0  0  0
   37.3110   28.7720   42.4310 S   0  0  0  0  0  0  0  0  0  0  0  0
   38.0880   29.2030   43.5720 O   0  0  0  0  0  0  0  0  0  0  0  0
   36.3660   27.6390   42.8800 O   0  0  0  0  0  0  0  0  0  0  0  0
   38.2300   28.1040   41.0970 C   0  0  0  0  0  0  0  0  0  0  0  0
   39.1380   27.0190   41.7450 C   0  0  0  0  0  0  0  0  0  0  0  0
   38.5580   25.7060   41.3560 C   0  0  0  0  0  0  0  0  0  0  0  0
   38.5930   24.7390   42.5560 C   0  0  0  0  0  0  0  0  0  0  0  0
   39.9630   24.9070   43.1660 C   0  0  0  0  0  0  0  0  0  0  0  0
   39.9390   26.2020   43.9440 C   0  0  0  0  0  0  0  0  0  0  0  0
   39.1730   27.2840   43.2300 C   0  0  0  0  0  0  0  0  0  0  0  0
   37.8651   30.0663   40.4698 H   0  0  0  0  0  0  0  0  0  0  0  0
   36.2119   30.1542   39.7284 H   0  0  0  0  0  0  0  0  0  0  0  0
   36.3697   32.3910   41.2917 H   0  0  0  0  0  0  0  0  0  0  0  0
   36.5944   32.2270   39.4616 H   0  0  0  0  0  0  0  0  0  0  0  0
   41.5026   31.5701   41.1260 H   0  0  0  0  0  0  0  0  0  0  0  0
   39.1770   30.6306   41.0154 H   0  0  0  0  0  0  0  0  0  0  0  0
   36.2086   30.8398   42.5068 H   0  0  0  0  0  0  0  0  0  0  0  0
   38.8398   28.8838   40.6174 H   0  0  0  0  0  0  0  0  0  0  0  0
   37.5810   27.6882   40.3122 H   0  0  0  0  0  0  0  0  0  0  0  0
   40.1849   27.0300   41.4077 H   0  0  0  0  0  0  0  0  0  0  0  0
   37.5161   25.8490   41.0334 H   0  0  0  0  0  0  0  0  0  0  0  0
   39.1483   25.2802   40.5312 H   0  0  0  0  0  0  0  0  0  0  0  0
   37.8123   25.0018   43.2850 H   0  0  0  0  0  0  0  0  0  0  0  0
   38.4065   23.6993   42.2492 H   0  0  0  0  0  0  0  0  0  0  0  0
   40.1837   24.0652   43.8387 H   0  0  0  0  0  0  0  0  0  0  0  0
   40.7411   24.9280   42.3887 H   0  0  0  0  0  0  0  0  0  0  0  0
   39.4662   26.0193   44.9203 H   0  0  0  0  0  0  0  0  0  0  0  0
   40.9779   26.5449   44.0584 H   0  0  0  0  0  0  0  0  0  0  0  0
   39.6607   28.2529   43.4128 H   0  0  0  0  0  0  0  0  0  0  0  0
   38.1415   27.2989   43.6118 H   0  0  0  0  0  0  0  0  0  0  0  0
  1 13  1  0
  2  5  1  0
  2  1  1  0
  4  3  2  0
  5  4  1  0
  6  7  1  0
  6  5  2  0
  7  8  2  0
  8  3  1  0
  9  7  1  0
  9 11  1  0
 10  9  1  0
 12  9  1  0
 13 14  1  0
 14 16  2  0
 14 15  2  0
 17 18  1  0
 17 14  1  0
 18 23  1  0
 19 18  1  0
 19 20  1  0
 20 21  1  0
 21 22  1  0
 23 22  1  0
  1 24  1  0
  1 25  1  0
  2 26  1  0
  2 27  1  0
  3 28  1  0
  4 29  1  0
 13 30  1  0
 17 31  1  0
 17 32  1  0
 18 33  1  0
 19 34  1  0
 19 35  1  0
 20 36  1  0
 20 37  1  0
 21 38  1  0
 21 39  1  0
 22 40  1  0
 22 41  1  0
 23 42  1  0
 23 43  1  0
M  ISO  8  24   8  25   8  26   8  27   8  28  14  29  14  30   5  31   8
M  ISO  8  32   8  33  13  34  13  35  13  36  13  37  13  38  13  39  13
M  ISO  4  40  13  41  13  42  13  43  13
M  END
>  <minimizedAffinity>  (1) 
-5.96260834

>  <minimizedRMSD>  (1) 
0.234933928

$$$$
