
     RDKit          3D

 38 39  0  0  0  0  0  0  0  0999 V2000
   36.6160   30.5770   40.3980 C   0  0  0  0  0  0  0  0  0  0  0  0
   36.8270   32.0250   40.3220 C   0  0  0  0  0  0  0  0  0  0  0  0
   40.5430   32.1140   40.5160 C   0  0  0  0  0  0  0  0  0  0  0  0
   39.2100   31.6450   40.4920 C   0  0  0  0  0  0  0  0  0  0  0  0
   38.1790   32.5350   40.3510 C   0  0  0  0  0  0  0  0  0  0  0  0
   38.4660   33.8490   40.2380 N   0  0  0  0  0  0  0  0  0  0  0  0
   39.7340   34.3000   40.2600 C   0  0  0  0  0  0  0  0  0  0  0  0
   40.7880   33.4510   40.3970 N   0  0  0  0  0  0  0  0  0  0  0  0
   39.8140   35.7730   40.1350 C   0  0  0  0  0  0  0  0  0  0  0  0
   40.7870   36.1600   39.2520 F   0  0  0  0  0  0  0  0  0  0  0  0
   40.0750   36.3370   41.3910 F   0  0  0  0  0  0  0  0  0  0  0  0
   38.5720   36.2920   39.7980 F   0  0  0  0  0  0  0  0  0  0  0  0
   36.0910   30.1670   41.7510 N   0  0  0  0  0  0  0  0  0  0  0  0
   37.1740   28.9150   42.2380 S   0  0  0  0  0  0  0  0  0  0  0  0
   38.1660   29.5130   43.2040 O   0  0  0  0  0  0  0  0  0  0  0  0
   36.3980   27.8610   43.0220 O   0  0  0  0  0  0  0  0  0  0  0  0
   38.0500   28.0870   40.9850 C   0  0  0  0  0  0  0  0  0  0  0  0
   37.9040   26.6530   40.9300 N   0  0  0  0  0  0  0  0  0  0  0  0
   37.0220   25.7800   40.4200 C   0  0  0  0  0  0  0  0  0  0  0  0
   37.0760   24.4350   40.4490 C   0  0  0  0  0  0  0  0  0  0  0  0
   38.1280   23.7960   41.0540 C   0  0  0  0  0  0  0  0  0  0  0  0
   38.1630   22.3800   41.0720 N   0  0  0  0  0  0  0  0  0  0  0  0
   39.0560   24.5850   41.5900 N   0  0  0  0  0  0  0  0  0  0  0  0
   38.9330   25.9480   41.5220 C   0  0  0  0  0  0  0  0  0  0  0  0
   39.9180   26.5350   42.0900 O   0  0  0  0  0  0  0  0  0  0  0  0
   37.5729   30.0660   40.2157 H   0  0  0  0  0  0  0  0  0  0  0  0
   35.8718   30.2956   39.6384 H   0  0  0  0  0  0  0  0  0  0  0  0
   36.2939   32.4743   41.1728 H   0  0  0  0  0  0  0  0  0  0  0  0
   36.4632   32.2941   39.3194 H   0  0  0  0  0  0  0  0  0  0  0  0
   41.3772   31.4061   40.6298 H   0  0  0  0  0  0  0  0  0  0  0  0
   39.0015   30.5691   40.5862 H   0  0  0  0  0  0  0  0  0  0  0  0
   36.1193   30.9565   42.4120 H   0  0  0  0  0  0  0  0  0  0  0  0
   37.7141   28.4933   40.0195 H   0  0  0  0  0  0  0  0  0  0  0  0
   39.1121   28.2603   41.2127 H   0  0  0  0  0  0  0  0  0  0  0  0
   36.1472   26.2169   39.9162 H   0  0  0  0  0  0  0  0  0  0  0  0
   36.2718   23.8453   39.9848 H   0  0  0  0  0  0  0  0  0  0  0  0
   38.9484   21.8900   41.5236 H   0  0  0  0  0  0  0  0  0  0  0  0
   37.4031   21.8404   40.6335 H   0  0  0  0  0  0  0  0  0  0  0  0
  1 13  1  0
  2  5  1  0
  2  1  1  0
  4  3  2  0
  5  4  1  0
  6  7  1  0
  6  5  2  0
  7  8  2  0
  8  3  1  0
  9  7  1  0
  9 11  1  0
 10  9  1  0
 12  9  1  0
 13 14  1  0
 14 16  2  0
 14 15  2  0
 17 14  1  0
 18 17  1  0
 18 24  1  0
 19 20  2  0
 19 18  1  0
 20 21  1  0
 21 22  1  0
 21 23  2  0
 24 23  1  0
 24 25  2  0
  1 26  1  0
  1 27  1  0
  2 28  1  0
  2 29  1  0
  3 30  1  0
  4 31  1  0
 13 32  1  0
 17 33  1  0
 17 34  1  0
 19 35  1  0
 20 36  1  0
 22 37  1  0
 22 38  1  0
M  ISO  8  26   8  27   8  28   8  29   8  30  14  31  14  32   5  33   8
M  ISO  3  34   8  35  14  36  14
M  END
>  <minimizedAffinity>  (1) 
-5.90879488

>  <minimizedRMSD>  (1) 
2.0888648

$$$$
