
     RDKit          3D

 37 38  0  0  0  0  0  0  0  0999 V2000
   36.8390   30.3390   40.7190 C   0  0  0  0  0  0  0  0  0  0  0  0
   36.9400   31.8000   40.5360 C   0  0  0  0  0  0  0  0  0  0  0  0
   40.5310   32.0660   39.5980 C   0  0  0  0  0  0  0  0  0  0  0  0
   39.2610   31.5300   39.9040 C   0  0  0  0  0  0  0  0  0  0  0  0
   38.2310   32.3700   40.2380 C   0  0  0  0  0  0  0  0  0  0  0  0
   38.4820   33.6900   40.2630 N   0  0  0  0  0  0  0  0  0  0  0  0
   39.6740   34.2110   39.9780 C   0  0  0  0  0  0  0  0  0  0  0  0
   40.7210   33.4170   39.6400 N   0  0  0  0  0  0  0  0  0  0  0  0
   39.6940   35.6910   40.0880 C   0  0  0  0  0  0  0  0  0  0  0  0
   40.6900   36.2430   39.3270 F   0  0  0  0  0  0  0  0  0  0  0  0
   39.8790   36.0600   41.4250 F   0  0  0  0  0  0  0  0  0  0  0  0
   38.4490   36.2160   39.7670 F   0  0  0  0  0  0  0  0  0  0  0  0
   36.4790   29.9920   42.1480 N   0  0  0  0  0  0  0  0  0  0  0  0
   37.8560   29.1330   42.7120 S   0  0  0  0  0  0  0  0  0  0  0  0
   38.9080   30.1350   43.1210 O   0  0  0  0  0  0  0  0  0  0  0  0
   37.4900   28.3610   43.9780 O   0  0  0  0  0  0  0  0  0  0  0  0
   38.5740   27.9870   41.6080 C   0  0  0  0  0  0  0  0  0  0  0  0
   37.8440   26.6990   41.4590 C   0  0  0  0  0  0  0  0  0  0  0  0
   37.6140   25.6200   42.2840 C   0  0  0  0  0  0  0  0  0  0  0  0
   36.9220   24.4850   41.9480 C   0  0  0  0  0  0  0  0  0  0  0  0
   36.3870   24.3540   40.6880 C   0  0  0  0  0  0  0  0  0  0  0  0
   36.5580   25.3640   39.7990 C   0  0  0  0  0  0  0  0  0  0  0  0
   37.2690   26.4870   40.2070 C   0  0  0  0  0  0  0  0  0  0  0  0
   37.8063   29.8781   40.4702 H   0  0  0  0  0  0  0  0  0  0  0  0
   36.0474   29.9580   40.0570 H   0  0  0  0  0  0  0  0  0  0  0  0
   36.2671   32.0707   39.7090 H   0  0  0  0  0  0  0  0  0  0  0  0
   36.6857   32.2126   41.5235 H   0  0  0  0  0  0  0  0  0  0  0  0
   41.3625   31.3986   39.3273 H   0  0  0  0  0  0  0  0  0  0  0  0
   39.0990   30.4424   39.8744 H   0  0  0  0  0  0  0  0  0  0  0  0
   36.3229   30.8439   42.7055 H   0  0  0  0  0  0  0  0  0  0  0  0
   38.6312   28.4610   40.6170 H   0  0  0  0  0  0  0  0  0  0  0  0
   39.5554   27.7310   42.0337 H   0  0  0  0  0  0  0  0  0  0  0  0
   38.0222   25.6738   43.3040 H   0  0  0  0  0  0  0  0  0  0  0  0
   36.7948   23.6794   42.6862 H   0  0  0  0  0  0  0  0  0  0  0  0
   35.8311   23.4475   40.4065 H   0  0  0  0  0  0  0  0  0  0  0  0
   36.1449   25.2964   38.7817 H   0  0  0  0  0  0  0  0  0  0  0  0
   37.3902   27.2906   39.4657 H   0  0  0  0  0  0  0  0  0  0  0  0
  1 13  1  0
  2  1  1  0
  3  8  2  0
  3  4  1  0
  4  5  2  0
  5  6  1  0
  5  2  1  0
  7  9  1  0
  7  6  2  0
  8  7  1  0
  9 11  1  0
 10  9  1  0
 12  9  1  0
 13 14  1  0
 14 15  2  0
 14 16  2  0
 17 14  1  0
 18 17  1  0
 18 19  2  0
 20 19  1  0
 21 20  2  0
 22 23  2  0
 22 21  1  0
 23 18  1  0
  1 24  1  0
  1 25  1  0
  2 26  1  0
  2 27  1  0
  3 28  1  0
  4 29  1  0
 13 30  1  0
 17 31  1  0
 17 32  1  0
 19 33  1  0
 20 34  1  0
 21 35  1  0
 22 36  1  0
 23 37  1  0
M  ISO  8  24   8  25   8  26   8  27   8  28  14  29  14  30   5  31   8
M  ISO  6  32   8  33  14  34  14  35  14  36  14  37  14
M  END
>  <minimizedAffinity>  (1) 
-5.90000391

>  <minimizedRMSD>  (1) 
1.62964749

$$$$
