
     RDKit          3D

 15 15  0  0  0  0  0  0  0  0999 V2000
   39.5400   30.7200   41.9660 C   0  0  0  0  0  0  0  0  0  0  0  0
   39.0740   29.6840   42.8340 C   0  0  0  0  0  0  0  0  0  0  0  0
   37.7300   29.3580   42.7790 C   0  0  0  0  0  0  0  0  0  0  0  0
   36.9130   30.0250   41.9120 N   0  0  0  0  0  0  0  0  0  0  0  0
   37.3970   31.0000   41.1080 C   0  0  0  0  0  0  0  0  0  0  0  0
   38.6950   31.3550   41.1230 N   0  0  0  0  0  0  0  0  0  0  0  0
   36.4770   31.6540   40.2260 N   0  0  0  0  0  0  0  0  0  0  0  0
   37.2530   28.3110   43.6550 C   0  0  0  0  0  0  0  0  0  0  0  0
   37.4530   27.1300   43.2690 O   0  0  0  0  0  0  0  0  0  0  0  0
   36.6100   28.5450   44.8550 O   0  0  0  0  0  0  0  0  0  0  0  0
   40.6023   31.0048   41.9843 H   0  0  0  0  0  0  0  0  0  0  0  0
   39.7588   29.1648   43.5207 H   0  0  0  0  0  0  0  0  0  0  0  0
   35.4848   31.3775   40.2195 H   0  0  0  0  0  0  0  0  0  0  0  0
   36.8077   32.4007   39.5983 H   0  0  0  0  0  0  0  0  0  0  0  0
   36.3068   27.7839   45.4108 H   0  0  0  0  0  0  0  0  0  0  0  0
  1  2  2  0
  3  2  1  0
  3  8  1  0
  4  3  2  0
  5  6  2  0
  5  4  1  0
  6  1  1  0
  7  5  1  0
  8 10  1  0
  9  8  2  0
  1 11  1  0
  2 12  1  0
  7 13  1  0
  7 14  1  0
 10 15  1  0
M  ISO  3  11  14  12  14  15   3
M  END
>  <minimizedAffinity>  (1) 
-3.83610249

>  <minimizedRMSD>  (1) 
2.30680823

$$$$
