
     RDKit          3D

 41 42  0  0  0  0  0  0  0  0999 V2000
   37.0800   30.2800   40.6240 C   0  0  0  0  0  0  0  0  0  0  0  0
   37.0890   31.7530   40.5290 C   0  0  0  0  0  0  0  0  0  0  0  0
   40.6790   32.1590   39.6170 C   0  0  0  0  0  0  0  0  0  0  0  0
   39.4360   31.5690   39.9110 C   0  0  0  0  0  0  0  0  0  0  0  0
   38.3660   32.3690   40.2350 C   0  0  0  0  0  0  0  0  0  0  0  0
   38.5350   33.7090   40.2640 N   0  0  0  0  0  0  0  0  0  0  0  0
   39.7310   34.2650   39.9800 C   0  0  0  0  0  0  0  0  0  0  0  0
   40.8150   33.5090   39.6550 N   0  0  0  0  0  0  0  0  0  0  0  0
   39.6830   35.7480   40.0840 C   0  0  0  0  0  0  0  0  0  0  0  0
   40.6650   36.3320   39.3240 F   0  0  0  0  0  0  0  0  0  0  0  0
   39.8660   36.1260   41.4200 F   0  0  0  0  0  0  0  0  0  0  0  0
   38.4250   36.2150   39.7700 F   0  0  0  0  0  0  0  0  0  0  0  0
   36.4940   29.8170   41.9170 N   0  0  0  0  0  0  0  0  0  0  0  0
   37.8730   29.1210   42.8090 S   0  0  0  0  0  0  0  0  0  0  0  0
   38.8710   30.1240   43.0930 O   0  0  0  0  0  0  0  0  0  0  0  0
   37.2620   28.6200   44.1370 O   0  0  0  0  0  0  0  0  0  0  0  0
   38.4410   27.6840   41.9920 C   0  0  0  0  0  0  0  0  0  0  0  0
   38.8660   26.7140   43.0520 N   0  0  0  0  0  0  0  0  0  0  0  0
   40.1610   26.9740   43.5480 C   0  0  0  0  0  0  0  0  0  0  0  0
   41.0250   25.7870   43.8100 C   0  0  0  0  0  0  0  0  0  0  0  0
   40.8920   24.7160   42.8680 N   0  0  0  0  0  0  0  0  0  0  0  0
   39.8560   24.9100   41.8930 C   0  0  0  0  0  0  0  0  0  0  0  0
   38.6320   25.3690   42.6530 C   0  0  0  0  0  0  0  0  0  0  0  0
   38.1134   29.9109   40.5478 H   0  0  0  0  0  0  0  0  0  0  0  0
   36.4610   29.8858   39.8046 H   0  0  0  0  0  0  0  0  0  0  0  0
   36.3865   32.0418   39.7334 H   0  0  0  0  0  0  0  0  0  0  0  0
   36.8133   32.1133   41.5311 H   0  0  0  0  0  0  0  0  0  0  0  0
   41.5404   31.5264   39.3564 H   0  0  0  0  0  0  0  0  0  0  0  0
   39.3212   30.4754   39.8818 H   0  0  0  0  0  0  0  0  0  0  0  0
   36.0867   30.6080   42.4360 H   0  0  0  0  0  0  0  0  0  0  0  0
   37.6323   27.2500   41.3856 H   0  0  0  0  0  0  0  0  0  0  0  0
   39.2785   27.9210   41.3194 H   0  0  0  0  0  0  0  0  0  0  0  0
   40.6788   27.6084   42.8136 H   0  0  0  0  0  0  0  0  0  0  0  0
   40.0070   27.4439   44.5306 H   0  0  0  0  0  0  0  0  0  0  0  0
   42.0732   26.1203   43.8005 H   0  0  0  0  0  0  0  0  0  0  0  0
   40.7014   25.3821   44.7802 H   0  0  0  0  0  0  0  0  0  0  0  0
   41.7876   24.6115   42.3702 H   0  0  0  0  0  0  0  0  0  0  0  0
   39.6460   23.9661   41.3687 H   0  0  0  0  0  0  0  0  0  0  0  0
   40.1553   25.6502   41.1363 H   0  0  0  0  0  0  0  0  0  0  0  0
   37.7444   25.3168   42.0053 H   0  0  0  0  0  0  0  0  0  0  0  0
   38.4517   24.7273   43.5281 H   0  0  0  0  0  0  0  0  0  0  0  0
  1 13  1  0
  2  1  1  0
  3  8  2  0
  3  4  1  0
  4  5  2  0
  5  6  1  0
  5  2  1  0
  7  9  1  0
  7  6  2  0
  8  7  1  0
  9 11  1  0
 10  9  1  0
 12  9  1  0
 13 14  1  0
 14 15  2  0
 14 16  2  0
 17 14  1  0
 17 18  1  0
 18 19  1  0
 19 20  1  0
 21 20  1  0
 22 23  1  0
 22 21  1  0
 23 18  1  0
  1 24  1  0
  1 25  1  0
  2 26  1  0
  2 27  1  0
  3 28  1  0
  4 29  1  0
 13 30  1  0
 17 31  1  0
 17 32  1  0
 19 33  1  0
 19 34  1  0
 20 35  1  0
 20 36  1  0
 21 37  1  0
 22 38  1  0
 22 39  1  0
 23 40  1  0
 23 41  1  0
M  ISO  8  24   8  25   8  26   8  27   8  28  14  29  14  30   5  31   8
M  ISO  8  32   8  33  13  34  13  35  13  36  13  37   5  38  13  39  13
M  ISO  2  40  13  41  13
M  END
>  <minimizedAffinity>  (1) 
-5.5299511

>  <minimizedRMSD>  (1) 
1.46235025

$$$$
