
     RDKit          3D

 34 35  0  0  0  0  0  0  0  0999 V2000
   36.8890   30.3460   40.6060 C   0  0  0  0  0  0  0  0  0  0  0  0
   37.0100   31.8080   40.5190 C   0  0  0  0  0  0  0  0  0  0  0  0
   40.7110   32.0980   40.2360 C   0  0  0  0  0  0  0  0  0  0  0  0
   39.4130   31.5550   40.3650 C   0  0  0  0  0  0  0  0  0  0  0  0
   38.3270   32.3910   40.4020 C   0  0  0  0  0  0  0  0  0  0  0  0
   38.5440   33.7160   40.3150 N   0  0  0  0  0  0  0  0  0  0  0  0
   39.7690   34.2380   40.1930 C   0  0  0  0  0  0  0  0  0  0  0  0
   40.8690   33.4490   40.1510 N   0  0  0  0  0  0  0  0  0  0  0  0
   39.7440   35.7240   40.1270 C   0  0  0  0  0  0  0  0  0  0  0  0
   40.7080   36.2090   39.2810 F   0  0  0  0  0  0  0  0  0  0  0  0
   39.9440   36.2490   41.4110 F   0  0  0  0  0  0  0  0  0  0  0  0
   38.4780   36.1740   39.7810 F   0  0  0  0  0  0  0  0  0  0  0  0
   36.3280   29.9090   41.9310 N   0  0  0  0  0  0  0  0  0  0  0  0
   37.5460   28.8850   42.5860 S   0  0  0  0  0  0  0  0  0  0  0  0
   38.5940   29.7520   43.2400 O   0  0  0  0  0  0  0  0  0  0  0  0
   36.9360   28.0140   43.6740 O   0  0  0  0  0  0  0  0  0  0  0  0
   38.3340   27.8100   41.4540 C   0  0  0  0  0  0  0  0  0  0  0  0
   37.9850   26.3670   41.6330 C   0  0  0  0  0  0  0  0  0  0  0  0
   36.9510   25.7320   40.9670 C   0  0  0  0  0  0  0  0  0  0  0  0
   36.8280   24.4010   41.3020 C   0  0  0  0  0  0  0  0  0  0  0  0
   37.8530   24.2700   42.2140 C   0  0  0  0  0  0  0  0  0  0  0  0
   38.4780   25.4020   42.3700 O   0  0  0  0  0  0  0  0  0  0  0  0
   37.8853   29.8981   40.4762 H   0  0  0  0  0  0  0  0  0  0  0  0
   36.1993   30.0128   39.8165 H   0  0  0  0  0  0  0  0  0  0  0  0
   36.4350   32.1283   39.6376 H   0  0  0  0  0  0  0  0  0  0  0  0
   36.6469   32.1638   41.4945 H   0  0  0  0  0  0  0  0  0  0  0  0
   41.5880   31.4348   40.2044 H   0  0  0  0  0  0  0  0  0  0  0  0
   39.2744   30.4660   40.4355 H   0  0  0  0  0  0  0  0  0  0  0  0
   36.1640   30.7203   42.5440 H   0  0  0  0  0  0  0  0  0  0  0  0
   39.4219   27.9192   41.5750 H   0  0  0  0  0  0  0  0  0  0  0  0
   37.9852   28.0970   40.4510 H   0  0  0  0  0  0  0  0  0  0  0  0
   36.2944   26.2382   40.2440 H   0  0  0  0  0  0  0  0  0  0  0  0
   36.1098   23.6501   40.9410 H   0  0  0  0  0  0  0  0  0  0  0  0
   38.1082   23.3373   42.7383 H   0  0  0  0  0  0  0  0  0  0  0  0
  1 13  1  0
  2  1  1  0
  3  4  2  0
  4  5  1  0
  5  2  1  0
  6  5  2  0
  7  6  1  0
  8  7  2  0
  8  3  1  0
  9  7  1  0
  9 11  1  0
 10  9  1  0
 12  9  1  0
 13 14  1  0
 14 15  2  0
 14 16  2  0
 17 18  1  0
 17 14  1  0
 18 22  1  0
 19 20  1  0
 19 18  2  0
 20 21  2  0
 21 22  1  0
  1 23  1  0
  1 24  1  0
  2 25  1  0
  2 26  1  0
  3 27  1  0
  4 28  1  0
 13 29  1  0
 17 30  1  0
 17 31  1  0
 19 32  1  0
 20 33  1  0
 21 34  1  0
M  ISO  8  23   8  24   8  25   8  26   8  27  14  28  14  29   5  30   8
M  ISO  4  31   8  32  14  33  14  34  14
M  END
>  <minimizedAffinity>  (1) 
-5.49936676

>  <minimizedRMSD>  (1) 
1.69136441

$$$$
