
     RDKit          3D

 18 18  0  0  0  0  0  0  0  0999 V2000
   39.2470   29.8860   41.4000 C   0  0  0  0  0  0  0  0  0  0  0  0
   39.1130   28.9150   42.4380 C   0  0  0  0  0  0  0  0  0  0  0  0
   37.8570   28.7080   42.9800 C   0  0  0  0  0  0  0  0  0  0  0  0
   36.8050   29.4360   42.5050 N   0  0  0  0  0  0  0  0  0  0  0  0
   36.9540   30.3430   41.5300 C   0  0  0  0  0  0  0  0  0  0  0  0
   38.1650   30.5690   40.9800 N   0  0  0  0  0  0  0  0  0  0  0  0
   35.7930   31.0610   41.0930 N   0  0  0  0  0  0  0  0  0  0  0  0
   37.7280   27.7000   44.0550 C   0  0  0  0  0  0  0  0  0  0  0  0
   36.6100   28.0080   44.9990 C   0  0  0  0  0  0  0  0  0  0  0  0
   40.2304   30.0756   40.9450 H   0  0  0  0  0  0  0  0  0  0  0  0
   39.9841   28.3472   42.7969 H   0  0  0  0  0  0  0  0  0  0  0  0
   35.8739   31.7649   40.3454 H   0  0  0  0  0  0  0  0  0  0  0  0
   34.8778   30.8731   41.5265 H   0  0  0  0  0  0  0  0  0  0  0  0
   37.5418   26.7175   43.5966 H   0  0  0  0  0  0  0  0  0  0  0  0
   38.6640   27.7065   44.6327 H   0  0  0  0  0  0  0  0  0  0  0  0
   36.9671   27.9096   46.0348 H   0  0  0  0  0  0  0  0  0  0  0  0
   36.2588   29.0364   44.8283 H   0  0  0  0  0  0  0  0  0  0  0  0
   35.7817   27.3046   44.8283 H   0  0  0  0  0  0  0  0  0  0  0  0
  1  2  2  0
  2  3  1  0
  3  8  1  0
  4  3  2  0
  5  4  1  0
  6  1  1  0
  6  5  2  0
  7  5  1  0
  8  9  1  0
  1 10  1  0
  2 11  1  0
  7 12  1  0
  7 13  1  0
  8 14  1  0
  8 15  1  0
  9 16  1  0
  9 17  1  0
  9 18  1  0
M  ISO  7  10  14  11  14  14   8  15   8  16   8  17   8  18   8
M  END
>  <minimizedAffinity>  (1) 
-3.64270449

>  <minimizedRMSD>  (1) 
1.88630307

$$$$
