
     RDKit          3D

 34 35  0  0  0  0  0  0  0  0999 V2000
   36.8910   30.3160   40.6140 C   0  0  0  0  0  0  0  0  0  0  0  0
   37.0310   31.7810   40.5380 C   0  0  0  0  0  0  0  0  0  0  0  0
   40.7090   32.0830   40.2040 C   0  0  0  0  0  0  0  0  0  0  0  0
   39.4340   31.5340   40.3310 C   0  0  0  0  0  0  0  0  0  0  0  0
   38.3440   32.3650   40.3880 C   0  0  0  0  0  0  0  0  0  0  0  0
   38.5260   33.7050   40.3180 N   0  0  0  0  0  0  0  0  0  0  0  0
   39.7670   34.2250   40.1950 C   0  0  0  0  0  0  0  0  0  0  0  0
   40.8740   33.4340   40.1360 N   0  0  0  0  0  0  0  0  0  0  0  0
   39.7330   35.7090   40.1390 C   0  0  0  0  0  0  0  0  0  0  0  0
   40.7020   36.1980   39.2900 F   0  0  0  0  0  0  0  0  0  0  0  0
   39.9480   36.2230   41.4220 F   0  0  0  0  0  0  0  0  0  0  0  0
   38.4750   36.1500   39.7810 F   0  0  0  0  0  0  0  0  0  0  0  0
   36.3820   29.8890   41.9540 N   0  0  0  0  0  0  0  0  0  0  0  0
   37.6290   28.9080   42.6150 S   0  0  0  0  0  0  0  0  0  0  0  0
   38.6000   29.8830   43.2550 O   0  0  0  0  0  0  0  0  0  0  0  0
   37.0310   28.1100   43.7630 O   0  0  0  0  0  0  0  0  0  0  0  0
   38.4550   27.8570   41.5890 C   0  0  0  0  0  0  0  0  0  0  0  0
   39.1610   26.8840   42.5250 C   0  0  0  0  0  0  0  0  0  0  0  0
   39.0010   25.4920   42.4570 C   0  0  0  0  0  0  0  0  0  0  0  0
   39.7600   24.8800   43.4240 C   0  0  0  0  0  0  0  0  0  0  0  0
   40.3460   25.9270   44.0340 N   0  0  0  0  0  0  0  0  0  0  0  0
   40.0110   27.1010   43.5260 N   0  0  0  0  0  0  0  0  0  0  0  0
   37.8731   29.8524   40.4390 H   0  0  0  0  0  0  0  0  0  0  0  0
   36.1683   29.9955   39.8491 H   0  0  0  0  0  0  0  0  0  0  0  0
   36.4325   32.1150   39.6777 H   0  0  0  0  0  0  0  0  0  0  0  0
   36.7095   32.1224   41.5330 H   0  0  0  0  0  0  0  0  0  0  0  0
   41.5870   31.4219   40.1584 H   0  0  0  0  0  0  0  0  0  0  0  0
   39.3029   30.4432   40.3851 H   0  0  0  0  0  0  0  0  0  0  0  0
   36.2106   30.7087   42.5537 H   0  0  0  0  0  0  0  0  0  0  0  0
   39.1853   28.4060   40.9764 H   0  0  0  0  0  0  0  0  0  0  0  0
   37.7820   27.3455   40.8851 H   0  0  0  0  0  0  0  0  0  0  0  0
   38.3602   24.9666   41.7336 H   0  0  0  0  0  0  0  0  0  0  0  0
   39.8629   23.8072   43.6441 H   0  0  0  0  0  0  0  0  0  0  0  0
   40.9969   25.8231   44.8254 H   0  0  0  0  0  0  0  0  0  0  0  0
  1 13  1  0
  2  1  1  0
  3  4  2  0
  4  5  1  0
  5  2  1  0
  6  5  2  0
  7  6  1  0
  8  7  2  0
  8  3  1  0
  9  7  1  0
  9 11  1  0
 10  9  1  0
 12  9  1  0
 13 14  1  0
 14 15  2  0
 14 16  2  0
 17 18  1  0
 17 14  1  0
 18 22  2  0
 19 18  1  0
 19 20  2  0
 20 21  1  0
 22 21  1  0
  1 23  1  0
  1 24  1  0
  2 25  1  0
  2 26  1  0
  3 27  1  0
  4 28  1  0
 13 29  1  0
 17 30  1  0
 17 31  1  0
 19 32  1  0
 20 33  1  0
 21 34  1  0
M  ISO  8  23   8  24   8  25   8  26   8  27  14  28  14  29   5  30   8
M  ISO  4  31   8  32  14  33  14  34   9
M  END
>  <minimizedAffinity>  (1) 
-5.46985865

>  <minimizedRMSD>  (1) 
0.75031805

$$$$
