
     RDKit          3D

 32 33  0  0  0  0  0  0  0  0999 V2000
   37.1440   30.6460   40.4650 C   0  0  0  0  0  0  0  0  0  0  0  0
   37.2190   32.1030   40.3740 C   0  0  0  0  0  0  0  0  0  0  0  0
   40.8260   32.4980   39.5420 C   0  0  0  0  0  0  0  0  0  0  0  0
   39.5630   31.9250   39.8080 C   0  0  0  0  0  0  0  0  0  0  0  0
   38.4980   32.7280   40.1240 C   0  0  0  0  0  0  0  0  0  0  0  0
   38.6950   34.0590   40.1730 N   0  0  0  0  0  0  0  0  0  0  0  0
   39.8900   34.6170   39.9240 C   0  0  0  0  0  0  0  0  0  0  0  0
   40.9740   33.8530   39.6040 N   0  0  0  0  0  0  0  0  0  0  0  0
   39.8690   36.0930   40.0510 C   0  0  0  0  0  0  0  0  0  0  0  0
   40.8040   36.6860   39.2450 F   0  0  0  0  0  0  0  0  0  0  0  0
   40.1120   36.4510   41.3840 F   0  0  0  0  0  0  0  0  0  0  0  0
   38.5900   36.5780   39.8110 F   0  0  0  0  0  0  0  0  0  0  0  0
   36.5500   30.1770   41.7630 N   0  0  0  0  0  0  0  0  0  0  0  0
   37.8280   29.3030   42.5220 S   0  0  0  0  0  0  0  0  0  0  0  0
   38.8940   30.3020   42.9150 O   0  0  0  0  0  0  0  0  0  0  0  0
   37.3230   28.6590   43.7990 O   0  0  0  0  0  0  0  0  0  0  0  0
   38.5620   28.0360   41.5640 C   0  0  0  0  0  0  0  0  0  0  0  0
   39.3170   27.1610   42.5660 C   0  0  0  0  0  0  0  0  0  0  0  0
   39.0250   25.9180   43.0140 N   0  0  0  0  0  0  0  0  0  0  0  0
   39.9470   25.5700   43.8580 O   0  0  0  0  0  0  0  0  0  0  0  0
   40.8530   26.5060   44.0110 C   0  0  0  0  0  0  0  0  0  0  0  0
   40.4540   27.5030   43.2000 N   0  0  0  0  0  0  0  0  0  0  0  0
   38.1601   30.2347   40.3738 H   0  0  0  0  0  0  0  0  0  0  0  0
   36.4894   30.2952   39.6535 H   0  0  0  0  0  0  0  0  0  0  0  0
   36.5466   32.4094   39.5591 H   0  0  0  0  0  0  0  0  0  0  0  0
   36.9547   32.4428   41.3863 H   0  0  0  0  0  0  0  0  0  0  0  0
   41.6831   31.8575   39.2870 H   0  0  0  0  0  0  0  0  0  0  0  0
   39.4338   30.8336   39.7616 H   0  0  0  0  0  0  0  0  0  0  0  0
   36.2605   30.9777   42.3426 H   0  0  0  0  0  0  0  0  0  0  0  0
   37.7902   27.4492   41.0444 H   0  0  0  0  0  0  0  0  0  0  0  0
   39.2285   28.4412   40.7884 H   0  0  0  0  0  0  0  0  0  0  0  0
   41.7418   26.4815   44.6586 H   0  0  0  0  0  0  0  0  0  0  0  0
  1 13  1  0
  2  1  1  0
  3  8  2  0
  3  4  1  0
  4  5  2  0
  5  6  1  0
  5  2  1  0
  7  9  1  0
  7  6  2  0
  8  7  1  0
  9 11  1  0
 10  9  1  0
 12  9  1  0
 13 14  1  0
 14 15  2  0
 14 16  2  0
 17 14  1  0
 17 18  1  0
 18 19  2  0
 18 22  1  0
 19 20  1  0
 20 21  1  0
 22 21  2  0
  1 23  1  0
  1 24  1  0
  2 25  1  0
  2 26  1  0
  3 27  1  0
  4 28  1  0
 13 29  1  0
 17 30  1  0
 17 31  1  0
 21 32  1  0
M  ISO  8  23   8  24   8  25   8  26   8  27  14  28  14  29   5  30   8
M  ISO  2  31   8  32  14
M  END
>  <minimizedAffinity>  (1) 
-5.41466093

>  <minimizedRMSD>  (1) 
1.04609537

$$$$
