
     RDKit          3D

 28 28  0  0  0  0  0  0  0  0999 V2000
   36.9770   31.9680   40.4870 C   0  0  0  0  0  0  0  0  0  0  0  0
   40.6660   32.2610   40.8900 C   0  0  0  0  0  0  0  0  0  0  0  0
   39.3600   31.7280   40.8310 C   0  0  0  0  0  0  0  0  0  0  0  0
   38.3010   32.5500   40.5470 C   0  0  0  0  0  0  0  0  0  0  0  0
   38.5460   33.8560   40.3340 N   0  0  0  0  0  0  0  0  0  0  0  0
   39.7830   34.3690   40.3890 C   0  0  0  0  0  0  0  0  0  0  0  0
   40.8620   33.5910   40.6650 N   0  0  0  0  0  0  0  0  0  0  0  0
   39.7930   35.8340   40.1350 C   0  0  0  0  0  0  0  0  0  0  0  0
   40.7530   36.1780   39.2220 F   0  0  0  0  0  0  0  0  0  0  0  0
   40.0370   36.5090   41.3390 F   0  0  0  0  0  0  0  0  0  0  0  0
   38.5320   36.2750   39.7670 F   0  0  0  0  0  0  0  0  0  0  0  0
   36.8440   30.5100   40.5340 C   0  0  0  0  0  0  0  0  0  0  0  0
   36.2650   30.0670   41.8600 N   0  0  0  0  0  0  0  0  0  0  0  0
   37.2930   28.7780   42.3560 S   0  0  0  0  0  0  0  0  0  0  0  0
   38.2450   29.3180   43.4030 O   0  0  0  0  0  0  0  0  0  0  0  0
   36.4500   27.7040   43.0120 O   0  0  0  0  0  0  0  0  0  0  0  0
   38.2330   28.0300   41.0780 C   0  0  0  0  0  0  0  0  0  0  0  0
   37.3230   26.6210   40.3760 S   0  0  0  0  0  0  0  0  0  0  0  0
   36.5185   32.3042   39.5453 H   0  0  0  0  0  0  0  0  0  0  0  0
   36.4944   32.3090   41.4148 H   0  0  0  0  0  0  0  0  0  0  0  0
   41.5207   31.6066   41.1163 H   0  0  0  0  0  0  0  0  0  0  0  0
   39.1930   30.6560   41.0125 H   0  0  0  0  0  0  0  0  0  0  0  0
   36.1784   30.1820   39.7220 H   0  0  0  0  0  0  0  0  0  0  0  0
   37.8410   30.0605   40.4162 H   0  0  0  0  0  0  0  0  0  0  0  0
   36.2871   30.8366   42.5442 H   0  0  0  0  0  0  0  0  0  0  0  0
   38.4249   28.7698   40.2868 H   0  0  0  0  0  0  0  0  0  0  0  0
   39.1860   27.6717   41.4945 H   0  0  0  0  0  0  0  0  0  0  0  0
   36.8239   25.8482   41.3912 H   0  0  0  0  0  0  0  0  0  0  0  0
  1 12  1  0
  1  4  1  0
  3  2  2  0
  4  3  1  0
  5  6  1  0
  5  4  2  0
  6  7  2  0
  7  2  1  0
  8  6  1  0
  8 10  1  0
  9  8  1  0
 11  8  1  0
 12 13  1  0
 13 14  1  0
 14 16  2  0
 14 15  2  0
 17 14  1  0
 18 17  1  0
  1 19  1  0
  1 20  1  0
  2 21  1  0
  3 22  1  0
 12 23  1  0
 12 24  1  0
 13 25  1  0
 17 26  1  0
 17 27  1  0
 18 28  1  0
M  ISO  8  19   8  20   8  21  14  22  14  23   8  24   8  25   5  26   8
M  ISO  2  27   8  28  11
M  END
>  <minimizedAffinity>  (1) 
-4.78940582

>  <minimizedRMSD>  (1) 
0.244417906

$$$$
