
     RDKit          3D

 14 14  0  0  0  0  0  0  0  0999 V2000
   39.0550   29.6090   42.2880 C   0  0  0  0  0  0  0  0  0  0  0  0
   38.7690   28.2280   42.4880 C   0  0  0  0  0  0  0  0  0  0  0  0
   37.4760   27.7920   42.2590 C   0  0  0  0  0  0  0  0  0  0  0  0
   36.5210   28.7040   41.8480 N   0  0  0  0  0  0  0  0  0  0  0  0
   36.8360   30.0000   41.6720 C   0  0  0  0  0  0  0  0  0  0  0  0
   38.0840   30.4480   41.8890 N   0  0  0  0  0  0  0  0  0  0  0  0
   35.7880   30.8770   41.2460 N   0  0  0  0  0  0  0  0  0  0  0  0
   37.1170   26.4000   42.4420 C   0  0  0  0  0  0  0  0  0  0  0  0
   38.0240   25.5290   42.4890 O   0  0  0  0  0  0  0  0  0  0  0  0
   40.0726   29.9894   42.4605 H   0  0  0  0  0  0  0  0  0  0  0  0
   39.5529   27.5289   42.8148 H   0  0  0  0  0  0  0  0  0  0  0  0
   35.9821   31.8777   41.0981 H   0  0  0  0  0  0  0  0  0  0  0  0
   34.8398   30.5074   41.0873 H   0  0  0  0  0  0  0  0  0  0  0  0
   36.0611   26.1074   42.5390 H   0  0  0  0  0  0  0  0  0  0  0  0
  1  2  2  0
  3  8  1  0
  3  2  1  0
  4  3  2  0
  5  4  1  0
  5  6  2  0
  6  1  1  0
  7  5  1  0
  8  9  2  0
  1 10  1  0
  2 11  1  0
  7 12  1  0
  7 13  1  0
  8 14  1  0
M  ISO  3  10  14  11  14  14   6
M  END
>  <minimizedAffinity>  (1) 
-3.2761662

>  <minimizedRMSD>  (1) 
1.15337849

$$$$
