
     RDKit          3D

 29 29  0  0  0  0  0  0  0  0999 V2000
   36.9750   31.9630   40.4780 C   0  0  0  0  0  0  0  0  0  0  0  0
   40.6630   32.2630   40.8870 C   0  0  0  0  0  0  0  0  0  0  0  0
   39.3530   31.7310   40.8290 C   0  0  0  0  0  0  0  0  0  0  0  0
   38.2920   32.5530   40.5440 C   0  0  0  0  0  0  0  0  0  0  0  0
   38.5460   33.8560   40.3310 N   0  0  0  0  0  0  0  0  0  0  0  0
   39.7810   34.3680   40.3850 C   0  0  0  0  0  0  0  0  0  0  0  0
   40.8580   33.5890   40.6620 N   0  0  0  0  0  0  0  0  0  0  0  0
   39.7950   35.8330   40.1330 C   0  0  0  0  0  0  0  0  0  0  0  0
   40.7560   36.1790   39.2230 F   0  0  0  0  0  0  0  0  0  0  0  0
   40.0370   36.5070   41.3360 F   0  0  0  0  0  0  0  0  0  0  0  0
   38.5340   36.2770   39.7680 F   0  0  0  0  0  0  0  0  0  0  0  0
   36.8420   30.5060   40.5360 C   0  0  0  0  0  0  0  0  0  0  0  0
   36.2630   30.0650   41.8660 N   0  0  0  0  0  0  0  0  0  0  0  0
   37.3060   28.7950   42.3740 S   0  0  0  0  0  0  0  0  0  0  0  0
   38.2590   29.3570   43.4070 O   0  0  0  0  0  0  0  0  0  0  0  0
   36.4920   27.7120   43.0490 O   0  0  0  0  0  0  0  0  0  0  0  0
   38.2570   28.0380   41.0990 C   0  0  0  0  0  0  0  0  0  0  0  0
   37.6960   26.7460   40.7160 N   0  0  0  0  0  0  0  0  0  0  0  0
   36.5236   32.2896   39.5296 H   0  0  0  0  0  0  0  0  0  0  0  0
   36.4871   32.3075   41.4017 H   0  0  0  0  0  0  0  0  0  0  0  0
   41.5174   31.6079   41.1126 H   0  0  0  0  0  0  0  0  0  0  0  0
   39.1854   30.6594   41.0122 H   0  0  0  0  0  0  0  0  0  0  0  0
   36.1764   30.1732   39.7260 H   0  0  0  0  0  0  0  0  0  0  0  0
   37.8405   30.0585   40.4232 H   0  0  0  0  0  0  0  0  0  0  0  0
   36.2726   30.8400   42.5444 H   0  0  0  0  0  0  0  0  0  0  0  0
   38.2681   28.6988   40.2197 H   0  0  0  0  0  0  0  0  0  0  0  0
   39.2774   27.8757   41.4763 H   0  0  0  0  0  0  0  0  0  0  0  0
   37.4626   26.2084   41.5630 H   0  0  0  0  0  0  0  0  0  0  0  0
   36.8434   26.8939   40.1574 H   0  0  0  0  0  0  0  0  0  0  0  0
  1 12  1  0
  1  4  1  0
  3  2  2  0
  4  3  1  0
  5  6  1  0
  5  4  2  0
  6  7  2  0
  7  2  1  0
  8  6  1  0
  8 10  1  0
  9  8  1  0
 11  8  1  0
 12 13  1  0
 13 14  1  0
 14 16  2  0
 14 15  2  0
 17 14  1  0
 18 17  1  0
  1 19  1  0
  1 20  1  0
  2 21  1  0
  3 22  1  0
 12 23  1  0
 12 24  1  0
 13 25  1  0
 17 26  1  0
 17 27  1  0
 18 28  1  0
 18 29  1  0
M  ISO  8  19   8  20   8  21  14  22  14  23   8  24   8  25   5  26   8
M  ISO  3  27   8  28   5  29   5
M  END
>  <minimizedAffinity>  (1) 
-4.77199888

>  <minimizedRMSD>  (1) 
0.267194211

$$$$
