
     RDKit          3D

 23 24  0  0  0  0  0  0  0  0999 V2000
   37.1500   28.2000   41.1050 C   0  0  0  0  0  0  0  0  0  0  0  0
   35.8750   28.5360   40.5900 C   0  0  0  0  0  0  0  0  0  0  0  0
   35.5290   29.9010   40.5370 C   0  0  0  0  0  0  0  0  0  0  0  0
   36.4500   30.8160   40.9890 N   0  0  0  0  0  0  0  0  0  0  0  0
   37.6500   30.4440   41.4700 C   0  0  0  0  0  0  0  0  0  0  0  0
   37.9970   29.1440   41.5280 N   0  0  0  0  0  0  0  0  0  0  0  0
   37.5330   26.7870   41.1710 C   0  0  0  0  0  0  0  0  0  0  0  0
   37.0620   26.1880   42.4840 C   0  0  0  0  0  0  0  0  0  0  0  0
   36.9350   24.7190   42.2040 C   0  0  0  0  0  0  0  0  0  0  0  0
   37.2060   24.5360   40.7150 C   0  0  0  0  0  0  0  0  0  0  0  0
   36.7880   25.9150   40.1870 C   0  0  0  0  0  0  0  0  0  0  0  0
   35.1784   27.7585   40.2432 H   0  0  0  0  0  0  0  0  0  0  0  0
   34.5528   30.2241   40.1463 H   0  0  0  0  0  0  0  0  0  0  0  0
   38.3564   31.2110   41.8202 H   0  0  0  0  0  0  0  0  0  0  0  0
   38.6194   26.7946   40.9988 H   0  0  0  0  0  0  0  0  0  0  0  0
   37.7987   26.3696   43.2804 H   0  0  0  0  0  0  0  0  0  0  0  0
   36.1163   26.6307   42.8298 H   0  0  0  0  0  0  0  0  0  0  0  0
   37.6704   24.1545   42.7961 H   0  0  0  0  0  0  0  0  0  0  0  0
   35.9354   24.3479   42.4745 H   0  0  0  0  0  0  0  0  0  0  0  0
   38.2682   24.3297   40.5173 H   0  0  0  0  0  0  0  0  0  0  0  0
   36.6798   23.6878   40.2527 H   0  0  0  0  0  0  0  0  0  0  0  0
   37.1260   26.0796   39.1532 H   0  0  0  0  0  0  0  0  0  0  0  0
   35.7033   26.0888   40.1310 H   0  0  0  0  0  0  0  0  0  0  0  0
  1  7  1  0
  1  6  1  0
  2  1  2  0
  3  2  1  0
  3  4  2  0
  4  5  1  0
  5  6  2  0
  7  8  1  0
  9  8  1  0
 10  9  1  0
 11 10  1  0
 11  7  1  0
  2 12  1  0
  3 13  1  0
  5 14  1  0
  7 15  1  0
  8 16  1  0
  8 17  1  0
  9 18  1  0
  9 19  1  0
 10 20  1  0
 10 21  1  0
 11 22  1  0
 11 23  1  0
M  ISO  8  12  14  13  14  14  14  15  13  16  13  17  13  18  13  19  13
M  ISO  4  20  13  21  13  22  13  23  13
M  END
>  <minimizedAffinity>  (1) 
-3.59941411

>  <minimizedRMSD>  (1) 
4.60890627

$$$$
