
     RDKit          3D

 13 13  0  0  0  0  0  0  0  0999 V2000
   38.9460   28.9240   42.9650 C   0  0  0  0  0  0  0  0  0  0  0  0
   38.5700   27.5490   43.0340 C   0  0  0  0  0  0  0  0  0  0  0  0
   37.3090   27.1880   42.5700 C   0  0  0  0  0  0  0  0  0  0  0  0
   36.4890   28.1690   42.0680 N   0  0  0  0  0  0  0  0  0  0  0  0
   36.8720   29.4480   42.0180 C   0  0  0  0  0  0  0  0  0  0  0  0
   38.0850   29.8250   42.4590 N   0  0  0  0  0  0  0  0  0  0  0  0
   35.9420   30.3950   41.4760 N   0  0  0  0  0  0  0  0  0  0  0  0
   36.8250   25.9090   42.5790 O   0  0  0  0  0  0  0  0  0  0  0  0
   39.9349   29.2453   43.3238 H   0  0  0  0  0  0  0  0  0  0  0  0
   39.2586   26.7950   43.4430 H   0  0  0  0  0  0  0  0  0  0  0  0
   36.1962   31.3915   41.4187 H   0  0  0  0  0  0  0  0  0  0  0  0
   35.0197   30.0789   41.1440 H   0  0  0  0  0  0  0  0  0  0  0  0
   35.9167   25.7210   42.2330 H   0  0  0  0  0  0  0  0  0  0  0  0
  1  2  2  0
  3  8  1  0
  3  2  1  0
  4  3  2  0
  5  4  1  0
  5  6  2  0
  6  1  1  0
  7  5  1  0
  1  9  1  0
  2 10  1  0
  7 11  1  0
  7 12  1  0
  8 13  1  0
M  ISO  3   9  14  10  14  13   3
M  END
>  <minimizedAffinity>  (1) 
-3.19884777

>  <minimizedRMSD>  (1) 
0.710792422

$$$$
