
     RDKit          3D

 33 35  0  0  1  0  0  0  0  0999 V2000
   37.4850   26.1010   40.7740 C   0  0  1  0  0  0  0  0  0  0  0  0
   36.9890   24.7820   41.3750 C   0  0  0  0  0  0  0  0  0  0  0  0
   36.3850   24.0710   40.2130 C   0  0  0  0  0  0  0  0  0  0  0  0
   36.3940   25.0420   39.0320 C   0  0  0  0  0  0  0  0  0  0  0  0
   36.4370   26.3910   39.7660 C   0  0  2  0  0  0  0  0  0  0  0  0
   37.6320   27.0990   41.8300 C   0  0  0  0  0  0  0  0  0  0  0  0
   36.7680   26.9940   42.9570 C   0  0  0  0  0  0  0  0  0  0  0  0
   36.9160   27.9460   43.9810 C   0  0  0  0  0  0  0  0  0  0  0  0
   37.8940   28.9130   43.8100 N   0  0  0  0  0  0  0  0  0  0  0  0
   38.6790   28.9640   42.7280 C   0  0  0  0  0  0  0  0  0  0  0  0
   38.5480   28.0550   41.7370 N   0  0  0  0  0  0  0  0  0  0  0  0
   36.6640   27.4980   38.9020 N   0  0  0  0  0  0  0  0  0  0  0  0
   37.5820   27.4820   37.8920 C   0  0  0  0  0  0  0  0  0  0  0  0
   37.7770   28.5800   37.0690 C   0  0  0  0  0  0  0  0  0  0  0  0
   37.0310   29.7260   37.2630 C   0  0  0  0  0  0  0  0  0  0  0  0
   37.1890   30.7450   36.5240 O   0  0  0  0  0  0  0  0  0  0  0  0
   36.1270   29.7020   38.2790 N   0  0  0  0  0  0  0  0  0  0  0  0
   35.9520   28.6270   39.0690 C   0  0  0  0  0  0  0  0  0  0  0  0
   35.0860   28.7980   39.9350 O   0  0  0  0  0  0  0  0  0  0  0  0
   38.4810   26.0817   40.3075 H   0  0  0  0  0  0  0  0  0  0  0  0
   37.8244   24.2045   41.7975 H   0  0  0  0  0  0  0  0  0  0  0  0
   36.2781   24.9300   42.2013 H   0  0  0  0  0  0  0  0  0  0  0  0
   36.9772   23.1765   39.9696 H   0  0  0  0  0  0  0  0  0  0  0  0
   35.3592   23.7479   40.4441 H   0  0  0  0  0  0  0  0  0  0  0  0
   35.4852   24.9432   38.4202 H   0  0  0  0  0  0  0  0  0  0  0  0
   37.2182   24.8850   38.3206 H   0  0  0  0  0  0  0  0  0  0  0  0
   35.4930   26.7236   40.2224 H   0  0  0  0  0  0  0  0  0  0  0  0
   36.0125   26.1973   43.0240 H   0  0  0  0  0  0  0  0  0  0  0  0
   36.2823   27.9242   44.8799 H   0  0  0  0  0  0  0  0  0  0  0  0
   39.4393   29.7545   42.6442 H   0  0  0  0  0  0  0  0  0  0  0  0
   38.1821   26.5750   37.7271 H   0  0  0  0  0  0  0  0  0  0  0  0
   38.5244   28.5388   36.2630 H   0  0  0  0  0  0  0  0  0  0  0  0
   35.5535   30.5402   38.4505 H   0  0  0  0  0  0  0  0  0  0  0  0
  1  2  1  0
  1  6  1  0
  3  2  1  0
  4  5  1  0
  4  3  1  0
  5  1  1  0
  6  7  2  0
  7  8  1  0
  9  8  2  0
 10  9  1  0
 11  6  1  0
 11 10  2  0
 12 18  1  0
 12  5  1  0
 13 12  1  0
 14 15  1  0
 14 13  2  0
 15 17  1  0
 16 15  2  0
 17 18  1  0
 18 19  2  0
  1 20  1  6
  2 21  1  0
  2 22  1  0
  3 23  1  0
  3 24  1  0
  4 25  1  0
  4 26  1  0
  5 27  1  1
  7 28  1  0
  8 29  1  0
 10 30  1  0
 13 31  1  0
 14 32  1  0
 17 33  1  0
M  ISO  8  20  13  21  13  22  13  23  13  24  13  25  13  26  13  27  13
M  ISO  6  28  14  29  14  30  14  31  14  32  14  33   9
M  END
>  <minimizedAffinity>  (1) 
-4.69816399

>  <minimizedRMSD>  (1) 
2.60262275

$$$$
