
     RDKit          3D

 33 35  0  0  1  0  0  0  0  0999 V2000
   37.5710   26.7820   41.1260 C   0  0  1  0  0  0  0  0  0  0  0  0
   37.0830   26.2340   42.4790 C   0  0  0  0  0  0  0  0  0  0  0  0
   36.8390   24.7810   42.1840 C   0  0  0  0  0  0  0  0  0  0  0  0
   37.0990   24.5830   40.7010 C   0  0  0  0  0  0  0  0  0  0  0  0
   36.7300   25.9870   40.1890 C   0  0  2  0  0  0  0  0  0  0  0  0
   37.3550   28.2260   41.0890 C   0  0  0  0  0  0  0  0  0  0  0  0
   36.0220   28.6950   40.9380 C   0  0  0  0  0  0  0  0  0  0  0  0
   35.7860   30.0810   40.9030 C   0  0  0  0  0  0  0  0  0  0  0  0
   36.8920   30.9050   41.0230 N   0  0  0  0  0  0  0  0  0  0  0  0
   38.1410   30.4060   41.1660 C   0  0  0  0  0  0  0  0  0  0  0  0
   38.3760   29.0690   41.1990 N   0  0  0  0  0  0  0  0  0  0  0  0
   37.0700   26.1630   38.7680 C   0  0  0  0  0  0  0  0  0  0  0  0
   35.9950   26.4440   37.9190 C   0  0  0  0  0  0  0  0  0  0  0  0
   36.2030   26.6300   36.5590 C   0  0  0  0  0  0  0  0  0  0  0  0
   37.4820   26.5320   36.0650 C   0  0  0  0  0  0  0  0  0  0  0  0
   38.5610   26.2590   36.8610 C   0  0  0  0  0  0  0  0  0  0  0  0
   38.3350   26.0780   38.2120 C   0  0  0  0  0  0  0  0  0  0  0  0
   38.6411   26.6794   40.8928 H   0  0  0  0  0  0  0  0  0  0  0  0
   37.8518   26.3564   43.2561 H   0  0  0  0  0  0  0  0  0  0  0  0
   36.1935   26.7547   42.8634 H   0  0  0  0  0  0  0  0  0  0  0  0
   37.5234   24.1548   42.7751 H   0  0  0  0  0  0  0  0  0  0  0  0
   35.8100   24.4932   42.4455 H   0  0  0  0  0  0  0  0  0  0  0  0
   38.1515   24.3358   40.4983 H   0  0  0  0  0  0  0  0  0  0  0  0
   36.5457   23.7542   40.2351 H   0  0  0  0  0  0  0  0  0  0  0  0
   35.6628   26.2535   40.1928 H   0  0  0  0  0  0  0  0  0  0  0  0
   35.1870   27.9843   40.8498 H   0  0  0  0  0  0  0  0  0  0  0  0
   34.7718   30.4905   40.7860 H   0  0  0  0  0  0  0  0  0  0  0  0
   38.9884   31.1013   41.2580 H   0  0  0  0  0  0  0  0  0  0  0  0
   34.9779   26.5182   38.3314 H   0  0  0  0  0  0  0  0  0  0  0  0
   35.3594   26.8518   35.8888 H   0  0  0  0  0  0  0  0  0  0  0  0
   37.6446   26.6789   34.9870 H   0  0  0  0  0  0  0  0  0  0  0  0
   39.5744   26.1861   36.4394 H   0  0  0  0  0  0  0  0  0  0  0  0
   39.1899   25.8588   38.8686 H   0  0  0  0  0  0  0  0  0  0  0  0
  1  2  1  0
  3  2  1  0
  4  3  1  0
  5  4  1  0
  5  1  1  0
  6  1  1  0
  6 11  1  0
  7  6  2  0
  8  7  1  0
  8  9  2  0
  9 10  1  0
 10 11  2  0
 12  5  1  0
 13 12  2  0
 14 13  1  0
 15 14  2  0
 15 16  1  0
 16 17  2  0
 17 12  1  0
  1 18  1  6
  2 19  1  0
  2 20  1  0
  3 21  1  0
  3 22  1  0
  4 23  1  0
  4 24  1  0
  5 25  1  6
  7 26  1  0
  8 27  1  0
 10 28  1  0
 13 29  1  0
 14 30  1  0
 15 31  1  0
 16 32  1  0
 17 33  1  0
M  ISO  8  18  13  19  13  20  13  21  13  22  13  23  13  24  13  25  13
M  ISO  8  26  14  27  14  28  14  29  14  30  14  31  14  32  14  33  14
M  END
>  <minimizedAffinity>  (1) 
-4.09778929

>  <minimizedRMSD>  (1) 
0.289102614

$$$$
