
     RDKit          3D

 30 32  0  0  1  0  0  0  0  0999 V2000
   37.5450   26.7900   41.1270 C   0  0  1  0  0  0  0  0  0  0  0  0
   37.0420   26.1910   42.4510 C   0  0  0  0  0  0  0  0  0  0  0  0
   36.9310   24.7260   42.1440 C   0  0  0  0  0  0  0  0  0  0  0  0
   37.2650   24.5550   40.6720 C   0  0  0  0  0  0  0  0  0  0  0  0
   36.8320   25.9360   40.1370 C   0  0  2  0  0  0  0  0  0  0  0  0
   37.2000   28.2100   41.0900 C   0  0  0  0  0  0  0  0  0  0  0  0
   35.8870   28.5650   40.6790 C   0  0  0  0  0  0  0  0  0  0  0  0
   35.5360   29.9280   40.6460 C   0  0  0  0  0  0  0  0  0  0  0  0
   36.5080   30.8370   41.0250 N   0  0  0  0  0  0  0  0  0  0  0  0
   37.7440   30.4400   41.4080 C   0  0  0  0  0  0  0  0  0  0  0  0
   38.0790   29.1470   41.4380 N   0  0  0  0  0  0  0  0  0  0  0  0
   37.1580   26.0740   38.7560 C   0  0  0  0  0  0  0  0  0  0  0  0
   38.3240   26.0630   38.0770 C   0  0  0  0  0  0  0  0  0  0  0  0
   38.3860   26.2180   36.7220 C   0  0  0  0  0  0  0  0  0  0  0  0
   37.1140   26.3960   36.0560 C   0  0  0  0  0  0  0  0  0  0  0  0
   35.8340   26.3300   37.4520 S   0  0  0  0  0  0  0  0  0  0  0  0
   38.6305   26.7812   40.9490 H   0  0  0  0  0  0  0  0  0  0  0  0
   37.7613   26.3704   43.2636 H   0  0  0  0  0  0  0  0  0  0  0  0
   36.0945   26.6334   42.7923 H   0  0  0  0  0  0  0  0  0  0  0  0
   37.6407   24.1557   42.7613 H   0  0  0  0  0  0  0  0  0  0  0  0
   35.9192   24.3542   42.3631 H   0  0  0  0  0  0  0  0  0  0  0  0
   38.3388   24.3748   40.5153 H   0  0  0  0  0  0  0  0  0  0  0  0
   36.7809   23.6963   40.1837 H   0  0  0  0  0  0  0  0  0  0  0  0
   35.7604   26.1798   40.0906 H   0  0  0  0  0  0  0  0  0  0  0  0
   35.1598   27.7909   40.3925 H   0  0  0  0  0  0  0  0  0  0  0  0
   34.5337   30.2557   40.3329 H   0  0  0  0  0  0  0  0  0  0  0  0
   38.4871   31.1966   41.7002 H   0  0  0  0  0  0  0  0  0  0  0  0
   39.2606   25.9238   38.6368 H   0  0  0  0  0  0  0  0  0  0  0  0
   39.3393   26.2082   36.1733 H   0  0  0  0  0  0  0  0  0  0  0  0
   36.9309   26.5378   34.9807 H   0  0  0  0  0  0  0  0  0  0  0  0
  1  2  1  0
  3  2  1  0
  4  3  1  0
  5  4  1  0
  5  1  1  0
  6  1  1  0
  6 11  1  0
  7  6  2  0
  8  7  1  0
  8  9  2  0
  9 10  1  0
 10 11  2  0
 12  5  1  0
 13 12  2  0
 14 13  1  0
 15 14  2  0
 15 16  1  0
 16 12  1  0
  1 17  1  1
  2 18  1  0
  2 19  1  0
  3 20  1  0
  3 21  1  0
  4 22  1  0
  4 23  1  0
  5 24  1  6
  7 25  1  0
  8 26  1  0
 10 27  1  0
 13 28  1  0
 14 29  1  0
 15 30  1  0
M  ISO  8  17  13  18  13  19  13  20  13  21  13  22  13  23  13  24  13
M  ISO  6  25  14  26  14  27  14  28  14  29  14  30  14
M  END
>  <minimizedAffinity>  (1) 
-3.95357609

>  <minimizedRMSD>  (1) 
0.318037212

$$$$
