
     RDKit          3D

 30 32  0  0  1  0  0  0  0  0999 V2000
   37.5390   26.7880   41.1450 C   0  0  1  0  0  0  0  0  0  0  0  0
   37.0400   26.1950   42.4750 C   0  0  0  0  0  0  0  0  0  0  0  0
   36.9350   24.7220   42.1660 C   0  0  0  0  0  0  0  0  0  0  0  0
   37.2410   24.5470   40.6930 C   0  0  0  0  0  0  0  0  0  0  0  0
   36.8040   25.9300   40.1760 C   0  0  2  0  0  0  0  0  0  0  0  0
   37.2090   28.2040   41.1070 C   0  0  0  0  0  0  0  0  0  0  0  0
   35.9140   28.5710   40.7040 C   0  0  0  0  0  0  0  0  0  0  0  0
   35.5200   29.9160   40.6490 C   0  0  0  0  0  0  0  0  0  0  0  0
   36.4920   30.8300   41.0170 N   0  0  0  0  0  0  0  0  0  0  0  0
   37.7290   30.4430   41.4010 C   0  0  0  0  0  0  0  0  0  0  0  0
   38.0780   29.1460   41.4430 N   0  0  0  0  0  0  0  0  0  0  0  0
   37.1270   26.1110   38.7660 C   0  0  0  0  0  0  0  0  0  0  0  0
   38.3420   26.1280   38.1130 C   0  0  0  0  0  0  0  0  0  0  0  0
   38.1140   26.3330   36.7680 C   0  0  0  0  0  0  0  0  0  0  0  0
   36.7400   26.4300   36.6870 C   0  0  0  0  0  0  0  0  0  0  0  0
   36.1880   26.2990   37.8450 O   0  0  0  0  0  0  0  0  0  0  0  0
   38.6218   26.7757   40.9514 H   0  0  0  0  0  0  0  0  0  0  0  0
   37.7601   26.3794   43.2859 H   0  0  0  0  0  0  0  0  0  0  0  0
   36.0933   26.6360   42.8203 H   0  0  0  0  0  0  0  0  0  0  0  0
   37.6605   24.1580   42.7706 H   0  0  0  0  0  0  0  0  0  0  0  0
   35.9286   24.3458   42.4017 H   0  0  0  0  0  0  0  0  0  0  0  0
   38.3107   24.3618   40.5154 H   0  0  0  0  0  0  0  0  0  0  0  0
   36.7477   23.6900   40.2112 H   0  0  0  0  0  0  0  0  0  0  0  0
   35.7251   26.1433   40.1549 H   0  0  0  0  0  0  0  0  0  0  0  0
   35.1941   27.7872   40.4258 H   0  0  0  0  0  0  0  0  0  0  0  0
   34.5110   30.2224   40.3359 H   0  0  0  0  0  0  0  0  0  0  0  0
   38.4669   31.2075   41.6857 H   0  0  0  0  0  0  0  0  0  0  0  0
   39.3271   25.9997   38.5854 H   0  0  0  0  0  0  0  0  0  0  0  0
   38.8513   26.4025   35.9546 H   0  0  0  0  0  0  0  0  0  0  0  0
   36.1852   26.5980   35.7521 H   0  0  0  0  0  0  0  0  0  0  0  0
  1  2  1  0
  3  2  1  0
  4  3  1  0
  5  4  1  0
  5  1  1  0
  6  1  1  0
  6 11  1  0
  7  6  2  0
  8  7  1  0
  8  9  2  0
  9 10  1  0
 10 11  2  0
 12  5  1  0
 13 12  2  0
 14 13  1  0
 15 14  2  0
 15 16  1  0
 16 12  1  0
  1 17  1  6
  2 18  1  0
  2 19  1  0
  3 20  1  0
  3 21  1  0
  4 22  1  0
  4 23  1  0
  5 24  1  6
  7 25  1  0
  8 26  1  0
 10 27  1  0
 13 28  1  0
 14 29  1  0
 15 30  1  0
M  ISO  8  17  13  18  13  19  13  20  13  21  13  22  13  23  13  24  13
M  ISO  6  25  14  26  14  27  14  28  14  29  14  30  14
M  END
>  <minimizedAffinity>  (1) 
-3.89089179

>  <minimizedRMSD>  (1) 
0.0832048133

$$$$
