
     RDKit          3D

 13 13  0  0  0  0  0  0  0  0999 V2000
   39.4660   30.7160   42.1200 C   0  0  0  0  0  0  0  0  0  0  0  0
   38.9840   29.5830   42.8470 C   0  0  0  0  0  0  0  0  0  0  0  0
   37.6570   29.1930   42.6840 C   0  0  0  0  0  0  0  0  0  0  0  0
   36.8860   29.9260   41.8280 N   0  0  0  0  0  0  0  0  0  0  0  0
   37.3620   30.9800   41.1620 C   0  0  0  0  0  0  0  0  0  0  0  0
   38.6380   31.3810   41.2990 N   0  0  0  0  0  0  0  0  0  0  0  0
   36.4720   31.6940   40.2800 N   0  0  0  0  0  0  0  0  0  0  0  0
   37.0240   27.7810   43.5780 S   0  0  0  0  0  0  0  0  0  0  0  0
   40.5107   31.0412   42.2330 H   0  0  0  0  0  0  0  0  0  0  0  0
   39.6505   29.0285   43.5240 H   0  0  0  0  0  0  0  0  0  0  0  0
   35.4946   31.3865   40.1753 H   0  0  0  0  0  0  0  0  0  0  0  0
   36.8138   32.5114   39.7548 H   0  0  0  0  0  0  0  0  0  0  0  0
   37.1266   28.0098   44.9249 H   0  0  0  0  0  0  0  0  0  0  0  0
  1  2  2  0
  3  2  1  0
  3  8  1  0
  4  3  2  0
  5  6  2  0
  5  4  1  0
  6  1  1  0
  7  5  1  0
  1  9  1  0
  2 10  1  0
  7 11  1  0
  7 12  1  0
  8 13  1  0
M  ISO  3   9  14  10  14  13  11
M  END
>  <minimizedAffinity>  (1) 
-2.94283009

>  <minimizedRMSD>  (1) 
2.00567079

$$$$
