
     RDKit          3D

 35 37  0  0  1  0  0  0  0  0999 V2000
   37.6210   26.7580   41.1940 C   0  0  1  0  0  0  0  0  0  0  0  0
   37.0460   26.2250   42.5200 C   0  0  0  0  0  0  0  0  0  0  0  0
   36.8610   24.7630   42.2410 C   0  0  0  0  0  0  0  0  0  0  0  0
   37.1810   24.5480   40.7570 C   0  0  0  0  0  0  0  0  0  0  0  0
   36.8270   25.9450   40.2400 C   0  0  2  0  0  0  0  0  0  0  0  0
   37.3970   28.1980   41.1280 C   0  0  0  0  0  0  0  0  0  0  0  0
   36.0670   28.6530   40.9450 C   0  0  0  0  0  0  0  0  0  0  0  0
   35.8120   30.0350   40.8840 C   0  0  0  0  0  0  0  0  0  0  0  0
   36.9070   30.8650   41.0120 N   0  0  0  0  0  0  0  0  0  0  0  0
   38.1560   30.3860   41.1850 C   0  0  0  0  0  0  0  0  0  0  0  0
   38.3980   29.0710   41.2420 N   0  0  0  0  0  0  0  0  0  0  0  0
   37.0720   26.1590   38.8690 N   0  0  0  0  0  0  0  0  0  0  0  0
   38.0200   25.2890   38.2500 C   0  0  0  0  0  0  0  0  0  0  0  0
   37.6640   25.4010   36.7660 C   0  0  0  0  0  0  0  0  0  0  0  0
   36.4160   26.2570   36.6920 C   0  0  0  0  0  0  0  0  0  0  0  0
   35.8730   26.1060   38.1000 C   0  0  0  0  0  0  0  0  0  0  0  0
   38.7027   26.6631   41.0182 H   0  0  0  0  0  0  0  0  0  0  0  0
   37.7511   26.3836   43.3493 H   0  0  0  0  0  0  0  0  0  0  0  0
   36.1177   26.7300   42.8252 H   0  0  0  0  0  0  0  0  0  0  0  0
   37.5451   24.1694   42.8652 H   0  0  0  0  0  0  0  0  0  0  0  0
   35.8335   24.4454   42.4719 H   0  0  0  0  0  0  0  0  0  0  0  0
   38.2407   24.3024   40.5935 H   0  0  0  0  0  0  0  0  0  0  0  0
   36.6540   23.7130   40.2722 H   0  0  0  0  0  0  0  0  0  0  0  0
   35.7541   26.1876   40.2313 H   0  0  0  0  0  0  0  0  0  0  0  0
   35.2417   27.9318   40.8515 H   0  0  0  0  0  0  0  0  0  0  0  0
   34.7960   30.4321   40.7421 H   0  0  0  0  0  0  0  0  0  0  0  0
   38.9942   31.0918   41.2814 H   0  0  0  0  0  0  0  0  0  0  0  0
   39.0497   25.6276   38.4371 H   0  0  0  0  0  0  0  0  0  0  0  0
   37.9788   24.2580   38.6312 H   0  0  0  0  0  0  0  0  0  0  0  0
   38.4862   25.8775   36.2119 H   0  0  0  0  0  0  0  0  0  0  0  0
   37.4964   24.4100   36.3189 H   0  0  0  0  0  0  0  0  0  0  0  0
   36.6589   27.3053   36.4636 H   0  0  0  0  0  0  0  0  0  0  0  0
   35.7109   25.9607   35.9014 H   0  0  0  0  0  0  0  0  0  0  0  0
   35.1916   26.9297   38.3593 H   0  0  0  0  0  0  0  0  0  0  0  0
   35.2767   25.1952   38.2576 H   0  0  0  0  0  0  0  0  0  0  0  0
  1  2  1  0
  3  2  1  0
  4  3  1  0
  5  4  1  0
  5  1  1  0
  6  1  1  0
  6 11  1  0
  7  6  2  0
  8  7  1  0
  8  9  2  0
  9 10  1  0
 10 11  2  0
 12 13  1  0
 12  5  1  0
 14 13  1  0
 15 14  1  0
 15 16  1  0
 16 12  1  0
  1 17  1  1
  2 18  1  0
  2 19  1  0
  3 20  1  0
  3 21  1  0
  4 22  1  0
  4 23  1  0
  5 24  1  6
  7 25  1  0
  8 26  1  0
 10 27  1  0
 13 28  1  0
 13 29  1  0
 14 30  1  0
 14 31  1  0
 15 32  1  0
 15 33  1  0
 16 34  1  0
 16 35  1  0
M  ISO  8  17  13  18  13  19  13  20  13  21  13  22  13  23  13  24  13
M  ISO  8  25  14  26  14  27  14  28  13  29  13  30  13  31  13  32  13
M  ISO  3  33  13  34  13  35  13
M  END
>  <minimizedAffinity>  (1) 
-3.76593781

>  <minimizedRMSD>  (1) 
0.35142222

$$$$
