
     RDKit          3D

 30 32  0  0  1  0  0  0  0  0999 V2000
   37.6250   26.8150   41.2060 C   0  0  1  0  0  0  0  0  0  0  0  0
   36.9950   26.2060   42.4710 C   0  0  0  0  0  0  0  0  0  0  0  0
   36.9730   24.7320   42.1720 C   0  0  0  0  0  0  0  0  0  0  0  0
   37.4570   24.5590   40.7430 C   0  0  0  0  0  0  0  0  0  0  0  0
   37.0680   25.9300   40.1520 C   0  0  2  0  0  0  0  0  0  0  0  0
   37.2360   28.2180   41.1000 C   0  0  0  0  0  0  0  0  0  0  0  0
   35.9100   28.5160   40.6940 C   0  0  0  0  0  0  0  0  0  0  0  0
   35.5730   29.8860   40.6210 C   0  0  0  0  0  0  0  0  0  0  0  0
   36.5320   30.8270   40.9410 N   0  0  0  0  0  0  0  0  0  0  0  0
   37.7830   30.4700   41.3210 C   0  0  0  0  0  0  0  0  0  0  0  0
   38.1310   29.1800   41.3990 N   0  0  0  0  0  0  0  0  0  0  0  0
   37.7300   26.1040   38.8800 N   0  0  0  0  0  0  0  0  0  0  0  0
   39.0600   25.9050   38.7180 C   0  0  0  0  0  0  0  0  0  0  0  0
   39.3020   26.1670   37.3880 C   0  0  0  0  0  0  0  0  0  0  0  0
   38.1450   26.5070   36.8010 N   0  0  0  0  0  0  0  0  0  0  0  0
   37.1860   26.4660   37.7230 C   0  0  0  0  0  0  0  0  0  0  0  0
   38.7238   26.8471   41.1647 H   0  0  0  0  0  0  0  0  0  0  0  0
   37.6090   26.4188   43.3585 H   0  0  0  0  0  0  0  0  0  0  0  0
   35.9985   26.6145   42.6948 H   0  0  0  0  0  0  0  0  0  0  0  0
   37.6400   24.1967   42.8637 H   0  0  0  0  0  0  0  0  0  0  0  0
   35.9593   24.3228   42.2943 H   0  0  0  0  0  0  0  0  0  0  0  0
   38.5431   24.3902   40.6988 H   0  0  0  0  0  0  0  0  0  0  0  0
   37.0321   23.6927   40.2148 H   0  0  0  0  0  0  0  0  0  0  0  0
   36.0013   26.0991   39.9433 H   0  0  0  0  0  0  0  0  0  0  0  0
   35.1853   27.7253   40.4499 H   0  0  0  0  0  0  0  0  0  0  0  0
   34.5637   30.1981   40.3144 H   0  0  0  0  0  0  0  0  0  0  0  0
   38.5199   31.2485   41.5678 H   0  0  0  0  0  0  0  0  0  0  0  0
   39.7890   25.6001   39.4833 H   0  0  0  0  0  0  0  0  0  0  0  0
   40.2810   26.1074   36.8900 H   0  0  0  0  0  0  0  0  0  0  0  0
   36.1229   26.6933   37.5555 H   0  0  0  0  0  0  0  0  0  0  0  0
  1  2  1  0
  3  2  1  0
  4  3  1  0
  5  4  1  0
  5  1  1  0
  6  1  1  0
  6 11  1  0
  7  6  2  0
  8  7  1  0
  8  9  2  0
  9 10  1  0
 10 11  2  0
 12  5  1  0
 13 12  1  0
 14 13  2  0
 15 14  1  0
 15 16  2  0
 16 12  1  0
  1 17  1  1
  2 18  1  0
  2 19  1  0
  3 20  1  0
  3 21  1  0
  4 22  1  0
  4 23  1  0
  5 24  1  6
  7 25  1  0
  8 26  1  0
 10 27  1  0
 13 28  1  0
 14 29  1  0
 16 30  1  0
M  ISO  8  17  13  18  13  19  13  20  13  21  13  22  13  23  13  24  13
M  ISO  6  25  14  26  14  27  14  28  14  29  14  30  14
M  END
>  <minimizedAffinity>  (1) 
-3.73322487

>  <minimizedRMSD>  (1) 
0.339830071

$$$$
