
     RDKit          3D

 26 27  0  0  1  0  0  0  0  0999 V2000
   37.5440   26.7840   41.2020 C   0  0  1  0  0  0  0  0  0  0  0  0
   37.0100   26.1740   42.5040 C   0  0  0  0  0  0  0  0  0  0  0  0
   36.9510   24.7120   42.2040 C   0  0  0  0  0  0  0  0  0  0  0  0
   37.2630   24.5290   40.7390 C   0  0  0  0  0  0  0  0  0  0  0  0
   36.9210   25.9160   40.1740 C   0  0  2  0  0  0  0  0  0  0  0  0
   37.2020   28.1960   41.1310 C   0  0  0  0  0  0  0  0  0  0  0  0
   35.9140   28.5330   40.6850 C   0  0  0  0  0  0  0  0  0  0  0  0
   35.5330   29.8830   40.6070 C   0  0  0  0  0  0  0  0  0  0  0  0
   36.4910   30.8070   40.9880 N   0  0  0  0  0  0  0  0  0  0  0  0
   37.7150   30.4350   41.4090 C   0  0  0  0  0  0  0  0  0  0  0  0
   38.0790   29.1300   41.4840 N   0  0  0  0  0  0  0  0  0  0  0  0
   37.7270   26.0400   38.9030 C   0  0  0  0  0  0  0  0  0  0  0  0
   38.6377   26.7975   41.0857 H   0  0  0  0  0  0  0  0  0  0  0  0
   37.6929   26.3763   43.3423 H   0  0  0  0  0  0  0  0  0  0  0  0
   36.0371   26.5897   42.8051 H   0  0  0  0  0  0  0  0  0  0  0  0
   37.6917   24.1745   42.8144 H   0  0  0  0  0  0  0  0  0  0  0  0
   35.9533   24.3117   42.4374 H   0  0  0  0  0  0  0  0  0  0  0  0
   38.3235   24.2822   40.5823 H   0  0  0  0  0  0  0  0  0  0  0  0
   36.7116   23.7042   40.2640 H   0  0  0  0  0  0  0  0  0  0  0  0
   35.8600   26.1282   39.9761 H   0  0  0  0  0  0  0  0  0  0  0  0
   35.2053   27.7423   40.3975 H   0  0  0  0  0  0  0  0  0  0  0  0
   34.5333   30.1876   40.2637 H   0  0  0  0  0  0  0  0  0  0  0  0
   38.4393   31.2101   41.6999 H   0  0  0  0  0  0  0  0  0  0  0  0
   38.7854   26.2028   39.1544 H   0  0  0  0  0  0  0  0  0  0  0  0
   37.6279   25.1160   38.3144 H   0  0  0  0  0  0  0  0  0  0  0  0
   37.3548   26.8914   38.3144 H   0  0  0  0  0  0  0  0  0  0  0  0
  1  2  1  0
  3  2  1  0
  4  3  1  0
  5  4  1  0
  5  1  1  0
  6  1  1  0
  6 11  1  0
  7  6  2  0
  8  7  1  0
  8  9  2  0
  9 10  1  0
 10 11  2  0
 12  5  1  0
  1 13  1  1
  2 14  1  0
  2 15  1  0
  3 16  1  0
  3 17  1  0
  4 18  1  0
  4 19  1  0
  5 20  1  6
  7 21  1  0
  8 22  1  0
 10 23  1  0
 12 24  1  0
 12 25  1  0
 12 26  1  0
M  ISO  8  13  13  14  13  15  13  16  13  17  13  18  13  19  13  20  13
M  ISO  6  21  14  22  14  23  14  24   8  25   8  26   8
M  END
>  <minimizedAffinity>  (1) 
-3.72395539

>  <minimizedRMSD>  (1) 
0.0701828524

$$$$
