
     RDKit          3D

 30 31  0  0  1  0  0  0  0  0999 V2000
   37.6630   26.8690   41.3460 C   0  0  1  0  0  0  0  0  0  0  0  0
   36.8990   26.2020   42.5030 C   0  0  0  0  0  0  0  0  0  0  0  0
   37.0110   24.7310   42.1960 C   0  0  0  0  0  0  0  0  0  0  0  0
   37.7970   24.6210   40.8870 C   0  0  0  0  0  0  0  0  0  0  0  0
   37.3390   25.9340   40.2410 C   0  0  2  0  0  0  0  0  0  0  0  0
   37.1870   28.2320   41.1800 C   0  0  0  0  0  0  0  0  0  0  0  0
   35.8780   28.4270   40.7090 C   0  0  0  0  0  0  0  0  0  0  0  0
   35.3510   29.7130   40.5280 C   0  0  0  0  0  0  0  0  0  0  0  0
   36.2010   30.7480   40.8400 N   0  0  0  0  0  0  0  0  0  0  0  0
   37.4630   30.5320   41.2940 C   0  0  0  0  0  0  0  0  0  0  0  0
   37.9530   29.2780   41.4630 N   0  0  0  0  0  0  0  0  0  0  0  0
   37.8890   26.1820   38.9680 N   0  0  0  0  0  0  0  0  0  0  0  0
   36.9960   26.2820   37.8650 C   0  0  0  0  0  0  0  0  0  0  0  0
   35.7300   26.0420   37.8980 N   0  0  0  0  0  0  0  0  0  0  0  0
   37.5370   26.6830   36.5880 N   0  0  0  0  0  0  0  0  0  0  0  0
   35.1060   26.1210   37.0880 H   0  0  0  0  0  0  0  0  0  0  0  0
   38.7494   27.0003   41.4577 H   0  0  0  0  0  0  0  0  0  0  0  0
   37.3658   26.4385   43.4706 H   0  0  0  0  0  0  0  0  0  0  0  0
   35.8569   26.5451   42.5827 H   0  0  0  0  0  0  0  0  0  0  0  0
   37.5461   24.2131   43.0056 H   0  0  0  0  0  0  0  0  0  0  0  0
   36.0183   24.2660   42.1052 H   0  0  0  0  0  0  0  0  0  0  0  0
   38.8837   24.5984   41.0559 H   0  0  0  0  0  0  0  0  0  0  0  0
   37.6205   23.7095   40.2971 H   0  0  0  0  0  0  0  0  0  0  0  0
   36.2838   25.9920   39.9357 H   0  0  0  0  0  0  0  0  0  0  0  0
   35.2533   27.5517   40.4773 H   0  0  0  0  0  0  0  0  0  0  0  0
   34.3278   29.8828   40.1616 H   0  0  0  0  0  0  0  0  0  0  0  0
   38.1032   31.3947   41.5304 H   0  0  0  0  0  0  0  0  0  0  0  0
   38.9055   26.2876   38.8398 H   0  0  0  0  0  0  0  0  0  0  0  0
   38.5420   26.8890   36.4962 H   0  0  0  0  0  0  0  0  0  0  0  0
   36.9180   26.7631   35.7687 H   0  0  0  0  0  0  0  0  0  0  0  0
  1  2  1  0
  3  2  1  0
  4  3  1  0
  5  4  1  0
  5  1  1  0
  6  1  1  0
  6 11  1  0
  7  6  2  0
  8  7  1  0
  8  9  2  0
  9 10  1  0
 10 11  2  0
 12  5  1  0
 13 14  2  0
 13 12  1  0
 15 13  1  0
 16 14  1  0
  1 17  1  1
  2 18  1  0
  2 19  1  0
  3 20  1  0
  3 21  1  0
  4 22  1  0
  4 23  1  0
  5 24  1  6
  7 25  1  0
  8 26  1  0
 10 27  1  0
 12 28  1  0
 15 29  1  0
 15 30  1  0
M  ISO  8  17  13  18  13  19  13  20  13  21  13  22  13  23  13  24  13
M  ISO  3  25  14  26  14  27  14
M  END
>  <minimizedAffinity>  (1) 
-3.71393538

>  <minimizedRMSD>  (1) 
0.800943136

$$$$
