
     RDKit          3D

 25 26  0  0  1  0  0  0  0  0999 V2000
   37.5720   26.7840   41.2150 C   0  0  1  0  0  0  0  0  0  0  0  0
   36.9840   26.1710   42.4960 C   0  0  0  0  0  0  0  0  0  0  0  0
   36.9750   24.6990   42.1940 C   0  0  0  0  0  0  0  0  0  0  0  0
   37.3350   24.5310   40.7350 C   0  0  0  0  0  0  0  0  0  0  0  0
   36.9700   25.9150   40.1680 C   0  0  2  0  0  0  0  0  0  0  0  0
   37.2200   28.1920   41.1440 C   0  0  0  0  0  0  0  0  0  0  0  0
   35.9190   28.5190   40.6700 C   0  0  0  0  0  0  0  0  0  0  0  0
   35.5520   29.8740   40.5970 C   0  0  0  0  0  0  0  0  0  0  0  0
   36.4890   30.8000   40.9930 N   0  0  0  0  0  0  0  0  0  0  0  0
   37.7120   30.4330   41.4360 C   0  0  0  0  0  0  0  0  0  0  0  0
   38.0820   29.1300   41.5130 N   0  0  0  0  0  0  0  0  0  0  0  0
   37.6670   26.0120   38.9010 N   0  0  0  0  0  0  0  0  0  0  0  0
   38.6685   26.7988   41.1289 H   0  0  0  0  0  0  0  0  0  0  0  0
   37.6184   26.3919   43.3671 H   0  0  0  0  0  0  0  0  0  0  0  0
   35.9896   26.5674   42.7490 H   0  0  0  0  0  0  0  0  0  0  0  0
   37.7131   24.1819   42.8247 H   0  0  0  0  0  0  0  0  0  0  0  0
   35.9843   24.2677   42.4003 H   0  0  0  0  0  0  0  0  0  0  0  0
   38.4059   24.3142   40.6077 H   0  0  0  0  0  0  0  0  0  0  0  0
   36.8217   23.6936   40.2397 H   0  0  0  0  0  0  0  0  0  0  0  0
   35.9114   26.1488   39.9815 H   0  0  0  0  0  0  0  0  0  0  0  0
   35.2159   27.7290   40.3674 H   0  0  0  0  0  0  0  0  0  0  0  0
   34.5583   30.1807   40.2386 H   0  0  0  0  0  0  0  0  0  0  0  0
   38.4263   31.2114   41.7422 H   0  0  0  0  0  0  0  0  0  0  0  0
   38.6729   26.1520   39.0724 H   0  0  0  0  0  0  0  0  0  0  0  0
   37.5276   25.1435   38.3651 H   0  0  0  0  0  0  0  0  0  0  0  0
  1  2  1  0
  3  2  1  0
  4  3  1  0
  5  4  1  0
  5  1  1  0
  6  1  1  0
  6 11  1  0
  7  6  2  0
  8  7  1  0
  8  9  2  0
  9 10  1  0
 10 11  2  0
 12  5  1  0
  1 13  1  1
  2 14  1  0
  2 15  1  0
  3 16  1  0
  3 17  1  0
  4 18  1  0
  4 19  1  0
  5 20  1  6
  7 21  1  0
  8 22  1  0
 10 23  1  0
 12 24  1  0
 12 25  1  0
M  ISO  8  13  13  14  13  15  13  16  13  17  13  18  13  19  13  20  13
M  ISO  5  21  14  22  14  23  14  24   5  25   5
M  END
>  <minimizedAffinity>  (1) 
-3.63226318

>  <minimizedRMSD>  (1) 
0.101877108

$$$$
