
     RDKit          3D

 39 42  0  0  1  0  0  0  0  0999 V2000
   37.9440   28.5360   41.6010 C   0  0  1  0  0  0  0  0  0  0  0  0
   37.5230   29.0190   43.0160 C   0  0  0  0  0  0  0  0  0  0  0  0
   37.2960   27.7280   43.7290 C   0  0  0  0  0  0  0  0  0  0  0  0
   37.3000   26.6150   42.7000 C   0  0  0  0  0  0  0  0  0  0  0  0
   37.0390   27.3960   41.3920 C   0  0  2  0  0  0  0  0  0  0  0  0
   37.8210   29.6530   40.6690 C   0  0  0  0  0  0  0  0  0  0  0  0
   37.0340   30.7650   41.1090 C   0  0  0  0  0  0  0  0  0  0  0  0
   36.8940   31.8660   40.2440 C   0  0  0  0  0  0  0  0  0  0  0  0
   37.5330   31.7870   39.0250 N   0  0  0  0  0  0  0  0  0  0  0  0
   38.2620   30.7080   38.6690 C   0  0  0  0  0  0  0  0  0  0  0  0
   38.4120   29.6290   39.4920 N   0  0  0  0  0  0  0  0  0  0  0  0
   37.4100   26.5370   40.3090 N   0  0  0  0  0  0  0  0  0  0  0  0
   36.6010   26.2440   39.2040 C   0  0  0  0  0  0  0  0  0  0  0  0
   36.2950   27.0320   38.1140 C   0  0  0  0  0  0  0  0  0  0  0  0
   35.4660   26.3850   37.2430 N   0  0  0  0  0  0  0  0  0  0  0  0
   35.2260   25.1530   37.7720 C   0  0  0  0  0  0  0  0  0  0  0  0
   34.4800   24.0710   37.3600 C   0  0  0  0  0  0  0  0  0  0  0  0
   34.4310   22.9290   38.1370 C   0  0  0  0  0  0  0  0  0  0  0  0
   35.1110   22.8190   39.3310 C   0  0  0  0  0  0  0  0  0  0  0  0
   35.8530   23.9160   39.7230 C   0  0  0  0  0  0  0  0  0  0  0  0
   35.9150   25.0730   38.9590 C   0  0  0  0  0  0  0  0  0  0  0  0
   38.9862   28.2131   41.4609 H   0  0  0  0  0  0  0  0  0  0  0  0
   38.3230   29.6040   43.4932 H   0  0  0  0  0  0  0  0  0  0  0  0
   36.6478   29.6854   43.0153 H   0  0  0  0  0  0  0  0  0  0  0  0
   38.0987   27.5608   44.4623 H   0  0  0  0  0  0  0  0  0  0  0  0
   36.3340   27.7509   44.2620 H   0  0  0  0  0  0  0  0  0  0  0  0
   38.2709   26.0987   42.6717 H   0  0  0  0  0  0  0  0  0  0  0  0
   36.5661   25.8202   42.8993 H   0  0  0  0  0  0  0  0  0  0  0  0
   36.0130   27.7207   41.1642 H   0  0  0  0  0  0  0  0  0  0  0  0
   36.5514   30.7589   42.0974 H   0  0  0  0  0  0  0  0  0  0  0  0
   36.3021   32.7488   40.5273 H   0  0  0  0  0  0  0  0  0  0  0  0
   38.7511   30.6978   37.6838 H   0  0  0  0  0  0  0  0  0  0  0  0
   38.3426   26.1013   40.3450 H   0  0  0  0  0  0  0  0  0  0  0  0
   36.6720   28.0546   37.9649 H   0  0  0  0  0  0  0  0  0  0  0  0
   35.0941   26.7567   36.3573 H   0  0  0  0  0  0  0  0  0  0  0  0
   33.9231   24.1157   36.4124 H   0  0  0  0  0  0  0  0  0  0  0  0
   33.8276   22.0772   37.7901 H   0  0  0  0  0  0  0  0  0  0  0  0
   35.0650   21.9044   39.9404 H   0  0  0  0  0  0  0  0  0  0  0  0
   36.4118   23.8713   40.6695 H   0  0  0  0  0  0  0  0  0  0  0  0
  1  2  1  0
  2  3  1  0
  4  3  1  0
  5  1  1  0
  5  4  1  0
  6  7  2  0
  6  1  1  0
  8  7  1  0
  9  8  2  0
 10  9  1  0
 10 11  2  0
 11  6  1  0
 12  5  1  0
 13 12  1  0
 14 13  2  0
 15 16  1  0
 15 14  1  0
 16 21  2  0
 17 16  1  0
 17 18  2  0
 18 19  1  0
 19 20  2  0
 21 13  1  0
 21 20  1  0
  1 22  1  1
  2 23  1  0
  2 24  1  0
  3 25  1  0
  3 26  1  0
  4 27  1  0
  4 28  1  0
  5 29  1  6
  7 30  1  0
  8 31  1  0
 10 32  1  0
 12 33  1  0
 14 34  1  0
 15 35  1  0
 17 36  1  0
 18 37  1  0
 19 38  1  0
 20 39  1  0
M  ISO  8  22  13  23  13  24  13  25  13  26  13  27  13  28  13  29  13
M  ISO  8  30  14  31  14  32  14  34  14  35   9  36  14  37  14  38  14
M  ISO  1  39  14
M  END
>  <minimizedAffinity>  (1) 
-4.7608037

>  <minimizedRMSD>  (1) 
3.43961096

$$$$
