
     RDKit          3D

 36 39  0  0  1  0  0  0  0  0999 V2000
   37.4680   26.7310   41.2540 C   0  0  1  0  0  0  0  0  0  0  0  0
   36.9280   26.1900   42.6050 C   0  0  0  0  0  0  0  0  0  0  0  0
   36.8920   24.7200   42.3580 C   0  0  0  0  0  0  0  0  0  0  0  0
   37.0800   24.4810   40.8960 C   0  0  0  0  0  0  0  0  0  0  0  0
   36.7700   25.8720   40.2850 C   0  0  2  0  0  0  0  0  0  0  0  0
   37.1550   28.1570   41.1670 C   0  0  0  0  0  0  0  0  0  0  0  0
   35.8620   28.5150   40.6640 C   0  0  0  0  0  0  0  0  0  0  0  0
   35.5580   29.8850   40.5740 C   0  0  0  0  0  0  0  0  0  0  0  0
   36.5300   30.7870   40.9770 N   0  0  0  0  0  0  0  0  0  0  0  0
   37.7270   30.3830   41.4410 C   0  0  0  0  0  0  0  0  0  0  0  0
   38.0470   29.0670   41.5390 N   0  0  0  0  0  0  0  0  0  0  0  0
   37.3300   25.8910   38.9750 N   0  0  0  0  0  0  0  0  0  0  0  0
   37.7700   28.5470   35.2390 N   0  0  0  0  0  0  0  0  0  0  0  0
   36.5100   28.0930   35.3030 C   0  0  0  0  0  0  0  0  0  0  0  0
   36.4670   27.3450   36.3990 N   0  0  0  0  0  0  0  0  0  0  0  0
   37.6940   27.3580   36.9740 C   0  0  0  0  0  0  0  0  0  0  0  0
   38.1200   26.7180   38.1340 C   0  0  0  0  0  0  0  0  0  0  0  0
   39.4070   26.9450   38.4190 N   0  0  0  0  0  0  0  0  0  0  0  0
   40.2510   27.6920   37.7170 C   0  0  0  0  0  0  0  0  0  0  0  0
   39.8290   28.3000   36.6040 N   0  0  0  0  0  0  0  0  0  0  0  0
   38.5500   28.1300   36.2380 C   0  0  0  0  0  0  0  0  0  0  0  0
   38.5554   26.6863   41.0943 H   0  0  0  0  0  0  0  0  0  0  0  0
   37.6055   26.4394   43.4349 H   0  0  0  0  0  0  0  0  0  0  0  0
   35.9560   26.6148   42.8962 H   0  0  0  0  0  0  0  0  0  0  0  0
   37.6994   24.2291   42.9212 H   0  0  0  0  0  0  0  0  0  0  0  0
   35.9275   24.3058   42.6869 H   0  0  0  0  0  0  0  0  0  0  0  0
   38.1115   24.1702   40.6736 H   0  0  0  0  0  0  0  0  0  0  0  0
   36.4443   23.6762   40.4983 H   0  0  0  0  0  0  0  0  0  0  0  0
   35.7186   26.1673   40.1537 H   0  0  0  0  0  0  0  0  0  0  0  0
   35.1350   27.7475   40.3599 H   0  0  0  0  0  0  0  0  0  0  0  0
   34.5834   30.2286   40.1971 H   0  0  0  0  0  0  0  0  0  0  0  0
   38.4651   31.1383   41.7488 H   0  0  0  0  0  0  0  0  0  0  0  0
   37.0811   25.0244   38.4771 H   0  0  0  0  0  0  0  0  0  0  0  0
   38.1061   29.1632   34.4852 H   0  0  0  0  0  0  0  0  0  0  0  0
   35.6893   28.2964   34.5994 H   0  0  0  0  0  0  0  0  0  0  0  0
   41.2928   27.8099   38.0499 H   0  0  0  0  0  0  0  0  0  0  0  0
  1  2  1  0
  3  2  1  0
  4  3  1  0
  5  4  1  0
  5  1  1  0
  6  1  1  0
  6 11  1  0
  7  6  2  0
  8  7  1  0
  8  9  2  0
  9 10  1  0
 10 11  2  0
 12  5  1  0
 13 14  1  0
 13 21  1  0
 14 15  2  0
 15 16  1  0
 16 17  2  0
 17 18  1  0
 17 12  1  0
 19 18  2  0
 20 19  1  0
 21 20  2  0
 21 16  1  0
  1 22  1  1
  2 23  1  0
  2 24  1  0
  3 25  1  0
  3 26  1  0
  4 27  1  0
  4 28  1  0
  5 29  1  6
  7 30  1  0
  8 31  1  0
 10 32  1  0
 12 33  1  0
 13 34  1  0
 14 35  1  0
 19 36  1  0
M  ISO  8  22  13  23  13  24  13  25  13  26  13  27  13  28  13  29  13
M  ISO  6  30  14  31  14  32  14  34   9  35  14  36  14
M  END
>  <minimizedAffinity>  (1) 
-4.66137648

>  <minimizedRMSD>  (1) 
0.609407902

$$$$
