
     RDKit          3D

 41 43  0  0  1  0  0  0  0  0999 V2000
   36.8980   27.3280   42.0010 C   0  0  1  0  0  0  0  0  0  0  0  0
   37.8390   27.3300   43.2300 C   0  0  0  0  0  0  0  0  0  0  0  0
   37.9300   28.7780   43.5580 C   0  0  0  0  0  0  0  0  0  0  0  0
   37.3860   29.5550   42.3660 C   0  0  0  0  0  0  0  0  0  0  0  0
   37.4030   28.5170   41.2430 C   0  0  2  0  0  0  0  0  0  0  0  0
   37.0220   26.0440   41.3250 C   0  0  0  0  0  0  0  0  0  0  0  0
   37.5680   24.9550   42.0800 C   0  0  0  0  0  0  0  0  0  0  0  0
   37.6920   23.7030   41.4560 C   0  0  0  0  0  0  0  0  0  0  0  0
   37.2770   23.6060   40.1480 N   0  0  0  0  0  0  0  0  0  0  0  0
   36.7730   24.6590   39.4910 C   0  0  0  0  0  0  0  0  0  0  0  0
   36.6430   25.8780   40.0700 N   0  0  0  0  0  0  0  0  0  0  0  0
   36.4790   28.9410   40.2370 N   0  0  0  0  0  0  0  0  0  0  0  0
   37.0910   29.1790   38.9760 C   0  0  0  0  0  0  0  0  0  0  0  0
   36.4930   30.5080   38.4740 C   0  0  0  0  0  0  0  0  0  0  0  0
   37.1130   31.6570   39.2280 C   0  0  0  0  0  0  0  0  0  0  0  0
   38.5160   31.8290   38.6360 C   0  0  0  0  0  0  0  0  0  0  0  0
   39.0940   30.5040   38.2710 C   0  0  0  0  0  0  0  0  0  0  0  0
   38.5850   29.3520   39.1330 C   0  0  0  0  0  0  0  0  0  0  0  0
   35.8174   27.4187   42.1859 H   0  0  0  0  0  0  0  0  0  0  0  0
   37.4055   26.7591   44.0644 H   0  0  0  0  0  0  0  0  0  0  0  0
   38.8148   26.8599   43.0381 H   0  0  0  0  0  0  0  0  0  0  0  0
   37.3312   28.9980   44.4541 H   0  0  0  0  0  0  0  0  0  0  0  0
   38.9726   29.0633   43.7620 H   0  0  0  0  0  0  0  0  0  0  0  0
   36.3635   29.9115   42.5596 H   0  0  0  0  0  0  0  0  0  0  0  0
   37.9712   30.4566   42.1323 H   0  0  0  0  0  0  0  0  0  0  0  0
   38.3586   28.3427   40.7269 H   0  0  0  0  0  0  0  0  0  0  0  0
   37.8828   25.0966   43.1244 H   0  0  0  0  0  0  0  0  0  0  0  0
   38.1043   22.8351   41.9914 H   0  0  0  0  0  0  0  0  0  0  0  0
   36.4538   24.5303   38.4462 H   0  0  0  0  0  0  0  0  0  0  0  0
   35.7639   28.2089   40.1204 H   0  0  0  0  0  0  0  0  0  0  0  0
   36.9152   28.3401   38.2865 H   0  0  0  0  0  0  0  0  0  0  0  0
   36.7005   30.6204   37.3996 H   0  0  0  0  0  0  0  0  0  0  0  0
   35.4056   30.5057   38.6401 H   0  0  0  0  0  0  0  0  0  0  0  0
   36.5213   32.5734   39.0860 H   0  0  0  0  0  0  0  0  0  0  0  0
   37.1488   31.4618   40.3100 H   0  0  0  0  0  0  0  0  0  0  0  0
   38.4545   32.4577   37.7355 H   0  0  0  0  0  0  0  0  0  0  0  0
   39.1634   32.3052   39.3870 H   0  0  0  0  0  0  0  0  0  0  0  0
   38.8392   30.2914   37.2222 H   0  0  0  0  0  0  0  0  0  0  0  0
   40.1796   30.5717   38.4348 H   0  0  0  0  0  0  0  0  0  0  0  0
   38.8141   29.5632   40.1879 H   0  0  0  0  0  0  0  0  0  0  0  0
   39.0817   28.4253   38.8097 H   0  0  0  0  0  0  0  0  0  0  0  0
  1  2  1  0
  2  3  1  0
  4  3  1  0
  5  1  1  0
  5  4  1  0
  6  1  1  0
  6  7  2  0
  8  7  1  0
  9  8  2  0
 10 11  2  0
 10  9  1  0
 11  6  1  0
 12  5  1  0
 13 18  1  0
 13 12  1  0
 14 13  1  0
 14 15  1  0
 16 15  1  0
 17 16  1  0
 17 18  1  0
  1 19  1  1
  2 20  1  0
  2 21  1  0
  3 22  1  0
  3 23  1  0
  4 24  1  0
  4 25  1  0
  5 26  1  6
  7 27  1  0
  8 28  1  0
 10 29  1  0
 12 30  1  0
 13 31  1  0
 14 32  1  0
 14 33  1  0
 15 34  1  0
 15 35  1  0
 16 36  1  0
 16 37  1  0
 17 38  1  0
 17 39  1  0
 18 40  1  0
 18 41  1  0
M  ISO  8  19  13  20  13  21  13  22  13  23  13  24  13  25  13  26  13
M  ISO  8  27  14  28  14  29  14  30   5  31  13  32  13  33  13  34  13
M  ISO  7  35  13  36  13  37  13  38  13  39  13  40  13  41  13
M  END
>  <minimizedAffinity>  (1) 
-4.538414

>  <minimizedRMSD>  (1) 
5.27563143

$$$$
