
     RDKit          3D

 32 34  0  0  1  0  0  0  0  0999 V2000
   37.8410   28.6030   41.8780 C   0  0  1  0  0  0  0  0  0  0  0  0
   37.7200   29.2020   43.3040 C   0  0  0  0  0  0  0  0  0  0  0  0
   37.2020   28.0330   44.0920 C   0  0  0  0  0  0  0  0  0  0  0  0
   36.8160   26.9480   43.1260 C   0  0  0  0  0  0  0  0  0  0  0  0
   36.6700   27.7230   41.8020 C   0  0  2  0  0  0  0  0  0  0  0  0
   37.9300   29.6730   40.9090 C   0  0  0  0  0  0  0  0  0  0  0  0
   36.9720   30.7050   41.0170 C   0  0  0  0  0  0  0  0  0  0  0  0
   36.9810   31.7790   40.1210 C   0  0  0  0  0  0  0  0  0  0  0  0
   37.9740   31.7440   39.1560 N   0  0  0  0  0  0  0  0  0  0  0  0
   38.8700   30.7310   39.0950 C   0  0  0  0  0  0  0  0  0  0  0  0
   38.8520   29.6900   39.9720 N   0  0  0  0  0  0  0  0  0  0  0  0
   36.7170   26.7500   40.7680 N   0  0  0  0  0  0  0  0  0  0  0  0
   37.2020   25.4550   41.0730 C   0  0  0  0  0  0  0  0  0  0  0  0
   37.5560   24.6510   39.7820 C   0  0  0  0  0  0  0  0  0  0  0  0
   36.5220   24.1910   40.7880 C   0  0  0  0  0  0  0  0  0  0  0  0
   38.7466   28.0184   41.6586 H   0  0  0  0  0  0  0  0  0  0  0  0
   38.6978   29.5363   43.6812 H   0  0  0  0  0  0  0  0  0  0  0  0
   37.0764   30.0925   43.3574 H   0  0  0  0  0  0  0  0  0  0  0  0
   37.9855   27.6654   44.7710 H   0  0  0  0  0  0  0  0  0  0  0  0
   36.3304   28.3355   44.6910 H   0  0  0  0  0  0  0  0  0  0  0  0
   37.6012   26.1810   43.0540 H   0  0  0  0  0  0  0  0  0  0  0  0
   35.9076   26.4009   43.4184 H   0  0  0  0  0  0  0  0  0  0  0  0
   35.7540   28.3044   41.6209 H   0  0  0  0  0  0  0  0  0  0  0  0
   36.2128   30.6639   41.8120 H   0  0  0  0  0  0  0  0  0  0  0  0
   36.2481   32.5972   40.1789 H   0  0  0  0  0  0  0  0  0  0  0  0
   39.6396   30.7497   38.3092 H   0  0  0  0  0  0  0  0  0  0  0  0
   37.3164   27.1299   40.0215 H   0  0  0  0  0  0  0  0  0  0  0  0
   37.6445   25.8088   42.0159 H   0  0  0  0  0  0  0  0  0  0  0  0
   38.5211   24.1305   39.6951 H   0  0  0  0  0  0  0  0  0  0  0  0
   37.5806   24.8517   38.7007 H   0  0  0  0  0  0  0  0  0  0  0  0
   35.4573   24.2000   40.5118 H   0  0  0  0  0  0  0  0  0  0  0  0
   36.3799   23.2610   41.3581 H   0  0  0  0  0  0  0  0  0  0  0  0
  1  2  1  0
  2  3  1  0
  4  3  1  0
  5  1  1  0
  5  4  1  0
  6  7  2  0
  6  1  1  0
  8  7  1  0
  9  8  2  0
 10  9  1  0
 10 11  2  0
 11  6  1  0
 12 13  1  0
 12  5  1  0
 14 15  1  0
 14 13  1  0
 15 13  1  0
  1 16  1  1
  2 17  1  0
  2 18  1  0
  3 19  1  0
  3 20  1  0
  4 21  1  0
  4 22  1  0
  5 23  1  1
  7 24  1  0
  8 25  1  0
 10 26  1  0
 12 27  1  0
 13 28  1  0
 14 29  1  0
 14 30  1  0
 15 31  1  0
 15 32  1  0
M  ISO  8  16  13  17  13  18  13  19  13  20  13  21  13  22  13  23  13
M  ISO  8  24  14  25  14  26  14  27   5  28  13  29  13  30  13  31  13
M  ISO  1  32  13
M  END
>  <minimizedAffinity>  (1) 
-4.18734169

>  <minimizedRMSD>  (1) 
2.98821974

$$$$
