
     RDKit          3D

 34 36  0  0  1  0  0  0  0  0999 V2000
   37.6150   26.8480   41.1250 C   0  0  1  0  0  0  0  0  0  0  0  0
   37.1020   26.3230   42.4850 C   0  0  0  0  0  0  0  0  0  0  0  0
   36.8020   24.8860   42.1980 C   0  0  0  0  0  0  0  0  0  0  0  0
   36.9670   24.6660   40.7170 C   0  0  0  0  0  0  0  0  0  0  0  0
   36.7860   26.1020   40.1630 C   0  0  2  0  0  0  0  0  0  0  0  0
   37.5290   28.2920   41.0940 C   0  0  0  0  0  0  0  0  0  0  0  0
   36.2130   28.8420   41.0810 C   0  0  0  0  0  0  0  0  0  0  0  0
   36.0620   30.2390   41.0560 C   0  0  0  0  0  0  0  0  0  0  0  0
   37.2210   30.9890   41.0450 N   0  0  0  0  0  0  0  0  0  0  0  0
   38.4410   30.4090   41.0570 C   0  0  0  0  0  0  0  0  0  0  0  0
   38.6050   29.0530   41.0820 N   0  0  0  0  0  0  0  0  0  0  0  0
   37.3500   26.0920   38.8390 N   0  0  0  0  0  0  0  0  0  0  0  0
   36.9750   27.0290   37.8440 C   0  0  0  0  0  0  0  0  0  0  0  0
   35.6570   27.4890   37.7440 C   0  0  0  0  0  0  0  0  0  0  0  0
   35.3370   28.4010   36.7590 C   0  0  0  0  0  0  0  0  0  0  0  0
   36.2990   28.8530   35.8850 C   0  0  0  0  0  0  0  0  0  0  0  0
   37.5810   28.3620   36.0320 C   0  0  0  0  0  0  0  0  0  0  0  0
   37.9290   27.4760   36.9770 N   0  0  0  0  0  0  0  0  0  0  0  0
   38.6776   26.6790   40.8963 H   0  0  0  0  0  0  0  0  0  0  0  0
   37.8742   26.4182   43.2626 H   0  0  0  0  0  0  0  0  0  0  0  0
   36.2332   26.8801   42.8655 H   0  0  0  0  0  0  0  0  0  0  0  0
   37.4997   24.2406   42.7518 H   0  0  0  0  0  0  0  0  0  0  0  0
   35.7768   24.6385   42.5105 H   0  0  0  0  0  0  0  0  0  0  0  0
   37.9645   24.2676   40.4796 H   0  0  0  0  0  0  0  0  0  0  0  0
   36.2647   23.9327   40.2939 H   0  0  0  0  0  0  0  0  0  0  0  0
   35.7673   26.5080   40.0768 H   0  0  0  0  0  0  0  0  0  0  0  0
   35.3315   28.1841   41.0904 H   0  0  0  0  0  0  0  0  0  0  0  0
   35.0688   30.7118   41.0457 H   0  0  0  0  0  0  0  0  0  0  0  0
   39.3339   31.0513   41.0463 H   0  0  0  0  0  0  0  0  0  0  0  0
   38.0531   25.3764   38.6056 H   0  0  0  0  0  0  0  0  0  0  0  0
   34.8864   27.1284   38.4413 H   0  0  0  0  0  0  0  0  0  0  0  0
   34.3043   28.7697   36.6718 H   0  0  0  0  0  0  0  0  0  0  0  0
   36.0551   29.5803   35.0966 H   0  0  0  0  0  0  0  0  0  0  0  0
   38.3575   28.7159   35.3379 H   0  0  0  0  0  0  0  0  0  0  0  0
  1  2  1  0
  3  2  1  0
  4  3  1  0
  5  4  1  0
  5  1  1  0
  6  1  1  0
  7  6  2  0
  8  7  1  0
  9  8  2  0
  9 10  1  0
 10 11  2  0
 11  6  1  0
 12  5  1  0
 13 12  1  0
 14 13  2  0
 15 14  1  0
 16 17  1  0
 16 15  2  0
 17 18  2  0
 18 13  1  0
  1 19  1  6
  2 20  1  0
  2 21  1  0
  3 22  1  0
  3 23  1  0
  4 24  1  0
  4 25  1  0
  5 26  1  6
  7 27  1  0
  8 28  1  0
 10 29  1  0
 12 30  1  0
 14 31  1  0
 15 32  1  0
 16 33  1  0
 17 34  1  0
M  ISO  8  19  13  20  13  21  13  22  13  23  13  24  13  25  13  26  13
M  ISO  7  27  14  28  14  29  14  31  14  32  14  33  14  34  14
M  END
>  <minimizedAffinity>  (1) 
-4.09708595

>  <minimizedRMSD>  (1) 
2.1327486

$$$$
