
     RDKit          3D

 32 34  0  0  1  0  0  0  0  0999 V2000
   37.6370   26.7750   41.2460 C   0  0  1  0  0  0  0  0  0  0  0  0
   36.9010   26.1080   42.4360 C   0  0  0  0  0  0  0  0  0  0  0  0
   36.9580   24.6600   42.0800 C   0  0  0  0  0  0  0  0  0  0  0  0
   37.5340   24.5410   40.6850 C   0  0  0  0  0  0  0  0  0  0  0  0
   37.2130   25.9410   40.1090 C   0  0  2  0  0  0  0  0  0  0  0  0
   37.3040   28.1820   41.2010 C   0  0  0  0  0  0  0  0  0  0  0  0
   35.9810   28.5010   40.7530 C   0  0  0  0  0  0  0  0  0  0  0  0
   35.5830   29.8420   40.6850 C   0  0  0  0  0  0  0  0  0  0  0  0
   36.5040   30.7770   41.0590 N   0  0  0  0  0  0  0  0  0  0  0  0
   37.7510   30.4240   41.4800 C   0  0  0  0  0  0  0  0  0  0  0  0
   38.1570   29.1200   41.5520 N   0  0  0  0  0  0  0  0  0  0  0  0
   38.0340   26.0980   38.9420 N   0  0  0  0  0  0  0  0  0  0  0  0
   37.6750   26.8250   37.7850 C   0  0  0  0  0  0  0  0  0  0  0  0
   38.4560   27.2640   36.7400 C   0  0  0  0  0  0  0  0  0  0  0  0
   37.6890   27.9450   35.8090 C   0  0  0  0  0  0  0  0  0  0  0  0
   36.4490   27.9010   36.3220 N   0  0  0  0  0  0  0  0  0  0  0  0
   36.4440   27.2540   37.4610 N   0  0  0  0  0  0  0  0  0  0  0  0
   38.7360   26.8016   41.2854 H   0  0  0  0  0  0  0  0  0  0  0  0
   37.4205   26.3047   43.3854 H   0  0  0  0  0  0  0  0  0  0  0  0
   35.8777   26.4832   42.5847 H   0  0  0  0  0  0  0  0  0  0  0  0
   37.6000   24.1252   42.7954 H   0  0  0  0  0  0  0  0  0  0  0  0
   35.9509   24.2189   42.1154 H   0  0  0  0  0  0  0  0  0  0  0  0
   38.6177   24.3541   40.7106 H   0  0  0  0  0  0  0  0  0  0  0  0
   37.1260   23.7057   40.0970 H   0  0  0  0  0  0  0  0  0  0  0  0
   36.1838   26.1617   39.7894 H   0  0  0  0  0  0  0  0  0  0  0  0
   35.2843   27.7000   40.4651 H   0  0  0  0  0  0  0  0  0  0  0  0
   34.5762   30.1279   40.3463 H   0  0  0  0  0  0  0  0  0  0  0  0
   38.4562   31.2160   41.7723 H   0  0  0  0  0  0  0  0  0  0  0  0
   38.9587   25.6444   38.9487 H   0  0  0  0  0  0  0  0  0  0  0  0
   39.5400   27.0970   36.6558 H   0  0  0  0  0  0  0  0  0  0  0  0
   38.0186   28.4124   34.8694 H   0  0  0  0  0  0  0  0  0  0  0  0
   35.6169   28.3182   35.8810 H   0  0  0  0  0  0  0  0  0  0  0  0
  1  2  1  0
  3  2  1  0
  4  3  1  0
  5  4  1  0
  5  1  1  0
  6  1  1  0
  6 11  1  0
  7  6  2  0
  8  7  1  0
  8  9  2  0
  9 10  1  0
 10 11  2  0
 12  5  1  0
 13 12  1  0
 14 13  1  0
 15 16  1  0
 15 14  2  0
 16 17  1  0
 17 13  2  0
  1 18  1  1
  2 19  1  0
  2 20  1  0
  3 21  1  0
  3 22  1  0
  4 23  1  0
  4 24  1  0
  5 25  1  6
  7 26  1  0
  8 27  1  0
 10 28  1  0
 12 29  1  0
 14 30  1  0
 15 31  1  0
 16 32  1  0
M  ISO  8  18  13  19  13  20  13  21  13  22  13  23  13  24  13  25  13
M  ISO  6  26  14  27  14  28  14  30  14  31  14  32   9
M  END
>  <minimizedAffinity>  (1) 
-4.07350492

>  <minimizedRMSD>  (1) 
1.58830321

$$$$
