
     RDKit          3D

 32 34  0  0  1  0  0  0  0  0999 V2000
   37.6740   26.8860   41.2490 C   0  0  1  0  0  0  0  0  0  0  0  0
   36.9630   26.3120   42.5020 C   0  0  0  0  0  0  0  0  0  0  0  0
   36.9070   24.8580   42.1800 C   0  0  0  0  0  0  0  0  0  0  0  0
   37.2750   24.6770   40.7210 C   0  0  0  0  0  0  0  0  0  0  0  0
   37.0630   26.1010   40.1590 C   0  0  2  0  0  0  0  0  0  0  0  0
   37.4760   28.3220   41.2090 C   0  0  0  0  0  0  0  0  0  0  0  0
   36.1530   28.7750   40.9010 C   0  0  0  0  0  0  0  0  0  0  0  0
   35.9010   30.1560   40.8550 C   0  0  0  0  0  0  0  0  0  0  0  0
   36.9600   30.9900   41.1120 N   0  0  0  0  0  0  0  0  0  0  0  0
   38.1950   30.5090   41.3990 C   0  0  0  0  0  0  0  0  0  0  0  0
   38.4500   29.1730   41.4470 N   0  0  0  0  0  0  0  0  0  0  0  0
   37.8180   26.1560   38.9370 N   0  0  0  0  0  0  0  0  0  0  0  0
   37.4470   26.9300   37.8450 C   0  0  0  0  0  0  0  0  0  0  0  0
   36.2500   27.4830   37.4890 C   0  0  0  0  0  0  0  0  0  0  0  0
   36.1110   28.2060   36.3650 C   0  0  0  0  0  0  0  0  0  0  0  0
   37.3430   28.3380   35.5820 C   0  0  0  0  0  0  0  0  0  0  0  0
   38.6400   27.3740   36.5650 S   0  0  0  0  0  0  0  0  0  0  0  0
   38.7689   26.7903   41.2037 H   0  0  0  0  0  0  0  0  0  0  0  0
   37.5477   26.4980   43.4150 H   0  0  0  0  0  0  0  0  0  0  0  0
   35.9797   26.7626   42.7023 H   0  0  0  0  0  0  0  0  0  0  0  0
   37.6194   24.3094   42.8137 H   0  0  0  0  0  0  0  0  0  0  0  0
   35.8953   24.4683   42.3659 H   0  0  0  0  0  0  0  0  0  0  0  0
   38.3207   24.3545   40.6093 H   0  0  0  0  0  0  0  0  0  0  0  0
   36.6850   23.9041   40.2067 H   0  0  0  0  0  0  0  0  0  0  0  0
   36.0423   26.4340   39.9199 H   0  0  0  0  0  0  0  0  0  0  0  0
   35.3469   28.0530   40.7036 H   0  0  0  0  0  0  0  0  0  0  0  0
   34.9007   30.5509   40.6236 H   0  0  0  0  0  0  0  0  0  0  0  0
   39.0125   31.2175   41.5983 H   0  0  0  0  0  0  0  0  0  0  0  0
   38.6777   25.5929   38.8677 H   0  0  0  0  0  0  0  0  0  0  0  0
   35.3762   27.3324   38.1400 H   0  0  0  0  0  0  0  0  0  0  0  0
   35.1564   28.6591   36.0593 H   0  0  0  0  0  0  0  0  0  0  0  0
   37.4823   28.8776   34.6336 H   0  0  0  0  0  0  0  0  0  0  0  0
  1  2  1  0
  3  2  1  0
  4  3  1  0
  5  4  1  0
  5  1  1  0
  6  1  1  0
  6 11  1  0
  7  6  2  0
  8  7  1  0
  8  9  2  0
  9 10  1  0
 10 11  2  0
 12  5  1  0
 13 12  1  0
 14 13  2  0
 15 14  1  0
 16 15  2  0
 16 17  1  0
 17 13  1  0
  1 18  1  1
  2 19  1  0
  2 20  1  0
  3 21  1  0
  3 22  1  0
  4 23  1  0
  4 24  1  0
  5 25  1  6
  7 26  1  0
  8 27  1  0
 10 28  1  0
 12 29  1  0
 14 30  1  0
 15 31  1  0
 16 32  1  0
M  ISO  8  18  13  19  13  20  13  21  13  22  13  23  13  24  13  25  13
M  ISO  6  26  14  27  14  28  14  30  14  31  14  32  14
M  END
>  <minimizedAffinity>  (1) 
-3.97494626

>  <minimizedRMSD>  (1) 
1.80170918

$$$$
