
     RDKit          3D

 29 30  0  0  1  0  0  0  0  0999 V2000
   37.4860   26.7900   41.1370 C   0  0  1  0  0  0  0  0  0  0  0  0
   37.0530   26.1990   42.4970 C   0  0  0  0  0  0  0  0  0  0  0  0
   36.9290   24.7390   42.2050 C   0  0  0  0  0  0  0  0  0  0  0  0
   37.1470   24.5380   40.7320 C   0  0  0  0  0  0  0  0  0  0  0  0
   36.7730   25.9330   40.1780 C   0  0  2  0  0  0  0  0  0  0  0  0
   37.1980   28.2050   41.1060 C   0  0  0  0  0  0  0  0  0  0  0  0
   35.8830   28.5730   40.6850 C   0  0  0  0  0  0  0  0  0  0  0  0
   35.5360   29.9330   40.6350 C   0  0  0  0  0  0  0  0  0  0  0  0
   36.5120   30.8280   41.0050 N   0  0  0  0  0  0  0  0  0  0  0  0
   37.7390   30.4260   41.3950 C   0  0  0  0  0  0  0  0  0  0  0  0
   38.0910   29.1070   41.4480 N   0  0  0  0  0  0  0  0  0  0  0  0
   37.3120   26.0010   38.8450 N   0  0  0  0  0  0  0  0  0  0  0  0
   36.6090   26.4780   37.7290 C   0  0  0  0  0  0  0  0  0  0  0  0
   35.2810   25.9720   37.6540 N   0  0  0  0  0  0  0  0  0  0  0  0
   37.0280   27.2550   36.8620 O   0  0  0  0  0  0  0  0  0  0  0  0
   38.5614   26.7740   40.9064 H   0  0  0  0  0  0  0  0  0  0  0  0
   37.8143   26.3845   43.2690 H   0  0  0  0  0  0  0  0  0  0  0  0
   36.1254   26.6433   42.8870 H   0  0  0  0  0  0  0  0  0  0  0  0
   37.6860   24.1793   42.7739 H   0  0  0  0  0  0  0  0  0  0  0  0
   35.9326   24.3752   42.4962 H   0  0  0  0  0  0  0  0  0  0  0  0
   38.1942   24.2842   40.5107 H   0  0  0  0  0  0  0  0  0  0  0  0
   36.5659   23.7104   40.2991 H   0  0  0  0  0  0  0  0  0  0  0  0
   35.7080   26.1959   40.0965 H   0  0  0  0  0  0  0  0  0  0  0  0
   35.1518   27.8009   40.4036 H   0  0  0  0  0  0  0  0  0  0  0  0
   34.5366   30.2645   40.3168 H   0  0  0  0  0  0  0  0  0  0  0  0
   38.4814   31.1859   41.6801 H   0  0  0  0  0  0  0  0  0  0  0  0
   38.2792   25.6775   38.7010 H   0  0  0  0  0  0  0  0  0  0  0  0
   34.6664   26.2520   36.8763 H   0  0  0  0  0  0  0  0  0  0  0  0
   34.9345   25.3258   38.3774 H   0  0  0  0  0  0  0  0  0  0  0  0
  1  2  1  0
  3  2  1  0
  4  3  1  0
  5  4  1  0
  5  1  1  0
  6  1  1  0
  6 11  1  0
  7  6  2  0
  8  7  1  0
  8  9  2  0
  9 10  1  0
 10 11  2  0
 12  5  1  0
 13 12  1  0
 14 13  1  0
 15 13  2  0
  1 16  1  6
  2 17  1  0
  2 18  1  0
  3 19  1  0
  3 20  1  0
  4 21  1  0
  4 22  1  0
  5 23  1  6
  7 24  1  0
  8 25  1  0
 10 26  1  0
 12 27  1  0
 14 28  1  0
 14 29  1  0
M  ISO  8  16  13  17  13  18  13  19  13  20  13  21  13  22  13  23  13
M  ISO  3  24  14  25  14  26  14
M  END
>  <minimizedAffinity>  (1) 
-3.79705739

>  <minimizedRMSD>  (1) 
0.339780301

$$$$
