
     RDKit          3D

 28 29  0  0  1  0  0  0  0  0999 V2000
   37.5320   26.8580   41.1280 C   0  0  1  0  0  0  0  0  0  0  0  0
   37.1480   26.3240   42.5290 C   0  0  0  0  0  0  0  0  0  0  0  0
   36.9520   24.8630   42.2710 C   0  0  0  0  0  0  0  0  0  0  0  0
   36.9570   24.6460   40.7810 C   0  0  0  0  0  0  0  0  0  0  0  0
   36.6790   26.0590   40.2360 C   0  0  2  0  0  0  0  0  0  0  0  0
   37.3660   28.2960   41.0990 C   0  0  0  0  0  0  0  0  0  0  0  0
   36.0470   28.7710   40.8800 C   0  0  0  0  0  0  0  0  0  0  0  0
   35.7950   30.1500   40.8390 C   0  0  0  0  0  0  0  0  0  0  0  0
   36.8740   30.9670   41.0170 N   0  0  0  0  0  0  0  0  0  0  0  0
   38.1230   30.4670   41.2240 C   0  0  0  0  0  0  0  0  0  0  0  0
   38.3760   29.1240   41.2660 N   0  0  0  0  0  0  0  0  0  0  0  0
   37.1240   26.0750   38.8710 N   0  0  0  0  0  0  0  0  0  0  0  0
   36.0920   26.1210   37.8870 C   0  0  0  0  0  0  0  0  0  0  0  0
   35.0860   25.1950   38.1080 F   0  0  0  0  0  0  0  0  0  0  0  0
   35.5360   27.4030   37.9540 F   0  0  0  0  0  0  0  0  0  0  0  0
   36.6450   25.9840   36.6300 F   0  0  0  0  0  0  0  0  0  0  0  0
   38.5810   26.7415   40.8182 H   0  0  0  0  0  0  0  0  0  0  0  0
   37.9558   26.4953   43.2557 H   0  0  0  0  0  0  0  0  0  0  0  0
   36.2649   26.8172   42.9614 H   0  0  0  0  0  0  0  0  0  0  0  0
   37.7688   24.2898   42.7339 H   0  0  0  0  0  0  0  0  0  0  0  0
   35.9982   24.5246   42.7021 H   0  0  0  0  0  0  0  0  0  0  0  0
   37.9329   24.2725   40.4372 H   0  0  0  0  0  0  0  0  0  0  0  0
   36.2262   23.8955   40.4453 H   0  0  0  0  0  0  0  0  0  0  0  0
   35.6373   26.4123   40.2263 H   0  0  0  0  0  0  0  0  0  0  0  0
   35.2215   28.0571   40.7423 H   0  0  0  0  0  0  0  0  0  0  0  0
   34.7842   30.5509   40.6727 H   0  0  0  0  0  0  0  0  0  0  0  0
   38.9588   31.1686   41.3625 H   0  0  0  0  0  0  0  0  0  0  0  0
   37.7219   26.9038   38.7422 H   0  0  0  0  0  0  0  0  0  0  0  0
  1  2  1  0
  3  2  1  0
  4  3  1  0
  5  4  1  0
  5  1  1  0
  6  1  1  0
  6 11  1  0
  7  6  2  0
  8  7  1  0
  8  9  2  0
  9 10  1  0
 10 11  2  0
 12  5  1  0
 13 15  1  0
 13 14  1  0
 13 12  1  0
 16 13  1  0
  1 17  1  6
  2 18  1  0
  2 19  1  0
  3 20  1  0
  3 21  1  0
  4 22  1  0
  4 23  1  0
  5 24  1  6
  7 25  1  0
  8 26  1  0
 10 27  1  0
 12 28  1  0
M  ISO  8  17  13  18  13  19  13  20  13  21  13  22  13  23  13  24  13
M  ISO  4  25  14  26  14  27  14  28   5
M  END
>  <minimizedAffinity>  (1) 
-3.74831939

>  <minimizedRMSD>  (1) 
0.938646197

$$$$
