
     RDKit          3D

 37 38  0  0  1  0  0  0  0  0999 V2000
   37.6010   26.7970   41.2010 C   0  0  1  0  0  0  0  0  0  0  0  0
   36.9540   26.1720   42.4600 C   0  0  0  0  0  0  0  0  0  0  0  0
   36.9820   24.7140   42.1610 C   0  0  0  0  0  0  0  0  0  0  0  0
   37.3890   24.5540   40.7070 C   0  0  0  0  0  0  0  0  0  0  0  0
   37.0590   25.9400   40.1180 C   0  0  2  0  0  0  0  0  0  0  0  0
   37.2610   28.2090   41.1490 C   0  0  0  0  0  0  0  0  0  0  0  0
   35.9500   28.5400   40.7410 C   0  0  0  0  0  0  0  0  0  0  0  0
   35.5370   29.8800   40.6660 C   0  0  0  0  0  0  0  0  0  0  0  0
   36.4840   30.8120   41.0090 N   0  0  0  0  0  0  0  0  0  0  0  0
   37.7230   30.4560   41.3920 C   0  0  0  0  0  0  0  0  0  0  0  0
   38.1280   29.1510   41.4670 N   0  0  0  0  0  0  0  0  0  0  0  0
   37.7860   26.0680   38.9030 N   0  0  0  0  0  0  0  0  0  0  0  0
   37.1050   26.2880   37.6940 C   0  0  0  0  0  0  0  0  0  0  0  0
   37.5280   25.5390   36.4830 C   0  0  0  0  0  0  0  0  0  0  0  0
   35.6060   26.1530   37.9340 C   0  0  0  0  0  0  0  0  0  0  0  0
   37.3000   27.7850   37.3740 C   0  0  0  0  0  0  0  0  0  0  0  0
   38.6997   26.8078   41.1493 H   0  0  0  0  0  0  0  0  0  0  0  0
   37.5404   26.4022   43.3617 H   0  0  0  0  0  0  0  0  0  0  0  0
   35.9426   26.5539   42.6630 H   0  0  0  0  0  0  0  0  0  0  0  0
   37.7115   24.2109   42.8127 H   0  0  0  0  0  0  0  0  0  0  0  0
   35.9946   24.2630   42.3388 H   0  0  0  0  0  0  0  0  0  0  0  0
   38.4617   24.3279   40.6163 H   0  0  0  0  0  0  0  0  0  0  0  0
   36.8775   23.7253   40.1955 H   0  0  0  0  0  0  0  0  0  0  0  0
   36.0105   26.1624   39.8706 H   0  0  0  0  0  0  0  0  0  0  0  0
   35.2439   27.7383   40.4788 H   0  0  0  0  0  0  0  0  0  0  0  0
   34.5214   30.1639   40.3530 H   0  0  0  0  0  0  0  0  0  0  0  0
   38.4407   31.2467   41.6560 H   0  0  0  0  0  0  0  0  0  0  0  0
   38.4341   26.8589   39.0268 H   0  0  0  0  0  0  0  0  0  0  0  0
   38.0482   24.6179   36.7846 H   0  0  0  0  0  0  0  0  0  0  0  0
   36.6425   25.2806   35.8838 H   0  0  0  0  0  0  0  0  0  0  0  0
   38.2066   26.1639   35.8838 H   0  0  0  0  0  0  0  0  0  0  0  0
   35.4080   26.1352   39.0159 H   0  0  0  0  0  0  0  0  0  0  0  0
   35.0835   27.0077   37.4797 H   0  0  0  0  0  0  0  0  0  0  0  0
   35.2446   25.2187   37.4797 H   0  0  0  0  0  0  0  0  0  0  0  0
   37.3741   28.3539   38.3125 H   0  0  0  0  0  0  0  0  0  0  0  0
   38.2231   27.9181   36.7907 H   0  0  0  0  0  0  0  0  0  0  0  0
   36.4418   28.1501   36.7907 H   0  0  0  0  0  0  0  0  0  0  0  0
  1  2  1  0
  3  2  1  0
  4  3  1  0
  5  4  1  0
  5  1  1  0
  6  1  1  0
  6 11  1  0
  7  6  2  0
  8  7  1  0
  8  9  2  0
  9 10  1  0
 10 11  2  0
 12  5  1  0
 13 15  1  0
 13 12  1  0
 14 13  1  0
 16 13  1  0
  1 17  1  1
  2 18  1  0
  2 19  1  0
  3 20  1  0
  3 21  1  0
  4 22  1  0
  4 23  1  0
  5 24  1  6
  7 25  1  0
  8 26  1  0
 10 27  1  0
 12 28  1  0
 14 29  1  0
 14 30  1  0
 14 31  1  0
 15 32  1  0
 15 33  1  0
 15 34  1  0
 16 35  1  0
 16 36  1  0
 16 37  1  0
M  ISO  8  17  13  18  13  19  13  20  13  21  13  22  13  23  13  24  13
M  ISO  8  25  14  26  14  27  14  28   5  29   8  30   8  31   8  32   8
M  ISO  5  33   8  34   8  35   8  36   8  37   8
M  END
>  <minimizedAffinity>  (1) 
-3.71280026

>  <minimizedRMSD>  (1) 
0.770665348

$$$$
