
     RDKit          3D

 42 45  0  0  1  0  0  0  0  0999 V2000
   37.5020   26.7560   41.2120 C   0  0  1  0  0  0  0  0  0  0  0  0
   36.8460   26.0520   42.4440 C   0  0  0  0  0  0  0  0  0  0  0  0
   37.0790   24.5980   42.1140 C   0  0  0  0  0  0  0  0  0  0  0  0
   37.6090   24.5110   40.7090 C   0  0  0  0  0  0  0  0  0  0  0  0
   37.1540   25.8810   40.1080 C   0  0  2  0  0  0  0  0  0  0  0  0
   37.0670   28.1270   41.1510 C   0  0  0  0  0  0  0  0  0  0  0  0
   35.9450   28.3740   40.3090 C   0  0  0  0  0  0  0  0  0  0  0  0
   35.4540   29.6860   40.1950 C   0  0  0  0  0  0  0  0  0  0  0  0
   36.1160   30.6600   40.9280 N   0  0  0  0  0  0  0  0  0  0  0  0
   37.1780   30.3660   41.7130 C   0  0  0  0  0  0  0  0  0  0  0  0
   37.6600   29.0910   41.8280 N   0  0  0  0  0  0  0  0  0  0  0  0
   37.8960   26.0310   38.9240 N   0  0  0  0  0  0  0  0  0  0  0  0
   37.0460   25.6960   37.4860 S   0  0  0  0  0  0  0  0  0  0  0  0
   35.6220   26.1450   37.5700 O   0  0  0  0  0  0  0  0  0  0  0  0
   37.0680   24.2350   37.1510 O   0  0  0  0  0  0  0  0  0  0  0  0
   37.8060   26.5980   36.1590 C   0  0  0  0  0  0  0  0  0  0  0  0
   37.3210   27.9550   36.0780 N   0  0  0  0  0  0  0  0  0  0  0  0
   36.4110   28.5640   35.3020 C   0  0  0  0  0  0  0  0  0  0  0  0
   36.3100   29.8700   35.6150 N   0  0  0  0  0  0  0  0  0  0  0  0
   37.1740   30.1170   36.6150 C   0  0  0  0  0  0  0  0  0  0  0  0
   37.5440   31.2260   37.3650 C   0  0  0  0  0  0  0  0  0  0  0  0
   38.4690   31.1900   38.3400 N   0  0  0  0  0  0  0  0  0  0  0  0
   39.0680   30.0090   38.6010 C   0  0  0  0  0  0  0  0  0  0  0  0
   38.7310   28.9220   37.8910 N   0  0  0  0  0  0  0  0  0  0  0  0
   37.8040   28.9250   36.9040 C   0  0  0  0  0  0  0  0  0  0  0  0
   38.5958   26.8709   41.2292 H   0  0  0  0  0  0  0  0  0  0  0  0
   37.3442   26.3365   43.3825 H   0  0  0  0  0  0  0  0  0  0  0  0
   35.7894   26.3139   42.6020 H   0  0  0  0  0  0  0  0  0  0  0  0
   37.8112   24.1704   42.8148 H   0  0  0  0  0  0  0  0  0  0  0  0
   36.1380   24.0348   42.1994 H   0  0  0  0  0  0  0  0  0  0  0  0
   38.7047   24.4141   40.6999 H   0  0  0  0  0  0  0  0  0  0  0  0
   37.2445   23.6369   40.1495 H   0  0  0  0  0  0  0  0  0  0  0  0
   36.1082   26.0453   39.8091 H   0  0  0  0  0  0  0  0  0  0  0  0
   35.4699   27.5502   39.7562 H   0  0  0  0  0  0  0  0  0  0  0  0
   34.5903   29.9277   39.5581 H   0  0  0  0  0  0  0  0  0  0  0  0
   37.6677   31.1752   42.2747 H   0  0  0  0  0  0  0  0  0  0  0  0
   38.2285   27.0048   38.8778 H   0  0  0  0  0  0  0  0  0  0  0  0
   38.8937   26.6191   36.3216 H   0  0  0  0  0  0  0  0  0  0  0  0
   37.5535   26.0909   35.2161 H   0  0  0  0  0  0  0  0  0  0  0  0
   35.8263   28.0637   34.5160 H   0  0  0  0  0  0  0  0  0  0  0  0
   37.0532   32.1865   37.1494 H   0  0  0  0  0  0  0  0  0  0  0  0
   39.8289   29.9382   39.3922 H   0  0  0  0  0  0  0  0  0  0  0  0
  1  2  1  0
  3  2  1  0
  4  3  1  0
  5  4  1  0
  5  1  1  0
  6  1  1  0
  6 11  1  0
  7  6  2  0
  8  7  1  0
  8  9  2  0
  9 10  1  0
 10 11  2  0
 12  5  1  0
 13 14  2  0
 13 12  1  0
 15 13  2  0
 16 13  1  0
 17 16  1  0
 17 25  1  0
 18 19  2  0
 18 17  1  0
 19 20  1  0
 20 25  2  0
 20 21  1  0
 21 22  2  0
 22 23  1  0
 24 23  2  0
 25 24  1  0
  1 26  1  1
  2 27  1  0
  2 28  1  0
  3 29  1  0
  3 30  1  0
  4 31  1  0
  4 32  1  0
  5 33  1  6
  7 34  1  0
  8 35  1  0
 10 36  1  0
 12 37  1  0
 16 38  1  0
 16 39  1  0
 18 40  1  0
 21 41  1  0
 23 42  1  0
M  ISO  8  26  13  27  13  28  13  29  13  30  13  31  13  32  13  33  13
M  ISO  8  34  14  35  14  36  14  37   5  38   8  39   8  40  14  41  14
M  ISO  1  42  14
M  END
>  <minimizedAffinity>  (1) 
-4.65937948

>  <minimizedRMSD>  (1) 
2.87556314

$$$$
