
     RDKit          3D

 47 49  0  0  1  0  0  0  0  0999 V2000
   38.0130   28.6170   42.2790 C   0  0  1  0  0  0  0  0  0  0  0  0
   37.1420   28.6550   43.5770 C   0  0  0  0  0  0  0  0  0  0  0  0
   36.6880   27.2230   43.6950 C   0  0  0  0  0  0  0  0  0  0  0  0
   37.1500   26.4840   42.4610 C   0  0  0  0  0  0  0  0  0  0  0  0
   37.2950   27.6630   41.4460 C   0  0  2  0  0  0  0  0  0  0  0  0
   38.1870   29.9600   41.7780 C   0  0  0  0  0  0  0  0  0  0  0  0
   37.0590   30.5180   41.0990 C   0  0  0  0  0  0  0  0  0  0  0  0
   37.1610   31.8200   40.5860 C   0  0  0  0  0  0  0  0  0  0  0  0
   38.3730   32.4780   40.7830 N   0  0  0  0  0  0  0  0  0  0  0  0
   39.3940   31.8950   41.4300 C   0  0  0  0  0  0  0  0  0  0  0  0
   39.3160   30.6190   41.9400 N   0  0  0  0  0  0  0  0  0  0  0  0
   38.0040   27.1450   40.3490 N   0  0  0  0  0  0  0  0  0  0  0  0
   37.1380   27.0600   38.8880 S   0  0  0  0  0  0  0  0  0  0  0  0
   37.8730   27.7550   37.7770 O   0  0  0  0  0  0  0  0  0  0  0  0
   35.7690   27.6520   38.9890 O   0  0  0  0  0  0  0  0  0  0  0  0
   36.9920   25.3590   38.4130 C   0  0  0  0  0  0  0  0  0  0  0  0
   35.9790   24.6160   39.2510 C   0  0  0  0  0  0  0  0  0  0  0  0
   35.0090   23.8790   38.3850 C   0  0  0  0  0  0  0  0  0  0  0  0
   34.6190   22.5300   38.9610 C   0  0  0  0  0  0  0  0  0  0  0  0
   35.7840   21.5700   38.9650 C   0  0  0  0  0  0  0  0  0  0  0  0
   37.0280   22.3810   39.2520 C   0  0  0  0  0  0  0  0  0  0  0  0
   36.7410   23.6050   40.0820 C   0  0  0  0  0  0  0  0  0  0  0  0
   39.0558   28.2815   42.3788 H   0  0  0  0  0  0  0  0  0  0  0  0
   37.7392   28.9577   44.4498 H   0  0  0  0  0  0  0  0  0  0  0  0
   36.3151   29.3792   43.5339 H   0  0  0  0  0  0  0  0  0  0  0  0
   37.1292   26.7641   44.5921 H   0  0  0  0  0  0  0  0  0  0  0  0
   35.5924   27.1752   43.7815 H   0  0  0  0  0  0  0  0  0  0  0  0
   38.1108   25.9758   42.6302 H   0  0  0  0  0  0  0  0  0  0  0  0
   36.4727   25.6822   42.1318 H   0  0  0  0  0  0  0  0  0  0  0  0
   36.3983   28.1267   41.0090 H   0  0  0  0  0  0  0  0  0  0  0  0
   36.1312   29.9389   40.9814 H   0  0  0  0  0  0  0  0  0  0  0  0
   36.3249   32.2978   40.0543 H   0  0  0  0  0  0  0  0  0  0  0  0
   40.3298   32.4589   41.5577 H   0  0  0  0  0  0  0  0  0  0  0  0
   38.8288   27.7423   40.1942 H   0  0  0  0  0  0  0  0  0  0  0  0
   36.6824   25.3113   37.3586 H   0  0  0  0  0  0  0  0  0  0  0  0
   37.9710   24.8813   38.5656 H   0  0  0  0  0  0  0  0  0  0  0  0
   35.4196   25.3285   39.8750 H   0  0  0  0  0  0  0  0  0  0  0  0
   35.4678   23.7210   37.3978 H   0  0  0  0  0  0  0  0  0  0  0  0
   34.0955   24.4879   38.3156 H   0  0  0  0  0  0  0  0  0  0  0  0
   34.2688   22.6707   39.9942 H   0  0  0  0  0  0  0  0  0  0  0  0
   33.8240   22.1038   38.3315 H   0  0  0  0  0  0  0  0  0  0  0  0
   35.6421   20.8079   39.7454 H   0  0  0  0  0  0  0  0  0  0  0  0
   35.8684   21.0529   37.9978 H   0  0  0  0  0  0  0  0  0  0  0  0
   37.7447   21.7471   39.7946 H   0  0  0  0  0  0  0  0  0  0  0  0
   37.4357   22.7194   38.2880 H   0  0  0  0  0  0  0  0  0  0  0  0
   37.6892   24.0489   40.4195 H   0  0  0  0  0  0  0  0  0  0  0  0
   36.1359   23.3201   40.9554 H   0  0  0  0  0  0  0  0  0  0  0  0
  1  2  1  0
  2  3  1  0
  4  3  1  0
  5  1  1  0
  5  4  1  0
  6 11  1  0
  6  1  1  0
  7  6  2  0
  8  9  2  0
  8  7  1  0
  9 10  1  0
 10 11  2  0
 12  5  1  0
 13 15  2  0
 13 12  1  0
 14 13  2  0
 16 13  1  0
 16 17  1  0
 17 22  1  0
 18 19  1  0
 18 17  1  0
 19 20  1  0
 20 21  1  0
 21 22  1  0
  1 23  1  1
  2 24  1  0
  2 25  1  0
  3 26  1  0
  3 27  1  0
  4 28  1  0
  4 29  1  0
  5 30  1  6
  7 31  1  0
  8 32  1  0
 10 33  1  0
 12 34  1  0
 16 35  1  0
 16 36  1  0
 17 37  1  0
 18 38  1  0
 18 39  1  0
 19 40  1  0
 19 41  1  0
 20 42  1  0
 20 43  1  0
 21 44  1  0
 21 45  1  0
 22 46  1  0
 22 47  1  0
M  ISO  8  23  13  24  13  25  13  26  13  27  13  28  13  29  13  30  13
M  ISO  8  31  14  32  14  33  14  34   5  35   8  36   8  37  13  38  13
M  ISO  8  39  13  40  13  41  13  42  13  43  13  44  13  45  13  46  13
M  ISO  1  47  13
M  END
>  <minimizedAffinity>  (1) 
-4.63966274

>  <minimizedRMSD>  (1) 
3.7757895

$$$$
