
     RDKit          3D

 39 41  0  0  1  0  0  0  0  0999 V2000
   37.1310   28.9120   39.9010 C   0  0  1  0  0  0  0  0  0  0  0  0
   35.6540   28.5020   39.6130 C   0  0  0  0  0  0  0  0  0  0  0  0
   35.3370   29.3160   38.3980 C   0  0  0  0  0  0  0  0  0  0  0  0
   36.4870   30.2610   38.1450 C   0  0  0  0  0  0  0  0  0  0  0  0
   37.1470   30.3280   39.5620 C   0  0  2  0  0  0  0  0  0  0  0  0
   37.4800   28.5400   41.2520 C   0  0  0  0  0  0  0  0  0  0  0  0
   36.4500   27.8850   41.9950 C   0  0  0  0  0  0  0  0  0  0  0  0
   36.7190   27.4930   43.3160 C   0  0  0  0  0  0  0  0  0  0  0  0
   37.9930   27.7780   43.8060 N   0  0  0  0  0  0  0  0  0  0  0  0
   38.9220   28.3990   43.0500 C   0  0  0  0  0  0  0  0  0  0  0  0
   38.6740   28.7890   41.7580 N   0  0  0  0  0  0  0  0  0  0  0  0
   38.4130   30.9050   39.3640 N   0  0  0  0  0  0  0  0  0  0  0  0
   38.6490   32.4170   40.1030 S   0  0  0  0  0  0  0  0  0  0  0  0
   39.0360   32.2670   41.5470 O   0  0  0  0  0  0  0  0  0  0  0  0
   37.4390   33.2930   40.0270 O   0  0  0  0  0  0  0  0  0  0  0  0
   40.0070   33.2320   39.3050 C   0  0  0  0  0  0  0  0  0  0  0  0
   40.9770   32.3130   38.6890 C   0  0  0  0  0  0  0  0  0  0  0  0
   41.3910   32.4710   37.3820 C   0  0  0  0  0  0  0  0  0  0  0  0
   42.3010   31.6080   36.8070 C   0  0  0  0  0  0  0  0  0  0  0  0
   42.8160   30.5800   37.5080 N   0  0  0  0  0  0  0  0  0  0  0  0
   42.4180   30.4190   38.7820 C   0  0  0  0  0  0  0  0  0  0  0  0
   41.5260   31.2690   39.3410 N   0  0  0  0  0  0  0  0  0  0  0  0
   37.9126   28.4032   39.3178 H   0  0  0  0  0  0  0  0  0  0  0  0
   35.5713   27.4249   39.4054 H   0  0  0  0  0  0  0  0  0  0  0  0
   34.9714   28.6802   40.4570 H   0  0  0  0  0  0  0  0  0  0  0  0
   35.2034   28.6527   37.5307 H   0  0  0  0  0  0  0  0  0  0  0  0
   34.4082   29.8840   38.5550 H   0  0  0  0  0  0  0  0  0  0  0  0
   37.1830   29.8565   37.3954 H   0  0  0  0  0  0  0  0  0  0  0  0
   36.1857   31.2391   37.7420 H   0  0  0  0  0  0  0  0  0  0  0  0
   36.6859   30.9237   40.3636 H   0  0  0  0  0  0  0  0  0  0  0  0
   35.4667   27.6919   41.5413 H   0  0  0  0  0  0  0  0  0  0  0  0
   35.9627   26.9864   43.9335 H   0  0  0  0  0  0  0  0  0  0  0  0
   39.9125   28.5996   43.4844 H   0  0  0  0  0  0  0  0  0  0  0  0
   39.1200   30.2554   39.7368 H   0  0  0  0  0  0  0  0  0  0  0  0
   39.6037   33.8873   38.5189 H   0  0  0  0  0  0  0  0  0  0  0  0
   40.5468   33.7893   40.0847 H   0  0  0  0  0  0  0  0  0  0  0  0
   40.9869   33.3026   36.7861 H   0  0  0  0  0  0  0  0  0  0  0  0
   42.6098   31.7616   35.7625 H   0  0  0  0  0  0  0  0  0  0  0  0
   42.8222   29.5866   39.3768 H   0  0  0  0  0  0  0  0  0  0  0  0
  1  6  1  0
  2  1  1  0
  3  2  1  0
  4  3  1  0
  4  5  1  0
  5  1  1  0
  6 11  1  0
  6  7  2  0
  7  8  1  0
  8  9  2  0
 10  9  1  0
 11 10  2  0
 12  5  1  0
 12 13  1  0
 13 14  2  0
 15 13  2  0
 16 13  1  0
 17 16  1  0
 17 22  1  0
 18 17  2  0
 19 18  1  0
 19 20  2  0
 20 21  1  0
 21 22  2  0
  1 23  1  6
  2 24  1  0
  2 25  1  0
  3 26  1  0
  3 27  1  0
  4 28  1  0
  4 29  1  0
  5 30  1  1
  7 31  1  0
  8 32  1  0
 10 33  1  0
 12 34  1  0
 16 35  1  0
 16 36  1  0
 18 37  1  0
 19 38  1  0
 21 39  1  0
M  ISO  8  23  13  24  13  25  13  26  13  27  13  28  13  29  13  30  13
M  ISO  8  31  14  32  14  33  14  34   5  35   8  36   8  37  14  38  14
M  ISO  1  39  14
M  END
>  <minimizedAffinity>  (1) 
-4.63730574

>  <minimizedRMSD>  (1) 
5.8602891

$$$$
