
     RDKit          3D

 41 43  0  0  1  0  0  0  0  0999 V2000
   37.5110   26.7930   41.2530 C   0  0  1  0  0  0  0  0  0  0  0  0
   36.9370   26.2010   42.5700 C   0  0  0  0  0  0  0  0  0  0  0  0
   36.8940   24.7350   42.2700 C   0  0  0  0  0  0  0  0  0  0  0  0
   37.3220   24.5370   40.8340 C   0  0  0  0  0  0  0  0  0  0  0  0
   36.9500   25.9290   40.2240 C   0  0  2  0  0  0  0  0  0  0  0  0
   37.2260   28.2020   41.1860 C   0  0  0  0  0  0  0  0  0  0  0  0
   35.9260   28.5390   40.6940 C   0  0  0  0  0  0  0  0  0  0  0  0
   35.5560   29.8890   40.5980 C   0  0  0  0  0  0  0  0  0  0  0  0
   36.5080   30.8200   40.9990 N   0  0  0  0  0  0  0  0  0  0  0  0
   37.7240   30.4400   41.4580 C   0  0  0  0  0  0  0  0  0  0  0  0
   38.0850   29.1240   41.5520 N   0  0  0  0  0  0  0  0  0  0  0  0
   37.5790   25.9740   38.9660 N   0  0  0  0  0  0  0  0  0  0  0  0
   36.5340   25.8120   37.6320 S   0  0  0  0  0  0  0  0  0  0  0  0
   35.2190   26.4890   37.8790 O   0  0  0  0  0  0  0  0  0  0  0  0
   36.2730   24.3840   37.2730 O   0  0  0  0  0  0  0  0  0  0  0  0
   37.2770   26.6290   36.2390 C   0  0  0  0  0  0  0  0  0  0  0  0
   38.7240   26.9030   36.4450 C   0  0  0  0  0  0  0  0  0  0  0  0
   39.2770   28.1380   36.7090 C   0  0  0  0  0  0  0  0  0  0  0  0
   40.6320   28.3120   36.8890 C   0  0  0  0  0  0  0  0  0  0  0  0
   41.4880   27.2310   36.8060 C   0  0  0  0  0  0  0  0  0  0  0  0
   40.9650   25.9950   36.5450 C   0  0  0  0  0  0  0  0  0  0  0  0
   39.6170   25.8280   36.3680 C   0  0  0  0  0  0  0  0  0  0  0  0
   38.6056   26.7876   41.1446 H   0  0  0  0  0  0  0  0  0  0  0  0
   37.5978   26.4136   43.4233 H   0  0  0  0  0  0  0  0  0  0  0  0
   35.9604   26.6212   42.8524 H   0  0  0  0  0  0  0  0  0  0  0  0
   37.5796   24.1968   42.9410 H   0  0  0  0  0  0  0  0  0  0  0  0
   35.8769   24.3445   42.4219 H   0  0  0  0  0  0  0  0  0  0  0  0
   38.4008   24.3362   40.7569 H   0  0  0  0  0  0  0  0  0  0  0  0
   36.8512   23.6788   40.3321 H   0  0  0  0  0  0  0  0  0  0  0  0
   35.8997   26.1884   40.0251 H   0  0  0  0  0  0  0  0  0  0  0  0
   35.2233   27.7477   40.3939 H   0  0  0  0  0  0  0  0  0  0  0  0
   34.5669   30.1943   40.2259 H   0  0  0  0  0  0  0  0  0  0  0  0
   38.4436   31.2134   41.7647 H   0  0  0  0  0  0  0  0  0  0  0  0
   38.0641   26.8789   38.8837 H   0  0  0  0  0  0  0  0  0  0  0  0
   36.7574   27.5840   36.0718 H   0  0  0  0  0  0  0  0  0  0  0  0
   37.1837   25.9604   35.3705 H   0  0  0  0  0  0  0  0  0  0  0  0
   38.6146   29.0135   36.7782 H   0  0  0  0  0  0  0  0  0  0  0  0
   41.0331   29.3144   37.0994 H   0  0  0  0  0  0  0  0  0  0  0  0
   42.5710   27.3622   36.9474 H   0  0  0  0  0  0  0  0  0  0  0  0
   41.6343   25.1248   36.4764 H   0  0  0  0  0  0  0  0  0  0  0  0
   39.2256   24.8213   36.1596 H   0  0  0  0  0  0  0  0  0  0  0  0
  1  2  1  0
  3  2  1  0
  4  3  1  0
  5  4  1  0
  5  1  1  0
  6  1  1  0
  6 11  1  0
  7  6  2  0
  8  7  1  0
  8  9  2  0
  9 10  1  0
 10 11  2  0
 12  5  1  0
 13 14  2  0
 13 12  1  0
 15 13  2  0
 16 17  1  0
 16 13  1  0
 17 18  2  0
 18 19  1  0
 20 19  2  0
 21 20  1  0
 22 17  1  0
 22 21  2  0
  1 23  1  1
  2 24  1  0
  2 25  1  0
  3 26  1  0
  3 27  1  0
  4 28  1  0
  4 29  1  0
  5 30  1  6
  7 31  1  0
  8 32  1  0
 10 33  1  0
 12 34  1  0
 16 35  1  0
 16 36  1  0
 18 37  1  0
 19 38  1  0
 20 39  1  0
 21 40  1  0
 22 41  1  0
M  ISO  8  23  13  24  13  25  13  26  13  27  13  28  13  29  13  30  13
M  ISO  8  31  14  32  14  33  14  34   5  35   8  36   8  37  14  38  14
M  ISO  3  39  14  40  14  41  14
M  END
>  <minimizedAffinity>  (1) 
-4.3237052

>  <minimizedRMSD>  (1) 
1.2824471

$$$$
