
     RDKit          3D

 26 27  0  0  0  0  0  0  0  0999 V2000
   39.8200   31.8960   41.5650 C   0  0  0  0  0  0  0  0  0  0  0  0
   39.3790   30.6060   41.9690 C   0  0  0  0  0  0  0  0  0  0  0  0
   38.0820   30.2350   41.6610 C   0  0  0  0  0  0  0  0  0  0  0  0
   37.2820   31.1090   40.9870 N   0  0  0  0  0  0  0  0  0  0  0  0
   37.7370   32.3320   40.6160 C   0  0  0  0  0  0  0  0  0  0  0  0
   38.9960   32.7290   40.8990 N   0  0  0  0  0  0  0  0  0  0  0  0
   36.8390   33.1980   39.9090 N   0  0  0  0  0  0  0  0  0  0  0  0
   37.5840   28.9630   42.0380 N   0  0  0  0  0  0  0  0  0  0  0  0
   37.5350   28.5830   43.4180 C   0  0  0  0  0  0  0  0  0  0  0  0
   36.4890   27.4710   43.5310 C   0  0  0  0  0  0  0  0  0  0  0  0
   36.7860   26.3340   42.7110 N   0  0  0  0  0  0  0  0  0  0  0  0
   37.4100   26.6230   41.4610 C   0  0  0  0  0  0  0  0  0  0  0  0
   37.1220   28.0420   41.0240 C   0  0  0  0  0  0  0  0  0  0  0  0
   40.8456   32.2178   41.7987 H   0  0  0  0  0  0  0  0  0  0  0  0
   40.0495   29.9227   42.5107 H   0  0  0  0  0  0  0  0  0  0  0  0
   35.8806   32.8850   39.6983 H   0  0  0  0  0  0  0  0  0  0  0  0
   37.1524   34.1331   39.6118 H   0  0  0  0  0  0  0  0  0  0  0  0
   38.5182   28.2133   43.7446 H   0  0  0  0  0  0  0  0  0  0  0  0
   37.2719   29.4401   44.0554 H   0  0  0  0  0  0  0  0  0  0  0  0
   36.4390   27.1428   44.5797 H   0  0  0  0  0  0  0  0  0  0  0  0
   35.5313   27.8852   43.1828 H   0  0  0  0  0  0  0  0  0  0  0  0
   37.4138   25.7146   43.2431 H   0  0  0  0  0  0  0  0  0  0  0  0
   38.4974   26.4923   41.5636 H   0  0  0  0  0  0  0  0  0  0  0  0
   37.0079   25.9353   40.7024 H   0  0  0  0  0  0  0  0  0  0  0  0
   37.6438   28.2470   40.0776 H   0  0  0  0  0  0  0  0  0  0  0  0
   36.0387   28.1683   40.8809 H   0  0  0  0  0  0  0  0  0  0  0  0
  1  2  2  0
  3  2  1  0
  3  8  1  0
  4  3  2  0
  5  6  2  0
  5  4  1  0
  6  1  1  0
  7  5  1  0
  8  9  1  0
  9 10  1  0
 11 10  1  0
 12 11  1  0
 13 12  1  0
 13  8  1  0
  1 14  1  0
  2 15  1  0
  7 16  1  0
  7 17  1  0
  9 18  1  0
  9 19  1  0
 10 20  1  0
 10 21  1  0
 11 22  1  0
 12 23  1  0
 12 24  1  0
 13 25  1  0
 13 26  1  0
M  ISO  8  14  14  15  14  18  13  19  13  20  13  21  13  22   5  23  13
M  ISO  3  24  13  25  13  26  13
M  END
>  <minimizedAffinity>  (1) 
-4.46402359

>  <minimizedRMSD>  (1) 
3.38268232

$$$$
