
     RDKit          3D

 39 41  0  0  1  0  0  0  0  0999 V2000
   37.5730   26.8250   41.1600 C   0  0  1  0  0  0  0  0  0  0  0  0
   36.9900   26.1860   42.4620 C   0  0  0  0  0  0  0  0  0  0  0  0
   37.0010   24.7190   42.1140 C   0  0  0  0  0  0  0  0  0  0  0  0
   37.3830   24.5850   40.6620 C   0  0  0  0  0  0  0  0  0  0  0  0
   37.0030   25.9970   40.1070 C   0  0  2  0  0  0  0  0  0  0  0  0
   37.2790   28.2320   41.1460 C   0  0  0  0  0  0  0  0  0  0  0  0
   36.0060   28.5870   40.5850 C   0  0  0  0  0  0  0  0  0  0  0  0
   35.6400   29.9430   40.5370 C   0  0  0  0  0  0  0  0  0  0  0  0
   36.5500   30.8450   41.0430 N   0  0  0  0  0  0  0  0  0  0  0  0
   37.7410   30.4570   41.5630 C   0  0  0  0  0  0  0  0  0  0  0  0
   38.0940   29.1440   41.6090 N   0  0  0  0  0  0  0  0  0  0  0  0
   37.6160   26.0850   38.8450 N   0  0  0  0  0  0  0  0  0  0  0  0
   36.5560   26.0600   37.5150 S   0  0  0  0  0  0  0  0  0  0  0  0
   35.1700   26.4920   37.9150 O   0  0  0  0  0  0  0  0  0  0  0  0
   36.4470   24.7020   36.8940 O   0  0  0  0  0  0  0  0  0  0  0  0
   37.1140   27.2310   36.3130 C   0  0  0  0  0  0  0  0  0  0  0  0
   37.5440   28.5260   36.9010 C   0  0  0  0  0  0  0  0  0  0  0  0
   36.8580   29.7170   36.7810 C   0  0  0  0  0  0  0  0  0  0  0  0
   37.4060   30.8250   37.3940 C   0  0  0  0  0  0  0  0  0  0  0  0
   38.5510   30.8300   38.0970 N   0  0  0  0  0  0  0  0  0  0  0  0
   39.2040   29.6390   38.1990 C   0  0  0  0  0  0  0  0  0  0  0  0
   38.6860   28.5670   37.6120 N   0  0  0  0  0  0  0  0  0  0  0  0
   38.6672   26.8236   41.0472 H   0  0  0  0  0  0  0  0  0  0  0  0
   37.6286   26.3964   43.3326 H   0  0  0  0  0  0  0  0  0  0  0  0
   35.9986   26.5708   42.7430 H   0  0  0  0  0  0  0  0  0  0  0  0
   37.7341   24.1922   42.7425 H   0  0  0  0  0  0  0  0  0  0  0  0
   36.0085   24.2783   42.2892 H   0  0  0  0  0  0  0  0  0  0  0  0
   38.4583   24.3841   40.5465 H   0  0  0  0  0  0  0  0  0  0  0  0
   36.8872   23.7513   40.1433 H   0  0  0  0  0  0  0  0  0  0  0  0
   35.9507   26.2638   39.9296 H   0  0  0  0  0  0  0  0  0  0  0  0
   35.3287   27.8108   40.1993 H   0  0  0  0  0  0  0  0  0  0  0  0
   34.6765   30.2674   40.1170 H   0  0  0  0  0  0  0  0  0  0  0  0
   38.4334   31.2170   41.9542 H   0  0  0  0  0  0  0  0  0  0  0  0
   38.1477   26.9665   38.8109 H   0  0  0  0  0  0  0  0  0  0  0  0
   36.2920   27.4247   35.6081 H   0  0  0  0  0  0  0  0  0  0  0  0
   37.9935   26.7926   35.8187 H   0  0  0  0  0  0  0  0  0  0  0  0
   35.9138   29.7806   36.2202 H   0  0  0  0  0  0  0  0  0  0  0  0
   36.8638   31.7775   37.2999 H   0  0  0  0  0  0  0  0  0  0  0  0
   40.1474   29.5665   38.7600 H   0  0  0  0  0  0  0  0  0  0  0  0
  1  2  1  0
  3  2  1  0
  4  3  1  0
  5  4  1  0
  5  1  1  0
  6  1  1  0
  6 11  1  0
  7  6  2  0
  8  7  1  0
  8  9  2  0
  9 10  1  0
 10 11  2  0
 12  5  1  0
 13 14  2  0
 13 12  1  0
 15 13  2  0
 16 17  1  0
 16 13  1  0
 17 22  1  0
 18 17  2  0
 18 19  1  0
 19 20  2  0
 20 21  1  0
 22 21  2  0
  1 23  1  1
  2 24  1  0
  2 25  1  0
  3 26  1  0
  3 27  1  0
  4 28  1  0
  4 29  1  0
  5 30  1  6
  7 31  1  0
  8 32  1  0
 10 33  1  0
 12 34  1  0
 16 35  1  0
 16 36  1  0
 18 37  1  0
 19 38  1  0
 21 39  1  0
M  ISO  8  23  13  24  13  25  13  26  13  27  13  28  13  29  13  30  13
M  ISO  8  31  14  32  14  33  14  34   5  35   8  36   8  37  14  38  14
M  ISO  1  39  14
M  END
>  <minimizedAffinity>  (1) 
-4.28680992

>  <minimizedRMSD>  (1) 
2.89218616

$$$$
