
     RDKit          3D

 38 40  0  0  1  0  0  0  0  0999 V2000
   37.5600   26.7990   41.1590 C   0  0  1  0  0  0  0  0  0  0  0  0
   36.9700   26.1690   42.4620 C   0  0  0  0  0  0  0  0  0  0  0  0
   37.0090   24.6930   42.1290 C   0  0  0  0  0  0  0  0  0  0  0  0
   37.3900   24.5510   40.6830 C   0  0  0  0  0  0  0  0  0  0  0  0
   37.0160   25.9550   40.1100 C   0  0  2  0  0  0  0  0  0  0  0  0
   37.2510   28.2030   41.1230 C   0  0  0  0  0  0  0  0  0  0  0  0
   35.9250   28.5290   40.6760 C   0  0  0  0  0  0  0  0  0  0  0  0
   35.5500   29.8810   40.6180 C   0  0  0  0  0  0  0  0  0  0  0  0
   36.5060   30.8130   41.0020 N   0  0  0  0  0  0  0  0  0  0  0  0
   37.7380   30.4460   41.4140 C   0  0  0  0  0  0  0  0  0  0  0  0
   38.1280   29.1310   41.4790 N   0  0  0  0  0  0  0  0  0  0  0  0
   37.6450   26.0290   38.8540 N   0  0  0  0  0  0  0  0  0  0  0  0
   36.5910   26.0350   37.5150 S   0  0  0  0  0  0  0  0  0  0  0  0
   35.2300   26.5210   37.8870 O   0  0  0  0  0  0  0  0  0  0  0  0
   36.4660   24.6820   36.8860 O   0  0  0  0  0  0  0  0  0  0  0  0
   37.2410   27.1720   36.3100 C   0  0  0  0  0  0  0  0  0  0  0  0
   38.7300   27.1390   36.4890 C   0  0  0  0  0  0  0  0  0  0  0  0
   39.5940   28.1820   36.8050 C   0  0  0  0  0  0  0  0  0  0  0  0
   40.8870   27.6750   36.8640 C   0  0  0  0  0  0  0  0  0  0  0  0
   40.7430   26.3340   36.5780 C   0  0  0  0  0  0  0  0  0  0  0  0
   39.4840   26.0740   36.3690 O   0  0  0  0  0  0  0  0  0  0  0  0
   38.6556   26.8080   41.0613 H   0  0  0  0  0  0  0  0  0  0  0  0
   37.5940   26.3998   43.3380 H   0  0  0  0  0  0  0  0  0  0  0  0
   35.9698   26.5423   42.7272 H   0  0  0  0  0  0  0  0  0  0  0  0
   37.7531   24.1874   42.7621 H   0  0  0  0  0  0  0  0  0  0  0  0
   36.0255   24.2351   42.3108 H   0  0  0  0  0  0  0  0  0  0  0  0
   38.4651   24.3469   40.5710 H   0  0  0  0  0  0  0  0  0  0  0  0
   36.8892   23.7154   40.1721 H   0  0  0  0  0  0  0  0  0  0  0  0
   35.9656   26.2174   39.9156 H   0  0  0  0  0  0  0  0  0  0  0  0
   35.2191   27.7369   40.3856 H   0  0  0  0  0  0  0  0  0  0  0  0
   34.5475   30.1874   40.2846 H   0  0  0  0  0  0  0  0  0  0  0  0
   38.4543   31.2274   41.7078 H   0  0  0  0  0  0  0  0  0  0  0  0
   38.2006   26.8959   38.8263 H   0  0  0  0  0  0  0  0  0  0  0  0
   36.8546   28.1859   36.4907 H   0  0  0  0  0  0  0  0  0  0  0  0
   36.9470   26.8942   35.2871 H   0  0  0  0  0  0  0  0  0  0  0  0
   39.3039   29.2288   36.9785 H   0  0  0  0  0  0  0  0  0  0  0  0
   41.8155   28.2206   37.0883 H   0  0  0  0  0  0  0  0  0  0  0  0
   41.5613   25.6003   36.5334 H   0  0  0  0  0  0  0  0  0  0  0  0
  1  2  1  0
  3  2  1  0
  4  3  1  0
  5  4  1  0
  5  1  1  0
  6  1  1  0
  6 11  1  0
  7  6  2  0
  8  7  1  0
  8  9  2  0
  9 10  1  0
 10 11  2  0
 12  5  1  0
 13 14  2  0
 13 12  1  0
 15 13  2  0
 16 17  1  0
 16 13  1  0
 17 18  2  0
 18 19  1  0
 20 19  2  0
 21 17  1  0
 21 20  1  0
  1 22  1  1
  2 23  1  0
  2 24  1  0
  3 25  1  0
  3 26  1  0
  4 27  1  0
  4 28  1  0
  5 29  1  6
  7 30  1  0
  8 31  1  0
 10 32  1  0
 12 33  1  0
 16 34  1  0
 16 35  1  0
 18 36  1  0
 19 37  1  0
 20 38  1  0
M  ISO  8  22  13  23  13  24  13  25  13  26  13  27  13  28  13  29  13
M  ISO  8  30  14  31  14  32  14  33   5  34   8  35   8  36  14  37  14
M  ISO  1  38  14
M  END
>  <minimizedAffinity>  (1) 
-4.06297588

>  <minimizedRMSD>  (1) 
1.11638927

$$$$
