
     RDKit          3D

 38 40  0  0  1  0  0  0  0  0999 V2000
   37.5190   26.7640   41.2230 C   0  0  1  0  0  0  0  0  0  0  0  0
   36.9280   26.1590   42.5360 C   0  0  0  0  0  0  0  0  0  0  0  0
   36.9450   24.6830   42.2230 C   0  0  0  0  0  0  0  0  0  0  0  0
   37.3280   24.5130   40.7750 C   0  0  0  0  0  0  0  0  0  0  0  0
   36.9580   25.9170   40.1870 C   0  0  2  0  0  0  0  0  0  0  0  0
   37.2360   28.1730   41.1690 C   0  0  0  0  0  0  0  0  0  0  0  0
   35.9250   28.5130   40.6920 C   0  0  0  0  0  0  0  0  0  0  0  0
   35.5660   29.8690   40.6110 C   0  0  0  0  0  0  0  0  0  0  0  0
   36.5290   30.7920   41.0070 N   0  0  0  0  0  0  0  0  0  0  0  0
   37.7460   30.4090   41.4480 C   0  0  0  0  0  0  0  0  0  0  0  0
   38.1030   29.0940   41.5300 N   0  0  0  0  0  0  0  0  0  0  0  0
   37.5810   25.9620   38.9250 N   0  0  0  0  0  0  0  0  0  0  0  0
   36.5270   25.8450   37.5930 S   0  0  0  0  0  0  0  0  0  0  0  0
   35.2400   26.5660   37.8440 O   0  0  0  0  0  0  0  0  0  0  0  0
   36.2140   24.4220   37.2440 O   0  0  0  0  0  0  0  0  0  0  0  0
   37.2820   26.6290   36.1950 C   0  0  0  0  0  0  0  0  0  0  0  0
   38.6630   27.0090   36.4350 N   0  0  0  0  0  0  0  0  0  0  0  0
   39.5680   26.0310   36.4290 N   0  0  0  0  0  0  0  0  0  0  0  0
   40.8060   26.5360   36.6660 C   0  0  0  0  0  0  0  0  0  0  0  0
   40.5810   27.8850   36.8140 C   0  0  0  0  0  0  0  0  0  0  0  0
   39.2560   28.1960   36.6730 C   0  0  0  0  0  0  0  0  0  0  0  0
   38.6143   26.7542   41.1215 H   0  0  0  0  0  0  0  0  0  0  0  0
   37.5598   26.3924   43.4057 H   0  0  0  0  0  0  0  0  0  0  0  0
   35.9344   26.5492   42.8014 H   0  0  0  0  0  0  0  0  0  0  0  0
   37.6798   24.1747   42.8647 H   0  0  0  0  0  0  0  0  0  0  0  0
   35.9535   24.2439   42.4079 H   0  0  0  0  0  0  0  0  0  0  0  0
   38.4020   24.3019   40.6656 H   0  0  0  0  0  0  0  0  0  0  0  0
   36.8272   23.6711   40.2746 H   0  0  0  0  0  0  0  0  0  0  0  0
   35.9103   26.1930   39.9971 H   0  0  0  0  0  0  0  0  0  0  0  0
   35.2151   27.7267   40.3956 H   0  0  0  0  0  0  0  0  0  0  0  0
   34.5749   30.1846   40.2530 H   0  0  0  0  0  0  0  0  0  0  0  0
   38.4711   31.1790   41.7501 H   0  0  0  0  0  0  0  0  0  0  0  0
   38.0892   26.8549   38.8520 H   0  0  0  0  0  0  0  0  0  0  0  0
   36.7073   27.5338   35.9478 H   0  0  0  0  0  0  0  0  0  0  0  0
   37.2793   25.9025   35.3690 H   0  0  0  0  0  0  0  0  0  0  0  0
   41.7618   25.9949   36.7255 H   0  0  0  0  0  0  0  0  0  0  0  0
   41.3698   28.6234   37.0204 H   0  0  0  0  0  0  0  0  0  0  0  0
   38.7832   29.1870   36.7388 H   0  0  0  0  0  0  0  0  0  0  0  0
  1  2  1  0
  3  2  1  0
  4  3  1  0
  5  4  1  0
  5  1  1  0
  6  1  1  0
  6 11  1  0
  7  6  2  0
  8  7  1  0
  8  9  2  0
  9 10  1  0
 10 11  2  0
 12  5  1  0
 13 14  2  0
 13 12  1  0
 15 13  2  0
 16 17  1  0
 16 13  1  0
 17 21  1  0
 18 17  1  0
 18 19  2  0
 19 20  1  0
 21 20  2  0
  1 22  1  1
  2 23  1  0
  2 24  1  0
  3 25  1  0
  3 26  1  0
  4 27  1  0
  4 28  1  0
  5 29  1  6
  7 30  1  0
  8 31  1  0
 10 32  1  0
 12 33  1  0
 16 34  1  0
 16 35  1  0
 19 36  1  0
 20 37  1  0
 21 38  1  0
M  ISO  8  22  13  23  13  24  13  25  13  26  13  27  13  28  13  29  13
M  ISO  8  30  14  31  14  32  14  33   5  34   8  35   8  36  14  37  14
M  ISO  1  38  14
M  END
>  <minimizedAffinity>  (1) 
-4.0540061

>  <minimizedRMSD>  (1) 
1.11941195

$$$$
