
     RDKit          3D

 38 40  0  0  1  0  0  0  0  0999 V2000
   37.6710   26.8480   41.3280 C   0  0  1  0  0  0  0  0  0  0  0  0
   36.9460   26.2750   42.5910 C   0  0  0  0  0  0  0  0  0  0  0  0
   36.9400   24.7910   42.2870 C   0  0  0  0  0  0  0  0  0  0  0  0
   37.4420   24.5990   40.8840 C   0  0  0  0  0  0  0  0  0  0  0  0
   37.1590   26.0050   40.2570 C   0  0  2  0  0  0  0  0  0  0  0  0
   37.4360   28.2670   41.2400 C   0  0  0  0  0  0  0  0  0  0  0  0
   36.0850   28.6500   40.9420 C   0  0  0  0  0  0  0  0  0  0  0  0
   35.7810   30.0170   40.8460 C   0  0  0  0  0  0  0  0  0  0  0  0
   36.8290   30.9060   41.0500 N   0  0  0  0  0  0  0  0  0  0  0  0
   38.0830   30.4820   41.3280 C   0  0  0  0  0  0  0  0  0  0  0  0
   38.3920   29.1530   41.4240 N   0  0  0  0  0  0  0  0  0  0  0  0
   37.8970   26.0260   39.0500 N   0  0  0  0  0  0  0  0  0  0  0  0
   36.9510   26.2280   37.6450 S   0  0  0  0  0  0  0  0  0  0  0  0
   35.6890   26.9750   37.9290 O   0  0  0  0  0  0  0  0  0  0  0  0
   36.6070   24.9280   36.9930 O   0  0  0  0  0  0  0  0  0  0  0  0
   37.8890   27.2130   36.4960 C   0  0  0  0  0  0  0  0  0  0  0  0
   36.9110   27.9000   35.6050 C   0  0  0  0  0  0  0  0  0  0  0  0
   36.7470   29.2880   35.5640 C   0  0  0  0  0  0  0  0  0  0  0  0
   35.7810   29.6520   34.6560 C   0  0  0  0  0  0  0  0  0  0  0  0
   35.3720   28.4710   34.1560 N   0  0  0  0  0  0  0  0  0  0  0  0
   36.0300   27.4660   34.7100 N   0  0  0  0  0  0  0  0  0  0  0  0
   38.7700   26.8035   41.3163 H   0  0  0  0  0  0  0  0  0  0  0  0
   37.5075   26.4946   43.5111 H   0  0  0  0  0  0  0  0  0  0  0  0
   35.9474   26.7012   42.7674 H   0  0  0  0  0  0  0  0  0  0  0  0
   37.5974   24.2632   42.9936 H   0  0  0  0  0  0  0  0  0  0  0  0
   35.9220   24.3863   42.3858 H   0  0  0  0  0  0  0  0  0  0  0  0
   38.5160   24.3616   40.8703 H   0  0  0  0  0  0  0  0  0  0  0  0
   36.9668   23.7645   40.3476 H   0  0  0  0  0  0  0  0  0  0  0  0
   36.1357   26.3005   39.9822 H   0  0  0  0  0  0  0  0  0  0  0  0
   35.3051   27.8889   40.7922 H   0  0  0  0  0  0  0  0  0  0  0  0
   34.7630   30.3672   40.6203 H   0  0  0  0  0  0  0  0  0  0  0  0
   38.8772   31.2275   41.4813 H   0  0  0  0  0  0  0  0  0  0  0  0
   38.5708   26.8035   39.0985 H   0  0  0  0  0  0  0  0  0  0  0  0
   38.4904   27.9563   37.0399 H   0  0  0  0  0  0  0  0  0  0  0  0
   38.5755   26.5834   35.9110 H   0  0  0  0  0  0  0  0  0  0  0  0
   37.3182   29.9983   36.1798 H   0  0  0  0  0  0  0  0  0  0  0  0
   35.4283   30.6621   34.4004 H   0  0  0  0  0  0  0  0  0  0  0  0
   34.6426   28.3639   33.4367 H   0  0  0  0  0  0  0  0  0  0  0  0
  1  2  1  0
  3  2  1  0
  4  3  1  0
  5  4  1  0
  5  1  1  0
  6  1  1  0
  6 11  1  0
  7  6  2  0
  8  7  1  0
  8  9  2  0
  9 10  1  0
 10 11  2  0
 12  5  1  0
 13 14  2  0
 13 12  1  0
 15 13  2  0
 16 13  1  0
 17 16  1  0
 18 17  1  0
 19 18  2  0
 20 19  1  0
 20 21  1  0
 21 17  2  0
  1 22  1  1
  2 23  1  0
  2 24  1  0
  3 25  1  0
  3 26  1  0
  4 27  1  0
  4 28  1  0
  5 29  1  6
  7 30  1  0
  8 31  1  0
 10 32  1  0
 12 33  1  0
 16 34  1  0
 16 35  1  0
 18 36  1  0
 19 37  1  0
 20 38  1  0
M  ISO  8  22  13  23  13  24  13  25  13  26  13  27  13  28  13  29  13
M  ISO  8  30  14  31  14  32  14  33   5  34   8  35   8  36  14  37  14
M  ISO  1  38   9
M  END
>  <minimizedAffinity>  (1) 
-3.99948406

>  <minimizedRMSD>  (1) 
1.25274193

$$$$
