
     RDKit          3D

 38 40  0  0  1  0  0  0  0  0999 V2000
   37.5530   26.8060   41.2460 C   0  0  1  0  0  0  0  0  0  0  0  0
   36.8980   26.1830   42.5150 C   0  0  0  0  0  0  0  0  0  0  0  0
   36.9180   24.7090   42.1880 C   0  0  0  0  0  0  0  0  0  0  0  0
   37.4110   24.5520   40.7750 C   0  0  0  0  0  0  0  0  0  0  0  0
   37.0620   25.9500   40.1740 C   0  0  2  0  0  0  0  0  0  0  0  0
   37.2460   28.2100   41.1860 C   0  0  0  0  0  0  0  0  0  0  0  0
   35.9340   28.5350   40.7040 C   0  0  0  0  0  0  0  0  0  0  0  0
   35.5600   29.8860   40.6200 C   0  0  0  0  0  0  0  0  0  0  0  0
   36.5140   30.8210   41.0190 N   0  0  0  0  0  0  0  0  0  0  0  0
   37.7310   30.4510   41.4650 C   0  0  0  0  0  0  0  0  0  0  0  0
   38.1190   29.1330   41.5550 N   0  0  0  0  0  0  0  0  0  0  0  0
   37.7600   26.0260   38.9510 N   0  0  0  0  0  0  0  0  0  0  0  0
   36.7760   26.0890   37.5620 S   0  0  0  0  0  0  0  0  0  0  0  0
   35.3860   26.5350   37.8920 O   0  0  0  0  0  0  0  0  0  0  0  0
   36.7080   24.7800   36.8460 O   0  0  0  0  0  0  0  0  0  0  0  0
   37.4570   27.3100   36.4640 C   0  0  0  0  0  0  0  0  0  0  0  0
   38.9470   27.2560   36.5530 C   0  0  0  0  0  0  0  0  0  0  0  0
   39.9210   28.1930   36.7850 C   0  0  0  0  0  0  0  0  0  0  0  0
   41.1280   27.5690   36.7530 N   0  0  0  0  0  0  0  0  0  0  0  0
   40.9000   26.2470   36.5020 C   0  0  0  0  0  0  0  0  0  0  0  0
   39.5740   26.0740   36.3840 N   0  0  0  0  0  0  0  0  0  0  0  0
   38.6521   26.8188   41.2041 H   0  0  0  0  0  0  0  0  0  0  0  0
   37.4888   26.4002   43.4171 H   0  0  0  0  0  0  0  0  0  0  0  0
   35.8937   26.5750   42.7332 H   0  0  0  0  0  0  0  0  0  0  0  0
   37.5926   24.1825   42.8792 H   0  0  0  0  0  0  0  0  0  0  0  0
   35.9096   24.2815   42.2903 H   0  0  0  0  0  0  0  0  0  0  0  0
   38.4936   24.3593   40.7450 H   0  0  0  0  0  0  0  0  0  0  0  0
   36.9659   23.7043   40.2335 H   0  0  0  0  0  0  0  0  0  0  0  0
   36.0206   26.2007   39.9239 H   0  0  0  0  0  0  0  0  0  0  0  0
   35.2341   27.7405   40.4058 H   0  0  0  0  0  0  0  0  0  0  0  0
   34.5667   30.1904   40.2585 H   0  0  0  0  0  0  0  0  0  0  0  0
   38.4423   31.2330   41.7691 H   0  0  0  0  0  0  0  0  0  0  0  0
   38.3429   26.8750   38.9682 H   0  0  0  0  0  0  0  0  0  0  0  0
   37.1046   28.3097   36.7578 H   0  0  0  0  0  0  0  0  0  0  0  0
   37.1355   27.1069   35.4318 H   0  0  0  0  0  0  0  0  0  0  0  0
   39.7541   29.2651   36.9659 H   0  0  0  0  0  0  0  0  0  0  0  0
   41.6663   25.4629   36.4124 H   0  0  0  0  0  0  0  0  0  0  0  0
   39.1069   25.1760   36.1935 H   0  0  0  0  0  0  0  0  0  0  0  0
  1  2  1  0
  3  2  1  0
  4  3  1  0
  5  4  1  0
  5  1  1  0
  6  1  1  0
  6 11  1  0
  7  6  2  0
  8  7  1  0
  8  9  2  0
  9 10  1  0
 10 11  2  0
 12  5  1  0
 13 14  2  0
 13 12  1  0
 15 13  2  0
 16 17  1  0
 16 13  1  0
 17 18  2  0
 19 18  1  0
 20 19  2  0
 21 20  1  0
 21 17  1  0
  1 22  1  1
  2 23  1  0
  2 24  1  0
  3 25  1  0
  3 26  1  0
  4 27  1  0
  4 28  1  0
  5 29  1  6
  7 30  1  0
  8 31  1  0
 10 32  1  0
 12 33  1  0
 16 34  1  0
 16 35  1  0
 18 36  1  0
 20 37  1  0
 21 38  1  0
M  ISO  8  22  13  23  13  24  13  25  13  26  13  27  13  28  13  29  13
M  ISO  8  30  14  31  14  32  14  33   5  34   8  35   8  36  14  37  14
M  ISO  1  38   9
M  END
>  <minimizedAffinity>  (1) 
-3.98007131

>  <minimizedRMSD>  (1) 
1.15176797

$$$$
