
     RDKit          3D

 37 39  0  0  1  0  0  0  0  0999 V2000
   37.5190   26.7840   41.3070 C   0  0  1  0  0  0  0  0  0  0  0  0
   36.8960   26.2140   42.6250 C   0  0  0  0  0  0  0  0  0  0  0  0
   36.9340   24.7230   42.3620 C   0  0  0  0  0  0  0  0  0  0  0  0
   37.3640   24.5130   40.9360 C   0  0  0  0  0  0  0  0  0  0  0  0
   36.9810   25.8850   40.2930 C   0  0  2  0  0  0  0  0  0  0  0  0
   37.2000   28.1840   41.1950 C   0  0  0  0  0  0  0  0  0  0  0  0
   35.9070   28.4960   40.6750 C   0  0  0  0  0  0  0  0  0  0  0  0
   35.5450   29.8470   40.5470 C   0  0  0  0  0  0  0  0  0  0  0  0
   36.4900   30.7880   40.9430 N   0  0  0  0  0  0  0  0  0  0  0  0
   37.6970   30.4310   41.4270 C   0  0  0  0  0  0  0  0  0  0  0  0
   38.0700   29.1180   41.5610 N   0  0  0  0  0  0  0  0  0  0  0  0
   37.6410   25.9090   39.0400 N   0  0  0  0  0  0  0  0  0  0  0  0
   36.6320   25.5800   37.7060 S   0  0  0  0  0  0  0  0  0  0  0  0
   35.4000   26.4200   37.7240 O   0  0  0  0  0  0  0  0  0  0  0  0
   36.2430   24.1410   37.6140 O   0  0  0  0  0  0  0  0  0  0  0  0
   37.5280   26.0260   36.2300 C   0  0  0  0  0  0  0  0  0  0  0  0
   36.4730   26.5410   35.2780 C   0  0  0  0  0  0  0  0  0  0  0  0
   35.6780   25.5140   34.5080 C   0  0  0  0  0  0  0  0  0  0  0  0
   34.5900   26.6940   33.5450 S   0  0  0  0  0  0  0  0  0  0  0  0
   35.3680   28.2420   34.3200 C   0  0  0  0  0  0  0  0  0  0  0  0
   36.3170   27.8630   35.1830 N   0  0  0  0  0  0  0  0  0  0  0  0
   38.6163   26.7936   41.2306 H   0  0  0  0  0  0  0  0  0  0  0  0
   37.5015   26.4819   43.5034 H   0  0  0  0  0  0  0  0  0  0  0  0
   35.8916   26.6027   42.8490 H   0  0  0  0  0  0  0  0  0  0  0  0
   37.6517   24.2421   43.0429 H   0  0  0  0  0  0  0  0  0  0  0  0
   35.9414   24.2799   42.5309 H   0  0  0  0  0  0  0  0  0  0  0  0
   38.4453   24.3236   40.8656 H   0  0  0  0  0  0  0  0  0  0  0  0
   36.8987   23.6430   40.4496 H   0  0  0  0  0  0  0  0  0  0  0  0
   35.9291   26.1230   40.0765 H   0  0  0  0  0  0  0  0  0  0  0  0
   35.2107   27.6966   40.3815 H   0  0  0  0  0  0  0  0  0  0  0  0
   34.5626   30.1463   40.1530 H   0  0  0  0  0  0  0  0  0  0  0  0
   38.4054   31.2184   41.7240 H   0  0  0  0  0  0  0  0  0  0  0  0
   38.0518   26.8446   38.9102 H   0  0  0  0  0  0  0  0  0  0  0  0
   38.2686   26.8095   36.4483 H   0  0  0  0  0  0  0  0  0  0  0  0
   38.0861   25.1760   35.8105 H   0  0  0  0  0  0  0  0  0  0  0  0
   35.7239   24.4150   34.5118 H   0  0  0  0  0  0  0  0  0  0  0  0
   35.0847   29.2810   34.0960 H   0  0  0  0  0  0  0  0  0  0  0  0
  1  2  1  0
  3  2  1  0
  4  3  1  0
  5  4  1  0
  5  1  1  0
  6  1  1  0
  6 11  1  0
  7  6  2  0
  8  7  1  0
  8  9  2  0
  9 10  1  0
 10 11  2  0
 12  5  1  0
 13 14  2  0
 13 12  1  0
 15 13  2  0
 16 13  1  0
 17 16  1  0
 18 17  2  0
 19 20  1  0
 19 18  1  0
 20 21  2  0
 21 17  1  0
  1 22  1  1
  2 23  1  0
  2 24  1  0
  3 25  1  0
  3 26  1  0
  4 27  1  0
  4 28  1  0
  5 29  1  6
  7 30  1  0
  8 31  1  0
 10 32  1  0
 12 33  1  0
 16 34  1  0
 16 35  1  0
 18 36  1  0
 20 37  1  0
M  ISO  8  22  13  23  13  24  13  25  13  26  13  27  13  28  13  29  13
M  ISO  8  30  14  31  14  32  14  33   5  34   8  35   8  36  14  37  14
M  END
>  <minimizedAffinity>  (1) 
-3.81963801

>  <minimizedRMSD>  (1) 
0.49888742

$$$$
