
     RDKit          3D

 33 34  0  0  1  0  0  0  0  0999 V2000
   37.5400   26.7910   41.1900 C   0  0  1  0  0  0  0  0  0  0  0  0
   36.9990   26.1810   42.5100 C   0  0  0  0  0  0  0  0  0  0  0  0
   36.9630   24.7160   42.1960 C   0  0  0  0  0  0  0  0  0  0  0  0
   37.3600   24.5360   40.7520 C   0  0  0  0  0  0  0  0  0  0  0  0
   36.9770   25.9290   40.1630 C   0  0  2  0  0  0  0  0  0  0  0  0
   37.2390   28.2010   41.1410 C   0  0  0  0  0  0  0  0  0  0  0  0
   35.9240   28.5270   40.6850 C   0  0  0  0  0  0  0  0  0  0  0  0
   35.5490   29.8790   40.6130 C   0  0  0  0  0  0  0  0  0  0  0  0
   36.5050   30.8080   40.9980 N   0  0  0  0  0  0  0  0  0  0  0  0
   37.7360   30.4360   41.4230 C   0  0  0  0  0  0  0  0  0  0  0  0
   38.1030   29.1230   41.4930 N   0  0  0  0  0  0  0  0  0  0  0  0
   37.5880   25.9960   38.8960 N   0  0  0  0  0  0  0  0  0  0  0  0
   36.5200   25.8610   37.5740 S   0  0  0  0  0  0  0  0  0  0  0  0
   35.2420   26.5980   37.8240 O   0  0  0  0  0  0  0  0  0  0  0  0
   36.2000   24.4410   37.2320 O   0  0  0  0  0  0  0  0  0  0  0  0
   37.2920   26.6320   36.1690 C   0  0  0  0  0  0  0  0  0  0  0  0
   37.4160   28.0430   36.4840 N   0  0  0  0  0  0  0  0  0  0  0  0
   38.6325   26.8009   41.0621 H   0  0  0  0  0  0  0  0  0  0  0  0
   37.6750   26.3911   43.3520 H   0  0  0  0  0  0  0  0  0  0  0  0
   36.0244   26.5892   42.8160 H   0  0  0  0  0  0  0  0  0  0  0  0
   37.6683   24.1779   42.8464 H   0  0  0  0  0  0  0  0  0  0  0  0
   35.9531   24.3146   42.3663 H   0  0  0  0  0  0  0  0  0  0  0  0
   38.4371   24.3368   40.6508 H   0  0  0  0  0  0  0  0  0  0  0  0
   36.8774   23.6835   40.2516 H   0  0  0  0  0  0  0  0  0  0  0  0
   35.9214   26.1789   39.9808 H   0  0  0  0  0  0  0  0  0  0  0  0
   35.2187   27.7339   40.3958 H   0  0  0  0  0  0  0  0  0  0  0  0
   34.5499   30.1850   40.2694 H   0  0  0  0  0  0  0  0  0  0  0  0
   38.4581   31.2112   41.7192 H   0  0  0  0  0  0  0  0  0  0  0  0
   38.0742   26.9011   38.8230 H   0  0  0  0  0  0  0  0  0  0  0  0
   36.6690   26.4969   35.2725 H   0  0  0  0  0  0  0  0  0  0  0  0
   38.2755   26.1846   35.9627 H   0  0  0  0  0  0  0  0  0  0  0  0
   37.4269   28.1669   37.5065 H   0  0  0  0  0  0  0  0  0  0  0  0
   38.2923   28.4082   36.0846 H   0  0  0  0  0  0  0  0  0  0  0  0
  1  2  1  0
  3  2  1  0
  4  3  1  0
  5  4  1  0
  5  1  1  0
  6  1  1  0
  6 11  1  0
  7  6  2  0
  8  7  1  0
  8  9  2  0
  9 10  1  0
 10 11  2  0
 12  5  1  0
 13 14  2  0
 13 12  1  0
 15 13  2  0
 16 17  1  0
 16 13  1  0
  1 18  1  1
  2 19  1  0
  2 20  1  0
  3 21  1  0
  3 22  1  0
  4 23  1  0
  4 24  1  0
  5 25  1  6
  7 26  1  0
  8 27  1  0
 10 28  1  0
 12 29  1  0
 16 30  1  0
 16 31  1  0
 17 32  1  0
 17 33  1  0
M  ISO  8  18  13  19  13  20  13  21  13  22  13  23  13  24  13  25  13
M  ISO  8  26  14  27  14  28  14  29   5  30   8  31   8  32   5  33   5
M  END
>  <minimizedAffinity>  (1) 
-3.62451434

>  <minimizedRMSD>  (1) 
0.0522210039

$$$$
