
     RDKit          3D

 23 24  0  0  0  0  0  0  0  0999 V2000
   38.2570   28.7550   42.9730 C   0  0  0  0  0  0  0  0  0  0  0  0
   38.1290   27.4300   42.5290 C   0  0  0  0  0  0  0  0  0  0  0  0
   37.1980   27.1560   41.5130 C   0  0  0  0  0  0  0  0  0  0  0  0
   36.4760   28.1980   41.0230 N   0  0  0  0  0  0  0  0  0  0  0  0
   36.6150   29.4650   41.4660 C   0  0  0  0  0  0  0  0  0  0  0  0
   37.5040   29.7310   42.4370 N   0  0  0  0  0  0  0  0  0  0  0  0
   37.0020   25.8320   40.9990 N   0  0  0  0  0  0  0  0  0  0  0  0
   37.2230   24.6980   41.8720 C   0  0  0  0  0  0  0  0  0  0  0  0
   37.5170   23.4320   41.1310 C   0  0  0  0  0  0  0  0  0  0  0  0
   37.3960   23.5240   39.7660 O   0  0  0  0  0  0  0  0  0  0  0  0
   36.3360   24.2750   39.3240 C   0  0  0  0  0  0  0  0  0  0  0  0
   36.5920   25.7130   39.6290 C   0  0  0  0  0  0  0  0  0  0  0  0
   38.9796   28.9970   43.7663 H   0  0  0  0  0  0  0  0  0  0  0  0
   38.7415   26.6270   42.9649 H   0  0  0  0  0  0  0  0  0  0  0  0
   36.0054   30.2731   41.0355 H   0  0  0  0  0  0  0  0  0  0  0  0
   38.0752   24.9240   42.5297 H   0  0  0  0  0  0  0  0  0  0  0  0
   36.2945   24.5365   42.4393 H   0  0  0  0  0  0  0  0  0  0  0  0
   38.5490   23.1306   41.3638 H   0  0  0  0  0  0  0  0  0  0  0  0
   36.7667   22.6982   41.4604 H   0  0  0  0  0  0  0  0  0  0  0  0
   35.4168   23.9491   39.8327 H   0  0  0  0  0  0  0  0  0  0  0  0
   36.2170   24.1431   38.2384 H   0  0  0  0  0  0  0  0  0  0  0  0
   37.3871   26.0941   38.9712 H   0  0  0  0  0  0  0  0  0  0  0  0
   35.6756   26.2981   39.4622 H   0  0  0  0  0  0  0  0  0  0  0  0
  2  1  2  0
  3  2  1  0
  4  5  1  0
  4  3  2  0
  5  6  2  0
  6  1  1  0
  7  3  1  0
  7  8  1  0
  9  8  1  0
 10  9  1  0
 11 12  1  0
 11 10  1  0
 12  7  1  0
  1 13  1  0
  2 14  1  0
  5 15  1  0
  8 16  1  0
  8 17  1  0
  9 18  1  0
  9 19  1  0
 11 20  1  0
 11 21  1  0
 12 22  1  0
 12 23  1  0
M  ISO  8  13  14  14  14  15  14  16  13  17  13  18  13  19  13  20  13
M  ISO  3  21  13  22  13  23  13
M  END
>  <minimizedAffinity>  (1) 
-3.30252743

>  <minimizedRMSD>  (1) 
2.62910461

$$$$
