
     RDKit          3D

 36 39  0  0  1  0  0  0  0  0999 V2000
   42.4600   28.8660   41.9760 C   0  0  0  0  0  0  0  0  0  0  0  0
   41.1620   28.6280   42.4410 C   0  0  0  0  0  0  0  0  0  0  0  0
   40.0760   28.7840   41.5800 C   0  0  0  0  0  0  0  0  0  0  0  0
   40.3530   29.1690   40.3110 N   0  0  0  0  0  0  0  0  0  0  0  0
   41.5960   29.3980   39.8580 C   0  0  0  0  0  0  0  0  0  0  0  0
   42.6420   29.2460   40.6940 N   0  0  0  0  0  0  0  0  0  0  0  0
   38.7420   28.5510   42.0200 N   0  0  0  0  0  0  0  0  0  0  0  0
   38.3680   28.7850   43.3850 C   0  0  0  0  0  0  0  0  0  0  0  0
   37.1210   28.0570   43.7970 C   0  0  0  0  0  0  0  0  0  0  0  0
   36.5070   27.3560   42.7910 O   0  0  0  0  0  0  0  0  0  0  0  0
   36.4420   28.0610   41.6020 C   0  0  0  0  0  0  0  0  0  0  0  0
   37.8110   28.0760   41.0150 C   0  0  1  0  0  0  0  0  0  0  0  0
   37.8980   28.8260   39.7780 N   0  0  0  0  0  0  0  0  0  0  0  0
   38.2150   28.3480   38.5670 C   0  0  0  0  0  0  0  0  0  0  0  0
   38.2140   29.2950   37.6100 N   0  0  0  0  0  0  0  0  0  0  0  0
   37.8780   30.4390   38.2390 C   0  0  0  0  0  0  0  0  0  0  0  0
   37.7170   31.7280   37.7830 C   0  0  0  0  0  0  0  0  0  0  0  0
   37.3710   32.6800   38.6610 N   0  0  0  0  0  0  0  0  0  0  0  0
   37.1770   32.4020   39.9800 C   0  0  0  0  0  0  0  0  0  0  0  0
   37.3420   31.1290   40.4010 N   0  0  0  0  0  0  0  0  0  0  0  0
   37.6850   30.1460   39.5710 C   0  0  0  0  0  0  0  0  0  0  0  0
   37.9000   32.0930   36.4260 N   0  0  0  0  0  0  0  0  0  0  0  0
   43.3225   28.7447   42.6479 H   0  0  0  0  0  0  0  0  0  0  0  0
   40.9984   28.3184   43.4838 H   0  0  0  0  0  0  0  0  0  0  0  0
   41.7590   29.7066   38.8148 H   0  0  0  0  0  0  0  0  0  0  0  0
   39.1935   28.4564   44.0335 H   0  0  0  0  0  0  0  0  0  0  0  0
   38.1626   29.8611   43.4846 H   0  0  0  0  0  0  0  0  0  0  0  0
   37.3861   27.3486   44.5957 H   0  0  0  0  0  0  0  0  0  0  0  0
   36.4049   28.8267   44.1207 H   0  0  0  0  0  0  0  0  0  0  0  0
   35.7424   27.5681   40.9109 H   0  0  0  0  0  0  0  0  0  0  0  0
   36.0849   29.0863   41.7785 H   0  0  0  0  0  0  0  0  0  0  0  0
   38.0779   27.0483   40.7275 H   0  0  0  0  0  0  0  0  0  0  0  0
   38.4516   27.2911   38.3746 H   0  0  0  0  0  0  0  0  0  0  0  0
   36.8925   33.1958   40.6864 H   0  0  0  0  0  0  0  0  0  0  0  0
   37.7677   33.0717   36.1336 H   0  0  0  0  0  0  0  0  0  0  0  0
   38.1653   31.3796   35.7321 H   0  0  0  0  0  0  0  0  0  0  0  0
  1  2  2  0
  3  7  1  0
  3  2  1  0
  4  3  2  0
  5  4  1  0
  5  6  2  0
  6  1  1  0
  7  8  1  0
  8  9  1  0
 10  9  1  0
 11 10  1  0
 12 11  1  0
 12  7  1  0
 13 12  1  0
 14 13  1  0
 15 16  1  0
 15 14  2  0
 16 21  2  0
 17 16  1  0
 17 18  2  0
 18 19  1  0
 19 20  2  0
 21 13  1  0
 21 20  1  0
 22 17  1  0
  1 23  1  0
  2 24  1  0
  5 25  1  0
  8 26  1  0
  8 27  1  0
  9 28  1  0
  9 29  1  0
 11 30  1  0
 11 31  1  0
 12 32  1  6
 14 33  1  0
 19 34  1  0
 22 35  1  0
 22 36  1  0
M  ISO  8  23  14  24  14  25  14  26  13  27  13  28  13  29  13  30  13
M  ISO  4  31  13  32  13  33  14  34  14
M  END
>  <minimizedAffinity>  (1) 
-5.24011612

>  <minimizedRMSD>  (1) 
4.19079113

$$$$
