
     RDKit          3D

 36 38  0  0  1  0  0  0  0  0999 V2000
   38.7190   32.9360   40.5620 C   0  0  0  0  0  0  0  0  0  0  0  0
   38.6580   31.7240   41.2570 C   0  0  0  0  0  0  0  0  0  0  0  0
   37.8310   30.7000   40.7950 C   0  0  0  0  0  0  0  0  0  0  0  0
   37.1310   30.9720   39.6740 N   0  0  0  0  0  0  0  0  0  0  0  0
   37.1810   32.1290   39.0000 C   0  0  0  0  0  0  0  0  0  0  0  0
   37.9810   33.1070   39.4530 N   0  0  0  0  0  0  0  0  0  0  0  0
   37.7350   29.4500   41.4680 N   0  0  0  0  0  0  0  0  0  0  0  0
   37.8930   29.3830   42.8910 C   0  0  0  0  0  0  0  0  0  0  0  0
   38.2660   28.0060   43.3740 C   0  0  0  0  0  0  0  0  0  0  0  0
   38.3100   27.0420   42.4060 O   0  0  0  0  0  0  0  0  0  0  0  0
   37.2860   27.1050   41.5000 C   0  0  0  0  0  0  0  0  0  0  0  0
   37.4700   28.2950   40.6340 C   0  0  1  0  0  0  0  0  0  0  0  0
   34.1490   28.9280   37.9780 C   0  0  0  0  0  0  0  0  0  0  0  0
   34.0070   29.1140   39.3240 C   0  0  0  0  0  0  0  0  0  0  0  0
   35.0590   28.9170   40.2020 C   0  0  0  0  0  0  0  0  0  0  0  0
   36.3070   28.5180   39.7170 C   0  0  0  0  0  0  0  0  0  0  0  0
   36.4160   28.3370   38.3340 C   0  0  0  0  0  0  0  0  0  0  0  0
   35.3690   28.5340   37.4640 C   0  0  0  0  0  0  0  0  0  0  0  0
   32.8090   29.1830   36.8970 S   0  0  0  0  0  0  0  0  0  0  0  0
   32.4050   27.8800   36.2520 O   0  0  0  0  0  0  0  0  0  0  0  0
   31.5890   29.6730   37.6180 O   0  0  0  0  0  0  0  0  0  0  0  0
   39.3693   33.7466   40.9225 H   0  0  0  0  0  0  0  0  0  0  0  0
   39.2606   31.5785   42.1657 H   0  0  0  0  0  0  0  0  0  0  0  0
   36.5774   32.2747   38.0920 H   0  0  0  0  0  0  0  0  0  0  0  0
   38.6842   30.0863   43.1900 H   0  0  0  0  0  0  0  0  0  0  0  0
   36.9242   29.6410   43.3437 H   0  0  0  0  0  0  0  0  0  0  0  0
   39.2608   28.0665   43.8395 H   0  0  0  0  0  0  0  0  0  0  0  0
   37.4721   27.7018   44.0720 H   0  0  0  0  0  0  0  0  0  0  0  0
   37.2871   26.1960   40.8805 H   0  0  0  0  0  0  0  0  0  0  0  0
   36.3268   27.1819   42.0329 H   0  0  0  0  0  0  0  0  0  0  0  0
   38.3339   28.1221   39.9754 H   0  0  0  0  0  0  0  0  0  0  0  0
   33.0305   29.4288   39.7207 H   0  0  0  0  0  0  0  0  0  0  0  0
   34.9124   29.0745   41.2808 H   0  0  0  0  0  0  0  0  0  0  0  0
   37.3862   28.0218   37.9224 H   0  0  0  0  0  0  0  0  0  0  0  0
   35.5004   28.3811   36.3826 H   0  0  0  0  0  0  0  0  0  0  0  0
   33.2317   30.1104   35.9815 H   0  0  0  0  0  0  0  0  0  0  0  0
  1  2  2  0
  3  2  1  0
  3  7  1  0
  4  3  2  0
  5  6  2  0
  5  4  1  0
  6  1  1  0
  7  8  1  0
  8  9  1  0
 10  9  1  0
 11 10  1  0
 12  7  1  0
 12 11  1  0
 13 14  2  0
 14 15  1  0
 16 15  2  0
 16 12  1  0
 17 16  1  0
 18 13  1  0
 18 17  2  0
 19 21  2  0
 19 13  1  0
 20 19  2  0
  1 22  1  0
  2 23  1  0
  5 24  1  0
  8 25  1  0
  8 26  1  0
  9 27  1  0
  9 28  1  0
 11 29  1  0
 11 30  1  0
 12 31  1  6
 14 32  1  0
 15 33  1  0
 17 34  1  0
 18 35  1  0
 19 36  1  0
M  ISO  8  22  14  23  14  24  14  25  13  26  13  27  13  28  13  29  13
M  ISO  7  30  13  31  13  32  14  33  14  34  14  35  14  36  11
M  END
>  <minimizedAffinity>  (1) 
-5.07770348

>  <minimizedRMSD>  (1) 
3.41978621

$$$$
