
     RDKit          3D

 36 38  0  0  1  0  0  0  0  0999 V2000
   36.9810   27.3600   43.2780 C   0  0  0  0  0  0  0  0  0  0  0  0
   36.8540   27.2300   41.8950 C   0  0  0  0  0  0  0  0  0  0  0  0
   37.3270   28.2390   41.0550 C   0  0  0  0  0  0  0  0  0  0  0  0
   37.8940   29.3060   41.6550 N   0  0  0  0  0  0  0  0  0  0  0  0
   38.0200   29.4360   42.9920 C   0  0  0  0  0  0  0  0  0  0  0  0
   37.5600   28.4590   43.7900 N   0  0  0  0  0  0  0  0  0  0  0  0
   37.2190   28.1510   39.6400 N   0  0  0  0  0  0  0  0  0  0  0  0
   36.1240   27.4440   39.0310 C   0  0  0  0  0  0  0  0  0  0  0  0
   36.4090   27.0030   37.6210 C   0  0  0  0  0  0  0  0  0  0  0  0
   37.6170   27.4320   37.1150 O   0  0  0  0  0  0  0  0  0  0  0  0
   37.8780   28.7540   37.4230 C   0  0  0  0  0  0  0  0  0  0  0  0
   38.2450   28.7950   38.8770 C   0  0  1  0  0  0  0  0  0  0  0  0
   38.6520   30.0800   39.3340 N   0  0  0  0  0  0  0  0  0  0  0  0
   37.8870   31.2080   39.2990 C   0  0  0  0  0  0  0  0  0  0  0  0
   38.2580   32.4470   39.7310 C   0  0  0  0  0  0  0  0  0  0  0  0
   37.3200   33.5960   39.6320 C   0  0  0  0  0  0  0  0  0  0  0  0
   39.5190   32.5980   40.2570 C   0  0  0  0  0  0  0  0  0  0  0  0
   39.8990   33.7160   40.6660 O   0  0  0  0  0  0  0  0  0  0  0  0
   40.3050   31.4970   40.3080 N   0  0  0  0  0  0  0  0  0  0  0  0
   39.8900   30.2970   39.8670 C   0  0  0  0  0  0  0  0  0  0  0  0
   40.7130   29.3810   39.9750 O   0  0  0  0  0  0  0  0  0  0  0  0
   36.6096   26.5680   43.9450 H   0  0  0  0  0  0  0  0  0  0  0  0
   36.3817   26.3334   41.4671 H   0  0  0  0  0  0  0  0  0  0  0  0
   38.4934   30.3307   43.4227 H   0  0  0  0  0  0  0  0  0  0  0  0
   35.9037   26.5531   39.6374 H   0  0  0  0  0  0  0  0  0  0  0  0
   35.2720   28.1385   38.9885 H   0  0  0  0  0  0  0  0  0  0  0  0
   36.3992   25.9033   37.5977 H   0  0  0  0  0  0  0  0  0  0  0  0
   35.6301   27.4570   36.9908 H   0  0  0  0  0  0  0  0  0  0  0  0
   38.7120   29.1280   36.8111 H   0  0  0  0  0  0  0  0  0  0  0  0
   37.0024   29.3876   37.2185 H   0  0  0  0  0  0  0  0  0  0  0  0
   39.1660   28.2145   39.0341 H   0  0  0  0  0  0  0  0  0  0  0  0
   36.8737   31.1092   38.8825 H   0  0  0  0  0  0  0  0  0  0  0  0
   37.0450   33.9329   40.6424 H   0  0  0  0  0  0  0  0  0  0  0  0
   37.8062   34.4206   39.0902 H   0  0  0  0  0  0  0  0  0  0  0  0
   36.4147   33.2847   39.0902 H   0  0  0  0  0  0  0  0  0  0  0  0
   41.2544   31.5818   40.6984 H   0  0  0  0  0  0  0  0  0  0  0  0
  1  6  2  0
  2  1  1  0
  3  4  1  0
  3  2  2  0
  4  5  2  0
  5  6  1  0
  7  3  1  0
  8  7  1  0
  9  8  1  0
 10 11  1  0
 10  9  1  0
 11 12  1  0
 12 13  1  0
 12  7  1  0
 13 20  1  0
 14 13  1  0
 14 15  2  0
 15 17  1  0
 16 15  1  0
 17 19  1  0
 17 18  2  0
 20 21  2  0
 20 19  1  0
  1 22  1  0
  2 23  1  0
  5 24  1  0
  8 25  1  0
  8 26  1  0
  9 27  1  0
  9 28  1  0
 11 29  1  0
 11 30  1  0
 12 31  1  6
 14 32  1  0
 16 33  1  0
 16 34  1  0
 16 35  1  0
 19 36  1  0
M  ISO  8  22  14  23  14  24  14  25  13  26  13  27  13  28  13  29  13
M  ISO  7  30  13  31  13  32  14  33   8  34   8  35   8  36   9
M  END
>  <minimizedAffinity>  (1) 
-4.92103815

>  <minimizedRMSD>  (1) 
4.97725821

$$$$
