
     RDKit          3D

 37 40  0  0  1  0  0  0  0  0999 V2000
   39.6030   28.5080   43.0220 C   0  0  0  0  0  0  0  0  0  0  0  0
   39.3260   27.2250   42.5260 C   0  0  0  0  0  0  0  0  0  0  0  0
   38.0510   26.9710   42.0210 C   0  0  0  0  0  0  0  0  0  0  0  0
   37.1600   27.9960   42.0450 N   0  0  0  0  0  0  0  0  0  0  0  0
   37.4270   29.2220   42.5190 C   0  0  0  0  0  0  0  0  0  0  0  0
   38.6460   29.4650   43.0020 N   0  0  0  0  0  0  0  0  0  0  0  0
   37.6880   25.6960   41.5010 N   0  0  0  0  0  0  0  0  0  0  0  0
   38.2920   24.5020   42.0160 C   0  0  0  0  0  0  0  0  0  0  0  0
   38.2340   23.3340   41.0710 C   0  0  0  0  0  0  0  0  0  0  0  0
   37.5290   23.5710   39.9250 O   0  0  0  0  0  0  0  0  0  0  0  0
   36.3690   24.2750   40.0990 C   0  0  0  0  0  0  0  0  0  0  0  0
   36.6960   25.6810   40.4460 C   0  0  2  0  0  0  0  0  0  0  0  0
   37.0950   26.4880   39.3190 N   0  0  0  0  0  0  0  0  0  0  0  0
   38.3150   26.5530   38.7150 C   0  0  0  0  0  0  0  0  0  0  0  0
   38.3250   27.4160   37.6900 N   0  0  0  0  0  0  0  0  0  0  0  0
   37.0890   27.9540   37.5880 C   0  0  0  0  0  0  0  0  0  0  0  0
   36.4720   28.8750   36.7650 C   0  0  0  0  0  0  0  0  0  0  0  0
   37.1540   29.4040   35.8450 O   0  0  0  0  0  0  0  0  0  0  0  0
   35.1830   29.2260   36.9070 N   0  0  0  0  0  0  0  0  0  0  0  0
   34.4940   28.6510   37.8860 C   0  0  0  0  0  0  0  0  0  0  0  0
   33.1270   28.8870   38.1980 N   0  0  0  0  0  0  0  0  0  0  0  0
   35.0800   27.7550   38.6910 N   0  0  0  0  0  0  0  0  0  0  0  0
   36.3690   27.3680   38.5930 C   0  0  0  0  0  0  0  0  0  0  0  0
   40.5996   28.7365   43.4278 H   0  0  0  0  0  0  0  0  0  0  0  0
   40.0954   26.4389   42.5352 H   0  0  0  0  0  0  0  0  0  0  0  0
   36.6583   30.0088   42.5095 H   0  0  0  0  0  0  0  0  0  0  0  0
   39.3479   24.7159   42.2380 H   0  0  0  0  0  0  0  0  0  0  0  0
   37.7217   24.2165   42.9122 H   0  0  0  0  0  0  0  0  0  0  0  0
   39.2636   23.0651   40.7924 H   0  0  0  0  0  0  0  0  0  0  0  0
   37.7091   22.5260   41.6016 H   0  0  0  0  0  0  0  0  0  0  0  0
   35.7827   24.2529   39.1686 H   0  0  0  0  0  0  0  0  0  0  0  0
   35.7812   23.8221   40.9110 H   0  0  0  0  0  0  0  0  0  0  0  0
   35.7691   26.1526   40.8043 H   0  0  0  0  0  0  0  0  0  0  0  0
   39.1894   25.9656   39.0319 H   0  0  0  0  0  0  0  0  0  0  0  0
   34.7452   29.9157   36.2797 H   0  0  0  0  0  0  0  0  0  0  0  0
   32.6839   28.3869   38.9819 H   0  0  0  0  0  0  0  0  0  0  0  0
   32.5798   29.5580   37.6401 H   0  0  0  0  0  0  0  0  0  0  0  0
  2  1  2  0
  3  4  2  0
  3  2  1  0
  4  5  1  0
  5  6  2  0
  6  1  1  0
  7  8  1  0
  7  3  1  0
  9  8  1  0
 10 11  1  0
 10  9  1  0
 11 12  1  0
 12  7  1  0
 13 12  1  0
 14 13  1  0
 15 14  2  0
 16 15  1  0
 16 23  2  0
 17 19  1  0
 17 16  1  0
 18 17  2  0
 19 20  1  0
 20 21  1  0
 20 22  2  0
 23 22  1  0
 23 13  1  0
  1 24  1  0
  2 25  1  0
  5 26  1  0
  8 27  1  0
  8 28  1  0
  9 29  1  0
  9 30  1  0
 11 31  1  0
 11 32  1  0
 12 33  1  1
 14 34  1  0
 19 35  1  0
 21 36  1  0
 21 37  1  0
M  ISO  8  24  14  25  14  26  14  27  13  28  13  29  13  30  13  31  13
M  ISO  4  32  13  33  13  34  14  35   9
M  END
>  <minimizedAffinity>  (1) 
-4.87568808

>  <minimizedRMSD>  (1) 
1.6456846

$$$$
