
     RDKit          3D

 37 40  0  0  1  0  0  0  0  0999 V2000
   37.6150   27.6670   43.9380 C   0  0  0  0  0  0  0  0  0  0  0  0
   37.5810   26.6840   42.9540 C   0  0  0  0  0  0  0  0  0  0  0  0
   37.4020   26.9900   41.6080 C   0  0  0  0  0  0  0  0  0  0  0  0
   37.2640   28.2980   41.3200 N   0  0  0  0  0  0  0  0  0  0  0  0
   37.2940   29.2620   42.2710 C   0  0  0  0  0  0  0  0  0  0  0  0
   37.4670   28.9450   43.5580 N   0  0  0  0  0  0  0  0  0  0  0  0
   37.3630   25.9860   40.6060 N   0  0  0  0  0  0  0  0  0  0  0  0
   36.8840   24.6710   40.9130 C   0  0  0  0  0  0  0  0  0  0  0  0
   37.3630   23.6090   39.9580 C   0  0  0  0  0  0  0  0  0  0  0  0
   38.0770   24.1050   38.8810 O   0  0  0  0  0  0  0  0  0  0  0  0
   37.5740   25.2550   38.3550 C   0  0  0  0  0  0  0  0  0  0  0  0
   37.8240   26.3820   39.2910 C   0  0  1  0  0  0  0  0  0  0  0  0
   37.0600   27.5460   38.7750 C   0  0  0  0  0  0  0  0  0  0  0  0
   35.7130   27.3870   38.6720 N   0  0  0  0  0  0  0  0  0  0  0  0
   34.9660   28.4040   38.2060 C   0  0  0  0  0  0  0  0  0  0  0  0
   35.4210   29.6200   37.8100 N   0  0  0  0  0  0  0  0  0  0  0  0
   36.7610   29.7780   37.9120 C   0  0  0  0  0  0  0  0  0  0  0  0
   37.3800   30.9760   37.5410 C   0  0  0  0  0  0  0  0  0  0  0  0
   38.7420   31.1850   37.6250 C   0  0  0  0  0  0  0  0  0  0  0  0
   39.4850   30.1220   38.1070 C   0  0  0  0  0  0  0  0  0  0  0  0
   38.9200   28.9250   38.4850 C   0  0  0  0  0  0  0  0  0  0  0  0
   37.5630   28.7660   38.3830 C   0  0  0  0  0  0  0  0  0  0  0  0
   37.7590   27.4040   44.9963 H   0  0  0  0  0  0  0  0  0  0  0  0
   37.6994   25.6310   43.2493 H   0  0  0  0  0  0  0  0  0  0  0  0
   37.1748   30.3164   41.9813 H   0  0  0  0  0  0  0  0  0  0  0  0
   37.2242   24.4059   41.9249 H   0  0  0  0  0  0  0  0  0  0  0  0
   35.7875   24.7032   40.8312 H   0  0  0  0  0  0  0  0  0  0  0  0
   38.0097   22.9119   40.5110 H   0  0  0  0  0  0  0  0  0  0  0  0
   36.4670   23.1191   39.5491 H   0  0  0  0  0  0  0  0  0  0  0  0
   38.0645   25.4627   37.3926 H   0  0  0  0  0  0  0  0  0  0  0  0
   36.4909   25.1426   38.1994 H   0  0  0  0  0  0  0  0  0  0  0  0
   38.8894   26.6457   39.3650 H   0  0  0  0  0  0  0  0  0  0  0  0
   33.8813   28.2337   38.1394 H   0  0  0  0  0  0  0  0  0  0  0  0
   36.7491   31.7939   37.1628 H   0  0  0  0  0  0  0  0  0  0  0  0
   39.2071   32.1364   37.3276 H   0  0  0  0  0  0  0  0  0  0  0  0
   40.5755   30.2386   38.1919 H   0  0  0  0  0  0  0  0  0  0  0  0
   39.5499   28.1067   38.8641 H   0  0  0  0  0  0  0  0  0  0  0  0
  2  1  2  0
  3  2  1  0
  4  3  2  0
  4  5  1  0
  5  6  2  0
  6  1  1  0
  7  8  1  0
  7  3  1  0
  9  8  1  0
 10  9  1  0
 11 10  1  0
 11 12  1  0
 12  7  1  0
 13 12  1  0
 14 13  2  0
 15 14  1  0
 16 17  1  0
 16 15  2  0
 17 22  2  0
 18 19  2  0
 18 17  1  0
 19 20  1  0
 20 21  2  0
 22 21  1  0
 22 13  1  0
  1 23  1  0
  2 24  1  0
  5 25  1  0
  8 26  1  0
  8 27  1  0
  9 28  1  0
  9 29  1  0
 11 30  1  0
 11 31  1  0
 12 32  1  1
 15 33  1  0
 18 34  1  0
 19 35  1  0
 20 36  1  0
 21 37  1  0
M  ISO  8  23  14  24  14  25  14  26  13  27  13  28  13  29  13  30  13
M  ISO  7  31  13  32  13  33  14  34  14  35  14  36  14  37  14
M  END
>  <minimizedAffinity>  (1) 
-4.85680151

>  <minimizedRMSD>  (1) 
3.84465933

$$$$
