
     RDKit          3D

 40 43  0  0  1  0  0  0  0  0999 V2000
   39.7640   31.9980   41.6570 C   0  0  0  0  0  0  0  0  0  0  0  0
   39.3660   30.6930   42.0560 C   0  0  0  0  0  0  0  0  0  0  0  0
   38.1080   30.2700   41.6820 C   0  0  0  0  0  0  0  0  0  0  0  0
   37.2950   31.0930   40.9580 N   0  0  0  0  0  0  0  0  0  0  0  0
   37.7140   32.3370   40.5960 C   0  0  0  0  0  0  0  0  0  0  0  0
   38.9280   32.7910   40.9350 N   0  0  0  0  0  0  0  0  0  0  0  0
   36.8390   33.1730   39.8430 N   0  0  0  0  0  0  0  0  0  0  0  0
   37.6530   28.9800   42.0270 N   0  0  0  0  0  0  0  0  0  0  0  0
   37.5590   28.5880   43.3920 C   0  0  0  0  0  0  0  0  0  0  0  0
   36.5270   27.4760   43.4890 C   0  0  0  0  0  0  0  0  0  0  0  0
   36.8230   26.3420   42.6660 N   0  0  0  0  0  0  0  0  0  0  0  0
   37.5220   26.6350   41.4410 C   0  0  0  0  0  0  0  0  0  0  0  0
   37.2610   28.0360   41.0400 C   0  0  2  0  0  0  0  0  0  0  0  0
   37.4160   28.3490   39.6270 C   0  0  0  0  0  0  0  0  0  0  0  0
   38.6250   28.4160   38.9830 N   0  0  0  0  0  0  0  0  0  0  0  0
   38.7610   28.6900   37.6770 C   0  0  0  0  0  0  0  0  0  0  0  0
   37.7270   28.9290   36.8610 N   0  0  0  0  0  0  0  0  0  0  0  0
   36.5120   28.8860   37.3940 C   0  0  0  0  0  0  0  0  0  0  0  0
   35.4210   29.1330   36.5890 C   0  0  0  0  0  0  0  0  0  0  0  0
   34.1360   29.1070   37.1020 C   0  0  0  0  0  0  0  0  0  0  0  0
   33.9660   28.8270   38.4490 C   0  0  0  0  0  0  0  0  0  0  0  0
   35.0830   28.5860   39.2150 C   0  0  0  0  0  0  0  0  0  0  0  0
   36.3730   28.6040   38.7380 C   0  0  0  0  0  0  0  0  0  0  0  0
   40.7606   32.3710   41.9357 H   0  0  0  0  0  0  0  0  0  0  0  0
   40.0359   30.0454   42.6407 H   0  0  0  0  0  0  0  0  0  0  0  0
   35.9037   32.8330   39.5775 H   0  0  0  0  0  0  0  0  0  0  0  0
   37.1420   34.1171   39.5643 H   0  0  0  0  0  0  0  0  0  0  0  0
   38.5353   28.2236   43.7442 H   0  0  0  0  0  0  0  0  0  0  0  0
   37.2607   29.4430   44.0164 H   0  0  0  0  0  0  0  0  0  0  0  0
   36.4746   27.1413   44.5355 H   0  0  0  0  0  0  0  0  0  0  0  0
   35.5728   27.8913   43.1327 H   0  0  0  0  0  0  0  0  0  0  0  0
   37.4035   25.6928   43.2159 H   0  0  0  0  0  0  0  0  0  0  0  0
   38.6021   26.4936   41.5936 H   0  0  0  0  0  0  0  0  0  0  0  0
   37.1689   25.9578   40.6493 H   0  0  0  0  0  0  0  0  0  0  0  0
   36.1689   28.1668   41.0503 H   0  0  0  0  0  0  0  0  0  0  0  0
   39.7760   28.7199   37.2540 H   0  0  0  0  0  0  0  0  0  0  0  0
   35.5740   29.3542   35.5224 H   0  0  0  0  0  0  0  0  0  0  0  0
   33.2685   29.3042   36.4551 H   0  0  0  0  0  0  0  0  0  0  0  0
   32.9610   28.7982   38.8951 H   0  0  0  0  0  0  0  0  0  0  0  0
   34.9343   28.3637   40.2820 H   0  0  0  0  0  0  0  0  0  0  0  0
  1  2  2  0
  3  8  1  0
  3  2  1  0
  4  3  2  0
  5  6  2  0
  5  4  1  0
  6  1  1  0
  7  5  1  0
  8  9  1  0
  9 10  1  0
 11 10  1  0
 12 11  1  0
 13 12  1  0
 13  8  1  0
 14 13  1  0
 15 14  2  0
 16 15  1  0
 17 18  1  0
 17 16  2  0
 18 23  2  0
 19 20  2  0
 19 18  1  0
 20 21  1  0
 21 22  2  0
 23 22  1  0
 23 14  1  0
  1 24  1  0
  2 25  1  0
  7 26  1  0
  7 27  1  0
  9 28  1  0
  9 29  1  0
 10 30  1  0
 10 31  1  0
 11 32  1  0
 12 33  1  0
 12 34  1  0
 13 35  1  6
 16 36  1  0
 19 37  1  0
 20 38  1  0
 21 39  1  0
 22 40  1  0
M  ISO  8  24  14  25  14  28  13  29  13  30  13  31  13  32   5  33  13
M  ISO  7  34  13  35  13  36  14  37  14  38  14  39  14  40  14
M  END
>  <minimizedAffinity>  (1) 
-6.3873086

>  <minimizedRMSD>  (1) 
0.657167494

$$$$
