
     RDKit          3D

 28 30  0  0  1  0  0  0  0  0999 V2000
   36.8660   27.5510   42.9890 C   0  0  0  0  0  0  0  0  0  0  0  0
   36.4790   27.9240   41.6950 C   0  0  0  0  0  0  0  0  0  0  0  0
   37.0070   29.0840   41.1310 C   0  0  0  0  0  0  0  0  0  0  0  0
   37.8740   29.7760   41.8970 N   0  0  0  0  0  0  0  0  0  0  0  0
   38.2560   29.4340   43.1350 C   0  0  0  0  0  0  0  0  0  0  0  0
   37.7480   28.3230   43.6690 N   0  0  0  0  0  0  0  0  0  0  0  0
   36.6420   29.5050   39.8190 N   0  0  0  0  0  0  0  0  0  0  0  0
   35.3310   29.2200   39.3080 C   0  0  0  0  0  0  0  0  0  0  0  0
   35.2500   29.3010   37.8110 C   0  0  0  0  0  0  0  0  0  0  0  0
   36.4050   29.7050   37.1930 O   0  0  0  0  0  0  0  0  0  0  0  0
   37.0570   30.7270   37.8170 C   0  0  0  0  0  0  0  0  0  0  0  0
   37.6610   30.2170   39.0750 C   0  0  1  0  0  0  0  0  0  0  0  0
   38.3530   31.2640   39.8620 C   0  0  0  0  0  0  0  0  0  0  0  0
   39.6610   31.2870   40.2020 N   0  0  0  0  0  0  0  0  0  0  0  0
   39.9450   32.3400   40.8870 O   0  0  0  0  0  0  0  0  0  0  0  0
   38.8330   33.0240   41.0080 C   0  0  0  0  0  0  0  0  0  0  0  0
   37.8240   32.4040   40.3950 N   0  0  0  0  0  0  0  0  0  0  0  0
   36.4573   26.6392   43.4490 H   0  0  0  0  0  0  0  0  0  0  0  0
   35.7651   27.3070   41.1296 H   0  0  0  0  0  0  0  0  0  0  0  0
   38.9704   30.0540   43.6964 H   0  0  0  0  0  0  0  0  0  0  0  0
   35.0477   28.2037   39.6191 H   0  0  0  0  0  0  0  0  0  0  0  0
   34.6488   29.9813   39.7143 H   0  0  0  0  0  0  0  0  0  0  0  0
   34.9881   28.3036   37.4282 H   0  0  0  0  0  0  0  0  0  0  0  0
   34.4934   30.0663   37.5832 H   0  0  0  0  0  0  0  0  0  0  0  0
   37.8480   31.1164   37.1592 H   0  0  0  0  0  0  0  0  0  0  0  0
   36.3479   31.5362   38.0459 H   0  0  0  0  0  0  0  0  0  0  0  0
   38.4697   29.5142   38.8257 H   0  0  0  0  0  0  0  0  0  0  0  0
   38.7443   33.9809   41.5433 H   0  0  0  0  0  0  0  0  0  0  0  0
  1  6  2  0
  2  1  1  0
  3  2  2  0
  3  4  1  0
  4  5  2  0
  5  6  1  0
  7  3  1  0
  8  7  1  0
  9  8  1  0
 10  9  1  0
 10 11  1  0
 11 12  1  0
 12  7  1  0
 12 13  1  0
 13 14  2  0
 13 17  1  0
 14 15  1  0
 15 16  1  0
 17 16  2  0
  1 18  1  0
  2 19  1  0
  5 20  1  0
  8 21  1  0
  8 22  1  0
  9 23  1  0
  9 24  1  0
 11 25  1  0
 11 26  1  0
 12 27  1  6
 16 28  1  0
M  ISO  8  18  14  19  14  20  14  21  13  22  13  23  13  24  13  25  13
M  ISO  3  26  13  27  13  28  14
M  END
>  <minimizedAffinity>  (1) 
-4.50999117

>  <minimizedRMSD>  (1) 
5.19440603

$$$$
