
     RDKit          3D

 31 33  0  0  1  0  0  0  0  0999 V2000
   38.3150   27.0940   43.2300 C   0  0  0  0  0  0  0  0  0  0  0  0
   37.4290   27.5310   42.2490 C   0  0  0  0  0  0  0  0  0  0  0  0
   37.7290   28.6600   41.4870 C   0  0  0  0  0  0  0  0  0  0  0  0
   38.9020   29.2630   41.7710 N   0  0  0  0  0  0  0  0  0  0  0  0
   39.7600   28.8480   42.7150 C   0  0  0  0  0  0  0  0  0  0  0  0
   39.4620   27.7660   43.4380 N   0  0  0  0  0  0  0  0  0  0  0  0
   36.8490   29.1360   40.4770 N   0  0  0  0  0  0  0  0  0  0  0  0
   35.4340   28.9190   40.5980 C   0  0  0  0  0  0  0  0  0  0  0  0
   34.6980   29.0710   39.3010 C   0  0  0  0  0  0  0  0  0  0  0  0
   35.4740   29.4340   38.2340 O   0  0  0  0  0  0  0  0  0  0  0  0
   36.3930   30.4030   38.5090 C   0  0  0  0  0  0  0  0  0  0  0  0
   37.4610   29.8280   39.3640 C   0  0  1  0  0  0  0  0  0  0  0  0
   38.4740   30.8300   39.7850 C   0  0  0  0  0  0  0  0  0  0  0  0
   38.1050   31.9480   40.5390 C   0  0  0  0  0  0  0  0  0  0  0  0
   38.9650   32.9320   40.9800 C   0  0  0  0  0  0  0  0  0  0  0  0
   40.2490   32.7870   40.6480 N   0  0  0  0  0  0  0  0  0  0  0  0
   40.6370   31.7200   39.9220 C   0  0  0  0  0  0  0  0  0  0  0  0
   39.7970   30.7770   39.5030 N   0  0  0  0  0  0  0  0  0  0  0  0
   38.0786   26.2041   43.8318 H   0  0  0  0  0  0  0  0  0  0  0  0
   36.4903   26.9847   42.0745 H   0  0  0  0  0  0  0  0  0  0  0  0
   40.6989   29.3933   42.8914 H   0  0  0  0  0  0  0  0  0  0  0  0
   35.2682   27.8995   40.9762 H   0  0  0  0  0  0  0  0  0  0  0  0
   35.0445   29.6844   41.2854 H   0  0  0  0  0  0  0  0  0  0  0  0
   34.2215   28.1082   39.0643 H   0  0  0  0  0  0  0  0  0  0  0  0
   33.9787   29.8898   39.4502 H   0  0  0  0  0  0  0  0  0  0  0  0
   36.8312   30.7726   37.5702 H   0  0  0  0  0  0  0  0  0  0  0  0
   35.9063   31.2382   39.0339 H   0  0  0  0  0  0  0  0  0  0  0  0
   38.0351   29.1014   38.7703 H   0  0  0  0  0  0  0  0  0  0  0  0
   37.0419   32.0513   40.8020 H   0  0  0  0  0  0  0  0  0  0  0  0
   38.6118   33.7888   41.5726 H   0  0  0  0  0  0  0  0  0  0  0  0
   41.7017   31.6238   39.6628 H   0  0  0  0  0  0  0  0  0  0  0  0
  1  6  2  0
  2  1  1  0
  3  4  1  0
  3  2  2  0
  4  5  2  0
  5  6  1  0
  7  8  1  0
  7  3  1  0
  9  8  1  0
 10 11  1  0
 10  9  1  0
 11 12  1  0
 12 13  1  0
 12  7  1  0
 13 14  2  0
 14 15  1  0
 16 15  2  0
 17 16  1  0
 18 13  1  0
 18 17  2  0
  1 19  1  0
  2 20  1  0
  5 21  1  0
  8 22  1  0
  8 23  1  0
  9 24  1  0
  9 25  1  0
 11 26  1  0
 11 27  1  0
 12 28  1  6
 14 29  1  0
 15 30  1  0
 17 31  1  0
M  ISO  8  19  14  20  14  21  14  22  13  23  13  24  13  25  13  26  13
M  ISO  5  27  13  28  13  29  14  30  14  31  14
M  END
>  <minimizedAffinity>  (1) 
-4.47400522

>  <minimizedRMSD>  (1) 
5.23280382

$$$$
