
     RDKit          3D

 30 32  0  0  1  0  0  0  0  0999 V2000
   38.9620   32.6510   40.9740 C   0  0  0  0  0  0  0  0  0  0  0  0
   38.9290   31.3960   41.5940 C   0  0  0  0  0  0  0  0  0  0  0  0
   37.9830   30.4590   41.1760 C   0  0  0  0  0  0  0  0  0  0  0  0
   37.1500   30.8390   40.1840 N   0  0  0  0  0  0  0  0  0  0  0  0
   37.1760   32.0390   39.5860 C   0  0  0  0  0  0  0  0  0  0  0  0
   38.0800   32.9340   39.9850 N   0  0  0  0  0  0  0  0  0  0  0  0
   37.9180   29.1690   41.7830 N   0  0  0  0  0  0  0  0  0  0  0  0
   38.3320   28.9800   43.1430 C   0  0  0  0  0  0  0  0  0  0  0  0
   38.6000   27.5450   43.4840 C   0  0  0  0  0  0  0  0  0  0  0  0
   38.3440   26.6550   42.4590 O   0  0  0  0  0  0  0  0  0  0  0  0
   37.1540   26.9170   41.8020 C   0  0  0  0  0  0  0  0  0  0  0  0
   37.4170   28.1060   40.9340 C   0  0  1  0  0  0  0  0  0  0  0  0
   36.3210   28.4870   40.0960 N   0  0  0  0  0  0  0  0  0  0  0  0
   35.1590   28.8740   40.6420 N   0  0  0  0  0  0  0  0  0  0  0  0
   34.2840   29.1810   39.6820 C   0  0  0  0  0  0  0  0  0  0  0  0
   34.9350   28.9750   38.4710 C   0  0  0  0  0  0  0  0  0  0  0  0
   36.2080   28.5400   38.7470 C   0  0  0  0  0  0  0  0  0  0  0  0
   39.7003   33.4035   41.2882 H   0  0  0  0  0  0  0  0  0  0  0  0
   39.6383   31.1522   42.3987 H   0  0  0  0  0  0  0  0  0  0  0  0
   36.4652   32.2802   38.7819 H   0  0  0  0  0  0  0  0  0  0  0  0
   39.2529   29.5574   43.3117 H   0  0  0  0  0  0  0  0  0  0  0  0
   37.5074   29.3207   43.7864 H   0  0  0  0  0  0  0  0  0  0  0  0
   39.6595   27.4506   43.7643 H   0  0  0  0  0  0  0  0  0  0  0  0
   37.9134   27.2847   44.3030 H   0  0  0  0  0  0  0  0  0  0  0  0
   36.8578   26.0535   41.1883 H   0  0  0  0  0  0  0  0  0  0  0  0
   36.3353   27.1085   42.5112 H   0  0  0  0  0  0  0  0  0  0  0  0
   38.1822   27.8437   40.1886 H   0  0  0  0  0  0  0  0  0  0  0  0
   33.2499   29.5290   39.8217 H   0  0  0  0  0  0  0  0  0  0  0  0
   34.5067   29.1324   37.4701 H   0  0  0  0  0  0  0  0  0  0  0  0
   36.9866   28.2837   38.0134 H   0  0  0  0  0  0  0  0  0  0  0  0
  1  2  2  0
  3  2  1  0
  3  7  1  0
  4  3  2  0
  5  6  2  0
  5  4  1  0
  6  1  1  0
  7  8  1  0
  8  9  1  0
 10  9  1  0
 11 10  1  0
 12  7  1  0
 12 11  1  0
 13 14  1  0
 13 12  1  0
 15 14  2  0
 16 17  2  0
 16 15  1  0
 17 13  1  0
  1 18  1  0
  2 19  1  0
  5 20  1  0
  8 21  1  0
  8 22  1  0
  9 23  1  0
  9 24  1  0
 11 25  1  0
 11 26  1  0
 12 27  1  6
 15 28  1  0
 16 29  1  0
 17 30  1  0
M  ISO  8  18  14  19  14  20  14  21  13  22  13  23  13  24  13  25  13
M  ISO  5  26  13  27  13  28  14  29  14  30  14
M  END
>  <minimizedAffinity>  (1) 
-4.45014095

>  <minimizedRMSD>  (1) 
3.38980865

$$$$
