
     RDKit          3D

 32 33  0  0  1  0  0  0  0  0999 V2000
   39.2860   33.5070   40.7890 C   0  0  0  0  0  0  0  0  0  0  0  0
   39.1090   32.1880   41.2430 C   0  0  0  0  0  0  0  0  0  0  0  0
   37.9810   31.5010   40.8030 C   0  0  0  0  0  0  0  0  0  0  0  0
   37.1580   32.1700   39.9760 N   0  0  0  0  0  0  0  0  0  0  0  0
   37.3090   33.4170   39.5370 C   0  0  0  0  0  0  0  0  0  0  0  0
   38.3860   34.0790   39.9540 N   0  0  0  0  0  0  0  0  0  0  0  0
   37.6900   30.1600   41.1820 N   0  0  0  0  0  0  0  0  0  0  0  0
   38.1040   29.7210   42.5140 C   0  0  0  0  0  0  0  0  0  0  0  0
   38.1890   28.2240   42.6370 C   0  0  0  0  0  0  0  0  0  0  0  0
   37.8010   27.5440   41.5210 O   0  0  0  0  0  0  0  0  0  0  0  0
   36.6330   28.0390   40.9680 C   0  0  0  0  0  0  0  0  0  0  0  0
   37.0240   29.3110   40.2610 C   0  0  1  0  0  0  0  0  0  0  0  0
   35.8310   29.8010   39.5450 C   0  0  0  0  0  0  0  0  0  0  0  0
   36.0030   29.4240   38.0560 C   0  0  0  0  0  0  0  0  0  0  0  0
   34.5650   29.1570   40.0070 C   0  0  0  0  0  0  0  0  0  0  0  0
   40.1656   34.0810   41.1158 H   0  0  0  0  0  0  0  0  0  0  0  0
   39.8354   31.7162   41.9211 H   0  0  0  0  0  0  0  0  0  0  0  0
   36.5765   33.8802   38.8596 H   0  0  0  0  0  0  0  0  0  0  0  0
   39.0940   30.1479   42.7323 H   0  0  0  0  0  0  0  0  0  0  0  0
   37.3422   30.0681   43.2275 H   0  0  0  0  0  0  0  0  0  0  0  0
   39.2327   27.9557   42.8578 H   0  0  0  0  0  0  0  0  0  0  0  0
   37.4930   27.9350   43.4383 H   0  0  0  0  0  0  0  0  0  0  0  0
   36.2110   27.3171   40.2533 H   0  0  0  0  0  0  0  0  0  0  0  0
   35.8655   28.2201   41.7349 H   0  0  0  0  0  0  0  0  0  0  0  0
   37.7762   29.2023   39.4658 H   0  0  0  0  0  0  0  0  0  0  0  0
   35.7532   30.8832   39.7262 H   0  0  0  0  0  0  0  0  0  0  0  0
   36.4585   28.4256   37.9808 H   0  0  0  0  0  0  0  0  0  0  0  0
   35.0193   29.4163   37.5637 H   0  0  0  0  0  0  0  0  0  0  0  0
   36.6536   30.1619   37.5637 H   0  0  0  0  0  0  0  0  0  0  0  0
   34.5401   29.1444   41.1066 H   0  0  0  0  0  0  0  0  0  0  0  0
   33.7040   29.7267   39.6273 H   0  0  0  0  0  0  0  0  0  0  0  0
   34.5185   28.1257   39.6273 H   0  0  0  0  0  0  0  0  0  0  0  0
  1  2  2  0
  3  7  1  0
  3  2  1  0
  4  3  2  0
  5  6  2  0
  5  4  1  0
  6  1  1  0
  7  8  1  0
  8  9  1  0
 10  9  1  0
 11 10  1  0
 12 11  1  0
 12  7  1  0
 13 15  1  0
 13 12  1  0
 14 13  1  0
  1 16  1  0
  2 17  1  0
  5 18  1  0
  8 19  1  0
  8 20  1  0
  9 21  1  0
  9 22  1  0
 11 23  1  0
 11 24  1  0
 12 25  1  6
 13 26  1  0
 14 27  1  0
 14 28  1  0
 14 29  1  0
 15 30  1  0
 15 31  1  0
 15 32  1  0
M  ISO  8  16  14  17  14  18  14  19  13  20  13  21  13  22  13  23  13
M  ISO  8  24  13  25  13  26   8  27   8  28   8  29   8  30   8  31   8
M  ISO  1  32   8
M  END
>  <minimizedAffinity>  (1) 
-4.37706566

>  <minimizedRMSD>  (1) 
4.37906933

$$$$
