
     RDKit          3D

 29 31  0  0  1  0  0  0  0  0999 V2000
   39.0580   32.6630   41.0290 C   0  0  0  0  0  0  0  0  0  0  0  0
   38.9620   31.4070   41.6530 C   0  0  0  0  0  0  0  0  0  0  0  0
   37.9610   30.5230   41.2490 C   0  0  0  0  0  0  0  0  0  0  0  0
   37.1200   30.9410   40.2520 N   0  0  0  0  0  0  0  0  0  0  0  0
   37.2250   32.1480   39.6630 C   0  0  0  0  0  0  0  0  0  0  0  0
   38.1810   32.9920   40.0500 N   0  0  0  0  0  0  0  0  0  0  0  0
   37.8160   29.2390   41.8470 N   0  0  0  0  0  0  0  0  0  0  0  0
   38.1200   29.0500   43.2350 C   0  0  0  0  0  0  0  0  0  0  0  0
   38.4010   27.6140   43.5860 C   0  0  0  0  0  0  0  0  0  0  0  0
   38.2450   26.7290   42.5570 O   0  0  0  0  0  0  0  0  0  0  0  0
   37.1220   26.9550   41.7910 C   0  0  0  0  0  0  0  0  0  0  0  0
   37.3500   28.1770   40.9770 C   0  0  1  0  0  0  0  0  0  0  0  0
   36.2330   28.5370   40.1580 N   0  0  0  0  0  0  0  0  0  0  0  0
   36.1740   28.5240   38.7950 C   0  0  0  0  0  0  0  0  0  0  0  0
   34.9710   28.9210   38.3440 N   0  0  0  0  0  0  0  0  0  0  0  0
   34.2720   29.1850   39.4750 C   0  0  0  0  0  0  0  0  0  0  0  0
   35.0440   28.9490   40.5390 N   0  0  0  0  0  0  0  0  0  0  0  0
   39.8400   33.3741   41.3335 H   0  0  0  0  0  0  0  0  0  0  0  0
   39.6667   31.1249   42.4492 H   0  0  0  0  0  0  0  0  0  0  0  0
   36.5242   32.4359   38.8655 H   0  0  0  0  0  0  0  0  0  0  0  0
   39.0064   29.6516   43.4846 H   0  0  0  0  0  0  0  0  0  0  0  0
   37.2360   29.3621   43.8105 H   0  0  0  0  0  0  0  0  0  0  0  0
   39.4401   27.5460   43.9406 H   0  0  0  0  0  0  0  0  0  0  0  0
   37.6609   27.3327   44.3496 H   0  0  0  0  0  0  0  0  0  0  0  0
   36.9443   26.0949   41.1287 H   0  0  0  0  0  0  0  0  0  0  0  0
   36.2428   27.0896   42.4382 H   0  0  0  0  0  0  0  0  0  0  0  0
   38.1372   27.9692   40.2373 H   0  0  0  0  0  0  0  0  0  0  0  0
   37.0089   28.2251   38.1442 H   0  0  0  0  0  0  0  0  0  0  0  0
   33.2310   29.5386   39.5109 H   0  0  0  0  0  0  0  0  0  0  0  0
  1  2  2  0
  3  2  1  0
  3  7  1  0
  4  3  2  0
  5  6  2  0
  5  4  1  0
  6  1  1  0
  7  8  1  0
  8  9  1  0
 10  9  1  0
 11 10  1  0
 12 11  1  0
 12  7  1  0
 13 17  1  0
 13 12  1  0
 14 13  1  0
 15 14  2  0
 15 16  1  0
 16 17  2  0
  1 18  1  0
  2 19  1  0
  5 20  1  0
  8 21  1  0
  8 22  1  0
  9 23  1  0
  9 24  1  0
 11 25  1  0
 11 26  1  0
 12 27  1  6
 14 28  1  0
 16 29  1  0
M  ISO  8  18  14  19  14  20  14  21  13  22  13  23  13  24  13  25  13
M  ISO  4  26  13  27  13  28  14  29  14
M  END
>  <minimizedAffinity>  (1) 
-4.36067295

>  <minimizedRMSD>  (1) 
3.47894192

$$$$
