
     RDKit          3D

 36 38  0  0  1  0  0  0  0  0999 V2000
   37.0480   28.2150   43.8150 C   0  0  0  0  0  0  0  0  0  0  0  0
   37.1910   26.9900   43.1670 C   0  0  0  0  0  0  0  0  0  0  0  0
   37.9000   26.9450   41.9670 C   0  0  0  0  0  0  0  0  0  0  0  0
   38.4040   28.1100   41.5130 N   0  0  0  0  0  0  0  0  0  0  0  0
   38.2630   29.2920   42.1440 C   0  0  0  0  0  0  0  0  0  0  0  0
   37.5810   29.3310   43.2990 N   0  0  0  0  0  0  0  0  0  0  0  0
   38.0780   25.7140   41.2530 N   0  0  0  0  0  0  0  0  0  0  0  0
   37.1400   24.6360   41.4250 C   0  0  0  0  0  0  0  0  0  0  0  0
   37.7150   23.3040   41.0300 C   0  0  0  0  0  0  0  0  0  0  0  0
   38.9390   23.3560   40.4420 O   0  0  0  0  0  0  0  0  0  0  0  0
   39.1350   24.4020   39.5780 C   0  0  0  0  0  0  0  0  0  0  0  0
   39.2360   25.6540   40.3800 C   0  0  2  0  0  0  0  0  0  0  0  0
   40.5200   25.8630   41.1010 C   0  0  0  0  0  0  0  0  0  0  0  0
   40.6750   25.1270   42.3950 C   0  0  0  0  0  0  0  0  0  0  0  0
   42.1820   25.1540   42.6170 C   0  0  0  0  0  0  0  0  0  0  0  0
   42.8290   25.4110   41.2850 C   0  0  0  0  0  0  0  0  0  0  0  0
   41.7010   25.4600   40.2700 C   0  0  0  0  0  0  0  0  0  0  0  0
   36.4907   28.2668   44.7619 H   0  0  0  0  0  0  0  0  0  0  0  0
   36.7530   26.0757   43.5938 H   0  0  0  0  0  0  0  0  0  0  0  0
   38.6991   30.2086   41.7200 H   0  0  0  0  0  0  0  0  0  0  0  0
   36.8431   24.5922   42.4833 H   0  0  0  0  0  0  0  0  0  0  0  0
   36.2782   24.8352   40.7711 H   0  0  0  0  0  0  0  0  0  0  0  0
   37.7984   22.6865   41.9365 H   0  0  0  0  0  0  0  0  0  0  0  0
   37.0308   22.8862   40.2768 H   0  0  0  0  0  0  0  0  0  0  0  0
   38.2871   24.4734   38.8809 H   0  0  0  0  0  0  0  0  0  0  0  0
   40.0556   24.2475   38.9961 H   0  0  0  0  0  0  0  0  0  0  0  0
   39.2390   26.4993   39.6762 H   0  0  0  0  0  0  0  0  0  0  0  0
   40.4865   26.9424   41.3100 H   0  0  0  0  0  0  0  0  0  0  0  0
   40.1447   25.6414   43.2099 H   0  0  0  0  0  0  0  0  0  0  0  0
   40.2552   24.1105   42.3721 H   0  0  0  0  0  0  0  0  0  0  0  0
   42.4436   25.9561   43.3228 H   0  0  0  0  0  0  0  0  0  0  0  0
   42.5291   24.1994   43.0392 H   0  0  0  0  0  0  0  0  0  0  0  0
   43.3691   26.3691   41.3017 H   0  0  0  0  0  0  0  0  0  0  0  0
   43.5594   24.6272   41.0357 H   0  0  0  0  0  0  0  0  0  0  0  0
   41.5417   24.4748   39.8075 H   0  0  0  0  0  0  0  0  0  0  0  0
   41.8985   26.1469   39.4339 H   0  0  0  0  0  0  0  0  0  0  0  0
  2  1  2  0
  3  2  1  0
  4  3  2  0
  4  5  1  0
  5  6  2  0
  6  1  1  0
  7  8  1  0
  7  3  1  0
  9  8  1  0
 10  9  1  0
 11 12  1  0
 11 10  1  0
 12 13  1  0
 12  7  1  0
 13 14  1  0
 14 15  1  0
 16 15  1  0
 17 13  1  0
 17 16  1  0
  1 18  1  0
  2 19  1  0
  5 20  1  0
  8 21  1  0
  8 22  1  0
  9 23  1  0
  9 24  1  0
 11 25  1  0
 11 26  1  0
 12 27  1  6
 13 28  1  0
 14 29  1  0
 14 30  1  0
 15 31  1  0
 15 32  1  0
 16 33  1  0
 16 34  1  0
 17 35  1  0
 17 36  1  0
M  ISO  8  18  14  19  14  20  14  21  13  22  13  23  13  24  13  25  13
M  ISO  8  26  13  27  13  28  13  29  13  30  13  31  13  32  13  33  13
M  ISO  3  34  13  35  13  36  13
M  END
>  <minimizedAffinity>  (1) 
-4.0737648

>  <minimizedRMSD>  (1) 
3.48419833

$$$$
