
     RDKit          3D

 40 43  0  0  1  0  0  0  0  0999 V2000
   40.0120   32.1220   41.0520 C   0  0  0  0  0  0  0  0  0  0  0  0
   39.6080   30.8510   41.5520 C   0  0  0  0  0  0  0  0  0  0  0  0
   38.2730   30.5310   41.4500 C   0  0  0  0  0  0  0  0  0  0  0  0
   37.3990   31.4250   40.8860 N   0  0  0  0  0  0  0  0  0  0  0  0
   37.8270   32.6260   40.4240 C   0  0  0  0  0  0  0  0  0  0  0  0
   39.1370   32.9760   40.5060 N   0  0  0  0  0  0  0  0  0  0  0  0
   36.8730   33.5190   39.8500 N   0  0  0  0  0  0  0  0  0  0  0  0
   37.7610   29.2890   41.9120 N   0  0  0  0  0  0  0  0  0  0  0  0
   37.9440   28.9440   43.2840 C   0  0  0  0  0  0  0  0  0  0  0  0
   36.9030   27.8850   43.6290 C   0  0  0  0  0  0  0  0  0  0  0  0
   37.0150   26.7090   42.8040 N   0  0  0  0  0  0  0  0  0  0  0  0
   37.3910   26.9610   41.4460 C   0  0  0  0  0  0  0  0  0  0  0  0
   37.0750   28.3860   41.0620 C   0  0  2  0  0  0  0  0  0  0  0  0
   37.1710   28.5580   39.6230 C   0  0  0  0  0  0  0  0  0  0  0  0
   38.3070   28.5990   38.8140 C   0  0  0  0  0  0  0  0  0  0  0  0
   37.9560   28.7760   37.5210 N   0  0  0  0  0  0  0  0  0  0  0  0
   36.6350   28.8540   37.4540 C   0  0  0  0  0  0  0  0  0  0  0  0
   35.6940   29.0260   36.4580 C   0  0  0  0  0  0  0  0  0  0  0  0
   34.3270   29.0750   36.6540 C   0  0  0  0  0  0  0  0  0  0  0  0
   33.8870   28.9380   37.9540 C   0  0  0  0  0  0  0  0  0  0  0  0
   34.7650   28.7630   38.9950 C   0  0  0  0  0  0  0  0  0  0  0  0
   36.1240   28.7260   38.7080 C   0  0  0  0  0  0  0  0  0  0  0  0
   41.0717   32.4099   41.1161 H   0  0  0  0  0  0  0  0  0  0  0  0
   40.3319   30.1548   42.0006 H   0  0  0  0  0  0  0  0  0  0  0  0
   35.8817   33.2456   39.7918 H   0  0  0  0  0  0  0  0  0  0  0  0
   37.1759   34.4368   39.4940 H   0  0  0  0  0  0  0  0  0  0  0  0
   38.9559   28.5414   43.4390 H   0  0  0  0  0  0  0  0  0  0  0  0
   37.8264   29.8290   43.9267 H   0  0  0  0  0  0  0  0  0  0  0  0
   37.0343   27.5913   44.6809 H   0  0  0  0  0  0  0  0  0  0  0  0
   35.9099   28.3235   43.4514 H   0  0  0  0  0  0  0  0  0  0  0  0
   37.7238   26.0902   43.2230 H   0  0  0  0  0  0  0  0  0  0  0  0
   38.4712   26.7871   41.3319 H   0  0  0  0  0  0  0  0  0  0  0  0
   36.8246   26.2835   40.7901 H   0  0  0  0  0  0  0  0  0  0  0  0
   36.0233   28.6471   41.2511 H   0  0  0  0  0  0  0  0  0  0  0  0
   39.3408   28.5012   39.1768 H   0  0  0  0  0  0  0  0  0  0  0  0
   38.6048   28.8395   36.7235 H   0  0  0  0  0  0  0  0  0  0  0  0
   36.0618   29.1324   35.4268 H   0  0  0  0  0  0  0  0  0  0  0  0
   33.6267   29.2158   35.8175 H   0  0  0  0  0  0  0  0  0  0  0  0
   32.8072   28.9697   38.1617 H   0  0  0  0  0  0  0  0  0  0  0  0
   34.4025   28.6550   40.0279 H   0  0  0  0  0  0  0  0  0  0  0  0
  1  2  2  0
  3  2  1  0
  3  8  1  0
  4  3  2  0
  5  6  2  0
  5  4  1  0
  6  1  1  0
  7  5  1  0
  8  9  1  0
  9 10  1  0
 11 10  1  0
 12 11  1  0
 13 12  1  0
 13  8  1  0
 14 13  1  0
 15 14  2  0
 16 15  1  0
 17 16  1  0
 17 22  2  0
 18 19  2  0
 18 17  1  0
 19 20  1  0
 20 21  2  0
 22 21  1  0
 22 14  1  0
  1 23  1  0
  2 24  1  0
  7 25  1  0
  7 26  1  0
  9 27  1  0
  9 28  1  0
 10 29  1  0
 10 30  1  0
 11 31  1  0
 12 32  1  0
 12 33  1  0
 13 34  1  1
 15 35  1  0
 16 36  1  0
 18 37  1  0
 19 38  1  0
 20 39  1  0
 21 40  1  0
M  ISO  8  23  14  24  14  27  13  28  13  29  13  30  13  31   5  32  13
M  ISO  8  33  13  34  13  35  14  36   9  37  14  38  14  39  14  40  14
M  END
>  <minimizedAffinity>  (1) 
-6.29455471

>  <minimizedRMSD>  (1) 
0.964975655

$$$$
