
     RDKit          3D

 30 32  0  0  1  0  0  0  0  0999 V2000
   37.7590   30.0350   41.7160 C   0  0  0  0  0  0  0  0  0  0  0  0
   38.6030   29.0300   42.2250 C   0  0  0  0  0  0  0  0  0  0  0  0
   38.0770   27.7290   42.3170 C   0  0  0  0  0  0  0  0  0  0  0  0
   36.7880   27.4990   41.9150 N   0  0  0  0  0  0  0  0  0  0  0  0
   36.0220   28.5080   41.4320 C   0  0  0  0  0  0  0  0  0  0  0  0
   36.5080   29.7540   41.3380 N   0  0  0  0  0  0  0  0  0  0  0  0
   38.8530   26.6320   42.8250 N   0  0  0  0  0  0  0  0  0  0  0  0
   39.8070   26.8680   43.8720 C   0  0  0  0  0  0  0  0  0  0  0  0
   40.9350   25.8690   43.8880 C   0  0  0  0  0  0  0  0  0  0  0  0
   40.7600   24.8200   43.0320 O   0  0  0  0  0  0  0  0  0  0  0  0
   39.4970   24.3380   42.9110 C   0  0  0  0  0  0  0  0  0  0  0  0
   38.6170   25.3310   42.2440 C   0  0  2  0  0  0  0  0  0  0  0  0
   38.6610   25.3450   40.7520 C   0  0  0  0  0  0  0  0  0  0  0  0
   39.1370   24.2150   39.9500 C   0  0  0  0  0  0  0  0  0  0  0  0
   39.9060   25.5450   39.9980 C   0  0  0  0  0  0  0  0  0  0  0  0
   38.1339   31.0654   41.6281 H   0  0  0  0  0  0  0  0  0  0  0  0
   39.6334   29.2535   42.5385 H   0  0  0  0  0  0  0  0  0  0  0  0
   34.9895   28.3019   41.1135 H   0  0  0  0  0  0  0  0  0  0  0  0
   40.2329   27.8731   43.7360 H   0  0  0  0  0  0  0  0  0  0  0  0
   39.2719   26.7699   44.8280 H   0  0  0  0  0  0  0  0  0  0  0  0
   41.8629   26.3906   43.6107 H   0  0  0  0  0  0  0  0  0  0  0  0
   40.9729   25.4481   44.9036 H   0  0  0  0  0  0  0  0  0  0  0  0
   39.5186   23.4153   42.3125 H   0  0  0  0  0  0  0  0  0  0  0  0
   39.0995   24.1324   43.9159 H   0  0  0  0  0  0  0  0  0  0  0  0
   37.5823   25.0128   42.4391 H   0  0  0  0  0  0  0  0  0  0  0  0
   37.7039   25.8848   40.8031 H   0  0  0  0  0  0  0  0  0  0  0  0
   38.5998   23.9183   39.0371 H   0  0  0  0  0  0  0  0  0  0  0  0
   39.3787   23.1596   40.1440 H   0  0  0  0  0  0  0  0  0  0  0  0
   40.8693   25.6100   40.5250 H   0  0  0  0  0  0  0  0  0  0  0  0
   40.2700   26.2717   39.2568 H   0  0  0  0  0  0  0  0  0  0  0  0
  1  2  2  0
  2  3  1  0
  3  7  1  0
  4  3  2  0
  5  4  1  0
  6  5  2  0
  6  1  1  0
  7  8  1  0
  8  9  1  0
 10  9  1  0
 11 10  1  0
 12  7  1  0
 12 11  1  0
 13 12  1  0
 14 15  1  0
 14 13  1  0
 15 13  1  0
  1 16  1  0
  2 17  1  0
  5 18  1  0
  8 19  1  0
  8 20  1  0
  9 21  1  0
  9 22  1  0
 11 23  1  0
 11 24  1  0
 12 25  1  6
 13 26  1  0
 14 27  1  0
 14 28  1  0
 15 29  1  0
 15 30  1  0
M  ISO  8  16  14  17  14  18  14  19  13  20  13  21  13  22  13  23  13
M  ISO  7  24  13  25  13  26  13  27  13  28  13  29  13  30  13
M  END
>  <minimizedAffinity>  (1) 
-3.99018264

>  <minimizedRMSD>  (1) 
3.15781593

$$$$
