
     RDKit          3D

 33 35  0  0  1  0  0  0  0  0999 V2000
   37.7320   29.3890   42.4120 C   0  0  0  0  0  0  0  0  0  0  0  0
   37.7690   28.0200   42.1730 C   0  0  0  0  0  0  0  0  0  0  0  0
   36.9080   27.4480   41.2370 C   0  0  0  0  0  0  0  0  0  0  0  0
   36.0450   28.2790   40.5820 N   0  0  0  0  0  0  0  0  0  0  0  0
   36.0170   29.6160   40.8240 C   0  0  0  0  0  0  0  0  0  0  0  0
   36.8530   30.1590   41.7300 N   0  0  0  0  0  0  0  0  0  0  0  0
   36.9010   26.0440   40.9540 N   0  0  0  0  0  0  0  0  0  0  0  0
   37.2720   25.1110   41.9850 C   0  0  0  0  0  0  0  0  0  0  0  0
   37.7430   23.7900   41.4480 C   0  0  0  0  0  0  0  0  0  0  0  0
   37.6330   23.6640   40.0950 O   0  0  0  0  0  0  0  0  0  0  0  0
   36.5120   24.1720   39.5290 C   0  0  0  0  0  0  0  0  0  0  0  0
   36.5040   25.6550   39.6210 C   0  0  2  0  0  0  0  0  0  0  0  0
   37.2410   26.3520   38.5460 C   0  0  0  0  0  0  0  0  0  0  0  0
   38.5940   26.5660   38.5160 C   0  0  0  0  0  0  0  0  0  0  0  0
   39.1950   27.2300   37.4650 C   0  0  0  0  0  0  0  0  0  0  0  0
   38.4740   27.7070   36.4040 C   0  0  0  0  0  0  0  0  0  0  0  0
   37.1180   27.5300   36.3640 C   0  0  0  0  0  0  0  0  0  0  0  0
   36.5570   26.8620   37.4330 C   0  0  0  0  0  0  0  0  0  0  0  0
   38.4113   29.8422   43.1490 H   0  0  0  0  0  0  0  0  0  0  0  0
   38.4795   27.3861   42.7238 H   0  0  0  0  0  0  0  0  0  0  0  0
   35.3092   30.2571   40.2781 H   0  0  0  0  0  0  0  0  0  0  0  0
   38.0825   25.5543   42.5821 H   0  0  0  0  0  0  0  0  0  0  0  0
   36.3726   24.9162   42.5877 H   0  0  0  0  0  0  0  0  0  0  0  0
   38.8012   23.6645   41.7210 H   0  0  0  0  0  0  0  0  0  0  0  0
   37.0937   23.0201   41.8903 H   0  0  0  0  0  0  0  0  0  0  0  0
   35.6305   23.7728   40.0520 H   0  0  0  0  0  0  0  0  0  0  0  0
   36.4889   23.8830   38.4679 H   0  0  0  0  0  0  0  0  0  0  0  0
   35.4731   25.9954   39.4440 H   0  0  0  0  0  0  0  0  0  0  0  0
   39.2150   26.2009   39.3473 H   0  0  0  0  0  0  0  0  0  0  0  0
   40.2846   27.3799   37.4810 H   0  0  0  0  0  0  0  0  0  0  0  0
   38.9847   28.2326   35.5836 H   0  0  0  0  0  0  0  0  0  0  0  0
   36.5088   27.8997   35.5261 H   0  0  0  0  0  0  0  0  0  0  0  0
   35.4671   26.7152   37.4100 H   0  0  0  0  0  0  0  0  0  0  0  0
  2  1  2  0
  3  2  1  0
  4  5  1  0
  4  3  2  0
  5  6  2  0
  6  1  1  0
  7  3  1  0
  7  8  1  0
  9  8  1  0
 10  9  1  0
 11 12  1  0
 11 10  1  0
 12  7  1  0
 13 12  1  0
 14 13  2  0
 15 14  1  0
 16 15  2  0
 17 16  1  0
 17 18  2  0
 18 13  1  0
  1 19  1  0
  2 20  1  0
  5 21  1  0
  8 22  1  0
  8 23  1  0
  9 24  1  0
  9 25  1  0
 11 26  1  0
 11 27  1  0
 12 28  1  6
 14 29  1  0
 15 30  1  0
 16 31  1  0
 17 32  1  0
 18 33  1  0
M  ISO  8  19  14  20  14  21  14  22  13  23  13  24  13  25  13  26  13
M  ISO  7  27  13  28  13  29  14  30  14  31  14  32  14  33  14
M  END
>  <minimizedAffinity>  (1) 
-3.96174169

>  <minimizedRMSD>  (1) 
0.91568923

$$$$
