
     RDKit          3D

 26 27  0  0  1  0  0  0  0  0999 V2000
   38.3430   28.6790   43.1390 C   0  0  0  0  0  0  0  0  0  0  0  0
   38.1690   27.3570   42.6760 C   0  0  0  0  0  0  0  0  0  0  0  0
   37.2480   27.1330   41.6510 C   0  0  0  0  0  0  0  0  0  0  0  0
   36.5710   28.2170   41.1590 N   0  0  0  0  0  0  0  0  0  0  0  0
   36.7470   29.4690   41.6100 C   0  0  0  0  0  0  0  0  0  0  0  0
   37.6250   29.6880   42.5890 N   0  0  0  0  0  0  0  0  0  0  0  0
   37.0110   25.8300   41.1250 N   0  0  0  0  0  0  0  0  0  0  0  0
   37.1420   24.6780   41.9650 C   0  0  0  0  0  0  0  0  0  0  0  0
   37.5200   23.4350   41.1960 C   0  0  0  0  0  0  0  0  0  0  0  0
   37.3750   23.5440   39.8300 O   0  0  0  0  0  0  0  0  0  0  0  0
   36.3080   24.3210   39.4170 C   0  0  0  0  0  0  0  0  0  0  0  0
   36.6370   25.7360   39.7280 C   0  0  2  0  0  0  0  0  0  0  0  0
   37.8630   26.1770   38.9250 C   0  0  0  0  0  0  0  0  0  0  0  0
   39.0070   26.1010   39.6940 F   0  0  0  0  0  0  0  0  0  0  0  0
   37.7080   27.5200   38.5940 F   0  0  0  0  0  0  0  0  0  0  0  0
   38.0520   25.3830   37.8220 F   0  0  0  0  0  0  0  0  0  0  0  0
   39.0607   28.8899   43.9455 H   0  0  0  0  0  0  0  0  0  0  0  0
   38.7434   26.5258   43.1110 H   0  0  0  0  0  0  0  0  0  0  0  0
   36.1746   30.3029   41.1777 H   0  0  0  0  0  0  0  0  0  0  0  0
   37.9204   24.8772   42.7163 H   0  0  0  0  0  0  0  0  0  0  0  0
   36.1630   24.4946   42.4317 H   0  0  0  0  0  0  0  0  0  0  0  0
   38.5733   23.2035   41.4127 H   0  0  0  0  0  0  0  0  0  0  0  0
   36.8306   22.6424   41.5224 H   0  0  0  0  0  0  0  0  0  0  0  0
   35.3957   24.0212   39.9534 H   0  0  0  0  0  0  0  0  0  0  0  0
   36.1309   24.1931   38.3389 H   0  0  0  0  0  0  0  0  0  0  0  0
   35.7639   26.3608   39.4883 H   0  0  0  0  0  0  0  0  0  0  0  0
  2  1  2  0
  3  2  1  0
  4  5  1  0
  4  3  2  0
  5  6  2  0
  6  1  1  0
  7  3  1  0
  7  8  1  0
  9  8  1  0
 10  9  1  0
 11 12  1  0
 11 10  1  0
 12  7  1  0
 13 14  1  0
 13 12  1  0
 15 13  1  0
 16 13  1  0
  1 17  1  0
  2 18  1  0
  5 19  1  0
  8 20  1  0
  8 21  1  0
  9 22  1  0
  9 23  1  0
 11 24  1  0
 11 25  1  0
 12 26  1  1
M  ISO  8  17  14  18  14  19  14  20  13  21  13  22  13  23  13  24  13
M  ISO  2  25  13  26  13
M  END
>  <minimizedAffinity>  (1) 
-3.6333344

>  <minimizedRMSD>  (1) 
0.373870462

$$$$
