
     RDKit          3D

 39 42  0  0  1  0  0  0  0  0999 V2000
   40.0300   31.9760   39.9560 C   0  0  0  0  0  0  0  0  0  0  0  0
   39.6030   30.8090   40.6600 C   0  0  0  0  0  0  0  0  0  0  0  0
   38.2750   30.7160   40.9990 C   0  0  0  0  0  0  0  0  0  0  0  0
   37.4370   31.7200   40.6560 N   0  0  0  0  0  0  0  0  0  0  0  0
   37.8630   32.8140   39.9910 C   0  0  0  0  0  0  0  0  0  0  0  0
   39.1610   32.9440   39.6400 N   0  0  0  0  0  0  0  0  0  0  0  0
   36.9010   33.8340   39.6690 N   0  0  0  0  0  0  0  0  0  0  0  0
   37.7770   29.5880   41.6980 N   0  0  0  0  0  0  0  0  0  0  0  0
   38.3050   29.2550   42.9970 C   0  0  0  0  0  0  0  0  0  0  0  0
   37.2430   28.4090   43.7000 C   0  0  0  0  0  0  0  0  0  0  0  0
   36.9420   27.2070   42.9810 N   0  0  0  0  0  0  0  0  0  0  0  0
   36.9630   27.3200   41.5550 C   0  0  0  0  0  0  0  0  0  0  0  0
   36.7480   28.7620   41.1390 C   0  0  2  0  0  0  0  0  0  0  0  0
   36.7180   28.8830   39.7000 N   0  0  0  0  0  0  0  0  0  0  0  0
   35.7150   29.4950   39.0100 C   0  0  0  0  0  0  0  0  0  0  0  0
   35.9600   29.4550   37.6680 N   0  0  0  0  0  0  0  0  0  0  0  0
   37.1320   28.8140   37.4870 C   0  0  0  0  0  0  0  0  0  0  0  0
   37.9090   28.4580   36.4030 C   0  0  0  0  0  0  0  0  0  0  0  0
   39.0770   27.7940   36.5630 N   0  0  0  0  0  0  0  0  0  0  0  0
   39.4810   27.4780   37.8070 C   0  0  0  0  0  0  0  0  0  0  0  0
   38.7370   27.8160   38.8750 N   0  0  0  0  0  0  0  0  0  0  0  0
   37.5900   28.4660   38.7400 C   0  0  0  0  0  0  0  0  0  0  0  0
   37.4600   28.8050   35.0970 N   0  0  0  0  0  0  0  0  0  0  0  0
   41.0869   32.0808   39.6697 H   0  0  0  0  0  0  0  0  0  0  0  0
   40.3137   30.0114   40.9220 H   0  0  0  0  0  0  0  0  0  0  0  0
   37.1976   34.6800   39.1619 H   0  0  0  0  0  0  0  0  0  0  0  0
   35.9156   33.7183   39.9455 H   0  0  0  0  0  0  0  0  0  0  0  0
   39.2376   28.6814   42.8913 H   0  0  0  0  0  0  0  0  0  0  0  0
   38.5342   30.1623   43.5751 H   0  0  0  0  0  0  0  0  0  0  0  0
   37.6109   28.1397   44.7011 H   0  0  0  0  0  0  0  0  0  0  0  0
   36.3211   29.0063   43.7581 H   0  0  0  0  0  0  0  0  0  0  0  0
   37.6331   26.4933   43.2529 H   0  0  0  0  0  0  0  0  0  0  0  0
   37.9369   26.9747   41.1778 H   0  0  0  0  0  0  0  0  0  0  0  0
   36.1559   26.7019   41.1348 H   0  0  0  0  0  0  0  0  0  0  0  0
   35.7744   29.0996   41.5240 H   0  0  0  0  0  0  0  0  0  0  0  0
   34.8299   29.9575   39.4711 H   0  0  0  0  0  0  0  0  0  0  0  0
   40.4285   26.9383   37.9517 H   0  0  0  0  0  0  0  0  0  0  0  0
   36.5708   29.3105   34.9755 H   0  0  0  0  0  0  0  0  0  0  0  0
   38.0244   28.5505   34.2738 H   0  0  0  0  0  0  0  0  0  0  0  0
  1  2  2  0
  2  3  1  0
  3  8  1  0
  4  3  2  0
  5  4  1  0
  6  1  1  0
  6  5  2  0
  7  5  1  0
  8  9  1  0
  9 10  1  0
 11 10  1  0
 12 11  1  0
 13 12  1  0
 13  8  1  0
 14 13  1  0
 15 14  1  0
 16 15  2  0
 17 16  1  0
 17 22  2  0
 18 19  2  0
 18 17  1  0
 19 20  1  0
 20 21  2  0
 22 21  1  0
 22 14  1  0
 23 18  1  0
  1 24  1  0
  2 25  1  0
  7 26  1  0
  7 27  1  0
  9 28  1  0
  9 29  1  0
 10 30  1  0
 10 31  1  0
 11 32  1  0
 12 33  1  0
 12 34  1  0
 13 35  1  1
 15 36  1  0
 20 37  1  0
 23 38  1  0
 23 39  1  0
M  ISO  8  24  14  25  14  28  13  29  13  30  13  31  13  32   5  33  13
M  ISO  4  34  13  35  13  36  14  37  14
M  END
>  <minimizedAffinity>  (1) 
-6.18868542

>  <minimizedRMSD>  (1) 
1.46297753

$$$$
