
     RDKit          3D

 24 25  0  0  1  0  0  0  0  0999 V2000
   37.9950   28.1970   43.5360 C   0  0  0  0  0  0  0  0  0  0  0  0
   37.9080   26.9680   42.8900 C   0  0  0  0  0  0  0  0  0  0  0  0
   37.2760   26.8770   41.6510 C   0  0  0  0  0  0  0  0  0  0  0  0
   36.7560   28.0210   41.1110 N   0  0  0  0  0  0  0  0  0  0  0  0
   36.8520   29.2110   41.7580 C   0  0  0  0  0  0  0  0  0  0  0  0
   37.4670   29.2860   42.9570 N   0  0  0  0  0  0  0  0  0  0  0  0
   37.1640   25.6380   40.9580 N   0  0  0  0  0  0  0  0  0  0  0  0
   37.0530   24.4030   41.6800 C   0  0  0  0  0  0  0  0  0  0  0  0
   37.5440   23.2120   40.8950 C   0  0  0  0  0  0  0  0  0  0  0  0
   37.7240   23.4480   39.5640 O   0  0  0  0  0  0  0  0  0  0  0  0
   36.8500   24.3370   38.9840 C   0  0  0  0  0  0  0  0  0  0  0  0
   37.1640   25.6890   39.5110 C   0  0  1  0  0  0  0  0  0  0  0  0
   36.1990   27.0280   38.8190 S   0  0  0  0  0  0  0  0  0  0  0  0
   38.4928   28.2753   44.5138 H   0  0  0  0  0  0  0  0  0  0  0  0
   38.3375   26.0691   43.3564 H   0  0  0  0  0  0  0  0  0  0  0  0
   36.4267   30.1177   41.3029 H   0  0  0  0  0  0  0  0  0  0  0  0
   37.6462   24.4826   42.6029 H   0  0  0  0  0  0  0  0  0  0  0  0
   35.9854   24.2403   41.8891 H   0  0  0  0  0  0  0  0  0  0  0  0
   38.5068   22.8929   41.3208 H   0  0  0  0  0  0  0  0  0  0  0  0
   36.7629   22.4415   40.9736 H   0  0  0  0  0  0  0  0  0  0  0  0
   35.8152   24.0661   39.2405 H   0  0  0  0  0  0  0  0  0  0  0  0
   36.9515   24.3176   37.8889 H   0  0  0  0  0  0  0  0  0  0  0  0
   38.1735   25.9549   39.1644 H   0  0  0  0  0  0  0  0  0  0  0  0
   35.6608   27.7748   39.8336 H   0  0  0  0  0  0  0  0  0  0  0  0
  2  1  2  0
  3  2  1  0
  4  3  2  0
  4  5  1  0
  5  6  2  0
  6  1  1  0
  7  3  1  0
  7  8  1  0
  9  8  1  0
 10  9  1  0
 11 12  1  0
 11 10  1  0
 12  7  1  0
 13 12  1  0
  1 14  1  0
  2 15  1  0
  5 16  1  0
  8 17  1  0
  8 18  1  0
  9 19  1  0
  9 20  1  0
 11 21  1  0
 11 22  1  0
 12 23  1  6
 13 24  1  0
M  ISO  8  14  14  15  14  16  14  17  13  18  13  19  13  20  13  21  13
M  ISO  3  22  13  23  13  24  11
M  END
>  <minimizedAffinity>  (1) 
-3.54061222

>  <minimizedRMSD>  (1) 
0.545587718

$$$$
