
     RDKit          3D

 52 55  0  0  1  0  0  0  0  0999 V2000
   38.2080   27.5400   43.6360 C   0  0  0  0  0  0  0  0  0  0  0  0
   37.9770   26.7030   42.5240 C   0  0  0  0  0  0  0  0  0  0  0  0
   37.3740   27.2350   41.3920 C   0  0  0  0  0  0  0  0  0  0  0  0
   37.0540   28.5320   41.4510 N   0  0  0  0  0  0  0  0  0  0  0  0
   37.2620   29.3590   42.5000 C   0  0  0  0  0  0  0  0  0  0  0  0
   37.8460   28.8340   43.5880 N   0  0  0  0  0  0  0  0  0  0  0  0
   37.1050   26.4760   40.2340 N   0  0  0  0  0  0  0  0  0  0  0  0
   36.7300   25.0960   40.3450 C   0  0  0  0  0  0  0  0  0  0  0  0
   37.0840   24.2840   39.1200 C   0  0  0  0  0  0  0  0  0  0  0  0
   37.4760   25.0330   38.0320 O   0  0  0  0  0  0  0  0  0  0  0  0
   36.8030   26.2140   37.9010 C   0  0  0  0  0  0  0  0  0  0  0  0
   37.2240   27.1430   38.9680 C   0  0  1  0  0  0  0  0  0  0  0  0
   36.6680   28.4750   38.9060 N   0  0  0  0  0  0  0  0  0  0  0  0
   35.2460   28.5470   38.9190 C   0  0  0  0  0  0  0  0  0  0  0  0
   34.6460   29.0910   37.6270 C   0  0  0  0  0  0  0  0  0  0  0  0
   35.5210   28.9000   36.5590 O   0  0  0  0  0  0  0  0  0  0  0  0
   36.5710   29.7820   36.8260 C   0  0  0  0  0  0  0  0  0  0  0  0
   37.3450   29.3780   38.0680 C   0  0  1  0  0  0  0  0  0  0  0  0
   37.9180   30.6300   38.5920 C   0  0  0  0  0  0  0  0  0  0  0  0
   39.0880   30.4890   39.5040 C   0  0  0  0  0  0  0  0  0  0  0  0
   39.5420   31.8940   39.9030 C   0  0  0  0  0  0  0  0  0  0  0  0
   38.4290   32.6280   40.6110 C   0  0  0  0  0  0  0  0  0  0  0  0
   37.3240   32.7840   39.5840 C   0  0  0  0  0  0  0  0  0  0  0  0
   36.8130   31.3590   39.3350 C   0  0  0  0  0  0  0  0  0  0  0  0
   38.6837   27.1344   44.5411 H   0  0  0  0  0  0  0  0  0  0  0  0
   38.2706   25.6433   42.5534 H   0  0  0  0  0  0  0  0  0  0  0  0
   36.9650   30.4175   42.4632 H   0  0  0  0  0  0  0  0  0  0  0  0
   37.2464   24.6619   41.2138 H   0  0  0  0  0  0  0  0  0  0  0  0
   35.6361   25.0617   40.4560 H   0  0  0  0  0  0  0  0  0  0  0  0
   37.9078   23.6047   39.3843 H   0  0  0  0  0  0  0  0  0  0  0  0
   36.1681   23.7532   38.8209 H   0  0  0  0  0  0  0  0  0  0  0  0
   37.0280   26.6570   36.9196 H   0  0  0  0  0  0  0  0  0  0  0  0
   35.7215   26.0299   37.9817 H   0  0  0  0  0  0  0  0  0  0  0  0
   38.2845   27.3851   38.8048 H   0  0  0  0  0  0  0  0  0  0  0  0
   34.8489   27.5350   39.0867 H   0  0  0  0  0  0  0  0  0  0  0  0
   34.9677   29.2464   39.7211 H   0  0  0  0  0  0  0  0  0  0  0  0
   33.7018   28.5666   37.4185 H   0  0  0  0  0  0  0  0  0  0  0  0
   34.4650   30.1693   37.7476 H   0  0  0  0  0  0  0  0  0  0  0  0
   37.2568   29.7898   35.9660 H   0  0  0  0  0  0  0  0  0  0  0  0
   36.1430   30.7803   36.9996 H   0  0  0  0  0  0  0  0  0  0  0  0
   38.1970   28.7084   37.8789 H   0  0  0  0  0  0  0  0  0  0  0  0
   38.3066   31.1738   37.7183 H   0  0  0  0  0  0  0  0  0  0  0  0
   38.7976   29.9210   40.4001 H   0  0  0  0  0  0  0  0  0  0  0  0
   39.9043   29.9499   39.0011 H   0  0  0  0  0  0  0  0  0  0  0  0
   40.4096   31.8170   40.5749 H   0  0  0  0  0  0  0  0  0  0  0  0
   39.8143   32.4513   38.9946 H   0  0  0  0  0  0  0  0  0  0  0  0
   38.0723   32.0451   41.4730 H   0  0  0  0  0  0  0  0  0  0  0  0
   38.7653   33.6014   40.9974 H   0  0  0  0  0  0  0  0  0  0  0  0
   36.5179   33.4212   39.9765 H   0  0  0  0  0  0  0  0  0  0  0  0
   37.6813   33.2632   38.6606 H   0  0  0  0  0  0  0  0  0  0  0  0
   35.8976   31.3844   38.7256 H   0  0  0  0  0  0  0  0  0  0  0  0
   36.5676   30.8530   40.2803 H   0  0  0  0  0  0  0  0  0  0  0  0
  2  1  2  0
  3  4  2  0
  3  2  1  0
  4  5  1  0
  5  6  2  0
  6  1  1  0
  7  8  1  0
  7  3  1  0
  9  8  1  0
 10  9  1  0
 11 10  1  0
 11 12  1  0
 12  7  1  0
 13 14  1  0
 13 12  1  0
 15 14  1  0
 16 17  1  0
 16 15  1  0
 17 18  1  0
 18 19  1  0
 18 13  1  0
 19 24  1  0
 19 20  1  0
 20 21  1  0
 21 22  1  0
 23 22  1  0
 24 23  1  0
  1 25  1  0
  2 26  1  0
  5 27  1  0
  8 28  1  0
  8 29  1  0
  9 30  1  0
  9 31  1  0
 11 32  1  0
 11 33  1  0
 12 34  1  6
 14 35  1  0
 14 36  1  0
 15 37  1  0
 15 38  1  0
 17 39  1  0
 17 40  1  0
 18 41  1  6
 19 42  1  0
 20 43  1  0
 20 44  1  0
 21 45  1  0
 21 46  1  0
 22 47  1  0
 22 48  1  0
 23 49  1  0
 23 50  1  0
 24 51  1  0
 24 52  1  0
M  ISO  8  25  14  26  14  27  14  28  13  29  13  30  13  31  13  32  13
M  ISO  8  33  13  34  13  35  13  36  13  37  13  38  13  39  13  40  13
M  ISO  8  41  13  42  13  43  13  44  13  45  13  46  13  47  13  48  13
M  ISO  4  49  13  50  13  51  13  52  13
M  END
>  <minimizedAffinity>  (1) 
-5.4563694

>  <minimizedRMSD>  (1) 
0.445932388

$$$$
