
     RDKit          3D

 49 52  0  0  1  0  0  0  0  0999 V2000
   38.3240   27.3720   43.6850 C   0  0  0  0  0  0  0  0  0  0  0  0
   38.0640   26.5760   42.5510 C   0  0  0  0  0  0  0  0  0  0  0  0
   37.4190   27.1480   41.4680 C   0  0  0  0  0  0  0  0  0  0  0  0
   37.0800   28.4370   41.5710 N   0  0  0  0  0  0  0  0  0  0  0  0
   37.3180   29.2160   42.6450 C   0  0  0  0  0  0  0  0  0  0  0  0
   37.9430   28.6660   43.6970 N   0  0  0  0  0  0  0  0  0  0  0  0
   37.1220   26.4220   40.2910 N   0  0  0  0  0  0  0  0  0  0  0  0
   36.7600   25.0400   40.3570 C   0  0  0  0  0  0  0  0  0  0  0  0
   37.0500   24.2680   39.0910 C   0  0  0  0  0  0  0  0  0  0  0  0
   37.4180   25.0540   38.0250 O   0  0  0  0  0  0  0  0  0  0  0  0
   36.7460   26.2400   37.9520 C   0  0  0  0  0  0  0  0  0  0  0  0
   37.2020   27.1360   39.0390 C   0  0  1  0  0  0  0  0  0  0  0  0
   36.6480   28.4650   39.0380 N   0  0  0  0  0  0  0  0  0  0  0  0
   35.2420   28.5520   38.8190 C   0  0  0  0  0  0  0  0  0  0  0  0
   34.8600   29.2310   37.5100 C   0  0  0  0  0  0  0  0  0  0  0  0
   35.9040   29.1670   36.5950 O   0  0  0  0  0  0  0  0  0  0  0  0
   36.8790   30.0110   37.1390 C   0  0  0  0  0  0  0  0  0  0  0  0
   37.4460   29.4510   38.4280 C   0  0  1  0  0  0  0  0  0  0  0  0
   37.8800   30.6420   39.2090 C   0  0  0  0  0  0  0  0  0  0  0  0
   38.6920   31.5270   38.2650 C   0  0  0  0  0  0  0  0  0  0  0  0
   38.8320   32.7470   39.1870 C   0  0  0  0  0  0  0  0  0  0  0  0
   37.3400   33.0080   39.4350 C   0  0  0  0  0  0  0  0  0  0  0  0
   36.8110   31.5870   39.6470 C   0  0  0  0  0  0  0  0  0  0  0  0
   38.8359   26.9394   44.5572 H   0  0  0  0  0  0  0  0  0  0  0  0
   38.3682   25.5192   42.5272 H   0  0  0  0  0  0  0  0  0  0  0  0
   37.0089   30.2716   42.6585 H   0  0  0  0  0  0  0  0  0  0  0  0
   37.3197   24.5748   41.1818 H   0  0  0  0  0  0  0  0  0  0  0  0
   35.6714   25.0030   40.5102 H   0  0  0  0  0  0  0  0  0  0  0  0
   37.8673   23.5612   39.2972 H   0  0  0  0  0  0  0  0  0  0  0  0
   36.1144   23.7649   38.8055 H   0  0  0  0  0  0  0  0  0  0  0  0
   36.9442   26.7140   36.9793 H   0  0  0  0  0  0  0  0  0  0  0  0
   35.6667   26.0559   38.0584 H   0  0  0  0  0  0  0  0  0  0  0  0
   38.2570   27.3852   38.8522 H   0  0  0  0  0  0  0  0  0  0  0  0
   34.8290   27.5325   38.8133 H   0  0  0  0  0  0  0  0  0  0  0  0
   34.8311   29.1707   39.6304 H   0  0  0  0  0  0  0  0  0  0  0  0
   33.9787   28.7270   37.0867 H   0  0  0  0  0  0  0  0  0  0  0  0
   34.6365   30.2884   37.7148 H   0  0  0  0  0  0  0  0  0  0  0  0
   37.6955   30.1286   36.4113 H   0  0  0  0  0  0  0  0  0  0  0  0
   36.4090   30.9801   37.3625 H   0  0  0  0  0  0  0  0  0  0  0  0
   38.3300   28.8129   38.2819 H   0  0  0  0  0  0  0  0  0  0  0  0
   38.3754   30.2128   40.0923 H   0  0  0  0  0  0  0  0  0  0  0  0
   38.1444   31.7634   37.3408 H   0  0  0  0  0  0  0  0  0  0  0  0
   39.6309   31.0966   37.8866 H   0  0  0  0  0  0  0  0  0  0  0  0
   39.3718   32.5069   40.1149 H   0  0  0  0  0  0  0  0  0  0  0  0
   39.4065   33.5926   38.7809 H   0  0  0  0  0  0  0  0  0  0  0  0
   37.1844   33.6317   40.3276 H   0  0  0  0  0  0  0  0  0  0  0  0
   36.8400   33.5555   38.6224 H   0  0  0  0  0  0  0  0  0  0  0  0
   35.9024   31.4308   39.0470 H   0  0  0  0  0  0  0  0  0  0  0  0
   36.5560   31.4215   40.7042 H   0  0  0  0  0  0  0  0  0  0  0  0
  1  6  2  0
  2  1  1  0
  3  4  1  0
  3  2  2  0
  4  5  2  0
  5  6  1  0
  7  8  1  0
  7  3  1  0
  9  8  1  0
 10  9  1  0
 11 10  1  0
 11 12  1  0
 12  7  1  0
 13 14  1  0
 13 12  1  0
 15 14  1  0
 16 17  1  0
 16 15  1  0
 17 18  1  0
 18 13  1  0
 18 19  1  0
 19 23  1  0
 20 21  1  0
 20 19  1  0
 21 22  1  0
 22 23  1  0
  1 24  1  0
  2 25  1  0
  5 26  1  0
  8 27  1  0
  8 28  1  0
  9 29  1  0
  9 30  1  0
 11 31  1  0
 11 32  1  0
 12 33  1  6
 14 34  1  0
 14 35  1  0
 15 36  1  0
 15 37  1  0
 17 38  1  0
 17 39  1  0
 18 40  1  6
 19 41  1  0
 20 42  1  0
 20 43  1  0
 21 44  1  0
 21 45  1  0
 22 46  1  0
 22 47  1  0
 23 48  1  0
 23 49  1  0
M  ISO  8  24  14  25  14  26  14  27  13  28  13  29  13  30  13  31  13
M  ISO  8  32  13  33  13  34  13  35  13  36  13  37  13  38  13  39  13
M  ISO  8  40  13  41  13  42  13  43  13  44  13  45  13  46  13  47  13
M  ISO  2  48  13  49  13
M  END
>  <minimizedAffinity>  (1) 
-5.20610476

>  <minimizedRMSD>  (1) 
0.727582216

$$$$
