
     RDKit          3D

 43 45  0  0  1  0  0  0  0  0999 V2000
   38.4430   27.2440   43.6830 C   0  0  0  0  0  0  0  0  0  0  0  0
   38.4770   26.5980   42.4390 C   0  0  0  0  0  0  0  0  0  0  0  0
   37.8430   27.1700   41.3480 C   0  0  0  0  0  0  0  0  0  0  0  0
   37.2240   28.3370   41.5760 N   0  0  0  0  0  0  0  0  0  0  0  0
   37.1720   28.9850   42.7660 C   0  0  0  0  0  0  0  0  0  0  0  0
   37.7940   28.4150   43.8130 N   0  0  0  0  0  0  0  0  0  0  0  0
   37.8310   26.5860   40.0660 N   0  0  0  0  0  0  0  0  0  0  0  0
   37.7870   25.1560   39.9240 C   0  0  0  0  0  0  0  0  0  0  0  0
   38.3440   24.6560   38.6240 C   0  0  0  0  0  0  0  0  0  0  0  0
   38.6420   25.6560   37.7130 O   0  0  0  0  0  0  0  0  0  0  0  0
   37.7140   26.6650   37.7010 C   0  0  0  0  0  0  0  0  0  0  0  0
   37.8650   27.4770   38.9350 C   0  0  1  0  0  0  0  0  0  0  0  0
   37.0200   28.6330   39.0260 N   0  0  0  0  0  0  0  0  0  0  0  0
   35.6750   28.4720   38.5870 C   0  0  0  0  0  0  0  0  0  0  0  0
   35.3310   29.2910   37.3440 C   0  0  0  0  0  0  0  0  0  0  0  0
   36.4790   29.5990   36.6270 O   0  0  0  0  0  0  0  0  0  0  0  0
   37.1640   30.5140   37.4450 C   0  0  0  0  0  0  0  0  0  0  0  0
   37.6180   29.8770   38.7370 C   0  0  1  0  0  0  0  0  0  0  0  0
   37.5220   30.9030   39.7310 N   0  0  0  0  0  0  0  0  0  0  0  0
   37.3710   32.2250   39.2090 C   0  0  0  0  0  0  0  0  0  0  0  0
   37.5620   32.5290   37.9850 N   0  0  0  0  0  0  0  0  0  0  0  0
   36.9830   33.2910   40.0960 N   0  0  0  0  0  0  0  0  0  0  0  0
   37.4540   33.4940   37.5980 H   0  0  0  0  0  0  0  0  0  0  0  0
   38.9463   26.7938   44.5513 H   0  0  0  0  0  0  0  0  0  0  0  0
   39.0057   25.6396   42.3296 H   0  0  0  0  0  0  0  0  0  0  0  0
   36.6403   29.9422   42.8710 H   0  0  0  0  0  0  0  0  0  0  0  0
   38.3675   24.7086   40.7443 H   0  0  0  0  0  0  0  0  0  0  0  0
   36.7264   24.8655   39.9493 H   0  0  0  0  0  0  0  0  0  0  0  0
   39.2669   24.0963   38.8364 H   0  0  0  0  0  0  0  0  0  0  0  0
   37.5637   24.0315   38.1646 H   0  0  0  0  0  0  0  0  0  0  0  0
   37.8737   27.3022   36.8187 H   0  0  0  0  0  0  0  0  0  0  0  0
   36.7014   26.2374   37.6597 H   0  0  0  0  0  0  0  0  0  0  0  0
   38.8471   27.9718   38.9107 H   0  0  0  0  0  0  0  0  0  0  0  0
   35.5094   27.4088   38.3588 H   0  0  0  0  0  0  0  0  0  0  0  0
   35.0270   28.8336   39.3990 H   0  0  0  0  0  0  0  0  0  0  0  0
   34.6511   28.7089   36.7046 H   0  0  0  0  0  0  0  0  0  0  0  0
   34.8488   30.2279   37.6597 H   0  0  0  0  0  0  0  0  0  0  0  0
   38.0452   30.8869   36.9025 H   0  0  0  0  0  0  0  0  0  0  0  0
   36.4757   31.3360   37.6912 H   0  0  0  0  0  0  0  0  0  0  0  0
   38.6631   29.5388   38.6792 H   0  0  0  0  0  0  0  0  0  0  0  0
   37.5588   30.7044   40.7410 H   0  0  0  0  0  0  0  0  0  0  0  0
   36.8707   34.2482   39.7326 H   0  0  0  0  0  0  0  0  0  0  0  0
   36.8178   33.0963   41.0938 H   0  0  0  0  0  0  0  0  0  0  0  0
  1  6  2  0
  2  1  1  0
  3  4  1  0
  3  2  2  0
  4  5  2  0
  5  6  1  0
  7  3  1  0
  8  7  1  0
  9  8  1  0
 10  9  1  0
 11 10  1  0
 11 12  1  0
 12 13  1  0
 12  7  1  0
 13 14  1  0
 15 14  1  0
 16 15  1  0
 16 17  1  0
 17 18  1  0
 18 13  1  0
 18 19  1  0
 20 19  1  0
 20 22  1  0
 21 20  2  0
 23 21  1  0
  1 24  1  0
  2 25  1  0
  5 26  1  0
  8 27  1  0
  8 28  1  0
  9 29  1  0
  9 30  1  0
 11 31  1  0
 11 32  1  0
 12 33  1  6
 14 34  1  0
 14 35  1  0
 15 36  1  0
 15 37  1  0
 17 38  1  0
 17 39  1  0
 18 40  1  6
 19 41  1  0
 22 42  1  0
 22 43  1  0
M  ISO  8  24  14  25  14  26  14  27  13  28  13  29  13  30  13  31  13
M  ISO  8  32  13  33  13  34  13  35  13  36  13  37  13  38  13  39  13
M  ISO  1  40  13
M  END
>  <minimizedAffinity>  (1) 
-5.18517113

>  <minimizedRMSD>  (1) 
0.892141104

$$$$
