
     RDKit          3D

 48 51  0  0  1  0  0  0  0  0999 V2000
   38.3040   27.4340   43.6210 C   0  0  0  0  0  0  0  0  0  0  0  0
   38.0490   26.6220   42.4970 C   0  0  0  0  0  0  0  0  0  0  0  0
   37.3620   27.1680   41.4240 C   0  0  0  0  0  0  0  0  0  0  0  0
   36.9840   28.4470   41.5280 N   0  0  0  0  0  0  0  0  0  0  0  0
   37.2190   29.2380   42.5910 C   0  0  0  0  0  0  0  0  0  0  0  0
   37.8840   28.7140   43.6360 N   0  0  0  0  0  0  0  0  0  0  0  0
   37.0650   26.4210   40.2580 N   0  0  0  0  0  0  0  0  0  0  0  0
   36.7510   25.0280   40.3420 C   0  0  0  0  0  0  0  0  0  0  0  0
   37.0530   24.2570   39.0820 C   0  0  0  0  0  0  0  0  0  0  0  0
   37.3640   25.0440   37.9990 O   0  0  0  0  0  0  0  0  0  0  0  0
   36.6540   26.2100   37.9250 C   0  0  0  0  0  0  0  0  0  0  0  0
   37.0930   27.1220   38.9990 C   0  0  1  0  0  0  0  0  0  0  0  0
   36.4880   28.4280   39.0000 N   0  0  0  0  0  0  0  0  0  0  0  0
   35.0950   28.4760   38.7360 C   0  0  0  0  0  0  0  0  0  0  0  0
   34.7390   29.1640   37.4180 C   0  0  0  0  0  0  0  0  0  0  0  0
   35.8190   29.1480   36.5400 O   0  0  0  0  0  0  0  0  0  0  0  0
   36.7560   30.0300   37.1410 C   0  0  0  0  0  0  0  0  0  0  0  0
   37.2620   29.4600   38.4300 C   0  0  1  0  0  0  0  0  0  0  0  0
   37.7110   30.5150   39.2580 N   0  0  0  0  0  0  0  0  0  0  0  0
   39.1110   30.7910   39.2010 C   0  0  0  0  0  0  0  0  0  0  0  0
   39.2370   32.0970   39.9360 C   0  0  0  0  0  0  0  0  0  0  0  0
   37.8210   32.5890   40.1770 C   0  0  0  0  0  0  0  0  0  0  0  0
   36.9920   31.7330   39.2310 C   0  0  0  0  0  0  0  0  0  0  0  0
   38.8457   27.0226   44.4854 H   0  0  0  0  0  0  0  0  0  0  0  0
   38.3885   25.5760   42.4720 H   0  0  0  0  0  0  0  0  0  0  0  0
   36.8769   30.2834   42.6048 H   0  0  0  0  0  0  0  0  0  0  0  0
   37.3355   24.5901   41.1646 H   0  0  0  0  0  0  0  0  0  0  0  0
   35.6663   24.9546   40.5092 H   0  0  0  0  0  0  0  0  0  0  0  0
   37.9062   23.5919   39.2811 H   0  0  0  0  0  0  0  0  0  0  0  0
   36.1360   23.7087   38.8204 H   0  0  0  0  0  0  0  0  0  0  0  0
   36.8279   26.6838   36.9476 H   0  0  0  0  0  0  0  0  0  0  0  0
   35.5817   25.9945   38.0423 H   0  0  0  0  0  0  0  0  0  0  0  0
   38.1367   27.4009   38.7916 H   0  0  0  0  0  0  0  0  0  0  0  0
   34.7127   27.4451   38.7031 H   0  0  0  0  0  0  0  0  0  0  0  0
   34.6372   29.0700   39.5407 H   0  0  0  0  0  0  0  0  0  0  0  0
   33.8911   28.6380   36.9551 H   0  0  0  0  0  0  0  0  0  0  0  0
   34.4740   30.2105   37.6290 H   0  0  0  0  0  0  0  0  0  0  0  0
   37.6026   30.1807   36.4550 H   0  0  0  0  0  0  0  0  0  0  0  0
   36.2591   30.9894   37.3474 H   0  0  0  0  0  0  0  0  0  0  0  0
   38.1506   28.8436   38.2289 H   0  0  0  0  0  0  0  0  0  0  0  0
   39.6891   30.0001   39.7012 H   0  0  0  0  0  0  0  0  0  0  0  0
   39.4989   30.8369   38.1727 H   0  0  0  0  0  0  0  0  0  0  0  0
   39.7560   31.9463   40.8941 H   0  0  0  0  0  0  0  0  0  0  0  0
   39.8206   32.8272   39.3562 H   0  0  0  0  0  0  0  0  0  0  0  0
   37.5195   32.4274   41.2224 H   0  0  0  0  0  0  0  0  0  0  0  0
   37.7024   33.6681   39.9996 H   0  0  0  0  0  0  0  0  0  0  0  0
   36.9648   32.1623   38.2186 H   0  0  0  0  0  0  0  0  0  0  0  0
   35.9344   31.6385   39.5184 H   0  0  0  0  0  0  0  0  0  0  0  0
  1  6  2  0
  2  1  1  0
  3  4  1  0
  3  2  2  0
  4  5  2  0
  5  6  1  0
  7  8  1  0
  7  3  1  0
  9  8  1  0
 10  9  1  0
 11 10  1  0
 11 12  1  0
 12 13  1  0
 12  7  1  0
 13 14  1  0
 15 14  1  0
 16 17  1  0
 16 15  1  0
 17 18  1  0
 18 13  1  0
 18 19  1  0
 19 20  1  0
 20 21  1  0
 21 22  1  0
 23 19  1  0
 23 22  1  0
  1 24  1  0
  2 25  1  0
  5 26  1  0
  8 27  1  0
  8 28  1  0
  9 29  1  0
  9 30  1  0
 11 31  1  0
 11 32  1  0
 12 33  1  6
 14 34  1  0
 14 35  1  0
 15 36  1  0
 15 37  1  0
 17 38  1  0
 17 39  1  0
 18 40  1  6
 20 41  1  0
 20 42  1  0
 21 43  1  0
 21 44  1  0
 22 45  1  0
 22 46  1  0
 23 47  1  0
 23 48  1  0
M  ISO  8  24  14  25  14  26  14  27  13  28  13  29  13  30  13  31  13
M  ISO  8  32  13  33  13  34  13  35  13  36  13  37  13  38  13  39  13
M  ISO  8  40  13  41  13  42  13  43  13  44  13  45  13  46  13  47  13
M  ISO  1  48  13
M  END
>  <minimizedAffinity>  (1) 
-4.95617628

>  <minimizedRMSD>  (1) 
0.0957172662

$$$$
