
     RDKit          3D

 49 52  0  0  1  0  0  0  0  0999 V2000
   36.3200   28.3690   38.9120 N   0  0  0  0  0  0  0  0  0  0  0  0
   34.9020   28.4140   38.7990 C   0  0  0  0  0  0  0  0  0  0  0  0
   34.4100   29.0130   37.4880 C   0  0  0  0  0  0  0  0  0  0  0  0
   35.4120   28.9280   36.5100 O   0  0  0  0  0  0  0  0  0  0  0  0
   36.3760   29.8440   36.9410 C   0  0  0  0  0  0  0  0  0  0  0  0
   37.0200   29.3930   38.2400 C   0  0  2  0  0  0  0  0  0  0  0  0
   38.5460   27.7370   43.4320 C   0  0  0  0  0  0  0  0  0  0  0  0
   38.1750   26.8410   42.4060 C   0  0  0  0  0  0  0  0  0  0  0  0
   37.3970   27.3210   41.3530 C   0  0  0  0  0  0  0  0  0  0  0  0
   37.0460   28.6110   41.3840 N   0  0  0  0  0  0  0  0  0  0  0  0
   37.3960   29.4800   42.3630 C   0  0  0  0  0  0  0  0  0  0  0  0
   38.1450   29.0200   43.3750 N   0  0  0  0  0  0  0  0  0  0  0  0
   36.9950   26.4830   40.2860 N   0  0  0  0  0  0  0  0  0  0  0  0
   36.6790   25.0950   40.5140 C   0  0  0  0  0  0  0  0  0  0  0  0
   36.8610   24.2330   39.2790 C   0  0  0  0  0  0  0  0  0  0  0  0
   37.1220   24.9400   38.1200 O   0  0  0  0  0  0  0  0  0  0  0  0
   36.3980   26.0930   38.0140 C   0  0  0  0  0  0  0  0  0  0  0  0
   36.9300   27.0900   38.9740 C   0  0  1  0  0  0  0  0  0  0  0  0
   38.4270   29.0800   37.9450 N   0  0  0  0  0  0  0  0  0  0  0  0
   39.4040   29.3360   38.8730 C   0  0  0  0  0  0  0  0  0  0  0  0
   40.7410   29.0620   38.6780 C   0  0  0  0  0  0  0  0  0  0  0  0
   41.7530   29.3620   39.7220 C   0  0  0  0  0  0  0  0  0  0  0  0
   41.1240   28.4980   37.4820 C   0  0  0  0  0  0  0  0  0  0  0  0
   42.3200   28.2160   37.2200 O   0  0  0  0  0  0  0  0  0  0  0  0
   40.1620   28.2510   36.5790 N   0  0  0  0  0  0  0  0  0  0  0  0
   38.8730   28.5310   36.8050 C   0  0  0  0  0  0  0  0  0  0  0  0
   38.0430   28.2630   35.9020 O   0  0  0  0  0  0  0  0  0  0  0  0
   34.5147   27.3875   38.8785 H   0  0  0  0  0  0  0  0  0  0  0  0
   34.5361   29.0650   39.6067 H   0  0  0  0  0  0  0  0  0  0  0  0
   33.5218   28.4609   37.1470 H   0  0  0  0  0  0  0  0  0  0  0  0
   34.1556   30.0708   37.6500 H   0  0  0  0  0  0  0  0  0  0  0  0
   37.1535   29.9369   36.1684 H   0  0  0  0  0  0  0  0  0  0  0  0
   35.8836   30.8123   37.1141 H   0  0  0  0  0  0  0  0  0  0  0  0
   36.9743   30.2085   38.9768 H   0  0  0  0  0  0  0  0  0  0  0  0
   39.1605   27.3875   44.2747 H   0  0  0  0  0  0  0  0  0  0  0  0
   38.4924   25.7882   42.4365 H   0  0  0  0  0  0  0  0  0  0  0  0
   37.0750   30.5316   42.3283 H   0  0  0  0  0  0  0  0  0  0  0  0
   37.3366   24.7121   41.3083 H   0  0  0  0  0  0  0  0  0  0  0  0
   35.6174   25.0424   40.7974 H   0  0  0  0  0  0  0  0  0  0  0  0
   37.7016   23.5469   39.4597 H   0  0  0  0  0  0  0  0  0  0  0  0
   35.9064   23.7105   39.1186 H   0  0  0  0  0  0  0  0  0  0  0  0
   36.4805   26.4869   36.9903 H   0  0  0  0  0  0  0  0  0  0  0  0
   35.3409   25.8888   38.2395 H   0  0  0  0  0  0  0  0  0  0  0  0
   37.9561   27.3522   38.6767 H   0  0  0  0  0  0  0  0  0  0  0  0
   39.1028   29.7869   39.8301 H   0  0  0  0  0  0  0  0  0  0  0  0
   41.3037   29.2288   40.7172 H   0  0  0  0  0  0  0  0  0  0  0  0
   42.6078   28.6786   39.6112 H   0  0  0  0  0  0  0  0  0  0  0  0
   42.0973   30.4008   39.6112 H   0  0  0  0  0  0  0  0  0  0  0  0
   40.4262   27.8296   35.6771 H   0  0  0  0  0  0  0  0  0  0  0  0
  1  2  1  0
  1 18  1  0
  3  2  1  0
  4  5  1  0
  4  3  1  0
  5  6  1  0
  6  1  1  0
  8  7  2  0
  9 10  2  0
  9  8  1  0
 10 11  1  0
 11 12  2  0
 12  7  1  0
 13 14  1  0
 13  9  1  0
 15 14  1  0
 16 15  1  0
 17 16  1  0
 17 18  1  0
 18 13  1  0
 19  6  1  0
 19 20  1  0
 21 20  2  0
 21 22  1  0
 23 21  1  0
 24 23  2  0
 25 26  1  0
 25 23  1  0
 26 19  1  0
 27 26  2  0
  2 28  1  0
  2 29  1  0
  3 30  1  0
  3 31  1  0
  5 32  1  0
  5 33  1  0
  6 34  1  1
  7 35  1  0
  8 36  1  0
 11 37  1  0
 14 38  1  0
 14 39  1  0
 15 40  1  0
 15 41  1  0
 17 42  1  0
 17 43  1  0
 18 44  1  6
 20 45  1  0
 22 46  1  0
 22 47  1  0
 22 48  1  0
 25 49  1  0
M  ISO  8  28  13  29  13  30  13  31  13  32  13  33  13  34  13  35  14
M  ISO  8  36  14  37  14  38  13  39  13  40  13  41  13  42  13  43  13
M  ISO  6  44  13  45  14  46   8  47   8  48   8  49   9
M  END
>  <minimizedAffinity>  (1) 
-4.94086742

>  <minimizedRMSD>  (1) 
0.669591725

$$$$
