
     RDKit          3D

 43 46  0  0  1  0  0  0  0  0999 V2000
   38.2530   27.4650   43.6550 C   0  0  0  0  0  0  0  0  0  0  0  0
   37.9970   26.6280   42.5410 C   0  0  0  0  0  0  0  0  0  0  0  0
   37.3920   27.1920   41.4120 C   0  0  0  0  0  0  0  0  0  0  0  0
   37.1040   28.4970   41.4870 N   0  0  0  0  0  0  0  0  0  0  0  0
   37.3450   29.3030   42.5470 C   0  0  0  0  0  0  0  0  0  0  0  0
   37.9170   28.7690   43.6160 N   0  0  0  0  0  0  0  0  0  0  0  0
   37.1030   26.4370   40.2560 N   0  0  0  0  0  0  0  0  0  0  0  0
   36.7100   25.0660   40.3590 C   0  0  0  0  0  0  0  0  0  0  0  0
   37.0280   24.2600   39.1170 C   0  0  0  0  0  0  0  0  0  0  0  0
   37.4270   25.0130   38.0330 O   0  0  0  0  0  0  0  0  0  0  0  0
   36.7730   26.2060   37.9220 C   0  0  0  0  0  0  0  0  0  0  0  0
   37.2260   27.1150   38.9940 C   0  0  1  0  0  0  0  0  0  0  0  0
   36.7020   28.4570   38.9450 N   0  0  0  0  0  0  0  0  0  0  0  0
   35.2860   28.5650   38.8150 C   0  0  0  0  0  0  0  0  0  0  0  0
   34.8330   29.1880   37.5000 C   0  0  0  0  0  0  0  0  0  0  0  0
   35.8060   29.0450   36.5260 O   0  0  0  0  0  0  0  0  0  0  0  0
   36.8550   29.8700   36.9360 C   0  0  0  0  0  0  0  0  0  0  0  0
   37.4740   29.3950   38.2340 C   0  0  1  0  0  0  0  0  0  0  0  0
   37.9120   30.6420   38.9150 C   0  0  0  0  0  0  0  0  0  0  0  0
   36.8030   31.5030   39.4720 C   0  0  0  0  0  0  0  0  0  0  0  0
   37.5310   32.0140   38.3040 C   0  0  0  0  0  0  0  0  0  0  0  0
   38.7280   27.0484   44.5554 H   0  0  0  0  0  0  0  0  0  0  0  0
   38.2669   25.5618   42.5628 H   0  0  0  0  0  0  0  0  0  0  0  0
   37.0743   30.3689   42.5218 H   0  0  0  0  0  0  0  0  0  0  0  0
   37.2361   24.6146   41.2131 H   0  0  0  0  0  0  0  0  0  0  0  0
   35.6180   25.0476   40.4902 H   0  0  0  0  0  0  0  0  0  0  0  0
   37.8365   23.5556   39.3623 H   0  0  0  0  0  0  0  0  0  0  0  0
   36.0946   23.7580   38.8225 H   0  0  0  0  0  0  0  0  0  0  0  0
   36.9930   26.6554   36.9424 H   0  0  0  0  0  0  0  0  0  0  0  0
   35.6893   26.0410   38.0136 H   0  0  0  0  0  0  0  0  0  0  0  0
   38.2909   27.3350   38.8281 H   0  0  0  0  0  0  0  0  0  0  0  0
   34.8535   27.5562   38.8876 H   0  0  0  0  0  0  0  0  0  0  0  0
   34.9411   29.2309   39.6197 H   0  0  0  0  0  0  0  0  0  0  0  0
   33.9111   28.6906   37.1642 H   0  0  0  0  0  0  0  0  0  0  0  0
   34.6526   30.2609   37.6625 H   0  0  0  0  0  0  0  0  0  0  0  0
   37.6289   29.8759   36.1543 H   0  0  0  0  0  0  0  0  0  0  0  0
   36.4499   30.8793   37.1012 H   0  0  0  0  0  0  0  0  0  0  0  0
   38.3537   28.7498   38.0932 H   0  0  0  0  0  0  0  0  0  0  0  0
   38.8490   30.1886   39.2705 H   0  0  0  0  0  0  0  0  0  0  0  0
   35.7574   31.1799   39.3608 H   0  0  0  0  0  0  0  0  0  0  0  0
   36.5825   31.9097   40.4700 H   0  0  0  0  0  0  0  0  0  0  0  0
   38.2109   32.8720   38.4118 H   0  0  0  0  0  0  0  0  0  0  0  0
   37.2447   32.3668   37.3022 H   0  0  0  0  0  0  0  0  0  0  0  0
  2  1  2  0
  3  4  2  0
  3  2  1  0
  4  5  1  0
  5  6  2  0
  6  1  1  0
  7  8  1  0
  7  3  1  0
  9  8  1  0
 10  9  1  0
 11 10  1  0
 11 12  1  0
 12  7  1  0
 13 14  1  0
 13 12  1  0
 15 14  1  0
 16 17  1  0
 16 15  1  0
 17 18  1  0
 18 19  1  0
 18 13  1  0
 19 20  1  0
 21 19  1  0
 21 20  1  0
  1 22  1  0
  2 23  1  0
  5 24  1  0
  8 25  1  0
  8 26  1  0
  9 27  1  0
  9 28  1  0
 11 29  1  0
 11 30  1  0
 12 31  1  6
 14 32  1  0
 14 33  1  0
 15 34  1  0
 15 35  1  0
 17 36  1  0
 17 37  1  0
 18 38  1  6
 19 39  1  0
 20 40  1  0
 20 41  1  0
 21 42  1  0
 21 43  1  0
M  ISO  8  22  14  23  14  24  14  25  13  26  13  27  13  28  13  29  13
M  ISO  8  30  13  31  13  32  13  33  13  34  13  35  13  36  13  37  13
M  ISO  6  38  13  39  13  40  13  41  13  42  13  43  13
M  END
>  <minimizedAffinity>  (1) 
-4.70887184

>  <minimizedRMSD>  (1) 
0.491295367

$$$$
