
     RDKit          3D

 46 49  0  0  1  0  0  0  0  0999 V2000
   38.3340   27.4290   43.6030 C   0  0  0  0  0  0  0  0  0  0  0  0
   38.0380   26.6100   42.4900 C   0  0  0  0  0  0  0  0  0  0  0  0
   37.3680   27.1730   41.4030 C   0  0  0  0  0  0  0  0  0  0  0  0
   37.0460   28.4680   41.4930 N   0  0  0  0  0  0  0  0  0  0  0  0
   37.3190   29.2610   42.5430 C   0  0  0  0  0  0  0  0  0  0  0  0
   37.9650   28.7270   43.5940 N   0  0  0  0  0  0  0  0  0  0  0  0
   37.0490   26.4040   40.2480 N   0  0  0  0  0  0  0  0  0  0  0  0
   36.7040   25.0290   40.3540 C   0  0  0  0  0  0  0  0  0  0  0  0
   36.9970   24.2370   39.0940 C   0  0  0  0  0  0  0  0  0  0  0  0
   37.3260   25.0120   37.9950 O   0  0  0  0  0  0  0  0  0  0  0  0
   36.6360   26.1880   37.9130 C   0  0  0  0  0  0  0  0  0  0  0  0
   37.1040   27.1020   38.9790 C   0  0  1  0  0  0  0  0  0  0  0  0
   36.5050   28.4060   38.9800 N   0  0  0  0  0  0  0  0  0  0  0  0
   35.1150   28.4790   38.7370 C   0  0  0  0  0  0  0  0  0  0  0  0
   34.7470   29.1620   37.4180 C   0  0  0  0  0  0  0  0  0  0  0  0
   35.8360   29.1290   36.5260 O   0  0  0  0  0  0  0  0  0  0  0  0
   36.7600   30.0030   37.1120 C   0  0  0  0  0  0  0  0  0  0  0  0
   37.2900   29.4430   38.4020 C   0  0  2  0  0  0  0  0  0  0  0  0
   38.7330   29.1700   38.3090 C   0  0  0  0  0  0  0  0  0  0  0  0
   39.6760   29.3200   39.3000 C   0  0  0  0  0  0  0  0  0  0  0  0
   41.0200   29.0380   39.2110 C   0  0  0  0  0  0  0  0  0  0  0  0
   41.5010   28.5560   38.0250 C   0  0  0  0  0  0  0  0  0  0  0  0
   40.6340   28.3730   36.9780 C   0  0  0  0  0  0  0  0  0  0  0  0
   39.2900   28.6780   37.1360 C   0  0  0  0  0  0  0  0  0  0  0  0
   38.8625   27.0106   44.4723 H   0  0  0  0  0  0  0  0  0  0  0  0
   38.3300   25.5495   42.4807 H   0  0  0  0  0  0  0  0  0  0  0  0
   37.0215   30.3200   42.5425 H   0  0  0  0  0  0  0  0  0  0  0  0
   37.2762   24.5887   41.1839 H   0  0  0  0  0  0  0  0  0  0  0  0
   35.6186   24.9782   40.5252 H   0  0  0  0  0  0  0  0  0  0  0  0
   37.8383   23.5594   39.3014 H   0  0  0  0  0  0  0  0  0  0  0  0
   36.0703   23.7035   38.8359 H   0  0  0  0  0  0  0  0  0  0  0  0
   36.8107   26.6493   36.9298 H   0  0  0  0  0  0  0  0  0  0  0  0
   35.5603   25.9949   38.0376 H   0  0  0  0  0  0  0  0  0  0  0  0
   38.1519   27.3606   38.7670 H   0  0  0  0  0  0  0  0  0  0  0  0
   34.7129   27.4553   38.7200 H   0  0  0  0  0  0  0  0  0  0  0  0
   34.6836   29.0912   39.5427 H   0  0  0  0  0  0  0  0  0  0  0  0
   33.8920   28.6385   36.9653 H   0  0  0  0  0  0  0  0  0  0  0  0
   34.4846   30.2108   37.6211 H   0  0  0  0  0  0  0  0  0  0  0  0
   37.5980   30.1592   36.4167 H   0  0  0  0  0  0  0  0  0  0  0  0
   36.2533   30.9556   37.3261 H   0  0  0  0  0  0  0  0  0  0  0  0
   37.1782   30.2356   39.1565 H   0  0  0  0  0  0  0  0  0  0  0  0
   39.3175   29.7062   40.2656 H   0  0  0  0  0  0  0  0  0  0  0  0
   41.6888   29.1959   40.0699 H   0  0  0  0  0  0  0  0  0  0  0  0
   42.5691   28.3182   37.9122 H   0  0  0  0  0  0  0  0  0  0  0  0
   41.0030   27.9859   36.0168 H   0  0  0  0  0  0  0  0  0  0  0  0
   38.6222   28.5199   36.2763 H   0  0  0  0  0  0  0  0  0  0  0  0
  2  1  2  0
  3  4  2  0
  3  2  1  0
  4  5  1  0
  5  6  2  0
  6  1  1  0
  7  8  1  0
  7  3  1  0
  9  8  1  0
 10  9  1  0
 11 10  1  0
 11 12  1  0
 12 13  1  0
 12  7  1  0
 13 14  1  0
 15 14  1  0
 16 17  1  0
 16 15  1  0
 17 18  1  0
 18 13  1  0
 19 18  1  0
 19 20  2  0
 21 20  1  0
 22 21  2  0
 23 24  2  0
 23 22  1  0
 24 19  1  0
  1 25  1  0
  2 26  1  0
  5 27  1  0
  8 28  1  0
  8 29  1  0
  9 30  1  0
  9 31  1  0
 11 32  1  0
 11 33  1  0
 12 34  1  6
 14 35  1  0
 14 36  1  0
 15 37  1  0
 15 38  1  0
 17 39  1  0
 17 40  1  0
 18 41  1  1
 20 42  1  0
 21 43  1  0
 22 44  1  0
 23 45  1  0
 24 46  1  0
M  ISO  8  25  14  26  14  27  14  28  13  29  13  30  13  31  13  32  13
M  ISO  8  33  13  34  13  35  13  36  13  37  13  38  13  39  13  40  13
M  ISO  6  41  13  42  14  43  14  44  14  45  14  46  14
M  END
>  <minimizedAffinity>  (1) 
-4.61576939

>  <minimizedRMSD>  (1) 
0.1939262

$$$$
