
     RDKit          3D

 49 52  0  0  1  0  0  0  0  0999 V2000
   36.4910   28.3910   38.9530 N   0  0  0  0  0  0  0  0  0  0  0  0
   35.1020   28.4760   38.7560 C   0  0  0  0  0  0  0  0  0  0  0  0
   34.6950   29.1460   37.4430 C   0  0  0  0  0  0  0  0  0  0  0  0
   35.7430   29.0770   36.5110 O   0  0  0  0  0  0  0  0  0  0  0  0
   36.7160   29.9410   37.0350 C   0  0  0  0  0  0  0  0  0  0  0  0
   37.2750   29.4100   38.3210 C   0  0  2  0  0  0  0  0  0  0  0  0
   38.3400   27.4310   43.5750 C   0  0  0  0  0  0  0  0  0  0  0  0
   38.0430   26.6180   42.4670 C   0  0  0  0  0  0  0  0  0  0  0  0
   37.3680   27.1680   41.3770 C   0  0  0  0  0  0  0  0  0  0  0  0
   37.0380   28.4740   41.4600 N   0  0  0  0  0  0  0  0  0  0  0  0
   37.3200   29.2570   42.5200 C   0  0  0  0  0  0  0  0  0  0  0  0
   37.9710   28.7240   43.5700 N   0  0  0  0  0  0  0  0  0  0  0  0
   37.0420   26.3970   40.2230 N   0  0  0  0  0  0  0  0  0  0  0  0
   36.6960   25.0160   40.3470 C   0  0  0  0  0  0  0  0  0  0  0  0
   36.9580   24.2220   39.0870 C   0  0  0  0  0  0  0  0  0  0  0  0
   37.2870   24.9910   37.9820 O   0  0  0  0  0  0  0  0  0  0  0  0
   36.5940   26.1660   37.9010 C   0  0  0  0  0  0  0  0  0  0  0  0
   37.0830   27.0820   38.9560 C   0  0  1  0  0  0  0  0  0  0  0  0
   41.4860   28.5120   37.9880 C   0  0  0  0  0  0  0  0  0  0  0  0
   40.6360   28.2860   36.9260 C   0  0  0  0  0  0  0  0  0  0  0  0
   39.2970   28.5800   37.0730 C   0  0  0  0  0  0  0  0  0  0  0  0
   38.7130   29.0980   38.2320 C   0  0  0  0  0  0  0  0  0  0  0  0
   39.6400   29.2890   39.2320 C   0  0  0  0  0  0  0  0  0  0  0  0
   40.9900   29.0220   39.1660 C   0  0  0  0  0  0  0  0  0  0  0  0
   43.1940   28.1590   37.8610 S   0  0  0  0  0  0  0  0  0  0  0  0
   43.4670   27.5230   36.5480 O   0  0  0  0  0  0  0  0  0  0  0  0
   43.9990   29.4480   37.9190 O   0  0  0  0  0  0  0  0  0  0  0  0
   34.6892   27.4564   38.7655 H   0  0  0  0  0  0  0  0  0  0  0  0
   34.7055   29.1039   39.5675 H   0  0  0  0  0  0  0  0  0  0  0  0
   33.8119   28.6337   37.0335 H   0  0  0  0  0  0  0  0  0  0  0  0
   34.4624   30.2030   37.6397 H   0  0  0  0  0  0  0  0  0  0  0  0
   37.5323   30.0471   36.3054 H   0  0  0  0  0  0  0  0  0  0  0  0
   36.2461   30.9153   37.2348 H   0  0  0  0  0  0  0  0  0  0  0  0
   37.1931   30.2506   39.0258 H   0  0  0  0  0  0  0  0  0  0  0  0
   38.8716   27.0113   44.4417 H   0  0  0  0  0  0  0  0  0  0  0  0
   38.3399   25.5589   42.4597 H   0  0  0  0  0  0  0  0  0  0  0  0
   37.0224   30.3160   42.5267 H   0  0  0  0  0  0  0  0  0  0  0  0
   37.2876   24.5792   41.1651 H   0  0  0  0  0  0  0  0  0  0  0  0
   35.6155   24.9659   40.5468 H   0  0  0  0  0  0  0  0  0  0  0  0
   37.7897   23.5295   39.2838 H   0  0  0  0  0  0  0  0  0  0  0  0
   36.0183   23.7059   38.8409 H   0  0  0  0  0  0  0  0  0  0  0  0
   36.7534   26.6218   36.9127 H   0  0  0  0  0  0  0  0  0  0  0  0
   35.5193   25.9764   38.0394 H   0  0  0  0  0  0  0  0  0  0  0  0
   38.1309   27.3308   38.7324 H   0  0  0  0  0  0  0  0  0  0  0  0
   41.0192   27.8786   35.9788 H   0  0  0  0  0  0  0  0  0  0  0  0
   38.6382   28.3925   36.2123 H   0  0  0  0  0  0  0  0  0  0  0  0
   39.2638   29.6969   40.1818 H   0  0  0  0  0  0  0  0  0  0  0  0
   41.6493   29.2102   40.0261 H   0  0  0  0  0  0  0  0  0  0  0  0
   43.5456   27.3303   38.8938 H   0  0  0  0  0  0  0  0  0  0  0  0
  1  2  1  0
  1 18  1  0
  3  2  1  0
  4  5  1  0
  4  3  1  0
  5  6  1  0
  6  1  1  0
  8  7  2  0
  9 10  2  0
  9  8  1  0
 10 11  1  0
 11 12  2  0
 12  7  1  0
 13 14  1  0
 13  9  1  0
 15 14  1  0
 16 15  1  0
 17 16  1  0
 17 18  1  0
 18 13  1  0
 19 24  2  0
 20 21  2  0
 20 19  1  0
 21 22  1  0
 22  6  1  0
 22 23  2  0
 24 23  1  0
 25 27  2  0
 25 19  1  0
 26 25  2  0
  2 28  1  0
  2 29  1  0
  3 30  1  0
  3 31  1  0
  5 32  1  0
  5 33  1  0
  6 34  1  1
  7 35  1  0
  8 36  1  0
 11 37  1  0
 14 38  1  0
 14 39  1  0
 15 40  1  0
 15 41  1  0
 17 42  1  0
 17 43  1  0
 18 44  1  6
 20 45  1  0
 21 46  1  0
 23 47  1  0
 24 48  1  0
 25 49  1  0
M  ISO  8  28  13  29  13  30  13  31  13  32  13  33  13  34  13  35  14
M  ISO  8  36  14  37  14  38  13  39  13  40  13  41  13  42  13  43  13
M  ISO  6  44  13  45  14  46  14  47  14  48  14  49  11
M  END
>  <minimizedAffinity>  (1) 
-4.60624409

>  <minimizedRMSD>  (1) 
0.755616069

$$$$
