
     RDKit          3D

 44 47  0  0  1  0  0  0  0  0999 V2000
   38.2810   27.5200   43.5720 C   0  0  0  0  0  0  0  0  0  0  0  0
   38.0130   26.6840   42.4660 C   0  0  0  0  0  0  0  0  0  0  0  0
   37.3350   27.2260   41.3710 C   0  0  0  0  0  0  0  0  0  0  0  0
   36.9720   28.5340   41.4420 N   0  0  0  0  0  0  0  0  0  0  0  0
   37.2300   29.3180   42.4970 C   0  0  0  0  0  0  0  0  0  0  0  0
   37.8850   28.8060   43.5570 N   0  0  0  0  0  0  0  0  0  0  0  0
   37.0370   26.4470   40.2180 N   0  0  0  0  0  0  0  0  0  0  0  0
   36.7100   25.0610   40.3490 C   0  0  0  0  0  0  0  0  0  0  0  0
   36.9660   24.2670   39.0860 C   0  0  0  0  0  0  0  0  0  0  0  0
   37.3610   25.0310   38.0010 O   0  0  0  0  0  0  0  0  0  0  0  0
   36.6420   26.1900   37.8860 C   0  0  0  0  0  0  0  0  0  0  0  0
   37.0910   27.1260   38.9510 C   0  0  1  0  0  0  0  0  0  0  0  0
   36.4940   28.4160   38.9170 N   0  0  0  0  0  0  0  0  0  0  0  0
   35.0880   28.4840   38.7380 C   0  0  0  0  0  0  0  0  0  0  0  0
   34.6620   29.1260   37.4200 C   0  0  0  0  0  0  0  0  0  0  0  0
   35.6730   29.0440   36.4830 O   0  0  0  0  0  0  0  0  0  0  0  0
   36.6740   29.9230   36.9690 C   0  0  0  0  0  0  0  0  0  0  0  0
   37.2350   29.4510   38.2720 C   0  0  2  0  0  0  0  0  0  0  0  0
   38.6960   29.2750   38.2960 C   0  0  0  0  0  0  0  0  0  0  0  0
   39.4950   28.7730   37.2920 C   0  0  0  0  0  0  0  0  0  0  0  0
   40.8620   28.6470   37.3390 C   0  0  0  0  0  0  0  0  0  0  0  0
   41.5310   29.0350   38.4510 N   0  0  0  0  0  0  0  0  0  0  0  0
   40.7770   29.5290   39.4470 C   0  0  0  0  0  0  0  0  0  0  0  0
   39.4530   29.6250   39.3370 N   0  0  0  0  0  0  0  0  0  0  0  0
   38.8141   27.1195   44.4469 H   0  0  0  0  0  0  0  0  0  0  0  0
   38.3305   25.6308   42.4664 H   0  0  0  0  0  0  0  0  0  0  0  0
   36.9099   30.3704   42.4978 H   0  0  0  0  0  0  0  0  0  0  0  0
   37.3176   24.6334   41.1602 H   0  0  0  0  0  0  0  0  0  0  0  0
   35.6328   24.9976   40.5628 H   0  0  0  0  0  0  0  0  0  0  0  0
   37.7573   23.5322   39.2958 H   0  0  0  0  0  0  0  0  0  0  0  0
   36.0095   23.7994   38.8095 H   0  0  0  0  0  0  0  0  0  0  0  0
   36.8171   26.6398   36.8975 H   0  0  0  0  0  0  0  0  0  0  0  0
   35.5673   25.9814   37.9933 H   0  0  0  0  0  0  0  0  0  0  0  0
   38.1399   27.3941   38.7565 H   0  0  0  0  0  0  0  0  0  0  0  0
   34.6849   27.4611   38.7711 H   0  0  0  0  0  0  0  0  0  0  0  0
   34.6941   29.1198   39.5446 H   0  0  0  0  0  0  0  0  0  0  0  0
   33.7723   28.6050   37.0365 H   0  0  0  0  0  0  0  0  0  0  0  0
   34.4368   30.1871   37.6024 H   0  0  0  0  0  0  0  0  0  0  0  0
   37.4871   29.9814   36.2304 H   0  0  0  0  0  0  0  0  0  0  0  0
   36.2168   30.9107   37.1287 H   0  0  0  0  0  0  0  0  0  0  0  0
   37.0744   30.3166   38.9315 H   0  0  0  0  0  0  0  0  0  0  0  0
   38.9932   28.4436   36.3702 H   0  0  0  0  0  0  0  0  0  0  0  0
   41.4098   28.2337   36.4793 H   0  0  0  0  0  0  0  0  0  0  0  0
   41.2644   29.8620   40.3752 H   0  0  0  0  0  0  0  0  0  0  0  0
  2  1  2  0
  3  4  2  0
  3  2  1  0
  4  5  1  0
  5  6  2  0
  6  1  1  0
  7  8  1  0
  7  3  1  0
  9  8  1  0
 10  9  1  0
 11 10  1  0
 11 12  1  0
 12  7  1  0
 13 14  1  0
 13 12  1  0
 15 14  1  0
 16 17  1  0
 16 15  1  0
 17 18  1  0
 18 19  1  0
 18 13  1  0
 19 24  2  0
 20 21  2  0
 20 19  1  0
 21 22  1  0
 22 23  2  0
 24 23  1  0
  1 25  1  0
  2 26  1  0
  5 27  1  0
  8 28  1  0
  8 29  1  0
  9 30  1  0
  9 31  1  0
 11 32  1  0
 11 33  1  0
 12 34  1  6
 14 35  1  0
 14 36  1  0
 15 37  1  0
 15 38  1  0
 17 39  1  0
 17 40  1  0
 18 41  1  1
 20 42  1  0
 21 43  1  0
 23 44  1  0
M  ISO  8  25  14  26  14  27  14  28  13  29  13  30  13  31  13  32  13
M  ISO  8  33  13  34  13  35  13  36  13  37  13  38  13  39  13  40  13
M  ISO  4  41  13  42  14  43  14  44  14
M  END
>  <minimizedAffinity>  (1) 
-4.57606745

>  <minimizedRMSD>  (1) 
0.655236304

$$$$
