
     RDKit          3D

 44 47  0  0  1  0  0  0  0  0999 V2000
   38.2750   27.5240   43.5820 C   0  0  0  0  0  0  0  0  0  0  0  0
   38.0130   26.7040   42.4780 C   0  0  0  0  0  0  0  0  0  0  0  0
   37.3410   27.2190   41.3760 C   0  0  0  0  0  0  0  0  0  0  0  0
   36.9730   28.5250   41.4520 N   0  0  0  0  0  0  0  0  0  0  0  0
   37.2240   29.3120   42.5060 C   0  0  0  0  0  0  0  0  0  0  0  0
   37.8770   28.7960   43.5690 N   0  0  0  0  0  0  0  0  0  0  0  0
   37.0500   26.4450   40.2300 N   0  0  0  0  0  0  0  0  0  0  0  0
   36.7180   25.0600   40.3560 C   0  0  0  0  0  0  0  0  0  0  0  0
   36.9920   24.2580   39.1020 C   0  0  0  0  0  0  0  0  0  0  0  0
   37.3580   25.0210   38.0160 O   0  0  0  0  0  0  0  0  0  0  0  0
   36.6250   26.1800   37.9000 C   0  0  0  0  0  0  0  0  0  0  0  0
   37.1050   27.1220   38.9530 C   0  0  1  0  0  0  0  0  0  0  0  0
   36.4950   28.4130   38.9260 N   0  0  0  0  0  0  0  0  0  0  0  0
   35.0930   28.4830   38.7230 C   0  0  0  0  0  0  0  0  0  0  0  0
   34.6830   29.1230   37.3960 C   0  0  0  0  0  0  0  0  0  0  0  0
   35.7370   29.0520   36.4700 O   0  0  0  0  0  0  0  0  0  0  0  0
   36.6890   29.9580   37.0070 C   0  0  0  0  0  0  0  0  0  0  0  0
   37.2450   29.4540   38.3000 C   0  0  2  0  0  0  0  0  0  0  0  0
   38.7080   29.2650   38.2970 C   0  0  0  0  0  0  0  0  0  0  0  0
   39.4840   28.7640   37.2810 C   0  0  0  0  0  0  0  0  0  0  0  0
   40.8530   28.6290   37.3140 C   0  0  0  0  0  0  0  0  0  0  0  0
   41.5370   29.0040   38.4090 N   0  0  0  0  0  0  0  0  0  0  0  0
   40.8020   29.4980   39.4210 C   0  0  0  0  0  0  0  0  0  0  0  0
   39.4700   29.6110   39.3450 N   0  0  0  0  0  0  0  0  0  0  0  0
   38.8069   27.1204   44.4562 H   0  0  0  0  0  0  0  0  0  0  0  0
   38.3387   25.6533   42.4828 H   0  0  0  0  0  0  0  0  0  0  0  0
   36.9027   30.3640   42.5057 H   0  0  0  0  0  0  0  0  0  0  0  0
   37.3103   24.6332   41.1788 H   0  0  0  0  0  0  0  0  0  0  0  0
   35.6364   25.0022   40.5476 H   0  0  0  0  0  0  0  0  0  0  0  0
   37.8054   23.5491   39.3161 H   0  0  0  0  0  0  0  0  0  0  0  0
   36.0506   23.7559   38.8343 H   0  0  0  0  0  0  0  0  0  0  0  0
   36.7760   26.6217   36.9039 H   0  0  0  0  0  0  0  0  0  0  0  0
   35.5518   25.9736   38.0250 H   0  0  0  0  0  0  0  0  0  0  0  0
   38.1528   27.3822   38.7422 H   0  0  0  0  0  0  0  0  0  0  0  0
   34.6887   27.4604   38.7523 H   0  0  0  0  0  0  0  0  0  0  0  0
   34.6896   29.1238   39.5210 H   0  0  0  0  0  0  0  0  0  0  0  0
   33.8094   28.5906   36.9918 H   0  0  0  0  0  0  0  0  0  0  0  0
   34.4344   30.1799   37.5722 H   0  0  0  0  0  0  0  0  0  0  0  0
   37.5113   30.0829   36.2872 H   0  0  0  0  0  0  0  0  0  0  0  0
   36.1882   30.9193   37.1942 H   0  0  0  0  0  0  0  0  0  0  0  0
   37.0923   30.2949   38.9925 H   0  0  0  0  0  0  0  0  0  0  0  0
   38.9680   28.4437   36.3638 H   0  0  0  0  0  0  0  0  0  0  0  0
   41.3868   28.2150   36.4459 H   0  0  0  0  0  0  0  0  0  0  0  0
   41.3117   29.8197   40.3412 H   0  0  0  0  0  0  0  0  0  0  0  0
  2  1  2  0
  3  4  2  0
  3  2  1  0
  4  5  1  0
  5  6  2  0
  6  1  1  0
  7  8  1  0
  7  3  1  0
  9  8  1  0
 10  9  1  0
 11 10  1  0
 11 12  1  0
 12  7  1  0
 13 14  1  0
 13 12  1  0
 15 14  1  0
 16 17  1  0
 16 15  1  0
 17 18  1  0
 18 13  1  0
 19 18  1  0
 19 24  2  0
 20 21  2  0
 20 19  1  0
 21 22  1  0
 22 23  2  0
 24 23  1  0
  1 25  1  0
  2 26  1  0
  5 27  1  0
  8 28  1  0
  8 29  1  0
  9 30  1  0
  9 31  1  0
 11 32  1  0
 11 33  1  0
 12 34  1  6
 14 35  1  0
 14 36  1  0
 15 37  1  0
 15 38  1  0
 17 39  1  0
 17 40  1  0
 18 41  1  1
 20 42  1  0
 21 43  1  0
 23 44  1  0
M  ISO  8  25  14  26  14  27  14  28  13  29  13  30  13  31  13  32  13
M  ISO  8  33  13  34  13  35  13  36  13  37  13  38  13  39  13  40  13
M  ISO  4  41  13  42  14  43  14  44  14
M  END
>  <minimizedAffinity>  (1) 
-4.56352377

>  <minimizedRMSD>  (1) 
0.55916512

$$$$
