
     RDKit          3D

 42 45  0  0  1  0  0  0  0  0999 V2000
   38.2540   27.4630   43.6210 C   0  0  0  0  0  0  0  0  0  0  0  0
   37.9880   26.6400   42.5160 C   0  0  0  0  0  0  0  0  0  0  0  0
   37.3510   27.1950   41.4010 C   0  0  0  0  0  0  0  0  0  0  0  0
   37.0280   28.5110   41.4670 N   0  0  0  0  0  0  0  0  0  0  0  0
   37.2900   29.2880   42.5360 C   0  0  0  0  0  0  0  0  0  0  0  0
   37.8960   28.7610   43.5930 N   0  0  0  0  0  0  0  0  0  0  0  0
   37.0500   26.4240   40.2500 N   0  0  0  0  0  0  0  0  0  0  0  0
   36.7080   25.0390   40.3790 C   0  0  0  0  0  0  0  0  0  0  0  0
   36.9480   24.2410   39.1210 C   0  0  0  0  0  0  0  0  0  0  0  0
   37.3380   25.0060   38.0280 O   0  0  0  0  0  0  0  0  0  0  0  0
   36.6130   26.1710   37.9210 C   0  0  0  0  0  0  0  0  0  0  0  0
   37.1090   27.1030   38.9810 C   0  0  1  0  0  0  0  0  0  0  0  0
   36.5280   28.3930   38.9490 N   0  0  0  0  0  0  0  0  0  0  0  0
   35.1240   28.4960   38.7450 C   0  0  0  0  0  0  0  0  0  0  0  0
   34.7310   29.1440   37.4180 C   0  0  0  0  0  0  0  0  0  0  0  0
   35.7910   29.0700   36.4980 O   0  0  0  0  0  0  0  0  0  0  0  0
   36.7360   29.9680   37.0560 C   0  0  0  0  0  0  0  0  0  0  0  0
   37.2780   29.4440   38.3420 C   0  0  2  0  0  0  0  0  0  0  0  0
   38.7430   29.2430   38.3080 C   0  0  0  0  0  0  0  0  0  0  0  0
   39.7400   29.4860   39.3840 C   0  0  0  0  0  0  0  0  0  0  0  0
   41.2800   29.0100   38.6820 S   0  0  0  0  0  0  0  0  0  0  0  0
   40.4660   28.5330   37.0340 C   0  0  0  0  0  0  0  0  0  0  0  0
   39.3460   28.7750   37.2520 N   0  0  0  0  0  0  0  0  0  0  0  0
   38.7542   27.0486   44.5087 H   0  0  0  0  0  0  0  0  0  0  0  0
   38.2750   25.5782   42.5263 H   0  0  0  0  0  0  0  0  0  0  0  0
   37.0042   30.3502   42.5330 H   0  0  0  0  0  0  0  0  0  0  0  0
   37.3136   24.6045   41.1880 H   0  0  0  0  0  0  0  0  0  0  0  0
   35.6301   24.9900   40.5930 H   0  0  0  0  0  0  0  0  0  0  0  0
   37.7380   23.5034   39.3256 H   0  0  0  0  0  0  0  0  0  0  0  0
   35.9884   23.7740   38.8544 H   0  0  0  0  0  0  0  0  0  0  0  0
   36.7629   26.6176   36.9270 H   0  0  0  0  0  0  0  0  0  0  0  0
   35.5383   25.9738   38.0479 H   0  0  0  0  0  0  0  0  0  0  0  0
   38.1621   27.3488   38.7795 H   0  0  0  0  0  0  0  0  0  0  0  0
   34.6956   27.4833   38.7749 H   0  0  0  0  0  0  0  0  0  0  0  0
   34.7350   29.1463   39.5424 H   0  0  0  0  0  0  0  0  0  0  0  0
   33.8565   28.6200   37.0048 H   0  0  0  0  0  0  0  0  0  0  0  0
   34.4907   30.2023   37.5977 H   0  0  0  0  0  0  0  0  0  0  0  0
   37.5648   30.1049   36.3458 H   0  0  0  0  0  0  0  0  0  0  0  0
   36.2339   30.9268   37.2527 H   0  0  0  0  0  0  0  0  0  0  0  0
   37.1196   30.2598   39.0626 H   0  0  0  0  0  0  0  0  0  0  0  0
   39.5550   29.8770   40.3954 H   0  0  0  0  0  0  0  0  0  0  0  0
   40.9275   28.1348   36.1183 H   0  0  0  0  0  0  0  0  0  0  0  0
  2  1  2  0
  3  4  2  0
  3  2  1  0
  4  5  1  0
  5  6  2  0
  6  1  1  0
  7  8  1  0
  7  3  1  0
  9  8  1  0
 10  9  1  0
 11 10  1  0
 11 12  1  0
 12  7  1  0
 13 14  1  0
 13 12  1  0
 15 14  1  0
 16 17  1  0
 16 15  1  0
 17 18  1  0
 18 13  1  0
 19 18  1  0
 19 20  2  0
 21 20  1  0
 22 23  2  0
 22 21  1  0
 23 19  1  0
  1 24  1  0
  2 25  1  0
  5 26  1  0
  8 27  1  0
  8 28  1  0
  9 29  1  0
  9 30  1  0
 11 31  1  0
 11 32  1  0
 12 33  1  6
 14 34  1  0
 14 35  1  0
 15 36  1  0
 15 37  1  0
 17 38  1  0
 17 39  1  0
 18 40  1  1
 20 41  1  0
 22 42  1  0
M  ISO  8  24  14  25  14  26  14  27  13  28  13  29  13  30  13  31  13
M  ISO  8  32  13  33  13  34  13  35  13  36  13  37  13  38  13  39  13
M  ISO  3  40  13  41  14  42  14
M  END
>  <minimizedAffinity>  (1) 
-4.46718407

>  <minimizedRMSD>  (1) 
0.367475659

$$$$
