
     RDKit          3D

 43 46  0  0  1  0  0  0  0  0999 V2000
   38.3090   27.4550   43.5760 C   0  0  0  0  0  0  0  0  0  0  0  0
   37.9920   26.6220   42.4910 C   0  0  0  0  0  0  0  0  0  0  0  0
   37.3080   27.1520   41.4000 C   0  0  0  0  0  0  0  0  0  0  0  0
   36.9930   28.4590   41.4650 N   0  0  0  0  0  0  0  0  0  0  0  0
   37.2960   29.2630   42.5060 C   0  0  0  0  0  0  0  0  0  0  0  0
   37.9500   28.7510   43.5500 N   0  0  0  0  0  0  0  0  0  0  0  0
   36.9550   26.3780   40.2750 N   0  0  0  0  0  0  0  0  0  0  0  0
   36.6010   24.9950   40.4190 C   0  0  0  0  0  0  0  0  0  0  0  0
   36.8440   24.1730   39.1780 C   0  0  0  0  0  0  0  0  0  0  0  0
   37.1740   24.9200   38.0570 O   0  0  0  0  0  0  0  0  0  0  0  0
   36.4730   26.0980   37.9610 C   0  0  0  0  0  0  0  0  0  0  0  0
   36.9700   27.0340   39.0030 C   0  0  1  0  0  0  0  0  0  0  0  0
   36.3900   28.3350   38.9620 N   0  0  0  0  0  0  0  0  0  0  0  0
   35.0090   28.4380   38.6940 C   0  0  0  0  0  0  0  0  0  0  0  0
   34.6880   29.1230   37.3680 C   0  0  0  0  0  0  0  0  0  0  0  0
   35.7800   29.0800   36.5080 O   0  0  0  0  0  0  0  0  0  0  0  0
   36.7260   29.9410   37.1170 C   0  0  0  0  0  0  0  0  0  0  0  0
   37.1980   29.3760   38.4310 C   0  0  2  0  0  0  0  0  0  0  0  0
   38.5870   28.9990   38.2240 N   0  0  0  0  0  0  0  0  0  0  0  0
   39.5580   28.9850   39.1260 N   0  0  0  0  0  0  0  0  0  0  0  0
   40.6900   28.5720   38.5100 C   0  0  0  0  0  0  0  0  0  0  0  0
   40.4060   28.3190   37.1640 C   0  0  0  0  0  0  0  0  0  0  0  0
   39.0780   28.6000   37.0250 C   0  0  0  0  0  0  0  0  0  0  0  0
   38.8490   27.0491   44.4441 H   0  0  0  0  0  0  0  0  0  0  0  0
   38.2813   25.5608   42.5027 H   0  0  0  0  0  0  0  0  0  0  0  0
   37.0080   30.3246   42.4937 H   0  0  0  0  0  0  0  0  0  0  0  0
   37.1959   24.5682   41.2399 H   0  0  0  0  0  0  0  0  0  0  0  0
   35.5202   24.9598   40.6205 H   0  0  0  0  0  0  0  0  0  0  0  0
   37.6692   23.4750   39.3826 H   0  0  0  0  0  0  0  0  0  0  0  0
   35.8986   23.6596   38.9487 H   0  0  0  0  0  0  0  0  0  0  0  0
   36.6245   26.5388   36.9647 H   0  0  0  0  0  0  0  0  0  0  0  0
   35.3995   25.9086   38.1083 H   0  0  0  0  0  0  0  0  0  0  0  0
   38.0193   27.2784   38.7813 H   0  0  0  0  0  0  0  0  0  0  0  0
   34.5833   27.4239   38.6724 H   0  0  0  0  0  0  0  0  0  0  0  0
   34.5738   29.0605   39.4897 H   0  0  0  0  0  0  0  0  0  0  0  0
   33.8372   28.6107   36.8951 H   0  0  0  0  0  0  0  0  0  0  0  0
   34.4407   30.1760   37.5682 H   0  0  0  0  0  0  0  0  0  0  0  0
   37.5890   30.0607   36.4455 H   0  0  0  0  0  0  0  0  0  0  0  0
   36.2473   30.9136   37.3039 H   0  0  0  0  0  0  0  0  0  0  0  0
   37.1078   30.1362   39.2209 H   0  0  0  0  0  0  0  0  0  0  0  0
   41.6730   28.4545   38.9895 H   0  0  0  0  0  0  0  0  0  0  0  0
   41.1017   27.9696   36.3868 H   0  0  0  0  0  0  0  0  0  0  0  0
   38.5003   28.5165   36.0926 H   0  0  0  0  0  0  0  0  0  0  0  0
  2  1  2  0
  3  4  2  0
  3  2  1  0
  4  5  1  0
  5  6  2  0
  6  1  1  0
  7  8  1  0
  7  3  1  0
  9  8  1  0
 10  9  1  0
 11 10  1  0
 11 12  1  0
 12  7  1  0
 13 14  1  0
 13 12  1  0
 15 14  1  0
 16 17  1  0
 16 15  1  0
 17 18  1  0
 18 13  1  0
 19 18  1  0
 19 20  1  0
 21 20  2  0
 22 21  1  0
 23 22  2  0
 23 19  1  0
  1 24  1  0
  2 25  1  0
  5 26  1  0
  8 27  1  0
  8 28  1  0
  9 29  1  0
  9 30  1  0
 11 31  1  0
 11 32  1  0
 12 33  1  6
 14 34  1  0
 14 35  1  0
 15 36  1  0
 15 37  1  0
 17 38  1  0
 17 39  1  0
 18 40  1  1
 21 41  1  0
 22 42  1  0
 23 43  1  0
M  ISO  8  24  14  25  14  26  14  27  13  28  13  29  13  30  13  31  13
M  ISO  8  32  13  33  13  34  13  35  13  36  13  37  13  38  13  39  13
M  ISO  4  40  13  41  14  42  14  43  14
M  END
>  <minimizedAffinity>  (1) 
-4.4417901

>  <minimizedRMSD>  (1) 
0.129961774

$$$$
