
     RDKit          3D

 36 38  0  0  1  0  0  0  0  0999 V2000
   40.0420   31.8970   40.4820 C   0  0  0  0  0  0  0  0  0  0  0  0
   39.6060   30.6950   41.1200 C   0  0  0  0  0  0  0  0  0  0  0  0
   38.2580   30.5160   41.3010 C   0  0  0  0  0  0  0  0  0  0  0  0
   37.4070   31.4770   40.8730 N   0  0  0  0  0  0  0  0  0  0  0  0
   37.8250   32.6080   40.2720 C   0  0  0  0  0  0  0  0  0  0  0  0
   39.1350   32.8210   40.0760 N   0  0  0  0  0  0  0  0  0  0  0  0
   36.8620   33.5800   39.8450 N   0  0  0  0  0  0  0  0  0  0  0  0
   37.7390   29.3540   41.9240 N   0  0  0  0  0  0  0  0  0  0  0  0
   38.1250   29.0240   43.2720 C   0  0  0  0  0  0  0  0  0  0  0  0
   37.0570   28.0740   43.8150 C   0  0  0  0  0  0  0  0  0  0  0  0
   36.9170   26.8770   43.0300 N   0  0  0  0  0  0  0  0  0  0  0  0
   37.1200   27.0430   41.6270 C   0  0  0  0  0  0  0  0  0  0  0  0
   36.8260   28.4860   41.2360 C   0  0  2  0  0  0  0  0  0  0  0  0
   36.7610   28.6700   39.8210 N   0  0  0  0  0  0  0  0  0  0  0  0
   37.8340   28.3640   39.0740 C   0  0  0  0  0  0  0  0  0  0  0  0
   37.8270   28.5230   37.6970 C   0  0  0  0  0  0  0  0  0  0  0  0
   36.7060   29.0050   37.0510 C   0  0  0  0  0  0  0  0  0  0  0  0
   36.6680   29.1620   35.7920 O   0  0  0  0  0  0  0  0  0  0  0  0
   35.6380   29.3080   37.8170 N   0  0  0  0  0  0  0  0  0  0  0  0
   35.6750   29.1420   39.1550 C   0  0  0  0  0  0  0  0  0  0  0  0
   34.6590   29.4350   39.8380 O   0  0  0  0  0  0  0  0  0  0  0  0
   41.1155   32.0737   40.3196 H   0  0  0  0  0  0  0  0  0  0  0  0
   40.3288   29.9368   41.4556 H   0  0  0  0  0  0  0  0  0  0  0  0
   37.1745   34.4469   39.3849 H   0  0  0  0  0  0  0  0  0  0  0  0
   35.8575   33.4116   39.9983 H   0  0  0  0  0  0  0  0  0  0  0  0
   39.1081   28.5305   43.2748 H   0  0  0  0  0  0  0  0  0  0  0  0
   38.2032   29.9281   43.8937 H   0  0  0  0  0  0  0  0  0  0  0  0
   37.3304   27.7896   44.8418 H   0  0  0  0  0  0  0  0  0  0  0  0
   36.0947   28.6057   43.7781 H   0  0  0  0  0  0  0  0  0  0  0  0
   37.6035   26.1895   43.3721 H   0  0  0  0  0  0  0  0  0  0  0  0
   38.1635   26.8011   41.3768 H   0  0  0  0  0  0  0  0  0  0  0  0
   36.4447   26.3705   41.0778 H   0  0  0  0  0  0  0  0  0  0  0  0
   35.8133   28.7620   41.5652 H   0  0  0  0  0  0  0  0  0  0  0  0
   38.7391   27.9784   39.5660 H   0  0  0  0  0  0  0  0  0  0  0  0
   38.7226   28.2628   37.1137 H   0  0  0  0  0  0  0  0  0  0  0  0
   34.7821   29.6713   37.3739 H   0  0  0  0  0  0  0  0  0  0  0  0
  1  2  2  0
  2  3  1  0
  3  8  1  0
  4  3  2  0
  5  4  1  0
  6  5  2  0
  6  1  1  0
  7  5  1  0
  8  9  1  0
  9 10  1  0
 11 10  1  0
 12 11  1  0
 13 12  1  0
 13  8  1  0
 14 13  1  0
 15 14  1  0
 16 15  2  0
 17 16  1  0
 17 19  1  0
 18 17  2  0
 19 20  1  0
 20 14  1  0
 20 21  2  0
  1 22  1  0
  2 23  1  0
  7 24  1  0
  7 25  1  0
  9 26  1  0
  9 27  1  0
 10 28  1  0
 10 29  1  0
 11 30  1  0
 12 31  1  0
 12 32  1  0
 13 33  1  1
 15 34  1  0
 16 35  1  0
 19 36  1  0
M  ISO  8  22  14  23  14  26  13  27  13  28  13  29  13  30   5  31  13
M  ISO  5  32  13  33  13  34  14  35  14  36   9
M  END
>  <minimizedAffinity>  (1) 
-5.63908577

>  <minimizedRMSD>  (1) 
1.34343445

$$$$
