
     RDKit          3D

 39 41  0  0  1  0  0  0  0  0999 V2000
   36.9610   29.7550   41.9110 C   0  0  2  0  0  0  0  0  0  0  0  0
   38.0270   29.4090   42.8750 C   0  0  0  0  0  0  0  0  0  0  0  0
   37.6510   28.2690   43.7810 C   0  0  0  0  0  0  0  0  0  0  0  0
   36.8090   27.2220   43.1570 C   0  0  0  0  0  0  0  0  0  0  0  0
   36.8520   27.2690   41.6570 C   0  0  0  0  0  0  0  0  0  0  0  0
   36.3650   28.5930   41.1560 C   0  0  2  0  0  0  0  0  0  0  0  0
   36.4500   28.7290   39.7330 N   0  0  0  0  0  0  0  0  0  0  0  0
   37.6110   28.5040   39.0820 C   0  0  0  0  0  0  0  0  0  0  0  0
   37.6340   28.6490   37.7140 C   0  0  0  0  0  0  0  0  0  0  0  0
   38.8600   28.4260   36.8870 C   0  0  0  0  0  0  0  0  0  0  0  0
   36.5270   29.0160   36.9760 C   0  0  0  0  0  0  0  0  0  0  0  0
   36.5250   29.1560   35.7180 O   0  0  0  0  0  0  0  0  0  0  0  0
   35.3710   29.2410   37.6330 N   0  0  0  0  0  0  0  0  0  0  0  0
   35.3630   29.0920   38.9870 C   0  0  0  0  0  0  0  0  0  0  0  0
   34.2860   29.2990   39.6170 O   0  0  0  0  0  0  0  0  0  0  0  0
   37.4700   30.7790   40.9800 C   0  0  0  0  0  0  0  0  0  0  0  0
   38.8570   30.7750   40.7880 C   0  0  0  0  0  0  0  0  0  0  0  0
   39.4310   31.7090   39.9190 C   0  0  0  0  0  0  0  0  0  0  0  0
   38.5810   32.5890   39.2970 N   0  0  0  0  0  0  0  0  0  0  0  0
   37.2440   32.5710   39.5000 C   0  0  0  0  0  0  0  0  0  0  0  0
   36.7060   31.6680   40.3380 N   0  0  0  0  0  0  0  0  0  0  0  0
   36.1233   30.1418   42.5098 H   0  0  0  0  0  0  0  0  0  0  0  0
   38.9300   29.1275   42.3134 H   0  0  0  0  0  0  0  0  0  0  0  0
   38.1970   30.2916   43.5091 H   0  0  0  0  0  0  0  0  0  0  0  0
   38.5783   27.7947   44.1347 H   0  0  0  0  0  0  0  0  0  0  0  0
   37.0469   28.7065   44.5895 H   0  0  0  0  0  0  0  0  0  0  0  0
   37.1670   26.2365   43.4896 H   0  0  0  0  0  0  0  0  0  0  0  0
   35.7689   27.4000   43.4676 H   0  0  0  0  0  0  0  0  0  0  0  0
   37.8876   27.1140   41.3202 H   0  0  0  0  0  0  0  0  0  0  0  0
   36.1994   26.4780   41.2591 H   0  0  0  0  0  0  0  0  0  0  0  0
   35.2874   28.6194   41.3751 H   0  0  0  0  0  0  0  0  0  0  0  0
   38.5174   28.2116   39.6324 H   0  0  0  0  0  0  0  0  0  0  0  0
   39.7248   28.2687   37.5484 H   0  0  0  0  0  0  0  0  0  0  0  0
   38.7177   27.5390   36.2522 H   0  0  0  0  0  0  0  0  0  0  0  0
   39.0392   29.3063   36.2522 H   0  0  0  0  0  0  0  0  0  0  0  0
   34.5185   29.5176   37.1255 H   0  0  0  0  0  0  0  0  0  0  0  0
   39.4888   30.0449   41.3151 H   0  0  0  0  0  0  0  0  0  0  0  0
   40.5163   31.7369   39.7419 H   0  0  0  0  0  0  0  0  0  0  0  0
   36.5980   33.2939   38.9803 H   0  0  0  0  0  0  0  0  0  0  0  0
  1  2  1  0
  2  3  1  0
  4  3  1  0
  5  4  1  0
  6  5  1  0
  6  1  1  0
  7  6  1  0
  8  7  1  0
  9  8  2  0
 10  9  1  0
 11 13  1  0
 11  9  1  0
 12 11  2  0
 13 14  1  0
 14 15  2  0
 14  7  1  0
 16  1  1  0
 17 16  2  0
 18 17  1  0
 19 20  1  0
 19 18  2  0
 20 21  2  0
 21 16  1  0
  1 22  1  1
  2 23  1  0
  2 24  1  0
  3 25  1  0
  3 26  1  0
  4 27  1  0
  4 28  1  0
  5 29  1  0
  5 30  1  0
  6 31  1  6
  8 32  1  0
 10 33  1  0
 10 34  1  0
 10 35  1  0
 13 36  1  0
 17 37  1  0
 18 38  1  0
 20 39  1  0
M  ISO  8  22  13  23  13  24  13  25  13  26  13  27  13  28  13  29  13
M  ISO  8  30  13  31  13  32  14  33   8  34   8  35   8  36   9  37  14
M  ISO  2  38  14  39  14
M  END
>  <minimizedAffinity>  (1) 
-5.51583958

>  <minimizedRMSD>  (1) 
0.9043082

$$$$
