
     RDKit          3D

 41 43  0  0  1  0  0  0  0  0999 V2000
   37.6000   29.5150   42.2210 C   0  0  2  0  0  0  0  0  0  0  0  0
   37.9420   29.0190   43.5740 C   0  0  0  0  0  0  0  0  0  0  0  0
   37.0430   27.9190   44.0430 C   0  0  0  0  0  0  0  0  0  0  0  0
   36.5970   26.9780   42.9840 C   0  0  0  0  0  0  0  0  0  0  0  0
   37.3560   27.0930   41.7190 C   0  0  0  0  0  0  0  0  0  0  0  0
   37.4640   28.4730   41.1570 C   0  0  1  0  0  0  0  0  0  0  0  0
   38.6140   30.5110   41.8140 C   0  0  0  0  0  0  0  0  0  0  0  0
   39.8820   30.3370   42.3900 C   0  0  0  0  0  0  0  0  0  0  0  0
   40.9110   31.2290   42.0660 C   0  0  0  0  0  0  0  0  0  0  0  0
   40.6110   32.2400   41.1860 N   0  0  0  0  0  0  0  0  0  0  0  0
   39.3820   32.3810   40.6470 C   0  0  0  0  0  0  0  0  0  0  0  0
   38.4020   31.5190   40.9650 N   0  0  0  0  0  0  0  0  0  0  0  0
   36.5480   28.8410   40.1680 N   0  0  0  0  0  0  0  0  0  0  0  0
   36.8470   28.4120   38.8350 C   0  0  0  0  0  0  0  0  0  0  0  0
   35.8230   27.3970   38.4260 C   0  0  0  0  0  0  0  0  0  0  0  0
   34.5270   28.1310   38.1690 C   0  0  0  0  0  0  0  0  0  0  0  0
   34.3210   29.1700   39.2110 C   0  0  0  0  0  0  0  0  0  0  0  0
   35.1830   29.0180   40.4490 C   0  0  0  0  0  0  0  0  0  0  0  0
   36.5941   29.9511   42.3102 H   0  0  0  0  0  0  0  0  0  0  0  0
   38.9755   28.6428   43.5576 H   0  0  0  0  0  0  0  0  0  0  0  0
   37.8198   29.8609   44.2714 H   0  0  0  0  0  0  0  0  0  0  0  0
   37.5817   27.3409   44.8083 H   0  0  0  0  0  0  0  0  0  0  0  0
   36.1335   28.4067   44.4237 H   0  0  0  0  0  0  0  0  0  0  0  0
   36.7099   25.9516   43.3632 H   0  0  0  0  0  0  0  0  0  0  0  0
   35.5518   27.2311   42.7525 H   0  0  0  0  0  0  0  0  0  0  0  0
   38.3749   26.7201   41.9000 H   0  0  0  0  0  0  0  0  0  0  0  0
   36.7950   26.5073   40.9759 H   0  0  0  0  0  0  0  0  0  0  0  0
   38.4076   28.4190   40.5941 H   0  0  0  0  0  0  0  0  0  0  0  0
   40.0654   29.5078   43.0892 H   0  0  0  0  0  0  0  0  0  0  0  0
   41.9173   31.1247   42.4979 H   0  0  0  0  0  0  0  0  0  0  0  0
   39.1820   33.2041   39.9452 H   0  0  0  0  0  0  0  0  0  0  0  0
   36.8116   29.2725   38.1507 H   0  0  0  0  0  0  0  0  0  0  0  0
   37.8540   27.9711   38.7959 H   0  0  0  0  0  0  0  0  0  0  0  0
   36.1502   26.8824   37.5105 H   0  0  0  0  0  0  0  0  0  0  0  0
   35.6894   26.6438   39.2164 H   0  0  0  0  0  0  0  0  0  0  0  0
   34.5686   28.6096   37.1795 H   0  0  0  0  0  0  0  0  0  0  0  0
   33.6923   27.4153   38.2002 H   0  0  0  0  0  0  0  0  0  0  0  0
   34.5385   30.1505   38.7624 H   0  0  0  0  0  0  0  0  0  0  0  0
   33.2792   29.0642   39.5478 H   0  0  0  0  0  0  0  0  0  0  0  0
   34.8284   28.1433   41.0139 H   0  0  0  0  0  0  0  0  0  0  0  0
   35.0911   29.9527   41.0217 H   0  0  0  0  0  0  0  0  0  0  0  0
  1  2  1  0
  2  3  1  0
  4  3  1  0
  5  4  1  0
  6  5  1  0
  6  1  1  0
  7  1  1  0
  7  8  2  0
  9  8  1  0
 10  9  2  0
 11 12  2  0
 11 10  1  0
 12  7  1  0
 13 18  1  0
 13  6  1  0
 14 13  1  0
 15 14  1  0
 16 15  1  0
 16 17  1  0
 17 18  1  0
  1 19  1  1
  2 20  1  0
  2 21  1  0
  3 22  1  0
  3 23  1  0
  4 24  1  0
  4 25  1  0
  5 26  1  0
  5 27  1  0
  6 28  1  6
  8 29  1  0
  9 30  1  0
 11 31  1  0
 14 32  1  0
 14 33  1  0
 15 34  1  0
 15 35  1  0
 16 36  1  0
 16 37  1  0
 17 38  1  0
 17 39  1  0
 18 40  1  0
 18 41  1  0
M  ISO  8  19  13  20  13  21  13  22  13  23  13  24  13  25  13  26  13
M  ISO  8  27  13  28  13  29  14  30  14  31  14  32  13  33  13  34  13
M  ISO  7  35  13  36  13  37  13  38  13  39  13  40  13  41  13
M  END
>  <minimizedAffinity>  (1) 
-5.1321497

>  <minimizedRMSD>  (1) 
1.72808099

$$$$
