
     RDKit          3D

 33 34  0  0  1  0  0  0  0  0999 V2000
   37.4240   29.7010   42.2560 C   0  0  2  0  0  0  0  0  0  0  0  0
   38.2920   29.0300   43.2430 C   0  0  0  0  0  0  0  0  0  0  0  0
   37.6430   27.9050   43.9970 C   0  0  0  0  0  0  0  0  0  0  0  0
   36.4760   27.2840   43.3180 C   0  0  0  0  0  0  0  0  0  0  0  0
   36.6300   27.3730   41.8250 C   0  0  0  0  0  0  0  0  0  0  0  0
   36.6210   28.7910   41.3560 C   0  0  1  0  0  0  0  0  0  0  0  0
   38.2450   30.6180   41.4310 C   0  0  0  0  0  0  0  0  0  0  0  0
   39.4660   30.9990   42.0110 C   0  0  0  0  0  0  0  0  0  0  0  0
   40.3170   31.8660   41.3150 C   0  0  0  0  0  0  0  0  0  0  0  0
   39.8890   32.2960   40.0830 N   0  0  0  0  0  0  0  0  0  0  0  0
   38.7090   31.9110   39.5500 C   0  0  0  0  0  0  0  0  0  0  0  0
   37.8830   31.0700   40.2240 N   0  0  0  0  0  0  0  0  0  0  0  0
   35.2840   29.3020   41.0940 N   0  0  0  0  0  0  0  0  0  0  0  0
   34.7930   29.3000   39.7520 C   0  0  0  0  0  0  0  0  0  0  0  0
   35.5990   29.3700   38.7530 N   0  0  0  0  0  0  0  0  0  0  0  0
   33.4020   29.2200   39.5250 N   0  0  0  0  0  0  0  0  0  0  0  0
   35.2780   29.3720   37.7470 H   0  0  0  0  0  0  0  0  0  0  0  0
   36.6723   30.2402   42.8512 H   0  0  0  0  0  0  0  0  0  0  0  0
   39.1650   28.6250   42.7103 H   0  0  0  0  0  0  0  0  0  0  0  0
   38.5528   29.7923   43.9920 H   0  0  0  0  0  0  0  0  0  0  0  0
   38.3989   27.1227   44.1599 H   0  0  0  0  0  0  0  0  0  0  0  0
   37.2585   28.3423   44.9302 H   0  0  0  0  0  0  0  0  0  0  0  0
   36.4056   26.2266   43.6127 H   0  0  0  0  0  0  0  0  0  0  0  0
   35.5630   27.8207   43.6152 H   0  0  0  0  0  0  0  0  0  0  0  0
   37.5837   26.9072   41.5359 H   0  0  0  0  0  0  0  0  0  0  0  0
   35.7813   26.8507   41.3593 H   0  0  0  0  0  0  0  0  0  0  0  0
   37.1305   28.7856   40.3811 H   0  0  0  0  0  0  0  0  0  0  0  0
   39.7512   30.6196   43.0033 H   0  0  0  0  0  0  0  0  0  0  0  0
   41.2817   32.1872   41.7347 H   0  0  0  0  0  0  0  0  0  0  0  0
   38.4137   32.2833   38.5579 H   0  0  0  0  0  0  0  0  0  0  0  0
   34.7006   29.6596   41.8638 H   0  0  0  0  0  0  0  0  0  0  0  0
   33.0366   29.2178   38.5620 H   0  0  0  0  0  0  0  0  0  0  0  0
   32.7524   29.1639   40.3224 H   0  0  0  0  0  0  0  0  0  0  0  0
  1  2  1  0
  2  3  1  0
  4  3  1  0
  5  4  1  0
  6  5  1  0
  6  1  1  0
  7  8  2  0
  7  1  1  0
  9  8  1  0
 10  9  2  0
 11 10  1  0
 11 12  2  0
 12  7  1  0
 13  6  1  0
 14 13  1  0
 15 14  2  0
 16 14  1  0
 17 15  1  0
  1 18  1  1
  2 19  1  0
  2 20  1  0
  3 21  1  0
  3 22  1  0
  4 23  1  0
  4 24  1  0
  5 25  1  0
  5 26  1  0
  6 27  1  6
  8 28  1  0
  9 29  1  0
 11 30  1  0
 13 31  1  0
 16 32  1  0
 16 33  1  0
M  ISO  8  18  13  19  13  20  13  21  13  22  13  23  13  24  13  25  13
M  ISO  5  26  13  27  13  28  14  29  14  30  14
M  END
>  <minimizedAffinity>  (1) 
-5.09963036

>  <minimizedRMSD>  (1) 
1.02921808

$$$$
