
     RDKit          3D

 34 36  0  0  1  0  0  0  0  0999 V2000
   36.9970   29.8220   41.9170 C   0  0  2  0  0  0  0  0  0  0  0  0
   38.0760   29.4220   42.8420 C   0  0  0  0  0  0  0  0  0  0  0  0
   37.7070   28.2780   43.7410 C   0  0  0  0  0  0  0  0  0  0  0  0
   36.8130   27.2610   43.1440 C   0  0  0  0  0  0  0  0  0  0  0  0
   36.7360   27.3510   41.6530 C   0  0  0  0  0  0  0  0  0  0  0  0
   36.3300   28.6980   41.1600 C   0  0  2  0  0  0  0  0  0  0  0  0
   37.5190   30.8370   40.9820 C   0  0  0  0  0  0  0  0  0  0  0  0
   38.9000   30.7880   40.7530 C   0  0  0  0  0  0  0  0  0  0  0  0
   39.4870   31.7100   39.8810 C   0  0  0  0  0  0  0  0  0  0  0  0
   38.6520   32.6250   39.2910 N   0  0  0  0  0  0  0  0  0  0  0  0
   37.3240   32.6530   39.5270 C   0  0  0  0  0  0  0  0  0  0  0  0
   36.7720   31.7610   40.3680 N   0  0  0  0  0  0  0  0  0  0  0  0
   36.3910   28.8030   39.7010 C   0  0  0  0  0  0  0  0  0  0  0  0
   35.3520   29.2270   38.8960 C   0  0  0  0  0  0  0  0  0  0  0  0
   35.3890   29.3240   37.5200 C   0  0  0  0  0  0  0  0  0  0  0  0
   36.5200   28.9850   36.8760 N   0  0  0  0  0  0  0  0  0  0  0  0
   37.5510   28.5680   37.6320 C   0  0  0  0  0  0  0  0  0  0  0  0
   37.5010   28.4780   38.9730 N   0  0  0  0  0  0  0  0  0  0  0  0
   36.1956   30.2298   42.5506 H   0  0  0  0  0  0  0  0  0  0  0  0
   38.9524   29.1269   42.2463 H   0  0  0  0  0  0  0  0  0  0  0  0
   38.2809   30.2869   43.4900 H   0  0  0  0  0  0  0  0  0  0  0  0
   38.6358   27.7747   44.0475 H   0  0  0  0  0  0  0  0  0  0  0  0
   37.1454   28.7201   44.5771 H   0  0  0  0  0  0  0  0  0  0  0  0
   37.1872   26.2629   43.4157 H   0  0  0  0  0  0  0  0  0  0  0  0
   35.8015   27.4422   43.5365 H   0  0  0  0  0  0  0  0  0  0  0  0
   37.7262   27.1120   41.2379 H   0  0  0  0  0  0  0  0  0  0  0  0
   35.9640   26.6395   41.3248 H   0  0  0  0  0  0  0  0  0  0  0  0
   35.2621   28.8219   41.3927 H   0  0  0  0  0  0  0  0  0  0  0  0
   39.5183   30.0296   41.2556 H   0  0  0  0  0  0  0  0  0  0  0  0
   40.5680   31.7021   39.6775 H   0  0  0  0  0  0  0  0  0  0  0  0
   36.6930   33.4055   39.0315 H   0  0  0  0  0  0  0  0  0  0  0  0
   34.4139   29.5120   39.3948 H   0  0  0  0  0  0  0  0  0  0  0  0
   34.5089   29.6725   36.9597 H   0  0  0  0  0  0  0  0  0  0  0  0
   38.4860   28.2852   37.1262 H   0  0  0  0  0  0  0  0  0  0  0  0
  1  2  1  0
  2  3  1  0
  4  3  1  0
  5  4  1  0
  6  5  1  0
  6  1  1  0
  7  1  1  0
  8  7  2  0
  9  8  1  0
 10 11  1  0
 10  9  2  0
 11 12  2  0
 12  7  1  0
 13  6  1  0
 14 13  2  0
 15 14  1  0
 16 15  2  0
 16 17  1  0
 17 18  2  0
 18 13  1  0
  1 19  1  1
  2 20  1  0
  2 21  1  0
  3 22  1  0
  3 23  1  0
  4 24  1  0
  4 25  1  0
  5 26  1  0
  5 27  1  0
  6 28  1  1
  8 29  1  0
  9 30  1  0
 11 31  1  0
 14 32  1  0
 15 33  1  0
 17 34  1  0
M  ISO  8  19  13  20  13  21  13  22  13  23  13  24  13  25  13  26  13
M  ISO  8  27  13  28  13  29  14  30  14  31  14  32  14  33  14  34  14
M  END
>  <minimizedAffinity>  (1) 
-5.0669179

>  <minimizedRMSD>  (1) 
0.364504486

$$$$
