
     RDKit          3D

 31 33  0  0  1  0  0  0  0  0999 V2000
   37.3990   30.3850   39.9200 C   0  0  2  0  0  0  0  0  0  0  0  0
   37.1040   30.1460   38.4970 C   0  0  0  0  0  0  0  0  0  0  0  0
   36.4120   28.8460   38.1980 C   0  0  0  0  0  0  0  0  0  0  0  0
   35.6170   28.2720   39.3040 C   0  0  0  0  0  0  0  0  0  0  0  0
   35.1580   29.3270   40.2660 C   0  0  0  0  0  0  0  0  0  0  0  0
   36.2980   30.0560   40.8960 C   0  0  1  0  0  0  0  0  0  0  0  0
   37.8200   31.7980   40.1030 C   0  0  0  0  0  0  0  0  0  0  0  0
   37.0580   32.7360   39.3890 C   0  0  0  0  0  0  0  0  0  0  0  0
   37.3800   34.0940   39.4830 C   0  0  0  0  0  0  0  0  0  0  0  0
   38.4400   34.4230   40.2880 N   0  0  0  0  0  0  0  0  0  0  0  0
   39.1540   33.5010   40.9640 C   0  0  0  0  0  0  0  0  0  0  0  0
   38.8470   32.1780   40.8760 N   0  0  0  0  0  0  0  0  0  0  0  0
   36.8760   29.1880   41.9540 C   0  0  0  0  0  0  0  0  0  0  0  0
   37.9430   29.3850   42.7360 N   0  0  0  0  0  0  0  0  0  0  0  0
   38.1190   28.3860   43.5360 O   0  0  0  0  0  0  0  0  0  0  0  0
   37.1860   27.4750   43.3350 C   0  0  0  0  0  0  0  0  0  0  0  0
   36.4280   27.9850   42.3570 N   0  0  0  0  0  0  0  0  0  0  0  0
   38.2037   29.6756   40.1633 H   0  0  0  0  0  0  0  0  0  0  0  0
   36.4608   30.9641   38.1405 H   0  0  0  0  0  0  0  0  0  0  0  0
   38.0773   30.0989   37.9866 H   0  0  0  0  0  0  0  0  0  0  0  0
   35.7356   29.0116   37.3465 H   0  0  0  0  0  0  0  0  0  0  0  0
   37.2135   28.1198   37.9975 H   0  0  0  0  0  0  0  0  0  0  0  0
   34.7356   27.7658   38.8835 H   0  0  0  0  0  0  0  0  0  0  0  0
   36.2556   27.5638   39.8524 H   0  0  0  0  0  0  0  0  0  0  0  0
   34.5317   30.0510   39.7242 H   0  0  0  0  0  0  0  0  0  0  0  0
   34.5943   28.8279   41.0679 H   0  0  0  0  0  0  0  0  0  0  0  0
   35.9037   31.0034   41.2921 H   0  0  0  0  0  0  0  0  0  0  0  0
   36.2163   32.4066   38.7620 H   0  0  0  0  0  0  0  0  0  0  0  0
   36.8104   34.8608   38.9375 H   0  0  0  0  0  0  0  0  0  0  0  0
   39.9958   33.8221   41.5951 H   0  0  0  0  0  0  0  0  0  0  0  0
   37.0597   26.5134   43.8541 H   0  0  0  0  0  0  0  0  0  0  0  0
  1  7  1  0
  1  6  1  0
  2  1  1  0
  3  2  1  0
  3  4  1  0
  4  5  1  0
  5  6  1  0
  6 13  1  0
  7 12  2  0
  8  9  2  0
  8  7  1  0
  9 10  1  0
 10 11  2  0
 12 11  1  0
 13 17  1  0
 13 14  2  0
 14 15  1  0
 16 15  1  0
 17 16  2  0
  1 18  1  1
  2 19  1  0
  2 20  1  0
  3 21  1  0
  3 22  1  0
  4 23  1  0
  4 24  1  0
  5 25  1  0
  5 26  1  0
  6 27  1  1
  8 28  1  0
  9 29  1  0
 11 30  1  0
 16 31  1  0
M  ISO  8  18  13  19  13  20  13  21  13  22  13  23  13  24  13  25  13
M  ISO  6  26  13  27  13  28  14  29  14  30  14  31  14
M  END
>  <minimizedAffinity>  (1) 
-5.02833796

>  <minimizedRMSD>  (1) 
3.57503223

$$$$
