
     RDKit          3D

 39 41  0  0  1  0  0  0  0  0999 V2000
   37.2370   30.1070   39.4780 C   0  0  2  0  0  0  0  0  0  0  0  0
   36.5590   30.4360   38.2070 C   0  0  0  0  0  0  0  0  0  0  0  0
   35.6030   29.3830   37.7320 C   0  0  0  0  0  0  0  0  0  0  0  0
   34.9260   28.6090   38.7900 C   0  0  0  0  0  0  0  0  0  0  0  0
   34.9830   29.2710   40.1250 C   0  0  0  0  0  0  0  0  0  0  0  0
   36.3320   29.6640   40.6010 C   0  0  1  0  0  0  0  0  0  0  0  0
   38.0190   31.2820   39.9180 C   0  0  0  0  0  0  0  0  0  0  0  0
   37.3790   32.5190   39.7400 C   0  0  0  0  0  0  0  0  0  0  0  0
   38.0400   33.7000   40.1210 C   0  0  0  0  0  0  0  0  0  0  0  0
   39.2960   33.5480   40.6530 N   0  0  0  0  0  0  0  0  0  0  0  0
   39.8830   32.3540   40.8140 C   0  0  0  0  0  0  0  0  0  0  0  0
   39.2510   31.2060   40.4480 N   0  0  0  0  0  0  0  0  0  0  0  0
   36.9610   28.7410   41.4910 N   0  0  0  0  0  0  0  0  0  0  0  0
   37.8160   27.7830   40.8740 C   0  0  0  0  0  0  0  0  0  0  0  0
   37.9140   26.5520   41.7690 C   0  0  0  0  0  0  0  0  0  0  0  0
   37.9810   26.9110   43.1090 O   0  0  0  0  0  0  0  0  0  0  0  0
   38.4080   28.2290   43.2830 C   0  0  0  0  0  0  0  0  0  0  0  0
   37.3710   29.2250   42.7520 C   0  0  0  0  0  0  0  0  0  0  0  0
   37.8737   29.2370   39.2595 H   0  0  0  0  0  0  0  0  0  0  0  0
   35.9995   31.3728   38.3465 H   0  0  0  0  0  0  0  0  0  0  0  0
   37.3443   30.5197   37.4413 H   0  0  0  0  0  0  0  0  0  0  0  0
   34.8287   29.8776   37.1272 H   0  0  0  0  0  0  0  0  0  0  0  0
   36.2107   28.6571   37.1719 H   0  0  0  0  0  0  0  0  0  0  0  0
   33.8707   28.4791   38.5082 H   0  0  0  0  0  0  0  0  0  0  0  0
   35.4496   27.6457   38.8784 H   0  0  0  0  0  0  0  0  0  0  0  0
   34.3657   30.1802   40.0760 H   0  0  0  0  0  0  0  0  0  0  0  0
   34.6233   28.5195   40.8433 H   0  0  0  0  0  0  0  0  0  0  0  0
   36.1451   30.5455   41.2319 H   0  0  0  0  0  0  0  0  0  0  0  0
   36.3691   32.5637   39.3062 H   0  0  0  0  0  0  0  0  0  0  0  0
   37.5765   34.6902   39.9995 H   0  0  0  0  0  0  0  0  0  0  0  0
   40.8919   32.3013   41.2490 H   0  0  0  0  0  0  0  0  0  0  0  0
   37.4021   27.4955   39.8962 H   0  0  0  0  0  0  0  0  0  0  0  0
   38.8164   28.2173   40.7303 H   0  0  0  0  0  0  0  0  0  0  0  0
   37.0270   25.9211   41.6102 H   0  0  0  0  0  0  0  0  0  0  0  0
   38.8311   26.0033   41.5085 H   0  0  0  0  0  0  0  0  0  0  0  0
   38.5676   28.4154   44.3553 H   0  0  0  0  0  0  0  0  0  0  0  0
   39.3430   28.3682   42.7205 H   0  0  0  0  0  0  0  0  0  0  0  0
   37.8211   30.2233   42.6481 H   0  0  0  0  0  0  0  0  0  0  0  0
   36.5177   29.3163   43.4402 H   0  0  0  0  0  0  0  0  0  0  0  0
  1  7  1  0
  1  6  1  0
  2  1  1  0
  3  2  1  0
  3  4  1  0
  4  5  1  0
  5  6  1  0
  6 13  1  0
  7 12  1  0
  8  7  2  0
  8  9  1  0
  9 10  2  0
 10 11  1  0
 12 11  2  0
 13 18  1  0
 14 13  1  0
 14 15  1  0
 15 16  1  0
 16 17  1  0
 18 17  1  0
  1 19  1  6
  2 20  1  0
  2 21  1  0
  3 22  1  0
  3 23  1  0
  4 24  1  0
  4 25  1  0
  5 26  1  0
  5 27  1  0
  6 28  1  1
  8 29  1  0
  9 30  1  0
 11 31  1  0
 14 32  1  0
 14 33  1  0
 15 34  1  0
 15 35  1  0
 17 36  1  0
 17 37  1  0
 18 38  1  0
 18 39  1  0
M  ISO  8  19  13  20  13  21  13  22  13  23  13  24  13  25  13  26  13
M  ISO  8  27  13  28  13  29  14  30  14  31  14  32  13  33  13  34  13
M  ISO  5  35  13  36  13  37  13  38  13  39  13
M  END
>  <minimizedAffinity>  (1) 
-5.027987

>  <minimizedRMSD>  (1) 
4.09561062

$$$$
