
     RDKit          3D

 35 37  0  0  1  0  0  0  0  0999 V2000
   39.9840   31.8680   40.1010 C   0  0  0  0  0  0  0  0  0  0  0  0
   39.5740   30.7160   40.8220 C   0  0  0  0  0  0  0  0  0  0  0  0
   38.2510   30.5900   41.1650 C   0  0  0  0  0  0  0  0  0  0  0  0
   37.4010   31.5780   40.7960 N   0  0  0  0  0  0  0  0  0  0  0  0
   37.7970   32.6720   40.1100 C   0  0  0  0  0  0  0  0  0  0  0  0
   39.0810   32.8230   39.7600 N   0  0  0  0  0  0  0  0  0  0  0  0
   36.8440   33.6730   39.7590 N   0  0  0  0  0  0  0  0  0  0  0  0
   37.7610   29.4790   41.8800 N   0  0  0  0  0  0  0  0  0  0  0  0
   38.3100   29.1740   43.1790 C   0  0  0  0  0  0  0  0  0  0  0  0
   37.2510   28.3280   43.9100 C   0  0  0  0  0  0  0  0  0  0  0  0
   36.9410   27.1180   43.2050 N   0  0  0  0  0  0  0  0  0  0  0  0
   36.9710   27.2040   41.7820 C   0  0  0  0  0  0  0  0  0  0  0  0
   36.7270   28.6460   41.3480 C   0  0  2  0  0  0  0  0  0  0  0  0
   36.4640   28.7610   39.9210 C   0  0  0  0  0  0  0  0  0  0  0  0
   35.2950   29.2020   39.3400 C   0  0  0  0  0  0  0  0  0  0  0  0
   35.0320   29.3110   37.9910 C   0  0  0  0  0  0  0  0  0  0  0  0
   36.0350   28.9420   37.1210 C   0  0  0  0  0  0  0  0  0  0  0  0
   37.2150   28.4970   37.6770 C   0  0  0  0  0  0  0  0  0  0  0  0
   37.4130   28.4120   39.0030 N   0  0  0  0  0  0  0  0  0  0  0  0
   41.0399   31.9878   39.8168 H   0  0  0  0  0  0  0  0  0  0  0  0
   40.3021   29.9398   41.1003 H   0  0  0  0  0  0  0  0  0  0  0  0
   37.1434   34.5082   39.2359 H   0  0  0  0  0  0  0  0  0  0  0  0
   35.8563   33.5608   40.0286 H   0  0  0  0  0  0  0  0  0  0  0  0
   39.2451   28.6045   43.0728 H   0  0  0  0  0  0  0  0  0  0  0  0
   38.5438   30.0915   43.7389 H   0  0  0  0  0  0  0  0  0  0  0  0
   37.6330   28.0681   44.9083 H   0  0  0  0  0  0  0  0  0  0  0  0
   36.3295   28.9251   43.9761 H   0  0  0  0  0  0  0  0  0  0  0  0
   37.6224   26.4012   43.4927 H   0  0  0  0  0  0  0  0  0  0  0  0
   37.9545   26.8737   41.4165 H   0  0  0  0  0  0  0  0  0  0  0  0
   36.1849   26.5595   41.3618 H   0  0  0  0  0  0  0  0  0  0  0  0
   35.7894   29.0251   41.7806 H   0  0  0  0  0  0  0  0  0  0  0  0
   34.4865   29.4983   40.0245 H   0  0  0  0  0  0  0  0  0  0  0  0
   34.0618   29.6773   37.6244 H   0  0  0  0  0  0  0  0  0  0  0  0
   35.8998   29.0001   36.0309 H   0  0  0  0  0  0  0  0  0  0  0  0
   38.0321   28.1977   37.0041 H   0  0  0  0  0  0  0  0  0  0  0  0
  1  2  2  0
  2  3  1  0
  3  8  1  0
  4  3  2  0
  5  4  1  0
  6  1  1  0
  6  5  2  0
  7  5  1  0
  8  9  1  0
  9 10  1  0
 11 10  1  0
 12 11  1  0
 13 12  1  0
 13  8  1  0
 14 13  1  0
 15 14  2  0
 16 15  1  0
 17 18  1  0
 17 16  2  0
 18 19  2  0
 19 14  1  0
  1 20  1  0
  2 21  1  0
  7 22  1  0
  7 23  1  0
  9 24  1  0
  9 25  1  0
 10 26  1  0
 10 27  1  0
 11 28  1  0
 12 29  1  0
 12 30  1  0
 13 31  1  1
 15 32  1  0
 16 33  1  0
 17 34  1  0
 18 35  1  0
M  ISO  8  20  14  21  14  24  13  25  13  26  13  27  13  28   5  29  13
M  ISO  6  30  13  31  13  32  14  33  14  34  14  35  14
M  END
>  <minimizedAffinity>  (1) 
-5.53744268

>  <minimizedRMSD>  (1) 
1.25399125

$$$$
