
     RDKit          3D

 32 34  0  0  1  0  0  0  0  0999 V2000
   37.0720   29.8270   41.9230 C   0  0  2  0  0  0  0  0  0  0  0  0
   38.0740   29.3910   42.9200 C   0  0  0  0  0  0  0  0  0  0  0  0
   37.5820   28.3000   43.8290 C   0  0  0  0  0  0  0  0  0  0  0  0
   36.6370   27.3380   43.2080 C   0  0  0  0  0  0  0  0  0  0  0  0
   36.6870   27.3680   41.7090 C   0  0  0  0  0  0  0  0  0  0  0  0
   36.3630   28.7290   41.1770 C   0  0  2  0  0  0  0  0  0  0  0  0
   37.7070   30.7730   40.9800 C   0  0  0  0  0  0  0  0  0  0  0  0
   36.8650   31.7850   40.4990 C   0  0  0  0  0  0  0  0  0  0  0  0
   37.3700   32.7300   39.5990 C   0  0  0  0  0  0  0  0  0  0  0  0
   38.6890   32.5980   39.2410 N   0  0  0  0  0  0  0  0  0  0  0  0
   39.4750   31.6230   39.7140 C   0  0  0  0  0  0  0  0  0  0  0  0
   38.9840   30.7010   40.5900 N   0  0  0  0  0  0  0  0  0  0  0  0
   36.5370   28.7900   39.7010 C   0  0  0  0  0  0  0  0  0  0  0  0
   35.4200   29.2360   38.9170 C   0  0  0  0  0  0  0  0  0  0  0  0
   36.0520   29.1530   37.2150 S   0  0  0  0  0  0  0  0  0  0  0  0
   37.7390   28.5210   37.8270 C   0  0  0  0  0  0  0  0  0  0  0  0
   37.5660   28.4940   38.9340 N   0  0  0  0  0  0  0  0  0  0  0  0
   36.2716   30.3115   42.5014 H   0  0  0  0  0  0  0  0  0  0  0  0
   38.9612   29.0233   42.3837 H   0  0  0  0  0  0  0  0  0  0  0  0
   38.2994   30.2617   43.5533 H   0  0  0  0  0  0  0  0  0  0  0  0
   38.4556   27.7357   44.1872 H   0  0  0  0  0  0  0  0  0  0  0  0
   37.0230   28.8013   44.6328 H   0  0  0  0  0  0  0  0  0  0  0  0
   36.8917   26.3237   43.5490 H   0  0  0  0  0  0  0  0  0  0  0  0
   35.6200   27.6247   43.5137 H   0  0  0  0  0  0  0  0  0  0  0  0
   37.6980   27.0866   41.3793 H   0  0  0  0  0  0  0  0  0  0  0  0
   35.9386   26.6596   41.3242 H   0  0  0  0  0  0  0  0  0  0  0  0
   35.2948   28.9131   41.3644 H   0  0  0  0  0  0  0  0  0  0  0  0
   35.8160   31.8359   40.8262 H   0  0  0  0  0  0  0  0  0  0  0  0
   36.7413   33.5387   39.1981 H   0  0  0  0  0  0  0  0  0  0  0  0
   40.5256   31.5653   39.3932 H   0  0  0  0  0  0  0  0  0  0  0  0
   34.4243   29.5512   39.2623 H   0  0  0  0  0  0  0  0  0  0  0  0
   38.6381   28.2549   37.2518 H   0  0  0  0  0  0  0  0  0  0  0  0
  1  2  1  0
  2  3  1  0
  4  3  1  0
  5  4  1  0
  6  5  1  0
  6  1  1  0
  7  1  1  0
  8  7  2  0
  9  8  1  0
 10  9  2  0
 10 11  1  0
 11 12  2  0
 12  7  1  0
 13  6  1  0
 14 13  2  0
 15 16  1  0
 15 14  1  0
 16 17  2  0
 17 13  1  0
  1 18  1  1
  2 19  1  0
  2 20  1  0
  3 21  1  0
  3 22  1  0
  4 23  1  0
  4 24  1  0
  5 25  1  0
  5 26  1  0
  6 27  1  6
  8 28  1  0
  9 29  1  0
 11 30  1  0
 14 31  1  0
 16 32  1  0
M  ISO  8  18  13  19  13  20  13  21  13  22  13  23  13  24  13  25  13
M  ISO  7  26  13  27  13  28  14  29  14  30  14  31  14  32  14
M  END
>  <minimizedAffinity>  (1) 
-4.87561083

>  <minimizedRMSD>  (1) 
1.3064276

$$$$
