
     RDKit          3D

 32 34  0  0  1  0  0  0  0  0999 V2000
   37.4530   29.3800   42.3450 C   0  0  2  0  0  0  0  0  0  0  0  0
   37.7600   29.0630   43.7540 C   0  0  0  0  0  0  0  0  0  0  0  0
   36.8960   27.9800   44.3370 C   0  0  0  0  0  0  0  0  0  0  0  0
   36.4200   26.9610   43.3830 C   0  0  0  0  0  0  0  0  0  0  0  0
   37.2670   26.9050   42.1450 C   0  0  0  0  0  0  0  0  0  0  0  0
   37.3520   28.1970   41.4150 C   0  0  1  0  0  0  0  0  0  0  0  0
   38.4580   30.3370   41.8280 C   0  0  0  0  0  0  0  0  0  0  0  0
   39.6720   30.3450   42.5350 C   0  0  0  0  0  0  0  0  0  0  0  0
   40.6950   31.2100   42.1450 C   0  0  0  0  0  0  0  0  0  0  0  0
   40.4400   32.0190   41.0650 N   0  0  0  0  0  0  0  0  0  0  0  0
   39.2650   31.9900   40.4040 C   0  0  0  0  0  0  0  0  0  0  0  0
   38.2630   31.1460   40.7820 N   0  0  0  0  0  0  0  0  0  0  0  0
   36.3130   28.4080   40.4290 N   0  0  0  0  0  0  0  0  0  0  0  0
   36.2280   27.9720   39.1570 C   0  0  0  0  0  0  0  0  0  0  0  0
   35.0740   28.4160   38.6110 N   0  0  0  0  0  0  0  0  0  0  0  0
   34.4600   29.1290   39.5710 C   0  0  0  0  0  0  0  0  0  0  0  0
   35.2090   29.1260   40.6760 N   0  0  0  0  0  0  0  0  0  0  0  0
   36.4428   29.8150   42.3591 H   0  0  0  0  0  0  0  0  0  0  0  0
   38.8095   28.7394   43.8154 H   0  0  0  0  0  0  0  0  0  0  0  0
   37.5645   29.9755   44.3364 H   0  0  0  0  0  0  0  0  0  0  0  0
   37.4770   27.4673   45.1178 H   0  0  0  0  0  0  0  0  0  0  0  0
   35.9938   28.4848   44.7128 H   0  0  0  0  0  0  0  0  0  0  0  0
   36.4445   25.9770   43.8740 H   0  0  0  0  0  0  0  0  0  0  0  0
   35.3975   27.2319   43.0811 H   0  0  0  0  0  0  0  0  0  0  0  0
   38.2844   26.6032   42.4346 H   0  0  0  0  0  0  0  0  0  0  0  0
   36.7906   26.1841   41.4643 H   0  0  0  0  0  0  0  0  0  0  0  0
   38.2915   28.1162   40.8486 H   0  0  0  0  0  0  0  0  0  0  0  0
   39.8155   29.6717   43.3930 H   0  0  0  0  0  0  0  0  0  0  0  0
   41.6577   31.2423   42.6761 H   0  0  0  0  0  0  0  0  0  0  0  0
   39.1121   32.6592   39.5445 H   0  0  0  0  0  0  0  0  0  0  0  0
   36.9787   27.3528   38.6441 H   0  0  0  0  0  0  0  0  0  0  0  0
   33.4901   29.6366   39.4628 H   0  0  0  0  0  0  0  0  0  0  0  0
  1  2  1  0
  2  3  1  0
  4  3  1  0
  5  4  1  0
  6  5  1  0
  6  1  1  0
  7  1  1  0
  7  8  2  0
  9  8  1  0
 10  9  2  0
 11 12  2  0
 11 10  1  0
 12  7  1  0
 13 17  1  0
 13  6  1  0
 14 13  1  0
 15 14  2  0
 15 16  1  0
 16 17  2  0
  1 18  1  1
  2 19  1  0
  2 20  1  0
  3 21  1  0
  3 22  1  0
  4 23  1  0
  4 24  1  0
  5 25  1  0
  5 26  1  0
  6 27  1  6
  8 28  1  0
  9 29  1  0
 11 30  1  0
 14 31  1  0
 16 32  1  0
M  ISO  8  18  13  19  13  20  13  21  13  22  13  23  13  24  13  25  13
M  ISO  7  26  13  27  13  28  14  29  14  30  14  31  14  32  14
M  END
>  <minimizedAffinity>  (1) 
-4.83883429

>  <minimizedRMSD>  (1) 
1.84669697

$$$$
