
     RDKit          3D

 33 35  0  0  1  0  0  0  0  0999 V2000
   37.0610   29.8720   41.9300 C   0  0  2  0  0  0  0  0  0  0  0  0
   38.1040   29.4100   42.8650 C   0  0  0  0  0  0  0  0  0  0  0  0
   37.7060   28.2210   43.6970 C   0  0  0  0  0  0  0  0  0  0  0  0
   36.7520   27.2900   43.0650 C   0  0  0  0  0  0  0  0  0  0  0  0
   36.7300   27.4220   41.5690 C   0  0  0  0  0  0  0  0  0  0  0  0
   36.3640   28.8040   41.1280 C   0  0  2  0  0  0  0  0  0  0  0  0
   37.6460   30.8970   41.0270 C   0  0  0  0  0  0  0  0  0  0  0  0
   39.0170   30.7430   40.7670 C   0  0  0  0  0  0  0  0  0  0  0  0
   39.6570   31.6630   39.9270 C   0  0  0  0  0  0  0  0  0  0  0  0
   38.8800   32.6680   39.4090 N   0  0  0  0  0  0  0  0  0  0  0  0
   37.5720   32.7920   39.6740 C   0  0  0  0  0  0  0  0  0  0  0  0
   36.9500   31.9040   40.4860 N   0  0  0  0  0  0  0  0  0  0  0  0
   36.5440   28.9540   39.7080 N   0  0  0  0  0  0  0  0  0  0  0  0
   35.7010   29.5620   38.8200 C   0  0  0  0  0  0  0  0  0  0  0  0
   36.1860   29.5240   37.5340 C   0  0  0  0  0  0  0  0  0  0  0  0
   37.3680   28.8720   37.6260 N   0  0  0  0  0  0  0  0  0  0  0  0
   37.5620   28.5430   38.9210 C   0  0  0  0  0  0  0  0  0  0  0  0
   36.2630   30.2876   42.5628 H   0  0  0  0  0  0  0  0  0  0  0  0
   38.9954   29.1387   42.2803 H   0  0  0  0  0  0  0  0  0  0  0  0
   38.2885   30.2377   43.5657 H   0  0  0  0  0  0  0  0  0  0  0  0
   38.6188   27.6570   43.9394 H   0  0  0  0  0  0  0  0  0  0  0  0
   37.1883   28.6300   44.5772 H   0  0  0  0  0  0  0  0  0  0  0  0
   37.0384   26.2602   43.3247 H   0  0  0  0  0  0  0  0  0  0  0  0
   35.7467   27.5347   43.4384 H   0  0  0  0  0  0  0  0  0  0  0  0
   37.7286   27.1782   41.1773 H   0  0  0  0  0  0  0  0  0  0  0  0
   35.9674   26.7310   41.1806 H   0  0  0  0  0  0  0  0  0  0  0  0
   35.2927   28.9463   41.3333 H   0  0  0  0  0  0  0  0  0  0  0  0
   39.5803   29.9119   41.2164 H   0  0  0  0  0  0  0  0  0  0  0  0
   40.7292   31.5837   39.6942 H   0  0  0  0  0  0  0  0  0  0  0  0
   37.0002   33.6199   39.2294 H   0  0  0  0  0  0  0  0  0  0  0  0
   34.7451   30.0278   39.1018 H   0  0  0  0  0  0  0  0  0  0  0  0
   35.7157   29.9341   36.6281 H   0  0  0  0  0  0  0  0  0  0  0  0
   38.4458   28.0033   39.2919 H   0  0  0  0  0  0  0  0  0  0  0  0
  1  2  1  0
  2  3  1  0
  4  3  1  0
  5  4  1  0
  6  5  1  0
  6  1  1  0
  7  1  1  0
  8  7  2  0
  9  8  1  0
 10 11  1  0
 10  9  2  0
 11 12  2  0
 12  7  1  0
 13  6  1  0
 14 13  1  0
 15 16  1  0
 15 14  2  0
 16 17  2  0
 17 13  1  0
  1 18  1  1
  2 19  1  0
  2 20  1  0
  3 21  1  0
  3 22  1  0
  4 23  1  0
  4 24  1  0
  5 25  1  0
  5 26  1  0
  6 27  1  6
  8 28  1  0
  9 29  1  0
 11 30  1  0
 14 31  1  0
 15 32  1  0
 17 33  1  0
M  ISO  8  18  13  19  13  20  13  21  13  22  13  23  13  24  13  25  13
M  ISO  8  26  13  27  13  28  14  29  14  30  14  31  14  32  14  33  14
M  END
>  <minimizedAffinity>  (1) 
-4.72953415

>  <minimizedRMSD>  (1) 
0.387090415

$$$$
