
     RDKit          3D

 27 28  0  0  1  0  0  0  0  0999 V2000
   37.0090   29.9250   41.9120 C   0  0  2  0  0  0  0  0  0  0  0  0
   38.0960   29.4600   42.7910 C   0  0  0  0  0  0  0  0  0  0  0  0
   37.7840   28.2150   43.5730 C   0  0  0  0  0  0  0  0  0  0  0  0
   36.7140   27.3610   43.0000 C   0  0  0  0  0  0  0  0  0  0  0  0
   36.6880   27.4840   41.5020 C   0  0  0  0  0  0  0  0  0  0  0  0
   36.3230   28.8680   41.0800 C   0  0  1  0  0  0  0  0  0  0  0  0
   37.5180   31.0060   41.0330 C   0  0  0  0  0  0  0  0  0  0  0  0
   38.8740   31.3170   41.2190 C   0  0  0  0  0  0  0  0  0  0  0  0
   39.4520   32.3250   40.4370 C   0  0  0  0  0  0  0  0  0  0  0  0
   38.6350   32.9470   39.5260 N   0  0  0  0  0  0  0  0  0  0  0  0
   37.3370   32.6250   39.3710 C   0  0  0  0  0  0  0  0  0  0  0  0
   36.7760   31.6510   40.1280 N   0  0  0  0  0  0  0  0  0  0  0  0
   34.9280   29.0560   41.0430 O   0  0  0  0  0  0  0  0  0  0  0  0
   36.2255   30.2836   42.5958 H   0  0  0  0  0  0  0  0  0  0  0  0
   38.9793   29.2598   42.1667 H   0  0  0  0  0  0  0  0  0  0  0  0
   38.2596   30.2578   43.5304 H   0  0  0  0  0  0  0  0  0  0  0  0
   38.7027   27.6133   43.6358 H   0  0  0  0  0  0  0  0  0  0  0  0
   37.4132   28.5538   44.5516 H   0  0  0  0  0  0  0  0  0  0  0  0
   36.9021   26.3124   43.2739 H   0  0  0  0  0  0  0  0  0  0  0  0
   35.7437   27.6894   43.4009 H   0  0  0  0  0  0  0  0  0  0  0  0
   37.6839   27.2387   41.1046 H   0  0  0  0  0  0  0  0  0  0  0  0
   35.9313   26.7892   41.1087 H   0  0  0  0  0  0  0  0  0  0  0  0
   36.6946   28.9876   40.0516 H   0  0  0  0  0  0  0  0  0  0  0  0
   39.4733   30.7775   41.9672 H   0  0  0  0  0  0  0  0  0  0  0  0
   40.5100   32.6048   40.5476 H   0  0  0  0  0  0  0  0  0  0  0  0
   36.7277   33.1561   38.6249 H   0  0  0  0  0  0  0  0  0  0  0  0
   34.5768   29.1033   41.9674 H   0  0  0  0  0  0  0  0  0  0  0  0
  1  2  1  0
  2  3  1  0
  4  3  1  0
  5  4  1  0
  6  5  1  0
  6  1  1  0
  7  8  2  0
  7  1  1  0
  9  8  1  0
 10  9  2  0
 11 10  1  0
 11 12  2  0
 12  7  1  0
 13  6  1  0
  1 14  1  1
  2 15  1  0
  2 16  1  0
  3 17  1  0
  3 18  1  0
  4 19  1  0
  4 20  1  0
  5 21  1  0
  5 22  1  0
  6 23  1  6
  8 24  1  0
  9 25  1  0
 11 26  1  0
 13 27  1  0
M  ISO  8  14  13  15  13  16  13  17  13  18  13  19  13  20  13  21  13
M  ISO  6  22  13  23  13  24  14  25  14  26  14  27   3
M  END
>  <minimizedAffinity>  (1) 
-4.59570169

>  <minimizedRMSD>  (1) 
0.480794609

$$$$
