
     RDKit          3D

 41 43  0  0  1  0  0  0  0  0999 V2000
   40.0440   31.9120   40.6860 C   0  0  0  0  0  0  0  0  0  0  0  0
   39.5920   30.6990   41.2610 C   0  0  0  0  0  0  0  0  0  0  0  0
   38.2390   30.4910   41.3530 C   0  0  0  0  0  0  0  0  0  0  0  0
   37.3770   31.4510   40.8920 N   0  0  0  0  0  0  0  0  0  0  0  0
   37.8380   32.6010   40.3470 C   0  0  0  0  0  0  0  0  0  0  0  0
   39.1560   32.8370   40.2410 N   0  0  0  0  0  0  0  0  0  0  0  0
   36.8870   33.5650   39.8830 N   0  0  0  0  0  0  0  0  0  0  0  0
   37.7050   29.3040   41.9160 N   0  0  0  0  0  0  0  0  0  0  0  0
   38.0160   28.9520   43.2710 C   0  0  0  0  0  0  0  0  0  0  0  0
   36.9280   27.9820   43.7430 C   0  0  0  0  0  0  0  0  0  0  0  0
   36.8580   26.7990   42.9360 N   0  0  0  0  0  0  0  0  0  0  0  0
   37.0850   27.0010   41.5460 C   0  0  0  0  0  0  0  0  0  0  0  0
   36.8570   28.4410   41.1610 C   0  0  2  0  0  0  0  0  0  0  0  0
   36.7790   28.6580   39.7580 N   0  0  0  0  0  0  0  0  0  0  0  0
   36.0570   29.8080   39.3220 C   0  0  0  0  0  0  0  0  0  0  0  0
   35.9030   29.6870   37.8050 C   0  0  0  0  0  0  0  0  0  0  0  0
   37.2690   29.6090   37.1480 C   0  0  0  0  0  0  0  0  0  0  0  0
   38.0830   28.4850   37.7670 C   0  0  0  0  0  0  0  0  0  0  0  0
   38.1410   28.7750   39.2610 C   0  0  0  0  0  0  0  0  0  0  0  0
   41.1233   32.1059   40.5994 H   0  0  0  0  0  0  0  0  0  0  0  0
   40.3059   29.9448   41.6237 H   0  0  0  0  0  0  0  0  0  0  0  0
   37.2115   34.4483   39.4642 H   0  0  0  0  0  0  0  0  0  0  0  0
   35.8782   33.3754   39.9679 H   0  0  0  0  0  0  0  0  0  0  0  0
   39.0017   28.4660   43.3183 H   0  0  0  0  0  0  0  0  0  0  0  0
   38.0493   29.8460   43.9110 H   0  0  0  0  0  0  0  0  0  0  0  0
   37.1435   27.6885   44.7810 H   0  0  0  0  0  0  0  0  0  0  0  0
   35.9609   28.4997   43.6610 H   0  0  0  0  0  0  0  0  0  0  0  0
   37.5656   26.1350   43.2815 H   0  0  0  0  0  0  0  0  0  0  0  0
   38.1231   26.7258   41.3080 H   0  0  0  0  0  0  0  0  0  0  0  0
   36.3790   26.3733   40.9824 H   0  0  0  0  0  0  0  0  0  0  0  0
   35.8387   28.7316   41.4588 H   0  0  0  0  0  0  0  0  0  0  0  0
   35.0675   29.8377   39.8015 H   0  0  0  0  0  0  0  0  0  0  0  0
   36.5889   30.7324   39.5913 H   0  0  0  0  0  0  0  0  0  0  0  0
   35.3327   28.7766   37.5684 H   0  0  0  0  0  0  0  0  0  0  0  0
   35.3700   30.5711   37.4250 H   0  0  0  0  0  0  0  0  0  0  0  0
   37.7972   30.5630   37.2926 H   0  0  0  0  0  0  0  0  0  0  0  0
   37.1409   29.4111   36.0736 H   0  0  0  0  0  0  0  0  0  0  0  0
   37.5950   27.5161   37.5853 H   0  0  0  0  0  0  0  0  0  0  0  0
   39.0909   28.4323   37.3296 H   0  0  0  0  0  0  0  0  0  0  0  0
   38.7931   28.0461   39.7645 H   0  0  0  0  0  0  0  0  0  0  0  0
   38.5507   29.7771   39.4559 H   0  0  0  0  0  0  0  0  0  0  0  0
  1  2  2  0
  2  3  1  0
  3  8  1  0
  4  3  2  0
  5  4  1  0
  6  5  2  0
  6  1  1  0
  7  5  1  0
  8  9  1  0
  9 10  1  0
 11 10  1  0
 12 11  1  0
 13 12  1  0
 13  8  1  0
 14 13  1  0
 15 14  1  0
 16 15  1  0
 17 18  1  0
 17 16  1  0
 18 19  1  0
 19 14  1  0
  1 20  1  0
  2 21  1  0
  7 22  1  0
  7 23  1  0
  9 24  1  0
  9 25  1  0
 10 26  1  0
 10 27  1  0
 11 28  1  0
 12 29  1  0
 12 30  1  0
 13 31  1  1
 15 32  1  0
 15 33  1  0
 16 34  1  0
 16 35  1  0
 17 36  1  0
 17 37  1  0
 18 38  1  0
 18 39  1  0
 19 40  1  0
 19 41  1  0
M  ISO  8  20  14  21  14  24  13  25  13  26  13  27  13  28   5  29  13
M  ISO  8  30  13  31  13  32  13  33  13  34  13  35  13  36  13  37  13
M  ISO  4  38  13  39  13  40  13  41  13
M  END
>  <minimizedAffinity>  (1) 
-5.40939808

>  <minimizedRMSD>  (1) 
0.737116456

$$$$
