
     RDKit          3D

 37 40  0  0  1  0  0  0  0  0999 V2000
   36.8470   29.5930   41.8440 C   0  0  2  0  0  0  0  0  0  0  0  0
   37.8330   29.3670   42.9200 C   0  0  0  0  0  0  0  0  0  0  0  0
   37.5150   28.1900   43.8040 C   0  0  0  0  0  0  0  0  0  0  0  0
   36.7730   27.0890   43.1470 C   0  0  0  0  0  0  0  0  0  0  0  0
   36.9560   27.1010   41.6540 C   0  0  0  0  0  0  0  0  0  0  0  0
   36.4080   28.3740   41.0830 C   0  0  2  0  0  0  0  0  0  0  0  0
   36.6010   28.4750   39.6620 N   0  0  0  0  0  0  0  0  0  0  0  0
   37.7580   28.3870   38.9430 C   0  0  0  0  0  0  0  0  0  0  0  0
   37.5270   28.5340   37.6260 N   0  0  0  0  0  0  0  0  0  0  0  0
   36.2100   28.7220   37.4320 C   0  0  0  0  0  0  0  0  0  0  0  0
   35.3300   28.9290   36.3860 C   0  0  0  0  0  0  0  0  0  0  0  0
   34.0040   29.0860   36.5650 N   0  0  0  0  0  0  0  0  0  0  0  0
   33.5010   29.0390   37.8250 C   0  0  0  0  0  0  0  0  0  0  0  0
   34.3340   28.8410   38.8550 N   0  0  0  0  0  0  0  0  0  0  0  0
   35.6690   28.6810   38.6960 C   0  0  0  0  0  0  0  0  0  0  0  0
   37.3620   30.6300   40.9230 C   0  0  0  0  0  0  0  0  0  0  0  0
   38.7570   30.7210   40.8520 C   0  0  0  0  0  0  0  0  0  0  0  0
   39.3450   31.6750   40.0140 C   0  0  0  0  0  0  0  0  0  0  0  0
   38.4920   32.4780   39.2970 N   0  0  0  0  0  0  0  0  0  0  0  0
   37.1590   32.3660   39.3840 C   0  0  0  0  0  0  0  0  0  0  0  0
   36.5790   31.4410   40.1990 N   0  0  0  0  0  0  0  0  0  0  0  0
   35.9299   29.9268   42.3515 H   0  0  0  0  0  0  0  0  0  0  0  0
   38.8166   29.1969   42.4579 H   0  0  0  0  0  0  0  0  0  0  0  0
   37.8154   30.2608   43.5610 H   0  0  0  0  0  0  0  0  0  0  0  0
   38.4641   27.7824   44.1821 H   0  0  0  0  0  0  0  0  0  0  0  0
   36.8543   28.5730   44.5957 H   0  0  0  0  0  0  0  0  0  0  0  0
   37.1375   26.1293   43.5421 H   0  0  0  0  0  0  0  0  0  0  0  0
   35.7024   27.2251   43.3600 H   0  0  0  0  0  0  0  0  0  0  0  0
   38.0277   27.0267   41.4173 H   0  0  0  0  0  0  0  0  0  0  0  0
   36.4184   26.2469   41.2164 H   0  0  0  0  0  0  0  0  0  0  0  0
   35.3177   28.3296   41.2221 H   0  0  0  0  0  0  0  0  0  0  0  0
   38.7515   28.2177   39.3839 H   0  0  0  0  0  0  0  0  0  0  0  0
   35.7303   28.9672   35.3621 H   0  0  0  0  0  0  0  0  0  0  0  0
   32.4217   29.1621   37.9981 H   0  0  0  0  0  0  0  0  0  0  0  0
   39.3869   30.0470   41.4511 H   0  0  0  0  0  0  0  0  0  0  0  0
   40.4373   31.7769   39.9334 H   0  0  0  0  0  0  0  0  0  0  0  0
   36.5213   33.0336   38.7860 H   0  0  0  0  0  0  0  0  0  0  0  0
  1  2  1  0
  2  3  1  0
  4  3  1  0
  5  4  1  0
  6  5  1  0
  6  1  1  0
  7  6  1  0
  8  7  1  0
  9  8  2  0
 10  9  1  0
 10 15  2  0
 11 12  2  0
 11 10  1  0
 12 13  1  0
 13 14  2  0
 15 14  1  0
 15  7  1  0
 16  1  1  0
 17 16  2  0
 18 17  1  0
 19 20  1  0
 19 18  2  0
 20 21  2  0
 21 16  1  0
  1 22  1  1
  2 23  1  0
  2 24  1  0
  3 25  1  0
  3 26  1  0
  4 27  1  0
  4 28  1  0
  5 29  1  0
  5 30  1  0
  6 31  1  6
  8 32  1  0
 11 33  1  0
 13 34  1  0
 17 35  1  0
 18 36  1  0
 20 37  1  0
M  ISO  8  22  13  23  13  24  13  25  13  26  13  27  13  28  13  29  13
M  ISO  8  30  13  31  13  32  14  33  14  34  14  35  14  36  14  37  14
M  END
>  <minimizedAffinity>  (1) 
-5.31862259

>  <minimizedRMSD>  (1) 
0.407558471

$$$$
