
     RDKit          3D

 48 53  0  0  1  0  0  0  0  0999 V2000
   38.1940   28.9480   42.2790 C   0  0  2  0  0  0  0  0  0  0  0  0
   37.8840   28.7450   43.6890 C   0  0  0  0  0  0  0  0  0  0  0  0
   36.7320   27.7870   43.9190 C   0  0  0  0  0  0  0  0  0  0  0  0
   36.6120   26.6950   42.9310 C   0  0  0  0  0  0  0  0  0  0  0  0
   37.8820   26.4670   42.1570 C   0  0  0  0  0  0  0  0  0  0  0  0
   38.2380   27.7100   41.4050 C   0  0  2  0  0  0  0  0  0  0  0  0
   39.4160   29.7560   42.1180 C   0  0  0  0  0  0  0  0  0  0  0  0
   40.4900   29.3170   42.8730 C   0  0  0  0  0  0  0  0  0  0  0  0
   41.7110   30.0050   42.8120 C   0  0  0  0  0  0  0  0  0  0  0  0
   41.7530   31.1060   41.9740 N   0  0  0  0  0  0  0  0  0  0  0  0
   40.6920   31.4910   41.2640 C   0  0  0  0  0  0  0  0  0  0  0  0
   39.5090   30.8190   41.3280 N   0  0  0  0  0  0  0  0  0  0  0  0
   40.8350   32.6490   40.4210 N   0  0  0  0  0  0  0  0  0  0  0  0
   39.9300   33.6620   40.5120 C   0  0  0  0  0  0  0  0  0  0  0  0
   40.2660   34.6250   39.6350 N   0  0  0  0  0  0  0  0  0  0  0  0
   41.3600   34.2560   38.9860 C   0  0  0  0  0  0  0  0  0  0  0  0
   42.2150   34.7320   37.9980 C   0  0  0  0  0  0  0  0  0  0  0  0
   43.2890   34.0540   37.5600 N   0  0  0  0  0  0  0  0  0  0  0  0
   43.5680   32.8340   38.1020 C   0  0  0  0  0  0  0  0  0  0  0  0
   42.7870   32.2900   39.0740 N   0  0  0  0  0  0  0  0  0  0  0  0
   41.7240   33.0040   39.4810 C   0  0  0  0  0  0  0  0  0  0  0  0
   39.4540   27.5850   40.6590 N   0  0  0  0  0  0  0  0  0  0  0  0
   40.6010   26.9500   41.0020 C   0  0  0  0  0  0  0  0  0  0  0  0
   41.5290   27.0500   40.0310 N   0  0  0  0  0  0  0  0  0  0  0  0
   41.0200   27.7590   39.0080 C   0  0  0  0  0  0  0  0  0  0  0  0
   41.3960   28.2210   37.7560 C   0  0  0  0  0  0  0  0  0  0  0  0
   40.5840   28.9400   36.9640 N   0  0  0  0  0  0  0  0  0  0  0  0
   39.3410   29.2320   37.3990 C   0  0  0  0  0  0  0  0  0  0  0  0
   38.9440   28.8020   38.6050 N   0  0  0  0  0  0  0  0  0  0  0  0
   39.7570   28.0710   39.4200 C   0  0  0  0  0  0  0  0  0  0  0  0
   37.3213   29.4990   41.8985 H   0  0  0  0  0  0  0  0  0  0  0  0
   38.7776   28.3423   44.1883 H   0  0  0  0  0  0  0  0  0  0  0  0
   37.5830   29.7201   44.0995 H   0  0  0  0  0  0  0  0  0  0  0  0
   36.8604   27.3335   44.9129 H   0  0  0  0  0  0  0  0  0  0  0  0
   35.8144   28.3861   43.8232 H   0  0  0  0  0  0  0  0  0  0  0  0
   36.3528   25.7673   43.4622 H   0  0  0  0  0  0  0  0  0  0  0  0
   35.8325   26.9841   42.2107 H   0  0  0  0  0  0  0  0  0  0  0  0
   38.6952   26.2141   42.8532 H   0  0  0  0  0  0  0  0  0  0  0  0
   37.7354   25.6390   41.4479 H   0  0  0  0  0  0  0  0  0  0  0  0
   37.4504   27.8476   40.6495 H   0  0  0  0  0  0  0  0  0  0  0  0
   40.3864   28.4322   43.5182 H   0  0  0  0  0  0  0  0  0  0  0  0
   42.5863   29.6873   43.3975 H   0  0  0  0  0  0  0  0  0  0  0  0
   39.0654   33.6886   41.1916 H   0  0  0  0  0  0  0  0  0  0  0  0
   42.0009   35.7145   37.5520 H   0  0  0  0  0  0  0  0  0  0  0  0
   44.4461   32.2762   37.7444 H   0  0  0  0  0  0  0  0  0  0  0  0
   40.7547   26.4198   41.9534 H   0  0  0  0  0  0  0  0  0  0  0  0
   42.4081   27.9874   37.3940 H   0  0  0  0  0  0  0  0  0  0  0  0
   38.6575   29.8192   36.7681 H   0  0  0  0  0  0  0  0  0  0  0  0
  1  2  1  0
  2  3  1  0
  4  3  1  0
  5  4  1  0
  6  5  1  0
  6  1  1  0
  7  1  1  0
  7  8  2  0
  9  8  1  0
 10  9  2  0
 11 12  2  0
 11 10  1  0
 12  7  1  0
 13 14  1  0
 13 11  1  0
 15 14  2  0
 16 21  2  0
 16 15  1  0
 17 16  1  0
 18 17  2  0
 18 19  1  0
 19 20  2  0
 20 21  1  0
 21 13  1  0
 22 23  1  0
 22  6  1  0
 24 23  2  0
 25 30  2  0
 25 24  1  0
 26 25  1  0
 27 28  1  0
 27 26  2  0
 28 29  2  0
 29 30  1  0
 30 22  1  0
  1 31  1  6
  2 32  1  0
  2 33  1  0
  3 34  1  0
  3 35  1  0
  4 36  1  0
  4 37  1  0
  5 38  1  0
  5 39  1  0
  6 40  1  6
  8 41  1  0
  9 42  1  0
 14 43  1  0
 17 44  1  0
 19 45  1  0
 23 46  1  0
 26 47  1  0
 28 48  1  0
M  ISO  8  31  13  32  13  33  13  34  13  35  13  36  13  37  13  38  13
M  ISO  8  39  13  40  13  41  14  42  14  43  14  44  14  45  14  46  14
M  ISO  2  47  14  48  14
M  END
>  <minimizedAffinity>  (1) 
-6.19253016

>  <minimizedRMSD>  (1) 
4.76983833

$$$$
