
     RDKit          3D

 39 42  0  0  1  0  0  0  0  0999 V2000
   37.0090   29.5500   42.0990 C   0  0  2  0  0  0  0  0  0  0  0  0
   37.8100   29.2410   43.2740 C   0  0  0  0  0  0  0  0  0  0  0  0
   37.3150   28.0380   44.0540 C   0  0  0  0  0  0  0  0  0  0  0  0
   36.6360   26.9960   43.2480 C   0  0  0  0  0  0  0  0  0  0  0  0
   37.0170   27.0660   41.7940 C   0  0  0  0  0  0  0  0  0  0  0  0
   36.5780   28.3820   41.2320 C   0  0  2  0  0  0  0  0  0  0  0  0
   36.9160   28.5430   39.8520 N   0  0  0  0  0  0  0  0  0  0  0  0
   38.1440   28.5220   39.2670 C   0  0  0  0  0  0  0  0  0  0  0  0
   38.0520   28.7100   37.9360 N   0  0  0  0  0  0  0  0  0  0  0  0
   36.7580   28.8640   37.5970 C   0  0  0  0  0  0  0  0  0  0  0  0
   35.9900   29.0780   36.4680 C   0  0  0  0  0  0  0  0  0  0  0  0
   34.6530   29.1800   36.5020 N   0  0  0  0  0  0  0  0  0  0  0  0
   34.0170   29.0700   37.6920 C   0  0  0  0  0  0  0  0  0  0  0  0
   34.7390   28.8630   38.8010 N   0  0  0  0  0  0  0  0  0  0  0  0
   36.0900   28.7570   38.7830 C   0  0  0  0  0  0  0  0  0  0  0  0
   37.6440   30.6040   41.2890 C   0  0  0  0  0  0  0  0  0  0  0  0
   39.0270   30.5730   41.2970 C   0  0  0  0  0  0  0  0  0  0  0  0
   39.7430   31.5350   40.5680 C   0  0  0  0  0  0  0  0  0  0  0  0
   38.9930   32.4670   39.8740 N   0  0  0  0  0  0  0  0  0  0  0  0
   37.6670   32.4550   39.8970 C   0  0  0  0  0  0  0  0  0  0  0  0
   36.9720   31.5240   40.6040 N   0  0  0  0  0  0  0  0  0  0  0  0
   36.9420   33.4510   39.1560 N   0  0  0  0  0  0  0  0  0  0  0  0
   36.0619   29.9123   42.5253 H   0  0  0  0  0  0  0  0  0  0  0  0
   38.8416   29.0422   42.9479 H   0  0  0  0  0  0  0  0  0  0  0  0
   37.7405   30.1090   43.9461 H   0  0  0  0  0  0  0  0  0  0  0  0
   38.1810   27.5742   44.5489 H   0  0  0  0  0  0  0  0  0  0  0  0
   36.5590   28.4205   44.7555 H   0  0  0  0  0  0  0  0  0  0  0  0
   36.9146   26.0068   43.6403 H   0  0  0  0  0  0  0  0  0  0  0  0
   35.5515   27.1643   43.3220 H   0  0  0  0  0  0  0  0  0  0  0  0
   38.1082   26.9694   41.6947 H   0  0  0  0  0  0  0  0  0  0  0  0
   36.5279   26.2483   41.2444 H   0  0  0  0  0  0  0  0  0  0  0  0
   35.4783   28.3776   41.2566 H   0  0  0  0  0  0  0  0  0  0  0  0
   39.0888   28.3712   39.8098 H   0  0  0  0  0  0  0  0  0  0  0  0
   36.4986   29.1688   35.4969 H   0  0  0  0  0  0  0  0  0  0  0  0
   32.9213   29.1496   37.7474 H   0  0  0  0  0  0  0  0  0  0  0  0
   39.5611   29.8007   41.8700 H   0  0  0  0  0  0  0  0  0  0  0  0
   40.8428   31.5471   40.5496 H   0  0  0  0  0  0  0  0  0  0  0  0
   35.9120   33.4521   39.1660 H   0  0  0  0  0  0  0  0  0  0  0  0
   37.4525   34.1635   38.6151 H   0  0  0  0  0  0  0  0  0  0  0  0
  1  2  1  0
  2  3  1  0
  4  3  1  0
  5  4  1  0
  6  5  1  0
  6  1  1  0
  7  6  1  0
  8  7  1  0
  9  8  2  0
 10  9  1  0
 10 15  2  0
 11 12  2  0
 11 10  1  0
 12 13  1  0
 13 14  2  0
 15 14  1  0
 15  7  1  0
 16 17  2  0
 16  1  1  0
 18 17  1  0
 19 20  1  0
 19 18  2  0
 20 21  2  0
 21 16  1  0
 22 20  1  0
  1 23  1  1
  2 24  1  0
  2 25  1  0
  3 26  1  0
  3 27  1  0
  4 28  1  0
  4 29  1  0
  5 30  1  0
  5 31  1  0
  6 32  1  6
  8 33  1  0
 11 34  1  0
 13 35  1  0
 17 36  1  0
 18 37  1  0
 22 38  1  0
 22 39  1  0
M  ISO  8  23  13  24  13  25  13  26  13  27  13  28  13  29  13  30  13
M  ISO  7  31  13  32  13  33  14  34  14  35  14  36  14  37  14
M  END
>  <minimizedAffinity>  (1) 
-5.83840275

>  <minimizedRMSD>  (1) 
0.535613596

$$$$
