
     RDKit          3D

 44 48  0  0  1  0  0  0  0  0999 V2000
   38.2520   29.3010   42.7250 C   0  0  2  0  0  0  0  0  0  0  0  0
   38.5410   28.3030   43.7470 C   0  0  0  0  0  0  0  0  0  0  0  0
   37.3000   27.6160   44.2820 C   0  0  0  0  0  0  0  0  0  0  0  0
   36.1970   27.4530   43.3070 C   0  0  0  0  0  0  0  0  0  0  0  0
   36.6710   27.5560   41.8830 C   0  0  0  0  0  0  0  0  0  0  0  0
   37.2480   28.9160   41.6550 C   0  0  2  0  0  0  0  0  0  0  0  0
   37.7380   29.1010   40.3250 N   0  0  0  0  0  0  0  0  0  0  0  0
   38.4180   28.2230   39.5370 C   0  0  0  0  0  0  0  0  0  0  0  0
   38.7070   28.7690   38.3400 N   0  0  0  0  0  0  0  0  0  0  0  0
   38.2270   30.0280   38.2970 C   0  0  0  0  0  0  0  0  0  0  0  0
   38.1700   31.0980   37.4230 C   0  0  0  0  0  0  0  0  0  0  0  0
   37.5740   32.2670   37.7330 N   0  0  0  0  0  0  0  0  0  0  0  0
   37.0030   32.4080   38.9500 C   0  0  0  0  0  0  0  0  0  0  0  0
   37.0480   31.3840   39.8120 N   0  0  0  0  0  0  0  0  0  0  0  0
   37.6430   30.2010   39.5170 C   0  0  0  0  0  0  0  0  0  0  0  0
   39.4930   29.8200   42.1270 C   0  0  0  0  0  0  0  0  0  0  0  0
   40.5040   28.8810   42.0130 C   0  0  0  0  0  0  0  0  0  0  0  0
   41.7390   29.2570   41.4620 C   0  0  0  0  0  0  0  0  0  0  0  0
   41.8580   30.5750   41.0620 N   0  0  0  0  0  0  0  0  0  0  0  0
   40.8580   31.4400   41.1900 C   0  0  0  0  0  0  0  0  0  0  0  0
   39.6620   31.0740   41.7250 N   0  0  0  0  0  0  0  0  0  0  0  0
   41.0020   32.8280   40.7610 C   0  0  0  0  0  0  0  0  0  0  0  0
   40.4770   33.3840   39.6020 C   0  0  0  0  0  0  0  0  0  0  0  0
   40.8010   34.6800   39.5230 N   0  0  0  0  0  0  0  0  0  0  0  0
   41.5320   34.9720   40.6160 C   0  0  0  0  0  0  0  0  0  0  0  0
   41.6450   33.8500   41.3520 N   0  0  0  0  0  0  0  0  0  0  0  0
   37.7366   30.0970   43.2824 H   0  0  0  0  0  0  0  0  0  0  0  0
   39.2028   27.5395   43.3122 H   0  0  0  0  0  0  0  0  0  0  0  0
   39.0123   28.8279   44.5910 H   0  0  0  0  0  0  0  0  0  0  0  0
   37.5910   26.6161   44.6362 H   0  0  0  0  0  0  0  0  0  0  0  0
   36.9096   28.2686   45.0768 H   0  0  0  0  0  0  0  0  0  0  0  0
   35.7371   26.4649   43.4557 H   0  0  0  0  0  0  0  0  0  0  0  0
   35.4741   28.2639   43.4795 H   0  0  0  0  0  0  0  0  0  0  0  0
   37.4411   26.7933   41.6954 H   0  0  0  0  0  0  0  0  0  0  0  0
   35.8250   27.3937   41.1989 H   0  0  0  0  0  0  0  0  0  0  0  0
   36.4137   29.6262   41.7529 H   0  0  0  0  0  0  0  0  0  0  0  0
   38.6949   27.2020   39.8384 H   0  0  0  0  0  0  0  0  0  0  0  0
   38.6316   30.9907   36.4303 H   0  0  0  0  0  0  0  0  0  0  0  0
   36.5084   33.3503   39.2284 H   0  0  0  0  0  0  0  0  0  0  0  0
   40.3405   27.8474   42.3519 H   0  0  0  0  0  0  0  0  0  0  0  0
   42.5675   28.5415   41.3543 H   0  0  0  0  0  0  0  0  0  0  0  0
   39.8807   32.8379   38.8562 H   0  0  0  0  0  0  0  0  0  0  0  0
   41.9611   35.9541   40.8638 H   0  0  0  0  0  0  0  0  0  0  0  0
   42.1541   33.7839   42.2450 H   0  0  0  0  0  0  0  0  0  0  0  0
  1  2  1  0
  2  3  1  0
  4  3  1  0
  5  4  1  0
  6  5  1  0
  6  1  1  0
  7  6  1  0
  8  7  1  0
  9  8  2  0
 10  9  1  0
 10 15  2  0
 11 12  2  0
 11 10  1  0
 12 13  1  0
 13 14  2  0
 15 14  1  0
 15  7  1  0
 16  1  1  0
 17 16  2  0
 18 17  1  0
 19 20  1  0
 19 18  2  0
 20 21  2  0
 21 16  1  0
 22 20  1  0
 22 26  1  0
 23 22  2  0
 24 23  1  0
 24 25  2  0
 25 26  1  0
  1 27  1  1
  2 28  1  0
  2 29  1  0
  3 30  1  0
  3 31  1  0
  4 32  1  0
  4 33  1  0
  5 34  1  0
  5 35  1  0
  6 36  1  6
  8 37  1  0
 11 38  1  0
 13 39  1  0
 17 40  1  0
 18 41  1  0
 23 42  1  0
 25 43  1  0
 26 44  1  0
M  ISO  8  27  13  28  13  29  13  30  13  31  13  32  13  33  13  34  13
M  ISO  8  35  13  36  13  37  14  38  14  39  14  40  14  41  14  42  14
M  ISO  2  43  14  44   9
M  END
>  <minimizedAffinity>  (1) 
-5.81998396

>  <minimizedRMSD>  (1) 
3.75526762

$$$$
