
     RDKit          3D

 45 49  0  0  1  0  0  0  0  0999 V2000
   39.6520   29.7680   41.4640 C   0  0  2  0  0  0  0  0  0  0  0  0
   40.3520   30.4530   42.5430 C   0  0  0  0  0  0  0  0  0  0  0  0
   41.1380   31.6640   42.0840 C   0  0  0  0  0  0  0  0  0  0  0  0
   40.5680   32.3880   40.9270 C   0  0  0  0  0  0  0  0  0  0  0  0
   39.1050   32.0980   40.7280 C   0  0  0  0  0  0  0  0  0  0  0  0
   38.9180   30.6380   40.4610 C   0  0  2  0  0  0  0  0  0  0  0  0
   37.5490   30.2690   40.2870 N   0  0  0  0  0  0  0  0  0  0  0  0
   36.4640   30.6480   41.0080 C   0  0  0  0  0  0  0  0  0  0  0  0
   35.3350   30.0890   40.5330 N   0  0  0  0  0  0  0  0  0  0  0  0
   35.6400   29.3160   39.4720 C   0  0  0  0  0  0  0  0  0  0  0  0
   34.9990   28.4990   38.5570 C   0  0  0  0  0  0  0  0  0  0  0  0
   35.6540   27.8520   37.5780 N   0  0  0  0  0  0  0  0  0  0  0  0
   36.9910   27.9980   37.4790 C   0  0  0  0  0  0  0  0  0  0  0  0
   37.6310   28.7840   38.3550 N   0  0  0  0  0  0  0  0  0  0  0  0
   36.9910   29.4450   39.3480 C   0  0  0  0  0  0  0  0  0  0  0  0
   38.7740   28.7120   41.9950 C   0  0  0  0  0  0  0  0  0  0  0  0
   38.2350   28.9890   43.2400 C   0  0  0  0  0  0  0  0  0  0  0  0
   37.3870   28.0510   43.8490 C   0  0  0  0  0  0  0  0  0  0  0  0
   37.1420   26.8890   43.1400 N   0  0  0  0  0  0  0  0  0  0  0  0
   37.6800   26.6680   41.9470 C   0  0  0  0  0  0  0  0  0  0  0  0
   38.5030   27.5770   41.3590 N   0  0  0  0  0  0  0  0  0  0  0  0
   37.3940   25.4280   41.2320 C   0  0  0  0  0  0  0  0  0  0  0  0
   37.9140   24.2190   41.6460 C   0  0  0  0  0  0  0  0  0  0  0  0
   37.5870   23.1010   40.9060 C   0  0  0  0  0  0  0  0  0  0  0  0
   36.7980   23.1500   39.8220 N   0  0  0  0  0  0  0  0  0  0  0  0
   36.3080   24.3330   39.4430 C   0  0  0  0  0  0  0  0  0  0  0  0
   36.6050   25.4520   40.1420 N   0  0  0  0  0  0  0  0  0  0  0  0
   40.4642   29.3261   40.8682 H   0  0  0  0  0  0  0  0  0  0  0  0
   39.6098   30.7812   43.2856 H   0  0  0  0  0  0  0  0  0  0  0  0
   41.0760   29.7387   42.9621 H   0  0  0  0  0  0  0  0  0  0  0  0
   41.2009   32.3675   42.9273 H   0  0  0  0  0  0  0  0  0  0  0  0
   42.1154   31.2836   41.7524 H   0  0  0  0  0  0  0  0  0  0  0  0
   40.6942   33.4685   41.0903 H   0  0  0  0  0  0  0  0  0  0  0  0
   41.1008   32.0495   40.0261 H   0  0  0  0  0  0  0  0  0  0  0  0
   38.5488   32.3792   41.6344 H   0  0  0  0  0  0  0  0  0  0  0  0
   38.7292   32.6783   39.8725 H   0  0  0  0  0  0  0  0  0  0  0  0
   39.3919   30.4425   39.4878 H   0  0  0  0  0  0  0  0  0  0  0  0
   36.5020   31.3271   41.8725 H   0  0  0  0  0  0  0  0  0  0  0  0
   33.9088   28.3741   38.6343 H   0  0  0  0  0  0  0  0  0  0  0  0
   37.5500   27.4773   36.6875 H   0  0  0  0  0  0  0  0  0  0  0  0
   38.4695   29.9363   43.7475 H   0  0  0  0  0  0  0  0  0  0  0  0
   36.9407   28.2306   44.8382 H   0  0  0  0  0  0  0  0  0  0  0  0
   38.5636   24.1490   42.5310 H   0  0  0  0  0  0  0  0  0  0  0  0
   37.9910   22.1268   41.2187 H   0  0  0  0  0  0  0  0  0  0  0  0
   35.6591   24.3977   38.5572 H   0  0  0  0  0  0  0  0  0  0  0  0
  1 16  1  0
  1  2  1  0
  3  2  1  0
  4  3  1  0
  5  4  1  0
  6  5  1  0
  6  1  1  0
  7  6  1  0
  7  8  1  0
  9  8  2  0
 10  9  1  0
 11 10  2  0
 12 11  1  0
 13 12  2  0
 13 14  1  0
 14 15  2  0
 15 10  1  0
 15  7  1  0
 16 17  2  0
 17 18  1  0
 19 18  2  0
 20 19  1  0
 21 20  2  0
 21 16  1  0
 22 23  2  0
 22 20  1  0
 24 23  1  0
 25 24  2  0
 26 25  1  0
 26 27  2  0
 27 22  1  0
  1 28  1  6
  2 29  1  0
  2 30  1  0
  3 31  1  0
  3 32  1  0
  4 33  1  0
  4 34  1  0
  5 35  1  0
  5 36  1  0
  6 37  1  6
  8 38  1  0
 11 39  1  0
 13 40  1  0
 17 41  1  0
 18 42  1  0
 23 43  1  0
 24 44  1  0
 26 45  1  0
M  ISO  8  28  13  29  13  30  13  31  13  32  13  33  13  34  13  35  13
M  ISO  8  36  13  37  13  38  14  39  14  40  14  41  14  42  14  43  14
M  ISO  2  44  14  45  14
M  END
>  <minimizedAffinity>  (1) 
-5.70175457

>  <minimizedRMSD>  (1) 
6.13044548

$$$$
