
     RDKit          3D

 53 57  0  0  1  0  0  0  0  0999 V2000
   39.4670   27.4750   42.5130 C   0  0  2  0  0  0  0  0  0  0  0  0
   40.7600   27.0060   42.9900 C   0  0  0  0  0  0  0  0  0  0  0  0
   40.6990   25.6770   43.7180 C   0  0  0  0  0  0  0  0  0  0  0  0
   39.6210   24.7660   43.2840 C   0  0  0  0  0  0  0  0  0  0  0  0
   39.1510   25.0760   41.8800 C   0  0  0  0  0  0  0  0  0  0  0  0
   38.5580   26.4480   41.8650 C   0  0  2  0  0  0  0  0  0  0  0  0
   38.0870   26.8400   40.5730 N   0  0  0  0  0  0  0  0  0  0  0  0
   38.5840   26.5100   39.3500 C   0  0  0  0  0  0  0  0  0  0  0  0
   37.8610   27.0790   38.3630 N   0  0  0  0  0  0  0  0  0  0  0  0
   36.8630   27.8030   38.9050 C   0  0  0  0  0  0  0  0  0  0  0  0
   35.8050   28.5980   38.5030 C   0  0  0  0  0  0  0  0  0  0  0  0
   34.9620   29.1930   39.3650 N   0  0  0  0  0  0  0  0  0  0  0  0
   35.1490   29.0110   40.6920 C   0  0  0  0  0  0  0  0  0  0  0  0
   36.1660   28.2460   41.1100 N   0  0  0  0  0  0  0  0  0  0  0  0
   37.0280   27.6370   40.2490 C   0  0  0  0  0  0  0  0  0  0  0  0
   39.6200   28.6640   41.6550 C   0  0  0  0  0  0  0  0  0  0  0  0
   40.6130   28.5500   40.6960 C   0  0  0  0  0  0  0  0  0  0  0  0
   40.8590   29.6210   39.8240 C   0  0  0  0  0  0  0  0  0  0  0  0
   40.0660   30.7420   39.9890 N   0  0  0  0  0  0  0  0  0  0  0  0
   39.1160   30.8060   40.9290 C   0  0  0  0  0  0  0  0  0  0  0  0
   38.8870   29.7650   41.7680 N   0  0  0  0  0  0  0  0  0  0  0  0
   38.3090   32.0740   41.0220 C   0  0  0  0  0  0  0  0  0  0  0  0
   39.3110   33.1820   41.2600 C   0  0  0  0  0  0  0  0  0  0  0  0
   39.4960   33.9250   39.9640 C   0  0  0  0  0  0  0  0  0  0  0  0
   38.1810   34.6450   39.6960 C   0  0  0  0  0  0  0  0  0  0  0  0
   37.1670   33.5960   39.3650 C   0  0  0  0  0  0  0  0  0  0  0  0
   37.5480   32.2030   39.7420 C   0  0  0  0  0  0  0  0  0  0  0  0
   38.9336   27.7367   43.4387 H   0  0  0  0  0  0  0  0  0  0  0  0
   41.4301   26.8968   42.1245 H   0  0  0  0  0  0  0  0  0  0  0  0
   41.1239   27.7508   43.7131 H   0  0  0  0  0  0  0  0  0  0  0  0
   41.6595   25.1627   43.5665 H   0  0  0  0  0  0  0  0  0  0  0  0
   40.4874   25.9173   44.7704 H   0  0  0  0  0  0  0  0  0  0  0  0
   39.9958   23.7322   43.3133 H   0  0  0  0  0  0  0  0  0  0  0  0
   38.7680   24.8983   43.9658 H   0  0  0  0  0  0  0  0  0  0  0  0
   40.0037   25.0337   41.1864 H   0  0  0  0  0  0  0  0  0  0  0  0
   38.3976   24.3387   41.5656 H   0  0  0  0  0  0  0  0  0  0  0  0
   37.6574   26.4030   42.4950 H   0  0  0  0  0  0  0  0  0  0  0  0
   39.4597   25.8645   39.1874 H   0  0  0  0  0  0  0  0  0  0  0  0
   35.6455   28.7509   37.4254 H   0  0  0  0  0  0  0  0  0  0  0  0
   34.4740   29.4855   41.4194 H   0  0  0  0  0  0  0  0  0  0  0  0
   41.2047   27.6259   40.6187 H   0  0  0  0  0  0  0  0  0  0  0  0
   41.6401   29.5719   39.0511 H   0  0  0  0  0  0  0  0  0  0  0  0
   37.5707   32.0989   41.8370 H   0  0  0  0  0  0  0  0  0  0  0  0
   38.9336   33.8674   42.0331 H   0  0  0  0  0  0  0  0  0  0  0  0
   40.2694   32.7647   41.6025 H   0  0  0  0  0  0  0  0  0  0  0  0
   40.3170   34.6515   40.0547 H   0  0  0  0  0  0  0  0  0  0  0  0
   39.7529   33.2402   39.1424 H   0  0  0  0  0  0  0  0  0  0  0  0
   37.8677   35.2044   40.5898 H   0  0  0  0  0  0  0  0  0  0  0  0
   38.2879   35.3623   38.8689 H   0  0  0  0  0  0  0  0  0  0  0  0
   36.2335   33.8474   39.8897 H   0  0  0  0  0  0  0  0  0  0  0  0
   37.0698   33.6001   38.2693 H   0  0  0  0  0  0  0  0  0  0  0  0
   36.6253   31.6112   39.8339 H   0  0  0  0  0  0  0  0  0  0  0  0
   38.2225   31.8467   38.9495 H   0  0  0  0  0  0  0  0  0  0  0  0
  1  2  1  0
  2  3  1  0
  4  3  1  0
  5  4  1  0
  6  5  1  0
  6  1  1  0
  7  6  1  0
  8  7  1  0
  9 10  1  0
  9  8  2  0
 10 15  2  0
 11 10  1  0
 11 12  2  0
 12 13  1  0
 13 14  2  0
 15  7  1  0
 15 14  1  0
 16 21  1  0
 16  1  1  0
 17 16  2  0
 18 19  2  0
 18 17  1  0
 19 20  1  0
 20 22  1  0
 20 21  2  0
 22 23  1  0
 24 23  1  0
 25 24  1  0
 26 25  1  0
 26 27  1  0
 27 22  1  0
  1 28  1  1
  2 29  1  0
  2 30  1  0
  3 31  1  0
  3 32  1  0
  4 33  1  0
  4 34  1  0
  5 35  1  0
  5 36  1  0
  6 37  1  1
  8 38  1  0
 11 39  1  0
 13 40  1  0
 17 41  1  0
 18 42  1  0
 22 43  1  0
 23 44  1  0
 23 45  1  0
 24 46  1  0
 24 47  1  0
 25 48  1  0
 25 49  1  0
 26 50  1  0
 26 51  1  0
 27 52  1  0
 27 53  1  0
M  ISO  8  28  13  29  13  30  13  31  13  32  13  33  13  34  13  35  13
M  ISO  8  36  13  37  13  38  14  39  14  40  14  41  14  42  14  43  13
M  ISO  8  44  13  45  13  46  13  47  13  48  13  49  13  50  13  51  13
M  ISO  2  52  13  53  13
M  END
>  <minimizedAffinity>  (1) 
-5.56050539

>  <minimizedRMSD>  (1) 
3.00592375

$$$$
