
     RDKit          3D

 43 46  0  0  1  0  0  0  0  0999 V2000
   37.1800   29.3470   42.2970 C   0  0  2  0  0  0  0  0  0  0  0  0
   37.6750   28.9580   43.6090 C   0  0  0  0  0  0  0  0  0  0  0  0
   37.0370   27.6970   44.1550 C   0  0  0  0  0  0  0  0  0  0  0  0
   36.6150   26.7050   43.1340 C   0  0  0  0  0  0  0  0  0  0  0  0
   37.3340   26.8940   41.8290 C   0  0  0  0  0  0  0  0  0  0  0  0
   37.0070   28.2420   41.2720 C   0  0  2  0  0  0  0  0  0  0  0  0
   37.6670   28.5090   40.0320 N   0  0  0  0  0  0  0  0  0  0  0  0
   38.9940   28.4500   39.7420 C   0  0  0  0  0  0  0  0  0  0  0  0
   39.2300   28.7730   38.4570 N   0  0  0  0  0  0  0  0  0  0  0  0
   38.0600   29.0590   37.8500 C   0  0  0  0  0  0  0  0  0  0  0  0
   37.5940   29.4420   36.6060 C   0  0  0  0  0  0  0  0  0  0  0  0
   36.2890   29.6470   36.3470 N   0  0  0  0  0  0  0  0  0  0  0  0
   35.3930   29.4720   37.3410 C   0  0  0  0  0  0  0  0  0  0  0  0
   35.8240   29.1010   38.5530 N   0  0  0  0  0  0  0  0  0  0  0  0
   37.1310   28.8900   38.8340 C   0  0  0  0  0  0  0  0  0  0  0  0
   37.9650   30.4640   41.7460 C   0  0  0  0  0  0  0  0  0  0  0  0
   39.3020   30.4520   42.1020 C   0  0  0  0  0  0  0  0  0  0  0  0
   40.1520   31.4690   41.6410 C   0  0  0  0  0  0  0  0  0  0  0  0
   39.5750   32.4370   40.8400 N   0  0  0  0  0  0  0  0  0  0  0  0
   38.2830   32.4080   40.5220 C   0  0  0  0  0  0  0  0  0  0  0  0
   37.4640   31.4210   40.9730 N   0  0  0  0  0  0  0  0  0  0  0  0
   37.6410   33.4370   39.6640 C   0  0  0  0  0  0  0  0  0  0  0  0
   38.1990   34.8090   39.8970 C   0  0  0  0  0  0  0  0  0  0  0  0
   36.1477   29.6692   42.4986 H   0  0  0  0  0  0  0  0  0  0  0  0
   38.7601   28.7935   43.5353 H   0  0  0  0  0  0  0  0  0  0  0  0
   37.4183   29.7725   44.3023 H   0  0  0  0  0  0  0  0  0  0  0  0
   37.7638   27.2099   44.8218 H   0  0  0  0  0  0  0  0  0  0  0  0
   36.1168   28.0184   44.6648 H   0  0  0  0  0  0  0  0  0  0  0  0
   36.8277   25.6944   43.5127 H   0  0  0  0  0  0  0  0  0  0  0  0
   35.5395   26.8453   42.9507 H   0  0  0  0  0  0  0  0  0  0  0  0
   38.4190   26.8184   41.9936 H   0  0  0  0  0  0  0  0  0  0  0  0
   37.0164   26.1163   41.1188 H   0  0  0  0  0  0  0  0  0  0  0  0
   35.9346   28.2241   41.0276 H   0  0  0  0  0  0  0  0  0  0  0  0
   39.7752   28.1735   40.4654 H   0  0  0  0  0  0  0  0  0  0  0  0
   38.3209   29.5854   35.7929 H   0  0  0  0  0  0  0  0  0  0  0  0
   34.3204   29.6324   37.1573 H   0  0  0  0  0  0  0  0  0  0  0  0
   39.6965   29.6497   42.7429 H   0  0  0  0  0  0  0  0  0  0  0  0
   41.2201   31.4947   41.9029 H   0  0  0  0  0  0  0  0  0  0  0  0
   36.5626   33.4535   39.8801 H   0  0  0  0  0  0  0  0  0  0  0  0
   37.8396   33.1692   38.6158 H   0  0  0  0  0  0  0  0  0  0  0  0
   38.2747   34.9952   40.9785 H   0  0  0  0  0  0  0  0  0  0  0  0
   39.1978   34.8808   39.4417 H   0  0  0  0  0  0  0  0  0  0  0  0
   37.5338   35.5575   39.4417 H   0  0  0  0  0  0  0  0  0  0  0  0
  1  2  1  0
  2  3  1  0
  4  3  1  0
  5  4  1  0
  6  5  1  0
  6  1  1  0
  7  6  1  0
  8  7  1  0
  9  8  2  0
 10  9  1  0
 10 15  2  0
 11 10  1  0
 12 11  2  0
 12 13  1  0
 13 14  2  0
 14 15  1  0
 15  7  1  0
 16 17  2  0
 16  1  1  0
 18 17  1  0
 19 18  2  0
 20 19  1  0
 20 21  2  0
 21 16  1  0
 22 23  1  0
 22 20  1  0
  1 24  1  1
  2 25  1  0
  2 26  1  0
  3 27  1  0
  3 28  1  0
  4 29  1  0
  4 30  1  0
  5 31  1  0
  5 32  1  0
  6 33  1  6
  8 34  1  0
 11 35  1  0
 13 36  1  0
 17 37  1  0
 18 38  1  0
 22 39  1  0
 22 40  1  0
 23 41  1  0
 23 42  1  0
 23 43  1  0
M  ISO  8  24  13  25  13  26  13  27  13  28  13  29  13  30  13  31  13
M  ISO  8  32  13  33  13  34  14  35  14  36  14  37  14  38  14  39   8
M  ISO  4  40   8  41   8  42   8  43   8
M  END
>  <minimizedAffinity>  (1) 
-5.47944164

>  <minimizedRMSD>  (1) 
1.53562021

$$$$
