
     RDKit          3D

 33 35  0  0  1  0  0  0  0  0999 V2000
   39.9140   32.2200   41.6230 C   0  0  0  0  0  0  0  0  0  0  0  0
   39.5110   30.8860   41.8990 C   0  0  0  0  0  0  0  0  0  0  0  0
   38.2610   30.4840   41.4450 C   0  0  0  0  0  0  0  0  0  0  0  0
   37.4820   31.3620   40.7670 N   0  0  0  0  0  0  0  0  0  0  0  0
   37.9090   32.6280   40.5270 C   0  0  0  0  0  0  0  0  0  0  0  0
   39.1180   33.0630   40.9490 N   0  0  0  0  0  0  0  0  0  0  0  0
   37.0280   33.5000   39.8010 N   0  0  0  0  0  0  0  0  0  0  0  0
   37.8040   29.1640   41.6910 N   0  0  0  0  0  0  0  0  0  0  0  0
   37.6330   28.6930   43.0380 C   0  0  0  0  0  0  0  0  0  0  0  0
   36.6470   27.5350   42.9840 C   0  0  0  0  0  0  0  0  0  0  0  0
   37.1040   26.4790   42.1370 N   0  0  0  0  0  0  0  0  0  0  0  0
   37.7690   26.8660   40.9510 C   0  0  0  0  0  0  0  0  0  0  0  0
   37.5120   28.2950   40.5880 C   0  0  1  0  0  0  0  0  0  0  0  0
   36.2450   28.5130   39.9620 N   0  0  0  0  0  0  0  0  0  0  0  0
   35.9650   28.1660   38.7160 N   0  0  0  0  0  0  0  0  0  0  0  0
   34.6890   28.5080   38.4270 C   0  0  0  0  0  0  0  0  0  0  0  0
   34.1210   29.1000   39.5330 C   0  0  0  0  0  0  0  0  0  0  0  0
   35.1220   29.0810   40.4560 C   0  0  0  0  0  0  0  0  0  0  0  0
   40.8984   32.5684   41.9689 H   0  0  0  0  0  0  0  0  0  0  0  0
   40.1652   30.1961   42.4523 H   0  0  0  0  0  0  0  0  0  0  0  0
   37.3141   34.4684   39.5980 H   0  0  0  0  0  0  0  0  0  0  0  0
   36.1103   33.1568   39.4834 H   0  0  0  0  0  0  0  0  0  0  0  0
   38.5964   28.3500   43.4432 H   0  0  0  0  0  0  0  0  0  0  0  0
   37.2589   29.4963   43.6897 H   0  0  0  0  0  0  0  0  0  0  0  0
   36.5086   27.1393   44.0010 H   0  0  0  0  0  0  0  0  0  0  0  0
   35.7007   27.9148   42.5713 H   0  0  0  0  0  0  0  0  0  0  0  0
   37.7539   25.8972   42.6848 H   0  0  0  0  0  0  0  0  0  0  0  0
   38.8510   26.7274   41.0924 H   0  0  0  0  0  0  0  0  0  0  0  0
   37.3836   26.2396   40.1330 H   0  0  0  0  0  0  0  0  0  0  0  0
   38.2205   28.5676   39.7920 H   0  0  0  0  0  0  0  0  0  0  0  0
   34.1857   28.3403   37.4634 H   0  0  0  0  0  0  0  0  0  0  0  0
   33.1003   29.4948   39.6445 H   0  0  0  0  0  0  0  0  0  0  0  0
   35.0285   29.4787   41.4773 H   0  0  0  0  0  0  0  0  0  0  0  0
  1  2  2  0
  3  8  1  0
  3  2  1  0
  4  3  2  0
  5  4  1  0
  5  6  2  0
  6  1  1  0
  7  5  1  0
  8  9  1  0
 10  9  1  0
 11 10  1  0
 12 11  1  0
 13 12  1  0
 13  8  1  0
 14 18  1  0
 14 13  1  0
 15 14  1  0
 16 15  2  0
 16 17  1  0
 17 18  2  0
  1 19  1  0
  2 20  1  0
  7 21  1  0
  7 22  1  0
  9 23  1  0
  9 24  1  0
 10 25  1  0
 10 26  1  0
 11 27  1  0
 12 28  1  0
 12 29  1  0
 13 30  1  6
 16 31  1  0
 17 32  1  0
 18 33  1  0
M  ISO  8  19  14  20  14  23  13  24  13  25  13  26  13  27   5  28  13
M  ISO  5  29  13  30  13  31  14  32  14  33  14
M  END
>  <minimizedAffinity>  (1) 
-5.23253393

>  <minimizedRMSD>  (1) 
0.651487231

$$$$
