
     RDKit          3D

 26 27  0  0  0  0  0  0  0  0999 V2000
   36.8560   29.2250   41.7620 C   0  0  0  0  0  0  0  0  0  0  0  0
   38.0760   29.6680   42.2670 C   0  0  0  0  0  0  0  0  0  0  0  0
   38.7740   28.8600   43.1580 C   0  0  0  0  0  0  0  0  0  0  0  0
   38.2260   27.6490   43.5070 N   0  0  0  0  0  0  0  0  0  0  0  0
   37.0430   27.2570   42.9970 C   0  0  0  0  0  0  0  0  0  0  0  0
   36.3500   28.0220   42.1330 N   0  0  0  0  0  0  0  0  0  0  0  0
   36.0120   29.9760   40.8130 C   0  0  0  0  0  0  0  0  0  0  0  0
   35.5750   29.1660   39.6240 C   0  0  0  0  0  0  0  0  0  0  0  0
   34.1030   29.1200   39.4250 C   0  0  0  0  0  0  0  0  0  0  0  0
   33.9500   28.8910   37.9380 C   0  0  0  0  0  0  0  0  0  0  0  0
   35.2700   29.2110   37.3070 C   0  0  0  0  0  0  0  0  0  0  0  0
   36.0900   29.8500   38.3910 C   0  0  0  0  0  0  0  0  0  0  0  0
   38.4823   30.6446   41.9649 H   0  0  0  0  0  0  0  0  0  0  0  0
   39.7405   29.1821   43.5730 H   0  0  0  0  0  0  0  0  0  0  0  0
   36.6304   26.2820   43.2955 H   0  0  0  0  0  0  0  0  0  0  0  0
   35.1145   30.3236   41.3457 H   0  0  0  0  0  0  0  0  0  0  0  0
   36.6202   30.8087   40.4299 H   0  0  0  0  0  0  0  0  0  0  0  0
   35.9522   28.1474   39.7979 H   0  0  0  0  0  0  0  0  0  0  0  0
   33.6553   28.2941   39.9973 H   0  0  0  0  0  0  0  0  0  0  0  0
   33.5971   30.0338   39.7702 H   0  0  0  0  0  0  0  0  0  0  0  0
   33.6826   27.8420   37.7430 H   0  0  0  0  0  0  0  0  0  0  0  0
   33.1528   29.5255   37.5233 H   0  0  0  0  0  0  0  0  0  0  0  0
   35.7569   28.2924   36.9478 H   0  0  0  0  0  0  0  0  0  0  0  0
   35.1558   29.8749   36.4374 H   0  0  0  0  0  0  0  0  0  0  0  0
   37.1630   29.6560   38.2461 H   0  0  0  0  0  0  0  0  0  0  0  0
   36.0004   30.9458   38.4242 H   0  0  0  0  0  0  0  0  0  0  0  0
  1  6  1  0
  1  2  2  0
  2  3  1  0
  3  4  2  0
  5  4  1  0
  6  5  2  0
  7  1  1  0
  8  7  1  0
  9  8  1  0
 10  9  1  0
 11 10  1  0
 11 12  1  0
 12  8  1  0
  2 13  1  0
  3 14  1  0
  5 15  1  0
  7 16  1  0
  7 17  1  0
  8 18  1  0
  9 19  1  0
  9 20  1  0
 10 21  1  0
 10 22  1  0
 11 23  1  0
 11 24  1  0
 12 25  1  0
 12 26  1  0
M  ISO  8  13  14  14  14  15  14  16   8  17   8  18  13  19  13  20  13
M  ISO  6  21  13  22  13  23  13  24  13  25  13  26  13
M  END
>  <minimizedAffinity>  (1) 
-3.87183809

>  <minimizedRMSD>  (1) 
1.70543432

$$$$
