
     RDKit          3D

 20 21  0  0  0  0  0  0  0  0999 V2000
   36.2280   30.7540   41.0420 C   0  0  0  0  0  0  0  0  0  0  0  0
   36.9540   29.6630   41.7340 C   0  0  0  0  0  0  0  0  0  0  0  0
   38.2160   29.8240   42.3090 C   0  0  0  0  0  0  0  0  0  0  0  0
   38.8190   28.7410   42.9380 C   0  0  0  0  0  0  0  0  0  0  0  0
   38.1290   27.5460   42.9610 N   0  0  0  0  0  0  0  0  0  0  0  0
   36.9160   27.4330   42.3950 C   0  0  0  0  0  0  0  0  0  0  0  0
   36.3180   28.4560   41.7880 N   0  0  0  0  0  0  0  0  0  0  0  0
   36.6640   30.8690   39.6640 N   0  0  0  0  0  0  0  0  0  0  0  0
   36.5860   30.0520   38.6540 N   0  0  0  0  0  0  0  0  0  0  0  0
   37.1130   30.5390   37.5340 C   0  0  0  0  0  0  0  0  0  0  0  0
   37.5780   31.8010   37.8520 C   0  0  0  0  0  0  0  0  0  0  0  0
   37.2810   31.9740   39.1910 C   0  0  0  0  0  0  0  0  0  0  0  0
   35.1494   30.5391   41.0623 H   0  0  0  0  0  0  0  0  0  0  0  0
   36.4392   31.7017   41.5591 H   0  0  0  0  0  0  0  0  0  0  0  0
   38.7274   30.7969   42.2648 H   0  0  0  0  0  0  0  0  0  0  0  0
   39.8123   28.8333   43.4016 H   0  0  0  0  0  0  0  0  0  0  0  0
   36.3994   26.4626   42.4344 H   0  0  0  0  0  0  0  0  0  0  0  0
   37.1675   30.0397   36.5554 H   0  0  0  0  0  0  0  0  0  0  0  0
   38.0781   32.5159   37.1820 H   0  0  0  0  0  0  0  0  0  0  0  0
   37.5116   32.8734   39.7809 H   0  0  0  0  0  0  0  0  0  0  0  0
  1  2  1  0
  2  7  1  0
  2  3  2  0
  3  4  1  0
  4  5  2  0
  6  5  1  0
  7  6  2  0
  8  1  1  0
  9  8  1  0
 10 11  1  0
 10  9  2  0
 11 12  2  0
 12  8  1  0
  1 13  1  0
  1 14  1  0
  3 15  1  0
  4 16  1  0
  6 17  1  0
 10 18  1  0
 11 19  1  0
 12 20  1  0
M  ISO  8  13   8  14   8  15  14  16  14  17  14  18  14  19  14  20  14
M  END
>  <minimizedAffinity>  (1) 
-3.58570647

>  <minimizedRMSD>  (1) 
3.03426003

$$$$
