
     RDKit          3D

 19 20  0  0  0  0  0  0  0  0999 V2000
   36.9510   29.6310   41.7710 C   0  0  0  0  0  0  0  0  0  0  0  0
   38.2080   29.7860   42.3720 C   0  0  0  0  0  0  0  0  0  0  0  0
   38.7880   28.6550   42.9690 C   0  0  0  0  0  0  0  0  0  0  0  0
   38.0980   27.4670   42.9320 N   0  0  0  0  0  0  0  0  0  0  0  0
   36.8940   27.3740   42.3420 C   0  0  0  0  0  0  0  0  0  0  0  0
   36.3310   28.4360   41.7710 N   0  0  0  0  0  0  0  0  0  0  0  0
   36.2400   30.7500   41.1090 C   0  0  0  0  0  0  0  0  0  0  0  0
   36.6570   30.8140   39.6830 C   0  0  0  0  0  0  0  0  0  0  0  0
   37.5030   31.8350   39.2820 C   0  0  0  0  0  0  0  0  0  0  0  0
   37.7500   31.5200   37.4550 S   0  0  0  0  0  0  0  0  0  0  0  0
   36.6110   30.0050   37.6010 C   0  0  0  0  0  0  0  0  0  0  0  0
   36.3420   30.0220   38.6840 N   0  0  0  0  0  0  0  0  0  0  0  0
   38.7216   30.7587   42.3758 H   0  0  0  0  0  0  0  0  0  0  0  0
   39.7726   28.7185   43.4554 H   0  0  0  0  0  0  0  0  0  0  0  0
   36.3675   26.4082   42.3310 H   0  0  0  0  0  0  0  0  0  0  0  0
   35.1543   30.5834   41.1684 H   0  0  0  0  0  0  0  0  0  0  0  0
   36.4886   31.6966   41.6112 H   0  0  0  0  0  0  0  0  0  0  0  0
   37.9299   32.6425   39.8950 H   0  0  0  0  0  0  0  0  0  0  0  0
   36.2982   29.2957   36.8206 H   0  0  0  0  0  0  0  0  0  0  0  0
  1  6  1  0
  1  2  2  0
  2  3  1  0
  4  3  2  0
  5  4  1  0
  6  5  2  0
  7  1  1  0
  8  7  1  0
  9  8  2  0
 10 11  1  0
 10  9  1  0
 11 12  2  0
 12  8  1  0
  2 13  1  0
  3 14  1  0
  5 15  1  0
  7 16  1  0
  7 17  1  0
  9 18  1  0
 11 19  1  0
M  ISO  7  13  14  14  14  15  14  16   8  17   8  18  14  19  14
M  END
>  <minimizedAffinity>  (1) 
-3.51419115

>  <minimizedRMSD>  (1) 
2.96236062

$$$$
