
     RDKit          3D

 19 20  0  0  0  0  0  0  0  0999 V2000
   36.9560   29.6430   41.7280 C   0  0  0  0  0  0  0  0  0  0  0  0
   38.2320   29.8180   42.2640 C   0  0  0  0  0  0  0  0  0  0  0  0
   38.8680   28.7160   42.8290 C   0  0  0  0  0  0  0  0  0  0  0  0
   38.2160   27.5070   42.8360 N   0  0  0  0  0  0  0  0  0  0  0  0
   36.9790   27.3850   42.3050 C   0  0  0  0  0  0  0  0  0  0  0  0
   36.3480   28.4420   41.7530 N   0  0  0  0  0  0  0  0  0  0  0  0
   36.1820   30.7390   41.1020 C   0  0  0  0  0  0  0  0  0  0  0  0
   36.7000   31.0920   39.7900 N   0  0  0  0  0  0  0  0  0  0  0  0
   37.2060   32.2500   39.3090 C   0  0  0  0  0  0  0  0  0  0  0  0
   37.5490   32.0470   38.0180 N   0  0  0  0  0  0  0  0  0  0  0  0
   37.2660   30.7740   37.6790 C   0  0  0  0  0  0  0  0  0  0  0  0
   36.7490   30.2270   38.7920 N   0  0  0  0  0  0  0  0  0  0  0  0
   38.7232   30.8019   42.2408 H   0  0  0  0  0  0  0  0  0  0  0  0
   39.8746   28.8117   43.2621 H   0  0  0  0  0  0  0  0  0  0  0  0
   36.4777   26.4061   42.3233 H   0  0  0  0  0  0  0  0  0  0  0  0
   35.1350   30.4187   40.9959 H   0  0  0  0  0  0  0  0  0  0  0  0
   36.2637   31.6249   41.7489 H   0  0  0  0  0  0  0  0  0  0  0  0
   37.3184   33.1900   39.8691 H   0  0  0  0  0  0  0  0  0  0  0  0
   37.4237   30.2888   36.7045 H   0  0  0  0  0  0  0  0  0  0  0  0
  1  6  1  0
  1  2  2  0
  2  3  1  0
  3  4  2  0
  5  4  1  0
  6  5  2  0
  7  1  1  0
  8  7  1  0
  9  8  1  0
 10  9  2  0
 11 10  1  0
 11 12  2  0
 12  8  1  0
  2 13  1  0
  3 14  1  0
  5 15  1  0
  7 16  1  0
  7 17  1  0
  9 18  1  0
 11 19  1  0
M  ISO  7  13  14  14  14  15  14  16   8  17   8  18  14  19  14
M  END
>  <minimizedAffinity>  (1) 
-3.46515393

>  <minimizedRMSD>  (1) 
3.25209641

$$$$
