
     RDKit          3D

 14 14  0  0  0  0  0  0  0  0999 V2000
   36.7220   29.3270   41.4420 C   0  0  0  0  0  0  0  0  0  0  0  0
   37.5750   30.3430   41.0070 C   0  0  0  0  0  0  0  0  0  0  0  0
   38.7110   30.6080   41.7690 C   0  0  0  0  0  0  0  0  0  0  0  0
   38.9450   29.8700   42.9040 N   0  0  0  0  0  0  0  0  0  0  0  0
   38.0800   28.8960   43.2750 C   0  0  0  0  0  0  0  0  0  0  0  0
   36.9770   28.6150   42.5640 N   0  0  0  0  0  0  0  0  0  0  0  0
   35.4840   28.9450   40.7280 C   0  0  0  0  0  0  0  0  0  0  0  0
   35.9820   28.0500   39.2310 S   0  0  0  0  0  0  0  0  0  0  0  0
   37.3575   30.9153   40.0931 H   0  0  0  0  0  0  0  0  0  0  0  0
   39.4125   31.3990   41.4653 H   0  0  0  0  0  0  0  0  0  0  0  0
   38.2880   28.3175   44.1872 H   0  0  0  0  0  0  0  0  0  0  0  0
   34.8656   28.2968   41.3663 H   0  0  0  0  0  0  0  0  0  0  0  0
   34.8909   29.8352   40.4714 H   0  0  0  0  0  0  0  0  0  0  0  0
   36.6257   26.8931   39.5835 H   0  0  0  0  0  0  0  0  0  0  0  0
  1  6  2  0
  2  1  1  0
  2  3  2  0
  3  4  1  0
  4  5  2  0
  6  5  1  0
  7  1  1  0
  8  7  1  0
  2  9  1  0
  3 10  1  0
  5 11  1  0
  7 12  1  0
  7 13  1  0
  8 14  1  0
M  ISO  6   9  14  10  14  11  14  12   8  13   8  14  11
M  END
>  <minimizedAffinity>  (1) 
-2.33733153

>  <minimizedRMSD>  (1) 
0.170951888

$$$$
