
     RDKit          3D

 30 32  0  0  0  0  0  0  0  0999 V2000
   37.8890   31.4910   39.9420 N   0  0  0  0  0  0  0  0  0  0  0  0
   38.0480   30.6730   38.8860 C   0  0  0  0  0  0  0  0  0  0  0  0
   38.9940   30.9060   37.9160 C   0  0  0  0  0  0  0  0  0  0  0  0
   39.8130   32.0060   38.0080 C   0  0  0  0  0  0  0  0  0  0  0  0
   40.6950   32.2730   37.1560 O   0  0  0  0  0  0  0  0  0  0  0  0
   39.6180   32.7900   39.0750 N   0  0  0  0  0  0  0  0  0  0  0  0
   38.6950   32.5740   40.0330 C   0  0  0  0  0  0  0  0  0  0  0  0
   38.5030   33.3020   41.0370 O   0  0  0  0  0  0  0  0  0  0  0  0
   40.3920   33.9630   39.3020 C   0  0  0  0  0  0  0  0  0  0  0  0
   39.8050   35.0100   39.9940 C   0  0  0  0  0  0  0  0  0  0  0  0
   40.7820   36.0090   40.0660 C   0  0  0  0  0  0  0  0  0  0  0  0
   41.8980   35.5490   39.4320 N   0  0  0  0  0  0  0  0  0  0  0  0
   41.6620   34.3330   38.9800 N   0  0  0  0  0  0  0  0  0  0  0  0
   36.8510   31.1210   40.8870 C   0  0  0  0  0  0  0  0  0  0  0  0
   37.2080   29.9230   41.6460 C   0  0  0  0  0  0  0  0  0  0  0  0
   38.3330   29.8550   42.4410 C   0  0  0  0  0  0  0  0  0  0  0  0
   38.6190   28.6830   43.1400 C   0  0  0  0  0  0  0  0  0  0  0  0
   37.7610   27.6330   43.0080 N   0  0  0  0  0  0  0  0  0  0  0  0
   36.6580   27.7250   42.2180 C   0  0  0  0  0  0  0  0  0  0  0  0
   36.3940   28.8410   41.5570 N   0  0  0  0  0  0  0  0  0  0  0  0
   37.3999   29.7888   38.7956 H   0  0  0  0  0  0  0  0  0  0  0  0
   39.0953   30.2132   37.0676 H   0  0  0  0  0  0  0  0  0  0  0  0
   38.7840   35.0479   40.4017 H   0  0  0  0  0  0  0  0  0  0  0  0
   40.6697   36.9912   40.5485 H   0  0  0  0  0  0  0  0  0  0  0  0
   42.7816   36.0671   39.3237 H   0  0  0  0  0  0  0  0  0  0  0  0
   36.6954   31.9537   41.5888 H   0  0  0  0  0  0  0  0  0  0  0  0
   35.9338   30.9049   40.3195 H   0  0  0  0  0  0  0  0  0  0  0  0
   39.0031   30.7234   42.5234 H   0  0  0  0  0  0  0  0  0  0  0  0
   39.5111   28.6083   43.7792 H   0  0  0  0  0  0  0  0  0  0  0  0
   35.9791   26.8643   42.1275 H   0  0  0  0  0  0  0  0  0  0  0  0
  1  7  1  0
  1 14  1  0
  2  1  1  0
  3  4  1  0
  3  2  2  0
  4  6  1  0
  5  4  2  0
  6  9  1  0
  6  7  1  0
  7  8  2  0
  9 10  1  0
 10 11  2  0
 12 11  1  0
 13  9  2  0
 13 12  1  0
 14 15  1  0
 15 16  2  0
 16 17  1  0
 18 17  2  0
 19 18  1  0
 20 15  1  0
 20 19  2  0
  2 21  1  0
  3 22  1  0
 10 23  1  0
 11 24  1  0
 12 25  1  0
 14 26  1  0
 14 27  1  0
 16 28  1  0
 17 29  1  0
 19 30  1  0
M  ISO  8  21  14  22  14  23  14  24  14  25   9  26   8  27   8  28  14
M  ISO  2  29  14  30  14
M  END
>  <minimizedAffinity>  (1) 
-5.6551795

>  <minimizedRMSD>  (1) 
0.166830316

$$$$
