
     RDKit          3D

 38 40  0  0  0  0  0  0  0  0999 V2000
   37.7100   31.3270   40.0820 N   0  0  0  0  0  0  0  0  0  0  0  0
   37.7720   30.6290   38.9180 C   0  0  0  0  0  0  0  0  0  0  0  0
   38.6720   30.9330   37.9240 C   0  0  0  0  0  0  0  0  0  0  0  0
   39.5490   31.9820   38.1030 C   0  0  0  0  0  0  0  0  0  0  0  0
   40.3910   32.3080   37.2360 O   0  0  0  0  0  0  0  0  0  0  0  0
   39.4500   32.6500   39.2790 N   0  0  0  0  0  0  0  0  0  0  0  0
   38.5770   32.3550   40.2440 C   0  0  0  0  0  0  0  0  0  0  0  0
   38.4700   32.9570   41.3360 O   0  0  0  0  0  0  0  0  0  0  0  0
   41.8560   35.7340   39.8490 N   0  0  0  0  0  0  0  0  0  0  0  0
   42.0150   34.7880   40.9310 C   0  0  0  0  0  0  0  0  0  0  0  0
   41.5120   33.4420   40.3960 C   0  0  0  0  0  0  0  0  0  0  0  0
   40.3500   33.7590   39.5120 C   0  0  0  0  0  0  0  0  0  0  0  0
   39.5850   34.9820   40.0380 C   0  0  0  0  0  0  0  0  0  0  0  0
   40.4580   36.1820   39.7980 C   0  0  0  0  0  0  0  0  0  0  0  0
   36.7040   30.8800   41.0310 C   0  0  0  0  0  0  0  0  0  0  0  0
   37.1370   29.6820   41.7510 C   0  0  0  0  0  0  0  0  0  0  0  0
   38.2530   29.6590   42.5600 C   0  0  0  0  0  0  0  0  0  0  0  0
   38.6240   28.4880   43.2270 C   0  0  0  0  0  0  0  0  0  0  0  0
   37.8360   27.3790   43.0400 N   0  0  0  0  0  0  0  0  0  0  0  0
   36.7440   27.4320   42.2380 C   0  0  0  0  0  0  0  0  0  0  0  0
   36.4040   28.5480   41.6120 N   0  0  0  0  0  0  0  0  0  0  0  0
   37.0769   29.7902   38.7653 H   0  0  0  0  0  0  0  0  0  0  0  0
   38.6923   30.3449   36.9946 H   0  0  0  0  0  0  0  0  0  0  0  0
   42.4716   36.5445   40.0072 H   0  0  0  0  0  0  0  0  0  0  0  0
   43.0738   34.7125   41.2197 H   0  0  0  0  0  0  0  0  0  0  0  0
   41.4539   35.1006   41.8240 H   0  0  0  0  0  0  0  0  0  0  0  0
   42.3037   32.9392   39.8212 H   0  0  0  0  0  0  0  0  0  0  0  0
   41.2234   32.7655   41.2140 H   0  0  0  0  0  0  0  0  0  0  0  0
   40.7854   33.9905   38.5287 H   0  0  0  0  0  0  0  0  0  0  0  0
   38.6330   35.0932   39.4982 H   0  0  0  0  0  0  0  0  0  0  0  0
   39.3549   34.8712   41.1079 H   0  0  0  0  0  0  0  0  0  0  0  0
   40.2781   36.9380   40.5765 H   0  0  0  0  0  0  0  0  0  0  0  0
   40.2331   36.6329   38.8202 H   0  0  0  0  0  0  0  0  0  0  0  0
   36.5160   31.6845   41.7573 H   0  0  0  0  0  0  0  0  0  0  0  0
   35.7892   30.6335   40.4720 H   0  0  0  0  0  0  0  0  0  0  0  0
   38.8569   30.5703   42.6817 H   0  0  0  0  0  0  0  0  0  0  0  0
   39.5117   28.4561   43.8758 H   0  0  0  0  0  0  0  0  0  0  0  0
   36.1285   26.5301   42.1048 H   0  0  0  0  0  0  0  0  0  0  0  0
  1  7  1  0
  1 15  1  0
  2  1  1  0
  3  4  1  0
  3  2  2  0
  4  6  1  0
  5  4  2  0
  6 12  1  0
  6  7  1  0
  7  8  2  0
  9 10  1  0
 11 10  1  0
 12 13  1  0
 12 11  1  0
 14  9  1  0
 14 13  1  0
 15 16  1  0
 16 17  2  0
 17 18  1  0
 19 18  2  0
 20 19  1  0
 21 16  1  0
 21 20  2  0
  2 22  1  0
  3 23  1  0
  9 24  1  0
 10 25  1  0
 10 26  1  0
 11 27  1  0
 11 28  1  0
 12 29  1  0
 13 30  1  0
 13 31  1  0
 14 32  1  0
 14 33  1  0
 15 34  1  0
 15 35  1  0
 17 36  1  0
 18 37  1  0
 20 38  1  0
M  ISO  8  22  14  23  14  24   5  25  13  26  13  27  13  28  13  29  13
M  ISO  8  30  13  31  13  32  13  33  13  34   8  35   8  36  14  37  14
M  ISO  1  38  14
M  END
>  <minimizedAffinity>  (1) 
-5.56851006

>  <minimizedRMSD>  (1) 
0.641662896

$$$$
