
     RDKit          3D

 36 38  0  0  0  0  0  0  0  0999 V2000
   38.4380   32.4050   39.2060 N   0  0  0  0  0  0  0  0  0  0  0  0
   38.8730   31.9620   38.0070 C   0  0  0  0  0  0  0  0  0  0  0  0
   40.1940   32.0540   37.6270 C   0  0  0  0  0  0  0  0  0  0  0  0
   41.1110   32.6130   38.4860 C   0  0  0  0  0  0  0  0  0  0  0  0
   42.3230   32.7140   38.1740 O   0  0  0  0  0  0  0  0  0  0  0  0
   40.6340   33.0460   39.6770 N   0  0  0  0  0  0  0  0  0  0  0  0
   39.3450   32.9510   40.0390 C   0  0  0  0  0  0  0  0  0  0  0  0
   38.8890   33.3460   41.1360 O   0  0  0  0  0  0  0  0  0  0  0  0
   43.1740   35.1880   42.2080 C   0  0  0  0  0  0  0  0  0  0  0  0
   43.3160   33.8160   42.1810 C   0  0  0  0  0  0  0  0  0  0  0  0
   42.5200   33.0290   41.3750 C   0  0  0  0  0  0  0  0  0  0  0  0
   41.5670   33.6290   40.5850 C   0  0  0  0  0  0  0  0  0  0  0  0
   41.4150   35.0200   40.6020 C   0  0  0  0  0  0  0  0  0  0  0  0
   42.2250   35.8080   41.4210 C   0  0  0  0  0  0  0  0  0  0  0  0
   44.2160   36.1370   43.2530 S   0  0  0  0  0  0  0  0  0  0  0  0
   43.3520   36.9490   44.1920 O   0  0  0  0  0  0  0  0  0  0  0  0
   45.1130   35.2790   44.0920 O   0  0  0  0  0  0  0  0  0  0  0  0
   37.0180   32.2410   39.4650 C   0  0  0  0  0  0  0  0  0  0  0  0
   36.6940   30.8810   39.8920 C   0  0  0  0  0  0  0  0  0  0  0  0
   36.9510   30.4260   41.1670 C   0  0  0  0  0  0  0  0  0  0  0  0
   36.6210   29.1160   41.5280 C   0  0  0  0  0  0  0  0  0  0  0  0
   36.0400   28.3220   40.5610 N   0  0  0  0  0  0  0  0  0  0  0  0
   35.8020   28.8000   39.3180 C   0  0  0  0  0  0  0  0  0  0  0  0
   36.1180   30.0530   38.9800 N   0  0  0  0  0  0  0  0  0  0  0  0
   38.1491   31.5131   37.3110 H   0  0  0  0  0  0  0  0  0  0  0  0
   40.5135   31.6825   36.6422 H   0  0  0  0  0  0  0  0  0  0  0  0
   44.0790   33.3403   42.8147 H   0  0  0  0  0  0  0  0  0  0  0  0
   42.6456   31.9362   41.3641 H   0  0  0  0  0  0  0  0  0  0  0  0
   40.6530   35.4949   39.9665 H   0  0  0  0  0  0  0  0  0  0  0  0
   42.1092   36.9017   41.4388 H   0  0  0  0  0  0  0  0  0  0  0  0
   44.9936   36.9287   42.4496 H   0  0  0  0  0  0  0  0  0  0  0  0
   36.7178   32.9431   40.2568 H   0  0  0  0  0  0  0  0  0  0  0  0
   36.4759   32.4421   38.5292 H   0  0  0  0  0  0  0  0  0  0  0  0
   37.4177   31.0961   41.9040 H   0  0  0  0  0  0  0  0  0  0  0  0
   36.8166   28.7344   42.5410 H   0  0  0  0  0  0  0  0  0  0  0  0
   35.3378   28.1419   38.5687 H   0  0  0  0  0  0  0  0  0  0  0  0
  1 18  1  0
  1  7  1  0
  2  1  1  0
  3  2  2  0
  3  4  1  0
  4  6  1  0
  5  4  2  0
  6  7  1  0
  6 12  1  0
  7  8  2  0
  9 15  1  0
 10  9  2  0
 11 10  1  0
 12 13  1  0
 12 11  2  0
 13 14  2  0
 14  9  1  0
 15 17  2  0
 15 16  2  0
 18 19  1  0
 19 20  2  0
 20 21  1  0
 22 21  2  0
 23 22  1  0
 24 23  2  0
 24 19  1  0
  2 25  1  0
  3 26  1  0
 10 27  1  0
 11 28  1  0
 13 29  1  0
 14 30  1  0
 15 31  1  0
 18 32  1  0
 18 33  1  0
 20 34  1  0
 21 35  1  0
 23 36  1  0
M  ISO  8  25  14  26  14  27  14  28  14  29  14  30  14  31  11  32   8
M  ISO  4  33   8  34  14  35  14  36  14
M  END
>  <minimizedAffinity>  (1) 
-5.5173111

>  <minimizedRMSD>  (1) 
2.75864506

$$$$
