
     RDKit          3D

 32 34  0  0  0  0  0  0  0  0999 V2000
   36.1290   29.8030   39.7640 N   0  0  0  0  0  0  0  0  0  0  0  0
   36.0000   29.4650   38.4630 C   0  0  0  0  0  0  0  0  0  0  0  0
   36.6230   30.1680   37.4570 C   0  0  0  0  0  0  0  0  0  0  0  0
   37.4100   31.2560   37.7670 C   0  0  0  0  0  0  0  0  0  0  0  0
   37.9940   31.9240   36.8880 O   0  0  0  0  0  0  0  0  0  0  0  0
   37.5130   31.5610   39.0710 N   0  0  0  0  0  0  0  0  0  0  0  0
   36.9020   30.8740   40.0630 C   0  0  0  0  0  0  0  0  0  0  0  0
   36.9890   31.1450   41.2840 O   0  0  0  0  0  0  0  0  0  0  0  0
   38.3120   32.6770   39.4520 C   0  0  0  0  0  0  0  0  0  0  0  0
   37.5960   33.8590   39.6430 C   0  0  0  0  0  0  0  0  0  0  0  0
   38.3140   34.9830   40.0150 C   0  0  0  0  0  0  0  0  0  0  0  0
   39.6790   34.8090   40.1580 C   0  0  0  0  0  0  0  0  0  0  0  0
   40.4020   33.6480   39.9740 C   0  0  0  0  0  0  0  0  0  0  0  0
   39.6460   32.5720   39.6080 N   0  0  0  0  0  0  0  0  0  0  0  0
   35.4160   28.9730   40.7100 C   0  0  0  0  0  0  0  0  0  0  0  0
   36.2790   27.9280   41.2750 C   0  0  0  0  0  0  0  0  0  0  0  0
   36.7530   27.9650   42.5660 C   0  0  0  0  0  0  0  0  0  0  0  0
   37.5670   26.9560   43.0590 C   0  0  0  0  0  0  0  0  0  0  0  0
   37.8730   25.9270   42.2060 N   0  0  0  0  0  0  0  0  0  0  0  0
   37.3930   25.9120   40.9360 C   0  0  0  0  0  0  0  0  0  0  0  0
   36.6190   26.8820   40.4810 N   0  0  0  0  0  0  0  0  0  0  0  0
   35.3760   28.5987   38.1983 H   0  0  0  0  0  0  0  0  0  0  0  0
   36.4931   29.8622   36.4084 H   0  0  0  0  0  0  0  0  0  0  0  0
   36.5055   33.8965   39.5038 H   0  0  0  0  0  0  0  0  0  0  0  0
   37.8286   35.9551   40.1864 H   0  0  0  0  0  0  0  0  0  0  0  0
   40.2546   35.6990   40.4524 H   0  0  0  0  0  0  0  0  0  0  0  0
   41.4922   33.5944   40.1104 H   0  0  0  0  0  0  0  0  0  0  0  0
   35.0410   29.6061   41.5277 H   0  0  0  0  0  0  0  0  0  0  0  0
   34.5870   28.4825   40.1787 H   0  0  0  0  0  0  0  0  0  0  0  0
   36.4820   28.8086   43.2179 H   0  0  0  0  0  0  0  0  0  0  0  0
   37.9505   26.9802   44.0897 H   0  0  0  0  0  0  0  0  0  0  0  0
   37.6538   25.0749   40.2717 H   0  0  0  0  0  0  0  0  0  0  0  0
  1  7  1  0
  1 15  1  0
  2  1  1  0
  3  4  1  0
  3  2  2  0
  4  6  1  0
  5  4  2  0
  6  9  1  0
  6  7  1  0
  7  8  2  0
  9 14  1  0
  9 10  2  0
 10 11  1  0
 11 12  2  0
 13 12  1  0
 14 13  2  0
 15 16  1  0
 16 17  2  0
 17 18  1  0
 19 18  2  0
 20 19  1  0
 21 20  2  0
 21 16  1  0
  2 22  1  0
  3 23  1  0
 10 24  1  0
 11 25  1  0
 12 26  1  0
 13 27  1  0
 15 28  1  0
 15 29  1  0
 17 30  1  0
 18 31  1  0
 20 32  1  0
M  ISO  8  22  14  23  14  24  14  25  14  26  14  27  14  28   8  29   8
M  ISO  3  30  14  31  14  32  14
M  END
>  <minimizedAffinity>  (1) 
-5.38693619

>  <minimizedRMSD>  (1) 
2.5147438

$$$$
