
     RDKit          3D

 39 41  0  0  0  0  0  0  0  0999 V2000
   38.2100   32.3930   39.2320 N   0  0  0  0  0  0  0  0  0  0  0  0
   38.8960   31.6940   38.2880 C   0  0  0  0  0  0  0  0  0  0  0  0
   40.2170   31.9480   38.0170 C   0  0  0  0  0  0  0  0  0  0  0  0
   40.8870   32.9390   38.7110 C   0  0  0  0  0  0  0  0  0  0  0  0
   42.0900   33.1920   38.4870 O   0  0  0  0  0  0  0  0  0  0  0  0
   40.1840   33.6060   39.6310 N   0  0  0  0  0  0  0  0  0  0  0  0
   38.8780   33.3620   39.9070 C   0  0  0  0  0  0  0  0  0  0  0  0
   38.1970   33.9680   40.7580 O   0  0  0  0  0  0  0  0  0  0  0  0
   40.8080   34.6600   40.4050 C   0  0  0  0  0  0  0  0  0  0  0  0
   40.9160   35.9540   39.6290 C   0  0  0  0  0  0  0  0  0  0  0  0
   41.0090   37.0520   40.6910 C   0  0  0  0  0  0  0  0  0  0  0  0
   41.6920   36.5560   41.9290 C   0  0  0  0  0  0  0  0  0  0  0  0
   42.7030   35.4790   41.6800 C   0  0  0  0  0  0  0  0  0  0  0  0
   42.2070   34.3250   40.8610 C   0  0  0  0  0  0  0  0  0  0  0  0
   36.8240   32.0160   39.4170 C   0  0  0  0  0  0  0  0  0  0  0  0
   36.7050   30.8080   40.2400 C   0  0  0  0  0  0  0  0  0  0  0  0
   37.5260   30.5330   41.3140 C   0  0  0  0  0  0  0  0  0  0  0  0
   37.3590   29.3670   42.0520 C   0  0  0  0  0  0  0  0  0  0  0  0
   36.3580   28.5150   41.6750 N   0  0  0  0  0  0  0  0  0  0  0  0
   35.5640   28.8040   40.6190 C   0  0  0  0  0  0  0  0  0  0  0  0
   35.7360   29.9180   39.9260 N   0  0  0  0  0  0  0  0  0  0  0  0
   38.3774   30.9031   37.7262 H   0  0  0  0  0  0  0  0  0  0  0  0
   40.7430   31.3634   37.2478 H   0  0  0  0  0  0  0  0  0  0  0  0
   40.1446   34.7698   41.2755 H   0  0  0  0  0  0  0  0  0  0  0  0
   41.8166   35.9510   38.9973 H   0  0  0  0  0  0  0  0  0  0  0  0
   40.0579   36.1034   38.9571 H   0  0  0  0  0  0  0  0  0  0  0  0
   41.5796   37.8988   40.2818 H   0  0  0  0  0  0  0  0  0  0  0  0
   39.9885   37.3633   40.9587 H   0  0  0  0  0  0  0  0  0  0  0  0
   42.2027   37.4056   42.4058 H   0  0  0  0  0  0  0  0  0  0  0  0
   40.9114   36.1168   42.5676 H   0  0  0  0  0  0  0  0  0  0  0  0
   43.5586   35.9283   41.1545 H   0  0  0  0  0  0  0  0  0  0  0  0
   42.9650   35.0677   42.6660 H   0  0  0  0  0  0  0  0  0  0  0  0
   42.1940   33.4097   41.4710 H   0  0  0  0  0  0  0  0  0  0  0  0
   42.8651   34.1524   39.9967 H   0  0  0  0  0  0  0  0  0  0  0  0
   36.2915   32.8410   39.9127 H   0  0  0  0  0  0  0  0  0  0  0  0
   36.3864   31.8075   38.4295 H   0  0  0  0  0  0  0  0  0  0  0  0
   38.3200   31.2429   41.5888 H   0  0  0  0  0  0  0  0  0  0  0  0
   38.0092   29.1377   42.9091 H   0  0  0  0  0  0  0  0  0  0  0  0
   34.7651   28.1041   40.3326 H   0  0  0  0  0  0  0  0  0  0  0  0
  1 15  1  0
  1  7  1  0
  2  1  1  0
  3  2  2  0
  3  4  1  0
  4  6  1  0
  5  4  2  0
  6  7  1  0
  6  9  1  0
  7  8  2  0
  9 14  1  0
 10  9  1  0
 10 11  1  0
 11 12  1  0
 13 12  1  0
 14 13  1  0
 15 16  1  0
 16 17  2  0
 17 18  1  0
 19 18  2  0
 20 19  1  0
 21 16  1  0
 21 20  2  0
  2 22  1  0
  3 23  1  0
  9 24  1  0
 10 25  1  0
 10 26  1  0
 11 27  1  0
 11 28  1  0
 12 29  1  0
 12 30  1  0
 13 31  1  0
 13 32  1  0
 14 33  1  0
 14 34  1  0
 15 35  1  0
 15 36  1  0
 17 37  1  0
 18 38  1  0
 20 39  1  0
M  ISO  8  22  14  23  14  24  13  25  13  26  13  27  13  28  13  29  13
M  ISO  8  30  13  31  13  32  13  33  13  34  13  35   8  36   8  37  14
M  ISO  2  38  14  39  14
M  END
>  <minimizedAffinity>  (1) 
-5.36993217

>  <minimizedRMSD>  (1) 
1.76553762

$$$$
