
     RDKit          3D

 28 30  0  0  0  0  0  0  0  0999 V2000
   37.7640   31.3700   39.9640 N   0  0  0  0  0  0  0  0  0  0  0  0
   37.9230   30.5630   38.9020 C   0  0  0  0  0  0  0  0  0  0  0  0
   38.8570   30.8140   37.9180 C   0  0  0  0  0  0  0  0  0  0  0  0
   39.6620   31.9220   38.0100 C   0  0  0  0  0  0  0  0  0  0  0  0
   40.5290   32.2060   37.1510 O   0  0  0  0  0  0  0  0  0  0  0  0
   39.4670   32.6940   39.0850 N   0  0  0  0  0  0  0  0  0  0  0  0
   38.5570   32.4610   40.0560 C   0  0  0  0  0  0  0  0  0  0  0  0
   38.3750   33.1870   41.0650 O   0  0  0  0  0  0  0  0  0  0  0  0
   40.2410   33.8850   39.3060 C   0  0  0  0  0  0  0  0  0  0  0  0
   41.4830   34.3110   39.0210 N   0  0  0  0  0  0  0  0  0  0  0  0
   41.6070   35.5010   39.4860 O   0  0  0  0  0  0  0  0  0  0  0  0
   40.5210   35.9180   40.0750 C   0  0  0  0  0  0  0  0  0  0  0  0
   39.6270   34.9000   39.9750 N   0  0  0  0  0  0  0  0  0  0  0  0
   36.7420   30.9860   40.9270 C   0  0  0  0  0  0  0  0  0  0  0  0
   37.1360   29.8100   41.6880 C   0  0  0  0  0  0  0  0  0  0  0  0
   38.2550   29.7770   42.4930 C   0  0  0  0  0  0  0  0  0  0  0  0
   38.5790   28.6190   43.1990 C   0  0  0  0  0  0  0  0  0  0  0  0
   37.7550   27.5330   43.0610 N   0  0  0  0  0  0  0  0  0  0  0  0
   36.6580   27.5940   42.2600 C   0  0  0  0  0  0  0  0  0  0  0  0
   36.3620   28.7000   41.5980 N   0  0  0  0  0  0  0  0  0  0  0  0
   37.2861   29.6705   38.8137 H   0  0  0  0  0  0  0  0  0  0  0  0
   38.9562   30.1289   37.0631 H   0  0  0  0  0  0  0  0  0  0  0  0
   40.3613   36.8948   40.5549 H   0  0  0  0  0  0  0  0  0  0  0  0
   36.5753   31.8217   41.6226 H   0  0  0  0  0  0  0  0  0  0  0  0
   35.8222   30.7449   40.3739 H   0  0  0  0  0  0  0  0  0  0  0  0
   38.8947   30.6678   42.5786 H   0  0  0  0  0  0  0  0  0  0  0  0
   39.4677   28.5786   43.8460 H   0  0  0  0  0  0  0  0  0  0  0  0
   36.0082   26.7119   42.1613 H   0  0  0  0  0  0  0  0  0  0  0  0
  1  7  1  0
  1 14  1  0
  2  1  1  0
  3  4  1  0
  3  2  2  0
  4  6  1  0
  5  4  2  0
  6  9  1  0
  6  7  1  0
  7  8  2  0
  9 13  1  0
 10  9  2  0
 10 11  1  0
 11 12  1  0
 13 12  2  0
 14 15  1  0
 15 16  2  0
 16 17  1  0
 18 17  2  0
 19 18  1  0
 20 15  1  0
 20 19  2  0
  2 21  1  0
  3 22  1  0
 12 23  1  0
 14 24  1  0
 14 25  1  0
 16 26  1  0
 17 27  1  0
 19 28  1  0
M  ISO  8  21  14  22  14  23  14  24   8  25   8  26  14  27  14  28  14
M  END
>  <minimizedAffinity>  (1) 
-5.31455898

>  <minimizedRMSD>  (1) 
0.228970245

$$$$
