
     RDKit          3D

 36 38  0  0  0  0  0  0  0  0999 V2000
   37.9430   31.5870   39.9710 N   0  0  0  0  0  0  0  0  0  0  0  0
   38.0420   30.7780   38.8870 C   0  0  0  0  0  0  0  0  0  0  0  0
   38.9910   30.9920   37.8910 C   0  0  0  0  0  0  0  0  0  0  0  0
   39.8630   32.0650   38.0070 C   0  0  0  0  0  0  0  0  0  0  0  0
   40.7160   32.2680   37.1250 O   0  0  0  0  0  0  0  0  0  0  0  0
   39.7300   32.8370   39.0900 N   0  0  0  0  0  0  0  0  0  0  0  0
   38.8070   32.6270   40.0570 C   0  0  0  0  0  0  0  0  0  0  0  0
   38.6700   33.3360   41.0730 O   0  0  0  0  0  0  0  0  0  0  0  0
   40.5990   33.9810   39.2920 C   0  0  0  0  0  0  0  0  0  0  0  0
   41.7420   33.6830   40.2300 C   0  0  0  0  0  0  0  0  0  0  0  0
   41.9440   34.8820   41.1160 C   0  0  0  0  0  0  0  0  0  0  0  0
   41.0620   35.9540   40.5500 C   0  0  0  0  0  0  0  0  0  0  0  0
   39.9120   35.1260   39.9650 C   0  0  0  0  0  0  0  0  0  0  0  0
   36.9140   31.2320   40.9220 C   0  0  0  0  0  0  0  0  0  0  0  0
   37.2600   30.0100   41.6500 C   0  0  0  0  0  0  0  0  0  0  0  0
   38.3830   29.8800   42.4370 C   0  0  0  0  0  0  0  0  0  0  0  0
   38.6530   28.6860   43.1020 C   0  0  0  0  0  0  0  0  0  0  0  0
   37.7530   27.6530   42.9370 N   0  0  0  0  0  0  0  0  0  0  0  0
   36.6580   27.8040   42.1590 C   0  0  0  0  0  0  0  0  0  0  0  0
   36.4270   28.9490   41.5390 N   0  0  0  0  0  0  0  0  0  0  0  0
   37.3516   29.9270   38.7918 H   0  0  0  0  0  0  0  0  0  0  0  0
   39.0487   30.3188   37.0230 H   0  0  0  0  0  0  0  0  0  0  0  0
   40.9283   34.2224   38.2706 H   0  0  0  0  0  0  0  0  0  0  0  0
   41.5010   32.8024   40.8435 H   0  0  0  0  0  0  0  0  0  0  0  0
   42.6584   33.4721   39.6593 H   0  0  0  0  0  0  0  0  0  0  0  0
   41.6502   34.6492   42.1502 H   0  0  0  0  0  0  0  0  0  0  0  0
   42.9983   35.1947   41.1440 H   0  0  0  0  0  0  0  0  0  0  0  0
   40.7062   36.6377   41.3349 H   0  0  0  0  0  0  0  0  0  0  0  0
   41.5618   36.6067   39.8192 H   0  0  0  0  0  0  0  0  0  0  0  0
   39.3341   35.7169   39.2392 H   0  0  0  0  0  0  0  0  0  0  0  0
   39.1930   34.7986   40.7304 H   0  0  0  0  0  0  0  0  0  0  0  0
   36.7919   32.0551   41.6415 H   0  0  0  0  0  0  0  0  0  0  0  0
   35.9788   31.0543   40.3708 H   0  0  0  0  0  0  0  0  0  0  0  0
   39.0747   30.7289   42.5416 H   0  0  0  0  0  0  0  0  0  0  0  0
   39.5469   28.5714   43.7327 H   0  0  0  0  0  0  0  0  0  0  0  0
   35.9533   26.9677   42.0406 H   0  0  0  0  0  0  0  0  0  0  0  0
  1  7  1  0
  1 14  1  0
  2  1  1  0
  3  4  1  0
  3  2  2  0
  4  6  1  0
  5  4  2  0
  6  9  1  0
  6  7  1  0
  7  8  2  0
  9 13  1  0
  9 10  1  0
 10 11  1  0
 12 11  1  0
 13 12  1  0
 14 15  1  0
 15 16  2  0
 16 17  1  0
 18 17  2  0
 19 18  1  0
 20 15  1  0
 20 19  2  0
  2 21  1  0
  3 22  1  0
  9 23  1  0
 10 24  1  0
 10 25  1  0
 11 26  1  0
 11 27  1  0
 12 28  1  0
 12 29  1  0
 13 30  1  0
 13 31  1  0
 14 32  1  0
 14 33  1  0
 16 34  1  0
 17 35  1  0
 19 36  1  0
M  ISO  8  21  14  22  14  23  13  24  13  25  13  26  13  27  13  28  13
M  ISO  8  29  13  30  13  31  13  32   8  33   8  34  14  35  14  36  14
M  END
>  <minimizedAffinity>  (1) 
-5.17868185

>  <minimizedRMSD>  (1) 
0.277121127

$$$$
