
     RDKit          3D

 30 32  0  0  0  0  0  0  0  0999 V2000
   37.6400   31.2680   40.0710 N   0  0  0  0  0  0  0  0  0  0  0  0
   37.6920   30.5650   38.9060 C   0  0  0  0  0  0  0  0  0  0  0  0
   38.6060   30.8690   37.9050 C   0  0  0  0  0  0  0  0  0  0  0  0
   39.4860   31.9100   38.0910 C   0  0  0  0  0  0  0  0  0  0  0  0
   40.3210   32.2080   37.2110 O   0  0  0  0  0  0  0  0  0  0  0  0
   39.4090   32.5810   39.2460 N   0  0  0  0  0  0  0  0  0  0  0  0
   38.5200   32.2900   40.2260 C   0  0  0  0  0  0  0  0  0  0  0  0
   38.4170   32.8940   41.3210 O   0  0  0  0  0  0  0  0  0  0  0  0
   40.2760   33.6770   39.5350 C   0  0  0  0  0  0  0  0  0  0  0  0
   41.6330   33.7250   39.8650 C   0  0  0  0  0  0  0  0  0  0  0  0
   41.9580   35.0390   40.0400 N   0  0  0  0  0  0  0  0  0  0  0  0
   40.8450   35.7830   39.8280 C   0  0  0  0  0  0  0  0  0  0  0  0
   39.8460   34.9620   39.5260 N   0  0  0  0  0  0  0  0  0  0  0  0
   36.6430   30.8300   41.0190 C   0  0  0  0  0  0  0  0  0  0  0  0
   37.0910   29.6430   41.7610 C   0  0  0  0  0  0  0  0  0  0  0  0
   38.1920   29.6300   42.5900 C   0  0  0  0  0  0  0  0  0  0  0  0
   38.5490   28.4670   43.2520 C   0  0  0  0  0  0  0  0  0  0  0  0
   37.7810   27.3490   43.0560 N   0  0  0  0  0  0  0  0  0  0  0  0
   36.7070   27.3880   42.2380 C   0  0  0  0  0  0  0  0  0  0  0  0
   36.3770   28.5040   41.6120 N   0  0  0  0  0  0  0  0  0  0  0  0
   36.9899   29.7322   38.7531 H   0  0  0  0  0  0  0  0  0  0  0  0
   38.6259   30.2838   36.9738 H   0  0  0  0  0  0  0  0  0  0  0  0
   42.3118   32.8652   39.9650 H   0  0  0  0  0  0  0  0  0  0  0  0
   40.7804   36.8791   39.8947 H   0  0  0  0  0  0  0  0  0  0  0  0
   38.8826   35.2592   39.3152 H   0  0  0  0  0  0  0  0  0  0  0  0
   36.4456   31.6440   41.7321 H   0  0  0  0  0  0  0  0  0  0  0  0
   35.7307   30.5664   40.4639 H   0  0  0  0  0  0  0  0  0  0  0  0
   38.7880   30.5445   42.7260 H   0  0  0  0  0  0  0  0  0  0  0  0
   39.4250   28.4414   43.9169 H   0  0  0  0  0  0  0  0  0  0  0  0
   36.1010   26.4818   42.0914 H   0  0  0  0  0  0  0  0  0  0  0  0
  1  7  1  0
  1 14  1  0
  2  1  1  0
  3  4  1  0
  3  2  2  0
  4  6  1  0
  5  4  2  0
  6  9  1  0
  6  7  1  0
  7  8  2  0
  9 10  2  0
 10 11  1  0
 12 11  2  0
 13  9  1  0
 13 12  1  0
 14 15  1  0
 15 16  2  0
 16 17  1  0
 18 17  2  0
 19 18  1  0
 20 15  1  0
 20 19  2  0
  2 21  1  0
  3 22  1  0
 10 23  1  0
 12 24  1  0
 13 25  1  0
 14 26  1  0
 14 27  1  0
 16 28  1  0
 17 29  1  0
 19 30  1  0
M  ISO  8  21  14  22  14  23  14  24  14  25   9  26   8  27   8  28  14
M  ISO  2  29  14  30  14
M  END
>  <minimizedAffinity>  (1) 
-5.10071278

>  <minimizedRMSD>  (1) 
0.825662732

$$$$
