
     RDKit          3D

 30 32  0  0  0  0  0  0  0  0999 V2000
   37.6690   31.2030   40.2060 N   0  0  0  0  0  0  0  0  0  0  0  0
   37.6030   30.6450   38.9800 C   0  0  0  0  0  0  0  0  0  0  0  0
   38.4640   30.9840   37.9690 C   0  0  0  0  0  0  0  0  0  0  0  0
   39.4380   31.9270   38.1950 C   0  0  0  0  0  0  0  0  0  0  0  0
   40.2520   32.2710   37.2950 O   0  0  0  0  0  0  0  0  0  0  0  0
   39.4900   32.4710   39.4160 N   0  0  0  0  0  0  0  0  0  0  0  0
   38.6360   32.1330   40.4110 C   0  0  0  0  0  0  0  0  0  0  0  0
   38.6610   32.6250   41.5670 O   0  0  0  0  0  0  0  0  0  0  0  0
   40.4860   33.4550   39.6920 C   0  0  0  0  0  0  0  0  0  0  0  0
   40.1080   34.7940   39.6960 C   0  0  0  0  0  0  0  0  0  0  0  0
   41.2610   35.5180   39.9870 C   0  0  0  0  0  0  0  0  0  0  0  0
   42.2750   34.5690   40.1450 C   0  0  0  0  0  0  0  0  0  0  0  0
   41.7760   33.3670   39.9620 O   0  0  0  0  0  0  0  0  0  0  0  0
   36.6980   30.7410   41.1680 C   0  0  0  0  0  0  0  0  0  0  0  0
   37.1300   29.5080   41.8160 C   0  0  0  0  0  0  0  0  0  0  0  0
   38.1190   29.4550   42.7750 C   0  0  0  0  0  0  0  0  0  0  0  0
   38.4610   28.2390   43.3340 C   0  0  0  0  0  0  0  0  0  0  0  0
   37.8100   27.1050   42.9220 N   0  0  0  0  0  0  0  0  0  0  0  0
   36.8360   27.1870   41.9720 C   0  0  0  0  0  0  0  0  0  0  0  0
   36.5190   28.3570   41.4460 N   0  0  0  0  0  0  0  0  0  0  0  0
   36.8285   29.8889   38.7840 H   0  0  0  0  0  0  0  0  0  0  0  0
   38.3761   30.5044   36.9830 H   0  0  0  0  0  0  0  0  0  0  0  0
   39.1025   35.1984   39.5075 H   0  0  0  0  0  0  0  0  0  0  0  0
   41.3546   36.6105   40.0745 H   0  0  0  0  0  0  0  0  0  0  0  0
   43.3250   34.7929   40.3847 H   0  0  0  0  0  0  0  0  0  0  0  0
   36.5577   31.5172   41.9347 H   0  0  0  0  0  0  0  0  0  0  0  0
   35.7561   30.5392   40.6369 H   0  0  0  0  0  0  0  0  0  0  0  0
   38.6322   30.3746   43.0928 H   0  0  0  0  0  0  0  0  0  0  0  0
   39.2471   28.1812   44.1013 H   0  0  0  0  0  0  0  0  0  0  0  0
   36.3127   26.2773   41.6425 H   0  0  0  0  0  0  0  0  0  0  0  0
  1  7  1  0
  1 14  1  0
  2  1  1  0
  3  4  1  0
  3  2  2  0
  4  6  1  0
  5  4  2  0
  6  9  1  0
  6  7  1  0
  7  8  2  0
  9 10  2  0
  9 13  1  0
 10 11  1  0
 11 12  2  0
 13 12  1  0
 14 15  1  0
 15 16  2  0
 16 17  1  0
 18 17  2  0
 19 18  1  0
 20 15  1  0
 20 19  2  0
  2 21  1  0
  3 22  1  0
 10 23  1  0
 11 24  1  0
 12 25  1  0
 14 26  1  0
 14 27  1  0
 16 28  1  0
 17 29  1  0
 19 30  1  0
M  ISO  8  21  14  22  14  23  14  24  14  25  14  26   8  27   8  28  14
M  ISO  2  29  14  30  14
M  END
>  <minimizedAffinity>  (1) 
-4.83658171

>  <minimizedRMSD>  (1) 
0.838215828

$$$$
