
     RDKit          3D

 30 32  0  0  0  0  0  0  0  0999 V2000
   38.5760   31.5530   39.4680 N   0  0  0  0  0  0  0  0  0  0  0  0
   39.1200   31.1080   38.3220 C   0  0  0  0  0  0  0  0  0  0  0  0
   40.1550   31.7630   37.6900 C   0  0  0  0  0  0  0  0  0  0  0  0
   40.6650   32.9190   38.2390 C   0  0  0  0  0  0  0  0  0  0  0  0
   41.6010   33.5500   37.7050 O   0  0  0  0  0  0  0  0  0  0  0  0
   40.0960   33.3390   39.3880 N   0  0  0  0  0  0  0  0  0  0  0  0
   39.0800   32.6770   39.9880 C   0  0  0  0  0  0  0  0  0  0  0  0
   38.5440   33.0650   41.0650 O   0  0  0  0  0  0  0  0  0  0  0  0
   40.5690   34.5560   40.0450 C   0  0  0  0  0  0  0  0  0  0  0  0
   39.7930   35.7560   39.8960 C   0  0  0  0  0  0  0  0  0  0  0  0
   40.2610   36.8800   40.5220 C   0  0  0  0  0  0  0  0  0  0  0  0
   41.4920   36.8030   41.2900 C   0  0  0  0  0  0  0  0  0  0  0  0
   41.9170   34.9540   41.0250 S   0  0  0  0  0  0  0  0  0  0  0  0
   37.4980   30.7600   40.0130 C   0  0  0  0  0  0  0  0  0  0  0  0
   37.9980   29.6890   40.8810 C   0  0  0  0  0  0  0  0  0  0  0  0
   38.2480   29.8710   42.2220 C   0  0  0  0  0  0  0  0  0  0  0  0
   38.7240   28.8030   42.9820 C   0  0  0  0  0  0  0  0  0  0  0  0
   38.9250   27.6050   42.3590 N   0  0  0  0  0  0  0  0  0  0  0  0
   38.6690   27.4520   41.0230 C   0  0  0  0  0  0  0  0  0  0  0  0
   38.2170   28.4670   40.3040 N   0  0  0  0  0  0  0  0  0  0  0  0
   38.7240   30.1859   37.8715 H   0  0  0  0  0  0  0  0  0  0  0  0
   40.5713   31.3651   36.7528 H   0  0  0  0  0  0  0  0  0  0  0  0
   38.8649   35.7709   39.3057 H   0  0  0  0  0  0  0  0  0  0  0  0
   39.7117   37.8299   40.4445 H   0  0  0  0  0  0  0  0  0  0  0  0
   42.0246   37.5800   41.8580 H   0  0  0  0  0  0  0  0  0  0  0  0
   36.8354   31.4138   40.5991 H   0  0  0  0  0  0  0  0  0  0  0  0
   36.9551   30.2975   39.1756 H   0  0  0  0  0  0  0  0  0  0  0  0
   38.0738   30.8509   42.6906 H   0  0  0  0  0  0  0  0  0  0  0  0
   38.9321   28.9228   44.0555 H   0  0  0  0  0  0  0  0  0  0  0  0
   38.8404   26.4772   40.5430 H   0  0  0  0  0  0  0  0  0  0  0  0
  1  7  1  0
  1 14  1  0
  2  1  1  0
  3  4  1  0
  3  2  2  0
  4  6  1  0
  5  4  2  0
  6  7  1  0
  6  9  1  0
  7  8  2  0
  9 13  1  0
 10  9  2  0
 10 11  1  0
 11 12  2  0
 13 12  1  0
 14 15  1  0
 15 16  2  0
 16 17  1  0
 18 17  2  0
 19 18  1  0
 20 15  1  0
 20 19  2  0
  2 21  1  0
  3 22  1  0
 10 23  1  0
 11 24  1  0
 12 25  1  0
 14 26  1  0
 14 27  1  0
 16 28  1  0
 17 29  1  0
 19 30  1  0
M  ISO  8  21  14  22  14  23  14  24  14  25  14  26   8  27   8  28  14
M  ISO  2  29  14  30  14
M  END
>  <minimizedAffinity>  (1) 
-4.83343267

>  <minimizedRMSD>  (1) 
1.35238707

$$$$
