
     RDKit          3D

 30 32  0  0  0  0  0  0  0  0999 V2000
   37.9580   31.5520   39.9410 N   0  0  0  0  0  0  0  0  0  0  0  0
   38.0270   30.7740   38.8360 C   0  0  0  0  0  0  0  0  0  0  0  0
   38.9650   30.9910   37.8540 C   0  0  0  0  0  0  0  0  0  0  0  0
   39.8600   32.0270   37.9960 C   0  0  0  0  0  0  0  0  0  0  0  0
   40.7400   32.2640   37.1160 O   0  0  0  0  0  0  0  0  0  0  0  0
   39.7590   32.7740   39.1020 N   0  0  0  0  0  0  0  0  0  0  0  0
   38.8450   32.5620   40.0600 C   0  0  0  0  0  0  0  0  0  0  0  0
   38.7350   33.2500   41.1030 O   0  0  0  0  0  0  0  0  0  0  0  0
   36.9150   31.2080   40.9000 C   0  0  0  0  0  0  0  0  0  0  0  0
   37.2370   29.9910   41.6330 C   0  0  0  0  0  0  0  0  0  0  0  0
   38.3520   29.8750   42.4350 C   0  0  0  0  0  0  0  0  0  0  0  0
   38.6090   28.6860   43.1150 C   0  0  0  0  0  0  0  0  0  0  0  0
   37.7310   27.6540   42.9610 N   0  0  0  0  0  0  0  0  0  0  0  0
   36.6300   27.7930   42.1600 C   0  0  0  0  0  0  0  0  0  0  0  0
   36.3890   28.9310   41.5120 N   0  0  0  0  0  0  0  0  0  0  0  0
   40.6970   33.8730   39.2700 C   0  0  0  0  0  0  0  0  0  0  0  0
   40.2050   35.1630   39.8670 C   0  0  0  0  0  0  0  0  0  0  0  0
   41.2080   34.2650   40.5880 C   0  0  0  0  0  0  0  0  0  0  0  0
   37.3132   29.9452   38.7200 H   0  0  0  0  0  0  0  0  0  0  0  0
   38.9996   30.3439   36.9651 H   0  0  0  0  0  0  0  0  0  0  0  0
   36.8017   32.0357   41.6156 H   0  0  0  0  0  0  0  0  0  0  0  0
   35.9813   31.0366   40.3443 H   0  0  0  0  0  0  0  0  0  0  0  0
   39.0424   30.7251   42.5388 H   0  0  0  0  0  0  0  0  0  0  0  0
   39.4955   28.5828   43.7581 H   0  0  0  0  0  0  0  0  0  0  0  0
   35.9321   26.9500   42.0496 H   0  0  0  0  0  0  0  0  0  0  0  0
   41.1924   33.5796   38.3327 H   0  0  0  0  0  0  0  0  0  0  0  0
   40.5249   36.1277   39.4464 H   0  0  0  0  0  0  0  0  0  0  0  0
   39.2239   35.6006   40.1034 H   0  0  0  0  0  0  0  0  0  0  0  0
   40.9002   33.7070   41.4846 H   0  0  0  0  0  0  0  0  0  0  0  0
   42.2088   34.4102   41.0207 H   0  0  0  0  0  0  0  0  0  0  0  0
  1  7  1  0
  1  9  1  0
  2  1  1  0
  3  4  1  0
  3  2  2  0
  4  6  1  0
  5  4  2  0
  6 16  1  0
  6  7  1  0
  7  8  2  0
  9 10  1  0
 10 11  2  0
 11 12  1  0
 13 12  2  0
 14 13  1  0
 15 10  1  0
 15 14  2  0
 16 17  1  0
 16 18  1  0
 17 18  1  0
  2 19  1  0
  3 20  1  0
  9 21  1  0
  9 22  1  0
 11 23  1  0
 12 24  1  0
 14 25  1  0
 16 26  1  0
 17 27  1  0
 17 28  1  0
 18 29  1  0
 18 30  1  0
M  ISO  8  19  14  20  14  21   8  22   8  23  14  24  14  25  14  26  13
M  ISO  4  27  13  28  13  29  13  30  13
M  END
>  <minimizedAffinity>  (1) 
-4.64849758

>  <minimizedRMSD>  (1) 
0.273374945

$$$$
