
     RDKit          3D

 29 30  0  0  0  0  0  0  0  0999 V2000
   37.9000   31.5380   39.9340 N   0  0  0  0  0  0  0  0  0  0  0  0
   38.0050   30.7670   38.8330 C   0  0  0  0  0  0  0  0  0  0  0  0
   38.9650   30.9960   37.8620 C   0  0  0  0  0  0  0  0  0  0  0  0
   39.8480   32.0390   38.0080 C   0  0  0  0  0  0  0  0  0  0  0  0
   40.7230   32.2660   37.1470 O   0  0  0  0  0  0  0  0  0  0  0  0
   39.7100   32.7800   39.1120 N   0  0  0  0  0  0  0  0  0  0  0  0
   38.7790   32.5630   40.0620 C   0  0  0  0  0  0  0  0  0  0  0  0
   38.6420   33.2540   41.1000 O   0  0  0  0  0  0  0  0  0  0  0  0
   36.8530   31.1730   40.8730 C   0  0  0  0  0  0  0  0  0  0  0  0
   37.2090   29.9770   41.6240 C   0  0  0  0  0  0  0  0  0  0  0  0
   38.3260   29.8780   42.4240 C   0  0  0  0  0  0  0  0  0  0  0  0
   38.6000   28.6980   43.1130 C   0  0  0  0  0  0  0  0  0  0  0  0
   37.7210   27.6470   42.9660 N   0  0  0  0  0  0  0  0  0  0  0  0
   36.6330   27.7760   42.1720 C   0  0  0  0  0  0  0  0  0  0  0  0
   36.3890   28.9050   41.5250 N   0  0  0  0  0  0  0  0  0  0  0  0
   40.5950   33.9090   39.3620 C   0  0  0  0  0  0  0  0  0  0  0  0
   41.8320   33.4360   40.1180 C   0  0  0  0  0  0  0  0  0  0  0  0
   37.3051   29.9286   38.7019 H   0  0  0  0  0  0  0  0  0  0  0  0
   39.0208   30.3454   36.9768 H   0  0  0  0  0  0  0  0  0  0  0  0
   36.6966   32.0043   41.5762 H   0  0  0  0  0  0  0  0  0  0  0  0
   35.9341   30.9656   40.3050 H   0  0  0  0  0  0  0  0  0  0  0  0
   39.0068   30.7367   42.5197 H   0  0  0  0  0  0  0  0  0  0  0  0
   39.4896   28.6084   43.7538 H   0  0  0  0  0  0  0  0  0  0  0  0
   35.9399   26.9289   42.0623 H   0  0  0  0  0  0  0  0  0  0  0  0
   40.9003   34.3534   38.4032 H   0  0  0  0  0  0  0  0  0  0  0  0
   40.0648   34.6603   39.9656 H   0  0  0  0  0  0  0  0  0  0  0  0
   41.6492   33.5059   41.2004 H   0  0  0  0  0  0  0  0  0  0  0  0
   42.0488   32.3915   39.8494 H   0  0  0  0  0  0  0  0  0  0  0  0
   42.6903   34.0694   39.8494 H   0  0  0  0  0  0  0  0  0  0  0  0
  1  7  1  0
  1  9  1  0
  2  1  1  0
  3  4  1  0
  3  2  2  0
  4  6  1  0
  5  4  2  0
  6 16  1  0
  6  7  1  0
  7  8  2  0
  9 10  1  0
 10 11  2  0
 11 12  1  0
 13 12  2  0
 14 13  1  0
 15 10  1  0
 15 14  2  0
 16 17  1  0
  2 18  1  0
  3 19  1  0
  9 20  1  0
  9 21  1  0
 11 22  1  0
 12 23  1  0
 14 24  1  0
 16 25  1  0
 16 26  1  0
 17 27  1  0
 17 28  1  0
 17 29  1  0
M  ISO  8  18  14  19  14  20   8  21   8  22  14  23  14  24  14  25   8
M  ISO  4  26   8  27   8  28   8  29   8
M  END
>  <minimizedAffinity>  (1) 
-4.2604785

>  <minimizedRMSD>  (1) 
0.299223512

$$$$
