
     RDKit          3D

 38 40  0  0  0  0  0  0  0  0999 V2000
   37.9740   32.3110   40.3800 C   0  0  0  0  0  0  0  0  0  0  0  0
   38.4160   31.1860   41.1810 C   0  0  0  0  0  0  0  0  0  0  0  0
   39.5000   31.2330   42.0160 C   0  0  0  0  0  0  0  0  0  0  0  0
   39.8920   30.1260   42.7710 C   0  0  0  0  0  0  0  0  0  0  0  0
   39.1470   28.9790   42.6450 N   0  0  0  0  0  0  0  0  0  0  0  0
   38.0760   28.9610   41.8080 C   0  0  0  0  0  0  0  0  0  0  0  0
   37.7220   30.0140   41.1060 N   0  0  0  0  0  0  0  0  0  0  0  0
   37.3620   27.7310   41.7420 N   0  0  0  0  0  0  0  0  0  0  0  0
   36.8830   27.0470   40.5580 C   0  0  0  0  0  0  0  0  0  0  0  0
   37.0430   25.5830   40.7990 C   0  0  0  0  0  0  0  0  0  0  0  0
   37.1160   25.4380   42.2870 C   0  0  0  0  0  0  0  0  0  0  0  0
   36.9220   26.8350   42.7910 C   0  0  0  0  0  0  0  0  0  0  0  0
   39.0990   33.0480   39.8300 N   0  0  0  0  0  0  0  0  0  0  0  0
   39.8980   32.3680   38.9820 C   0  0  0  0  0  0  0  0  0  0  0  0
   41.0000   32.9550   38.3930 C   0  0  0  0  0  0  0  0  0  0  0  0
   41.3020   34.2710   38.6680 C   0  0  0  0  0  0  0  0  0  0  0  0
   42.2960   34.8310   38.1480 O   0  0  0  0  0  0  0  0  0  0  0  0
   40.4820   34.9110   39.5170 N   0  0  0  0  0  0  0  0  0  0  0  0
   39.4150   34.3430   40.0880 C   0  0  0  0  0  0  0  0  0  0  0  0
   38.6360   34.9300   40.8850 O   0  0  0  0  0  0  0  0  0  0  0  0
   40.7650   36.3010   39.8340 C   0  0  0  0  0  0  0  0  0  0  0  0
   39.5080   36.8570   40.1030 F   0  0  0  0  0  0  0  0  0  0  0  0
   41.4950   36.4580   40.9880 F   0  0  0  0  0  0  0  0  0  0  0  0
   41.2520   37.0180   38.7740 F   0  0  0  0  0  0  0  0  0  0  0  0
   37.3521   31.9383   39.5527 H   0  0  0  0  0  0  0  0  0  0  0  0
   37.3994   32.9904   41.0267 H   0  0  0  0  0  0  0  0  0  0  0  0
   40.0766   32.1665   42.0940 H   0  0  0  0  0  0  0  0  0  0  0  0
   40.7635   30.1707   43.4407 H   0  0  0  0  0  0  0  0  0  0  0  0
   37.4742   27.3515   39.6818 H   0  0  0  0  0  0  0  0  0  0  0  0
   35.8301   27.2976   40.3614 H   0  0  0  0  0  0  0  0  0  0  0  0
   36.1808   25.0294   40.3990 H   0  0  0  0  0  0  0  0  0  0  0  0
   37.9369   25.1788   40.3014 H   0  0  0  0  0  0  0  0  0  0  0  0
   36.3202   24.7741   42.6557 H   0  0  0  0  0  0  0  0  0  0  0  0
   38.0624   24.9908   42.6253 H   0  0  0  0  0  0  0  0  0  0  0  0
   37.5210   26.9949   43.6997 H   0  0  0  0  0  0  0  0  0  0  0  0
   35.8671   27.0169   43.0444 H   0  0  0  0  0  0  0  0  0  0  0  0
   39.6652   31.3174   38.7537 H   0  0  0  0  0  0  0  0  0  0  0  0
   41.6344   32.3745   37.7070 H   0  0  0  0  0  0  0  0  0  0  0  0
  1  2  1  0
  2  3  2  0
  3  4  1  0
  5  4  2  0
  6  5  1  0
  7  2  1  0
  7  6  2  0
  8  6  1  0
  8 12  1  0
  9 10  1  0
  9  8  1  0
 10 11  1  0
 11 12  1  0
 13 19  1  0
 13  1  1  0
 14 13  1  0
 15 16  1  0
 15 14  2  0
 16 18  1  0
 17 16  2  0
 18 21  1  0
 18 19  1  0
 19 20  2  0
 21 22  1  0
 21 23  1  0
 24 21  1  0
  1 25  1  0
  1 26  1  0
  3 27  1  0
  4 28  1  0
  9 29  1  0
  9 30  1  0
 10 31  1  0
 10 32  1  0
 11 33  1  0
 11 34  1  0
 12 35  1  0
 12 36  1  0
 14 37  1  0
 15 38  1  0
M  ISO  8  25   8  26   8  27  14  28  14  29  13  30  13  31  13  32  13
M  ISO  6  33  13  34  13  35  13  36  13  37  14  38  14
M  END
>  <minimizedAffinity>  (1) 
-6.37404108

>  <minimizedRMSD>  (1) 
2.14728785

$$$$
