
     RDKit          3D

 36 38  0  0  0  0  0  0  0  0999 V2000
   37.5630   31.4360   40.3630 C   0  0  0  0  0  0  0  0  0  0  0  0
   38.6750   32.0500   39.6580 N   0  0  0  0  0  0  0  0  0  0  0  0
   39.1760   31.3690   38.6130 C   0  0  0  0  0  0  0  0  0  0  0  0
   40.2270   31.8240   37.8520 C   0  0  0  0  0  0  0  0  0  0  0  0
   40.8000   33.0430   38.1710 C   0  0  0  0  0  0  0  0  0  0  0  0
   41.7540   33.5060   37.5180 O   0  0  0  0  0  0  0  0  0  0  0  0
   40.2770   33.7010   39.2220 N   0  0  0  0  0  0  0  0  0  0  0  0
   39.2500   33.2440   39.9570 C   0  0  0  0  0  0  0  0  0  0  0  0
   38.7510   33.8420   40.9360 O   0  0  0  0  0  0  0  0  0  0  0  0
   40.8410   34.9850   39.6000 C   0  0  0  0  0  0  0  0  0  0  0  0
   39.7530   35.8570   39.6410 F   0  0  0  0  0  0  0  0  0  0  0  0
   41.3900   34.9930   40.8550 F   0  0  0  0  0  0  0  0  0  0  0  0
   41.6920   35.4980   38.6330 F   0  0  0  0  0  0  0  0  0  0  0  0
   37.9910   30.2930   41.1480 C   0  0  0  0  0  0  0  0  0  0  0  0
   38.8710   30.3910   42.1920 C   0  0  0  0  0  0  0  0  0  0  0  0
   39.2510   29.2640   42.9130 C   0  0  0  0  0  0  0  0  0  0  0  0
   38.7200   28.0620   42.5470 N   0  0  0  0  0  0  0  0  0  0  0  0
   37.8460   27.9830   41.5040 C   0  0  0  0  0  0  0  0  0  0  0  0
   37.5110   29.0730   40.8460 N   0  0  0  0  0  0  0  0  0  0  0  0
   37.3360   26.6490   41.1920 C   0  0  0  0  0  0  0  0  0  0  0  0
   36.9020   26.3580   39.9160 C   0  0  0  0  0  0  0  0  0  0  0  0
   36.4210   25.0980   39.6210 C   0  0  0  0  0  0  0  0  0  0  0  0
   36.4010   24.1780   40.6490 C   0  0  0  0  0  0  0  0  0  0  0  0
   36.8240   24.4080   41.9570 C   0  0  0  0  0  0  0  0  0  0  0  0
   37.2990   25.6970   42.1910 C   0  0  0  0  0  0  0  0  0  0  0  0
   36.8148   31.1039   39.6283 H   0  0  0  0  0  0  0  0  0  0  0  0
   37.1371   32.1831   41.0489 H   0  0  0  0  0  0  0  0  0  0  0  0
   38.7232   30.4006   38.3540 H   0  0  0  0  0  0  0  0  0  0  0  0
   40.6050   31.2309   37.0063 H   0  0  0  0  0  0  0  0  0  0  0  0
   39.2830   31.3739   42.4642 H   0  0  0  0  0  0  0  0  0  0  0  0
   39.9579   29.3396   43.7524 H   0  0  0  0  0  0  0  0  0  0  0  0
   36.9390   27.1298   39.1331 H   0  0  0  0  0  0  0  0  0  0  0  0
   36.0694   24.8391   38.6114 H   0  0  0  0  0  0  0  0  0  0  0  0
   36.0172   23.1739   40.4156 H   0  0  0  0  0  0  0  0  0  0  0  0
   36.7860   23.6360   42.7397 H   0  0  0  0  0  0  0  0  0  0  0  0
   37.6536   25.9628   43.1978 H   0  0  0  0  0  0  0  0  0  0  0  0
  1 14  1  0
  2  8  1  0
  2  1  1  0
  3  2  1  0
  4  5  1  0
  4  3  2  0
  5  7  1  0
  6  5  2  0
  7 10  1  0
  7  8  1  0
  8  9  2  0
 10 11  1  0
 10 12  1  0
 13 10  1  0
 14 15  2  0
 15 16  1  0
 17 16  2  0
 18 17  1  0
 19 14  1  0
 19 18  2  0
 20 18  1  0
 20 25  1  0
 21 20  2  0
 22 21  1  0
 22 23  2  0
 23 24  1  0
 24 25  2  0
  1 26  1  0
  1 27  1  0
  3 28  1  0
  4 29  1  0
 15 30  1  0
 16 31  1  0
 21 32  1  0
 22 33  1  0
 23 34  1  0
 24 35  1  0
 25 36  1  0
M  ISO  8  26   8  27   8  28  14  29  14  30  14  31  14  32  14  33  14
M  ISO  3  34  14  35  14  36  14
M  END
>  <minimizedAffinity>  (1) 
-6.26232767

>  <minimizedRMSD>  (1) 
1.45190239

$$$$
