
     RDKit          3D

 33 34  0  0  0  0  0  0  0  0999 V2000
   40.8780   32.0120   39.3430 C   0  0  0  0  0  0  0  0  0  0  0  0
   41.4710   33.1100   40.0940 C   0  0  0  0  0  0  0  0  0  0  0  0
   42.4420   32.9270   41.0380 C   0  0  0  0  0  0  0  0  0  0  0  0
   42.9760   34.0090   41.7280 C   0  0  0  0  0  0  0  0  0  0  0  0
   42.5090   35.2580   41.4430 N   0  0  0  0  0  0  0  0  0  0  0  0
   41.5290   35.4140   40.4860 C   0  0  0  0  0  0  0  0  0  0  0  0
   41.0310   34.3750   39.8370 N   0  0  0  0  0  0  0  0  0  0  0  0
   41.0300   36.7170   40.1760 N   0  0  0  0  0  0  0  0  0  0  0  0
   39.6180   36.9600   40.0370 C   0  0  0  0  0  0  0  0  0  0  0  0
   38.8910   35.8930   39.9780 N   0  0  0  0  0  0  0  0  0  0  0  0
   39.1460   38.3000   39.9790 N   0  0  0  0  0  0  0  0  0  0  0  0
   37.8730   35.8470   39.8810 H   0  0  0  0  0  0  0  0  0  0  0  0
   39.5980   31.6180   39.8920 N   0  0  0  0  0  0  0  0  0  0  0  0
   38.5150   32.2940   39.4200 C   0  0  0  0  0  0  0  0  0  0  0  0
   37.2360   32.0300   39.8500 C   0  0  0  0  0  0  0  0  0  0  0  0
   37.0250   31.0460   40.7960 C   0  0  0  0  0  0  0  0  0  0  0  0
   35.8890   30.7720   41.2140 O   0  0  0  0  0  0  0  0  0  0  0  0
   38.1260   30.4020   41.2380 N   0  0  0  0  0  0  0  0  0  0  0  0
   39.3710   30.6630   40.8160 C   0  0  0  0  0  0  0  0  0  0  0  0
   40.3990   30.0710   41.2190 O   0  0  0  0  0  0  0  0  0  0  0  0
   37.9610   29.3560   42.2350 C   0  0  0  0  0  0  0  0  0  0  0  0
   38.7540   28.3030   41.7710 F   0  0  0  0  0  0  0  0  0  0  0  0
   38.4400   29.7020   43.4710 F   0  0  0  0  0  0  0  0  0  0  0  0
   36.6860   28.8510   42.2800 F   0  0  0  0  0  0  0  0  0  0  0  0
   41.5600   31.1495   39.3741 H   0  0  0  0  0  0  0  0  0  0  0  0
   40.7180   32.3508   38.3088 H   0  0  0  0  0  0  0  0  0  0  0  0
   42.8053   31.9115   41.2543 H   0  0  0  0  0  0  0  0  0  0  0  0
   43.7581   33.8610   42.4872 H   0  0  0  0  0  0  0  0  0  0  0  0
   41.6923   37.4957   40.0499 H   0  0  0  0  0  0  0  0  0  0  0  0
   38.1380   38.4871   39.8796 H   0  0  0  0  0  0  0  0  0  0  0  0
   39.8121   39.0836   40.0363 H   0  0  0  0  0  0  0  0  0  0  0  0
   38.6687   33.0807   38.6666 H   0  0  0  0  0  0  0  0  0  0  0  0
   36.3866   32.5986   39.4434 H   0  0  0  0  0  0  0  0  0  0  0  0
  1 13  1  0
  1  2  1  0
  2  3  2  0
  3  4  1  0
  5  4  2  0
  6  5  1  0
  7  2  1  0
  7  6  2  0
  8  6  1  0
  9  8  1  0
 10  9  2  0
 11  9  1  0
 12 10  1  0
 13 19  1  0
 14 15  2  0
 14 13  1  0
 15 16  1  0
 16 17  2  0
 16 18  1  0
 18 21  1  0
 19 20  2  0
 19 18  1  0
 21 24  1  0
 21 23  1  0
 22 21  1  0
  1 25  1  0
  1 26  1  0
  3 27  1  0
  4 28  1  0
  8 29  1  0
 11 30  1  0
 11 31  1  0
 14 32  1  0
 15 33  1  0
M  ISO  6  25   8  26   8  27  14  28  14  32  14  33  14
M  END
>  <minimizedAffinity>  (1) 
-6.16171551

>  <minimizedRMSD>  (1) 
7.19156551

$$$$
