
     RDKit          3D

 29 30  0  0  0  0  0  0  0  0999 V2000
   37.9020   32.2310   40.2190 C   0  0  0  0  0  0  0  0  0  0  0  0
   39.0360   32.9910   39.7450 N   0  0  0  0  0  0  0  0  0  0  0  0
   39.8460   32.3450   38.8730 C   0  0  0  0  0  0  0  0  0  0  0  0
   40.9690   32.9380   38.3330 C   0  0  0  0  0  0  0  0  0  0  0  0
   41.2830   34.2390   38.6890 C   0  0  0  0  0  0  0  0  0  0  0  0
   42.2880   34.8200   38.2270 O   0  0  0  0  0  0  0  0  0  0  0  0
   40.4480   34.8450   39.5610 N   0  0  0  0  0  0  0  0  0  0  0  0
   39.3580   34.2580   40.0800 C   0  0  0  0  0  0  0  0  0  0  0  0
   38.5780   34.8060   40.8870 O   0  0  0  0  0  0  0  0  0  0  0  0
   40.7370   36.2160   39.9670 C   0  0  0  0  0  0  0  0  0  0  0  0
   39.5120   36.7100   40.4010 F   0  0  0  0  0  0  0  0  0  0  0  0
   41.5900   36.2940   41.0310 F   0  0  0  0  0  0  0  0  0  0  0  0
   41.1180   37.0190   38.9080 F   0  0  0  0  0  0  0  0  0  0  0  0
   38.2930   31.2150   41.1960 C   0  0  0  0  0  0  0  0  0  0  0  0
   39.4590   31.2720   41.9050 C   0  0  0  0  0  0  0  0  0  0  0  0
   39.7890   30.2890   42.8200 C   0  0  0  0  0  0  0  0  0  0  0  0
   38.9210   29.2560   42.9970 N   0  0  0  0  0  0  0  0  0  0  0  0
   37.7560   29.2200   42.2740 C   0  0  0  0  0  0  0  0  0  0  0  0
   37.4720   30.1720   41.4110 N   0  0  0  0  0  0  0  0  0  0  0  0
   36.8380   28.0540   42.5150 C   0  0  0  0  0  0  0  0  0  0  0  0
   35.6620   28.1640   41.8380 F   0  0  0  0  0  0  0  0  0  0  0  0
   37.4690   26.9050   42.0640 F   0  0  0  0  0  0  0  0  0  0  0  0
   36.5800   27.8980   43.8460 F   0  0  0  0  0  0  0  0  0  0  0  0
   37.4242   31.7341   39.3618 H   0  0  0  0  0  0  0  0  0  0  0  0
   37.2084   32.9277   40.7124 H   0  0  0  0  0  0  0  0  0  0  0  0
   39.6004   31.3121   38.5852 H   0  0  0  0  0  0  0  0  0  0  0  0
   41.6069   32.3841   37.6285 H   0  0  0  0  0  0  0  0  0  0  0  0
   40.1477   32.1147   41.7454 H   0  0  0  0  0  0  0  0  0  0  0  0
   40.7285   30.3407   43.3898 H   0  0  0  0  0  0  0  0  0  0  0  0
  1 14  1  0
  2  8  1  0
  2  1  1  0
  3  2  1  0
  4  5  1  0
  4  3  2  0
  5  7  1  0
  6  5  2  0
  7 10  1  0
  7  8  1  0
  8  9  2  0
 10 11  1  0
 10 12  1  0
 13 10  1  0
 14 19  1  0
 14 15  2  0
 15 16  1  0
 16 17  2  0
 18 20  1  0
 18 17  1  0
 19 18  2  0
 20 23  1  0
 21 20  1  0
 22 20  1  0
  1 24  1  0
  1 25  1  0
  3 26  1  0
  4 27  1  0
 15 28  1  0
 16 29  1  0
M  ISO  6  24   8  25   8  26  14  27  14  28  14  29  14
M  END
>  <minimizedAffinity>  (1) 
-6.09174204

>  <minimizedRMSD>  (1) 
2.11229539

$$$$
