
     RDKit          3D

 39 42  0  0  0  0  0  0  0  0999 V2000
   40.2780   28.6210   41.6100 C   0  0  0  0  0  0  0  0  0  0  0  0
   39.4140   28.8840   42.6390 C   0  0  0  0  0  0  0  0  0  0  0  0
   39.1960   30.1860   43.0950 C   0  0  0  0  0  0  0  0  0  0  0  0
   39.8770   31.1800   42.4750 N   0  0  0  0  0  0  0  0  0  0  0  0
   40.7420   30.9020   41.4440 C   0  0  0  0  0  0  0  0  0  0  0  0
   40.9250   29.6570   41.0370 N   0  0  0  0  0  0  0  0  0  0  0  0
   41.3800   32.0530   40.8980 N   0  0  0  0  0  0  0  0  0  0  0  0
   42.0470   33.1170   41.4300 C   0  0  0  0  0  0  0  0  0  0  0  0
   42.4490   33.9240   40.4300 N   0  0  0  0  0  0  0  0  0  0  0  0
   42.0540   33.4010   39.2770 C   0  0  0  0  0  0  0  0  0  0  0  0
   42.2610   33.9120   38.0150 C   0  0  0  0  0  0  0  0  0  0  0  0
   41.7640   33.2010   36.9610 N   0  0  0  0  0  0  0  0  0  0  0  0
   41.0970   32.0380   37.2190 C   0  0  0  0  0  0  0  0  0  0  0  0
   40.9070   31.5560   38.4680 N   0  0  0  0  0  0  0  0  0  0  0  0
   41.3860   32.2320   39.5510 C   0  0  0  0  0  0  0  0  0  0  0  0
   40.5260   27.2810   41.1140 C   0  0  0  0  0  0  0  0  0  0  0  0
   39.3150   26.6660   40.5910 N   0  0  0  0  0  0  0  0  0  0  0  0
   38.9020   27.0900   39.3750 C   0  0  0  0  0  0  0  0  0  0  0  0
   37.7780   26.5960   38.7660 C   0  0  0  0  0  0  0  0  0  0  0  0
   37.0260   25.6200   39.4150 C   0  0  0  0  0  0  0  0  0  0  0  0
   35.9980   25.1480   38.8890 O   0  0  0  0  0  0  0  0  0  0  0  0
   37.4660   25.2280   40.6100 N   0  0  0  0  0  0  0  0  0  0  0  0
   38.5710   25.7150   41.2090 C   0  0  0  0  0  0  0  0  0  0  0  0
   38.9960   25.3560   42.3340 O   0  0  0  0  0  0  0  0  0  0  0  0
   36.7130   24.2060   41.3330 C   0  0  0  0  0  0  0  0  0  0  0  0
   37.5960   23.1310   41.4370 F   0  0  0  0  0  0  0  0  0  0  0  0
   36.3860   24.5760   42.6160 F   0  0  0  0  0  0  0  0  0  0  0  0
   35.6420   23.7260   40.6080 F   0  0  0  0  0  0  0  0  0  0  0  0
   42.9560   35.1210   37.7630 N   0  0  0  0  0  0  0  0  0  0  0  0
   38.8791   28.0505   43.1177 H   0  0  0  0  0  0  0  0  0  0  0  0
   38.5014   30.3955   43.9218 H   0  0  0  0  0  0  0  0  0  0  0  0
   42.2272   33.2880   42.5016 H   0  0  0  0  0  0  0  0  0  0  0  0
   40.6949   31.4656   36.3701 H   0  0  0  0  0  0  0  0  0  0  0  0
   41.2754   27.3317   40.3103 H   0  0  0  0  0  0  0  0  0  0  0  0
   40.8868   26.6672   41.9525 H   0  0  0  0  0  0  0  0  0  0  0  0
   39.4904   27.8604   38.8551 H   0  0  0  0  0  0  0  0  0  0  0  0
   37.4734   26.9662   37.7760 H   0  0  0  0  0  0  0  0  0  0  0  0
   43.0790   35.4523   36.7955 H   0  0  0  0  0  0  0  0  0  0  0  0
   43.3382   35.6684   38.5473 H   0  0  0  0  0  0  0  0  0  0  0  0
  1  2  2  0
  2  3  1  0
  4  3  2  0
  5  4  1  0
  6  5  2  0
  6  1  1  0
  7  8  1  0
  7  5  1  0
  9  8  2  0
 10 15  2  0
 10  9  1  0
 11 10  1  0
 12 13  1  0
 12 11  2  0
 13 14  2  0
 14 15  1  0
 15  7  1  0
 16  1  1  0
 17 16  1  0
 17 23  1  0
 18 17  1  0
 19 18  2  0
 19 20  1  0
 20 22  1  0
 21 20  2  0
 22 23  1  0
 22 25  1  0
 23 24  2  0
 25 26  1  0
 25 27  1  0
 28 25  1  0
 29 11  1  0
  2 30  1  0
  3 31  1  0
  8 32  1  0
 13 33  1  0
 16 34  1  0
 16 35  1  0
 18 36  1  0
 19 37  1  0
 29 38  1  0
 29 39  1  0
M  ISO  8  30  14  31  14  32  14  33  14  34   8  35   8  36  14  37  14
M  END
>  <minimizedAffinity>  (1) 
-6.05983639

>  <minimizedRMSD>  (1) 
8.71328449

$$$$
