
     RDKit          3D

 33 35  0  0  1  0  0  0  0  0999 V2000
   39.6510   32.8700   41.1890 C   0  0  0  0  0  0  0  0  0  0  0  0
   39.3130   31.5130   41.4160 C   0  0  0  0  0  0  0  0  0  0  0  0
   38.1390   31.0310   40.8560 C   0  0  0  0  0  0  0  0  0  0  0  0
   37.3560   31.8720   40.1110 N   0  0  0  0  0  0  0  0  0  0  0  0
   37.7280   33.1670   39.9250 C   0  0  0  0  0  0  0  0  0  0  0  0
   38.8560   33.6690   40.4500 N   0  0  0  0  0  0  0  0  0  0  0  0
   36.8540   33.9930   39.1300 N   0  0  0  0  0  0  0  0  0  0  0  0
   37.7370   29.6770   41.0430 N   0  0  0  0  0  0  0  0  0  0  0  0
   37.5130   29.1780   42.3550 C   0  0  0  0  0  0  0  0  0  0  0  0
   36.6420   27.9440   42.2280 C   0  0  0  0  0  0  0  0  0  0  0  0
   37.1970   26.9360   41.3790 N   0  0  0  0  0  0  0  0  0  0  0  0
   37.9520   27.4050   40.2790 C   0  0  0  0  0  0  0  0  0  0  0  0
   37.5610   28.8220   39.8950 C   0  0  1  0  0  0  0  0  0  0  0  0
   36.1350   28.8830   39.4800 C   0  0  0  0  0  0  0  0  0  0  0  0
   35.5160   28.5630   38.2760 C   0  0  0  0  0  0  0  0  0  0  0  0
   34.1630   28.7870   38.3780 C   0  0  0  0  0  0  0  0  0  0  0  0
   34.0120   29.2460   39.6680 C   0  0  0  0  0  0  0  0  0  0  0  0
   35.1760   29.2840   40.2660 O   0  0  0  0  0  0  0  0  0  0  0  0
   40.5762   33.2776   41.6224 H   0  0  0  0  0  0  0  0  0  0  0  0
   39.9624   30.8609   42.0185 H   0  0  0  0  0  0  0  0  0  0  0  0
   37.0922   34.9806   38.9604 H   0  0  0  0  0  0  0  0  0  0  0  0
   35.9914   33.5955   38.7315 H   0  0  0  0  0  0  0  0  0  0  0  0
   38.4716   28.9147   42.8259 H   0  0  0  0  0  0  0  0  0  0  0  0
   37.0216   29.9375   42.9808 H   0  0  0  0  0  0  0  0  0  0  0  0
   36.4995   27.5144   43.2305 H   0  0  0  0  0  0  0  0  0  0  0  0
   35.6940   28.2642   41.7712 H   0  0  0  0  0  0  0  0  0  0  0  0
   37.8115   26.3419   41.9538 H   0  0  0  0  0  0  0  0  0  0  0  0
   39.0190   27.3891   40.5458 H   0  0  0  0  0  0  0  0  0  0  0  0
   37.7518   26.7482   39.4196 H   0  0  0  0  0  0  0  0  0  0  0  0
   38.1933   29.1478   39.0559 H   0  0  0  0  0  0  0  0  0  0  0  0
   36.0304   28.1879   37.3790 H   0  0  0  0  0  0  0  0  0  0  0  0
   33.3873   28.6359   37.6129 H   0  0  0  0  0  0  0  0  0  0  0  0
   33.0558   29.5372   40.1273 H   0  0  0  0  0  0  0  0  0  0  0  0
  1  2  2  0
  3  8  1  0
  3  2  1  0
  4  3  2  0
  5  4  1  0
  5  6  2  0
  6  1  1  0
  7  5  1  0
  8  9  1  0
 10  9  1  0
 11 10  1  0
 12 11  1  0
 13 12  1  0
 13  8  1  0
 14 13  1  0
 14 18  1  0
 15 16  1  0
 15 14  2  0
 16 17  2  0
 17 18  1  0
  1 19  1  0
  2 20  1  0
  7 21  1  0
  7 22  1  0
  9 23  1  0
  9 24  1  0
 10 25  1  0
 10 26  1  0
 11 27  1  0
 12 28  1  0
 12 29  1  0
 13 30  1  6
 15 31  1  0
 16 32  1  0
 17 33  1  0
M  ISO  8  19  14  20  14  23  13  24  13  25  13  26  13  27   5  28  13
M  ISO  5  29  13  30  13  31  14  32  14  33  14
M  END
>  <minimizedAffinity>  (1) 
-4.98052073

>  <minimizedRMSD>  (1) 
1.38977742

$$$$
