
     RDKit          3D

 32 33  0  0  0  0  0  0  0  0999 V2000
   38.7200   32.0620   39.8550 N   0  0  0  0  0  0  0  0  0  0  0  0
   39.1740   31.3520   38.7960 C   0  0  0  0  0  0  0  0  0  0  0  0
   40.1920   31.8130   37.9770 C   0  0  0  0  0  0  0  0  0  0  0  0
   40.7700   33.0440   38.2460 C   0  0  0  0  0  0  0  0  0  0  0  0
   41.6820   33.4790   37.5260 O   0  0  0  0  0  0  0  0  0  0  0  0
   40.2900   33.7070   39.3000 N   0  0  0  0  0  0  0  0  0  0  0  0
   39.3050   33.2710   40.0990 C   0  0  0  0  0  0  0  0  0  0  0  0
   38.8480   33.8840   41.0900 O   0  0  0  0  0  0  0  0  0  0  0  0
   40.8780   35.0040   39.6070 C   0  0  0  0  0  0  0  0  0  0  0  0
   39.7710   35.8760   39.6320 F   0  0  0  0  0  0  0  0  0  0  0  0
   41.4360   35.0610   40.8610 F   0  0  0  0  0  0  0  0  0  0  0  0
   41.6790   35.4900   38.6110 F   0  0  0  0  0  0  0  0  0  0  0  0
   37.6550   31.4530   40.6180 C   0  0  0  0  0  0  0  0  0  0  0  0
   38.1540   30.4180   41.5170 C   0  0  0  0  0  0  0  0  0  0  0  0
   39.4840   30.2360   41.7680 C   0  0  0  0  0  0  0  0  0  0  0  0
   39.9080   29.2370   42.6310 C   0  0  0  0  0  0  0  0  0  0  0  0
   38.9730   28.4510   43.2160 N   0  0  0  0  0  0  0  0  0  0  0  0
   37.6380   28.6520   42.9480 C   0  0  0  0  0  0  0  0  0  0  0  0
   37.2670   29.6090   42.1230 N   0  0  0  0  0  0  0  0  0  0  0  0
   36.7310   27.7140   43.6610 C   0  0  0  0  0  0  0  0  0  0  0  0
   36.4950   28.1150   45.0890 C   0  0  0  0  0  0  0  0  0  0  0  0
   38.7188   30.3747   38.5779 H   0  0  0  0  0  0  0  0  0  0  0  0
   40.5372   31.2100   37.1242 H   0  0  0  0  0  0  0  0  0  0  0  0
   37.1545   32.2306   41.2137 H   0  0  0  0  0  0  0  0  0  0  0  0
   36.9548   30.9830   39.9117 H   0  0  0  0  0  0  0  0  0  0  0  0
   40.2250   30.8873   41.2815 H   0  0  0  0  0  0  0  0  0  0  0  0
   40.9783   29.0864   42.8356 H   0  0  0  0  0  0  0  0  0  0  0  0
   35.7642   27.6913   43.1367 H   0  0  0  0  0  0  0  0  0  0  0  0
   37.2115   26.7245   43.6670 H   0  0  0  0  0  0  0  0  0  0  0  0
   36.9375   27.3631   45.7589 H   0  0  0  0  0  0  0  0  0  0  0  0
   36.9614   29.0934   45.2770 H   0  0  0  0  0  0  0  0  0  0  0  0
   35.4133   28.1823   45.2770 H   0  0  0  0  0  0  0  0  0  0  0  0
  1  7  1  0
  1 13  1  0
  2  1  1  0
  3  4  1  0
  3  2  2  0
  4  6  1  0
  5  4  2  0
  6  9  1  0
  6  7  1  0
  7  8  2  0
  9 10  1  0
  9 11  1  0
 12  9  1  0
 13 14  1  0
 14 15  2  0
 14 19  1  0
 15 16  1  0
 16 17  2  0
 18 17  1  0
 18 20  1  0
 19 18  2  0
 20 21  1  0
  2 22  1  0
  3 23  1  0
 13 24  1  0
 13 25  1  0
 15 26  1  0
 16 27  1  0
 20 28  1  0
 20 29  1  0
 21 30  1  0
 21 31  1  0
 21 32  1  0
M  ISO  8  22  14  23  14  24   8  25   8  26  14  27  14  28   8  29   8
M  ISO  3  30   8  31   8  32   8
M  END
>  <minimizedAffinity>  (1) 
-5.70413065

>  <minimizedRMSD>  (1) 
1.39869785

$$$$
