
     RDKit          3D

 38 39  0  0  0  0  0  0  0  0999 V2000
   37.7320   31.4330   40.3640 C   0  0  0  0  0  0  0  0  0  0  0  0
   38.8120   32.0720   39.6620 N   0  0  0  0  0  0  0  0  0  0  0  0
   39.3340   31.3890   38.6050 C   0  0  0  0  0  0  0  0  0  0  0  0
   40.3680   31.8840   37.8480 C   0  0  0  0  0  0  0  0  0  0  0  0
   40.9040   33.1190   38.1600 C   0  0  0  0  0  0  0  0  0  0  0  0
   41.8470   33.6170   37.5030 O   0  0  0  0  0  0  0  0  0  0  0  0
   40.3710   33.7680   39.2040 N   0  0  0  0  0  0  0  0  0  0  0  0
   39.3540   33.2830   39.9510 C   0  0  0  0  0  0  0  0  0  0  0  0
   38.8410   33.8740   40.9310 O   0  0  0  0  0  0  0  0  0  0  0  0
   40.9030   35.0740   39.5730 C   0  0  0  0  0  0  0  0  0  0  0  0
   39.7760   35.9020   39.6580 F   0  0  0  0  0  0  0  0  0  0  0  0
   41.4850   35.0930   40.8150 F   0  0  0  0  0  0  0  0  0  0  0  0
   41.6900   35.6240   38.5940 F   0  0  0  0  0  0  0  0  0  0  0  0
   38.1920   30.2950   41.1550 C   0  0  0  0  0  0  0  0  0  0  0  0
   39.0410   30.4370   42.2190 C   0  0  0  0  0  0  0  0  0  0  0  0
   39.4500   29.3200   42.9420 C   0  0  0  0  0  0  0  0  0  0  0  0
   38.9910   28.0980   42.5730 N   0  0  0  0  0  0  0  0  0  0  0  0
   38.1410   27.9830   41.5030 C   0  0  0  0  0  0  0  0  0  0  0  0
   37.7690   29.0560   40.8350 N   0  0  0  0  0  0  0  0  0  0  0  0
   37.6210   26.6570   41.0730 C   0  0  0  0  0  0  0  0  0  0  0  0
   36.5730   26.8290   39.9950 C   0  0  0  0  0  0  0  0  0  0  0  0
   37.0210   26.0230   42.3210 C   0  0  0  0  0  0  0  0  0  0  0  0
   38.6810   25.7330   40.5580 C   0  0  0  0  0  0  0  0  0  0  0  0
   36.9915   31.0801   39.6312 H   0  0  0  0  0  0  0  0  0  0  0  0
   37.2909   32.1692   41.0520 H   0  0  0  0  0  0  0  0  0  0  0  0
   38.9124   30.4059   38.3485 H   0  0  0  0  0  0  0  0  0  0  0  0
   40.7652   31.3034   37.0023 H   0  0  0  0  0  0  0  0  0  0  0  0
   39.4012   31.4366   42.5037 H   0  0  0  0  0  0  0  0  0  0  0  0
   40.1333   29.4264   43.7974 H   0  0  0  0  0  0  0  0  0  0  0  0
   35.5900   26.9903   40.4616 H   0  0  0  0  0  0  0  0  0  0  0  0
   36.8290   27.6971   39.3699 H   0  0  0  0  0  0  0  0  0  0  0  0
   36.5381   25.9246   39.3699 H   0  0  0  0  0  0  0  0  0  0  0  0
   37.4607   26.4876   43.2159 H   0  0  0  0  0  0  0  0  0  0  0  0
   35.9321   26.1791   42.3243 H   0  0  0  0  0  0  0  0  0  0  0  0
   37.2368   24.9444   42.3243 H   0  0  0  0  0  0  0  0  0  0  0  0
   39.2094   25.2724   41.4057 H   0  0  0  0  0  0  0  0  0  0  0  0
   38.2159   24.9469   39.9450 H   0  0  0  0  0  0  0  0  0  0  0  0
   39.3963   26.3010   39.9450 H   0  0  0  0  0  0  0  0  0  0  0  0
  1 14  1  0
  2  8  1  0
  2  1  1  0
  3  2  1  0
  4  5  1  0
  4  3  2  0
  5  7  1  0
  6  5  2  0
  7 10  1  0
  7  8  1  0
  8  9  2  0
 10 11  1  0
 10 12  1  0
 13 10  1  0
 14 15  2  0
 15 16  1  0
 17 16  2  0
 18 17  1  0
 19 14  1  0
 19 18  2  0
 20 18  1  0
 20 22  1  0
 21 20  1  0
 23 20  1  0
  1 24  1  0
  1 25  1  0
  3 26  1  0
  4 27  1  0
 15 28  1  0
 16 29  1  0
 21 30  1  0
 21 31  1  0
 21 32  1  0
 22 33  1  0
 22 34  1  0
 22 35  1  0
 23 36  1  0
 23 37  1  0
 23 38  1  0
M  ISO  8  24   8  25   8  26  14  27  14  28  14  29  14  30   8  31   8
M  ISO  7  32   8  33   8  34   8  35   8  36   8  37   8  38   8
M  END
>  <minimizedAffinity>  (1) 
-5.37479162

>  <minimizedRMSD>  (1) 
1.49531305

$$$$
