
     RDKit          3D

 33 35  0  0  0  0  0  0  0  0999 V2000
   38.0820   30.8980   40.3130 N   0  0  0  0  0  0  0  0  0  0  0  0
   38.1000   30.2220   39.1380 C   0  0  0  0  0  0  0  0  0  0  0  0
   38.8500   30.6380   38.0540 C   0  0  0  0  0  0  0  0  0  0  0  0
   39.6090   31.7800   38.1650 C   0  0  0  0  0  0  0  0  0  0  0  0
   40.2990   32.1860   37.2050 O   0  0  0  0  0  0  0  0  0  0  0  0
   39.5690   32.4320   39.3490 N   0  0  0  0  0  0  0  0  0  0  0  0
   38.8380   32.0230   40.4010 C   0  0  0  0  0  0  0  0  0  0  0  0
   38.7920   32.6180   41.5060 O   0  0  0  0  0  0  0  0  0  0  0  0
   40.3520   33.6370   39.5060 C   0  0  0  0  0  0  0  0  0  0  0  0
   39.4010   34.6540   39.6710 F   0  0  0  0  0  0  0  0  0  0  0  0
   41.1280   33.6410   40.6380 F   0  0  0  0  0  0  0  0  0  0  0  0
   41.0500   33.9780   38.3710 F   0  0  0  0  0  0  0  0  0  0  0  0
   37.2520   30.3460   41.3620 C   0  0  0  0  0  0  0  0  0  0  0  0
   37.8550   29.1530   41.9570 C   0  0  0  0  0  0  0  0  0  0  0  0
   39.0550   29.1770   42.6080 C   0  0  0  0  0  0  0  0  0  0  0  0
   39.5820   28.0190   43.1530 C   0  0  0  0  0  0  0  0  0  0  0  0
   38.8790   26.8560   43.0260 N   0  0  0  0  0  0  0  0  0  0  0  0
   37.6720   26.8650   42.3640 C   0  0  0  0  0  0  0  0  0  0  0  0
   37.1970   27.9810   41.8570 N   0  0  0  0  0  0  0  0  0  0  0  0
   36.9070   25.5910   42.2290 C   0  0  0  0  0  0  0  0  0  0  0  0
   37.6460   24.2990   42.1640 C   0  0  0  0  0  0  0  0  0  0  0  0
   37.0180   24.8560   40.8870 C   0  0  0  0  0  0  0  0  0  0  0  0
   37.4950   29.3081   39.0437 H   0  0  0  0  0  0  0  0  0  0  0  0
   38.8401   30.0640   37.1157 H   0  0  0  0  0  0  0  0  0  0  0  0
   37.1159   31.1056   42.1459 H   0  0  0  0  0  0  0  0  0  0  0  0
   36.2865   30.0586   40.9202 H   0  0  0  0  0  0  0  0  0  0  0  0
   39.6071   30.1239   42.7000 H   0  0  0  0  0  0  0  0  0  0  0  0
   40.5484   28.0357   43.6782 H   0  0  0  0  0  0  0  0  0  0  0  0
   36.0858   25.9651   42.8579 H   0  0  0  0  0  0  0  0  0  0  0  0
   38.7402   24.2885   42.2759 H   0  0  0  0  0  0  0  0  0  0  0  0
   37.5773   23.3431   42.7039 H   0  0  0  0  0  0  0  0  0  0  0  0
   37.6548   25.2580   40.0852 H   0  0  0  0  0  0  0  0  0  0  0  0
   36.3106   24.4859   40.1303 H   0  0  0  0  0  0  0  0  0  0  0  0
  1  7  1  0
  1 13  1  0
  2  1  1  0
  3  4  1  0
  3  2  2  0
  4  6  1  0
  5  4  2  0
  6  9  1  0
  6  7  1  0
  7  8  2  0
  9 10  1  0
  9 11  1  0
 12  9  1  0
 13 14  1  0
 14 15  2  0
 15 16  1  0
 17 16  2  0
 18 17  1  0
 19 14  1  0
 19 18  2  0
 20 18  1  0
 21 20  1  0
 22 21  1  0
 22 20  1  0
  2 23  1  0
  3 24  1  0
 13 25  1  0
 13 26  1  0
 15 27  1  0
 16 28  1  0
 20 29  1  0
 21 30  1  0
 21 31  1  0
 22 32  1  0
 22 33  1  0
M  ISO  8  23  14  24  14  25   8  26   8  27  14  28  14  29  13  30  13
M  ISO  3  31  13  32  13  33  13
M  END
>  <minimizedAffinity>  (1) 
-5.25115395

>  <minimizedRMSD>  (1) 
1.10783553

$$$$
