
     RDKit          3D

 28 29  0  0  0  0  0  0  0  0999 V2000
   38.3270   31.4160   40.0190 N   0  0  0  0  0  0  0  0  0  0  0  0
   38.5430   30.7160   38.8950 C   0  0  0  0  0  0  0  0  0  0  0  0
   39.4570   31.1210   37.9290 C   0  0  0  0  0  0  0  0  0  0  0  0
   40.1730   32.2970   38.1380 C   0  0  0  0  0  0  0  0  0  0  0  0
   41.0000   32.6970   37.3040 O   0  0  0  0  0  0  0  0  0  0  0  0
   39.9260   32.9620   39.2730 N   0  0  0  0  0  0  0  0  0  0  0  0
   39.0330   32.5640   40.2130 C   0  0  0  0  0  0  0  0  0  0  0  0
   38.7930   33.1740   41.2740 O   0  0  0  0  0  0  0  0  0  0  0  0
   40.6530   34.1960   39.5330 C   0  0  0  0  0  0  0  0  0  0  0  0
   39.6500   35.1760   39.6260 F   0  0  0  0  0  0  0  0  0  0  0  0
   41.3040   34.1920   40.7310 F   0  0  0  0  0  0  0  0  0  0  0  0
   41.4430   34.5740   38.4700 F   0  0  0  0  0  0  0  0  0  0  0  0
   37.3440   30.8720   40.9350 C   0  0  0  0  0  0  0  0  0  0  0  0
   37.8430   29.6810   41.6170 C   0  0  0  0  0  0  0  0  0  0  0  0
   38.8830   29.7230   42.4990 C   0  0  0  0  0  0  0  0  0  0  0  0
   39.3280   28.5590   43.1290 C   0  0  0  0  0  0  0  0  0  0  0  0
   38.6920   27.3890   42.8320 N   0  0  0  0  0  0  0  0  0  0  0  0
   37.6500   27.3680   41.9450 C   0  0  0  0  0  0  0  0  0  0  0  0
   37.2460   28.4870   41.3600 N   0  0  0  0  0  0  0  0  0  0  0  0
   36.9900   26.1490   41.6380 N   0  0  0  0  0  0  0  0  0  0  0  0
   37.9761   29.7876   38.7318 H   0  0  0  0  0  0  0  0  0  0  0  0
   39.6116   30.5245   37.0178 H   0  0  0  0  0  0  0  0  0  0  0  0
   37.0960   31.6358   41.6867 H   0  0  0  0  0  0  0  0  0  0  0  0
   36.4542   30.5874   40.3542 H   0  0  0  0  0  0  0  0  0  0  0  0
   39.3754   30.6824   42.7158 H   0  0  0  0  0  0  0  0  0  0  0  0
   40.1650   28.5845   43.8423 H   0  0  0  0  0  0  0  0  0  0  0  0
   36.2066   26.1417   40.9693 H   0  0  0  0  0  0  0  0  0  0  0  0
   37.2946   25.2719   42.0840 H   0  0  0  0  0  0  0  0  0  0  0  0
  1  7  1  0
  1 13  1  0
  2  1  1  0
  3  4  1  0
  3  2  2  0
  4  6  1  0
  5  4  2  0
  6  9  1  0
  6  7  1  0
  7  8  2  0
  9 10  1  0
  9 11  1  0
 12  9  1  0
 13 14  1  0
 14 15  2  0
 15 16  1  0
 17 16  2  0
 18 17  1  0
 19 14  1  0
 19 18  2  0
 20 18  1  0
  2 21  1  0
  3 22  1  0
 13 23  1  0
 13 24  1  0
 15 25  1  0
 16 26  1  0
 20 27  1  0
 20 28  1  0
M  ISO  6  21  14  22  14  23   8  24   8  25  14  26  14
M  END
>  <minimizedAffinity>  (1) 
-4.69886827

>  <minimizedRMSD>  (1) 
0.631161094

$$$$
