
     RDKit          3D

 32 34  0  0  1  0  0  0  0  0999 V2000
   40.0230   32.1800   41.1190 C   0  0  0  0  0  0  0  0  0  0  0  0
   39.6270   30.9090   41.5870 C   0  0  0  0  0  0  0  0  0  0  0  0
   38.3130   30.5470   41.4580 C   0  0  0  0  0  0  0  0  0  0  0  0
   37.4520   31.4320   40.8830 N   0  0  0  0  0  0  0  0  0  0  0  0
   37.8440   32.6430   40.4400 C   0  0  0  0  0  0  0  0  0  0  0  0
   39.1250   33.0270   40.5520 N   0  0  0  0  0  0  0  0  0  0  0  0
   36.8930   33.5230   39.8530 N   0  0  0  0  0  0  0  0  0  0  0  0
   37.8110   29.2890   41.8950 N   0  0  0  0  0  0  0  0  0  0  0  0
   37.9400   28.9470   43.2940 C   0  0  0  0  0  0  0  0  0  0  0  0
   36.8900   27.8560   43.5570 C   0  0  0  0  0  0  0  0  0  0  0  0
   37.0640   26.7010   42.7410 N   0  0  0  0  0  0  0  0  0  0  0  0
   37.5530   26.9570   41.4270 C   0  0  0  0  0  0  0  0  0  0  0  0
   37.1860   28.3750   40.9940 C   0  0  2  0  0  0  0  0  0  0  0  0
   37.5990   28.4900   39.5750 C   0  0  0  0  0  0  0  0  0  0  0  0
   38.8800   28.0310   39.2700 C   0  0  0  0  0  0  0  0  0  0  0  0
   39.0140   28.3350   37.5120 S   0  0  0  0  0  0  0  0  0  0  0  0
   37.2880   29.0570   37.4240 C   0  0  0  0  0  0  0  0  0  0  0  0
   36.7540   29.0160   38.6900 N   0  0  0  0  0  0  0  0  0  0  0  0
   41.0742   32.4894   41.2147 H   0  0  0  0  0  0  0  0  0  0  0  0
   40.3570   30.2251   42.0447 H   0  0  0  0  0  0  0  0  0  0  0  0
   35.9087   33.2329   39.7648 H   0  0  0  0  0  0  0  0  0  0  0  0
   37.1887   34.4503   39.5161 H   0  0  0  0  0  0  0  0  0  0  0  0
   38.9500   28.5649   43.5033 H   0  0  0  0  0  0  0  0  0  0  0  0
   37.7844   29.8230   43.9409 H   0  0  0  0  0  0  0  0  0  0  0  0
   36.9583   27.5522   44.6120 H   0  0  0  0  0  0  0  0  0  0  0  0
   35.9063   28.2835   43.3129 H   0  0  0  0  0  0  0  0  0  0  0  0
   37.7312   26.0743   43.2132 H   0  0  0  0  0  0  0  0  0  0  0  0
   38.6474   26.8464   41.4187 H   0  0  0  0  0  0  0  0  0  0  0  0
   37.0975   26.2395   40.7286 H   0  0  0  0  0  0  0  0  0  0  0  0
   36.1127   28.6112   41.0418 H   0  0  0  0  0  0  0  0  0  0  0  0
   39.6268   27.5893   39.9461 H   0  0  0  0  0  0  0  0  0  0  0  0
   36.7913   29.4440   36.5220 H   0  0  0  0  0  0  0  0  0  0  0  0
  1  2  2  0
  3  2  1  0
  3  8  1  0
  4  3  2  0
  5  6  2  0
  5  4  1  0
  6  1  1  0
  7  5  1  0
  8  9  1  0
  9 10  1  0
 11 10  1  0
 12 11  1  0
 13 12  1  0
 13  8  1  0
 14 13  1  0
 15 14  2  0
 16 15  1  0
 17 16  1  0
 17 18  2  0
 18 14  1  0
  1 19  1  0
  2 20  1  0
  7 21  1  0
  7 22  1  0
  9 23  1  0
  9 24  1  0
 10 25  1  0
 10 26  1  0
 11 27  1  0
 12 28  1  0
 12 29  1  0
 13 30  1  6
 15 31  1  0
 17 32  1  0
M  ISO  8  19  14  20  14  23  13  24  13  25  13  26  13  27   5  28  13
M  ISO  4  29  13  30  13  31  14  32  14
M  END
>  <minimizedAffinity>  (1) 
-4.95871496

>  <minimizedRMSD>  (1) 
0.779746354

$$$$
