
     RDKit          3D

 18 19  0  0  0  0  0  0  0  0999 V2000
   38.2350   29.0420   43.3700 C   0  0  0  0  0  0  0  0  0  0  0  0
   37.5390   27.8380   43.6160 C   0  0  0  0  0  0  0  0  0  0  0  0
   36.4990   27.4970   42.7640 C   0  0  0  0  0  0  0  0  0  0  0  0
   36.1910   28.3290   41.7290 N   0  0  0  0  0  0  0  0  0  0  0  0
   36.8780   29.4740   41.5210 C   0  0  0  0  0  0  0  0  0  0  0  0
   37.8880   29.8210   42.3370 N   0  0  0  0  0  0  0  0  0  0  0  0
   36.4160   30.5170   40.1420 S   0  0  0  0  0  0  0  0  0  0  0  0
   37.3080   32.0660   40.1630 C   0  0  0  0  0  0  0  0  0  0  0  0
   37.2060   33.3090   39.5440 C   0  0  0  0  0  0  0  0  0  0  0  0
   38.2460   34.0900   40.0120 C   0  0  0  0  0  0  0  0  0  0  0  0
   38.9390   33.2900   40.8970 C   0  0  0  0  0  0  0  0  0  0  0  0
   38.3670   32.1240   40.9590 O   0  0  0  0  0  0  0  0  0  0  0  0
   39.0641   29.3408   44.0283 H   0  0  0  0  0  0  0  0  0  0  0  0
   37.8141   27.1885   44.4601 H   0  0  0  0  0  0  0  0  0  0  0  0
   35.9308   26.5683   42.9212 H   0  0  0  0  0  0  0  0  0  0  0  0
   36.4391   33.6134   38.8166 H   0  0  0  0  0  0  0  0  0  0  0  0
   38.4733   35.1305   39.7367 H   0  0  0  0  0  0  0  0  0  0  0  0
   39.8341   33.5911   41.4611 H   0  0  0  0  0  0  0  0  0  0  0  0
  1  2  2  0
  3  2  1  0
  4  3  2  0
  5  4  1  0
  5  6  2  0
  6  1  1  0
  7  8  1  0
  7  5  1  0
  8 12  1  0
  9 10  1  0
  9  8  2  0
 10 11  2  0
 11 12  1  0
  1 13  1  0
  2 14  1  0
  3 15  1  0
  9 16  1  0
 10 17  1  0
 11 18  1  0
M  ISO  6  13  14  14  14  15  14  16  14  17  14  18  14
M  END
>  <minimizedAffinity>  (1) 
-4.07226038

>  <minimizedRMSD>  (1) 
0.477920294

$$$$
