
     RDKit          3D

 19 20  0  0  0  0  0  0  0  0999 V2000
   38.0950   28.9700   43.3680 C   0  0  0  0  0  0  0  0  0  0  0  0
   38.2250   27.5820   43.5230 C   0  0  0  0  0  0  0  0  0  0  0  0
   37.5000   26.7220   42.7080 C   0  0  0  0  0  0  0  0  0  0  0  0
   36.6820   27.2850   41.7780 N   0  0  0  0  0  0  0  0  0  0  0  0
   36.5630   28.6270   41.6370 C   0  0  0  0  0  0  0  0  0  0  0  0
   37.2620   29.4490   42.4220 N   0  0  0  0  0  0  0  0  0  0  0  0
   35.4630   29.2800   40.3900 S   0  0  0  0  0  0  0  0  0  0  0  0
   36.3580   30.2810   39.2110 C   0  0  0  0  0  0  0  0  0  0  0  0
   36.8620   31.5520   39.4640 C   0  0  0  0  0  0  0  0  0  0  0  0
   37.5380   32.2080   38.4450 C   0  0  0  0  0  0  0  0  0  0  0  0
   37.7000   31.6230   37.2360 N   0  0  0  0  0  0  0  0  0  0  0  0
   37.1940   30.3760   37.0220 C   0  0  0  0  0  0  0  0  0  0  0  0
   36.5270   29.7060   37.9970 N   0  0  0  0  0  0  0  0  0  0  0  0
   38.6648   29.6584   44.0094 H   0  0  0  0  0  0  0  0  0  0  0  0
   38.9007   27.1748   44.2895 H   0  0  0  0  0  0  0  0  0  0  0  0
   37.5838   25.6300   42.8104 H   0  0  0  0  0  0  0  0  0  0  0  0
   36.7281   32.0258   40.4477 H   0  0  0  0  0  0  0  0  0  0  0  0
   37.9463   33.2139   38.6221 H   0  0  0  0  0  0  0  0  0  0  0  0
   37.3286   29.9019   36.0386 H   0  0  0  0  0  0  0  0  0  0  0  0
  1  2  2  0
  3  2  1  0
  4  3  2  0
  5  4  1  0
  5  6  2  0
  6  1  1  0
  7  5  1  0
  8  9  2  0
  8  7  1  0
 10  9  1  0
 11 10  2  0
 12 11  1  0
 12 13  2  0
 13  8  1  0
  1 14  1  0
  2 15  1  0
  3 16  1  0
  9 17  1  0
 10 18  1  0
 12 19  1  0
M  ISO  6  14  14  15  14  16  14  17  14  18  14  19  14
M  END
>  <minimizedAffinity>  (1) 
-3.91389942

>  <minimizedRMSD>  (1) 
1.95328367

$$$$
