
     RDKit          3D

 17 18  0  0  0  0  0  0  0  0999 V2000
   38.2870   28.8990   43.3900 C   0  0  0  0  0  0  0  0  0  0  0  0
   37.5510   27.7020   43.5090 C   0  0  0  0  0  0  0  0  0  0  0  0
   36.4920   27.4810   42.6410 C   0  0  0  0  0  0  0  0  0  0  0  0
   36.2030   28.4300   41.7060 N   0  0  0  0  0  0  0  0  0  0  0  0
   36.9300   29.5660   41.6210 C   0  0  0  0  0  0  0  0  0  0  0  0
   37.9510   29.8010   42.4410 N   0  0  0  0  0  0  0  0  0  0  0  0
   36.4720   30.7590   40.3510 S   0  0  0  0  0  0  0  0  0  0  0  0
   37.9120   31.7810   39.9380 C   0  0  0  0  0  0  0  0  0  0  0  0
   39.0850   31.3430   39.3050 C   0  0  0  0  0  0  0  0  0  0  0  0
   40.0230   32.9940   39.2650 S   0  0  0  0  0  0  0  0  0  0  0  0
   38.6090   33.9030   40.1150 C   0  0  0  0  0  0  0  0  0  0  0  0
   37.6060   33.0110   40.3610 N   0  0  0  0  0  0  0  0  0  0  0  0
   39.1311   29.0979   44.0667 H   0  0  0  0  0  0  0  0  0  0  0  0
   37.8118   26.9576   44.2757 H   0  0  0  0  0  0  0  0  0  0  0  0
   35.8970   26.5581   42.7058 H   0  0  0  0  0  0  0  0  0  0  0  0
   39.3739   30.3456   38.9419 H   0  0  0  0  0  0  0  0  0  0  0  0
   38.5943   34.9729   40.3702 H   0  0  0  0  0  0  0  0  0  0  0  0
  1  2  2  0
  3  2  1  0
  4  3  2  0
  5  4  1  0
  5  6  2  0
  6  1  1  0
  7  5  1  0
  8  7  1  0
  8 12  1  0
  9  8  2  0
 10  9  1  0
 10 11  1  0
 11 12  2  0
  1 13  1  0
  2 14  1  0
  3 15  1  0
  9 16  1  0
 11 17  1  0
M  ISO  5  13  14  14  14  15  14  16  14  17  14
M  END
>  <minimizedAffinity>  (1) 
-3.5550642

>  <minimizedRMSD>  (1) 
1.22597861

$$$$
