
     RDKit          3D

 14 14  0  0  0  0  0  0  0  0999 V2000
   38.7130   28.7340   43.1800 C   0  0  0  0  0  0  0  0  0  0  0  0
   38.1340   27.4680   43.3060 C   0  0  0  0  0  0  0  0  0  0  0  0
   36.9190   27.2170   42.6470 C   0  0  0  0  0  0  0  0  0  0  0  0
   36.3910   28.2410   41.9240 N   0  0  0  0  0  0  0  0  0  0  0  0
   36.9670   29.4460   41.8190 C   0  0  0  0  0  0  0  0  0  0  0  0
   38.1330   29.6960   42.4490 N   0  0  0  0  0  0  0  0  0  0  0  0
   36.1890   30.7260   40.8410 S   0  0  0  0  0  0  0  0  0  0  0  0
   36.8380   30.7780   39.1450 C   0  0  0  0  0  0  0  0  0  0  0  0
   38.0330   30.1210   39.0450 F   0  0  0  0  0  0  0  0  0  0  0  0
   35.8750   30.1350   38.3550 F   0  0  0  0  0  0  0  0  0  0  0  0
   36.9000   32.1090   38.7750 F   0  0  0  0  0  0  0  0  0  0  0  0
   39.6639   28.9450   43.6912 H   0  0  0  0  0  0  0  0  0  0  0  0
   38.6191   26.6855   43.9079 H   0  0  0  0  0  0  0  0  0  0  0  0
   36.4188   26.2395   42.7125 H   0  0  0  0  0  0  0  0  0  0  0  0
  1  2  2  0
  3  2  1  0
  4  3  2  0
  5  4  1  0
  5  6  2  0
  6  1  1  0
  7  5  1  0
  8  7  1  0
  9  8  1  0
 10  8  1  0
 11  8  1  0
  1 12  1  0
  2 13  1  0
  3 14  1  0
M  ISO  3  12  14  13  14  14  14
M  END
>  <minimizedAffinity>  (1) 
-3.48105407

>  <minimizedRMSD>  (1) 
0.776877463

$$$$
