
     RDKit          3D

 18 19  0  0  0  0  0  0  0  0999 V2000
   38.6910   28.7530   43.2060 C   0  0  0  0  0  0  0  0  0  0  0  0
   38.0140   27.5310   43.2960 C   0  0  0  0  0  0  0  0  0  0  0  0
   36.8200   27.3510   42.6050 C   0  0  0  0  0  0  0  0  0  0  0  0
   36.3530   28.3990   41.8530 N   0  0  0  0  0  0  0  0  0  0  0  0
   37.0240   29.5760   41.7780 C   0  0  0  0  0  0  0  0  0  0  0  0
   38.1780   29.7390   42.4520 N   0  0  0  0  0  0  0  0  0  0  0  0
   36.3480   30.8920   40.7760 S   0  0  0  0  0  0  0  0  0  0  0  0
   37.6430   31.8960   40.0530 C   0  0  0  0  0  0  0  0  0  0  0  0
   37.4440   32.1700   38.5570 C   0  0  0  0  0  0  0  0  0  0  0  0
   37.2630   33.2710   39.5140 C   0  0  0  0  0  0  0  0  0  0  0  0
   39.6358   28.9045   43.7486 H   0  0  0  0  0  0  0  0  0  0  0  0
   38.4245   26.7163   43.9107 H   0  0  0  0  0  0  0  0  0  0  0  0
   36.2690   26.4005   42.6598 H   0  0  0  0  0  0  0  0  0  0  0  0
   38.4354   31.5223   40.7182 H   0  0  0  0  0  0  0  0  0  0  0  0
   36.5718   31.7497   38.0349 H   0  0  0  0  0  0  0  0  0  0  0  0
   38.0587   32.0228   37.6567 H   0  0  0  0  0  0  0  0  0  0  0  0
   37.9952   34.0913   39.5468 H   0  0  0  0  0  0  0  0  0  0  0  0
   36.4491   33.9806   39.7240 H   0  0  0  0  0  0  0  0  0  0  0  0
  1  2  2  0
  3  2  1  0
  4  3  2  0
  5  4  1  0
  5  6  2  0
  6  1  1  0
  7  5  1  0
  8  7  1  0
  9 10  1  0
  9  8  1  0
 10  8  1  0
  1 11  1  0
  2 12  1  0
  3 13  1  0
  8 14  1  0
  9 15  1  0
  9 16  1  0
 10 17  1  0
 10 18  1  0
M  ISO  8  11  14  12  14  13  14  14  13  15  13  16  13  17  13  18  13
M  END
>  <minimizedAffinity>  (1) 
-3.4767983

>  <minimizedRMSD>  (1) 
1.11570287

$$$$
