
     RDKit          3D

 17 17  0  0  0  0  0  0  0  0999 V2000
   38.3570   28.9930   43.3370 C   0  0  0  0  0  0  0  0  0  0  0  0
   37.7100   27.7830   43.6100 C   0  0  0  0  0  0  0  0  0  0  0  0
   36.6070   27.4010   42.8530 C   0  0  0  0  0  0  0  0  0  0  0  0
   36.1980   28.2420   41.8580 N   0  0  0  0  0  0  0  0  0  0  0  0
   36.8340   29.4030   41.6100 C   0  0  0  0  0  0  0  0  0  0  0  0
   37.9000   29.7770   42.3370 N   0  0  0  0  0  0  0  0  0  0  0  0
   36.2620   30.4730   40.2960 S   0  0  0  0  0  0  0  0  0  0  0  0
   37.2540   31.9980   40.4360 C   0  0  0  0  0  0  0  0  0  0  0  0
   37.2100   32.7110   39.0950 C   0  0  0  0  0  0  0  0  0  0  0  0
   39.2294   29.3027   43.9311 H   0  0  0  0  0  0  0  0  0  0  0  0
   38.0726   27.1350   44.4215 H   0  0  0  0  0  0  0  0  0  0  0  0
   36.0825   26.4542   43.0492 H   0  0  0  0  0  0  0  0  0  0  0  0
   36.8328   32.6470   41.2179 H   0  0  0  0  0  0  0  0  0  0  0  0
   38.2923   31.7552   40.7060 H   0  0  0  0  0  0  0  0  0  0  0  0
   37.1430   33.7966   39.2590 H   0  0  0  0  0  0  0  0  0  0  0  0
   38.1240   32.4816   38.5276 H   0  0  0  0  0  0  0  0  0  0  0  0
   36.3311   32.3710   38.5276 H   0  0  0  0  0  0  0  0  0  0  0  0
  1  2  2  0
  3  2  1  0
  4  3  2  0
  5  4  1  0
  5  6  2  0
  6  1  1  0
  7  8  1  0
  7  5  1  0
  9  8  1  0
  1 10  1  0
  2 11  1  0
  3 12  1  0
  8 13  1  0
  8 14  1  0
  9 15  1  0
  9 16  1  0
  9 17  1  0
M  ISO  8  10  14  11  14  12  14  13   8  14   8  15   8  16   8  17   8
M  END
>  <minimizedAffinity>  (1) 
-3.10080552

>  <minimizedRMSD>  (1) 
1.70833719

$$$$
