
     RDKit          3D

 14 14  0  0  0  0  0  0  0  0999 V2000
   38.4830   28.9800   43.2840 C   0  0  0  0  0  0  0  0  0  0  0  0
   37.9710   27.7120   43.6450 C   0  0  0  0  0  0  0  0  0  0  0  0
   36.8450   27.2340   42.9910 C   0  0  0  0  0  0  0  0  0  0  0  0
   36.2830   28.0160   42.0230 N   0  0  0  0  0  0  0  0  0  0  0  0
   36.7910   29.2260   41.6930 C   0  0  0  0  0  0  0  0  0  0  0  0
   37.8750   29.6950   42.3170 N   0  0  0  0  0  0  0  0  0  0  0  0
   35.9860   30.1850   40.4080 S   0  0  0  0  0  0  0  0  0  0  0  0
   34.6760   29.2060   39.6430 C   0  0  0  0  0  0  0  0  0  0  0  0
   39.3735   29.3808   43.7903 H   0  0  0  0  0  0  0  0  0  0  0  0
   38.4573   27.1152   44.4308 H   0  0  0  0  0  0  0  0  0  0  0  0
   36.4170   26.2530   43.2449 H   0  0  0  0  0  0  0  0  0  0  0  0
   34.0580   28.7441   40.4270 H   0  0  0  0  0  0  0  0  0  0  0  0
   34.0483   29.8581   39.0179 H   0  0  0  0  0  0  0  0  0  0  0  0
   35.1236   28.4193   39.0179 H   0  0  0  0  0  0  0  0  0  0  0  0
  1  2  2  0
  3  2  1  0
  4  3  2  0
  5  4  1  0
  5  6  2  0
  6  1  1  0
  7  5  1  0
  8  7  1  0
  1  9  1  0
  2 10  1  0
  3 11  1  0
  8 12  1  0
  8 13  1  0
  8 14  1  0
M  ISO  6   9  14  10  14  11  14  12   8  13   8  14   8
M  END
>  <minimizedAffinity>  (1) 
-2.77326703

>  <minimizedRMSD>  (1) 
0.128609195

$$$$
