
     RDKit          3D

 32 34  0  0  1  0  0  0  0  0999 V2000
   39.6990   32.6410   41.3730 C   0  0  0  0  0  0  0  0  0  0  0  0
   39.3320   31.2930   41.6160 C   0  0  0  0  0  0  0  0  0  0  0  0
   38.1630   30.8010   41.0380 C   0  0  0  0  0  0  0  0  0  0  0  0
   37.4140   31.6250   40.2650 N   0  0  0  0  0  0  0  0  0  0  0  0
   37.8050   32.9150   40.0600 C   0  0  0  0  0  0  0  0  0  0  0  0
   38.9270   33.4220   40.6010 N   0  0  0  0  0  0  0  0  0  0  0  0
   36.9460   33.7160   39.2190 N   0  0  0  0  0  0  0  0  0  0  0  0
   37.7670   29.4610   41.2580 N   0  0  0  0  0  0  0  0  0  0  0  0
   37.5090   28.9890   42.5690 C   0  0  0  0  0  0  0  0  0  0  0  0
   36.6280   27.7590   42.4490 C   0  0  0  0  0  0  0  0  0  0  0  0
   37.1760   26.7240   41.6170 N   0  0  0  0  0  0  0  0  0  0  0  0
   37.9880   27.1630   40.5380 C   0  0  0  0  0  0  0  0  0  0  0  0
   37.6280   28.5680   40.1180 C   0  0  1  0  0  0  0  0  0  0  0  0
   36.2750   28.6890   39.6190 N   0  0  0  0  0  0  0  0  0  0  0  0
   35.3660   29.2520   40.4340 C   0  0  0  0  0  0  0  0  0  0  0  0
   34.1910   29.2620   39.7710 N   0  0  0  0  0  0  0  0  0  0  0  0
   34.3590   28.7120   38.5520 C   0  0  0  0  0  0  0  0  0  0  0  0
   35.6600   28.3690   38.4910 N   0  0  0  0  0  0  0  0  0  0  0  0
   40.6189   33.0478   41.8184 H   0  0  0  0  0  0  0  0  0  0  0  0
   39.9584   30.6474   42.2491 H   0  0  0  0  0  0  0  0  0  0  0  0
   37.1860   34.6988   39.0253 H   0  0  0  0  0  0  0  0  0  0  0  0
   36.0936   33.3044   38.8130 H   0  0  0  0  0  0  0  0  0  0  0  0
   38.4545   28.7261   43.0658 H   0  0  0  0  0  0  0  0  0  0  0  0
   37.0094   29.7650   43.1676 H   0  0  0  0  0  0  0  0  0  0  0  0
   36.4722   27.3460   43.4566 H   0  0  0  0  0  0  0  0  0  0  0  0
   35.6910   28.0851   41.9739 H   0  0  0  0  0  0  0  0  0  0  0  0
   37.7482   26.1092   42.2132 H   0  0  0  0  0  0  0  0  0  0  0  0
   39.0423   27.1414   40.8509 H   0  0  0  0  0  0  0  0  0  0  0  0
   37.8225   26.4913   39.6827 H   0  0  0  0  0  0  0  0  0  0  0  0
   38.3137   28.8339   39.3000 H   0  0  0  0  0  0  0  0  0  0  0  0
   35.5463   29.6328   41.4501 H   0  0  0  0  0  0  0  0  0  0  0  0
   33.5955   28.5728   37.7724 H   0  0  0  0  0  0  0  0  0  0  0  0
  1  2  2  0
  3  8  1  0
  3  2  1  0
  4  3  2  0
  5  4  1  0
  5  6  2  0
  6  1  1  0
  7  5  1  0
  8  9  1  0
 10  9  1  0
 11 10  1  0
 12 11  1  0
 13 12  1  0
 13  8  1  0
 14 13  1  0
 14 15  1  0
 16 15  2  0
 17 16  1  0
 18 17  2  0
 18 14  1  0
  1 19  1  0
  2 20  1  0
  7 21  1  0
  7 22  1  0
  9 23  1  0
  9 24  1  0
 10 25  1  0
 10 26  1  0
 11 27  1  0
 12 28  1  0
 12 29  1  0
 13 30  1  6
 15 31  1  0
 17 32  1  0
M  ISO  8  19  14  20  14  23  13  24  13  25  13  26  13  27   5  28  13
M  ISO  4  29  13  30  13  31  14  32  14
M  END
>  <minimizedAffinity>  (1) 
-4.87970591

>  <minimizedRMSD>  (1) 
1.14064598

$$$$
