
     RDKit          3D

 31 33  0  0  0  0  0  0  0  0999 V2000
   40.0610   32.8040   39.0720 N   0  0  0  0  0  0  0  0  0  0  0  0
   40.6750   33.9610   39.1710 N   0  0  0  0  0  0  0  0  0  0  0  0
   40.1970   34.6670   40.2170 C   0  0  0  0  0  0  0  0  0  0  0  0
   39.2210   33.8700   40.7860 C   0  0  0  0  0  0  0  0  0  0  0  0
   39.1300   32.6720   40.0540 C   0  0  0  0  0  0  0  0  0  0  0  0
   38.2190   31.6260   40.3760 N   0  0  0  0  0  0  0  0  0  0  0  0
   38.5180   30.9110   41.4950 C   0  0  0  0  0  0  0  0  0  0  0  0
   37.6860   29.8610   41.8980 C   0  0  0  0  0  0  0  0  0  0  0  0
   37.9530   29.0490   43.0970 C   0  0  0  0  0  0  0  0  0  0  0  0
   36.5980   29.6560   41.0770 C   0  0  0  0  0  0  0  0  0  0  0  0
   35.7970   28.7160   41.3850 O   0  0  0  0  0  0  0  0  0  0  0  0
   36.2810   30.3490   39.9680 N   0  0  0  0  0  0  0  0  0  0  0  0
   37.1290   31.3420   39.6440 C   0  0  0  0  0  0  0  0  0  0  0  0
   36.9260   32.0510   38.6260 O   0  0  0  0  0  0  0  0  0  0  0  0
   40.5900   36.2700   40.8810 S   0  0  0  0  0  0  0  0  0  0  0  0
   44.0690   35.1200   42.4450 C   0  0  0  0  0  0  0  0  0  0  0  0
   44.2660   36.0040   43.5060 C   0  0  0  0  0  0  0  0  0  0  0  0
   43.2940   36.9830   43.7420 C   0  0  0  0  0  0  0  0  0  0  0  0
   42.1990   37.0410   42.9380 N   0  0  0  0  0  0  0  0  0  0  0  0
   42.0450   36.1600   41.9160 C   0  0  0  0  0  0  0  0  0  0  0  0
   42.9680   35.2240   41.6850 N   0  0  0  0  0  0  0  0  0  0  0  0
   40.2575   32.0954   38.3508 H   0  0  0  0  0  0  0  0  0  0  0  0
   38.6151   34.1299   41.6665 H   0  0  0  0  0  0  0  0  0  0  0  0
   39.4142   31.1589   42.0827 H   0  0  0  0  0  0  0  0  0  0  0  0
   37.7557   29.6490   43.9976 H   0  0  0  0  0  0  0  0  0  0  0  0
   37.2982   28.1651   43.0946 H   0  0  0  0  0  0  0  0  0  0  0  0
   39.0046   28.7262   43.0946 H   0  0  0  0  0  0  0  0  0  0  0  0
   35.4456   30.1338   39.4052 H   0  0  0  0  0  0  0  0  0  0  0  0
   44.8144   34.3396   42.2319 H   0  0  0  0  0  0  0  0  0  0  0  0
   45.1618   35.9335   44.1405 H   0  0  0  0  0  0  0  0  0  0  0  0
   43.4147   37.6980   44.5692 H   0  0  0  0  0  0  0  0  0  0  0  0
  1  2  1  0
  1  5  1  0
  2  3  2  0
  3  4  1  0
  3 15  1  0
  5  6  1  0
  5  4  2  0
  6  7  1  0
  7  8  2  0
  8  9  1  0
 10 11  2  0
 10  8  1  0
 12 10  1  0
 13 12  1  0
 13  6  1  0
 14 13  2  0
 15 20  1  0
 16 17  2  0
 17 18  1  0
 19 18  2  0
 20 19  1  0
 21 20  2  0
 21 16  1  0
  1 22  1  0
  4 23  1  0
  7 24  1  0
  9 25  1  0
  9 26  1  0
  9 27  1  0
 12 28  1  0
 16 29  1  0
 17 30  1  0
 18 31  1  0
M  ISO  8  22   9  23  14  24  14  25   8  26   8  27   8  28   9  29  14
M  ISO  2  30  14  31  14
M  END
>  <minimizedAffinity>  (1) 
-6.04149437

>  <minimizedRMSD>  (1) 
7.75004864

$$$$
