
     RDKit          3D

 28 30  0  0  0  0  0  0  0  0999 V2000
   38.7520   32.4280   38.4780 N   0  0  0  0  0  0  0  0  0  0  0  0
   37.9240   31.3890   38.5110 N   0  0  0  0  0  0  0  0  0  0  0  0
   37.2420   31.3510   39.6560 C   0  0  0  0  0  0  0  0  0  0  0  0
   37.6650   32.4290   40.3900 C   0  0  0  0  0  0  0  0  0  0  0  0
   38.6350   33.1320   39.6510 C   0  0  0  0  0  0  0  0  0  0  0  0
   39.3130   34.3100   40.0730 N   0  0  0  0  0  0  0  0  0  0  0  0
   38.8760   35.5830   40.0190 C   0  0  0  0  0  0  0  0  0  0  0  0
   39.6730   36.6110   40.4770 C   0  0  0  0  0  0  0  0  0  0  0  0
   40.9210   36.2780   40.9840 C   0  0  0  0  0  0  0  0  0  0  0  0
   41.6720   37.2120   41.4120 O   0  0  0  0  0  0  0  0  0  0  0  0
   41.3610   35.0060   41.0390 N   0  0  0  0  0  0  0  0  0  0  0  0
   40.5350   34.0240   40.5740 C   0  0  0  0  0  0  0  0  0  0  0  0
   41.0430   32.8670   40.6710 O   0  0  0  0  0  0  0  0  0  0  0  0
   36.0080   30.2470   40.3120 S   0  0  0  0  0  0  0  0  0  0  0  0
   38.2020   28.9470   43.3580 C   0  0  0  0  0  0  0  0  0  0  0  0
   37.8630   27.5810   43.4660 C   0  0  0  0  0  0  0  0  0  0  0  0
   36.9200   27.0500   42.5580 C   0  0  0  0  0  0  0  0  0  0  0  0
   36.3890   27.8730   41.6330 N   0  0  0  0  0  0  0  0  0  0  0  0
   36.7450   29.1850   41.5660 C   0  0  0  0  0  0  0  0  0  0  0  0
   37.6420   29.7090   42.4220 N   0  0  0  0  0  0  0  0  0  0  0  0
   39.3806   32.6668   37.6978 H   0  0  0  0  0  0  0  0  0  0  0  0
   37.3049   32.7004   41.3933 H   0  0  0  0  0  0  0  0  0  0  0  0
   37.8797   35.8034   39.6081 H   0  0  0  0  0  0  0  0  0  0  0  0
   39.3320   37.6562   40.4417 H   0  0  0  0  0  0  0  0  0  0  0  0
   42.2913   34.7816   41.4199 H   0  0  0  0  0  0  0  0  0  0  0  0
   38.9343   29.3846   44.0525 H   0  0  0  0  0  0  0  0  0  0  0  0
   38.3217   26.9457   44.2380 H   0  0  0  0  0  0  0  0  0  0  0  0
   36.6266   25.9909   42.6051 H   0  0  0  0  0  0  0  0  0  0  0  0
  1  2  1  0
  1  5  1  0
  2  3  2  0
  3 14  1  0
  3  4  1  0
  5  6  1  0
  5  4  2  0
  6 12  1  0
  7  6  1  0
  7  8  2  0
  8  9  1  0
  9 11  1  0
  9 10  2  0
 12 13  2  0
 12 11  1  0
 14 19  1  0
 15 16  2  0
 17 16  1  0
 18 17  2  0
 19 18  1  0
 19 20  2  0
 20 15  1  0
  1 21  1  0
  4 22  1  0
  7 23  1  0
  8 24  1  0
 11 25  1  0
 15 26  1  0
 16 27  1  0
 17 28  1  0
M  ISO  8  21   9  22  14  23  14  24  14  25   9  26  14  27  14  28  14
M  END
>  <minimizedAffinity>  (1) 
-5.95266581

>  <minimizedRMSD>  (1) 
4.16905451

$$$$
