
     RDKit          3D

 29 32  0  0  0  0  0  0  0  0999 V2000
   42.2380   33.3590   41.5230 N   0  0  0  0  0  0  0  0  0  0  0  0
   43.4620   33.4060   42.0010 N   0  0  0  0  0  0  0  0  0  0  0  0
   43.9010   34.6660   42.0640 C   0  0  0  0  0  0  0  0  0  0  0  0
   42.8720   35.4560   41.5910 C   0  0  0  0  0  0  0  0  0  0  0  0
   41.8110   34.6290   41.2440 C   0  0  0  0  0  0  0  0  0  0  0  0
   40.5190   34.9000   40.7120 N   0  0  0  0  0  0  0  0  0  0  0  0
   40.0100   36.0960   40.2940 C   0  0  0  0  0  0  0  0  0  0  0  0
   38.7400   35.8920   39.8630 N   0  0  0  0  0  0  0  0  0  0  0  0
   38.4540   34.5840   40.0080 C   0  0  0  0  0  0  0  0  0  0  0  0
   37.3720   33.7530   39.7670 C   0  0  0  0  0  0  0  0  0  0  0  0
   37.4120   32.4340   40.0340 N   0  0  0  0  0  0  0  0  0  0  0  0
   38.5030   31.8560   40.5490 C   0  0  0  0  0  0  0  0  0  0  0  0
   39.5840   32.6300   40.8010 N   0  0  0  0  0  0  0  0  0  0  0  0
   39.5650   33.9380   40.5440 C   0  0  0  0  0  0  0  0  0  0  0  0
   45.4390   35.4040   42.6070 S   0  0  0  0  0  0  0  0  0  0  0  0
   47.4280   33.3220   45.3470 C   0  0  0  0  0  0  0  0  0  0  0  0
   46.7170   33.5510   46.5240 C   0  0  0  0  0  0  0  0  0  0  0  0
   45.5860   34.3710   46.4830 C   0  0  0  0  0  0  0  0  0  0  0  0
   45.2340   34.9070   45.2930 N   0  0  0  0  0  0  0  0  0  0  0  0
   45.9390   34.6720   44.1680 C   0  0  0  0  0  0  0  0  0  0  0  0
   47.0130   33.8930   44.2060 N   0  0  0  0  0  0  0  0  0  0  0  0
   41.6867   32.5006   41.3808 H   0  0  0  0  0  0  0  0  0  0  0  0
   42.8894   36.5524   41.5039 H   0  0  0  0  0  0  0  0  0  0  0  0
   40.5393   37.0602   40.3049 H   0  0  0  0  0  0  0  0  0  0  0  0
   36.4523   34.1840   39.3447 H   0  0  0  0  0  0  0  0  0  0  0  0
   38.5209   30.7771   40.7626 H   0  0  0  0  0  0  0  0  0  0  0  0
   48.3207   32.6793   45.3536 H   0  0  0  0  0  0  0  0  0  0  0  0
   47.0411   33.0934   47.4703 H   0  0  0  0  0  0  0  0  0  0  0  0
   45.0000   34.5741   47.3915 H   0  0  0  0  0  0  0  0  0  0  0  0
  1  2  1  0
  2  3  2  0
  3 15  1  0
  4  3  1  0
  5  1  1  0
  5  4  2  0
  6  5  1  0
  7  6  1  0
  8  9  1  0
  8  7  2  0
  9 14  2  0
 10  9  1  0
 10 11  2  0
 11 12  1  0
 12 13  2  0
 14  6  1  0
 14 13  1  0
 15 20  1  0
 16 17  2  0
 18 17  1  0
 19 18  2  0
 20 21  2  0
 20 19  1  0
 21 16  1  0
  1 22  1  0
  4 23  1  0
  7 24  1  0
 10 25  1  0
 12 26  1  0
 16 27  1  0
 17 28  1  0
 18 29  1  0
M  ISO  8  22   9  23  14  24  14  25  14  26  14  27  14  28  14  29  14
M  END
>  <minimizedAffinity>  (1) 
-5.76337671

>  <minimizedRMSD>  (1) 
8.11431408

$$$$
