
     RDKit          3D

 28 30  0  0  0  0  0  0  0  0999 V2000
   38.8620   32.6220   38.6510 N   0  0  0  0  0  0  0  0  0  0  0  0
   38.0370   31.5780   38.7110 N   0  0  0  0  0  0  0  0  0  0  0  0
   37.3620   31.6020   39.8740 C   0  0  0  0  0  0  0  0  0  0  0  0
   37.8070   32.7140   40.5400 C   0  0  0  0  0  0  0  0  0  0  0  0
   38.7610   33.3710   39.7750 C   0  0  0  0  0  0  0  0  0  0  0  0
   39.4930   34.5830   40.0830 C   0  0  0  0  0  0  0  0  0  0  0  0
   40.7980   34.4600   40.5100 C   0  0  0  0  0  0  0  0  0  0  0  0
   41.5440   35.5950   40.8190 C   0  0  0  0  0  0  0  0  0  0  0  0
   40.9380   36.8280   40.6840 C   0  0  0  0  0  0  0  0  0  0  0  0
   39.6380   36.8970   40.2560 C   0  0  0  0  0  0  0  0  0  0  0  0
   38.8620   35.8010   39.9390 C   0  0  0  0  0  0  0  0  0  0  0  0
   36.1240   30.5230   40.5820 S   0  0  0  0  0  0  0  0  0  0  0  0
   36.8690   27.3120   42.8080 C   0  0  0  0  0  0  0  0  0  0  0  0
   38.0890   27.6160   43.4260 C   0  0  0  0  0  0  0  0  0  0  0  0
   38.6950   28.8410   43.1480 C   0  0  0  0  0  0  0  0  0  0  0  0
   38.0700   29.6710   42.2960 N   0  0  0  0  0  0  0  0  0  0  0  0
   36.8970   29.3720   41.7050 C   0  0  0  0  0  0  0  0  0  0  0  0
   36.3110   28.1970   41.9670 N   0  0  0  0  0  0  0  0  0  0  0  0
   39.4888   32.8305   37.8607 H   0  0  0  0  0  0  0  0  0  0  0  0
   37.4601   33.0376   41.5324 H   0  0  0  0  0  0  0  0  0  0  0  0
   41.2515   33.4625   40.6070 H   0  0  0  0  0  0  0  0  0  0  0  0
   42.5862   35.5112   41.1608 H   0  0  0  0  0  0  0  0  0  0  0  0
   41.4942   37.7477   40.9181 H   0  0  0  0  0  0  0  0  0  0  0  0
   39.1823   37.8934   40.1586 H   0  0  0  0  0  0  0  0  0  0  0  0
   37.8202   35.8917   39.5977 H   0  0  0  0  0  0  0  0  0  0  0  0
   36.3707   26.3526   43.0110 H   0  0  0  0  0  0  0  0  0  0  0  0
   38.5601   26.9019   44.1175 H   0  0  0  0  0  0  0  0  0  0  0  0
   39.6534   29.1186   43.6111 H   0  0  0  0  0  0  0  0  0  0  0  0
  1  2  1  0
  1  5  1  0
  2  3  2  0
  3  4  1  0
  3 12  1  0
  5  6  1  0
  5  4  2  0
  6  7  2  0
  7  8  1  0
  9  8  2  0
 10  9  1  0
 11  6  1  0
 11 10  2  0
 12 17  1  0
 13 14  2  0
 15 14  1  0
 16 15  2  0
 17 18  2  0
 17 16  1  0
 18 13  1  0
  1 19  1  0
  4 20  1  0
  7 21  1  0
  8 22  1  0
  9 23  1  0
 10 24  1  0
 11 25  1  0
 13 26  1  0
 14 27  1  0
 15 28  1  0
M  ISO  8  19   9  20  14  21  14  22  14  23  14  24  14  25  14  26  14
M  ISO  2  27  14  28  14
M  END
>  <minimizedAffinity>  (1) 
-5.7070322

>  <minimizedRMSD>  (1) 
3.96776605

$$$$
