
     RDKit          3D

 29 30  0  0  1  0  0  0  0  0999 V2000
   40.0410   32.0380   41.0050 C   0  0  0  0  0  0  0  0  0  0  0  0
   39.5970   30.7860   41.5280 C   0  0  0  0  0  0  0  0  0  0  0  0
   38.2570   30.4960   41.4780 C   0  0  0  0  0  0  0  0  0  0  0  0
   37.4270   31.4140   40.9370 N   0  0  0  0  0  0  0  0  0  0  0  0
   37.8590   32.5920   40.4450 C   0  0  0  0  0  0  0  0  0  0  0  0
   39.1620   32.9070   40.4780 N   0  0  0  0  0  0  0  0  0  0  0  0
   36.8870   33.4950   39.8760 N   0  0  0  0  0  0  0  0  0  0  0  0
   37.7550   29.2680   41.9720 N   0  0  0  0  0  0  0  0  0  0  0  0
   37.9240   28.9190   43.3400 C   0  0  0  0  0  0  0  0  0  0  0  0
   36.8390   27.8890   43.6620 C   0  0  0  0  0  0  0  0  0  0  0  0
   36.8760   26.7280   42.8370 N   0  0  0  0  0  0  0  0  0  0  0  0
   37.3260   26.9380   41.5040 C   0  0  0  0  0  0  0  0  0  0  0  0
   37.0670   28.3650   41.0680 C   0  0  2  0  0  0  0  0  0  0  0  0
   37.6020   28.4030   39.6550 C   0  0  0  0  0  0  0  0  0  0  0  0
   36.9110   29.4020   38.9580 F   0  0  0  0  0  0  0  0  0  0  0  0
   38.9170   28.6680   39.5280 F   0  0  0  0  0  0  0  0  0  0  0  0
   37.3180   27.2110   39.0170 F   0  0  0  0  0  0  0  0  0  0  0  0
   41.1106   32.2932   41.0337 H   0  0  0  0  0  0  0  0  0  0  0  0
   40.3122   30.0710   41.9607 H   0  0  0  0  0  0  0  0  0  0  0  0
   35.8904   33.2353   39.8597 H   0  0  0  0  0  0  0  0  0  0  0  0
   37.1901   34.3990   39.4863 H   0  0  0  0  0  0  0  0  0  0  0  0
   38.9213   28.4836   43.5009 H   0  0  0  0  0  0  0  0  0  0  0  0
   37.8395   29.8026   43.9897 H   0  0  0  0  0  0  0  0  0  0  0  0
   36.9621   27.5732   44.7085 H   0  0  0  0  0  0  0  0  0  0  0  0
   35.8716   28.3789   43.4771 H   0  0  0  0  0  0  0  0  0  0  0  0
   37.5054   26.0437   43.2803 H   0  0  0  0  0  0  0  0  0  0  0  0
   38.4059   26.7352   41.4517 H   0  0  0  0  0  0  0  0  0  0  0  0
   36.7764   26.2595   40.8351 H   0  0  0  0  0  0  0  0  0  0  0  0
   36.0123   28.6763   41.0934 H   0  0  0  0  0  0  0  0  0  0  0  0
  1  2  2  0
  3  2  1  0
  3  8  1  0
  4  3  2  0
  5  6  2  0
  5  4  1  0
  6  1  1  0
  7  5  1  0
  8  9  1  0
  9 10  1  0
 11 10  1  0
 12 11  1  0
 13 12  1  0
 13  8  1  0
 14 13  1  0
 15 14  1  0
 16 14  1  0
 17 14  1  0
  1 18  1  0
  2 19  1  0
  7 20  1  0
  7 21  1  0
  9 22  1  0
  9 23  1  0
 10 24  1  0
 10 25  1  0
 11 26  1  0
 12 27  1  0
 12 28  1  0
 13 29  1  6
M  ISO  8  18  14  19  14  22  13  23  13  24  13  25  13  26   5  27  13
M  ISO  2  28  13  29  13
M  END
>  <minimizedAffinity>  (1) 
-4.8123045

>  <minimizedRMSD>  (1) 
0.481997311

$$$$
