
     RDKit          3D

 25 27  0  0  0  0  0  0  0  0999 V2000
   40.0380   33.3880   38.9330 N   0  0  0  0  0  0  0  0  0  0  0  0
   40.7860   34.4430   39.2420 N   0  0  0  0  0  0  0  0  0  0  0  0
   40.2200   35.1460   40.2210 C   0  0  0  0  0  0  0  0  0  0  0  0
   39.0570   34.5060   40.5490 C   0  0  0  0  0  0  0  0  0  0  0  0
   38.9250   33.3870   39.7400 C   0  0  0  0  0  0  0  0  0  0  0  0
   38.0310   32.3070   39.5160 C   0  0  0  0  0  0  0  0  0  0  0  0
   37.9120   31.7930   38.2320 C   0  0  0  0  0  0  0  0  0  0  0  0
   37.1230   30.7790   37.8270 C   0  0  0  0  0  0  0  0  0  0  0  0
   36.3790   30.2870   39.0130 C   0  0  0  0  0  0  0  0  0  0  0  0
   36.9240   31.3510   40.5170 S   0  0  0  0  0  0  0  0  0  0  0  0
   40.7010   36.6470   41.0850 S   0  0  0  0  0  0  0  0  0  0  0  0
   44.0690   35.0480   42.4860 C   0  0  0  0  0  0  0  0  0  0  0  0
   44.3660   35.8490   43.6100 C   0  0  0  0  0  0  0  0  0  0  0  0
   43.5060   36.8970   43.9350 C   0  0  0  0  0  0  0  0  0  0  0  0
   42.4160   37.1110   43.1570 N   0  0  0  0  0  0  0  0  0  0  0  0
   42.1550   36.3290   42.0860 C   0  0  0  0  0  0  0  0  0  0  0  0
   42.9700   35.3280   41.7720 N   0  0  0  0  0  0  0  0  0  0  0  0
   40.2561   32.6881   38.2095 H   0  0  0  0  0  0  0  0  0  0  0  0
   38.3452   34.8251   41.3246 H   0  0  0  0  0  0  0  0  0  0  0  0
   38.5323   32.2675   37.4574 H   0  0  0  0  0  0  0  0  0  0  0  0
   37.0444   30.3866   36.8024 H   0  0  0  0  0  0  0  0  0  0  0  0
   35.6493   29.4640   39.0282 H   0  0  0  0  0  0  0  0  0  0  0  0
   44.7255   34.2122   42.2024 H   0  0  0  0  0  0  0  0  0  0  0  0
   45.2603   35.6497   44.2187 H   0  0  0  0  0  0  0  0  0  0  0  0
   43.7077   37.5381   44.8058 H   0  0  0  0  0  0  0  0  0  0  0  0
  1  2  1  0
  1  5  1  0
  2  3  2  0
  3  4  1  0
  3 11  1  0
  5  4  2  0
  6  5  1  0
  6 10  1  0
  7  6  2  0
  8  7  1  0
  8  9  2  0
  9 10  1  0
 11 16  1  0
 12 13  2  0
 13 14  1  0
 15 14  2  0
 16 15  1  0
 17 16  2  0
 17 12  1  0
  1 18  1  0
  4 19  1  0
  7 20  1  0
  8 21  1  0
  9 22  1  0
 12 23  1  0
 13 24  1  0
 14 25  1  0
M  ISO  8  18   9  19  14  20  14  21  14  22  14  23  14  24  14  25  14
M  END
>  <minimizedAffinity>  (1) 
-5.46895695

>  <minimizedRMSD>  (1) 
7.11142778

$$$$
