
     RDKit          3D

 31 33  0  0  0  0  0  0  0  0999 V2000
   39.6100   32.0290   36.8370 N   0  0  0  0  0  0  0  0  0  0  0  0
   38.4110   32.0340   37.3810 N   0  0  0  0  0  0  0  0  0  0  0  0
   38.5070   32.3020   38.7010 C   0  0  0  0  0  0  0  0  0  0  0  0
   39.8480   32.4680   38.9560 C   0  0  0  0  0  0  0  0  0  0  0  0
   40.5530   32.2950   37.7740 C   0  0  0  0  0  0  0  0  0  0  0  0
   44.6480   32.4820   37.0360 C   0  0  0  0  0  0  0  0  0  0  0  0
   43.9260   31.3610   36.6810 C   0  0  0  0  0  0  0  0  0  0  0  0
   42.5640   31.2700   36.9130 C   0  0  0  0  0  0  0  0  0  0  0  0
   41.9880   32.3680   37.5180 C   0  0  0  0  0  0  0  0  0  0  0  0
   42.6840   33.5020   37.8850 C   0  0  0  0  0  0  0  0  0  0  0  0
   44.0450   33.5680   37.6410 C   0  0  0  0  0  0  0  0  0  0  0  0
   46.3700   32.6130   36.7500 S   0  0  0  0  0  0  0  0  0  0  0  0
   46.6450   33.7960   35.8640 O   0  0  0  0  0  0  0  0  0  0  0  0
   46.8840   31.4050   35.9930 O   0  0  0  0  0  0  0  0  0  0  0  0
   37.2790   32.4520   39.9960 S   0  0  0  0  0  0  0  0  0  0  0  0
   37.4720   29.0810   42.1000 C   0  0  0  0  0  0  0  0  0  0  0  0
   36.3320   28.3650   41.6910 C   0  0  0  0  0  0  0  0  0  0  0  0
   35.4750   28.9460   40.7310 C   0  0  0  0  0  0  0  0  0  0  0  0
   35.8100   30.1660   40.2630 N   0  0  0  0  0  0  0  0  0  0  0  0
   36.9180   30.8350   40.6760 C   0  0  0  0  0  0  0  0  0  0  0  0
   37.7180   30.2840   41.5780 N   0  0  0  0  0  0  0  0  0  0  0  0
   39.8039   31.8487   35.8416 H   0  0  0  0  0  0  0  0  0  0  0  0
   40.2893   32.6999   39.9365 H   0  0  0  0  0  0  0  0  0  0  0  0
   44.4456   30.5183   36.2015 H   0  0  0  0  0  0  0  0  0  0  0  0
   41.9798   30.3809   36.6334 H   0  0  0  0  0  0  0  0  0  0  0  0
   42.1633   34.3433   38.3657 H   0  0  0  0  0  0  0  0  0  0  0  0
   44.6285   34.4577   37.9202 H   0  0  0  0  0  0  0  0  0  0  0  0
   46.9794   32.7253   37.9718 H   0  0  0  0  0  0  0  0  0  0  0  0
   38.1567   28.6513   42.8460 H   0  0  0  0  0  0  0  0  0  0  0  0
   36.1127   27.3722   42.1108 H   0  0  0  0  0  0  0  0  0  0  0  0
   34.5719   28.4255   40.3794 H   0  0  0  0  0  0  0  0  0  0  0  0
  1  2  1  0
  1  5  1  0
  2  3  2  0
  3  4  1  0
  3 15  1  0
  5  4  2  0
  6 11  2  0
  7  8  2  0
  7  6  1  0
  8  9  1  0
  9  5  1  0
  9 10  2  0
 11 10  1  0
 12  6  1  0
 13 12  2  0
 14 12  2  0
 15 20  1  0
 17 16  2  0
 18 17  1  0
 19 20  1  0
 19 18  2  0
 20 21  2  0
 21 16  1  0
  1 22  1  0
  4 23  1  0
  7 24  1  0
  8 25  1  0
 10 26  1  0
 11 27  1  0
 12 28  1  0
 16 29  1  0
 17 30  1  0
 18 31  1  0
M  ISO  8  22   9  23  14  24  14  25  14  26  14  27  14  28  11  29  14
M  ISO  2  30  14  31  14
M  END
>  <minimizedAffinity>  (1) 
-5.13807726

>  <minimizedRMSD>  (1) 
1.35423851

$$$$
