
     RDKit          3D

 25 27  0  0  0  0  0  0  0  0999 V2000
   39.4280   32.0140   36.8050 N   0  0  0  0  0  0  0  0  0  0  0  0
   38.2720   31.9810   37.4440 N   0  0  0  0  0  0  0  0  0  0  0  0
   38.4270   32.2900   38.7330 C   0  0  0  0  0  0  0  0  0  0  0  0
   39.7730   32.5340   38.9180 C   0  0  0  0  0  0  0  0  0  0  0  0
   40.4150   32.3560   37.6780 C   0  0  0  0  0  0  0  0  0  0  0  0
   41.8260   32.5320   37.5120 N   0  0  0  0  0  0  0  0  0  0  0  0
   42.3010   33.7700   37.7830 C   0  0  0  0  0  0  0  0  0  0  0  0
   43.6810   33.7150   37.5580 C   0  0  0  0  0  0  0  0  0  0  0  0
   43.9840   32.4700   37.1660 N   0  0  0  0  0  0  0  0  0  0  0  0
   42.8500   31.7440   37.1380 C   0  0  0  0  0  0  0  0  0  0  0  0
   37.2770   32.4210   40.1060 S   0  0  0  0  0  0  0  0  0  0  0  0
   37.4510   29.0070   42.1450 C   0  0  0  0  0  0  0  0  0  0  0  0
   36.3330   28.3030   41.7060 C   0  0  0  0  0  0  0  0  0  0  0  0
   35.4970   28.8940   40.7510 C   0  0  0  0  0  0  0  0  0  0  0  0
   35.8130   30.1300   40.2950 N   0  0  0  0  0  0  0  0  0  0  0  0
   36.9110   30.7890   40.7460 C   0  0  0  0  0  0  0  0  0  0  0  0
   37.7210   30.2310   41.6620 N   0  0  0  0  0  0  0  0  0  0  0  0
   39.5614   31.8126   35.8037 H   0  0  0  0  0  0  0  0  0  0  0  0
   40.2570   32.8168   39.8645 H   0  0  0  0  0  0  0  0  0  0  0  0
   41.7195   34.6433   38.1135 H   0  0  0  0  0  0  0  0  0  0  0  0
   44.3910   34.5462   37.6811 H   0  0  0  0  0  0  0  0  0  0  0  0
   42.7739   30.6834   36.8563 H   0  0  0  0  0  0  0  0  0  0  0  0
   38.1191   28.5569   42.8940 H   0  0  0  0  0  0  0  0  0  0  0  0
   36.1106   27.3012   42.1021 H   0  0  0  0  0  0  0  0  0  0  0  0
   34.6053   28.3676   40.3799 H   0  0  0  0  0  0  0  0  0  0  0  0
  1  2  1  0
  1  5  1  0
  2  3  2  0
  3  4  1  0
  3 11  1  0
  5  4  2  0
  6  5  1  0
  6  7  1  0
  8  7  2  0
  9  8  1  0
 10  9  2  0
 10  6  1  0
 11 16  1  0
 13 12  2  0
 14 13  1  0
 15 16  1  0
 15 14  2  0
 16 17  2  0
 17 12  1  0
  1 18  1  0
  4 19  1  0
  7 20  1  0
  8 21  1  0
 10 22  1  0
 12 23  1  0
 13 24  1  0
 14 25  1  0
M  ISO  8  18   9  19  14  20  14  21  14  22  14  23  14  24  14  25  14
M  END
>  <minimizedAffinity>  (1) 
-4.59174395

>  <minimizedRMSD>  (1) 
1.03042674

$$$$
