
     RDKit          3D

 23 25  0  0  0  0  0  0  0  0999 V2000
   39.6740   32.0620   36.9630 N   0  0  0  0  0  0  0  0  0  0  0  0
   38.4880   31.9740   37.5600 N   0  0  0  0  0  0  0  0  0  0  0  0
   38.5770   32.3510   38.8400 C   0  0  0  0  0  0  0  0  0  0  0  0
   39.8980   32.6920   39.0440 C   0  0  0  0  0  0  0  0  0  0  0  0
   40.5910   32.5090   37.8550 C   0  0  0  0  0  0  0  0  0  0  0  0
   42.0030   32.7470   37.6220 C   0  0  0  0  0  0  0  0  0  0  0  0
   42.5980   33.9350   37.5450 N   0  0  0  0  0  0  0  0  0  0  0  0
   43.8640   33.7570   37.3290 O   0  0  0  0  0  0  0  0  0  0  0  0
   44.1200   32.4550   37.2610 C   0  0  0  0  0  0  0  0  0  0  0  0
   42.9410   31.8250   37.4470 N   0  0  0  0  0  0  0  0  0  0  0  0
   37.3750   32.4620   40.1620 S   0  0  0  0  0  0  0  0  0  0  0  0
   37.5030   28.9930   42.0840 C   0  0  0  0  0  0  0  0  0  0  0  0
   36.3390   28.3300   41.6530 C   0  0  0  0  0  0  0  0  0  0  0  0
   35.4920   28.9660   40.7450 C   0  0  0  0  0  0  0  0  0  0  0  0
   35.8480   30.2010   40.3310 N   0  0  0  0  0  0  0  0  0  0  0  0
   36.9710   30.8270   40.7550 C   0  0  0  0  0  0  0  0  0  0  0  0
   37.7800   30.2240   41.6180 N   0  0  0  0  0  0  0  0  0  0  0  0
   39.8649   31.8274   35.9784 H   0  0  0  0  0  0  0  0  0  0  0  0
   40.3300   33.0492   39.9904 H   0  0  0  0  0  0  0  0  0  0  0  0
   45.0988   31.9840   37.0875 H   0  0  0  0  0  0  0  0  0  0  0  0
   38.1833   28.5068   42.7987 H   0  0  0  0  0  0  0  0  0  0  0  0
   36.1001   27.3235   42.0271 H   0  0  0  0  0  0  0  0  0  0  0  0
   34.5734   28.4820   40.3818 H   0  0  0  0  0  0  0  0  0  0  0  0
  1  2  1  0
  1  5  1  0
  2  3  2  0
  3  4  1  0
  3 11  1  0
  5  4  2  0
  6  5  1  0
  7  6  2  0
  8  7  1  0
  9  8  1  0
  9 10  2  0
 10  6  1  0
 11 16  1  0
 13 12  2  0
 14 13  1  0
 15 14  2  0
 15 16  1  0
 16 17  2  0
 17 12  1  0
  1 18  1  0
  4 19  1  0
  9 20  1  0
 12 21  1  0
 13 22  1  0
 14 23  1  0
M  ISO  6  18   9  19  14  20  14  21  14  22  14  23  14
M  END
>  <minimizedAffinity>  (1) 
-4.55024147

>  <minimizedRMSD>  (1) 
0.869283915

$$$$
