
     RDKit          3D

 19 20  0  0  0  0  0  0  0  0999 V2000
   38.8220   32.5950   40.6890 S   0  0  0  0  0  0  0  0  0  0  0  0
   37.2880   29.1200   41.8590 C   0  0  0  0  0  0  0  0  0  0  0  0
   36.0880   29.0170   41.1500 C   0  0  0  0  0  0  0  0  0  0  0  0
   35.7400   30.0670   40.2730 C   0  0  0  0  0  0  0  0  0  0  0  0
   36.5940   31.1140   40.1730 N   0  0  0  0  0  0  0  0  0  0  0  0
   37.7470   31.1760   40.8780 C   0  0  0  0  0  0  0  0  0  0  0  0
   38.0760   30.1900   41.7030 N   0  0  0  0  0  0  0  0  0  0  0  0
   40.1430   32.2600   36.9810 N   0  0  0  0  0  0  0  0  0  0  0  0
   39.2370   32.0160   37.9080 N   0  0  0  0  0  0  0  0  0  0  0  0
   39.5890   32.5610   39.0820 C   0  0  0  0  0  0  0  0  0  0  0  0
   40.8010   33.1840   38.8560 C   0  0  0  0  0  0  0  0  0  0  0  0
   41.1610   33.0000   37.5240 C   0  0  0  0  0  0  0  0  0  0  0  0
   42.2530   33.4010   36.7760 O   0  0  0  0  0  0  0  0  0  0  0  0
   37.5863   28.3170   42.5491 H   0  0  0  0  0  0  0  0  0  0  0  0
   35.4328   28.1419   41.2720 H   0  0  0  0  0  0  0  0  0  0  0  0
   34.8073   30.0362   39.6907 H   0  0  0  0  0  0  0  0  0  0  0  0
   40.0933   31.9439   36.0020 H   0  0  0  0  0  0  0  0  0  0  0  0
   41.3863   33.7357   39.6064 H   0  0  0  0  0  0  0  0  0  0  0  0
   42.9724   33.9350   37.1972 H   0  0  0  0  0  0  0  0  0  0  0  0
  1  6  1  0
  3  2  2  0
  4  3  1  0
  5  4  2  0
  5  6  1  0
  6  7  2  0
  7  2  1  0
  8 12  1  0
  8  9  1  0
  9 10  2  0
 10  1  1  0
 11 10  1  0
 12 11  2  0
 13 12  1  0
  2 14  1  0
  3 15  1  0
  4 16  1  0
  8 17  1  0
 11 18  1  0
 13 19  1  0
M  ISO  6  14  14  15  14  16  14  17   9  18  14  19   3
M  END
>  <minimizedAffinity>  (1) 
-4.34890079

>  <minimizedRMSD>  (1) 
0.248753503

$$$$
