
     RDKit          3D

 25 27  0  0  0  0  0  0  0  0999 V2000
   37.5200   32.4880   40.2860 S   0  0  0  0  0  0  0  0  0  0  0  0
   37.4260   28.9280   42.0680 C   0  0  0  0  0  0  0  0  0  0  0  0
   36.2440   28.3390   41.5840 C   0  0  0  0  0  0  0  0  0  0  0  0
   35.4550   29.0790   40.6760 C   0  0  0  0  0  0  0  0  0  0  0  0
   35.8880   30.3040   40.3310 N   0  0  0  0  0  0  0  0  0  0  0  0
   37.0280   30.8460   40.8090 C   0  0  0  0  0  0  0  0  0  0  0  0
   37.7850   30.1610   41.6680 N   0  0  0  0  0  0  0  0  0  0  0  0
   39.5910   32.0790   36.9470 N   0  0  0  0  0  0  0  0  0  0  0  0
   38.4470   32.0050   37.6070 N   0  0  0  0  0  0  0  0  0  0  0  0
   38.6290   32.3680   38.8910 C   0  0  0  0  0  0  0  0  0  0  0  0
   39.9670   32.6820   39.0200 C   0  0  0  0  0  0  0  0  0  0  0  0
   40.5880   32.4990   37.7790 C   0  0  0  0  0  0  0  0  0  0  0  0
   41.9880   32.6830   37.3440 C   0  0  0  0  0  0  0  0  0  0  0  0
   42.9630   33.0740   38.3760 C   0  0  0  0  0  0  0  0  0  0  0  0
   42.4800   34.1140   37.4000 C   0  0  0  0  0  0  0  0  0  0  0  0
   38.0605   28.3771   42.7778 H   0  0  0  0  0  0  0  0  0  0  0  0
   35.9426   27.3305   41.9036 H   0  0  0  0  0  0  0  0  0  0  0  0
   34.5205   28.6681   40.2662 H   0  0  0  0  0  0  0  0  0  0  0  0
   39.7119   31.8524   35.9495 H   0  0  0  0  0  0  0  0  0  0  0  0
   40.4619   33.0192   39.9427 H   0  0  0  0  0  0  0  0  0  0  0  0
   41.9590   31.8860   36.5864 H   0  0  0  0  0  0  0  0  0  0  0  0
   42.6523   33.1269   39.4299 H   0  0  0  0  0  0  0  0  0  0  0  0
   43.9527   32.7039   38.6817 H   0  0  0  0  0  0  0  0  0  0  0  0
   43.1546   34.4993   36.6212 H   0  0  0  0  0  0  0  0  0  0  0  0
   42.0100   35.1058   37.4747 H   0  0  0  0  0  0  0  0  0  0  0  0
  1  6  1  0
  3  2  2  0
  4  3  1  0
  5  4  2  0
  5  6  1  0
  6  7  2  0
  7  2  1  0
  8  9  1  0
  8 12  1  0
  9 10  2  0
 10 11  1  0
 10  1  1  0
 12 11  2  0
 13 15  1  0
 13 12  1  0
 13 14  1  0
 15 14  1  0
  2 16  1  0
  3 17  1  0
  4 18  1  0
  8 19  1  0
 11 20  1  0
 13 21  1  0
 14 22  1  0
 14 23  1  0
 15 24  1  0
 15 25  1  0
M  ISO  8  16  14  17  14  18  14  19   9  20  14  21  13  22  13  23  13
M  ISO  2  24  13  25  13
M  END
>  <minimizedAffinity>  (1) 
-4.302701

>  <minimizedRMSD>  (1) 
0.687532008

$$$$
