
     RDKit          3D

 19 20  0  0  0  0  0  0  0  0999 V2000
   38.0440   32.6450   40.5010 S   0  0  0  0  0  0  0  0  0  0  0  0
   37.1010   29.0400   41.8930 C   0  0  0  0  0  0  0  0  0  0  0  0
   35.9600   28.6880   41.1580 C   0  0  0  0  0  0  0  0  0  0  0  0
   35.4730   29.5890   40.2100 C   0  0  0  0  0  0  0  0  0  0  0  0
   36.1250   30.7720   40.0380 N   0  0  0  0  0  0  0  0  0  0  0  0
   37.2210   31.0720   40.7670 C   0  0  0  0  0  0  0  0  0  0  0  0
   37.6990   30.2120   41.6820 N   0  0  0  0  0  0  0  0  0  0  0  0
   39.9980   32.1850   37.0890 N   0  0  0  0  0  0  0  0  0  0  0  0
   38.9180   32.0250   37.8210 N   0  0  0  0  0  0  0  0  0  0  0  0
   39.1020   32.5400   39.0560 C   0  0  0  0  0  0  0  0  0  0  0  0
   40.3820   33.0510   39.0860 C   0  0  0  0  0  0  0  0  0  0  0  0
   40.9560   32.8260   37.8340 C   0  0  0  0  0  0  0  0  0  0  0  0
   42.5740   33.2570   37.2720 S   0  0  0  0  0  0  0  0  0  0  0  0
   37.5037   28.3466   42.6460 H   0  0  0  0  0  0  0  0  0  0  0  0
   35.4596   27.7227   41.3250 H   0  0  0  0  0  0  0  0  0  0  0  0
   34.5805   29.3484   39.6138 H   0  0  0  0  0  0  0  0  0  0  0  0
   40.1078   31.8782   36.1119 H   0  0  0  0  0  0  0  0  0  0  0  0
   40.8637   33.5464   39.9419 H   0  0  0  0  0  0  0  0  0  0  0  0
   43.3895   33.4742   38.3512 H   0  0  0  0  0  0  0  0  0  0  0  0
  1  6  1  0
  3  2  2  0
  4  3  1  0
  5  4  2  0
  5  6  1  0
  6  7  2  0
  7  2  1  0
  8  9  1  0
  8 12  1  0
  9 10  2  0
 10 11  1  0
 10  1  1  0
 12 11  2  0
 13 12  1  0
  2 14  1  0
  3 15  1  0
  4 16  1  0
  8 17  1  0
 11 18  1  0
 13 19  1  0
M  ISO  6  14  14  15  14  16  14  17   9  18  14  19  11
M  END
>  <minimizedAffinity>  (1) 
-3.92637825

>  <minimizedRMSD>  (1) 
0.294634938

$$$$
