
     RDKit          3D

 47 51  0  0  0  0  0  0  0  0999 V2000
   38.4960   33.7150   40.8910 N   0  0  0  0  0  0  0  0  0  0  0  0
   39.2730   34.5350   40.2070 N   0  0  0  0  0  0  0  0  0  0  0  0
   40.2990   33.8370   39.6850 C   0  0  0  0  0  0  0  0  0  0  0  0
   40.0740   32.5470   40.1060 C   0  0  0  0  0  0  0  0  0  0  0  0
   38.9140   32.4690   40.8820 C   0  0  0  0  0  0  0  0  0  0  0  0
   38.5050   31.2180   41.4410 C   0  0  0  0  0  0  0  0  0  0  0  0
   39.2360   30.6710   42.4410 N   0  0  0  0  0  0  0  0  0  0  0  0
   38.9750   29.5380   43.0630 C   0  0  0  0  0  0  0  0  0  0  0  0
   37.9120   28.7880   42.7460 N   0  0  0  0  0  0  0  0  0  0  0  0
   37.1040   29.2320   41.7580 C   0  0  0  0  0  0  0  0  0  0  0  0
   36.0020   28.5000   41.3990 C   0  0  0  0  0  0  0  0  0  0  0  0
   35.1470   28.9250   40.3860 C   0  0  0  0  0  0  0  0  0  0  0  0
   35.4800   30.1350   39.7620 C   0  0  0  0  0  0  0  0  0  0  0  0
   36.6000   30.8100   40.1790 C   0  0  0  0  0  0  0  0  0  0  0  0
   37.4460   30.4150   41.1650 C   0  0  0  0  0  0  0  0  0  0  0  0
   41.7090   34.2990   38.6890 S   0  0  0  0  0  0  0  0  0  0  0  0
   45.4340   34.2120   40.1030 C   0  0  0  0  0  0  0  0  0  0  0  0
   45.3150   34.7280   41.3920 C   0  0  0  0  0  0  0  0  0  0  0  0
   44.0680   35.1130   41.8460 C   0  0  0  0  0  0  0  0  0  0  0  0
   43.0170   34.9640   40.9950 N   0  0  0  0  0  0  0  0  0  0  0  0
   43.1580   34.4600   39.7440 C   0  0  0  0  0  0  0  0  0  0  0  0
   44.3580   34.0990   39.3350 N   0  0  0  0  0  0  0  0  0  0  0  0
   43.8520   35.6430   43.1270 N   0  0  0  0  0  0  0  0  0  0  0  0
   44.6750   35.2880   44.2640 C   0  0  0  0  0  0  0  0  0  0  0  0
   44.6290   36.5040   45.1970 C   0  0  0  0  0  0  0  0  0  0  0  0
   44.7670   37.7610   44.3400 C   0  0  0  0  0  0  0  0  0  0  0  0
   43.4160   37.9390   43.6400 C   0  0  0  0  0  0  0  0  0  0  0  0
   42.7750   36.5840   43.3660 C   0  0  0  0  0  0  0  0  0  0  0  0
   37.6452   34.0221   41.3836 H   0  0  0  0  0  0  0  0  0  0  0  0
   40.7208   31.6907   39.8642 H   0  0  0  0  0  0  0  0  0  0  0  0
   39.6488   29.1998   43.8640 H   0  0  0  0  0  0  0  0  0  0  0  0
   35.7887   27.5565   41.9227 H   0  0  0  0  0  0  0  0  0  0  0  0
   34.2604   28.3441   40.0920 H   0  0  0  0  0  0  0  0  0  0  0  0
   34.8542   30.5370   38.9516 H   0  0  0  0  0  0  0  0  0  0  0  0
   36.8333   31.7561   39.6685 H   0  0  0  0  0  0  0  0  0  0  0  0
   46.4178   33.8991   39.7231 H   0  0  0  0  0  0  0  0  0  0  0  0
   46.1998   34.8273   42.0379 H   0  0  0  0  0  0  0  0  0  0  0  0
   44.2694   34.3994   44.7699 H   0  0  0  0  0  0  0  0  0  0  0  0
   45.7042   35.0428   43.9628 H   0  0  0  0  0  0  0  0  0  0  0  0
   43.6712   36.5239   45.7376 H   0  0  0  0  0  0  0  0  0  0  0  0
   45.4443   36.4519   45.9336 H   0  0  0  0  0  0  0  0  0  0  0  0
   44.9887   38.6333   44.9724 H   0  0  0  0  0  0  0  0  0  0  0  0
   45.5895   37.6688   43.6154 H   0  0  0  0  0  0  0  0  0  0  0  0
   42.7496   38.5312   44.2843 H   0  0  0  0  0  0  0  0  0  0  0  0
   43.5764   38.4570   42.6830 H   0  0  0  0  0  0  0  0  0  0  0  0
   42.1250   36.6462   42.4808 H   0  0  0  0  0  0  0  0  0  0  0  0
   42.1574   36.2638   44.2180 H   0  0  0  0  0  0  0  0  0  0  0  0
  2  1  1  0
  3  4  1  0
  3  2  2  0
  4  5  2  0
  5  1  1  0
  5  6  1  0
  6  7  2  0
  7  8  1  0
  9  8  2  0
 10  9  1  0
 11 10  2  0
 12 11  1  0
 13 14  1  0
 13 12  2  0
 14 15  2  0
 15  6  1  0
 15 10  1  0
 16  3  1  0
 16 21  1  0
 17 18  2  0
 18 19  1  0
 19 23  1  0
 20 19  2  0
 21 20  1  0
 22 21  2  0
 22 17  1  0
 23 28  1  0
 23 24  1  0
 24 25  1  0
 26 25  1  0
 27 26  1  0
 28 27  1  0
  1 29  1  0
  4 30  1  0
  8 31  1  0
 11 32  1  0
 12 33  1  0
 13 34  1  0
 14 35  1  0
 17 36  1  0
 18 37  1  0
 24 38  1  0
 24 39  1  0
 25 40  1  0
 25 41  1  0
 26 42  1  0
 26 43  1  0
 27 44  1  0
 27 45  1  0
 28 46  1  0
 28 47  1  0
M  ISO  8  29   9  30  14  31  14  32  14  33  14  34  14  35  14  36  14
M  ISO  8  37  14  38  13  39  13  40  13  41  13  42  13  43  13  44  13
M  ISO  3  45  13  46  13  47  13
M  END
>  <minimizedAffinity>  (1) 
-7.22196245

>  <minimizedRMSD>  (1) 
2.00174284

$$$$
