
     RDKit          3D

 33 36  0  0  0  0  0  0  0  0999 V2000
   37.3410   33.7190   39.9980 N   0  0  0  0  0  0  0  0  0  0  0  0
   37.7510   34.9420   39.7340 N   0  0  0  0  0  0  0  0  0  0  0  0
   38.9940   35.1040   40.2310 C   0  0  0  0  0  0  0  0  0  0  0  0
   39.2850   33.8900   40.8050 C   0  0  0  0  0  0  0  0  0  0  0  0
   38.2190   32.9970   40.6560 C   0  0  0  0  0  0  0  0  0  0  0  0
   38.3120   31.6780   41.2000 C   0  0  0  0  0  0  0  0  0  0  0  0
   39.3760   31.3460   41.9650 N   0  0  0  0  0  0  0  0  0  0  0  0
   39.5870   30.1730   42.5400 C   0  0  0  0  0  0  0  0  0  0  0  0
   38.7240   29.1590   42.4110 N   0  0  0  0  0  0  0  0  0  0  0  0
   37.6170   29.3770   41.6640 C   0  0  0  0  0  0  0  0  0  0  0  0
   36.7010   28.3680   41.5020 C   0  0  0  0  0  0  0  0  0  0  0  0
   35.5520   28.5440   40.7440 C   0  0  0  0  0  0  0  0  0  0  0  0
   35.3860   29.8010   40.1610 C   0  0  0  0  0  0  0  0  0  0  0  0
   36.3430   30.7610   40.3670 C   0  0  0  0  0  0  0  0  0  0  0  0
   37.4750   30.6130   41.1040 C   0  0  0  0  0  0  0  0  0  0  0  0
   40.1310   36.4840   40.2580 S   0  0  0  0  0  0  0  0  0  0  0  0
   43.4340   34.6420   41.4970 C   0  0  0  0  0  0  0  0  0  0  0  0
   43.8270   35.3550   42.6140 C   0  0  0  0  0  0  0  0  0  0  0  0
   43.0620   36.4490   43.0200 C   0  0  0  0  0  0  0  0  0  0  0  0
   41.9610   36.7520   42.2850 N   0  0  0  0  0  0  0  0  0  0  0  0
   41.6040   36.0220   41.1860 C   0  0  0  0  0  0  0  0  0  0  0  0
   42.3460   34.9900   40.8210 N   0  0  0  0  0  0  0  0  0  0  0  0
   43.2550   37.3000   44.0890 O   0  0  0  0  0  0  0  0  0  0  0  0
   36.4174   33.3616   39.7148 H   0  0  0  0  0  0  0  0  0  0  0  0
   40.2307   33.6521   41.3140 H   0  0  0  0  0  0  0  0  0  0  0  0
   40.4971   30.0277   43.1406 H   0  0  0  0  0  0  0  0  0  0  0  0
   36.8819   27.3963   41.9847 H   0  0  0  0  0  0  0  0  0  0  0  0
   34.8144   27.7389   40.6104 H   0  0  0  0  0  0  0  0  0  0  0  0
   34.5007   30.0184   39.5454 H   0  0  0  0  0  0  0  0  0  0  0  0
   36.1796   31.7399   39.8926 H   0  0  0  0  0  0  0  0  0  0  0  0
   44.0285   33.7780   41.1652 H   0  0  0  0  0  0  0  0  0  0  0  0
   44.7283   35.0647   43.1738 H   0  0  0  0  0  0  0  0  0  0  0  0
   42.6197   38.0414   44.2524 H   0  0  0  0  0  0  0  0  0  0  0  0
  1  5  1  0
  2  1  1  0
  2  3  2  0
  3 16  1  0
  3  4  1  0
  5  4  2  0
  5  6  1  0
  6  7  2  0
  7  8  1  0
  9  8  2  0
 10  9  1  0
 11 10  2  0
 12 11  1  0
 13 14  1  0
 13 12  2  0
 14 15  2  0
 15  6  1  0
 15 10  1  0
 16 21  1  0
 17 18  2  0
 18 19  1  0
 19 23  1  0
 20 19  2  0
 21 20  1  0
 22 21  2  0
 22 17  1  0
  1 24  1  0
  4 25  1  0
  8 26  1  0
 11 27  1  0
 12 28  1  0
 13 29  1  0
 14 30  1  0
 17 31  1  0
 18 32  1  0
 23 33  1  0
M  ISO  8  24   9  25  14  26  14  27  14  28  14  29  14  30  14  31  14
M  ISO  2  32  14  33   3
M  END
>  <minimizedAffinity>  (1) 
-7.04843044

>  <minimizedRMSD>  (1) 
0.793278813

$$$$
