
     RDKit          3D

 44 47  0  0  0  0  0  0  0  0999 V2000
   37.9410   33.7310   40.7100 N   0  0  0  0  0  0  0  0  0  0  0  0
   38.6550   34.7230   40.2110 N   0  0  0  0  0  0  0  0  0  0  0  0
   39.9280   34.3160   40.0510 C   0  0  0  0  0  0  0  0  0  0  0  0
   39.9190   33.0130   40.4870 C   0  0  0  0  0  0  0  0  0  0  0  0
   38.6420   32.6360   40.9110 C   0  0  0  0  0  0  0  0  0  0  0  0
   38.4180   31.3220   41.4280 C   0  0  0  0  0  0  0  0  0  0  0  0
   39.2810   30.8040   42.3340 N   0  0  0  0  0  0  0  0  0  0  0  0
   39.1860   29.6180   42.9060 C   0  0  0  0  0  0  0  0  0  0  0  0
   38.1840   28.7810   42.6340 N   0  0  0  0  0  0  0  0  0  0  0  0
   37.2510   29.1870   41.7390 C   0  0  0  0  0  0  0  0  0  0  0  0
   36.2010   28.3670   41.4200 C   0  0  0  0  0  0  0  0  0  0  0  0
   35.2300   28.7530   40.5010 C   0  0  0  0  0  0  0  0  0  0  0  0
   35.3850   30.0020   39.9310 C   0  0  0  0  0  0  0  0  0  0  0  0
   36.4650   30.7720   40.3000 C   0  0  0  0  0  0  0  0  0  0  0  0
   37.4270   30.4260   41.1940 C   0  0  0  0  0  0  0  0  0  0  0  0
   41.4000   35.1300   39.4580 S   0  0  0  0  0  0  0  0  0  0  0  0
   44.4860   33.0140   40.7940 C   0  0  0  0  0  0  0  0  0  0  0  0
   44.9670   33.7500   41.8840 C   0  0  0  0  0  0  0  0  0  0  0  0
   44.3240   34.9270   42.2200 C   0  0  0  0  0  0  0  0  0  0  0  0
   43.2620   35.3240   41.4870 N   0  0  0  0  0  0  0  0  0  0  0  0
   42.8200   34.5710   40.4220 C   0  0  0  0  0  0  0  0  0  0  0  0
   43.4330   33.4300   40.0880 N   0  0  0  0  0  0  0  0  0  0  0  0
   44.6720   35.8500   43.3320 C   0  0  0  0  0  0  0  0  0  0  0  0
   43.5110   36.7480   43.6940 C   0  0  0  0  0  0  0  0  0  0  0  0
   45.8370   36.7550   42.9620 C   0  0  0  0  0  0  0  0  0  0  0  0
   45.1550   35.0480   44.5370 C   0  0  0  0  0  0  0  0  0  0  0  0
   36.9357   33.8067   40.9209 H   0  0  0  0  0  0  0  0  0  0  0  0
   40.7999   32.3543   40.5005 H   0  0  0  0  0  0  0  0  0  0  0  0
   39.9564   29.3109   43.6286 H   0  0  0  0  0  0  0  0  0  0  0  0
   36.1237   27.3809   41.9013 H   0  0  0  0  0  0  0  0  0  0  0  0
   34.3844   28.0988   40.2422 H   0  0  0  0  0  0  0  0  0  0  0  0
   34.6577   30.3749   39.1948 H   0  0  0  0  0  0  0  0  0  0  0  0
   36.5574   31.7604   39.8262 H   0  0  0  0  0  0  0  0  0  0  0  0
   44.9859   32.0749   40.5145 H   0  0  0  0  0  0  0  0  0  0  0  0
   45.8364   33.3997   42.4597 H   0  0  0  0  0  0  0  0  0  0  0  0
   43.4258   36.8139   44.7887 H   0  0  0  0  0  0  0  0  0  0  0  0
   43.6807   37.7522   43.2783 H   0  0  0  0  0  0  0  0  0  0  0  0
   42.5817   36.3313   43.2783 H   0  0  0  0  0  0  0  0  0  0  0  0
   46.3171   37.1280   43.8787 H   0  0  0  0  0  0  0  0  0  0  0  0
   46.5692   36.1865   42.3698 H   0  0  0  0  0  0  0  0  0  0  0  0
   45.4673   37.6051   42.3698 H   0  0  0  0  0  0  0  0  0  0  0  0
   44.8485   35.5569   45.4628 H   0  0  0  0  0  0  0  0  0  0  0  0
   44.7129   34.0411   44.5084 H   0  0  0  0  0  0  0  0  0  0  0  0
   46.2517   34.9679   44.5084 H   0  0  0  0  0  0  0  0  0  0  0  0
  1  5  1  0
  2  1  1  0
  3  2  2  0
  3  4  1  0
  4  5  2  0
  5  6  1  0
  6  7  2  0
  7  8  1  0
  9  8  2  0
 10  9  1  0
 11 10  2  0
 12 11  1  0
 13 14  1  0
 13 12  2  0
 14 15  2  0
 15  6  1  0
 15 10  1  0
 16  3  1  0
 16 21  1  0
 17 18  2  0
 18 19  1  0
 19 23  1  0
 20 19  2  0
 21 20  1  0
 22 21  2  0
 22 17  1  0
 23 24  1  0
 23 26  1  0
 25 23  1  0
  1 27  1  0
  4 28  1  0
  8 29  1  0
 11 30  1  0
 12 31  1  0
 13 32  1  0
 14 33  1  0
 17 34  1  0
 18 35  1  0
 24 36  1  0
 24 37  1  0
 24 38  1  0
 25 39  1  0
 25 40  1  0
 25 41  1  0
 26 42  1  0
 26 43  1  0
 26 44  1  0
M  ISO  8  27   9  28  14  29  14  30  14  31  14  32  14  33  14  34  14
M  ISO  8  35  14  36   8  37   8  38   8  39   8  40   8  41   8  42   8
M  ISO  2  43   8  44   8
M  END
>  <minimizedAffinity>  (1) 
-6.91190529

>  <minimizedRMSD>  (1) 
1.91590023

$$$$
