
     RDKit          3D

 28 29  0  0  1  0  0  0  0  0999 V2000
   39.8130   31.9020   41.5800 C   0  0  0  0  0  0  0  0  0  0  0  0
   39.3650   30.6230   41.9790 C   0  0  0  0  0  0  0  0  0  0  0  0
   38.0760   30.2430   41.6680 C   0  0  0  0  0  0  0  0  0  0  0  0
   37.2900   31.1140   40.9930 N   0  0  0  0  0  0  0  0  0  0  0  0
   37.7440   32.3380   40.6210 C   0  0  0  0  0  0  0  0  0  0  0  0
   38.9910   32.7370   40.9080 N   0  0  0  0  0  0  0  0  0  0  0  0
   36.8410   33.1990   39.9070 N   0  0  0  0  0  0  0  0  0  0  0  0
   37.5840   28.9650   42.0500 N   0  0  0  0  0  0  0  0  0  0  0  0
   37.5500   28.5710   43.4140 C   0  0  0  0  0  0  0  0  0  0  0  0
   36.4860   27.4710   43.5290 C   0  0  0  0  0  0  0  0  0  0  0  0
   36.7970   26.3370   42.7120 N   0  0  0  0  0  0  0  0  0  0  0  0
   37.3850   26.6360   41.4530 C   0  0  0  0  0  0  0  0  0  0  0  0
   37.1080   28.0580   41.0200 C   0  0  2  0  0  0  0  0  0  0  0  0
   37.9050   28.3630   39.7850 C   0  0  0  0  0  0  0  0  0  0  0  0
   37.3300   28.4440   38.7020 O   0  0  0  0  0  0  0  0  0  0  0  0
   40.8387   32.2202   41.8183 H   0  0  0  0  0  0  0  0  0  0  0  0
   40.0323   29.9422   42.5279 H   0  0  0  0  0  0  0  0  0  0  0  0
   35.8855   32.8794   39.6932 H   0  0  0  0  0  0  0  0  0  0  0  0
   37.1495   34.1355   39.6092 H   0  0  0  0  0  0  0  0  0  0  0  0
   38.5321   28.1820   43.7208 H   0  0  0  0  0  0  0  0  0  0  0  0
   37.3097   29.4236   44.0662 H   0  0  0  0  0  0  0  0  0  0  0  0
   36.4227   27.1463   44.5781 H   0  0  0  0  0  0  0  0  0  0  0  0
   35.5283   27.8869   43.1829 H   0  0  0  0  0  0  0  0  0  0  0  0
   37.4524   25.7387   43.2349 H   0  0  0  0  0  0  0  0  0  0  0  0
   38.4732   26.4931   41.5267 H   0  0  0  0  0  0  0  0  0  0  0  0
   36.9441   25.9616   40.7042 H   0  0  0  0  0  0  0  0  0  0  0  0
   36.0290   28.1749   40.8411 H   0  0  0  0  0  0  0  0  0  0  0  0
   38.9929   28.5125   39.8488 H   0  0  0  0  0  0  0  0  0  0  0  0
  1  2  2  0
  3  2  1  0
  3  8  1  0
  4  3  2  0
  5  6  2  0
  5  4  1  0
  6  1  1  0
  7  5  1  0
  8  9  1  0
  9 10  1  0
 11 10  1  0
 12 11  1  0
 13 12  1  0
 13  8  1  0
 14 13  1  0
 15 14  2  0
  1 16  1  0
  2 17  1  0
  7 18  1  0
  7 19  1  0
  9 20  1  0
  9 21  1  0
 10 22  1  0
 10 23  1  0
 11 24  1  0
 12 25  1  0
 12 26  1  0
 13 27  1  6
 14 28  1  0
M  ISO  8  16  14  17  14  20  13  21  13  22  13  23  13  24   5  25  13
M  ISO  3  26  13  27  13  28   6
M  END
>  <minimizedAffinity>  (1) 
-4.55440092

>  <minimizedRMSD>  (1) 
0.212419361

$$$$
