
     RDKit          3D

 45 49  0  0  0  0  0  0  0  0999 V2000
   37.0870   33.3760   39.9060 N   0  0  0  0  0  0  0  0  0  0  0  0
   37.4060   34.6080   39.5970 N   0  0  0  0  0  0  0  0  0  0  0  0
   38.6480   34.8690   40.0890 C   0  0  0  0  0  0  0  0  0  0  0  0
   39.0260   33.6830   40.7070 C   0  0  0  0  0  0  0  0  0  0  0  0
   37.9910   32.7330   40.5730 C   0  0  0  0  0  0  0  0  0  0  0  0
   38.1380   31.4640   41.1750 C   0  0  0  0  0  0  0  0  0  0  0  0
   39.2340   31.2050   41.9470 N   0  0  0  0  0  0  0  0  0  0  0  0
   39.4740   30.0910   42.6010 C   0  0  0  0  0  0  0  0  0  0  0  0
   38.6430   29.0490   42.5830 N   0  0  0  0  0  0  0  0  0  0  0  0
   37.5130   29.1800   41.8490 C   0  0  0  0  0  0  0  0  0  0  0  0
   36.6180   28.1520   41.7830 C   0  0  0  0  0  0  0  0  0  0  0  0
   35.4490   28.2560   41.0260 C   0  0  0  0  0  0  0  0  0  0  0  0
   35.2500   29.4510   40.3510 C   0  0  0  0  0  0  0  0  0  0  0  0
   36.2030   30.4280   40.4760 C   0  0  0  0  0  0  0  0  0  0  0  0
   37.3390   30.3720   41.1960 C   0  0  0  0  0  0  0  0  0  0  0  0
   39.6960   36.3310   40.1140 S   0  0  0  0  0  0  0  0  0  0  0  0
   43.2060   34.6610   40.8640 C   0  0  0  0  0  0  0  0  0  0  0  0
   43.6630   35.3260   42.0210 C   0  0  0  0  0  0  0  0  0  0  0  0
   42.8770   36.2950   42.5880 C   0  0  0  0  0  0  0  0  0  0  0  0
   41.6850   36.5690   41.9970 N   0  0  0  0  0  0  0  0  0  0  0  0
   41.2630   35.9280   40.8930 C   0  0  0  0  0  0  0  0  0  0  0  0
   42.0170   34.9890   40.3410 N   0  0  0  0  0  0  0  0  0  0  0  0
   43.3960   36.9590   43.7910 C   0  0  0  0  0  0  0  0  0  0  0  0
   44.8100   36.7120   44.1000 C   0  0  0  0  0  0  0  0  0  0  0  0
   45.0670   35.6550   45.0540 N   0  0  0  0  0  0  0  0  0  0  0  0
   44.8830   35.3820   46.3300 N   0  0  0  0  0  0  0  0  0  0  0  0
   45.3620   34.1870   46.6570 C   0  0  0  0  0  0  0  0  0  0  0  0
   45.9050   33.6080   45.5320 C   0  0  0  0  0  0  0  0  0  0  0  0
   45.7040   34.5540   44.5490 C   0  0  0  0  0  0  0  0  0  0  0  0
   36.1871   32.9518   39.6391 H   0  0  0  0  0  0  0  0  0  0  0  0
   39.9833   33.5114   41.2209 H   0  0  0  0  0  0  0  0  0  0  0  0
   40.4007   30.0150   43.1887 H   0  0  0  0  0  0  0  0  0  0  0  0
   36.8212   27.2235   42.3367 H   0  0  0  0  0  0  0  0  0  0  0  0
   34.7228   27.4318   40.9681 H   0  0  0  0  0  0  0  0  0  0  0  0
   34.3537   29.6100   39.7335 H   0  0  0  0  0  0  0  0  0  0  0  0
   36.0189   31.3628   39.9263 H   0  0  0  0  0  0  0  0  0  0  0  0
   43.8212   33.8791   40.3948 H   0  0  0  0  0  0  0  0  0  0  0  0
   44.6375   35.0702   42.4624 H   0  0  0  0  0  0  0  0  0  0  0  0
   43.2638   38.0433   43.6611 H   0  0  0  0  0  0  0  0  0  0  0  0
   42.8288   36.5355   44.6330 H   0  0  0  0  0  0  0  0  0  0  0  0
   45.3209   36.4519   43.1612 H   0  0  0  0  0  0  0  0  0  0  0  0
   45.1811   37.6358   44.5678 H   0  0  0  0  0  0  0  0  0  0  0  0
   45.3302   33.7353   47.6595 H   0  0  0  0  0  0  0  0  0  0  0  0
   46.3858   32.6230   45.4392 H   0  0  0  0  0  0  0  0  0  0  0  0
   46.0140   34.4391   43.4999 H   0  0  0  0  0  0  0  0  0  0  0  0
  1  5  1  0
  2  1  1  0
  2  3  2  0
  3 16  1  0
  3  4  1  0
  5  4  2  0
  5  6  1  0
  6 15  1  0
  6  7  2  0
  7  8  1  0
  9  8  2  0
 10  9  1  0
 11 10  2  0
 12 11  1  0
 13 14  1  0
 13 12  2  0
 14 15  2  0
 15 10  1  0
 16 21  1  0
 17 18  2  0
 18 19  1  0
 19 23  1  0
 20 19  2  0
 21 20  1  0
 22 17  1  0
 22 21  2  0
 23 24  1  0
 24 25  1  0
 25 26  1  0
 26 27  2  0
 28 27  1  0
 29 25  1  0
 29 28  2  0
  1 30  1  0
  4 31  1  0
  8 32  1  0
 11 33  1  0
 12 34  1  0
 13 35  1  0
 14 36  1  0
 17 37  1  0
 18 38  1  0
 23 39  1  0
 23 40  1  0
 24 41  1  0
 24 42  1  0
 27 43  1  0
 28 44  1  0
 29 45  1  0
M  ISO  8  30   9  31  14  32  14  33  14  34  14  35  14  36  14  37  14
M  ISO  8  38  14  39   8  40   8  41   8  42   8  43  14  44  14  45  14
M  END
>  <minimizedAffinity>  (1) 
-7.60357237

>  <minimizedRMSD>  (1) 
0.934823871

$$$$
