
     RDKit          3D

 37 40  0  0  1  0  0  0  0  0999 V2000
   36.9550   29.5090   39.0480 C   0  0  1  0  0  0  0  0  0  0  0  0
   36.1150   29.6450   40.3290 C   0  0  1  0  0  0  0  0  0  0  0  0
   34.7540   29.1470   39.8950 C   0  0  0  0  0  0  0  0  0  0  0  0
   34.8110   28.9150   38.4030 C   0  0  0  0  0  0  0  0  0  0  0  0
   35.9420   29.8830   38.0140 C   0  0  0  0  0  0  0  0  0  0  0  0
   36.7260   28.8010   41.3510 C   0  0  0  0  0  0  0  0  0  0  0  0
   37.1030   29.5160   42.4550 N   0  0  0  0  0  0  0  0  0  0  0  0
   37.6820   28.8720   43.5100 C   0  0  0  0  0  0  0  0  0  0  0  0
   37.8970   27.5380   43.5010 N   0  0  0  0  0  0  0  0  0  0  0  0
   37.5380   26.8170   42.4380 C   0  0  0  0  0  0  0  0  0  0  0  0
   37.7180   25.4500   42.3260 C   0  0  0  0  0  0  0  0  0  0  0  0
   37.3310   24.7360   41.1870 C   0  0  0  0  0  0  0  0  0  0  0  0
   36.7430   25.4330   40.1280 C   0  0  0  0  0  0  0  0  0  0  0  0
   36.5730   26.7940   40.2610 C   0  0  0  0  0  0  0  0  0  0  0  0
   36.9600   27.4590   41.3810 C   0  0  0  0  0  0  0  0  0  0  0  0
   38.1150   30.3900   39.1230 C   0  0  0  0  0  0  0  0  0  0  0  0
   37.8700   31.7870   39.2760 C   0  0  0  0  0  0  0  0  0  0  0  0
   38.9960   32.6320   39.3640 C   0  0  0  0  0  0  0  0  0  0  0  0
   40.2430   32.0550   39.2990 N   0  0  0  0  0  0  0  0  0  0  0  0
   40.4080   30.7180   39.1520 C   0  0  0  0  0  0  0  0  0  0  0  0
   39.3460   29.8840   39.0650 N   0  0  0  0  0  0  0  0  0  0  0  0
   37.4025   28.5245   38.8467 H   0  0  0  0  0  0  0  0  0  0  0  0
   36.0487   30.6569   40.7553 H   0  0  0  0  0  0  0  0  0  0  0  0
   34.5155   28.2062   40.4127 H   0  0  0  0  0  0  0  0  0  0  0  0
   33.9745   29.8822   40.1437 H   0  0  0  0  0  0  0  0  0  0  0  0
   35.0677   27.8726   38.1633 H   0  0  0  0  0  0  0  0  0  0  0  0
   33.8606   29.0835   37.8754 H   0  0  0  0  0  0  0  0  0  0  0  0
   36.3089   29.6963   36.9939 H   0  0  0  0  0  0  0  0  0  0  0  0
   35.6620   30.9466   37.9967 H   0  0  0  0  0  0  0  0  0  0  0  0
   37.9822   29.4556   44.3928 H   0  0  0  0  0  0  0  0  0  0  0  0
   38.1816   24.9054   43.1618 H   0  0  0  0  0  0  0  0  0  0  0  0
   37.4863   23.6487   41.1262 H   0  0  0  0  0  0  0  0  0  0  0  0
   36.4249   24.9100   39.2141 H   0  0  0  0  0  0  0  0  0  0  0  0
   36.1110   27.3580   39.4373 H   0  0  0  0  0  0  0  0  0  0  0  0
   36.8468   32.1881   39.3233 H   0  0  0  0  0  0  0  0  0  0  0  0
   38.8804   33.7196   39.4811 H   0  0  0  0  0  0  0  0  0  0  0  0
   41.4253   30.3025   39.1024 H   0  0  0  0  0  0  0  0  0  0  0  0
  1 16  1  0
  1  2  1  0
  2  6  1  0
  3  2  1  0
  4  3  1  0
  5  4  1  0
  5  1  1  0
  6 15  1  0
  6  7  2  0
  7  8  1  0
  9  8  2  0
 10  9  1  0
 11 10  2  0
 12 11  1  0
 13 14  1  0
 13 12  2  0
 14 15  2  0
 15 10  1  0
 16 17  2  0
 17 18  1  0
 19 18  2  0
 20 19  1  0
 21 16  1  0
 21 20  2  0
  1 22  1  6
  2 23  1  1
  3 24  1  0
  3 25  1  0
  4 26  1  0
  4 27  1  0
  5 28  1  0
  5 29  1  0
  8 30  1  0
 11 31  1  0
 12 32  1  0
 13 33  1  0
 14 34  1  0
 17 35  1  0
 18 36  1  0
 20 37  1  0
M  ISO  8  22  13  23  13  24  13  25  13  26  13  27  13  28  13  29  13
M  ISO  8  30  14  31  14  32  14  33  14  34  14  35  14  36  14  37  14
M  END
>  <minimizedAffinity>  (1) 
-5.75173044

>  <minimizedRMSD>  (1) 
4.21419859

$$$$
