
     RDKit          3D

 33 35  0  0  1  0  0  0  0  0999 V2000
   36.9030   29.7120   39.1190 C   0  0  1  0  0  0  0  0  0  0  0  0
   36.0560   29.7300   40.3810 C   0  0  1  0  0  0  0  0  0  0  0  0
   34.7740   29.0660   39.9600 C   0  0  0  0  0  0  0  0  0  0  0  0
   34.8860   28.8060   38.4670 C   0  0  0  0  0  0  0  0  0  0  0  0
   35.8710   29.9180   38.0610 C   0  0  0  0  0  0  0  0  0  0  0  0
   37.9240   30.7450   39.2070 C   0  0  0  0  0  0  0  0  0  0  0  0
   37.5150   32.0640   39.4640 C   0  0  0  0  0  0  0  0  0  0  0  0
   38.4440   33.1100   39.5710 C   0  0  0  0  0  0  0  0  0  0  0  0
   39.7660   32.7420   39.4070 N   0  0  0  0  0  0  0  0  0  0  0  0
   40.1270   31.4610   39.1600 C   0  0  0  0  0  0  0  0  0  0  0  0
   39.2160   30.4860   39.0630 N   0  0  0  0  0  0  0  0  0  0  0  0
   36.6850   29.1360   41.5520 C   0  0  0  0  0  0  0  0  0  0  0  0
   36.2700   27.8500   41.9200 C   0  0  0  0  0  0  0  0  0  0  0  0
   36.7870   27.1660   43.0170 C   0  0  0  0  0  0  0  0  0  0  0  0
   37.7570   27.7810   43.7830 C   0  0  0  0  0  0  0  0  0  0  0  0
   38.1500   29.0320   43.4150 C   0  0  0  0  0  0  0  0  0  0  0  0
   37.6430   29.7140   42.3330 C   0  0  0  0  0  0  0  0  0  0  0  0
   37.4844   28.7984   38.9259 H   0  0  0  0  0  0  0  0  0  0  0  0
   35.8932   30.7552   40.7451 H   0  0  0  0  0  0  0  0  0  0  0  0
   34.6431   28.1173   40.5011 H   0  0  0  0  0  0  0  0  0  0  0  0
   33.9060   29.7026   40.1865 H   0  0  0  0  0  0  0  0  0  0  0  0
   35.2942   27.8060   38.2585 H   0  0  0  0  0  0  0  0  0  0  0  0
   33.9284   28.8222   37.9260 H   0  0  0  0  0  0  0  0  0  0  0  0
   36.2780   29.7603   37.0513 H   0  0  0  0  0  0  0  0  0  0  0  0
   35.4452   30.9307   38.0058 H   0  0  0  0  0  0  0  0  0  0  0  0
   36.4434   32.2815   39.5839 H   0  0  0  0  0  0  0  0  0  0  0  0
   38.1418   34.1486   39.7711 H   0  0  0  0  0  0  0  0  0  0  0  0
   41.1923   31.2164   39.0364 H   0  0  0  0  0  0  0  0  0  0  0  0
   35.4975   27.3560   41.3124 H   0  0  0  0  0  0  0  0  0  0  0  0
   36.4299   26.1563   43.2682 H   0  0  0  0  0  0  0  0  0  0  0  0
   38.1961   27.2793   44.6579 H   0  0  0  0  0  0  0  0  0  0  0  0
   38.9218   29.5287   44.0214 H   0  0  0  0  0  0  0  0  0  0  0  0
   38.0095   30.7241   42.0978 H   0  0  0  0  0  0  0  0  0  0  0  0
  1  6  1  0
  1  2  1  0
  2 12  1  0
  3  2  1  0
  4  3  1  0
  5  4  1  0
  5  1  1  0
  6  7  2  0
  7  8  1  0
  9  8  2  0
 10  9  1  0
 11 10  2  0
 11  6  1  0
 12 13  2  0
 12 17  1  0
 13 14  1  0
 14 15  2  0
 16 15  1  0
 17 16  2  0
  1 18  1  6
  2 19  1  1
  3 20  1  0
  3 21  1  0
  4 22  1  0
  4 23  1  0
  5 24  1  0
  5 25  1  0
  7 26  1  0
  8 27  1  0
 10 28  1  0
 13 29  1  0
 14 30  1  0
 15 31  1  0
 16 32  1  0
 17 33  1  0
M  ISO  8  18  13  19  13  20  13  21  13  22  13  23  13  24  13  25  13
M  ISO  8  26  14  27  14  28  14  29  14  30  14  31  14  32  14  33  14
M  END
>  <minimizedAffinity>  (1) 
-5.32179451

>  <minimizedRMSD>  (1) 
3.89719462

$$$$
