
     RDKit          3D

 32 34  0  0  1  0  0  0  0  0999 V2000
   37.5890   28.7310   41.3730 C   0  0  1  0  0  0  0  0  0  0  0  0
   38.0290   29.3550   42.7000 C   0  0  1  0  0  0  0  0  0  0  0  0
   37.4920   28.4050   43.7190 C   0  0  0  0  0  0  0  0  0  0  0  0
   36.5620   27.4310   42.9840 C   0  0  0  0  0  0  0  0  0  0  0  0
   36.2210   28.2550   41.7360 C   0  0  0  0  0  0  0  0  0  0  0  0
   37.6360   29.7280   40.3140 C   0  0  0  0  0  0  0  0  0  0  0  0
   36.8920   30.9220   40.5090 C   0  0  0  0  0  0  0  0  0  0  0  0
   36.9280   31.9120   39.5110 C   0  0  0  0  0  0  0  0  0  0  0  0
   37.7050   31.6350   38.3970 N   0  0  0  0  0  0  0  0  0  0  0  0
   38.3870   30.4940   38.2630 C   0  0  0  0  0  0  0  0  0  0  0  0
   38.3540   29.5410   39.2190 N   0  0  0  0  0  0  0  0  0  0  0  0
   39.4760   29.5820   42.7630 C   0  0  0  0  0  0  0  0  0  0  0  0
   40.4310   28.5790   42.8390 C   0  0  0  0  0  0  0  0  0  0  0  0
   41.7960   28.8220   42.8970 C   0  0  0  0  0  0  0  0  0  0  0  0
   42.1900   30.1620   42.8760 C   0  0  0  0  0  0  0  0  0  0  0  0
   41.2440   31.1650   42.7990 C   0  0  0  0  0  0  0  0  0  0  0  0
   39.9480   30.8490   42.7470 N   0  0  0  0  0  0  0  0  0  0  0  0
   38.2143   27.9196   40.9723 H   0  0  0  0  0  0  0  0  0  0  0  0
   37.6404   30.3713   42.8615 H   0  0  0  0  0  0  0  0  0  0  0  0
   38.3176   27.8534   44.1923 H   0  0  0  0  0  0  0  0  0  0  0  0
   36.9480   28.9446   44.5082 H   0  0  0  0  0  0  0  0  0  0  0  0
   37.0783   26.4952   42.7238 H   0  0  0  0  0  0  0  0  0  0  0  0
   35.6896   27.1025   43.5679 H   0  0  0  0  0  0  0  0  0  0  0  0
   35.5441   29.0904   41.9683 H   0  0  0  0  0  0  0  0  0  0  0  0
   35.6907   27.7065   40.9436 H   0  0  0  0  0  0  0  0  0  0  0  0
   36.2988   31.0695   41.4235 H   0  0  0  0  0  0  0  0  0  0  0  0
   36.3700   32.8549   39.6090 H   0  0  0  0  0  0  0  0  0  0  0  0
   38.9871   30.3277   37.3562 H   0  0  0  0  0  0  0  0  0  0  0  0
   40.0877   27.5341   42.8541 H   0  0  0  0  0  0  0  0  0  0  0  0
   42.5284   28.0034   42.9563 H   0  0  0  0  0  0  0  0  0  0  0  0
   43.2585   30.4194   42.9210 H   0  0  0  0  0  0  0  0  0  0  0  0
   41.5568   32.2194   42.7806 H   0  0  0  0  0  0  0  0  0  0  0  0
  1  5  1  0
  1  2  1  0
  2 12  1  0
  2  3  1  0
  4  3  1  0
  5  4  1  0
  6  7  2  0
  6  1  1  0
  8  7  1  0
  9  8  2  0
 10  9  1  0
 10 11  2  0
 11  6  1  0
 12 13  2  0
 13 14  1  0
 15 14  2  0
 16 15  1  0
 17 12  1  0
 17 16  2  0
  1 18  1  6
  2 19  1  1
  3 20  1  0
  3 21  1  0
  4 22  1  0
  4 23  1  0
  5 24  1  0
  5 25  1  0
  7 26  1  0
  8 27  1  0
 10 28  1  0
 13 29  1  0
 14 30  1  0
 15 31  1  0
 16 32  1  0
M  ISO  8  18  13  19  13  20  13  21  13  22  13  23  13  24  13  25  13
M  ISO  7  26  14  27  14  28  14  29  14  30  14  31  14  32  14
M  END
>  <minimizedAffinity>  (1) 
-4.82363844

>  <minimizedRMSD>  (1) 
3.62315536

$$$$
