
     RDKit          3D

 34 36  0  0  1  0  0  0  0  0999 V2000
   37.8980   26.5170   40.7990 C   0  0  1  0  0  0  0  0  0  0  0  0
   38.0120   25.8880   42.1940 C   0  0  1  0  0  0  0  0  0  0  0  0
   37.3310   24.5690   42.0630 C   0  0  0  0  0  0  0  0  0  0  0  0
   36.7740   24.5000   40.6460 C   0  0  0  0  0  0  0  0  0  0  0  0
   36.5700   26.0030   40.3500 C   0  0  0  0  0  0  0  0  0  0  0  0
   39.3220   25.8940   42.7260 N   0  0  0  0  0  0  0  0  0  0  0  0
   39.7290   26.5300   43.8370 C   0  0  0  0  0  0  0  0  0  0  0  0
   41.0090   26.5340   44.3540 C   0  0  0  0  0  0  0  0  0  0  0  0
   41.9730   25.8090   43.6630 C   0  0  0  0  0  0  0  0  0  0  0  0
   43.3000   25.7950   44.1730 N   0  0  0  0  0  0  0  0  0  0  0  0
   41.5830   25.1650   42.5480 N   0  0  0  0  0  0  0  0  0  0  0  0
   40.3160   25.2010   42.0950 C   0  0  0  0  0  0  0  0  0  0  0  0
   40.1220   24.5360   41.0270 O   0  0  0  0  0  0  0  0  0  0  0  0
   37.9990   27.9660   40.9000 C   0  0  0  0  0  0  0  0  0  0  0  0
   36.9410   28.6610   41.5160 C   0  0  0  0  0  0  0  0  0  0  0  0
   37.0040   30.0590   41.6390 C   0  0  0  0  0  0  0  0  0  0  0  0
   38.1300   30.6610   41.1320 N   0  0  0  0  0  0  0  0  0  0  0  0
   39.1220   29.9630   40.5490 C   0  0  0  0  0  0  0  0  0  0  0  0
   39.0600   28.6110   40.4310 N   0  0  0  0  0  0  0  0  0  0  0  0
   38.6897   26.2611   40.0795 H   0  0  0  0  0  0  0  0  0  0  0  0
   37.5144   26.4810   42.9755 H   0  0  0  0  0  0  0  0  0  0  0  0
   38.0505   23.7533   42.2272 H   0  0  0  0  0  0  0  0  0  0  0  0
   36.5287   24.4632   42.8081 H   0  0  0  0  0  0  0  0  0  0  0  0
   37.4919   24.0427   39.9493 H   0  0  0  0  0  0  0  0  0  0  0  0
   35.8685   23.8847   40.5389 H   0  0  0  0  0  0  0  0  0  0  0  0
   36.3957   26.1919   39.2805 H   0  0  0  0  0  0  0  0  0  0  0  0
   35.6975   26.4646   40.8354 H   0  0  0  0  0  0  0  0  0  0  0  0
   38.9688   27.1030   44.3881 H   0  0  0  0  0  0  0  0  0  0  0  0
   41.2554   27.0867   45.2726 H   0  0  0  0  0  0  0  0  0  0  0  0
   44.0349   25.2663   43.6818 H   0  0  0  0  0  0  0  0  0  0  0  0
   43.5265   26.3136   45.0336 H   0  0  0  0  0  0  0  0  0  0  0  0
   36.0685   28.1116   41.8994 H   0  0  0  0  0  0  0  0  0  0  0  0
   36.1983   30.6382   42.1138 H   0  0  0  0  0  0  0  0  0  0  0  0
   40.0009   30.4981   40.1601 H   0  0  0  0  0  0  0  0  0  0  0  0
  1 14  1  0
  1  2  1  0
  2  6  1  0
  3  2  1  0
  4  3  1  0
  5  4  1  0
  5  1  1  0
  6  7  1  0
  7  8  2  0
  9 10  1  0
  9  8  1  0
 11  9  2  0
 12 11  1  0
 12  6  1  0
 13 12  2  0
 14 15  2  0
 15 16  1  0
 17 16  2  0
 18 17  1  0
 19 18  2  0
 19 14  1  0
  1 20  1  6
  2 21  1  1
  3 22  1  0
  3 23  1  0
  4 24  1  0
  4 25  1  0
  5 26  1  0
  5 27  1  0
  7 28  1  0
  8 29  1  0
 10 30  1  0
 10 31  1  0
 15 32  1  0
 16 33  1  0
 18 34  1  0
M  ISO  8  20  13  21  13  22  13  23  13  24  13  25  13  26  13  27  13
M  ISO  5  28  14  29  14  32  14  33  14  34  14
M  END
>  <minimizedAffinity>  (1) 
-4.81329966

>  <minimizedRMSD>  (1) 
2.17981124

$$$$
