
     RDKit          3D

 35 36  0  0  1  0  0  0  0  0999 V2000
   38.9110   28.2760   43.0740 C   0  0  1  0  0  0  0  0  0  0  0  0
   38.3320   26.9240   43.0960 C   0  0  2  0  0  0  0  0  0  0  0  0
   39.4380   26.0200   43.5760 C   0  0  0  0  0  0  0  0  0  0  0  0
   40.5620   26.9480   43.9990 C   0  0  0  0  0  0  0  0  0  0  0  0
   40.3730   28.0860   42.9760 C   0  0  0  0  0  0  0  0  0  0  0  0
   38.3080   29.1590   42.0940 C   0  0  0  0  0  0  0  0  0  0  0  0
   39.0800   29.4180   40.9340 C   0  0  0  0  0  0  0  0  0  0  0  0
   38.5010   30.2470   39.9640 C   0  0  0  0  0  0  0  0  0  0  0  0
   37.2310   30.7480   40.2030 N   0  0  0  0  0  0  0  0  0  0  0  0
   36.5540   30.4630   41.3210 C   0  0  0  0  0  0  0  0  0  0  0  0
   37.0850   29.6770   42.2580 N   0  0  0  0  0  0  0  0  0  0  0  0
   37.6950   26.2950   41.9390 C   0  0  0  0  0  0  0  0  0  0  0  0
   38.9140   25.9260   41.0540 C   0  0  0  0  0  0  0  0  0  0  0  0
   36.8440   27.1090   41.0440 C   0  0  0  0  0  0  0  0  0  0  0  0
   37.0540   24.9500   42.1970 C   0  0  0  0  0  0  0  0  0  0  0  0
   38.6828   28.8322   43.9952 H   0  0  0  0  0  0  0  0  0  0  0  0
   37.4402   27.0667   43.7239 H   0  0  0  0  0  0  0  0  0  0  0  0
   39.0973   25.4145   44.4288 H   0  0  0  0  0  0  0  0  0  0  0  0
   39.7604   25.3171   42.7937 H   0  0  0  0  0  0  0  0  0  0  0  0
   40.4311   27.3025   45.0321 H   0  0  0  0  0  0  0  0  0  0  0  0
   41.5625   26.4907   44.0021 H   0  0  0  0  0  0  0  0  0  0  0  0
   40.6785   27.7808   41.9643 H   0  0  0  0  0  0  0  0  0  0  0  0
   40.9722   28.9880   43.1692 H   0  0  0  0  0  0  0  0  0  0  0  0
   40.0843   28.9893   40.8017 H   0  0  0  0  0  0  0  0  0  0  0  0
   39.0401   30.4936   39.0374 H   0  0  0  0  0  0  0  0  0  0  0  0
   35.5477   30.8819   41.4690 H   0  0  0  0  0  0  0  0  0  0  0  0
   39.7686   25.6673   41.6964 H   0  0  0  0  0  0  0  0  0  0  0  0
   38.6588   25.0649   40.4189 H   0  0  0  0  0  0  0  0  0  0  0  0
   39.1792   26.7841   40.4189 H   0  0  0  0  0  0  0  0  0  0  0  0
   36.1796   27.7445   41.6478 H   0  0  0  0  0  0  0  0  0  0  0  0
   37.4806   27.7429   40.4093 H   0  0  0  0  0  0  0  0  0  0  0  0
   36.2390   26.4449   40.4093 H   0  0  0  0  0  0  0  0  0  0  0  0
   36.9747   24.7836   43.2814 H   0  0  0  0  0  0  0  0  0  0  0  0
   36.0497   24.9304   41.7486 H   0  0  0  0  0  0  0  0  0  0  0  0
   37.6713   24.1576   41.7486 H   0  0  0  0  0  0  0  0  0  0  0  0
  1  2  1  0
  2  3  1  0
  3  4  1  0
  5  1  1  0
  5  4  1  0
  6 11  1  0
  6  1  1  0
  7  6  2  0
  8  9  2  0
  8  7  1  0
  9 10  1  0
 10 11  2  0
 12 15  1  0
 12  2  1  0
 13 12  1  0
 14 12  1  0
  1 16  1  1
  2 17  1  1
  3 18  1  0
  3 19  1  0
  4 20  1  0
  4 21  1  0
  5 22  1  0
  5 23  1  0
  7 24  1  0
  8 25  1  0
 10 26  1  0
 13 27  1  0
 13 28  1  0
 13 29  1  0
 14 30  1  0
 14 31  1  0
 14 32  1  0
 15 33  1  0
 15 34  1  0
 15 35  1  0
M  ISO  8  16  13  17  13  18  13  19  13  20  13  21  13  22  13  23  13
M  ISO  8  24  14  25  14  26  14  27   8  28   8  29   8  30   8  31   8
M  ISO  4  32   8  33   8  34   8  35   8
M  END
>  <minimizedAffinity>  (1) 
-4.4851346

>  <minimizedRMSD>  (1) 
3.07675886

$$$$
