
     RDKit          3D

 29 30  0  0  1  0  0  0  0  0999 V2000
   38.7100   28.2280   42.1640 C   0  0  1  0  0  0  0  0  0  0  0  0
   38.3450   27.8760   43.5960 C   0  0  2  0  0  0  0  0  0  0  0  0
   39.2750   26.7610   43.9490 C   0  0  0  0  0  0  0  0  0  0  0  0
   40.1490   26.5170   42.7230 C   0  0  0  0  0  0  0  0  0  0  0  0
   39.1510   26.9170   41.6140 C   0  0  0  0  0  0  0  0  0  0  0  0
   37.5700   28.8420   41.4840 C   0  0  0  0  0  0  0  0  0  0  0  0
   36.7980   28.0060   40.6250 C   0  0  0  0  0  0  0  0  0  0  0  0
   35.6960   28.6230   39.9940 C   0  0  0  0  0  0  0  0  0  0  0  0
   35.4450   29.9550   40.2400 N   0  0  0  0  0  0  0  0  0  0  0  0
   36.2270   30.6880   41.0720 C   0  0  0  0  0  0  0  0  0  0  0  0
   37.2780   30.1300   41.6840 N   0  0  0  0  0  0  0  0  0  0  0  0
   36.9000   27.5570   43.8010 C   0  0  0  0  0  0  0  0  0  0  0  0
   36.5110   28.1640   45.1530 C   0  0  0  0  0  0  0  0  0  0  0  0
   39.5000   28.9843   42.0458 H   0  0  0  0  0  0  0  0  0  0  0  0
   38.4687   28.7371   44.2692 H   0  0  0  0  0  0  0  0  0  0  0  0
   39.8989   27.0452   44.8092 H   0  0  0  0  0  0  0  0  0  0  0  0
   38.7187   25.8535   44.2262 H   0  0  0  0  0  0  0  0  0  0  0  0
   41.0424   27.1587   42.7218 H   0  0  0  0  0  0  0  0  0  0  0  0
   40.5615   25.5009   42.6371 H   0  0  0  0  0  0  0  0  0  0  0  0
   38.3184   26.2030   41.5305 H   0  0  0  0  0  0  0  0  0  0  0  0
   39.5615   26.9445   40.5939 H   0  0  0  0  0  0  0  0  0  0  0  0
   37.0455   26.9464   40.4639 H   0  0  0  0  0  0  0  0  0  0  0  0
   35.0475   28.0487   39.3161 H   0  0  0  0  0  0  0  0  0  0  0  0
   35.9952   31.7493   41.2448 H   0  0  0  0  0  0  0  0  0  0  0  0
   36.2946   28.0002   42.9966 H   0  0  0  0  0  0  0  0  0  0  0  0
   36.7252   26.4711   43.7861 H   0  0  0  0  0  0  0  0  0  0  0  0
   36.9117   27.5388   45.9645 H   0  0  0  0  0  0  0  0  0  0  0  0
   36.9272   29.1791   45.2326 H   0  0  0  0  0  0  0  0  0  0  0  0
   35.4148   28.2099   45.2326 H   0  0  0  0  0  0  0  0  0  0  0  0
  1  2  1  0
  2 12  1  0
  2  3  1  0
  4  3  1  0
  5  1  1  0
  5  4  1  0
  6 11  1  0
  6  1  1  0
  7  6  2  0
  8  9  2  0
  8  7  1  0
  9 10  1  0
 10 11  2  0
 12 13  1  0
  1 14  1  1
  2 15  1  1
  3 16  1  0
  3 17  1  0
  4 18  1  0
  4 19  1  0
  5 20  1  0
  5 21  1  0
  7 22  1  0
  8 23  1  0
 10 24  1  0
 12 25  1  0
 12 26  1  0
 13 27  1  0
 13 28  1  0
 13 29  1  0
M  ISO  8  14  13  15  13  16  13  17  13  18  13  19  13  20  13  21  13
M  ISO  8  22  14  23  14  24  14  25   8  26   8  27   8  28   8  29   8
M  END
>  <minimizedAffinity>  (1) 
-4.47931194

>  <minimizedRMSD>  (1) 
2.34305286

$$$$
