
     RDKit          3D

 32 33  0  0  1  0  0  0  0  0999 V2000
   37.6680   26.9940   41.0320 C   0  0  1  0  0  0  0  0  0  0  0  0
   37.0420   26.6070   42.3430 C   0  0  1  0  0  0  0  0  0  0  0  0
   36.9700   25.0930   42.2920 C   0  0  0  0  0  0  0  0  0  0  0  0
   37.5720   24.6810   40.9740 C   0  0  0  0  0  0  0  0  0  0  0  0
   37.2050   25.9040   40.1150 C   0  0  0  0  0  0  0  0  0  0  0  0
   37.2450   28.3370   40.6280 C   0  0  0  0  0  0  0  0  0  0  0  0
   35.8840   28.6800   40.7780 C   0  0  0  0  0  0  0  0  0  0  0  0
   35.4910   29.9820   40.4170 C   0  0  0  0  0  0  0  0  0  0  0  0
   36.4700   30.8320   39.9410 N   0  0  0  0  0  0  0  0  0  0  0  0
   37.7600   30.4470   39.8180 C   0  0  0  0  0  0  0  0  0  0  0  0
   38.1260   29.2140   40.1610 N   0  0  0  0  0  0  0  0  0  0  0  0
   37.7250   27.0370   43.5780 C   0  0  0  0  0  0  0  0  0  0  0  0
   39.1960   27.3380   43.4590 C   0  0  0  0  0  0  0  0  0  0  0  0
   37.0080   28.0650   44.3730 C   0  0  0  0  0  0  0  0  0  0  0  0
   38.7654   27.0679   41.0494 H   0  0  0  0  0  0  0  0  0  0  0  0
   36.0768   27.1285   42.4225 H   0  0  0  0  0  0  0  0  0  0  0  0
   37.5422   24.6570   43.1241 H   0  0  0  0  0  0  0  0  0  0  0  0
   35.9320   24.7406   42.3830 H   0  0  0  0  0  0  0  0  0  0  0  0
   38.6613   24.5465   41.0476 H   0  0  0  0  0  0  0  0  0  0  0  0
   37.2133   23.7174   40.5832 H   0  0  0  0  0  0  0  0  0  0  0  0
   37.7489   25.9127   39.1589 H   0  0  0  0  0  0  0  0  0  0  0  0
   36.1498   25.9638   39.8100 H   0  0  0  0  0  0  0  0  0  0  0  0
   35.1544   27.9532   41.1645 H   0  0  0  0  0  0  0  0  0  0  0  0
   34.4452   30.3099   40.5102 H   0  0  0  0  0  0  0  0  0  0  0  0
   38.5093   31.1546   39.4334 H   0  0  0  0  0  0  0  0  0  0  0  0
   37.6777   26.1084   44.1658 H   0  0  0  0  0  0  0  0  0  0  0  0
   39.6344   27.4277   44.4639 H   0  0  0  0  0  0  0  0  0  0  0  0
   39.6940   26.5232   42.9131 H   0  0  0  0  0  0  0  0  0  0  0  0
   39.3339   28.2830   42.9131 H   0  0  0  0  0  0  0  0  0  0  0  0
   37.1487   27.8633   45.4452 H   0  0  0  0  0  0  0  0  0  0  0  0
   37.4086   29.0606   44.1315 H   0  0  0  0  0  0  0  0  0  0  0  0
   35.9353   28.0330   44.1315 H   0  0  0  0  0  0  0  0  0  0  0  0
  1  2  1  0
  2 12  1  0
  3  2  1  0
  4  3  1  0
  5  4  1  0
  5  1  1  0
  6  7  2  0
  6  1  1  0
  8  7  1  0
  9  8  2  0
 10  9  1  0
 10 11  2  0
 11  6  1  0
 12 14  1  0
 13 12  1  0
  1 15  1  1
  2 16  1  6
  3 17  1  0
  3 18  1  0
  4 19  1  0
  4 20  1  0
  5 21  1  0
  5 22  1  0
  7 23  1  0
  8 24  1  0
 10 25  1  0
 12 26  1  0
 13 27  1  0
 13 28  1  0
 13 29  1  0
 14 30  1  0
 14 31  1  0
 14 32  1  0
M  ISO  8  15  13  16  13  17  13  18  13  19  13  20  13  21  13  22  13
M  ISO  8  23  14  24  14  25  14  26   8  27   8  28   8  29   8  30   8
M  ISO  2  31   8  32   8
M  END
>  <minimizedAffinity>  (1) 
-4.43690252

>  <minimizedRMSD>  (1) 
0.948621809

$$$$
