
     RDKit          3D

 26 27  0  0  1  0  0  0  0  0999 V2000
   38.1650   26.1330   42.7020 C   0  0  1  0  0  0  0  0  0  0  0  0
   38.2210   25.2890   41.4220 C   0  0  2  0  0  0  0  0  0  0  0  0
   39.1030   24.1400   41.8090 C   0  0  0  0  0  0  0  0  0  0  0  0
   39.6220   24.4350   43.2220 C   0  0  0  0  0  0  0  0  0  0  0  0
   39.5610   25.9740   43.2090 C   0  0  0  0  0  0  0  0  0  0  0  0
   37.7790   27.4940   42.3580 C   0  0  0  0  0  0  0  0  0  0  0  0
   38.6720   28.5450   42.7190 C   0  0  0  0  0  0  0  0  0  0  0  0
   38.3280   29.8710   42.3900 C   0  0  0  0  0  0  0  0  0  0  0  0
   37.1310   30.0550   41.7310 N   0  0  0  0  0  0  0  0  0  0  0  0
   36.3190   29.0230   41.4090 C   0  0  0  0  0  0  0  0  0  0  0  0
   36.6470   27.7650   41.7230 N   0  0  0  0  0  0  0  0  0  0  0  0
   38.8750   26.0540   40.3010 C   0  0  0  0  0  0  0  0  0  0  0  0
   37.4281   25.8425   43.4652 H   0  0  0  0  0  0  0  0  0  0  0  0
   37.2219   24.9936   41.0690 H   0  0  0  0  0  0  0  0  0  0  0  0
   38.5272   23.2028   41.8052 H   0  0  0  0  0  0  0  0  0  0  0  0
   39.9354   24.0252   41.0991 H   0  0  0  0  0  0  0  0  0  0  0  0
   38.9679   24.0064   43.9956 H   0  0  0  0  0  0  0  0  0  0  0  0
   40.6106   24.0109   43.4520 H   0  0  0  0  0  0  0  0  0  0  0  0
   40.3031   26.4129   42.5259 H   0  0  0  0  0  0  0  0  0  0  0  0
   39.7824   26.4700   44.1655 H   0  0  0  0  0  0  0  0  0  0  0  0
   39.6127   28.3246   43.2449 H   0  0  0  0  0  0  0  0  0  0  0  0
   38.9820   30.7176   42.6462 H   0  0  0  0  0  0  0  0  0  0  0  0
   35.3746   29.2210   40.8809 H   0  0  0  0  0  0  0  0  0  0  0  0
   39.5356   26.8268   40.7210 H   0  0  0  0  0  0  0  0  0  0  0  0
   39.4661   25.3633   39.6817 H   0  0  0  0  0  0  0  0  0  0  0  0
   38.1008   26.5305   39.6817 H   0  0  0  0  0  0  0  0  0  0  0  0
  1  5  1  0
  2  3  1  0
  2  1  1  0
  3  4  1  0
  5  4  1  0
  6  1  1  0
  6  7  2  0
  8  7  1  0
  9  8  2  0
 10 11  2  0
 10  9  1  0
 11  6  1  0
 12  2  1  0
  1 13  1  1
  2 14  1  6
  3 15  1  0
  3 16  1  0
  4 17  1  0
  4 18  1  0
  5 19  1  0
  5 20  1  0
  7 21  1  0
  8 22  1  0
 10 23  1  0
 12 24  1  0
 12 25  1  0
 12 26  1  0
M  ISO  8  13  13  14  13  15  13  16  13  17  13  18  13  19  13  20  13
M  ISO  6  21  14  22  14  23  14  24   8  25   8  26   8
M  END
>  <minimizedAffinity>  (1) 
-3.65715361

>  <minimizedRMSD>  (1) 
2.78467393

$$$$
