
     RDKit          3D

 38 40  0  0  1  0  0  0  0  0999 V2000
   37.4100   26.4720   40.2230 C   0  0  1  0  0  0  0  0  0  0  0  0
   37.0760   25.8780   41.6180 C   0  0  1  0  0  0  0  0  0  0  0  0
   36.7740   24.4480   41.3400 C   0  0  0  0  0  0  0  0  0  0  0  0
   36.9010   24.2570   39.8180 C   0  0  0  0  0  0  0  0  0  0  0  0
   36.5220   25.6810   39.3390 C   0  0  0  0  0  0  0  0  0  0  0  0
   38.2870   26.0660   42.4550 C   0  0  0  0  0  0  0  0  0  0  0  0
   38.3820   26.9530   43.4870 C   0  0  0  0  0  0  0  0  0  0  0  0
   39.5140   27.1100   44.2620 C   0  0  0  0  0  0  0  0  0  0  0  0
   40.5800   26.3210   43.9540 N   0  0  0  0  0  0  0  0  0  0  0  0
   40.5120   25.4360   42.9390 C   0  0  0  0  0  0  0  0  0  0  0  0
   39.3910   25.3220   42.2180 N   0  0  0  0  0  0  0  0  0  0  0  0
   41.7080   24.6930   42.7370 N   0  0  0  0  0  0  0  0  0  0  0  0
   42.9380   25.3220   43.0680 C   0  0  0  0  0  0  0  0  0  0  0  0
   43.1950   26.5560   42.8180 N   0  0  0  0  0  0  0  0  0  0  0  0
   43.9990   24.5910   43.7170 N   0  0  0  0  0  0  0  0  0  0  0  0
   42.4730   27.1320   42.3490 H   0  0  0  0  0  0  0  0  0  0  0  0
   37.1470   27.9100   40.2640 C   0  0  0  0  0  0  0  0  0  0  0  0
   35.8070   28.3390   40.3790 C   0  0  0  0  0  0  0  0  0  0  0  0
   35.5190   29.7140   40.4240 C   0  0  0  0  0  0  0  0  0  0  0  0
   36.5940   30.5650   40.3500 N   0  0  0  0  0  0  0  0  0  0  0  0
   37.8600   30.1070   40.2400 C   0  0  0  0  0  0  0  0  0  0  0  0
   38.1280   28.7980   40.1990 N   0  0  0  0  0  0  0  0  0  0  0  0
   38.4519   26.4019   39.8772 H   0  0  0  0  0  0  0  0  0  0  0  0
   36.2309   26.3392   42.1501 H   0  0  0  0  0  0  0  0  0  0  0  0
   37.4916   23.8000   41.8646 H   0  0  0  0  0  0  0  0  0  0  0  0
   35.7657   24.1813   41.6895 H   0  0  0  0  0  0  0  0  0  0  0  0
   37.9258   23.9861   39.5241 H   0  0  0  0  0  0  0  0  0  0  0  0
   36.2864   23.4469   39.3986 H   0  0  0  0  0  0  0  0  0  0  0  0
   36.7576   25.8339   38.2755 H   0  0  0  0  0  0  0  0  0  0  0  0
   35.4523   25.9299   39.4008 H   0  0  0  0  0  0  0  0  0  0  0  0
   37.5067   27.5790   43.7149 H   0  0  0  0  0  0  0  0  0  0  0  0
   39.5526   27.8364   45.0872 H   0  0  0  0  0  0  0  0  0  0  0  0
   41.6831   23.7332   42.3641 H   0  0  0  0  0  0  0  0  0  0  0  0
   44.8837   25.0647   43.9490 H   0  0  0  0  0  0  0  0  0  0  0  0
   43.8718   23.5954   43.9484 H   0  0  0  0  0  0  0  0  0  0  0  0
   34.9928   27.6013   40.4331 H   0  0  0  0  0  0  0  0  0  0  0  0
   34.4884   30.0880   40.5136 H   0  0  0  0  0  0  0  0  0  0  0  0
   38.6892   30.8275   40.1829 H   0  0  0  0  0  0  0  0  0  0  0  0
  1 17  1  0
  1  2  1  0
  2  6  1  0
  3  2  1  0
  4  3  1  0
  5  4  1  0
  5  1  1  0
  6  7  2  0
  7  8  1  0
  9  8  2  0
 10  9  1  0
 11  6  1  0
 11 10  2  0
 12 10  1  0
 12 13  1  0
 13 15  1  0
 14 13  2  0
 16 14  1  0
 17 18  2  0
 18 19  1  0
 20 19  2  0
 21 20  1  0
 22 21  2  0
 22 17  1  0
  1 23  1  6
  2 24  1  1
  3 25  1  0
  3 26  1  0
  4 27  1  0
  4 28  1  0
  5 29  1  0
  5 30  1  0
  7 31  1  0
  8 32  1  0
 12 33  1  0
 15 34  1  0
 15 35  1  0
 18 36  1  0
 19 37  1  0
 21 38  1  0
M  ISO  8  23  13  24  13  25  13  26  13  27  13  28  13  29  13  30  13
M  ISO  5  31  14  32  14  36  14  37  14  38  14
M  END
>  <minimizedAffinity>  (1) 
-5.75997257

>  <minimizedRMSD>  (1) 
0.776902974

$$$$
