
     RDKit          3D

 40 42  0  0  1  0  0  0  0  0999 V2000
   36.1570   29.1970   40.1550 C   0  0  1  0  0  0  0  0  0  0  0  0
   36.5850   28.1620   39.0790 C   0  0  1  0  0  0  0  0  0  0  0  0
   35.4970   28.2310   38.0660 C   0  0  0  0  0  0  0  0  0  0  0  0
   34.4650   29.2310   38.6020 C   0  0  0  0  0  0  0  0  0  0  0  0
   34.6860   29.0750   40.1200 C   0  0  0  0  0  0  0  0  0  0  0  0
   36.7980   28.8220   41.4180 C   0  0  0  0  0  0  0  0  0  0  0  0
   36.5870   27.5070   41.9020 C   0  0  0  0  0  0  0  0  0  0  0  0
   37.1910   27.1200   43.1110 C   0  0  0  0  0  0  0  0  0  0  0  0
   37.9580   28.0700   43.7470 N   0  0  0  0  0  0  0  0  0  0  0  0
   38.1300   29.3040   43.2520 C   0  0  0  0  0  0  0  0  0  0  0  0
   37.5540   29.6720   42.0980 N   0  0  0  0  0  0  0  0  0  0  0  0
   37.8920   28.6510   38.5430 C   0  0  0  0  0  0  0  0  0  0  0  0
   38.8990   27.8380   38.1090 C   0  0  0  0  0  0  0  0  0  0  0  0
   40.0980   28.2870   37.6040 C   0  0  0  0  0  0  0  0  0  0  0  0
   40.2620   29.6410   37.5460 N   0  0  0  0  0  0  0  0  0  0  0  0
   39.2890   30.4700   37.9660 C   0  0  0  0  0  0  0  0  0  0  0  0
   38.1310   29.9830   38.4540 N   0  0  0  0  0  0  0  0  0  0  0  0
   39.5020   31.9410   37.8890 C   0  0  0  0  0  0  0  0  0  0  0  0
   40.8900   32.2340   37.3570 C   0  0  0  0  0  0  0  0  0  0  0  0
   39.3490   32.6000   39.2400 C   0  0  0  0  0  0  0  0  0  0  0  0
   36.4525   30.2456   40.0032 H   0  0  0  0  0  0  0  0  0  0  0  0
   36.7169   27.1259   39.4242 H   0  0  0  0  0  0  0  0  0  0  0  0
   35.0351   27.2411   37.9365 H   0  0  0  0  0  0  0  0  0  0  0  0
   35.8852   28.5469   37.0865 H   0  0  0  0  0  0  0  0  0  0  0  0
   34.6784   30.2557   38.2636 H   0  0  0  0  0  0  0  0  0  0  0  0
   33.4330   29.0488   38.2676 H   0  0  0  0  0  0  0  0  0  0  0  0
   34.1924   29.8741   40.6926 H   0  0  0  0  0  0  0  0  0  0  0  0
   34.2776   28.1555   40.5647 H   0  0  0  0  0  0  0  0  0  0  0  0
   35.9598   26.7994   41.3399 H   0  0  0  0  0  0  0  0  0  0  0  0
   37.0577   26.1105   43.5272 H   0  0  0  0  0  0  0  0  0  0  0  0
   38.7530   30.0257   43.8007 H   0  0  0  0  0  0  0  0  0  0  0  0
   38.7416   26.7509   38.1668 H   0  0  0  0  0  0  0  0  0  0  0  0
   40.8813   27.5928   37.2656 H   0  0  0  0  0  0  0  0  0  0  0  0
   38.7373   32.3495   37.2120 H   0  0  0  0  0  0  0  0  0  0  0  0
   41.5822   32.3801   38.1993 H   0  0  0  0  0  0  0  0  0  0  0  0
   41.2333   31.3885   36.7427 H   0  0  0  0  0  0  0  0  0  0  0  0
   40.8623   33.1461   36.7427 H   0  0  0  0  0  0  0  0  0  0  0  0
   39.5216   31.8566   40.0322 H   0  0  0  0  0  0  0  0  0  0  0  0
   40.0819   33.4147   39.3357 H   0  0  0  0  0  0  0  0  0  0  0  0
   38.3321   33.0085   39.3357 H   0  0  0  0  0  0  0  0  0  0  0  0
  1  6  1  0
  2  1  1  0
  3  4  1  0
  3  2  1  0
  4  5  1  0
  5  1  1  0
  6  7  2  0
  6 11  1  0
  7  8  1  0
  8  9  2  0
 10  9  1  0
 11 10  2  0
 12  2  1  0
 13 12  2  0
 14 13  1  0
 15 14  2  0
 15 16  1  0
 16 17  2  0
 17 12  1  0
 18 16  1  0
 18 20  1  0
 19 18  1  0
  1 21  1  6
  2 22  1  1
  3 23  1  0
  3 24  1  0
  4 25  1  0
  4 26  1  0
  5 27  1  0
  5 28  1  0
  7 29  1  0
  8 30  1  0
 10 31  1  0
 13 32  1  0
 14 33  1  0
 18 34  1  0
 19 35  1  0
 19 36  1  0
 19 37  1  0
 20 38  1  0
 20 39  1  0
 20 40  1  0
M  ISO  8  21  13  22  13  23  13  24  13  25  13  26  13  27  13  28  13
M  ISO  8  29  14  30  14  31  14  32  14  33  14  34   8  35   8  36   8
M  ISO  4  37   8  38   8  39   8  40   8
M  END
>  <minimizedAffinity>  (1) 
-4.55634451

>  <minimizedRMSD>  (1) 
5.76212502

$$$$
