
     RDKit          3D

 40 43  0  0  1  0  0  0  0  0999 V2000
   37.4550   26.6010   40.2550 C   0  0  1  0  0  0  0  0  0  0  0  0
   37.2960   26.1010   41.6990 C   0  0  1  0  0  0  0  0  0  0  0  0
   36.9050   24.6590   41.5410 C   0  0  0  0  0  0  0  0  0  0  0  0
   36.7890   24.4030   40.0410 C   0  0  0  0  0  0  0  0  0  0  0  0
   36.4170   25.8150   39.5470 C   0  0  0  0  0  0  0  0  0  0  0  0
   37.2810   28.0500   40.2460 C   0  0  0  0  0  0  0  0  0  0  0  0
   36.0860   28.5650   40.8030 C   0  0  0  0  0  0  0  0  0  0  0  0
   35.8820   29.9540   40.8150 C   0  0  0  0  0  0  0  0  0  0  0  0
   36.8900   30.7270   40.2680 N   0  0  0  0  0  0  0  0  0  0  0  0
   38.0110   30.1840   39.7470 C   0  0  0  0  0  0  0  0  0  0  0  0
   38.2030   28.8620   39.7380 N   0  0  0  0  0  0  0  0  0  0  0  0
   38.6380   26.2430   42.3510 C   0  0  0  0  0  0  0  0  0  0  0  0
   38.8390   26.7630   43.5910 C   0  0  0  0  0  0  0  0  0  0  0  0
   40.0790   26.9010   44.1790 C   0  0  0  0  0  0  0  0  0  0  0  0
   41.1620   26.4760   43.4410 N   0  0  0  0  0  0  0  0  0  0  0  0
   40.9800   25.9620   42.2190 C   0  0  0  0  0  0  0  0  0  0  0  0
   39.7570   25.8410   41.6750 N   0  0  0  0  0  0  0  0  0  0  0  0
   42.4660   25.4480   41.3520 S   0  0  0  0  0  0  0  0  0  0  0  0
   43.8900   26.0070   42.2780 C   0  0  0  0  0  0  0  0  0  0  0  0
   44.5100   27.1880   41.9240 C   0  0  0  0  0  0  0  0  0  0  0  0
   45.6090   27.6400   42.6230 C   0  0  0  0  0  0  0  0  0  0  0  0
   46.1320   26.9560   43.6810 N   0  0  0  0  0  0  0  0  0  0  0  0
   45.4930   25.7960   44.0010 C   0  0  0  0  0  0  0  0  0  0  0  0
   44.4190   25.3300   43.3370 N   0  0  0  0  0  0  0  0  0  0  0  0
   38.4326   26.4558   39.7721 H   0  0  0  0  0  0  0  0  0  0  0  0
   36.5570   26.6409   42.3093 H   0  0  0  0  0  0  0  0  0  0  0  0
   37.6744   24.0065   41.9794 H   0  0  0  0  0  0  0  0  0  0  0  0
   35.9564   24.4456   42.0554 H   0  0  0  0  0  0  0  0  0  0  0  0
   37.7421   24.0600   39.6120 H   0  0  0  0  0  0  0  0  0  0  0  0
   36.0734   23.6152   39.7629 H   0  0  0  0  0  0  0  0  0  0  0  0
   36.5077   25.9050   38.4544 H   0  0  0  0  0  0  0  0  0  0  0  0
   35.3796   26.1228   39.7446 H   0  0  0  0  0  0  0  0  0  0  0  0
   35.3277   27.8864   41.2207 H   0  0  0  0  0  0  0  0  0  0  0  0
   34.9704   30.4029   41.2364 H   0  0  0  0  0  0  0  0  0  0  0  0
   38.7817   30.8434   39.3214 H   0  0  0  0  0  0  0  0  0  0  0  0
   37.9582   27.0942   44.1606 H   0  0  0  0  0  0  0  0  0  0  0  0
   40.1972   27.3285   45.1856 H   0  0  0  0  0  0  0  0  0  0  0  0
   44.1240   27.7738   41.0768 H   0  0  0  0  0  0  0  0  0  0  0  0
   46.0807   28.5854   42.3168 H   0  0  0  0  0  0  0  0  0  0  0  0
   45.8758   25.2082   44.8483 H   0  0  0  0  0  0  0  0  0  0  0  0
  1  2  1  0
  2 12  1  0
  3  2  1  0
  4  3  1  0
  5  4  1  0
  5  1  1  0
  6  1  1  0
  6  7  2  0
  7  8  1  0
  9  8  2  0
 10  9  1  0
 11 10  2  0
 11  6  1  0
 12 13  2  0
 13 14  1  0
 15 14  2  0
 16 15  1  0
 17 16  2  0
 17 12  1  0
 18 16  1  0
 18 19  1  0
 19 24  1  0
 20 19  2  0
 20 21  1  0
 21 22  2  0
 22 23  1  0
 24 23  2  0
  1 25  1  6
  2 26  1  1
  3 27  1  0
  3 28  1  0
  4 29  1  0
  4 30  1  0
  5 31  1  0
  5 32  1  0
  7 33  1  0
  8 34  1  0
 10 35  1  0
 13 36  1  0
 14 37  1  0
 20 38  1  0
 21 39  1  0
 23 40  1  0
M  ISO  8  25  13  26  13  27  13  28  13  29  13  30  13  31  13  32  13
M  ISO  8  33  14  34  14  35  14  36  14  37  14  38  14  39  14  40  14
M  END
>  <minimizedAffinity>  (1) 
-4.49827957

>  <minimizedRMSD>  (1) 
0.275157094

$$$$
