
     RDKit          3D

 39 42  0  0  1  0  0  0  0  0999 V2000
   37.4160   26.5880   40.2350 C   0  0  1  0  0  0  0  0  0  0  0  0
   37.2770   26.1410   41.6980 C   0  0  1  0  0  0  0  0  0  0  0  0
   36.8940   24.6930   41.6050 C   0  0  0  0  0  0  0  0  0  0  0  0
   36.7800   24.3670   40.1180 C   0  0  0  0  0  0  0  0  0  0  0  0
   36.3880   25.7610   39.5670 C   0  0  0  0  0  0  0  0  0  0  0  0
   37.2280   28.0310   40.1710 C   0  0  0  0  0  0  0  0  0  0  0  0
   36.1020   28.5680   40.8350 C   0  0  0  0  0  0  0  0  0  0  0  0
   35.8840   29.9560   40.7990 C   0  0  0  0  0  0  0  0  0  0  0  0
   36.8110   30.7050   40.1000 N   0  0  0  0  0  0  0  0  0  0  0  0
   37.8740   30.1390   39.4820 C   0  0  0  0  0  0  0  0  0  0  0  0
   38.0770   28.8200   39.5190 N   0  0  0  0  0  0  0  0  0  0  0  0
   38.6250   26.3230   42.3340 C   0  0  0  0  0  0  0  0  0  0  0  0
   38.8200   26.8870   43.5570 C   0  0  0  0  0  0  0  0  0  0  0  0
   40.0720   27.0580   44.1240 C   0  0  0  0  0  0  0  0  0  0  0  0
   41.1510   26.6280   43.3950 N   0  0  0  0  0  0  0  0  0  0  0  0
   40.9560   26.0740   42.1910 C   0  0  0  0  0  0  0  0  0  0  0  0
   39.7440   25.9140   41.6560 N   0  0  0  0  0  0  0  0  0  0  0  0
   42.4460   25.5570   41.3260 S   0  0  0  0  0  0  0  0  0  0  0  0
   43.8780   25.7050   42.3790 C   0  0  0  0  0  0  0  0  0  0  0  0
   44.8990   26.5370   41.9050 C   0  0  0  0  0  0  0  0  0  0  0  0
   45.9150   26.5230   42.8510 C   0  0  0  0  0  0  0  0  0  0  0  0
   45.4500   25.6840   43.8420 C   0  0  0  0  0  0  0  0  0  0  0  0
   44.2620   25.2230   43.5390 O   0  0  0  0  0  0  0  0  0  0  0  0
   38.3910   26.4383   39.7481 H   0  0  0  0  0  0  0  0  0  0  0  0
   36.5384   26.6979   42.2933 H   0  0  0  0  0  0  0  0  0  0  0  0
   37.6665   24.0652   42.0731 H   0  0  0  0  0  0  0  0  0  0  0  0
   35.9457   24.4990   42.1276 H   0  0  0  0  0  0  0  0  0  0  0  0
   37.7365   24.0177   39.7020 H   0  0  0  0  0  0  0  0  0  0  0  0
   36.0767   23.5573   39.8735 H   0  0  0  0  0  0  0  0  0  0  0  0
   36.4729   25.8074   38.4713 H   0  0  0  0  0  0  0  0  0  0  0  0
   35.3479   26.0636   39.7585 H   0  0  0  0  0  0  0  0  0  0  0  0
   35.4053   27.9083   41.3730 H   0  0  0  0  0  0  0  0  0  0  0  0
   35.0221   30.4208   41.3001 H   0  0  0  0  0  0  0  0  0  0  0  0
   38.5849   30.7787   38.9384 H   0  0  0  0  0  0  0  0  0  0  0  0
   37.9393   27.2239   44.1235 H   0  0  0  0  0  0  0  0  0  0  0  0
   40.1954   27.5184   45.1154 H   0  0  0  0  0  0  0  0  0  0  0  0
   44.8968   27.0978   40.9587 H   0  0  0  0  0  0  0  0  0  0  0  0
   46.8745   27.0599   42.8177 H   0  0  0  0  0  0  0  0  0  0  0  0
   46.0013   25.4360   44.7610 H   0  0  0  0  0  0  0  0  0  0  0  0
  1  2  1  0
  2 12  1  0
  3  2  1  0
  4  3  1  0
  5  4  1  0
  5  1  1  0
  6  1  1  0
  6  7  2  0
  8  7  1  0
  9  8  2  0
 10 11  2  0
 10  9  1  0
 11  6  1  0
 12 13  2  0
 13 14  1  0
 15 14  2  0
 16 15  1  0
 17 16  2  0
 17 12  1  0
 18 16  1  0
 18 19  1  0
 19 23  1  0
 20 19  2  0
 20 21  1  0
 21 22  2  0
 23 22  1  0
  1 24  1  6
  2 25  1  1
  3 26  1  0
  3 27  1  0
  4 28  1  0
  4 29  1  0
  5 30  1  0
  5 31  1  0
  7 32  1  0
  8 33  1  0
 10 34  1  0
 13 35  1  0
 14 36  1  0
 20 37  1  0
 21 38  1  0
 22 39  1  0
M  ISO  8  24  13  25  13  26  13  27  13  28  13  29  13  30  13  31  13
M  ISO  8  32  14  33  14  34  14  35  14  36  14  37  14  38  14  39  14
M  END
>  <minimizedAffinity>  (1) 
-4.43345451

>  <minimizedRMSD>  (1) 
0.401335984

$$$$
