
     RDKit          3D

 38 41  0  0  1  0  0  0  0  0999 V2000
   37.4580   26.5920   40.2580 C   0  0  1  0  0  0  0  0  0  0  0  0
   37.3160   26.0970   41.7060 C   0  0  1  0  0  0  0  0  0  0  0  0
   36.9120   24.6580   41.5640 C   0  0  0  0  0  0  0  0  0  0  0  0
   36.7940   24.3900   40.0600 C   0  0  0  0  0  0  0  0  0  0  0  0
   36.3970   25.8100   39.5780 C   0  0  0  0  0  0  0  0  0  0  0  0
   37.2850   28.0390   40.2520 C   0  0  0  0  0  0  0  0  0  0  0  0
   36.0930   28.5620   40.8040 C   0  0  0  0  0  0  0  0  0  0  0  0
   35.8930   29.9510   40.8150 C   0  0  0  0  0  0  0  0  0  0  0  0
   36.9040   30.7220   40.2710 N   0  0  0  0  0  0  0  0  0  0  0  0
   38.0250   30.1740   39.7550 C   0  0  0  0  0  0  0  0  0  0  0  0
   38.2120   28.8490   39.7460 N   0  0  0  0  0  0  0  0  0  0  0  0
   38.6740   26.2340   42.3400 C   0  0  0  0  0  0  0  0  0  0  0  0
   38.8840   26.7480   43.5810 C   0  0  0  0  0  0  0  0  0  0  0  0
   40.1390   26.8800   44.1490 C   0  0  0  0  0  0  0  0  0  0  0  0
   41.2030   26.4680   43.4040 N   0  0  0  0  0  0  0  0  0  0  0  0
   41.0000   25.9580   42.1700 C   0  0  0  0  0  0  0  0  0  0  0  0
   39.7800   25.8400   41.6430 N   0  0  0  0  0  0  0  0  0  0  0  0
   42.4780   25.4520   41.2770 S   0  0  0  0  0  0  0  0  0  0  0  0
   43.9310   26.0270   42.1550 C   0  0  0  0  0  0  0  0  0  0  0  0
   44.5930   27.2240   41.7490 C   0  0  0  0  0  0  0  0  0  0  0  0
   45.9700   27.3320   42.9540 S   0  0  0  0  0  0  0  0  0  0  0  0
   45.4030   25.7260   43.8030 C   0  0  0  0  0  0  0  0  0  0  0  0
   44.4770   25.4180   43.1940 N   0  0  0  0  0  0  0  0  0  0  0  0
   38.4258   26.4420   39.7571 H   0  0  0  0  0  0  0  0  0  0  0  0
   36.5882   26.6440   42.3233 H   0  0  0  0  0  0  0  0  0  0  0  0
   37.6753   24.0026   42.0088 H   0  0  0  0  0  0  0  0  0  0  0  0
   35.9623   24.4568   42.0813 H   0  0  0  0  0  0  0  0  0  0  0  0
   37.7496   24.0613   39.6254 H   0  0  0  0  0  0  0  0  0  0  0  0
   36.0950   23.5880   39.7805 H   0  0  0  0  0  0  0  0  0  0  0  0
   36.4526   25.9044   38.4835 H   0  0  0  0  0  0  0  0  0  0  0  0
   35.3651   26.1153   39.8060 H   0  0  0  0  0  0  0  0  0  0  0  0
   35.3305   27.8873   41.2204 H   0  0  0  0  0  0  0  0  0  0  0  0
   34.9813   30.4021   41.2337 H   0  0  0  0  0  0  0  0  0  0  0  0
   38.8005   30.8303   39.3333 H   0  0  0  0  0  0  0  0  0  0  0  0
   38.0108   27.0761   44.1640 H   0  0  0  0  0  0  0  0  0  0  0  0
   40.2718   27.2990   45.1574 H   0  0  0  0  0  0  0  0  0  0  0  0
   44.3415   27.9070   40.9242 H   0  0  0  0  0  0  0  0  0  0  0  0
   45.8523   25.2154   44.6675 H   0  0  0  0  0  0  0  0  0  0  0  0
  1  2  1  0
  2 12  1  0
  3  2  1  0
  4  3  1  0
  5  4  1  0
  5  1  1  0
  6  1  1  0
  6  7  2  0
  7  8  1  0
  9  8  2  0
 10  9  1  0
 11 10  2  0
 11  6  1  0
 12 13  2  0
 13 14  1  0
 15 14  2  0
 16 15  1  0
 17 16  2  0
 17 12  1  0
 18 19  1  0
 18 16  1  0
 19 23  1  0
 20 19  2  0
 20 21  1  0
 21 22  1  0
 23 22  2  0
  1 24  1  6
  2 25  1  1
  3 26  1  0
  3 27  1  0
  4 28  1  0
  4 29  1  0
  5 30  1  0
  5 31  1  0
  7 32  1  0
  8 33  1  0
 10 34  1  0
 13 35  1  0
 14 36  1  0
 20 37  1  0
 22 38  1  0
M  ISO  8  24  13  25  13  26  13  27  13  28  13  29  13  30  13  31  13
M  ISO  7  32  14  33  14  34  14  35  14  36  14  37  14  38  14
M  END
>  <minimizedAffinity>  (1) 
-4.42337132

>  <minimizedRMSD>  (1) 
0.416424811

$$$$
