
     RDKit          3D

 39 42  0  0  1  0  0  0  0  0999 V2000
   37.4660   26.5980   40.2590 C   0  0  1  0  0  0  0  0  0  0  0  0
   37.3180   26.0950   41.7050 C   0  0  1  0  0  0  0  0  0  0  0  0
   36.9240   24.6550   41.5510 C   0  0  0  0  0  0  0  0  0  0  0  0
   36.8040   24.3960   40.0480 C   0  0  0  0  0  0  0  0  0  0  0  0
   36.4120   25.8120   39.5670 C   0  0  0  0  0  0  0  0  0  0  0  0
   37.2960   28.0490   40.2520 C   0  0  0  0  0  0  0  0  0  0  0  0
   36.1010   28.5650   40.8060 C   0  0  0  0  0  0  0  0  0  0  0  0
   35.9000   29.9550   40.8170 C   0  0  0  0  0  0  0  0  0  0  0  0
   36.9100   30.7260   40.2740 N   0  0  0  0  0  0  0  0  0  0  0  0
   38.0310   30.1790   39.7590 C   0  0  0  0  0  0  0  0  0  0  0  0
   38.2190   28.8570   39.7490 N   0  0  0  0  0  0  0  0  0  0  0  0
   38.6700   26.2370   42.3460 C   0  0  0  0  0  0  0  0  0  0  0  0
   38.8720   26.7600   43.5870 C   0  0  0  0  0  0  0  0  0  0  0  0
   40.1250   26.8950   44.1620 C   0  0  0  0  0  0  0  0  0  0  0  0
   41.1990   26.4730   43.4160 N   0  0  0  0  0  0  0  0  0  0  0  0
   40.9960   25.9600   42.1940 C   0  0  0  0  0  0  0  0  0  0  0  0
   39.7830   25.8350   41.6540 N   0  0  0  0  0  0  0  0  0  0  0  0
   42.4870   25.4560   41.3210 S   0  0  0  0  0  0  0  0  0  0  0  0
   43.9250   25.8830   42.2950 C   0  0  0  0  0  0  0  0  0  0  0  0
   44.7090   26.9950   41.9730 C   0  0  0  0  0  0  0  0  0  0  0  0
   45.7470   27.0670   42.9040 C   0  0  0  0  0  0  0  0  0  0  0  0
   45.5590   26.0100   43.7470 N   0  0  0  0  0  0  0  0  0  0  0  0
   44.4900   25.3070   43.3970 N   0  0  0  0  0  0  0  0  0  0  0  0
   38.4377   26.4534   39.7641 H   0  0  0  0  0  0  0  0  0  0  0  0
   36.5838   26.6337   42.3220 H   0  0  0  0  0  0  0  0  0  0  0  0
   37.6930   24.0017   41.9890 H   0  0  0  0  0  0  0  0  0  0  0  0
   35.9761   24.4444   42.0679 H   0  0  0  0  0  0  0  0  0  0  0  0
   37.7585   24.0657   39.6124 H   0  0  0  0  0  0  0  0  0  0  0  0
   36.1001   23.5983   39.7682 H   0  0  0  0  0  0  0  0  0  0  0  0
   36.4781   25.9082   38.4732 H   0  0  0  0  0  0  0  0  0  0  0  0
   35.3776   26.1148   39.7869 H   0  0  0  0  0  0  0  0  0  0  0  0
   35.3406   27.8877   41.2220 H   0  0  0  0  0  0  0  0  0  0  0  0
   34.9878   30.4055   41.2353 H   0  0  0  0  0  0  0  0  0  0  0  0
   38.8064   30.8362   39.3385 H   0  0  0  0  0  0  0  0  0  0  0  0
   37.9953   27.0923   44.1623 H   0  0  0  0  0  0  0  0  0  0  0  0
   40.2541   27.3200   45.1683 H   0  0  0  0  0  0  0  0  0  0  0  0
   44.5386   27.6886   41.1364 H   0  0  0  0  0  0  0  0  0  0  0  0
   46.5489   27.8186   42.9488 H   0  0  0  0  0  0  0  0  0  0  0  0
   46.1666   25.7878   44.5485 H   0  0  0  0  0  0  0  0  0  0  0  0
  1  2  1  0
  2 12  1  0
  3  2  1  0
  4  3  1  0
  5  4  1  0
  5  1  1  0
  6  1  1  0
  6  7  2  0
  7  8  1  0
  9  8  2  0
 10  9  1  0
 11 10  2  0
 11  6  1  0
 12 13  2  0
 13 14  1  0
 15 14  2  0
 16 15  1  0
 17 16  2  0
 17 12  1  0
 18 16  1  0
 18 19  1  0
 19 23  2  0
 20 19  1  0
 20 21  2  0
 21 22  1  0
 23 22  1  0
  1 24  1  6
  2 25  1  1
  3 26  1  0
  3 27  1  0
  4 28  1  0
  4 29  1  0
  5 30  1  0
  5 31  1  0
  7 32  1  0
  8 33  1  0
 10 34  1  0
 13 35  1  0
 14 36  1  0
 20 37  1  0
 21 38  1  0
 22 39  1  0
M  ISO  8  24  13  25  13  26  13  27  13  28  13  29  13  30  13  31  13
M  ISO  8  32  14  33  14  34  14  35  14  36  14  37  14  38  14  39   9
M  END
>  <minimizedAffinity>  (1) 
-4.41404295

>  <minimizedRMSD>  (1) 
0.180461675

$$$$
