
     RDKit          3D

 41 43  0  0  1  0  0  0  0  0999 V2000
   37.4080   26.5500   40.2420 C   0  0  1  0  0  0  0  0  0  0  0  0
   37.3110   26.0810   41.7010 C   0  0  1  0  0  0  0  0  0  0  0  0
   36.8840   24.6440   41.6000 C   0  0  0  0  0  0  0  0  0  0  0  0
   36.7270   24.3410   40.1070 C   0  0  0  0  0  0  0  0  0  0  0  0
   36.3390   25.7520   39.5950 C   0  0  0  0  0  0  0  0  0  0  0  0
   37.2540   27.9990   40.2050 C   0  0  0  0  0  0  0  0  0  0  0  0
   36.1120   28.5410   40.8400 C   0  0  0  0  0  0  0  0  0  0  0  0
   35.9300   29.9350   40.8270 C   0  0  0  0  0  0  0  0  0  0  0  0
   36.8820   30.6790   40.1920 N   0  0  0  0  0  0  0  0  0  0  0  0
   37.9580   30.1100   39.5990 C   0  0  0  0  0  0  0  0  0  0  0  0
   38.1450   28.7850   39.6030 N   0  0  0  0  0  0  0  0  0  0  0  0
   38.6700   26.2200   42.2970 C   0  0  0  0  0  0  0  0  0  0  0  0
   38.9170   26.7240   43.5400 C   0  0  0  0  0  0  0  0  0  0  0  0
   40.1800   26.8600   44.0850 C   0  0  0  0  0  0  0  0  0  0  0  0
   41.2300   26.4520   43.2990 N   0  0  0  0  0  0  0  0  0  0  0  0
   41.0000   25.9540   42.0710 C   0  0  0  0  0  0  0  0  0  0  0  0
   39.7570   25.8390   41.5780 N   0  0  0  0  0  0  0  0  0  0  0  0
   42.4470   25.4590   41.1460 S   0  0  0  0  0  0  0  0  0  0  0  0
   43.9360   26.2550   41.7660 C   0  0  0  0  0  0  0  0  0  0  0  0
   45.1220   25.4990   41.1830 C   0  0  0  0  0  0  0  0  0  0  0  0
   44.0160   27.6650   41.2210 C   0  0  0  0  0  0  0  0  0  0  0  0
   38.3619   26.3887   39.7185 H   0  0  0  0  0  0  0  0  0  0  0  0
   36.6084   26.6483   42.3291 H   0  0  0  0  0  0  0  0  0  0  0  0
   37.6485   23.9884   42.0425 H   0  0  0  0  0  0  0  0  0  0  0  0
   35.9431   24.4695   42.1424 H   0  0  0  0  0  0  0  0  0  0  0  0
   37.6675   23.9871   39.6596 H   0  0  0  0  0  0  0  0  0  0  0  0
   36.0093   23.5431   39.8656 H   0  0  0  0  0  0  0  0  0  0  0  0
   36.3851   25.8174   38.4979 H   0  0  0  0  0  0  0  0  0  0  0  0
   35.3119   26.0687   39.8289 H   0  0  0  0  0  0  0  0  0  0  0  0
   35.3807   27.8846   41.3343 H   0  0  0  0  0  0  0  0  0  0  0  0
   35.0592   30.4052   41.3072 H   0  0  0  0  0  0  0  0  0  0  0  0
   38.6979   30.7538   39.1009 H   0  0  0  0  0  0  0  0  0  0  0  0
   38.0568   27.0424   44.1472 H   0  0  0  0  0  0  0  0  0  0  0  0
   40.3357   27.2723   45.0928 H   0  0  0  0  0  0  0  0  0  0  0  0
   43.9320   26.2627   42.8660 H   0  0  0  0  0  0  0  0  0  0  0  0
   45.7425   25.1035   42.0006 H   0  0  0  0  0  0  0  0  0  0  0  0
   44.7574   24.6663   40.5636 H   0  0  0  0  0  0  0  0  0  0  0  0
   45.7230   26.1810   40.5636 H   0  0  0  0  0  0  0  0  0  0  0  0
   44.0565   28.3793   42.0565 H   0  0  0  0  0  0  0  0  0  0  0  0
   44.9215   27.7693   40.6052 H   0  0  0  0  0  0  0  0  0  0  0  0
   43.1281   27.8710   40.6052 H   0  0  0  0  0  0  0  0  0  0  0  0
  1  2  1  0
  2 12  1  0
  3  2  1  0
  4  3  1  0
  5  4  1  0
  5  1  1  0
  6  1  1  0
  6  7  2  0
  8  7  1  0
  9  8  2  0
 10 11  2  0
 10  9  1  0
 11  6  1  0
 12 13  2  0
 13 14  1  0
 15 14  2  0
 16 15  1  0
 17 16  2  0
 17 12  1  0
 18 19  1  0
 18 16  1  0
 20 19  1  0
 21 19  1  0
  1 22  1  6
  2 23  1  1
  3 24  1  0
  3 25  1  0
  4 26  1  0
  4 27  1  0
  5 28  1  0
  5 29  1  0
  7 30  1  0
  8 31  1  0
 10 32  1  0
 13 33  1  0
 14 34  1  0
 19 35  1  0
 20 36  1  0
 20 37  1  0
 20 38  1  0
 21 39  1  0
 21 40  1  0
 21 41  1  0
M  ISO  8  22  13  23  13  24  13  25  13  26  13  27  13  28  13  29  13
M  ISO  8  30  14  31  14  32  14  33  14  34  14  35   8  36   8  37   8
M  ISO  4  38   8  39   8  40   8  41   8
M  END
>  <minimizedAffinity>  (1) 
-4.19704294

>  <minimizedRMSD>  (1) 
0.477531493

$$$$
