
     RDKit          3D

 26 27  0  0  0  0  0  0  0  0999 V2000
   37.4580   28.7480   42.9400 C   0  0  0  0  0  0  0  0  0  0  0  0
   38.5490   29.6260   42.9840 C   0  0  0  0  0  0  0  0  0  0  0  0
   38.7870   30.4200   41.8680 C   0  0  0  0  0  0  0  0  0  0  0  0
   37.9520   30.3020   40.8010 N   0  0  0  0  0  0  0  0  0  0  0  0
   36.9140   29.4490   40.7920 C   0  0  0  0  0  0  0  0  0  0  0  0
   36.6610   28.6650   41.8660 N   0  0  0  0  0  0  0  0  0  0  0  0
   34.3110   29.1130   37.4670 C   0  0  0  0  0  0  0  0  0  0  0  0
   33.8580   29.0160   38.7650 C   0  0  0  0  0  0  0  0  0  0  0  0
   34.6610   29.1180   39.8790 C   0  0  0  0  0  0  0  0  0  0  0  0
   36.0190   29.3340   39.6260 C   0  0  0  0  0  0  0  0  0  0  0  0
   36.5040   29.4360   38.3320 C   0  0  0  0  0  0  0  0  0  0  0  0
   35.6540   29.3260   37.2350 C   0  0  0  0  0  0  0  0  0  0  0  0
   33.2360   28.9740   36.0900 S   0  0  0  0  0  0  0  0  0  0  0  0
   32.0350   29.8970   36.2370 O   0  0  0  0  0  0  0  0  0  0  0  0
   33.9830   29.4210   34.8560 O   0  0  0  0  0  0  0  0  0  0  0  0
   37.1570   27.8740   44.1070 C   0  0  0  0  0  0  0  0  0  0  0  0
   36.7280   28.5980   45.1940 F   0  0  0  0  0  0  0  0  0  0  0  0
   38.2840   27.1360   44.4530 F   0  0  0  0  0  0  0  0  0  0  0  0
   36.1440   26.9950   43.7380 F   0  0  0  0  0  0  0  0  0  0  0  0
   39.1956   29.6851   43.8719 H   0  0  0  0  0  0  0  0  0  0  0  0
   39.6300   31.1264   41.8484 H   0  0  0  0  0  0  0  0  0  0  0  0
   32.7826   28.8456   38.9216 H   0  0  0  0  0  0  0  0  0  0  0  0
   34.2606   29.0350   40.9002 H   0  0  0  0  0  0  0  0  0  0  0  0
   37.5784   29.6067   38.1689 H   0  0  0  0  0  0  0  0  0  0  0  0
   36.0434   29.4069   36.2094 H   0  0  0  0  0  0  0  0  0  0  0  0
   32.8136   27.6736   36.0036 H   0  0  0  0  0  0  0  0  0  0  0  0
  1  2  2  0
  1 16  1  0
  3  2  1  0
  4  3  2  0
  5  4  1  0
  5  6  2  0
  6  1  1  0
  7  8  2  0
  8  9  1  0
 10  9  2  0
 10  5  1  0
 11 10  1  0
 12  7  1  0
 12 11  2  0
 13 14  2  0
 13  7  1  0
 15 13  2  0
 16 18  1  0
 16 17  1  0
 19 16  1  0
  2 20  1  0
  3 21  1  0
  8 22  1  0
  9 23  1  0
 11 24  1  0
 12 25  1  0
 13 26  1  0
M  ISO  7  20  14  21  14  22  14  23  14  24  14  25  14  26  11
M  END
>  <minimizedAffinity>  (1) 
-5.66406584

>  <minimizedRMSD>  (1) 
1.4308728

$$$$
