
     RDKit          3D

 27 29  0  0  0  0  0  0  0  0999 V2000
   37.9890   32.3150   40.6600 C   0  0  0  0  0  0  0  0  0  0  0  0
   36.6900   31.8340   40.5250 C   0  0  0  0  0  0  0  0  0  0  0  0
   36.4200   30.5640   41.0320 C   0  0  0  0  0  0  0  0  0  0  0  0
   37.4220   29.8790   41.6170 N   0  0  0  0  0  0  0  0  0  0  0  0
   38.6670   30.3490   41.7400 C   0  0  0  0  0  0  0  0  0  0  0  0
   38.9170   31.5710   41.2510 N   0  0  0  0  0  0  0  0  0  0  0  0
   39.8820   29.7490   42.3400 C   0  0  0  0  0  0  0  0  0  0  0  0
   41.0510   30.4100   42.4640 N   0  0  0  0  0  0  0  0  0  0  0  0
   42.1320   29.8500   43.0080 C   0  0  0  0  0  0  0  0  0  0  0  0
   42.1670   28.5930   43.4780 N   0  0  0  0  0  0  0  0  0  0  0  0
   41.0350   27.8790   43.3860 C   0  0  0  0  0  0  0  0  0  0  0  0
   41.0720   26.5920   43.8670 C   0  0  0  0  0  0  0  0  0  0  0  0
   39.9460   25.8010   43.8030 C   0  0  0  0  0  0  0  0  0  0  0  0
   38.8150   26.3640   43.2430 C   0  0  0  0  0  0  0  0  0  0  0  0
   38.8360   27.6580   42.7760 C   0  0  0  0  0  0  0  0  0  0  0  0
   39.9360   28.4650   42.8270 C   0  0  0  0  0  0  0  0  0  0  0  0
   38.3390   33.6630   40.1480 C   0  0  0  0  0  0  0  0  0  0  0  0
   38.7840   34.4860   41.1670 F   0  0  0  0  0  0  0  0  0  0  0  0
   37.2620   34.2250   39.4900 F   0  0  0  0  0  0  0  0  0  0  0  0
   39.4100   33.5190   39.2590 F   0  0  0  0  0  0  0  0  0  0  0  0
   35.9068   32.4328   40.0371 H   0  0  0  0  0  0  0  0  0  0  0  0
   35.4117   30.1308   40.9562 H   0  0  0  0  0  0  0  0  0  0  0  0
   43.0491   30.4536   43.0756 H   0  0  0  0  0  0  0  0  0  0  0  0
   42.0002   26.1938   44.3028 H   0  0  0  0  0  0  0  0  0  0  0  0
   39.9471   24.7678   44.1806 H   0  0  0  0  0  0  0  0  0  0  0  0
   37.8903   25.7727   43.1700 H   0  0  0  0  0  0  0  0  0  0  0  0
   37.9137   28.0657   42.3364 H   0  0  0  0  0  0  0  0  0  0  0  0
  1  6  2  0
  2  1  1  0
  2  3  2  0
  3  4  1  0
  4  5  2  0
  5  7  1  0
  6  5  1  0
  7  8  2  0
  7 16  1  0
  8  9  1  0
  9 10  2  0
 11 10  1  0
 11 12  2  0
 13 12  1  0
 14 13  2  0
 15 16  2  0
 15 14  1  0
 16 11  1  0
 17  1  1  0
 17 18  1  0
 19 17  1  0
 20 17  1  0
  2 21  1  0
  3 22  1  0
  9 23  1  0
 12 24  1  0
 13 25  1  0
 14 26  1  0
 15 27  1  0
M  ISO  7  21  14  22  14  23  14  24  14  25  14  26  14  27  14
M  END
>  <minimizedAffinity>  (1) 
-5.59571743

>  <minimizedRMSD>  (1) 
7.46450377

$$$$
