
     RDKit          3D

 28 29  0  0  0  0  0  0  0  0999 V2000
   37.5160   28.8210   42.9570 C   0  0  0  0  0  0  0  0  0  0  0  0
   38.6640   29.6450   43.0310 C   0  0  0  0  0  0  0  0  0  0  0  0
   38.8910   30.5240   41.9730 C   0  0  0  0  0  0  0  0  0  0  0  0
   38.0080   30.5380   40.9430 N   0  0  0  0  0  0  0  0  0  0  0  0
   36.9260   29.7410   40.9040 C   0  0  0  0  0  0  0  0  0  0  0  0
   36.6690   28.8770   41.9060 N   0  0  0  0  0  0  0  0  0  0  0  0
   36.0820   29.8490   39.7770 N   0  0  0  0  0  0  0  0  0  0  0  0
   36.5640   30.5360   38.5980 C   0  0  0  0  0  0  0  0  0  0  0  0
   36.5040   29.5570   37.4550 C   0  0  0  0  0  0  0  0  0  0  0  0
   35.0450   29.2030   37.2380 C   0  0  0  0  0  0  0  0  0  0  0  0
   34.5380   28.4790   38.4580 C   0  0  0  0  0  0  0  0  0  0  0  0
   34.7380   29.3120   39.7110 C   0  0  0  0  0  0  0  0  0  0  0  0
   37.2170   27.8660   44.0500 C   0  0  0  0  0  0  0  0  0  0  0  0
   36.7340   28.5120   45.1700 F   0  0  0  0  0  0  0  0  0  0  0  0
   38.3580   27.1390   44.3720 F   0  0  0  0  0  0  0  0  0  0  0  0
   36.2420   26.9840   43.6070 F   0  0  0  0  0  0  0  0  0  0  0  0
   39.3501   29.5940   43.8893 H   0  0  0  0  0  0  0  0  0  0  0  0
   39.7658   31.1908   41.9733 H   0  0  0  0  0  0  0  0  0  0  0  0
   35.9269   31.4064   38.3823 H   0  0  0  0  0  0  0  0  0  0  0  0
   37.5923   30.8961   38.7495 H   0  0  0  0  0  0  0  0  0  0  0  0
   36.9192   30.0151   36.5452 H   0  0  0  0  0  0  0  0  0  0  0  0
   37.0927   28.6563   37.6834 H   0  0  0  0  0  0  0  0  0  0  0  0
   34.4602   30.1216   37.0828 H   0  0  0  0  0  0  0  0  0  0  0  0
   34.9427   28.5606   36.3510 H   0  0  0  0  0  0  0  0  0  0  0  0
   33.4651   28.2712   38.3323 H   0  0  0  0  0  0  0  0  0  0  0  0
   35.1034   27.5418   38.5679 H   0  0  0  0  0  0  0  0  0  0  0  0
   34.0192   30.1447   39.7062 H   0  0  0  0  0  0  0  0  0  0  0  0
   34.5789   28.6657   40.5867 H   0  0  0  0  0  0  0  0  0  0  0  0
  1  2  2  0
  1 13  1  0
  3  2  1  0
  4  3  2  0
  5  4  1  0
  5  6  2  0
  6  1  1  0
  7  5  1  0
  8  7  1  0
  9  8  1  0
 10  9  1  0
 10 11  1  0
 11 12  1  0
 12  7  1  0
 13 15  1  0
 13 14  1  0
 16 13  1  0
  2 17  1  0
  3 18  1  0
  8 19  1  0
  8 20  1  0
  9 21  1  0
  9 22  1  0
 10 23  1  0
 10 24  1  0
 11 25  1  0
 11 26  1  0
 12 27  1  0
 12 28  1  0
M  ISO  8  17  14  18  14  19  13  20  13  21  13  22  13  23  13  24  13
M  ISO  4  25  13  26  13  27  13  28  13
M  END
>  <minimizedAffinity>  (1) 
-5.55374908

>  <minimizedRMSD>  (1) 
1.2643435

$$$$
