
     RDKit          3D

 23 24  0  0  0  0  0  0  0  0999 V2000
   37.6160   28.7860   42.8820 C   0  0  0  0  0  0  0  0  0  0  0  0
   38.6770   29.6870   43.0340 C   0  0  0  0  0  0  0  0  0  0  0  0
   39.0280   30.4870   41.9400 C   0  0  0  0  0  0  0  0  0  0  0  0
   38.3000   30.3260   40.7860 N   0  0  0  0  0  0  0  0  0  0  0  0
   37.2880   29.4480   40.6830 C   0  0  0  0  0  0  0  0  0  0  0  0
   36.9350   28.6710   41.7250 N   0  0  0  0  0  0  0  0  0  0  0  0
   36.6330   29.4030   39.4190 N   0  0  0  0  0  0  0  0  0  0  0  0
   37.4150   29.6390   38.3250 C   0  0  0  0  0  0  0  0  0  0  0  0
   36.8740   29.6180   37.0490 C   0  0  0  0  0  0  0  0  0  0  0  0
   35.5240   29.3500   36.9240 C   0  0  0  0  0  0  0  0  0  0  0  0
   34.9910   29.3230   35.7660 O   0  0  0  0  0  0  0  0  0  0  0  0
   34.7670   29.1200   38.0190 N   0  0  0  0  0  0  0  0  0  0  0  0
   35.3050   29.1430   39.2520 C   0  0  0  0  0  0  0  0  0  0  0  0
   34.6420   28.9350   40.3060 O   0  0  0  0  0  0  0  0  0  0  0  0
   37.2100   27.9180   44.0210 C   0  0  0  0  0  0  0  0  0  0  0  0
   36.7440   28.6590   45.0870 F   0  0  0  0  0  0  0  0  0  0  0  0
   38.2950   27.1330   44.4340 F   0  0  0  0  0  0  0  0  0  0  0  0
   36.2040   27.0740   43.5930 F   0  0  0  0  0  0  0  0  0  0  0  0
   39.2202   29.7642   43.9874 H   0  0  0  0  0  0  0  0  0  0  0  0
   39.8516   31.2135   42.0017 H   0  0  0  0  0  0  0  0  0  0  0  0
   38.4867   29.8482   38.4577 H   0  0  0  0  0  0  0  0  0  0  0  0
   37.4992   29.8085   36.1642 H   0  0  0  0  0  0  0  0  0  0  0  0
   33.7619   28.9239   37.9082 H   0  0  0  0  0  0  0  0  0  0  0  0
  1  2  2  0
  1 15  1  0
  3  2  1  0
  4  3  2  0
  5  4  1  0
  5  6  2  0
  6  1  1  0
  7  5  1  0
  8  7  1  0
  9  8  2  0
 10  9  1  0
 10 12  1  0
 11 10  2  0
 12 13  1  0
 13  7  1  0
 13 14  2  0
 15 17  1  0
 15 16  1  0
 18 15  1  0
  2 19  1  0
  3 20  1  0
  8 21  1  0
  9 22  1  0
 12 23  1  0
M  ISO  5  19  14  20  14  21  14  22  14  23   9
M  END
>  <minimizedAffinity>  (1) 
-5.45923662

>  <minimizedRMSD>  (1) 
1.75939107

$$$$
