
     RDKit          3D

 24 26  0  0  0  0  0  0  0  0999 V2000
   37.1860   28.9150   42.2130 C   0  0  0  0  0  0  0  0  0  0  0  0
   36.0580   28.4170   41.5470 C   0  0  0  0  0  0  0  0  0  0  0  0
   35.6160   29.1120   40.4150 C   0  0  0  0  0  0  0  0  0  0  0  0
   36.3010   30.2250   40.0250 N   0  0  0  0  0  0  0  0  0  0  0  0
   37.3770   30.6690   40.6890 C   0  0  0  0  0  0  0  0  0  0  0  0
   37.8340   30.0250   41.7860 N   0  0  0  0  0  0  0  0  0  0  0  0
   38.1190   31.8250   40.3150 N   0  0  0  0  0  0  0  0  0  0  0  0
   37.6650   33.0950   40.4190 C   0  0  0  0  0  0  0  0  0  0  0  0
   38.6320   33.9140   39.9750 N   0  0  0  0  0  0  0  0  0  0  0  0
   39.6730   33.1300   39.6000 C   0  0  0  0  0  0  0  0  0  0  0  0
   40.9330   33.3820   39.0720 C   0  0  0  0  0  0  0  0  0  0  0  0
   41.8070   32.3930   38.7790 N   0  0  0  0  0  0  0  0  0  0  0  0
   41.4670   31.0980   38.9980 C   0  0  0  0  0  0  0  0  0  0  0  0
   40.2560   30.8260   39.5070 N   0  0  0  0  0  0  0  0  0  0  0  0
   39.3650   31.8020   39.8080 C   0  0  0  0  0  0  0  0  0  0  0  0
   37.6990   28.2150   43.4210 C   0  0  0  0  0  0  0  0  0  0  0  0
   37.5780   26.8530   43.3130 F   0  0  0  0  0  0  0  0  0  0  0  0
   37.0570   28.6840   44.5560 F   0  0  0  0  0  0  0  0  0  0  0  0
   39.0630   28.5170   43.5310 F   0  0  0  0  0  0  0  0  0  0  0  0
   35.5393   27.5137   41.9005 H   0  0  0  0  0  0  0  0  0  0  0  0
   34.7356   28.7680   39.8524 H   0  0  0  0  0  0  0  0  0  0  0  0
   36.6796   33.4020   40.7994 H   0  0  0  0  0  0  0  0  0  0  0  0
   41.2305   34.4244   38.8855 H   0  0  0  0  0  0  0  0  0  0  0  0
   42.1711   30.2863   38.7626 H   0  0  0  0  0  0  0  0  0  0  0  0
  1 16  1  0
  2  1  2  0
  3  2  1  0
  4  3  2  0
  4  5  1  0
  5  6  2  0
  6  1  1  0
  7  8  1  0
  7  5  1  0
  9  8  2  0
 10 15  2  0
 10  9  1  0
 11 10  1  0
 12 13  1  0
 12 11  2  0
 13 14  2  0
 14 15  1  0
 15  7  1  0
 16 19  1  0
 16 18  1  0
 17 16  1  0
  2 20  1  0
  3 21  1  0
  8 22  1  0
 11 23  1  0
 13 24  1  0
M  ISO  5  20  14  21  14  22  14  23  14  24  14
M  END
>  <minimizedAffinity>  (1) 
-5.35912228

>  <minimizedRMSD>  (1) 
5.84998608

$$$$
