
     RDKit          3D

 25 26  0  0  0  0  0  0  0  0999 V2000
   37.4460   28.7040   42.9530 C   0  0  0  0  0  0  0  0  0  0  0  0
   38.5320   29.6050   42.9990 C   0  0  0  0  0  0  0  0  0  0  0  0
   38.7520   30.3960   41.8590 C   0  0  0  0  0  0  0  0  0  0  0  0
   37.9150   30.2490   40.7880 N   0  0  0  0  0  0  0  0  0  0  0  0
   36.8960   29.3790   40.7910 C   0  0  0  0  0  0  0  0  0  0  0  0
   36.6450   28.5980   41.8630 N   0  0  0  0  0  0  0  0  0  0  0  0
   36.0810   29.2990   39.6300 N   0  0  0  0  0  0  0  0  0  0  0  0
   34.6210   29.2540   39.6760 C   0  0  0  0  0  0  0  0  0  0  0  0
   34.3130   28.5370   38.3580 C   0  0  0  0  0  0  0  0  0  0  0  0
   35.2500   29.3410   37.4470 C   0  0  0  0  0  0  0  0  0  0  0  0
   36.5370   29.2490   38.2380 C   0  0  0  0  0  0  0  0  0  0  0  0
   37.1560   27.8340   44.1290 C   0  0  0  0  0  0  0  0  0  0  0  0
   36.7130   28.5800   45.2020 F   0  0  0  0  0  0  0  0  0  0  0  0
   38.2940   27.1160   44.4700 F   0  0  0  0  0  0  0  0  0  0  0  0
   36.1620   26.9380   43.7680 F   0  0  0  0  0  0  0  0  0  0  0  0
   39.1765   29.6840   43.8869 H   0  0  0  0  0  0  0  0  0  0  0  0
   39.5807   31.1188   41.8287 H   0  0  0  0  0  0  0  0  0  0  0  0
   34.2610   28.6800   40.5426 H   0  0  0  0  0  0  0  0  0  0  0  0
   34.1387   30.2368   39.7827 H   0  0  0  0  0  0  0  0  0  0  0  0
   34.5806   27.4706   38.3924 H   0  0  0  0  0  0  0  0  0  0  0  0
   33.2547   28.5143   38.0590 H   0  0  0  0  0  0  0  0  0  0  0  0
   34.9143   30.3825   37.3348 H   0  0  0  0  0  0  0  0  0  0  0  0
   35.3167   28.9719   36.4129 H   0  0  0  0  0  0  0  0  0  0  0  0
   37.0616   28.3051   38.0288 H   0  0  0  0  0  0  0  0  0  0  0  0
   37.2526   30.0468   37.9904 H   0  0  0  0  0  0  0  0  0  0  0  0
  1  2  2  0
  1 12  1  0
  3  2  1  0
  4  5  1  0
  4  3  2  0
  5  6  2  0
  6  1  1  0
  7  8  1  0
  7  5  1  0
  9  8  1  0
 10 11  1  0
 10  9  1  0
 11  7  1  0
 12 14  1  0
 12 13  1  0
 15 12  1  0
  2 16  1  0
  3 17  1  0
  8 18  1  0
  8 19  1  0
  9 20  1  0
  9 21  1  0
 10 22  1  0
 10 23  1  0
 11 24  1  0
 11 25  1  0
M  ISO  8  16  14  17  14  18  13  19  13  20  13  21  13  22  13  23  13
M  ISO  2  24  13  25  13
M  END
>  <minimizedAffinity>  (1) 
-5.14285326

>  <minimizedRMSD>  (1) 
1.22252345

$$$$
