
     RDKit          3D

 47 50  0  0  1  0  0  0  0  0999 V2000
   40.0490   32.2590   41.0700 C   0  0  0  0  0  0  0  0  0  0  0  0
   39.6900   30.9750   41.5700 C   0  0  0  0  0  0  0  0  0  0  0  0
   38.3730   30.6050   41.4710 C   0  0  0  0  0  0  0  0  0  0  0  0
   37.4640   31.4690   40.9040 N   0  0  0  0  0  0  0  0  0  0  0  0
   37.8370   32.6810   40.4380 C   0  0  0  0  0  0  0  0  0  0  0  0
   39.1420   33.0800   40.5200 N   0  0  0  0  0  0  0  0  0  0  0  0
   36.8540   33.5330   39.8600 N   0  0  0  0  0  0  0  0  0  0  0  0
   37.9250   29.3560   41.9390 N   0  0  0  0  0  0  0  0  0  0  0  0
   38.0950   29.0010   43.3310 C   0  0  0  0  0  0  0  0  0  0  0  0
   37.0440   27.9270   43.6450 C   0  0  0  0  0  0  0  0  0  0  0  0
   37.1270   26.7710   42.8120 N   0  0  0  0  0  0  0  0  0  0  0  0
   37.6290   27.0170   41.5020 C   0  0  0  0  0  0  0  0  0  0  0  0
   37.2930   28.4120   41.0440 C   0  0  2  0  0  0  0  0  0  0  0  0
   37.5790   28.6370   39.6160 C   0  0  0  0  0  0  0  0  0  0  0  0
   36.5670   28.4690   38.6630 C   0  0  0  0  0  0  0  0  0  0  0  0
   36.7470   28.6580   37.3210 C   0  0  0  0  0  0  0  0  0  0  0  0
   37.9800   29.0240   36.9550 N   0  0  0  0  0  0  0  0  0  0  0  0
   38.9730   29.1930   37.8510 C   0  0  0  0  0  0  0  0  0  0  0  0
   38.8090   29.0090   39.1880 N   0  0  0  0  0  0  0  0  0  0  0  0
   40.2630   29.5840   37.3860 N   0  0  0  0  0  0  0  0  0  0  0  0
   40.6960   30.8510   37.5260 C   0  0  0  0  0  0  0  0  0  0  0  0
   41.9490   31.2180   37.0710 C   0  0  0  0  0  0  0  0  0  0  0  0
   42.3660   32.6440   37.2590 C   0  0  0  0  0  0  0  0  0  0  0  0
   42.7600   30.2650   36.4660 C   0  0  0  0  0  0  0  0  0  0  0  0
   43.8970   30.6660   36.0700 O   0  0  0  0  0  0  0  0  0  0  0  0
   42.3090   29.0000   36.3350 N   0  0  0  0  0  0  0  0  0  0  0  0
   41.0710   28.6760   36.7940 C   0  0  0  0  0  0  0  0  0  0  0  0
   40.6970   27.4720   36.6440 O   0  0  0  0  0  0  0  0  0  0  0  0
   41.0971   32.5861   41.1365 H   0  0  0  0  0  0  0  0  0  0  0  0
   40.4395   30.3061   42.0181 H   0  0  0  0  0  0  0  0  0  0  0  0
   35.8734   33.2232   39.8028 H   0  0  0  0  0  0  0  0  0  0  0  0
   37.1234   34.4593   39.4989 H   0  0  0  0  0  0  0  0  0  0  0  0
   39.1062   28.6023   43.4996 H   0  0  0  0  0  0  0  0  0  0  0  0
   37.9690   29.8793   43.9811 H   0  0  0  0  0  0  0  0  0  0  0  0
   37.1752   27.6101   44.6902 H   0  0  0  0  0  0  0  0  0  0  0  0
   36.0597   28.3819   43.4600 H   0  0  0  0  0  0  0  0  0  0  0  0
   37.7476   26.0888   43.2707 H   0  0  0  0  0  0  0  0  0  0  0  0
   38.7221   26.8945   41.5076 H   0  0  0  0  0  0  0  0  0  0  0  0
   37.1625   26.3008   40.8096 H   0  0  0  0  0  0  0  0  0  0  0  0
   36.2054   28.5658   41.1027 H   0  0  0  0  0  0  0  0  0  0  0  0
   35.5692   28.1675   39.0145 H   0  0  0  0  0  0  0  0  0  0  0  0
   35.9342   28.5187   36.5930 H   0  0  0  0  0  0  0  0  0  0  0  0
   40.0484   31.5996   38.0058 H   0  0  0  0  0  0  0  0  0  0  0  0
   42.4316   32.8682   38.3339 H   0  0  0  0  0  0  0  0  0  0  0  0
   43.3484   32.8035   36.7906 H   0  0  0  0  0  0  0  0  0  0  0  0
   41.6243   33.3077   36.7906 H   0  0  0  0  0  0  0  0  0  0  0  0
   42.8997   28.2834   35.8895 H   0  0  0  0  0  0  0  0  0  0  0  0
  1  2  2  0
  3  2  1  0
  3  8  1  0
  4  3  2  0
  5  6  2  0
  5  4  1  0
  6  1  1  0
  7  5  1  0
  8  9  1  0
  9 10  1  0
 11 10  1  0
 12 11  1  0
 13 12  1  0
 13  8  1  0
 14 13  1  0
 15 14  2  0
 16 15  1  0
 17 16  2  0
 17 18  1  0
 18 19  2  0
 19 14  1  0
 20 21  1  0
 20 18  1  0
 22 23  1  0
 22 21  2  0
 24 22  1  0
 25 24  2  0
 26 24  1  0
 26 27  1  0
 27 20  1  0
 28 27  2  0
  1 29  1  0
  2 30  1  0
  7 31  1  0
  7 32  1  0
  9 33  1  0
  9 34  1  0
 10 35  1  0
 10 36  1  0
 11 37  1  0
 12 38  1  0
 12 39  1  0
 13 40  1  6
 15 41  1  0
 16 42  1  0
 21 43  1  0
 23 44  1  0
 23 45  1  0
 23 46  1  0
 26 47  1  0
M  ISO  8  29  14  30  14  33  13  34  13  35  13  36  13  37   5  38  13
M  ISO  8  39  13  40  13  41  14  42  14  43  14  44   8  45   8  46   8
M  ISO  1  47   9
M  END
>  <minimizedAffinity>  (1) 
-6.92742395

>  <minimizedRMSD>  (1) 
2.10977602

$$$$
