
     RDKit          3D

 19 20  0  0  0  0  0  0  0  0999 V2000
   37.4030   28.7030   42.9430 C   0  0  0  0  0  0  0  0  0  0  0  0
   38.5080   29.5790   42.9970 C   0  0  0  0  0  0  0  0  0  0  0  0
   38.7610   30.3730   41.8730 C   0  0  0  0  0  0  0  0  0  0  0  0
   37.9250   30.2500   40.7920 N   0  0  0  0  0  0  0  0  0  0  0  0
   36.8880   29.4050   40.7830 C   0  0  0  0  0  0  0  0  0  0  0  0
   36.6260   28.6320   41.8540 N   0  0  0  0  0  0  0  0  0  0  0  0
   36.0580   29.3280   39.6260 N   0  0  0  0  0  0  0  0  0  0  0  0
   34.7580   28.9710   39.5790 C   0  0  0  0  0  0  0  0  0  0  0  0
   34.2800   29.0050   38.3210 N   0  0  0  0  0  0  0  0  0  0  0  0
   35.3200   29.3960   37.5610 C   0  0  0  0  0  0  0  0  0  0  0  0
   36.4080   29.5930   38.3580 N   0  0  0  0  0  0  0  0  0  0  0  0
   37.0880   27.8380   44.1070 C   0  0  0  0  0  0  0  0  0  0  0  0
   36.1150   26.9310   43.8180 F   0  0  0  0  0  0  0  0  0  0  0  0
   36.7270   28.6350   45.1960 F   0  0  0  0  0  0  0  0  0  0  0  0
   38.2440   27.1490   44.4520 F   0  0  0  0  0  0  0  0  0  0  0  0
   39.1473   29.6356   43.8904 H   0  0  0  0  0  0  0  0  0  0  0  0
   39.6066   31.0763   41.8565 H   0  0  0  0  0  0  0  0  0  0  0  0
   34.1625   28.6873   40.4593 H   0  0  0  0  0  0  0  0  0  0  0  0
   35.2956   29.5345   36.4700 H   0  0  0  0  0  0  0  0  0  0  0  0
  1  2  2  0
  1 12  1  0
  3  2  1  0
  4  3  2  0
  5  4  1  0
  5  6  2  0
  6  1  1  0
  7  5  1  0
  8  7  1  0
  9  8  2  0
 10  9  1  0
 10 11  2  0
 11  7  1  0
 12 15  1  0
 12 14  1  0
 13 12  1  0
  2 16  1  0
  3 17  1  0
  8 18  1  0
 10 19  1  0
M  ISO  4  16  14  17  14  18  14  19  14
M  END
>  <minimizedAffinity>  (1) 
-4.91612864

>  <minimizedRMSD>  (1) 
1.38222039

$$$$
