
     RDKit          3D

 21 22  0  0  0  0  0  0  0  0999 V2000
   37.2220   28.5490   42.8270 C   0  0  0  0  0  0  0  0  0  0  0  0
   38.1620   29.6040   42.7220 C   0  0  0  0  0  0  0  0  0  0  0  0
   38.2580   30.2580   41.4920 C   0  0  0  0  0  0  0  0  0  0  0  0
   37.4510   29.8470   40.4760 N   0  0  0  0  0  0  0  0  0  0  0  0
   36.5710   28.8400   40.6150 C   0  0  0  0  0  0  0  0  0  0  0  0
   36.4490   28.1840   41.7870 N   0  0  0  0  0  0  0  0  0  0  0  0
   35.7290   28.4370   39.4970 C   0  0  0  0  0  0  0  0  0  0  0  0
   36.0020   27.3130   38.7550 C   0  0  0  0  0  0  0  0  0  0  0  0
   35.2090   26.9060   37.6800 C   0  0  0  0  0  0  0  0  0  0  0  0
   34.1310   27.6400   37.3510 N   0  0  0  0  0  0  0  0  0  0  0  0
   33.8510   28.7560   38.0810 C   0  0  0  0  0  0  0  0  0  0  0  0
   34.6380   29.1140   39.1080 N   0  0  0  0  0  0  0  0  0  0  0  0
   37.0900   27.8290   44.1160 C   0  0  0  0  0  0  0  0  0  0  0  0
   36.7420   28.6610   45.1360 F   0  0  0  0  0  0  0  0  0  0  0  0
   38.2680   27.1500   44.4150 F   0  0  0  0  0  0  0  0  0  0  0  0
   36.0680   26.8850   43.9640 F   0  0  0  0  0  0  0  0  0  0  0  0
   38.7912   29.8963   43.5756 H   0  0  0  0  0  0  0  0  0  0  0  0
   38.9685   31.0852   41.3477 H   0  0  0  0  0  0  0  0  0  0  0  0
   36.8822   26.7084   39.0190 H   0  0  0  0  0  0  0  0  0  0  0  0
   35.4621   25.9992   37.1111 H   0  0  0  0  0  0  0  0  0  0  0  0
   32.9733   29.3683   37.8268 H   0  0  0  0  0  0  0  0  0  0  0  0
  1 13  1  0
  2  1  2  0
  3  2  1  0
  4  5  1  0
  4  3  2  0
  5  6  2  0
  6  1  1  0
  7  5  1  0
  8  7  2  0
  9  8  1  0
 10  9  2  0
 10 11  1  0
 11 12  2  0
 12  7  1  0
 13 15  1  0
 13 14  1  0
 16 13  1  0
  2 17  1  0
  3 18  1  0
  8 19  1  0
  9 20  1  0
 11 21  1  0
M  ISO  5  17  14  18  14  19  14  20  14  21  14
M  END
>  <minimizedAffinity>  (1) 
-4.78611469

>  <minimizedRMSD>  (1) 
1.42369258

$$$$
