
     RDKit          3D

 18 19  0  0  0  0  0  0  0  0999 V2000
   37.3170   28.7150   42.8510 C   0  0  0  0  0  0  0  0  0  0  0  0
   38.3820   29.6410   42.7820 C   0  0  0  0  0  0  0  0  0  0  0  0
   38.5000   30.4300   41.6460 C   0  0  0  0  0  0  0  0  0  0  0  0
   37.5660   30.2590   40.6570 N   0  0  0  0  0  0  0  0  0  0  0  0
   36.5630   29.3720   40.7460 C   0  0  0  0  0  0  0  0  0  0  0  0
   36.4260   28.5890   41.8450 N   0  0  0  0  0  0  0  0  0  0  0  0
   35.6100   29.2510   39.6450 C   0  0  0  0  0  0  0  0  0  0  0  0
   34.2740   29.0900   39.6540 N   0  0  0  0  0  0  0  0  0  0  0  0
   33.7990   29.0240   38.4480 O   0  0  0  0  0  0  0  0  0  0  0  0
   34.8190   29.1400   37.6370 C   0  0  0  0  0  0  0  0  0  0  0  0
   35.9660   29.2830   38.3270 N   0  0  0  0  0  0  0  0  0  0  0  0
   37.1610   27.8540   44.0520 C   0  0  0  0  0  0  0  0  0  0  0  0
   36.7520   28.5700   45.1380 F   0  0  0  0  0  0  0  0  0  0  0  0
   38.3620   27.1840   44.3140 F   0  0  0  0  0  0  0  0  0  0  0  0
   36.1750   26.9090   43.7630 F   0  0  0  0  0  0  0  0  0  0  0  0
   39.1009   29.7345   43.6093 H   0  0  0  0  0  0  0  0  0  0  0  0
   39.3122   31.1647   41.5432 H   0  0  0  0  0  0  0  0  0  0  0  0
   34.7488   29.1230   36.5394 H   0  0  0  0  0  0  0  0  0  0  0  0
  1 12  1  0
  2  1  2  0
  3  2  1  0
  4  5  1  0
  4  3  2  0
  5  6  2  0
  6  1  1  0
  7  8  2  0
  7  5  1  0
  9  8  1  0
 10 11  2  0
 10  9  1  0
 11  7  1  0
 12 14  1  0
 12 13  1  0
 15 12  1  0
  2 16  1  0
  3 17  1  0
 10 18  1  0
M  ISO  3  16  14  17  14  18  14
M  END
>  <minimizedAffinity>  (1) 
-4.76167154

>  <minimizedRMSD>  (1) 
1.00478756

$$$$
