
     RDKit          3D

 47 51  0  0  1  0  0  0  0  0999 V2000
   40.0180   32.1910   41.1330 C   0  0  0  0  0  0  0  0  0  0  0  0
   39.6220   30.9060   41.6020 C   0  0  0  0  0  0  0  0  0  0  0  0
   38.2990   30.5610   41.4650 C   0  0  0  0  0  0  0  0  0  0  0  0
   37.4290   31.4520   40.8920 N   0  0  0  0  0  0  0  0  0  0  0  0
   37.8380   32.6670   40.4550 C   0  0  0  0  0  0  0  0  0  0  0  0
   39.1380   33.0420   40.5740 N   0  0  0  0  0  0  0  0  0  0  0  0
   36.8800   33.5470   39.8680 N   0  0  0  0  0  0  0  0  0  0  0  0
   37.8190   29.3190   41.8980 N   0  0  0  0  0  0  0  0  0  0  0  0
   37.9380   28.9410   43.2860 C   0  0  0  0  0  0  0  0  0  0  0  0
   36.8770   27.8720   43.5560 C   0  0  0  0  0  0  0  0  0  0  0  0
   36.9930   26.7310   42.7160 N   0  0  0  0  0  0  0  0  0  0  0  0
   37.5060   26.9880   41.4090 C   0  0  0  0  0  0  0  0  0  0  0  0
   37.1960   28.3940   40.9740 C   0  0  2  0  0  0  0  0  0  0  0  0
   37.5050   28.6450   39.5540 C   0  0  0  0  0  0  0  0  0  0  0  0
   36.4850   28.8530   38.6330 C   0  0  0  0  0  0  0  0  0  0  0  0
   36.6930   29.0900   37.2980 C   0  0  0  0  0  0  0  0  0  0  0  0
   37.9860   29.1130   36.9140 N   0  0  0  0  0  0  0  0  0  0  0  0
   38.9890   28.9150   37.7880 C   0  0  0  0  0  0  0  0  0  0  0  0
   38.7750   28.6800   39.1050 N   0  0  0  0  0  0  0  0  0  0  0  0
   40.3330   28.9480   37.3390 N   0  0  0  0  0  0  0  0  0  0  0  0
   41.0740   30.0910   37.3490 C   0  0  0  0  0  0  0  0  0  0  0  0
   42.3100   29.8840   36.8820 N   0  0  0  0  0  0  0  0  0  0  0  0
   42.3990   28.5910   36.5550 C   0  0  0  0  0  0  0  0  0  0  0  0
   43.3540   27.7270   36.0340 C   0  0  0  0  0  0  0  0  0  0  0  0
   43.1000   26.4150   35.8200 N   0  0  0  0  0  0  0  0  0  0  0  0
   41.8800   25.9370   36.1240 C   0  0  0  0  0  0  0  0  0  0  0  0
   40.9030   26.7240   36.6360 N   0  0  0  0  0  0  0  0  0  0  0  0
   41.1700   28.0250   36.8430 C   0  0  0  0  0  0  0  0  0  0  0  0
   44.6210   28.3480   35.7470 N   0  0  0  0  0  0  0  0  0  0  0  0
   41.0704   32.4959   41.2302 H   0  0  0  0  0  0  0  0  0  0  0  0
   40.3478   30.2157   42.0567 H   0  0  0  0  0  0  0  0  0  0  0  0
   35.8963   33.2539   39.7820 H   0  0  0  0  0  0  0  0  0  0  0  0
   37.1723   34.4752   39.5304 H   0  0  0  0  0  0  0  0  0  0  0  0
   38.9412   28.5342   43.4812 H   0  0  0  0  0  0  0  0  0  0  0  0
   37.7910   29.8117   43.9420 H   0  0  0  0  0  0  0  0  0  0  0  0
   36.9710   27.5449   44.6020 H   0  0  0  0  0  0  0  0  0  0  0  0
   35.8982   28.3285   43.3472 H   0  0  0  0  0  0  0  0  0  0  0  0
   37.6208   26.0577   43.1780 H   0  0  0  0  0  0  0  0  0  0  0  0
   38.5968   26.8463   41.4166 H   0  0  0  0  0  0  0  0  0  0  0  0
   37.0312   26.2905   40.7032 H   0  0  0  0  0  0  0  0  0  0  0  0
   36.1089   28.5558   41.0198 H   0  0  0  0  0  0  0  0  0  0  0  0
   35.4473   28.8259   38.9970 H   0  0  0  0  0  0  0  0  0  0  0  0
   35.8651   29.2498   36.5915 H   0  0  0  0  0  0  0  0  0  0  0  0
   40.7013   31.0652   37.6985 H   0  0  0  0  0  0  0  0  0  0  0  0
   41.6683   24.8715   35.9512 H   0  0  0  0  0  0  0  0  0  0  0  0
   45.3926   27.7878   35.3576 H   0  0  0  0  0  0  0  0  0  0  0  0
   44.7557   29.3524   35.9311 H   0  0  0  0  0  0  0  0  0  0  0  0
  1  2  2  0
  3  2  1  0
  3  8  1  0
  4  3  2  0
  5  6  2  0
  5  4  1  0
  6  1  1  0
  7  5  1  0
  8  9  1  0
  9 10  1  0
 11 10  1  0
 12 11  1  0
 13 12  1  0
 13  8  1  0
 14 13  1  0
 15 14  2  0
 16 15  1  0
 17 16  2  0
 17 18  1  0
 18 19  2  0
 19 14  1  0
 20 21  1  0
 20 18  1  0
 22 21  2  0
 23 28  2  0
 23 22  1  0
 24 23  1  0
 25 24  2  0
 25 26  1  0
 26 27  2  0
 27 28  1  0
 28 20  1  0
 29 24  1  0
  1 30  1  0
  2 31  1  0
  7 32  1  0
  7 33  1  0
  9 34  1  0
  9 35  1  0
 10 36  1  0
 10 37  1  0
 11 38  1  0
 12 39  1  0
 12 40  1  0
 13 41  1  6
 15 42  1  0
 16 43  1  0
 21 44  1  0
 26 45  1  0
 29 46  1  0
 29 47  1  0
M  ISO  8  30  14  31  14  34  13  35  13  36  13  37  13  38   5  39  13
M  ISO  6  40  13  41  13  42  14  43  14  44  14  45  14
M  END
>  <minimizedAffinity>  (1) 
-6.87192154

>  <minimizedRMSD>  (1) 
1.91680562

$$$$
