
     RDKit          3D

 20 21  0  0  0  0  0  0  0  0999 V2000
   37.2180   28.5410   42.8350 C   0  0  0  0  0  0  0  0  0  0  0  0
   38.1550   29.5770   42.7360 C   0  0  0  0  0  0  0  0  0  0  0  0
   38.2680   30.2500   41.5250 C   0  0  0  0  0  0  0  0  0  0  0  0
   37.4540   29.8610   40.4970 N   0  0  0  0  0  0  0  0  0  0  0  0
   36.5710   28.8660   40.6310 C   0  0  0  0  0  0  0  0  0  0  0  0
   36.4310   28.1860   41.7940 N   0  0  0  0  0  0  0  0  0  0  0  0
   35.7090   28.4820   39.4740 C   0  0  0  0  0  0  0  0  0  0  0  0
   34.4980   29.1730   39.2100 C   0  0  0  0  0  0  0  0  0  0  0  0
   33.7360   28.7920   38.1430 C   0  0  0  0  0  0  0  0  0  0  0  0
   34.2290   27.6710   37.3240 C   0  0  0  0  0  0  0  0  0  0  0  0
   35.8270   27.2110   38.1720 S   0  0  0  0  0  0  0  0  0  0  0  0
   37.0600   27.7870   44.1160 C   0  0  0  0  0  0  0  0  0  0  0  0
   36.0860   26.8340   44.0190 F   0  0  0  0  0  0  0  0  0  0  0  0
   36.7510   28.6740   45.1460 F   0  0  0  0  0  0  0  0  0  0  0  0
   38.2720   27.1650   44.3930 F   0  0  0  0  0  0  0  0  0  0  0  0
   38.7855   29.8512   43.5946 H   0  0  0  0  0  0  0  0  0  0  0  0
   38.9898   31.0702   41.3974 H   0  0  0  0  0  0  0  0  0  0  0  0
   34.1777   30.0038   39.8558 H   0  0  0  0  0  0  0  0  0  0  0  0
   32.7911   29.3020   37.9043 H   0  0  0  0  0  0  0  0  0  0  0  0
   33.7693   27.2175   36.4335 H   0  0  0  0  0  0  0  0  0  0  0  0
  1 12  1  0
  2  1  2  0
  3  2  1  0
  4  5  1  0
  4  3  2  0
  5  6  2  0
  6  1  1  0
  7  5  1  0
  8  7  2  0
  9  8  1  0
 10  9  2  0
 10 11  1  0
 11  7  1  0
 12 15  1  0
 12 14  1  0
 13 12  1  0
  2 16  1  0
  3 17  1  0
  8 18  1  0
  9 19  1  0
 10 20  1  0
M  ISO  5  16  14  17  14  18  14  19  14  20  14
M  END
>  <minimizedAffinity>  (1) 
-4.75382996

>  <minimizedRMSD>  (1) 
1.40167201

$$$$
