
     RDKit          3D

 16 16  0  0  0  0  0  0  0  0999 V2000
   37.4200   28.8120   42.9800 C   0  0  0  0  0  0  0  0  0  0  0  0
   38.5870   29.6030   42.9540 C   0  0  0  0  0  0  0  0  0  0  0  0
   38.7520   30.4550   41.8650 C   0  0  0  0  0  0  0  0  0  0  0  0
   37.7940   30.4770   40.9040 N   0  0  0  0  0  0  0  0  0  0  0  0
   36.6920   29.7030   40.9690 C   0  0  0  0  0  0  0  0  0  0  0  0
   36.5030   28.8690   42.0080 N   0  0  0  0  0  0  0  0  0  0  0  0
   37.1820   27.8750   44.1230 C   0  0  0  0  0  0  0  0  0  0  0  0
   36.7370   28.5240   45.2330 F   0  0  0  0  0  0  0  0  0  0  0  0
   38.3450   27.1550   44.3840 F   0  0  0  0  0  0  0  0  0  0  0  0
   36.1990   26.9620   43.7320 F   0  0  0  0  0  0  0  0  0  0  0  0
   35.6510   29.7120   39.9460 C   0  0  0  0  0  0  0  0  0  0  0  0
   35.8570   29.9990   38.7440 O   0  0  0  0  0  0  0  0  0  0  0  0
   34.3200   29.4070   40.1780 O   0  0  0  0  0  0  0  0  0  0  0  0
   39.3346   29.5494   43.7591 H   0  0  0  0  0  0  0  0  0  0  0  0
   39.6413   31.0975   41.7853 H   0  0  0  0  0  0  0  0  0  0  0  0
   33.6688   29.4342   39.4328 H   0  0  0  0  0  0  0  0  0  0  0  0
  1  7  1  0
  2  1  2  0
  3  2  1  0
  4  5  1  0
  4  3  2  0
  5  6  2  0
  6  1  1  0
  7  9  1  0
  7  8  1  0
 10  7  1  0
 11 13  1  0
 11  5  1  0
 12 11  2  0
  2 14  1  0
  3 15  1  0
 13 16  1  0
M  ISO  3  14  14  15  14  16   3
M  END
>  <minimizedAffinity>  (1) 
-4.70971823

>  <minimizedRMSD>  (1) 
1.13205063

$$$$
