
     RDKit          3D

 20 21  0  0  0  0  0  0  0  0999 V2000
   36.8870   28.3750   42.4580 C   0  0  0  0  0  0  0  0  0  0  0  0
   37.7890   29.4480   42.4980 C   0  0  0  0  0  0  0  0  0  0  0  0
   37.7230   30.3960   41.4850 C   0  0  0  0  0  0  0  0  0  0  0  0
   36.7790   30.2220   40.5080 N   0  0  0  0  0  0  0  0  0  0  0  0
   35.9330   29.1840   40.5030 C   0  0  0  0  0  0  0  0  0  0  0  0
   35.9640   28.2370   41.4730 N   0  0  0  0  0  0  0  0  0  0  0  0
   34.9650   29.0930   39.4150 C   0  0  0  0  0  0  0  0  0  0  0  0
   35.2200   28.9060   38.0760 C   0  0  0  0  0  0  0  0  0  0  0  0
   34.0590   28.8700   37.3290 C   0  0  0  0  0  0  0  0  0  0  0  0
   33.1040   29.0400   38.2640 N   0  0  0  0  0  0  0  0  0  0  0  0
   33.6070   29.1740   39.4990 N   0  0  0  0  0  0  0  0  0  0  0  0
   36.9230   27.3370   43.5230 C   0  0  0  0  0  0  0  0  0  0  0  0
   35.9550   27.5410   44.4680 F   0  0  0  0  0  0  0  0  0  0  0  0
   38.1920   27.3000   44.1070 F   0  0  0  0  0  0  0  0  0  0  0  0
   36.7020   26.0910   42.9250 F   0  0  0  0  0  0  0  0  0  0  0  0
   38.5276   29.5364   43.3084 H   0  0  0  0  0  0  0  0  0  0  0  0
   38.4062   31.2579   41.4680 H   0  0  0  0  0  0  0  0  0  0  0  0
   36.2288   28.7980   37.6509 H   0  0  0  0  0  0  0  0  0  0  0  0
   33.9431   28.7362   36.2433 H   0  0  0  0  0  0  0  0  0  0  0  0
   32.0962   29.0644   38.0525 H   0  0  0  0  0  0  0  0  0  0  0  0
  1  2  2  0
  1 12  1  0
  3  2  1  0
  4  3  2  0
  5  4  1  0
  5  6  2  0
  6  1  1  0
  7 11  2  0
  7  5  1  0
  8  7  1  0
  9  8  2  0
  9 10  1  0
 10 11  1  0
 12 14  1  0
 12 13  1  0
 15 12  1  0
  2 16  1  0
  3 17  1  0
  8 18  1  0
  9 19  1  0
 10 20  1  0
M  ISO  5  16  14  17  14  18  14  19  14  20   9
M  END
>  <minimizedAffinity>  (1) 
-4.68912458

>  <minimizedRMSD>  (1) 
0.459152728

$$$$
