
     RDKit          3D

 16 16  0  0  0  0  0  0  0  0999 V2000
   36.8310   28.3450   42.4350 C   0  0  0  0  0  0  0  0  0  0  0  0
   37.6780   29.4560   42.4740 C   0  0  0  0  0  0  0  0  0  0  0  0
   37.6000   30.4030   41.4520 C   0  0  0  0  0  0  0  0  0  0  0  0
   36.6910   30.1780   40.4680 N   0  0  0  0  0  0  0  0  0  0  0  0
   35.8810   29.0970   40.4500 C   0  0  0  0  0  0  0  0  0  0  0  0
   35.9520   28.1780   41.4390 N   0  0  0  0  0  0  0  0  0  0  0  0
   36.8780   27.3150   43.5010 C   0  0  0  0  0  0  0  0  0  0  0  0
   35.8960   27.5050   44.4410 F   0  0  0  0  0  0  0  0  0  0  0  0
   38.1380   27.3300   44.1120 F   0  0  0  0  0  0  0  0  0  0  0  0
   36.7060   26.0680   42.9140 F   0  0  0  0  0  0  0  0  0  0  0  0
   34.9410   29.0060   39.2980 C   0  0  0  0  0  0  0  0  0  0  0  0
   35.3410   29.8950   38.2960 F   0  0  0  0  0  0  0  0  0  0  0  0
   35.0750   27.7500   38.7510 F   0  0  0  0  0  0  0  0  0  0  0  0
   33.6380   29.2310   39.6810 F   0  0  0  0  0  0  0  0  0  0  0  0
   38.3956   29.5821   43.2981 H   0  0  0  0  0  0  0  0  0  0  0  0
   38.2465   31.2929   41.4436 H   0  0  0  0  0  0  0  0  0  0  0  0
  1  2  2  0
  1  7  1  0
  3  2  1  0
  4  3  2  0
  5  4  1  0
  5  6  2  0
  6  1  1  0
  7  9  1  0
  7  8  1  0
 10  7  1  0
 11 14  1  0
 11  5  1  0
 12 11  1  0
 13 11  1  0
  2 15  1  0
  3 16  1  0
M  ISO  2  15  14  16  14
M  END
>  <minimizedAffinity>  (1) 
-4.66736364

>  <minimizedRMSD>  (1) 
0.474013388

$$$$
