
     RDKit          3D

 15 15  0  0  0  0  0  0  0  0999 V2000
   37.4360   28.8340   42.9570 C   0  0  0  0  0  0  0  0  0  0  0  0
   38.6110   29.6080   42.9440 C   0  0  0  0  0  0  0  0  0  0  0  0
   38.7950   30.5000   41.8850 C   0  0  0  0  0  0  0  0  0  0  0  0
   37.8260   30.5630   40.9340 N   0  0  0  0  0  0  0  0  0  0  0  0
   36.7040   29.8030   40.9730 C   0  0  0  0  0  0  0  0  0  0  0  0
   36.5160   28.9390   41.9890 N   0  0  0  0  0  0  0  0  0  0  0  0
   37.2170   27.8760   44.0730 C   0  0  0  0  0  0  0  0  0  0  0  0
   36.7400   28.4990   45.1970 F   0  0  0  0  0  0  0  0  0  0  0  0
   38.3710   27.1600   44.3440 F   0  0  0  0  0  0  0  0  0  0  0  0
   36.2370   26.9650   43.6540 F   0  0  0  0  0  0  0  0  0  0  0  0
   35.6980   29.9180   39.9180 C   0  0  0  0  0  0  0  0  0  0  0  0
   34.6180   29.2430   40.0050 O   0  0  0  0  0  0  0  0  0  0  0  0
   39.3612   29.5136   43.7429 H   0  0  0  0  0  0  0  0  0  0  0  0
   39.6942   31.1305   41.8227 H   0  0  0  0  0  0  0  0  0  0  0  0
   35.8704   30.5804   39.0569 H   0  0  0  0  0  0  0  0  0  0  0  0
  1  7  1  0
  2  1  2  0
  3  2  1  0
  4  5  1  0
  4  3  2  0
  5  6  2  0
  6  1  1  0
  7  9  1  0
  7  8  1  0
 10  7  1  0
 11 12  2  0
 11  5  1  0
  2 13  1  0
  3 14  1  0
 11 15  1  0
M  ISO  3  13  14  14  14  15   6
M  END
>  <minimizedAffinity>  (1) 
-4.24342585

>  <minimizedRMSD>  (1) 
1.11586833

$$$$
