
     RDKit          3D

 16 16  0  0  0  0  0  0  0  0999 V2000
   36.8720   28.3840   42.4910 C   0  0  0  0  0  0  0  0  0  0  0  0
   37.8120   29.4170   42.4670 C   0  0  0  0  0  0  0  0  0  0  0  0
   37.7080   30.3830   41.4760 C   0  0  0  0  0  0  0  0  0  0  0  0
   36.6940   30.2680   40.5790 N   0  0  0  0  0  0  0  0  0  0  0  0
   35.7890   29.2560   40.6170 C   0  0  0  0  0  0  0  0  0  0  0  0
   35.8930   28.3210   41.5810 N   0  0  0  0  0  0  0  0  0  0  0  0
   36.9420   27.3280   43.5280 C   0  0  0  0  0  0  0  0  0  0  0  0
   36.0030   27.4890   44.4980 F   0  0  0  0  0  0  0  0  0  0  0  0
   38.2340   27.2960   44.0740 F   0  0  0  0  0  0  0  0  0  0  0  0
   36.7040   26.0950   42.9040 F   0  0  0  0  0  0  0  0  0  0  0  0
   34.6920   29.1830   39.6010 C   0  0  0  0  0  0  0  0  0  0  0  0
   38.6160   29.4637   43.2162 H   0  0  0  0  0  0  0  0  0  0  0  0
   38.4242   31.2159   41.4185 H   0  0  0  0  0  0  0  0  0  0  0  0
   33.7210   29.1184   40.1138 H   0  0  0  0  0  0  0  0  0  0  0  0
   34.7148   30.0847   38.9713 H   0  0  0  0  0  0  0  0  0  0  0  0
   34.8341   28.2923   38.9713 H   0  0  0  0  0  0  0  0  0  0  0  0
  1  7  1  0
  2  1  2  0
  3  2  1  0
  4  5  1  0
  4  3  2  0
  5  6  2  0
  6  1  1  0
  7  9  1  0
  7  8  1  0
 10  7  1  0
 11  5  1  0
  2 12  1  0
  3 13  1  0
 11 14  1  0
 11 15  1  0
 11 16  1  0
M  ISO  5  12  14  13  14  14   8  15   8  16   8
M  END
>  <minimizedAffinity>  (1) 
-4.13623047

>  <minimizedRMSD>  (1) 
0.135822192

$$$$
