
     RDKit          3D

 14 14  0  0  0  0  0  0  0  0999 V2000
   36.8380   28.4060   42.4240 C   0  0  0  0  0  0  0  0  0  0  0  0
   37.8040   29.4440   42.4160 C   0  0  0  0  0  0  0  0  0  0  0  0
   37.6210   30.4590   41.4580 C   0  0  0  0  0  0  0  0  0  0  0  0
   36.5500   30.3810   40.6140 N   0  0  0  0  0  0  0  0  0  0  0  0
   35.6710   29.3740   40.6690 C   0  0  0  0  0  0  0  0  0  0  0  0
   35.7850   28.3640   41.5680 N   0  0  0  0  0  0  0  0  0  0  0  0
   36.9780   27.3090   43.4130 C   0  0  0  0  0  0  0  0  0  0  0  0
   36.0270   27.3720   44.3840 F   0  0  0  0  0  0  0  0  0  0  0  0
   38.2510   27.3270   43.9800 F   0  0  0  0  0  0  0  0  0  0  0  0
   36.8410   26.0940   42.7250 F   0  0  0  0  0  0  0  0  0  0  0  0
   34.5820   29.2980   39.8090 O   0  0  0  0  0  0  0  0  0  0  0  0
   38.6496   29.4554   43.1195 H   0  0  0  0  0  0  0  0  0  0  0  0
   38.3275   31.2994   41.3904 H   0  0  0  0  0  0  0  0  0  0  0  0
   33.9501   28.5389   39.8764 H   0  0  0  0  0  0  0  0  0  0  0  0
  1  7  1  0
  2  1  2  0
  3  2  1  0
  4  5  1  0
  4  3  2  0
  5  6  2  0
  6  1  1  0
  7  9  1  0
  7  8  1  0
 10  7  1  0
 11  5  1  0
  2 12  1  0
  3 13  1  0
 11 14  1  0
M  ISO  3  12  14  13  14  14   3
M  END
>  <minimizedAffinity>  (1) 
-4.00020981

>  <minimizedRMSD>  (1) 
0.158790588

$$$$
