
     RDKit          3D

 15 15  0  0  0  0  0  0  0  0999 V2000
   36.8110   28.3900   42.4080 C   0  0  0  0  0  0  0  0  0  0  0  0
   37.7310   29.4470   42.4050 C   0  0  0  0  0  0  0  0  0  0  0  0
   37.6090   30.4300   41.4320 C   0  0  0  0  0  0  0  0  0  0  0  0
   36.5900   30.3100   40.5250 N   0  0  0  0  0  0  0  0  0  0  0  0
   35.7250   29.2900   40.5500 C   0  0  0  0  0  0  0  0  0  0  0  0
   35.8360   28.3310   41.4910 N   0  0  0  0  0  0  0  0  0  0  0  0
   34.6610   29.1600   39.6080 N   0  0  0  0  0  0  0  0  0  0  0  0
   36.9060   27.3150   43.4350 C   0  0  0  0  0  0  0  0  0  0  0  0
   35.8920   27.4150   44.3600 F   0  0  0  0  0  0  0  0  0  0  0  0
   38.1490   27.3610   44.0470 F   0  0  0  0  0  0  0  0  0  0  0  0
   36.7670   26.0990   42.7890 F   0  0  0  0  0  0  0  0  0  0  0  0
   38.5323   29.4969   43.1570 H   0  0  0  0  0  0  0  0  0  0  0  0
   38.3084   31.2780   41.3910 H   0  0  0  0  0  0  0  0  0  0  0  0
   34.0180   28.3574   39.6649 H   0  0  0  0  0  0  0  0  0  0  0  0
   34.5361   29.8688   38.8712 H   0  0  0  0  0  0  0  0  0  0  0  0
  1  8  1  0
  2  1  2  0
  3  2  1  0
  4  5  1  0
  4  3  2  0
  5  6  2  0
  6  1  1  0
  7  5  1  0
  8 10  1  0
  8  9  1  0
 11  8  1  0
  2 12  1  0
  3 13  1  0
  7 14  1  0
  7 15  1  0
M  ISO  2  12  14  13  14
M  END
>  <minimizedAffinity>  (1) 
-3.99763441

>  <minimizedRMSD>  (1) 
0.106247202

$$$$
