
     RDKit          3D

 14 14  0  0  0  0  0  0  0  0999 V2000
   36.9580   28.3820   42.4860 C   0  0  0  0  0  0  0  0  0  0  0  0
   37.8880   29.4300   42.5530 C   0  0  0  0  0  0  0  0  0  0  0  0
   37.8580   30.3880   41.5480 C   0  0  0  0  0  0  0  0  0  0  0  0
   36.9400   30.2590   40.5630 N   0  0  0  0  0  0  0  0  0  0  0  0
   36.0540   29.2380   40.5220 C   0  0  0  0  0  0  0  0  0  0  0  0
   36.0670   28.2950   41.4940 N   0  0  0  0  0  0  0  0  0  0  0  0
   36.9560   27.3320   43.5470 C   0  0  0  0  0  0  0  0  0  0  0  0
   35.9650   27.5530   44.4730 F   0  0  0  0  0  0  0  0  0  0  0  0
   38.2030   27.2740   44.1600 F   0  0  0  0  0  0  0  0  0  0  0  0
   36.7090   26.1060   42.9180 F   0  0  0  0  0  0  0  0  0  0  0  0
   34.8370   29.0710   39.2150 S   0  0  0  0  0  0  0  0  0  0  0  0
   38.6170   29.4910   43.3745 H   0  0  0  0  0  0  0  0  0  0  0  0
   38.5639   31.2316   41.5529 H   0  0  0  0  0  0  0  0  0  0  0  0
   33.5947   28.9005   39.7668 H   0  0  0  0  0  0  0  0  0  0  0  0
  1  2  2  0
  1  7  1  0
  3  2  1  0
  4  3  2  0
  5  4  1  0
  5  6  2  0
  6  1  1  0
  7  9  1  0
  7  8  1  0
 10  7  1  0
 11  5  1  0
  2 12  1  0
  3 13  1  0
 11 14  1  0
M  ISO  3  12  14  13  14  14  11
M  END
>  <minimizedAffinity>  (1) 
-3.90433931

>  <minimizedRMSD>  (1) 
0.20656547

$$$$
