
     RDKit          3D

 20 21  0  0  0  0  0  0  0  0999 V2000
   37.3600   28.7040   42.8670 C   0  0  0  0  0  0  0  0  0  0  0  0
   38.4240   29.6380   42.8590 C   0  0  0  0  0  0  0  0  0  0  0  0
   38.5820   30.4360   41.7230 C   0  0  0  0  0  0  0  0  0  0  0  0
   37.7050   30.2600   40.7020 N   0  0  0  0  0  0  0  0  0  0  0  0
   36.6980   29.3570   40.7410 C   0  0  0  0  0  0  0  0  0  0  0  0
   36.5280   28.5790   41.8270 N   0  0  0  0  0  0  0  0  0  0  0  0
   35.8340   29.2520   39.6160 N   0  0  0  0  0  0  0  0  0  0  0  0
   34.5310   29.0960   39.7760 N   0  0  0  0  0  0  0  0  0  0  0  0
   33.8850   29.0180   38.6130 C   0  0  0  0  0  0  0  0  0  0  0  0
   34.8440   29.1320   37.6360 C   0  0  0  0  0  0  0  0  0  0  0  0
   36.0470   29.2770   38.2900 C   0  0  0  0  0  0  0  0  0  0  0  0
   37.1620   27.8430   44.0580 C   0  0  0  0  0  0  0  0  0  0  0  0
   36.7420   28.5730   45.1490 F   0  0  0  0  0  0  0  0  0  0  0  0
   38.3400   27.1530   44.3670 F   0  0  0  0  0  0  0  0  0  0  0  0
   36.1820   26.9140   43.7630 F   0  0  0  0  0  0  0  0  0  0  0  0
   39.1038   29.7323   43.7187 H   0  0  0  0  0  0  0  0  0  0  0  0
   39.3889   31.1808   41.6583 H   0  0  0  0  0  0  0  0  0  0  0  0
   32.8027   28.8885   38.4652 H   0  0  0  0  0  0  0  0  0  0  0  0
   34.6829   29.1115   36.5480 H   0  0  0  0  0  0  0  0  0  0  0  0
   37.0267   29.3946   37.8039 H   0  0  0  0  0  0  0  0  0  0  0  0
  1 12  1  0
  2  1  2  0
  3  2  1  0
  4  5  1  0
  4  3  2  0
  5  6  2  0
  6  1  1  0
  7  8  1  0
  7  5  1  0
  9  8  2  0
 10 11  2  0
 10  9  1  0
 11  7  1  0
 12 14  1  0
 12 13  1  0
 15 12  1  0
  2 16  1  0
  3 17  1  0
  9 18  1  0
 10 19  1  0
 11 20  1  0
M  ISO  5  16  14  17  14  18  14  19  14  20  14
M  END
>  <minimizedAffinity>  (1) 
-5.0793829

>  <minimizedRMSD>  (1) 
1.04779768

$$$$
