
     RDKit          3D

 34 37  0  0  0  0  0  0  0  0999 V2000
   37.6710   28.7100   43.0020 C   0  0  0  0  0  0  0  0  0  0  0  0
   38.7600   29.5780   43.2570 C   0  0  0  0  0  0  0  0  0  0  0  0
   39.1840   30.4230   42.2260 C   0  0  0  0  0  0  0  0  0  0  0  0
   38.5140   30.3440   41.0500 N   0  0  0  0  0  0  0  0  0  0  0  0
   37.4810   29.5120   40.8260 C   0  0  0  0  0  0  0  0  0  0  0  0
   37.0610   28.6880   41.8200 N   0  0  0  0  0  0  0  0  0  0  0  0
   36.8510   29.5110   39.5620 N   0  0  0  0  0  0  0  0  0  0  0  0
   35.5390   29.4090   39.4500 N   0  0  0  0  0  0  0  0  0  0  0  0
   35.1230   29.4250   38.1850 C   0  0  0  0  0  0  0  0  0  0  0  0
   36.2530   29.5470   37.4310 C   0  0  0  0  0  0  0  0  0  0  0  0
   37.3040   29.5980   38.3100 C   0  0  0  0  0  0  0  0  0  0  0  0
   38.6880   29.7220   38.0040 N   0  0  0  0  0  0  0  0  0  0  0  0
   39.5330   28.8140   37.4800 C   0  0  0  0  0  0  0  0  0  0  0  0
   40.7810   29.3420   37.3470 N   0  0  0  0  0  0  0  0  0  0  0  0
   40.7210   30.6060   37.7970 C   0  0  0  0  0  0  0  0  0  0  0  0
   41.7420   31.5450   37.8640 C   0  0  0  0  0  0  0  0  0  0  0  0
   42.9210   31.3190   37.4890 O   0  0  0  0  0  0  0  0  0  0  0  0
   41.3590   32.7480   38.3740 N   0  0  0  0  0  0  0  0  0  0  0  0
   40.1150   33.0210   38.7810 C   0  0  0  0  0  0  0  0  0  0  0  0
   39.8790   34.3280   39.2910 N   0  0  0  0  0  0  0  0  0  0  0  0
   39.1400   32.0730   38.7010 N   0  0  0  0  0  0  0  0  0  0  0  0
   39.4320   30.8470   38.2050 C   0  0  0  0  0  0  0  0  0  0  0  0
   37.2150   27.8120   44.0870 C   0  0  0  0  0  0  0  0  0  0  0  0
   36.6700   28.5220   45.1480 F   0  0  0  0  0  0  0  0  0  0  0  0
   38.2480   26.9940   44.5280 F   0  0  0  0  0  0  0  0  0  0  0  0
   36.2060   27.0090   43.5710 F   0  0  0  0  0  0  0  0  0  0  0  0
   39.2583   29.5877   44.2376 H   0  0  0  0  0  0  0  0  0  0  0  0
   40.0235   31.1204   42.3633 H   0  0  0  0  0  0  0  0  0  0  0  0
   34.0863   29.3546   37.8242 H   0  0  0  0  0  0  0  0  0  0  0  0
   36.3099   29.5950   36.3335 H   0  0  0  0  0  0  0  0  0  0  0  0
   39.2538   27.7880   37.1984 H   0  0  0  0  0  0  0  0  0  0  0  0
   42.0686   33.4906   38.4507 H   0  0  0  0  0  0  0  0  0  0  0  0
   38.9385   34.5911   39.6183 H   0  0  0  0  0  0  0  0  0  0  0  0
   40.6487   35.0112   39.3330 H   0  0  0  0  0  0  0  0  0  0  0  0
  1  2  2  0
  1 23  1  0
  3  2  1  0
  4  3  2  0
  5  4  1  0
  5  6  2  0
  6  1  1  0
  7  5  1  0
  8  7  1  0
  9  8  2  0
 10  9  1  0
 10 11  2  0
 11  7  1  0
 12 22  1  0
 12 11  1  0
 13 12  1  0
 14 13  2  0
 14 15  1  0
 15 16  1  0
 15 22  2  0
 16 18  1  0
 17 16  2  0
 18 19  1  0
 19 20  1  0
 21 19  2  0
 22 21  1  0
 23 25  1  0
 23 24  1  0
 26 23  1  0
  2 27  1  0
  3 28  1  0
  9 29  1  0
 10 30  1  0
 13 31  1  0
 18 32  1  0
 20 33  1  0
 20 34  1  0
M  ISO  6  27  14  28  14  29  14  30  14  31  14  32   9
M  END
>  <minimizedAffinity>  (1) 
-6.44826269

>  <minimizedRMSD>  (1) 
1.213166

$$$$
