
     RDKit          3D

 36 39  0  0  0  0  0  0  0  0999 V2000
   37.6970   28.6700   42.6680 C   0  0  0  0  0  0  0  0  0  0  0  0
   38.6010   29.7180   42.9380 C   0  0  0  0  0  0  0  0  0  0  0  0
   38.7910   30.6770   41.9440 C   0  0  0  0  0  0  0  0  0  0  0  0
   38.0930   30.5410   40.7810 N   0  0  0  0  0  0  0  0  0  0  0  0
   37.2260   29.5120   40.5610 C   0  0  0  0  0  0  0  0  0  0  0  0
   37.0340   28.5850   41.5050 N   0  0  0  0  0  0  0  0  0  0  0  0
   36.5440   29.4620   39.3130 N   0  0  0  0  0  0  0  0  0  0  0  0
   35.2690   29.1490   39.2680 N   0  0  0  0  0  0  0  0  0  0  0  0
   34.8150   29.1620   38.0030 C   0  0  0  0  0  0  0  0  0  0  0  0
   35.8870   29.5080   37.2000 C   0  0  0  0  0  0  0  0  0  0  0  0
   36.9540   29.6900   38.0440 C   0  0  0  0  0  0  0  0  0  0  0  0
   38.3500   30.0700   37.8610 C   0  0  0  0  0  0  0  0  0  0  0  0
   38.6930   31.4260   37.9250 C   0  0  0  0  0  0  0  0  0  0  0  0
   39.9480   31.9490   37.7730 C   0  0  0  0  0  0  0  0  0  0  0  0
   40.9830   31.0690   37.5340 C   0  0  0  0  0  0  0  0  0  0  0  0
   40.7100   29.7340   37.4610 C   0  0  0  0  0  0  0  0  0  0  0  0
   41.6980   28.7860   37.2170 C   0  0  0  0  0  0  0  0  0  0  0  0
   41.4280   27.4220   37.1350 C   0  0  0  0  0  0  0  0  0  0  0  0
   40.1330   26.9630   37.2970 C   0  0  0  0  0  0  0  0  0  0  0  0
   39.1560   27.9010   37.5390 C   0  0  0  0  0  0  0  0  0  0  0  0
   39.4300   29.2490   37.6200 C   0  0  0  0  0  0  0  0  0  0  0  0
   37.4600   27.6250   43.7020 C   0  0  0  0  0  0  0  0  0  0  0  0
   36.7740   28.1530   44.7860 F   0  0  0  0  0  0  0  0  0  0  0  0
   38.6600   27.0720   44.1300 F   0  0  0  0  0  0  0  0  0  0  0  0
   36.6710   26.6440   43.1580 F   0  0  0  0  0  0  0  0  0  0  0  0
   39.1363   29.7767   43.8971 H   0  0  0  0  0  0  0  0  0  0  0  0
   39.4836   31.5184   42.0938 H   0  0  0  0  0  0  0  0  0  0  0  0
   33.7900   28.9405   37.6707 H   0  0  0  0  0  0  0  0  0  0  0  0
   35.8848   29.6156   36.1053 H   0  0  0  0  0  0  0  0  0  0  0  0
   37.8764   32.1379   38.1155 H   0  0  0  0  0  0  0  0  0  0  0  0
   40.1254   33.0326   37.8390 H   0  0  0  0  0  0  0  0  0  0  0  0
   42.0114   31.4373   37.4044 H   0  0  0  0  0  0  0  0  0  0  0  0
   42.7351   29.1274   37.0833 H   0  0  0  0  0  0  0  0  0  0  0  0
   42.2440   26.7102   36.9415 H   0  0  0  0  0  0  0  0  0  0  0  0
   39.8940   25.8911   37.2348 H   0  0  0  0  0  0  0  0  0  0  0  0
   38.1180   27.5624   37.6727 H   0  0  0  0  0  0  0  0  0  0  0  0
  1  2  2  0
  1 22  1  0
  3  2  1  0
  4  3  2  0
  5  4  1  0
  5  6  2  0
  6  1  1  0
  7  5  1  0
  8  7  1  0
  9  8  2  0
 10  9  1  0
 10 11  2  0
 11  7  1  0
 12 13  2  0
 12 11  1  0
 14 13  1  0
 15 14  2  0
 16 15  1  0
 16 21  2  0
 17 16  1  0
 18 17  2  0
 18 19  1  0
 19 20  2  0
 20 21  1  0
 21 12  1  0
 22 24  1  0
 22 23  1  0
 25 22  1  0
  2 26  1  0
  3 27  1  0
  9 28  1  0
 10 29  1  0
 13 30  1  0
 14 31  1  0
 15 32  1  0
 17 33  1  0
 18 34  1  0
 19 35  1  0
 20 36  1  0
M  ISO  8  26  14  27  14  28  14  29  14  30  14  31  14  32  14  33  14
M  ISO  3  34  14  35  14  36  14
M  END
>  <minimizedAffinity>  (1) 
-6.06735277

>  <minimizedRMSD>  (1) 
1.63892019

$$$$
