
     RDKit          3D

 50 54  0  0  1  0  0  0  0  0999 V2000
   40.2310   32.0570   40.9550 C   0  0  0  0  0  0  0  0  0  0  0  0
   39.7680   30.8110   41.4490 C   0  0  0  0  0  0  0  0  0  0  0  0
   38.4170   30.5740   41.4390 C   0  0  0  0  0  0  0  0  0  0  0  0
   37.5680   31.5450   40.9540 N   0  0  0  0  0  0  0  0  0  0  0  0
   38.0360   32.7300   40.4860 C   0  0  0  0  0  0  0  0  0  0  0  0
   39.3770   32.9830   40.4880 N   0  0  0  0  0  0  0  0  0  0  0  0
   37.1050   33.6900   39.9990 N   0  0  0  0  0  0  0  0  0  0  0  0
   37.8790   29.3600   41.9120 N   0  0  0  0  0  0  0  0  0  0  0  0
   38.1120   28.9600   43.2760 C   0  0  0  0  0  0  0  0  0  0  0  0
   37.0170   27.9650   43.6460 C   0  0  0  0  0  0  0  0  0  0  0  0
   36.9350   26.8370   42.7800 N   0  0  0  0  0  0  0  0  0  0  0  0
   37.3590   27.0720   41.4390 C   0  0  0  0  0  0  0  0  0  0  0  0
   37.0970   28.5090   41.0510 C   0  0  2  0  0  0  0  0  0  0  0  0
   37.2810   28.7570   39.6030 C   0  0  0  0  0  0  0  0  0  0  0  0
   36.2320   29.1560   38.7960 C   0  0  0  0  0  0  0  0  0  0  0  0
   36.3500   29.3920   37.4640 C   0  0  0  0  0  0  0  0  0  0  0  0
   37.5610   29.2170   36.9530 N   0  0  0  0  0  0  0  0  0  0  0  0
   38.6160   28.8340   37.6750 C   0  0  0  0  0  0  0  0  0  0  0  0
   38.4620   28.6080   38.9920 N   0  0  0  0  0  0  0  0  0  0  0  0
   40.0090   28.6020   37.2690 C   0  0  0  0  0  0  0  0  0  0  0  0
   40.5260   27.3440   36.9510 C   0  0  0  0  0  0  0  0  0  0  0  0
   41.8210   27.1140   36.5730 C   0  0  0  0  0  0  0  0  0  0  0  0
   42.7120   28.1540   36.4850 C   0  0  0  0  0  0  0  0  0  0  0  0
   42.2650   29.4190   36.7860 C   0  0  0  0  0  0  0  0  0  0  0  0
   43.1880   30.4360   36.6890 C   0  0  0  0  0  0  0  0  0  0  0  0
   42.8170   31.7310   36.9760 C   0  0  0  0  0  0  0  0  0  0  0  0
   41.4940   31.9430   37.3590 C   0  0  0  0  0  0  0  0  0  0  0  0
   40.6330   30.8860   37.4340 C   0  0  0  0  0  0  0  0  0  0  0  0
   40.9530   29.5860   37.1590 C   0  0  0  0  0  0  0  0  0  0  0  0
   41.3103   32.2694   40.9542 H   0  0  0  0  0  0  0  0  0  0  0  0
   40.4720   30.0562   41.8293 H   0  0  0  0  0  0  0  0  0  0  0  0
   36.0968   33.4794   40.0062 H   0  0  0  0  0  0  0  0  0  0  0  0
   37.4394   34.5954   39.6393 H   0  0  0  0  0  0  0  0  0  0  0  0
   39.0998   28.4845   43.3661 H   0  0  0  0  0  0  0  0  0  0  0  0
   38.0923   29.8309   43.9477 H   0  0  0  0  0  0  0  0  0  0  0  0
   37.2106   27.6029   44.6665 H   0  0  0  0  0  0  0  0  0  0  0  0
   36.0605   28.5010   43.5578 H   0  0  0  0  0  0  0  0  0  0  0  0
   37.5230   26.0887   43.1741 H   0  0  0  0  0  0  0  0  0  0  0  0
   38.4362   26.8645   41.3572 H   0  0  0  0  0  0  0  0  0  0  0  0
   36.7959   26.4105   40.7642 H   0  0  0  0  0  0  0  0  0  0  0  0
   36.0358   28.7525   41.2074 H   0  0  0  0  0  0  0  0  0  0  0  0
   35.2437   29.2902   39.2601 H   0  0  0  0  0  0  0  0  0  0  0  0
   35.4953   29.7083   36.8480 H   0  0  0  0  0  0  0  0  0  0  0  0
   39.8469   26.4805   37.0082 H   0  0  0  0  0  0  0  0  0  0  0  0
   42.1493   26.0906   36.3386 H   0  0  0  0  0  0  0  0  0  0  0  0
   43.7551   27.9804   36.1820 H   0  0  0  0  0  0  0  0  0  0  0  0
   44.2209   30.2144   36.3825 H   0  0  0  0  0  0  0  0  0  0  0  0
   43.5342   32.5621   36.9059 H   0  0  0  0  0  0  0  0  0  0  0  0
   41.1447   32.9579   37.5999 H   0  0  0  0  0  0  0  0  0  0  0  0
   39.5980   31.0978   37.7406 H   0  0  0  0  0  0  0  0  0  0  0  0
  1  2  2  0
  3  2  1  0
  3  8  1  0
  4  3  2  0
  5  6  2  0
  5  4  1  0
  6  1  1  0
  7  5  1  0
  8  9  1  0
  9 10  1  0
 11 10  1  0
 12 11  1  0
 13 12  1  0
 13  8  1  0
 14 13  1  0
 15 14  2  0
 16 15  1  0
 17 16  2  0
 17 18  1  0
 18 19  2  0
 19 14  1  0
 20 18  1  0
 21 20  2  0
 22 21  1  0
 23 22  2  0
 23 24  1  0
 24 29  2  0
 25 24  1  0
 25 26  2  0
 26 27  1  0
 27 28  2  0
 29 20  1  0
 29 28  1  0
  1 30  1  0
  2 31  1  0
  7 32  1  0
  7 33  1  0
  9 34  1  0
  9 35  1  0
 10 36  1  0
 10 37  1  0
 11 38  1  0
 12 39  1  0
 12 40  1  0
 13 41  1  1
 15 42  1  0
 16 43  1  0
 21 44  1  0
 22 45  1  0
 23 46  1  0
 25 47  1  0
 26 48  1  0
 27 49  1  0
 28 50  1  0
M  ISO  8  30  14  31  14  34  13  35  13  36  13  37  13  38   5  39  13
M  ISO  8  40  13  41  13  42  14  43  14  44  14  45  14  46  14  47  14
M  ISO  3  48  14  49  14  50  14
M  END
>  <minimizedAffinity>  (1) 
-6.68120384

>  <minimizedRMSD>  (1) 
1.40306199

$$$$
