
     RDKit          3D

 35 37  0  0  0  0  0  0  0  0999 V2000
   37.3290   28.7240   42.7860 C   0  0  0  0  0  0  0  0  0  0  0  0
   38.3400   29.7060   42.7810 C   0  0  0  0  0  0  0  0  0  0  0  0
   38.4260   30.5550   41.6680 C   0  0  0  0  0  0  0  0  0  0  0  0
   37.5280   30.3660   40.6780 N   0  0  0  0  0  0  0  0  0  0  0  0
   36.5740   29.4210   40.7080 C   0  0  0  0  0  0  0  0  0  0  0  0
   36.4750   28.5970   41.7680 N   0  0  0  0  0  0  0  0  0  0  0  0
   35.6700   29.2980   39.6090 N   0  0  0  0  0  0  0  0  0  0  0  0
   34.3750   29.1190   39.8170 N   0  0  0  0  0  0  0  0  0  0  0  0
   33.7210   29.0280   38.6440 C   0  0  0  0  0  0  0  0  0  0  0  0
   34.6620   29.1590   37.6400 C   0  0  0  0  0  0  0  0  0  0  0  0
   35.8830   29.3280   38.2710 C   0  0  0  0  0  0  0  0  0  0  0  0
   37.2110   29.5150   37.7340 N   0  0  0  0  0  0  0  0  0  0  0  0
   38.3870   28.6970   37.9420 C   0  0  0  0  0  0  0  0  0  0  0  0
   39.6040   29.5240   37.6770 C   0  0  0  0  0  0  0  0  0  0  0  0
   39.5180   30.9450   38.1180 C   0  0  0  0  0  0  0  0  0  0  0  0
   38.2670   31.6410   37.6470 C   0  0  0  0  0  0  0  0  0  0  0  0
   37.4670   30.6530   36.8520 C   0  0  0  0  0  0  0  0  0  0  0  0
   37.2160   27.8100   43.9510 C   0  0  0  0  0  0  0  0  0  0  0  0
   36.7630   28.4560   45.0690 F   0  0  0  0  0  0  0  0  0  0  0  0
   38.4490   27.1870   44.2160 F   0  0  0  0  0  0  0  0  0  0  0  0
   36.3030   26.8060   43.6290 F   0  0  0  0  0  0  0  0  0  0  0  0
   39.0399   29.8035   43.6240 H   0  0  0  0  0  0  0  0  0  0  0  0
   39.1925   31.3414   41.6045 H   0  0  0  0  0  0  0  0  0  0  0  0
   32.6397   28.8775   38.5095 H   0  0  0  0  0  0  0  0  0  0  0  0
   34.4777   29.1340   36.5558 H   0  0  0  0  0  0  0  0  0  0  0  0
   38.4058   28.3342   38.9803 H   0  0  0  0  0  0  0  0  0  0  0  0
   38.3666   27.8340   37.2602 H   0  0  0  0  0  0  0  0  0  0  0  0
   40.4522   29.0571   38.1991 H   0  0  0  0  0  0  0  0  0  0  0  0
   39.7201   29.5518   36.5835 H   0  0  0  0  0  0  0  0  0  0  0  0
   39.5391   30.9712   39.2175 H   0  0  0  0  0  0  0  0  0  0  0  0
   40.3729   31.4761   37.6741 H   0  0  0  0  0  0  0  0  0  0  0  0
   37.6823   31.9867   38.5122 H   0  0  0  0  0  0  0  0  0  0  0  0
   38.5218   32.5154   37.0302 H   0  0  0  0  0  0  0  0  0  0  0  0
   36.5171   31.1051   36.5306 H   0  0  0  0  0  0  0  0  0  0  0  0
   38.0098   30.3395   35.9480 H   0  0  0  0  0  0  0  0  0  0  0  0
  1 18  1  0
  2  1  2  0
  3  2  1  0
  4  5  1  0
  4  3  2  0
  5  6  2  0
  6  1  1  0
  7  8  1  0
  7  5  1  0
  9  8  2  0
 10 11  2  0
 10  9  1  0
 11  7  1  0
 12 13  1  0
 12 11  1  0
 14 13  1  0
 14 15  1  0
 16 15  1  0
 17 16  1  0
 17 12  1  0
 18 20  1  0
 18 19  1  0
 21 18  1  0
  2 22  1  0
  3 23  1  0
  9 24  1  0
 10 25  1  0
 13 26  1  0
 13 27  1  0
 14 28  1  0
 14 29  1  0
 15 30  1  0
 15 31  1  0
 16 32  1  0
 16 33  1  0
 17 34  1  0
 17 35  1  0
M  ISO  8  22  14  23  14  24  14  25  14  26  13  27  13  28  13  29  13
M  ISO  6  30  13  31  13  32  13  33  13  34  13  35  13
M  END
>  <minimizedAffinity>  (1) 
-5.86709595

>  <minimizedRMSD>  (1) 
0.74917841

$$$$
