
     RDKit          3D

 33 35  0  0  0  0  0  0  0  0999 V2000
   37.3420   28.7020   42.8440 C   0  0  0  0  0  0  0  0  0  0  0  0
   38.3780   29.6640   42.8380 C   0  0  0  0  0  0  0  0  0  0  0  0
   38.4880   30.4900   41.7260 C   0  0  0  0  0  0  0  0  0  0  0  0
   37.5930   30.3260   40.7100 N   0  0  0  0  0  0  0  0  0  0  0  0
   36.6180   29.4000   40.7520 C   0  0  0  0  0  0  0  0  0  0  0  0
   36.4920   28.5840   41.8210 N   0  0  0  0  0  0  0  0  0  0  0  0
   35.7280   29.2890   39.6450 N   0  0  0  0  0  0  0  0  0  0  0  0
   34.4150   29.1210   39.8330 N   0  0  0  0  0  0  0  0  0  0  0  0
   33.7740   29.0360   38.6700 C   0  0  0  0  0  0  0  0  0  0  0  0
   34.7240   29.1540   37.6700 C   0  0  0  0  0  0  0  0  0  0  0  0
   35.9130   29.3090   38.3200 C   0  0  0  0  0  0  0  0  0  0  0  0
   37.2620   29.4780   37.8250 N   0  0  0  0  0  0  0  0  0  0  0  0
   37.4560   30.5530   36.8670 C   0  0  0  0  0  0  0  0  0  0  0  0
   38.2850   31.5990   37.5890 C   0  0  0  0  0  0  0  0  0  0  0  0
   39.2930   31.0090   38.3420 O   0  0  0  0  0  0  0  0  0  0  0  0
   39.6320   29.7690   37.7780 C   0  0  0  0  0  0  0  0  0  0  0  0
   38.5100   28.7990   38.0890 C   0  0  0  0  0  0  0  0  0  0  0  0
   37.1950   27.8030   44.0170 C   0  0  0  0  0  0  0  0  0  0  0  0
   36.7520   28.4810   45.1290 F   0  0  0  0  0  0  0  0  0  0  0  0
   38.4080   27.1640   44.3030 F   0  0  0  0  0  0  0  0  0  0  0  0
   36.2470   26.8300   43.7050 F   0  0  0  0  0  0  0  0  0  0  0  0
   39.0736   29.7555   43.6852 H   0  0  0  0  0  0  0  0  0  0  0  0
   39.2757   31.2555   41.6668 H   0  0  0  0  0  0  0  0  0  0  0  0
   32.6918   28.8978   38.5295 H   0  0  0  0  0  0  0  0  0  0  0  0
   34.5558   29.1283   36.5832 H   0  0  0  0  0  0  0  0  0  0  0  0
   36.4870   30.9747   36.5618 H   0  0  0  0  0  0  0  0  0  0  0  0
   37.9549   30.1983   35.9530 H   0  0  0  0  0  0  0  0  0  0  0  0
   38.7388   32.2723   36.8468 H   0  0  0  0  0  0  0  0  0  0  0  0
   37.6251   32.1588   38.2680 H   0  0  0  0  0  0  0  0  0  0  0  0
   40.5740   29.4043   38.2136 H   0  0  0  0  0  0  0  0  0  0  0  0
   39.7681   29.8647   36.6907 H   0  0  0  0  0  0  0  0  0  0  0  0
   38.5569   28.4971   39.1457 H   0  0  0  0  0  0  0  0  0  0  0  0
   38.5973   27.8946   37.4690 H   0  0  0  0  0  0  0  0  0  0  0  0
  1 18  1  0
  2  1  2  0
  3  2  1  0
  4  5  1  0
  4  3  2  0
  5  6  2  0
  6  1  1  0
  7  8  1  0
  7  5  1  0
  9  8  2  0
 10 11  2  0
 10  9  1  0
 11  7  1  0
 12 17  1  0
 12 11  1  0
 13 14  1  0
 13 12  1  0
 14 15  1  0
 16 17  1  0
 16 15  1  0
 18 20  1  0
 18 19  1  0
 21 18  1  0
  2 22  1  0
  3 23  1  0
  9 24  1  0
 10 25  1  0
 13 26  1  0
 13 27  1  0
 14 28  1  0
 14 29  1  0
 16 30  1  0
 16 31  1  0
 17 32  1  0
 17 33  1  0
M  ISO  8  22  14  23  14  24  14  25  14  26  13  27  13  28  13  29  13
M  ISO  4  30  13  31  13  32  13  33  13
M  END
>  <minimizedAffinity>  (1) 
-5.84970093

>  <minimizedRMSD>  (1) 
0.661645174

$$$$
