
     RDKit          3D

 27 28  0  0  0  0  0  0  0  0999 V2000
   37.7330   28.5980   42.5960 C   0  0  0  0  0  0  0  0  0  0  0  0
   38.5300   29.7340   42.8900 C   0  0  0  0  0  0  0  0  0  0  0  0
   38.5650   30.7660   41.9570 C   0  0  0  0  0  0  0  0  0  0  0  0
   37.8370   30.6230   40.8290 N   0  0  0  0  0  0  0  0  0  0  0  0
   37.0840   29.5290   40.5710 C   0  0  0  0  0  0  0  0  0  0  0  0
   37.0340   28.5140   41.4600 N   0  0  0  0  0  0  0  0  0  0  0  0
   36.3440   29.4600   39.3560 N   0  0  0  0  0  0  0  0  0  0  0  0
   35.1170   29.0100   39.3310 N   0  0  0  0  0  0  0  0  0  0  0  0
   34.6030   29.0270   38.1020 C   0  0  0  0  0  0  0  0  0  0  0  0
   35.5930   29.5330   37.2760 C   0  0  0  0  0  0  0  0  0  0  0  0
   36.6650   29.7930   38.0830 C   0  0  0  0  0  0  0  0  0  0  0  0
   37.9300   30.3220   37.7110 N   0  0  0  0  0  0  0  0  0  0  0  0
   38.0970   31.7330   37.5560 C   0  0  0  0  0  0  0  0  0  0  0  0
   37.4580   32.5240   38.3420 N   0  0  0  0  0  0  0  0  0  0  0  0
   38.9780   32.2300   36.5270 N   0  0  0  0  0  0  0  0  0  0  0  0
   37.5170   33.5540   38.3050 H   0  0  0  0  0  0  0  0  0  0  0  0
   37.6650   27.4690   43.5640 C   0  0  0  0  0  0  0  0  0  0  0  0
   36.9820   27.8440   44.7110 F   0  0  0  0  0  0  0  0  0  0  0  0
   38.9420   27.0490   43.9080 F   0  0  0  0  0  0  0  0  0  0  0  0
   36.9730   26.4320   42.9830 F   0  0  0  0  0  0  0  0  0  0  0  0
   39.1029   29.7973   43.8269 H   0  0  0  0  0  0  0  0  0  0  0  0
   39.1668   31.6698   42.1330 H   0  0  0  0  0  0  0  0  0  0  0  0
   33.5948   28.7040   37.8032 H   0  0  0  0  0  0  0  0  0  0  0  0
   35.5293   29.6933   36.1896 H   0  0  0  0  0  0  0  0  0  0  0  0
   38.7268   29.6887   37.5530 H   0  0  0  0  0  0  0  0  0  0  0  0
   39.1068   33.2446   36.4052 H   0  0  0  0  0  0  0  0  0  0  0  0
   39.4781   31.5701   35.9143 H   0  0  0  0  0  0  0  0  0  0  0  0
  1  2  2  0
  1 17  1  0
  3  2  1  0
  4  3  2  0
  5  4  1  0
  5  6  2  0
  6  1  1  0
  7  5  1  0
  8  7  1  0
  9  8  2  0
 10 11  2  0
 10  9  1  0
 11  7  1  0
 12 11  1  0
 13 12  1  0
 13 14  2  0
 15 13  1  0
 16 14  1  0
 17 19  1  0
 17 18  1  0
 20 17  1  0
  2 21  1  0
  3 22  1  0
  9 23  1  0
 10 24  1  0
 12 25  1  0
 15 26  1  0
 15 27  1  0
M  ISO  4  21  14  22  14  23  14  24  14
M  END
>  <minimizedAffinity>  (1) 
-5.81121635

>  <minimizedRMSD>  (1) 
0.837423563

$$$$
