
     RDKit          3D

 27 29  0  0  0  0  0  0  0  0999 V2000
   37.3540   28.6750   43.0030 C   0  0  0  0  0  0  0  0  0  0  0  0
   38.4130   29.6110   43.0430 C   0  0  0  0  0  0  0  0  0  0  0  0
   38.6090   30.4290   41.9310 C   0  0  0  0  0  0  0  0  0  0  0  0
   37.7680   30.2730   40.8780 N   0  0  0  0  0  0  0  0  0  0  0  0
   36.7590   29.3610   40.8730 C   0  0  0  0  0  0  0  0  0  0  0  0
   36.5510   28.5650   41.9270 N   0  0  0  0  0  0  0  0  0  0  0  0
   35.9270   29.2750   39.7130 N   0  0  0  0  0  0  0  0  0  0  0  0
   34.6220   29.1130   39.8270 N   0  0  0  0  0  0  0  0  0  0  0  0
   34.0340   29.0570   38.6350 C   0  0  0  0  0  0  0  0  0  0  0  0
   35.0340   29.1910   37.6870 C   0  0  0  0  0  0  0  0  0  0  0  0
   36.2030   29.3250   38.3930 C   0  0  0  0  0  0  0  0  0  0  0  0
   37.5900   29.4990   38.0380 N   0  0  0  0  0  0  0  0  0  0  0  0
   38.5480   28.5450   37.9360 C   0  0  0  0  0  0  0  0  0  0  0  0
   39.6820   29.2410   37.5720 C   0  0  0  0  0  0  0  0  0  0  0  0
   39.4130   30.5540   37.4610 N   0  0  0  0  0  0  0  0  0  0  0  0
   38.1010   30.7200   37.7520 C   0  0  0  0  0  0  0  0  0  0  0  0
   37.1280   27.7970   44.1700 C   0  0  0  0  0  0  0  0  0  0  0  0
   36.6800   28.5130   45.2640 F   0  0  0  0  0  0  0  0  0  0  0  0
   38.2880   27.0860   44.4960 F   0  0  0  0  0  0  0  0  0  0  0  0
   36.1410   26.8780   43.8290 F   0  0  0  0  0  0  0  0  0  0  0  0
   39.0637   29.6916   43.9262 H   0  0  0  0  0  0  0  0  0  0  0  0
   39.4173   31.1748   41.9083 H   0  0  0  0  0  0  0  0  0  0  0  0
   32.9591   28.9288   38.4399 H   0  0  0  0  0  0  0  0  0  0  0  0
   34.9158   29.1902   36.5934 H   0  0  0  0  0  0  0  0  0  0  0  0
   38.4446   27.4630   38.1049 H   0  0  0  0  0  0  0  0  0  0  0  0
   40.6680   28.7859   37.3971 H   0  0  0  0  0  0  0  0  0  0  0  0
   37.5509   31.6725   37.7554 H   0  0  0  0  0  0  0  0  0  0  0  0
  1  2  2  0
  1 17  1  0
  3  2  1  0
  4  3  2  0
  5  4  1  0
  5  6  2  0
  6  1  1  0
  7  8  1  0
  7  5  1  0
  9  8  2  0
 10 11  2  0
 10  9  1  0
 11  7  1  0
 12 11  1  0
 13 12  1  0
 14 13  2  0
 15 14  1  0
 15 16  2  0
 16 12  1  0
 17 19  1  0
 17 18  1  0
 20 17  1  0
  2 21  1  0
  3 22  1  0
  9 23  1  0
 10 24  1  0
 13 25  1  0
 14 26  1  0
 16 27  1  0
M  ISO  7  21  14  22  14  23  14  24  14  25  14  26  14  27  14
M  END
>  <minimizedAffinity>  (1) 
-5.45069361

>  <minimizedRMSD>  (1) 
0.194995239

$$$$
