
     RDKit          3D

 27 29  0  0  0  0  0  0  0  0999 V2000
   37.3160   28.7280   42.7970 C   0  0  0  0  0  0  0  0  0  0  0  0
   38.3630   29.6760   42.7570 C   0  0  0  0  0  0  0  0  0  0  0  0
   38.4510   30.5030   41.6280 C   0  0  0  0  0  0  0  0  0  0  0  0
   37.5270   30.3380   40.6470 N   0  0  0  0  0  0  0  0  0  0  0  0
   36.5440   29.4240   40.7200 C   0  0  0  0  0  0  0  0  0  0  0  0
   36.4330   28.6110   41.7990 N   0  0  0  0  0  0  0  0  0  0  0  0
   35.6100   29.3130   39.6450 N   0  0  0  0  0  0  0  0  0  0  0  0
   34.3210   29.1430   39.8710 N   0  0  0  0  0  0  0  0  0  0  0  0
   33.6230   29.0640   38.7420 C   0  0  0  0  0  0  0  0  0  0  0  0
   34.5340   29.1910   37.7080 C   0  0  0  0  0  0  0  0  0  0  0  0
   35.7520   29.3440   38.3190 C   0  0  0  0  0  0  0  0  0  0  0  0
   37.1920   27.8340   43.9790 C   0  0  0  0  0  0  0  0  0  0  0  0
   36.7590   28.5230   45.0850 F   0  0  0  0  0  0  0  0  0  0  0  0
   38.4150   27.1990   44.2400 F   0  0  0  0  0  0  0  0  0  0  0  0
   36.2610   26.8460   43.6790 F   0  0  0  0  0  0  0  0  0  0  0  0
   37.0890   29.5230   37.6540 C   0  0  0  0  0  0  0  0  0  0  0  0
   37.4820   30.8340   37.1180 C   0  0  0  0  0  0  0  0  0  0  0  0
   37.0490   29.7610   36.1370 C   0  0  0  0  0  0  0  0  0  0  0  0
   39.0842   29.7623   43.5831 H   0  0  0  0  0  0  0  0  0  0  0  0
   39.2432   31.2611   41.5400 H   0  0  0  0  0  0  0  0  0  0  0  0
   32.5358   28.9251   38.6484 H   0  0  0  0  0  0  0  0  0  0  0  0
   34.3258   29.1731   36.6280 H   0  0  0  0  0  0  0  0  0  0  0  0
   37.5796   28.8201   38.3434 H   0  0  0  0  0  0  0  0  0  0  0  0
   36.8366   31.7082   37.2891 H   0  0  0  0  0  0  0  0  0  0  0  0
   38.3769   31.4658   37.2173 H   0  0  0  0  0  0  0  0  0  0  0  0
   36.0861   29.8430   35.6116 H   0  0  0  0  0  0  0  0  0  0  0  0
   37.4824   29.2792   35.2481 H   0  0  0  0  0  0  0  0  0  0  0  0
  1 12  1  0
  2  1  2  0
  3  2  1  0
  4  5  1  0
  4  3  2  0
  5  6  2  0
  6  1  1  0
  7  8  1  0
  7  5  1  0
  9  8  2  0
 10 11  2  0
 10  9  1  0
 11  7  1  0
 12 14  1  0
 12 13  1  0
 15 12  1  0
 16 11  1  0
 17 16  1  0
 18 17  1  0
 18 16  1  0
  2 19  1  0
  3 20  1  0
  9 21  1  0
 10 22  1  0
 16 23  1  0
 17 24  1  0
 17 25  1  0
 18 26  1  0
 18 27  1  0
M  ISO  8  19  14  20  14  21  14  22  14  23  13  24  13  25  13  26  13
M  ISO  1  27  13
M  END
>  <minimizedAffinity>  (1) 
-5.43576479

>  <minimizedRMSD>  (1) 
0.921354532

$$$$
