
     RDKit          3D

 23 24  0  0  0  0  0  0  0  0999 V2000
   37.3660   28.7330   42.7960 C   0  0  0  0  0  0  0  0  0  0  0  0
   38.4100   29.6770   42.7900 C   0  0  0  0  0  0  0  0  0  0  0  0
   38.5590   30.4830   41.6540 C   0  0  0  0  0  0  0  0  0  0  0  0
   37.6770   30.2910   40.6380 N   0  0  0  0  0  0  0  0  0  0  0  0
   36.6870   29.3800   40.6710 C   0  0  0  0  0  0  0  0  0  0  0  0
   36.5280   28.5910   41.7610 N   0  0  0  0  0  0  0  0  0  0  0  0
   35.8250   29.2670   39.5590 N   0  0  0  0  0  0  0  0  0  0  0  0
   34.5150   29.1160   39.7170 N   0  0  0  0  0  0  0  0  0  0  0  0
   33.8750   29.0290   38.5520 C   0  0  0  0  0  0  0  0  0  0  0  0
   34.8390   29.1320   37.5630 C   0  0  0  0  0  0  0  0  0  0  0  0
   36.0140   29.2760   38.2390 C   0  0  0  0  0  0  0  0  0  0  0  0
   37.1770   27.8570   43.9890 C   0  0  0  0  0  0  0  0  0  0  0  0
   36.7570   28.5940   45.0870 F   0  0  0  0  0  0  0  0  0  0  0  0
   38.3560   27.1850   44.2870 F   0  0  0  0  0  0  0  0  0  0  0  0
   36.1820   26.9460   43.7100 F   0  0  0  0  0  0  0  0  0  0  0  0
   37.3150   29.4190   37.6170 C   0  0  0  0  0  0  0  0  0  0  0  0
   38.2890   28.6280   37.6840 O   0  0  0  0  0  0  0  0  0  0  0  0
   37.6370   30.5170   36.8320 O   0  0  0  0  0  0  0  0  0  0  0  0
   39.0877   29.7787   43.6504 H   0  0  0  0  0  0  0  0  0  0  0  0
   39.3555   31.2387   41.5872 H   0  0  0  0  0  0  0  0  0  0  0  0
   32.7926   28.9005   38.4044 H   0  0  0  0  0  0  0  0  0  0  0  0
   34.6897   29.1039   36.4735 H   0  0  0  0  0  0  0  0  0  0  0  0
   36.9689   31.2323   36.6835 H   0  0  0  0  0  0  0  0  0  0  0  0
  1 12  1  0
  2  1  2  0
  3  2  1  0
  4  5  1  0
  4  3  2  0
  5  6  2  0
  6  1  1  0
  7  8  1  0
  7  5  1  0
  9  8  2  0
 10 11  2  0
 10  9  1  0
 11  7  1  0
 12 14  1  0
 12 13  1  0
 15 12  1  0
 16 17  2  0
 16 11  1  0
 18 16  1  0
  2 19  1  0
  3 20  1  0
  9 21  1  0
 10 22  1  0
 18 23  1  0
M  ISO  5  19  14  20  14  21  14  22  14  23   3
M  END
>  <minimizedAffinity>  (1) 
-5.4047246

>  <minimizedRMSD>  (1) 
0.392684817

$$$$
