
     RDKit          3D

 32 34  0  0  0  0  0  0  0  0999 V2000
   37.3910   28.6740   43.0170 C   0  0  0  0  0  0  0  0  0  0  0  0
   38.4560   29.5930   43.1020 C   0  0  0  0  0  0  0  0  0  0  0  0
   38.7000   30.3930   41.9710 C   0  0  0  0  0  0  0  0  0  0  0  0
   37.8960   30.2190   40.8940 N   0  0  0  0  0  0  0  0  0  0  0  0
   36.8760   29.3210   40.8520 C   0  0  0  0  0  0  0  0  0  0  0  0
   36.6230   28.5430   41.9230 N   0  0  0  0  0  0  0  0  0  0  0  0
   36.0890   29.2330   39.6780 N   0  0  0  0  0  0  0  0  0  0  0  0
   34.7790   29.1060   39.7580 N   0  0  0  0  0  0  0  0  0  0  0  0
   34.1840   29.0590   38.5650 C   0  0  0  0  0  0  0  0  0  0  0  0
   35.2010   29.1640   37.6570 C   0  0  0  0  0  0  0  0  0  0  0  0
   36.3840   29.2710   38.3780 C   0  0  0  0  0  0  0  0  0  0  0  0
   37.6850   29.3580   37.8190 N   0  0  0  0  0  0  0  0  0  0  0  0
   38.3600   30.6290   37.6080 C   0  0  0  0  0  0  0  0  0  0  0  0
   39.8280   30.2930   37.4680 C   0  0  0  0  0  0  0  0  0  0  0  0
   39.9240   28.7930   37.7360 C   0  0  0  0  0  0  0  0  0  0  0  0
   38.5660   28.3080   37.3290 C   0  0  0  0  0  0  0  0  0  0  0  0
   37.1070   27.8080   44.1870 C   0  0  0  0  0  0  0  0  0  0  0  0
   36.6620   28.5240   45.2670 F   0  0  0  0  0  0  0  0  0  0  0  0
   38.2470   27.0610   44.5360 F   0  0  0  0  0  0  0  0  0  0  0  0
   36.1250   26.8940   43.8330 F   0  0  0  0  0  0  0  0  0  0  0  0
   39.0686   29.6807   44.0114 H   0  0  0  0  0  0  0  0  0  0  0  0
   39.5139   31.1330   41.9611 H   0  0  0  0  0  0  0  0  0  0  0  0
   33.1086   28.9578   38.3569 H   0  0  0  0  0  0  0  0  0  0  0  0
   35.1013   29.1638   36.5615 H   0  0  0  0  0  0  0  0  0  0  0  0
   37.9883   31.1137   36.6932 H   0  0  0  0  0  0  0  0  0  0  0  0
   38.1803   31.3275   38.4385 H   0  0  0  0  0  0  0  0  0  0  0  0
   40.1819   30.5267   36.4530 H   0  0  0  0  0  0  0  0  0  0  0  0
   40.4506   30.8750   38.1634 H   0  0  0  0  0  0  0  0  0  0  0  0
   40.7123   28.3289   37.1251 H   0  0  0  0  0  0  0  0  0  0  0  0
   40.1859   28.5473   38.7757 H   0  0  0  0  0  0  0  0  0  0  0  0
   38.4927   28.2080   36.2360 H   0  0  0  0  0  0  0  0  0  0  0  0
   38.3216   27.3135   37.7306 H   0  0  0  0  0  0  0  0  0  0  0  0
  1  2  2  0
  1 17  1  0
  3  2  1  0
  4  3  2  0
  5  4  1  0
  5  6  2  0
  6  1  1  0
  7  8  1  0
  7  5  1  0
  9  8  2  0
 10 11  2  0
 10  9  1  0
 11  7  1  0
 12 11  1  0
 13 12  1  0
 14 13  1  0
 14 15  1  0
 16 15  1  0
 16 12  1  0
 17 19  1  0
 17 18  1  0
 20 17  1  0
  2 21  1  0
  3 22  1  0
  9 23  1  0
 10 24  1  0
 13 25  1  0
 13 26  1  0
 14 27  1  0
 14 28  1  0
 15 29  1  0
 15 30  1  0
 16 31  1  0
 16 32  1  0
M  ISO  8  21  14  22  14  23  14  24  14  25  13  26  13  27  13  28  13
M  ISO  4  29  13  30  13  31  13  32  13
M  END
>  <minimizedAffinity>  (1) 
-5.35162067

>  <minimizedRMSD>  (1) 
0.351581097

$$$$
