
     RDKit          3D

 27 29  0  0  0  0  0  0  0  0999 V2000
   37.7900   28.8600   42.7860 C   0  0  0  0  0  0  0  0  0  0  0  0
   38.7900   29.8200   43.0890 C   0  0  0  0  0  0  0  0  0  0  0  0
   39.1660   30.7120   42.0740 C   0  0  0  0  0  0  0  0  0  0  0  0
   38.5490   30.5960   40.8740 N   0  0  0  0  0  0  0  0  0  0  0  0
   37.5980   29.6710   40.6130 C   0  0  0  0  0  0  0  0  0  0  0  0
   37.2270   28.8070   41.5760 N   0  0  0  0  0  0  0  0  0  0  0  0
   37.0180   29.6420   39.3150 N   0  0  0  0  0  0  0  0  0  0  0  0
   35.7100   29.4580   39.1730 N   0  0  0  0  0  0  0  0  0  0  0  0
   35.3590   29.4620   37.8840 C   0  0  0  0  0  0  0  0  0  0  0  0
   36.5020   29.6600   37.1640 C   0  0  0  0  0  0  0  0  0  0  0  0
   37.5210   29.7680   38.0840 C   0  0  0  0  0  0  0  0  0  0  0  0
   38.9440   29.9870   37.8410 C   0  0  0  0  0  0  0  0  0  0  0  0
   39.8540   28.9560   37.6350 C   0  0  0  0  0  0  0  0  0  0  0  0
   41.1210   29.4730   37.4330 C   0  0  0  0  0  0  0  0  0  0  0  0
   40.9070   30.8480   37.5310 C   0  0  0  0  0  0  0  0  0  0  0  0
   39.6580   31.0800   37.7620 O   0  0  0  0  0  0  0  0  0  0  0  0
   37.3660   27.9000   43.8300 C   0  0  0  0  0  0  0  0  0  0  0  0
   36.8280   28.5290   44.9180 F   0  0  0  0  0  0  0  0  0  0  0  0
   38.4580   27.1030   44.2160 F   0  0  0  0  0  0  0  0  0  0  0  0
   36.4040   27.0600   43.2790 F   0  0  0  0  0  0  0  0  0  0  0  0
   39.2542   29.8632   44.0853 H   0  0  0  0  0  0  0  0  0  0  0  0
   39.9353   31.4791   42.2466 H   0  0  0  0  0  0  0  0  0  0  0  0
   34.3442   29.3310   37.4803 H   0  0  0  0  0  0  0  0  0  0  0  0
   36.5910   29.7210   36.0693 H   0  0  0  0  0  0  0  0  0  0  0  0
   39.6029   27.8851   37.6330 H   0  0  0  0  0  0  0  0  0  0  0  0
   42.0614   28.9349   37.2428 H   0  0  0  0  0  0  0  0  0  0  0  0
   41.6851   31.6185   37.4271 H   0  0  0  0  0  0  0  0  0  0  0  0
  1  2  2  0
  1 17  1  0
  3  2  1  0
  4  3  2  0
  5  4  1  0
  5  6  2  0
  6  1  1  0
  7  5  1  0
  8  7  1  0
  9  8  2  0
 10  9  1  0
 10 11  2  0
 11  7  1  0
 12 11  1  0
 13 12  2  0
 14 15  2  0
 14 13  1  0
 15 16  1  0
 16 12  1  0
 17 19  1  0
 17 18  1  0
 20 17  1  0
  2 21  1  0
  3 22  1  0
  9 23  1  0
 10 24  1  0
 13 25  1  0
 14 26  1  0
 15 27  1  0
M  ISO  7  21  14  22  14  23  14  24  14  25  14  26  14  27  14
M  END
>  <minimizedAffinity>  (1) 
-5.31716442

>  <minimizedRMSD>  (1) 
1.39952195

$$$$
