
     RDKit          3D

 47 51  0  0  0  0  0  0  0  0999 V2000
   37.5230   29.5530   38.0490 N   0  0  0  0  0  0  0  0  0  0  0  0
   38.2380   28.3920   38.0650 C   0  0  0  0  0  0  0  0  0  0  0  0
   39.5740   28.4340   37.7130 C   0  0  0  0  0  0  0  0  0  0  0  0
   40.1520   29.6300   37.3570 C   0  0  0  0  0  0  0  0  0  0  0  0
   41.5190   29.6940   36.9940 N   0  0  0  0  0  0  0  0  0  0  0  0
   39.3980   30.7650   37.3570 N   0  0  0  0  0  0  0  0  0  0  0  0
   38.1080   30.7000   37.7010 C   0  0  0  0  0  0  0  0  0  0  0  0
   37.3310   31.7130   37.7260 O   0  0  0  0  0  0  0  0  0  0  0  0
   37.3330   28.6660   43.0260 C   0  0  0  0  0  0  0  0  0  0  0  0
   38.3960   29.6040   43.0640 C   0  0  0  0  0  0  0  0  0  0  0  0
   38.5910   30.4370   41.9520 C   0  0  0  0  0  0  0  0  0  0  0  0
   37.7360   30.2810   40.9030 N   0  0  0  0  0  0  0  0  0  0  0  0
   36.7360   29.3740   40.9070 C   0  0  0  0  0  0  0  0  0  0  0  0
   36.5360   28.5730   41.9570 N   0  0  0  0  0  0  0  0  0  0  0  0
   35.8950   29.2940   39.7520 N   0  0  0  0  0  0  0  0  0  0  0  0
   34.5920   29.1210   39.8690 N   0  0  0  0  0  0  0  0  0  0  0  0
   33.9790   29.0720   38.6850 C   0  0  0  0  0  0  0  0  0  0  0  0
   34.9560   29.2240   37.7530 C   0  0  0  0  0  0  0  0  0  0  0  0
   36.1560   29.3640   38.4340 C   0  0  0  0  0  0  0  0  0  0  0  0
   37.1150   27.7840   44.1840 C   0  0  0  0  0  0  0  0  0  0  0  0
   36.6700   28.4720   45.2770 F   0  0  0  0  0  0  0  0  0  0  0  0
   38.2930   27.0760   44.4910 F   0  0  0  0  0  0  0  0  0  0  0  0
   36.1550   26.8440   43.8350 F   0  0  0  0  0  0  0  0  0  0  0  0
   40.3480   27.1850   37.7290 C   0  0  0  0  0  0  0  0  0  0  0  0
   40.5010   26.5300   36.5100 C   0  0  0  0  0  0  0  0  0  0  0  0
   41.2350   25.3620   36.5760 C   0  0  0  0  0  0  0  0  0  0  0  0
   41.8160   24.7950   37.6910 C   0  0  0  0  0  0  0  0  0  0  0  0
   41.6220   25.5020   38.8610 C   0  0  0  0  0  0  0  0  0  0  0  0
   42.1580   25.0320   40.0530 C   0  0  0  0  0  0  0  0  0  0  0  0
   41.9980   25.6960   41.2600 C   0  0  0  0  0  0  0  0  0  0  0  0
   41.2640   26.8840   41.2540 C   0  0  0  0  0  0  0  0  0  0  0  0
   40.7240   27.3680   40.0880 C   0  0  0  0  0  0  0  0  0  0  0  0
   40.9000   26.6790   38.8880 C   0  0  0  0  0  0  0  0  0  0  0  0
   37.7620   27.4427   38.3518 H   0  0  0  0  0  0  0  0  0  0  0  0
   42.0921   28.8382   36.9928 H   0  0  0  0  0  0  0  0  0  0  0  0
   41.9403   30.5964   36.7311 H   0  0  0  0  0  0  0  0  0  0  0  0
   39.0518   29.6767   43.9441 H   0  0  0  0  0  0  0  0  0  0  0  0
   39.3988   31.1833   41.9283 H   0  0  0  0  0  0  0  0  0  0  0  0
   32.9030   28.9363   38.5010 H   0  0  0  0  0  0  0  0  0  0  0  0
   34.8204   29.2341   36.6614 H   0  0  0  0  0  0  0  0  0  0  0  0
   40.0725   26.9114   35.5715 H   0  0  0  0  0  0  0  0  0  0  0  0
   41.3723   24.8205   35.6284 H   0  0  0  0  0  0  0  0  0  0  0  0
   42.3875   23.8559   37.6514 H   0  0  0  0  0  0  0  0  0  0  0  0
   42.7331   24.0944   40.0391 H   0  0  0  0  0  0  0  0  0  0  0  0
   42.4339   25.3008   42.1894 H   0  0  0  0  0  0  0  0  0  0  0  0
   41.1169   27.4377   42.1930 H   0  0  0  0  0  0  0  0  0  0  0  0
   40.1487   28.3055   40.1003 H   0  0  0  0  0  0  0  0  0  0  0  0
  1  2  1  0
  1 19  1  0
  3 24  1  0
  3  2  2  0
  4  6  2  0
  4  3  1  0
  5  4  1  0
  6  7  1  0
  7  8  2  0
  7  1  1  0
  9 10  2  0
  9 20  1  0
 11 10  1  0
 12 13  1  0
 12 11  2  0
 13 14  2  0
 14  9  1  0
 15 16  1  0
 15 13  1  0
 17 16  2  0
 18 19  2  0
 18 17  1  0
 19 15  1  0
 20 22  1  0
 20 21  1  0
 23 20  1  0
 24 33  2  0
 25 26  2  0
 25 24  1  0
 26 27  1  0
 27 28  2  0
 28 33  1  0
 28 29  1  0
 29 30  2  0
 31 30  1  0
 32 31  2  0
 33 32  1  0
  2 34  1  0
  5 35  1  0
  5 36  1  0
 10 37  1  0
 11 38  1  0
 17 39  1  0
 18 40  1  0
 25 41  1  0
 26 42  1  0
 27 43  1  0
 29 44  1  0
 30 45  1  0
 31 46  1  0
 32 47  1  0
M  ISO  8  34  14  37  14  38  14  39  14  40  14  41  14  42  14  43  14
M  ISO  4  44  14  45  14  46  14  47  14
M  END
>  <minimizedAffinity>  (1) 
-6.72106218

>  <minimizedRMSD>  (1) 
1.23884344

$$$$
