
     RDKit          3D

 42 46  0  0  0  0  0  0  0  0999 V2000
   37.5310   29.8600   37.9960 N   0  0  0  0  0  0  0  0  0  0  0  0
   38.2860   28.7520   37.7390 C   0  0  0  0  0  0  0  0  0  0  0  0
   39.6100   28.9050   37.3810 C   0  0  0  0  0  0  0  0  0  0  0  0
   40.1440   30.1770   37.2910 C   0  0  0  0  0  0  0  0  0  0  0  0
   41.5020   30.3620   36.9260 N   0  0  0  0  0  0  0  0  0  0  0  0
   39.3620   31.2490   37.5550 N   0  0  0  0  0  0  0  0  0  0  0  0
   38.0770   31.0750   37.9000 C   0  0  0  0  0  0  0  0  0  0  0  0
   37.2740   32.0310   38.1630 O   0  0  0  0  0  0  0  0  0  0  0  0
   37.4000   28.6550   42.9030 C   0  0  0  0  0  0  0  0  0  0  0  0
   38.3870   29.6690   43.0170 C   0  0  0  0  0  0  0  0  0  0  0  0
   38.5160   30.5820   41.9560 C   0  0  0  0  0  0  0  0  0  0  0  0
   37.6890   30.4290   40.8950 N   0  0  0  0  0  0  0  0  0  0  0  0
   36.7570   29.4450   40.8240 C   0  0  0  0  0  0  0  0  0  0  0  0
   36.6140   28.5600   41.8260 N   0  0  0  0  0  0  0  0  0  0  0  0
   35.9310   29.3700   39.6610 N   0  0  0  0  0  0  0  0  0  0  0  0
   34.6460   29.0840   39.7590 N   0  0  0  0  0  0  0  0  0  0  0  0
   34.0490   29.0590   38.5770 C   0  0  0  0  0  0  0  0  0  0  0  0
   35.0100   29.3470   37.6580 C   0  0  0  0  0  0  0  0  0  0  0  0
   36.1840   29.5390   38.3520 C   0  0  0  0  0  0  0  0  0  0  0  0
   37.2510   27.6840   44.0140 C   0  0  0  0  0  0  0  0  0  0  0  0
   36.7480   28.2800   45.1490 F   0  0  0  0  0  0  0  0  0  0  0  0
   38.4740   27.0500   44.2830 F   0  0  0  0  0  0  0  0  0  0  0  0
   36.3520   26.7180   43.6040 F   0  0  0  0  0  0  0  0  0  0  0  0
   40.4030   27.7370   37.1110 N   0  0  0  0  0  0  0  0  0  0  0  0
   41.6960   27.7450   36.7290 C   0  0  0  0  0  0  0  0  0  0  0  0
   42.1050   26.4690   36.5690 N   0  0  0  0  0  0  0  0  0  0  0  0
   41.0480   25.6570   36.8560 C   0  0  0  0  0  0  0  0  0  0  0  0
   40.8740   24.2820   36.8650 C   0  0  0  0  0  0  0  0  0  0  0  0
   39.6830   23.7440   37.1990 N   0  0  0  0  0  0  0  0  0  0  0  0
   38.6470   24.5270   37.5300 C   0  0  0  0  0  0  0  0  0  0  0  0
   38.7790   25.8850   37.5340 N   0  0  0  0  0  0  0  0  0  0  0  0
   39.9730   26.4530   37.1980 C   0  0  0  0  0  0  0  0  0  0  0  0
   37.8437   27.7478   37.8165 H   0  0  0  0  0  0  0  0  0  0  0  0
   41.8929   31.3127   36.8610 H   0  0  0  0  0  0  0  0  0  0  0  0
   42.0973   29.5456   36.7259 H   0  0  0  0  0  0  0  0  0  0  0  0
   39.0300   29.7380   43.9068 H   0  0  0  0  0  0  0  0  0  0  0  0
   39.2611   31.3906   41.9866 H   0  0  0  0  0  0  0  0  0  0  0  0
   32.9880   28.8476   38.3780 H   0  0  0  0  0  0  0  0  0  0  0  0
   34.8750   29.4138   36.5684 H   0  0  0  0  0  0  0  0  0  0  0  0
   42.3141   28.6416   36.5737 H   0  0  0  0  0  0  0  0  0  0  0  0
   41.7140   23.6241   36.5976 H   0  0  0  0  0  0  0  0  0  0  0  0
   37.6830   24.0715   37.8005 H   0  0  0  0  0  0  0  0  0  0  0  0
  1 19  1  0
  2  1  1  0
  3  2  2  0
  4  3  1  0
  4  6  2  0
  5  4  1  0
  6  7  1  0
  7  1  1  0
  7  8  2  0
  9 10  2  0
  9 20  1  0
 11 10  1  0
 12 11  2  0
 13 12  1  0
 13 14  2  0
 14  9  1  0
 15 16  1  0
 15 13  1  0
 17 16  2  0
 18 19  2  0
 18 17  1  0
 19 15  1  0
 20 22  1  0
 20 21  1  0
 23 20  1  0
 24 32  1  0
 24  3  1  0
 25 24  1  0
 26 25  2  0
 26 27  1  0
 27 28  2  0
 27 32  1  0
 28 29  1  0
 29 30  2  0
 30 31  1  0
 32 31  2  0
  2 33  1  0
  5 34  1  0
  5 35  1  0
 10 36  1  0
 11 37  1  0
 17 38  1  0
 18 39  1  0
 25 40  1  0
 28 41  1  0
 30 42  1  0
M  ISO  8  33  14  36  14  37  14  38  14  39  14  40  14  41  14  42  14
M  END
>  <minimizedAffinity>  (1) 
-6.43226433

>  <minimizedRMSD>  (1) 
0.221546233

$$$$
