
     RDKit          3D

 40 43  0  0  0  0  0  0  0  0999 V2000
   37.3860   28.6720   42.9600 C   0  0  0  0  0  0  0  0  0  0  0  0
   38.4030   29.6590   43.0530 C   0  0  0  0  0  0  0  0  0  0  0  0
   38.5650   30.5320   41.9730 C   0  0  0  0  0  0  0  0  0  0  0  0
   37.7350   30.3790   40.9010 N   0  0  0  0  0  0  0  0  0  0  0  0
   36.7740   29.4180   40.8580 C   0  0  0  0  0  0  0  0  0  0  0  0
   36.6080   28.5770   41.8830 N   0  0  0  0  0  0  0  0  0  0  0  0
   35.9530   29.3360   39.6920 N   0  0  0  0  0  0  0  0  0  0  0  0
   34.6670   29.0930   39.7980 N   0  0  0  0  0  0  0  0  0  0  0  0
   34.0640   29.0520   38.6060 C   0  0  0  0  0  0  0  0  0  0  0  0
   35.0430   29.2870   37.6870 C   0  0  0  0  0  0  0  0  0  0  0  0
   36.2330   29.4660   38.3700 C   0  0  0  0  0  0  0  0  0  0  0  0
   37.5870   29.7350   38.0190 N   0  0  0  0  0  0  0  0  0  0  0  0
   38.3360   28.5970   37.9200 C   0  0  0  0  0  0  0  0  0  0  0  0
   39.6640   28.7000   37.5870 C   0  0  0  0  0  0  0  0  0  0  0  0
   40.2180   29.9470   37.3580 C   0  0  0  0  0  0  0  0  0  0  0  0
   41.5750   30.1220   37.0150 N   0  0  0  0  0  0  0  0  0  0  0  0
   39.4340   31.0440   37.4690 N   0  0  0  0  0  0  0  0  0  0  0  0
   38.1310   30.9360   37.7950 C   0  0  0  0  0  0  0  0  0  0  0  0
   37.3200   31.9120   37.9220 O   0  0  0  0  0  0  0  0  0  0  0  0
   40.5630   27.5600   37.4520 C   0  0  0  0  0  0  0  0  0  0  0  0
   40.4290   26.5430   36.5310 C   0  0  0  0  0  0  0  0  0  0  0  0
   41.3100   25.4840   36.4440 C   0  0  0  0  0  0  0  0  0  0  0  0
   42.3880   25.4000   37.3000 C   0  0  0  0  0  0  0  0  0  0  0  0
   42.5030   26.4280   38.2130 C   0  0  0  0  0  0  0  0  0  0  0  0
   41.6200   27.4530   38.2700 N   0  0  0  0  0  0  0  0  0  0  0  0
   37.2070   27.7440   44.0980 C   0  0  0  0  0  0  0  0  0  0  0  0
   36.7220   28.3810   45.2110 F   0  0  0  0  0  0  0  0  0  0  0  0
   38.4130   27.0740   44.3850 F   0  0  0  0  0  0  0  0  0  0  0  0
   36.2700   26.7910   43.7090 F   0  0  0  0  0  0  0  0  0  0  0  0
   39.0420   29.7341   43.9452 H   0  0  0  0  0  0  0  0  0  0  0  0
   39.3362   31.3163   41.9871 H   0  0  0  0  0  0  0  0  0  0  0  0
   32.9980   28.8669   38.4075 H   0  0  0  0  0  0  0  0  0  0  0  0
   34.9105   29.3272   36.5958 H   0  0  0  0  0  0  0  0  0  0  0  0
   37.8818   27.6123   38.1044 H   0  0  0  0  0  0  0  0  0  0  0  0
   42.1930   29.3030   36.9242 H   0  0  0  0  0  0  0  0  0  0  0  0
   41.9479   31.0688   36.8554 H   0  0  0  0  0  0  0  0  0  0  0  0
   39.5799   26.5771   35.8325 H   0  0  0  0  0  0  0  0  0  0  0  0
   41.1512   24.7019   35.6869 H   0  0  0  0  0  0  0  0  0  0  0  0
   43.1078   24.5693   37.2577 H   0  0  0  0  0  0  0  0  0  0  0  0
   43.3442   26.4144   38.9217 H   0  0  0  0  0  0  0  0  0  0  0  0
  1  2  2  0
  1 26  1  0
  3  2  1  0
  4  3  2  0
  5  4  1  0
  5  6  2  0
  6  1  1  0
  7  8  1  0
  7  5  1  0
  9  8  2  0
 10 11  2  0
 10  9  1  0
 11  7  1  0
 12 11  1  0
 13 12  1  0
 14 13  2  0
 15 17  2  0
 15 14  1  0
 16 15  1  0
 17 18  1  0
 18 19  2  0
 18 12  1  0
 20 14  1  0
 20 25  1  0
 21 20  2  0
 22 21  1  0
 22 23  2  0
 23 24  1  0
 24 25  2  0
 26 28  1  0
 26 27  1  0
 29 26  1  0
  2 30  1  0
  3 31  1  0
  9 32  1  0
 10 33  1  0
 13 34  1  0
 16 35  1  0
 16 36  1  0
 21 37  1  0
 22 38  1  0
 23 39  1  0
 24 40  1  0
M  ISO  8  30  14  31  14  32  14  33  14  34  14  37  14  38  14  39  14
M  ISO  1  40  14
M  END
>  <minimizedAffinity>  (1) 
-6.31038475

>  <minimizedRMSD>  (1) 
0.355352342

$$$$
