
     RDKit          3D

 39 42  0  0  0  0  0  0  0  0999 V2000
   37.4640   28.6510   42.8910 C   0  0  0  0  0  0  0  0  0  0  0  0
   38.4200   29.6880   43.0290 C   0  0  0  0  0  0  0  0  0  0  0  0
   38.5350   30.6070   41.9900 C   0  0  0  0  0  0  0  0  0  0  0  0
   37.7220   30.4530   40.9100 N   0  0  0  0  0  0  0  0  0  0  0  0
   36.8280   29.4570   40.8190 C   0  0  0  0  0  0  0  0  0  0  0  0
   36.6960   28.5580   41.8030 N   0  0  0  0  0  0  0  0  0  0  0  0
   36.0160   29.3740   39.6460 N   0  0  0  0  0  0  0  0  0  0  0  0
   34.7380   29.0560   39.7220 N   0  0  0  0  0  0  0  0  0  0  0  0
   34.1490   29.0300   38.5280 C   0  0  0  0  0  0  0  0  0  0  0  0
   35.1210   29.3560   37.6240 C   0  0  0  0  0  0  0  0  0  0  0  0
   36.2870   29.5700   38.3280 C   0  0  0  0  0  0  0  0  0  0  0  0
   37.6310   29.9220   37.9970 N   0  0  0  0  0  0  0  0  0  0  0  0
   38.4270   28.8480   37.8230 C   0  0  0  0  0  0  0  0  0  0  0  0
   39.7690   29.0340   37.4960 C   0  0  0  0  0  0  0  0  0  0  0  0
   40.2430   30.3120   37.3590 C   0  0  0  0  0  0  0  0  0  0  0  0
   41.5870   30.5810   37.0310 N   0  0  0  0  0  0  0  0  0  0  0  0
   39.4030   31.3770   37.5440 N   0  0  0  0  0  0  0  0  0  0  0  0
   38.1100   31.1600   37.8610 C   0  0  0  0  0  0  0  0  0  0  0  0
   37.2580   32.0940   38.0510 O   0  0  0  0  0  0  0  0  0  0  0  0
   40.5470   27.8140   37.3270 C   0  0  0  0  0  0  0  0  0  0  0  0
   40.2150   26.6790   36.6410 C   0  0  0  0  0  0  0  0  0  0  0  0
   40.9830   25.5580   36.5120 C   0  0  0  0  0  0  0  0  0  0  0  0
   42.1930   25.5330   37.1090 N   0  0  0  0  0  0  0  0  0  0  0  0
   42.5650   26.6250   37.7970 C   0  0  0  0  0  0  0  0  0  0  0  0
   41.7660   27.6800   37.8770 N   0  0  0  0  0  0  0  0  0  0  0  0
   37.3250   27.6630   43.9850 C   0  0  0  0  0  0  0  0  0  0  0  0
   36.7780   28.2310   45.1180 F   0  0  0  0  0  0  0  0  0  0  0  0
   38.5620   27.0730   44.2720 F   0  0  0  0  0  0  0  0  0  0  0  0
   36.4600   26.6700   43.5420 F   0  0  0  0  0  0  0  0  0  0  0  0
   39.0502   29.7641   43.9274 H   0  0  0  0  0  0  0  0  0  0  0  0
   39.2606   31.4322   42.0405 H   0  0  0  0  0  0  0  0  0  0  0  0
   33.0962   28.7945   38.3133 H   0  0  0  0  0  0  0  0  0  0  0  0
   34.9958   29.4335   36.5339 H   0  0  0  0  0  0  0  0  0  0  0  0
   38.0204   27.8324   37.9382 H   0  0  0  0  0  0  0  0  0  0  0  0
   41.9090   31.5548   36.9360 H   0  0  0  0  0  0  0  0  0  0  0  0
   42.2473   29.8038   36.8863 H   0  0  0  0  0  0  0  0  0  0  0  0
   39.2334   26.6681   36.1447 H   0  0  0  0  0  0  0  0  0  0  0  0
   40.6235   24.6939   35.9340 H   0  0  0  0  0  0  0  0  0  0  0  0
   43.5433   26.6442   38.2996 H   0  0  0  0  0  0  0  0  0  0  0  0
  1  2  2  0
  1 26  1  0
  3  2  1  0
  4  3  2  0
  5  4  1  0
  5  6  2  0
  6  1  1  0
  7  8  1  0
  7  5  1  0
  9  8  2  0
 10 11  2  0
 10  9  1  0
 11  7  1  0
 12 11  1  0
 13 12  1  0
 14 13  2  0
 15 14  1  0
 15 17  2  0
 16 15  1  0
 17 18  1  0
 18 12  1  0
 18 19  2  0
 20 14  1  0
 20 25  1  0
 21 20  2  0
 22 21  1  0
 22 23  2  0
 23 24  1  0
 24 25  2  0
 26 28  1  0
 26 27  1  0
 29 26  1  0
  2 30  1  0
  3 31  1  0
  9 32  1  0
 10 33  1  0
 13 34  1  0
 16 35  1  0
 16 36  1  0
 21 37  1  0
 22 38  1  0
 24 39  1  0
M  ISO  8  30  14  31  14  32  14  33  14  34  14  37  14  38  14  39  14
M  END
>  <minimizedAffinity>  (1) 
-6.31021738

>  <minimizedRMSD>  (1) 
0.357626051

$$$$
