
     RDKit          3D

 47 50  0  0  1  0  0  0  0  0999 V2000
   39.9910   32.3010   41.1870 C   0  0  0  0  0  0  0  0  0  0  0  0
   39.6250   31.0080   41.6450 C   0  0  0  0  0  0  0  0  0  0  0  0
   38.3290   30.6110   41.4730 C   0  0  0  0  0  0  0  0  0  0  0  0
   37.4390   31.4610   40.8760 N   0  0  0  0  0  0  0  0  0  0  0  0
   37.8120   32.6960   40.4440 C   0  0  0  0  0  0  0  0  0  0  0  0
   39.0870   33.1110   40.6020 N   0  0  0  0  0  0  0  0  0  0  0  0
   36.8480   33.5340   39.8320 N   0  0  0  0  0  0  0  0  0  0  0  0
   37.8840   29.3450   41.8990 N   0  0  0  0  0  0  0  0  0  0  0  0
   37.9870   28.9760   43.2890 C   0  0  0  0  0  0  0  0  0  0  0  0
   36.9690   27.8600   43.5420 C   0  0  0  0  0  0  0  0  0  0  0  0
   37.1140   26.7260   42.6850 N   0  0  0  0  0  0  0  0  0  0  0  0
   37.6640   27.0060   41.4050 C   0  0  0  0  0  0  0  0  0  0  0  0
   37.3200   28.4000   40.9580 C   0  0  2  0  0  0  0  0  0  0  0  0
   37.6680   28.6580   39.5480 C   0  0  0  0  0  0  0  0  0  0  0  0
   36.6790   28.6510   38.5640 C   0  0  0  0  0  0  0  0  0  0  0  0
   36.9140   28.8790   37.2380 C   0  0  0  0  0  0  0  0  0  0  0  0
   38.1850   29.1190   36.9170 N   0  0  0  0  0  0  0  0  0  0  0  0
   39.1670   29.1320   37.8460 C   0  0  0  0  0  0  0  0  0  0  0  0
   38.9420   28.9070   39.1670 N   0  0  0  0  0  0  0  0  0  0  0  0
   43.1900   29.7990   36.5790 C   0  0  0  0  0  0  0  0  0  0  0  0
   42.6210   28.5390   36.4330 C   0  0  0  0  0  0  0  0  0  0  0  0
   41.3100   28.4030   36.8680 C   0  0  0  0  0  0  0  0  0  0  0  0
   40.5420   29.4020   37.4250 C   0  0  0  0  0  0  0  0  0  0  0  0
   41.1580   30.6260   37.5440 C   0  0  0  0  0  0  0  0  0  0  0  0
   42.4580   30.8350   37.1330 C   0  0  0  0  0  0  0  0  0  0  0  0
   44.8510   29.9370   36.0180 S   0  0  0  0  0  0  0  0  0  0  0  0
   44.9490   30.5640   34.6760 O   0  0  0  0  0  0  0  0  0  0  0  0
   45.4050   28.5270   35.9860 O   0  0  0  0  0  0  0  0  0  0  0  0
   41.0278   32.6466   41.3115 H   0  0  0  0  0  0  0  0  0  0  0  0
   40.3620   30.3463   42.1235 H   0  0  0  0  0  0  0  0  0  0  0  0
   35.8785   33.2055   39.7174 H   0  0  0  0  0  0  0  0  0  0  0  0
   37.1164   34.4719   39.5015 H   0  0  0  0  0  0  0  0  0  0  0  0
   39.0028   28.6154   43.5082 H   0  0  0  0  0  0  0  0  0  0  0  0
   37.7845   29.8414   43.9371 H   0  0  0  0  0  0  0  0  0  0  0  0
   37.0804   27.5217   44.5827 H   0  0  0  0  0  0  0  0  0  0  0  0
   35.9764   28.2864   43.3347 H   0  0  0  0  0  0  0  0  0  0  0  0
   37.7292   26.0468   43.1553 H   0  0  0  0  0  0  0  0  0  0  0  0
   38.7582   26.9050   41.4548 H   0  0  0  0  0  0  0  0  0  0  0  0
   37.2412   26.2939   40.6810 H   0  0  0  0  0  0  0  0  0  0  0  0
   36.2274   28.5272   40.9692 H   0  0  0  0  0  0  0  0  0  0  0  0
   35.6437   28.4489   38.8761 H   0  0  0  0  0  0  0  0  0  0  0  0
   36.1101   28.8655   36.4873 H   0  0  0  0  0  0  0  0  0  0  0  0
   43.1786   27.6969   35.9971 H   0  0  0  0  0  0  0  0  0  0  0  0
   40.8442   27.4125   36.7586 H   0  0  0  0  0  0  0  0  0  0  0  0
   40.5961   31.4648   37.9808 H   0  0  0  0  0  0  0  0  0  0  0  0
   42.9150   31.8292   37.2460 H   0  0  0  0  0  0  0  0  0  0  0  0
   45.5627   30.7511   36.8592 H   0  0  0  0  0  0  0  0  0  0  0  0
  1  2  2  0
  3  2  1  0
  3  8  1  0
  4  3  2  0
  5  6  2  0
  5  4  1  0
  6  1  1  0
  7  5  1  0
  8  9  1  0
  9 10  1  0
 11 10  1  0
 12 11  1  0
 13 12  1  0
 13  8  1  0
 14 13  1  0
 15 14  2  0
 16 15  1  0
 17 16  2  0
 17 18  1  0
 18 19  2  0
 19 14  1  0
 20 25  2  0
 21 20  1  0
 21 22  2  0
 22 23  1  0
 23 24  2  0
 23 18  1  0
 25 24  1  0
 26 20  1  0
 27 26  2  0
 28 26  2  0
  1 29  1  0
  2 30  1  0
  7 31  1  0
  7 32  1  0
  9 33  1  0
  9 34  1  0
 10 35  1  0
 10 36  1  0
 11 37  1  0
 12 38  1  0
 12 39  1  0
 13 40  1  6
 15 41  1  0
 16 42  1  0
 21 43  1  0
 22 44  1  0
 24 45  1  0
 25 46  1  0
 26 47  1  0
M  ISO  8  29  14  30  14  33  13  34  13  35  13  36  13  37   5  38  13
M  ISO  8  39  13  40  13  41  14  42  14  43  14  44  14  45  14  46  14
M  ISO  1  47  11
M  END
>  <minimizedAffinity>  (1) 
-6.17158794

>  <minimizedRMSD>  (1) 
2.34926891

$$$$
