
     RDKit          3D

 41 44  0  0  0  0  0  0  0  0999 V2000
   37.5260   29.5370   38.0240 N   0  0  0  0  0  0  0  0  0  0  0  0
   38.2260   28.3610   37.9940 C   0  0  0  0  0  0  0  0  0  0  0  0
   39.5600   28.3850   37.6380 C   0  0  0  0  0  0  0  0  0  0  0  0
   40.1540   29.6000   37.3220 C   0  0  0  0  0  0  0  0  0  0  0  0
   41.5190   29.6650   36.9530 N   0  0  0  0  0  0  0  0  0  0  0  0
   39.4220   30.7400   37.3660 N   0  0  0  0  0  0  0  0  0  0  0  0
   38.1210   30.6910   37.7160 C   0  0  0  0  0  0  0  0  0  0  0  0
   37.3610   31.7050   37.7830 O   0  0  0  0  0  0  0  0  0  0  0  0
   37.3470   28.6770   43.0040 C   0  0  0  0  0  0  0  0  0  0  0  0
   38.4030   29.6110   43.0450 C   0  0  0  0  0  0  0  0  0  0  0  0
   38.5990   30.4420   41.9320 C   0  0  0  0  0  0  0  0  0  0  0  0
   37.7420   30.2810   40.8800 N   0  0  0  0  0  0  0  0  0  0  0  0
   36.7420   29.3730   40.8810 C   0  0  0  0  0  0  0  0  0  0  0  0
   36.5460   28.5750   41.9360 N   0  0  0  0  0  0  0  0  0  0  0  0
   35.9020   29.2870   39.7290 N   0  0  0  0  0  0  0  0  0  0  0  0
   34.5980   29.1110   39.8580 N   0  0  0  0  0  0  0  0  0  0  0  0
   33.9850   29.0550   38.6700 C   0  0  0  0  0  0  0  0  0  0  0  0
   34.9560   29.2040   37.7370 C   0  0  0  0  0  0  0  0  0  0  0  0
   36.1600   29.3490   38.4090 C   0  0  0  0  0  0  0  0  0  0  0  0
   37.1310   27.7910   44.1800 C   0  0  0  0  0  0  0  0  0  0  0  0
   36.6870   28.5030   45.2660 F   0  0  0  0  0  0  0  0  0  0  0  0
   38.3060   27.0940   44.4760 F   0  0  0  0  0  0  0  0  0  0  0  0
   36.1440   26.8700   43.8310 F   0  0  0  0  0  0  0  0  0  0  0  0
   40.3140   27.1360   37.6030 C   0  0  0  0  0  0  0  0  0  0  0  0
   40.8620   26.7670   38.8360 C   0  0  0  0  0  0  0  0  0  0  0  0
   41.6070   25.5860   38.9200 C   0  0  0  0  0  0  0  0  0  0  0  0
   41.7800   24.8100   37.7720 C   0  0  0  0  0  0  0  0  0  0  0  0
   41.2390   25.1740   36.5510 C   0  0  0  0  0  0  0  0  0  0  0  0
   40.5080   26.3430   36.4910 C   0  0  0  0  0  0  0  0  0  0  0  0
   37.7333   27.4113   38.2496 H   0  0  0  0  0  0  0  0  0  0  0  0
   42.0841   28.8047   36.9164 H   0  0  0  0  0  0  0  0  0  0  0  0
   41.9471   30.5726   36.7211 H   0  0  0  0  0  0  0  0  0  0  0  0
   39.0561   29.6859   43.9270 H   0  0  0  0  0  0  0  0  0  0  0  0
   39.4059   31.1892   41.9072 H   0  0  0  0  0  0  0  0  0  0  0  0
   32.9092   28.9160   38.4876 H   0  0  0  0  0  0  0  0  0  0  0  0
   34.8150   29.2090   36.6461 H   0  0  0  0  0  0  0  0  0  0  0  0
   40.7095   27.3957   39.7257 H   0  0  0  0  0  0  0  0  0  0  0  0
   42.0503   25.2730   39.8768 H   0  0  0  0  0  0  0  0  0  0  0  0
   42.3644   23.8806   37.8401 H   0  0  0  0  0  0  0  0  0  0  0  0
   41.3871   24.5510   35.6566 H   0  0  0  0  0  0  0  0  0  0  0  0
   40.0683   26.6507   35.5308 H   0  0  0  0  0  0  0  0  0  0  0  0
  1 19  1  0
  2  1  1  0
  3  2  2  0
  4  6  2  0
  4  3  1  0
  5  4  1  0
  6  7  1  0
  7  8  2  0
  7  1  1  0
  9 10  2  0
  9 20  1  0
 11 10  1  0
 12 13  1  0
 12 11  2  0
 13 14  2  0
 14  9  1  0
 15 16  1  0
 15 13  1  0
 17 16  2  0
 18 19  2  0
 18 17  1  0
 19 15  1  0
 20 22  1  0
 20 21  1  0
 23 20  1  0
 24  3  1  0
 24 25  2  0
 25 26  1  0
 27 26  2  0
 28 27  1  0
 29 28  2  0
 29 24  1  0
  2 30  1  0
  5 31  1  0
  5 32  1  0
 10 33  1  0
 11 34  1  0
 17 35  1  0
 18 36  1  0
 25 37  1  0
 26 38  1  0
 27 39  1  0
 28 40  1  0
 29 41  1  0
M  ISO  8  30  14  33  14  34  14  35  14  36  14  37  14  38  14  39  14
M  ISO  2  40  14  41  14
M  END
>  <minimizedAffinity>  (1) 
-6.2543478

>  <minimizedRMSD>  (1) 
0.745056033

$$$$
