
     RDKit          3D

 45 48  0  0  0  0  0  0  0  0999 V2000
   37.4140   28.6970   42.9200 C   0  0  0  0  0  0  0  0  0  0  0  0
   38.3990   29.7190   43.0430 C   0  0  0  0  0  0  0  0  0  0  0  0
   38.5500   30.6090   41.9730 C   0  0  0  0  0  0  0  0  0  0  0  0
   37.7500   30.4380   40.8920 N   0  0  0  0  0  0  0  0  0  0  0  0
   36.8290   29.4570   40.8160 C   0  0  0  0  0  0  0  0  0  0  0  0
   36.6580   28.5880   41.8210 N   0  0  0  0  0  0  0  0  0  0  0  0
   36.0320   29.3570   39.6370 N   0  0  0  0  0  0  0  0  0  0  0  0
   34.7420   29.0690   39.7010 N   0  0  0  0  0  0  0  0  0  0  0  0
   34.1730   29.0210   38.5050 C   0  0  0  0  0  0  0  0  0  0  0  0
   35.1580   29.2940   37.6060 C   0  0  0  0  0  0  0  0  0  0  0  0
   36.3240   29.5040   38.3200 C   0  0  0  0  0  0  0  0  0  0  0  0
   37.6790   29.8220   37.9940 N   0  0  0  0  0  0  0  0  0  0  0  0
   38.4720   28.7130   37.9200 C   0  0  0  0  0  0  0  0  0  0  0  0
   39.8020   28.8710   37.6130 C   0  0  0  0  0  0  0  0  0  0  0  0
   40.3180   30.1370   37.3860 C   0  0  0  0  0  0  0  0  0  0  0  0
   41.6840   30.3350   37.0670 N   0  0  0  0  0  0  0  0  0  0  0  0
   39.4860   31.2120   37.4720 N   0  0  0  0  0  0  0  0  0  0  0  0
   38.1960   31.0320   37.7720 C   0  0  0  0  0  0  0  0  0  0  0  0
   37.3430   31.9830   37.8730 O   0  0  0  0  0  0  0  0  0  0  0  0
   40.7130   27.7820   37.5120 N   0  0  0  0  0  0  0  0  0  0  0  0
   42.0740   27.9960   37.0720 C   0  0  0  0  0  0  0  0  0  0  0  0
   42.5370   27.0620   36.0150 C   0  0  0  0  0  0  0  0  0  0  0  0
   41.9820   25.7540   36.0500 N   0  0  0  0  0  0  0  0  0  0  0  0
   40.6700   25.6140   36.5580 C   0  0  0  0  0  0  0  0  0  0  0  0
   40.3830   26.4050   37.8240 C   0  0  0  0  0  0  0  0  0  0  0  0
   37.2470   27.7540   44.0430 C   0  0  0  0  0  0  0  0  0  0  0  0
   36.7470   28.3700   45.1650 F   0  0  0  0  0  0  0  0  0  0  0  0
   38.4460   27.0990   44.3300 F   0  0  0  0  0  0  0  0  0  0  0  0
   36.3320   26.7840   43.6340 F   0  0  0  0  0  0  0  0  0  0  0  0
   39.0193   29.8057   43.9473 H   0  0  0  0  0  0  0  0  0  0  0  0
   39.2927   31.4197   42.0082 H   0  0  0  0  0  0  0  0  0  0  0  0
   33.1176   28.8043   38.2835 H   0  0  0  0  0  0  0  0  0  0  0  0
   35.0471   29.3393   36.5125 H   0  0  0  0  0  0  0  0  0  0  0  0
   38.0541   27.7120   38.1027 H   0  0  0  0  0  0  0  0  0  0  0  0
   42.3196   29.5272   37.0001 H   0  0  0  0  0  0  0  0  0  0  0  0
   42.0416   31.2867   36.9020 H   0  0  0  0  0  0  0  0  0  0  0  0
   42.1508   29.0214   36.6812 H   0  0  0  0  0  0  0  0  0  0  0  0
   42.7158   27.8181   37.9475 H   0  0  0  0  0  0  0  0  0  0  0  0
   43.6291   26.9663   36.1058 H   0  0  0  0  0  0  0  0  0  0  0  0
   42.1999   27.5008   35.0643 H   0  0  0  0  0  0  0  0  0  0  0  0
   41.9789   25.3944   35.0848 H   0  0  0  0  0  0  0  0  0  0  0  0
   39.9660   25.9466   35.7810 H   0  0  0  0  0  0  0  0  0  0  0  0
   40.5559   24.5533   36.8260 H   0  0  0  0  0  0  0  0  0  0  0  0
   41.0065   26.0400   38.6535 H   0  0  0  0  0  0  0  0  0  0  0  0
   39.3338   26.3009   38.1377 H   0  0  0  0  0  0  0  0  0  0  0  0
  1  2  2  0
  1 26  1  0
  3  2  1  0
  4  3  2  0
  5  4  1  0
  5  6  2  0
  6  1  1  0
  7  8  1  0
  7  5  1  0
  9  8  2  0
 10 11  2  0
 10  9  1  0
 11  7  1  0
 12 11  1  0
 13 12  1  0
 14 13  2  0
 15 17  2  0
 15 14  1  0
 16 15  1  0
 17 18  1  0
 18 19  2  0
 18 12  1  0
 20 14  1  0
 20 25  1  0
 21 20  1  0
 22 23  1  0
 22 21  1  0
 23 24  1  0
 24 25  1  0
 26 28  1  0
 26 27  1  0
 29 26  1  0
  2 30  1  0
  3 31  1  0
  9 32  1  0
 10 33  1  0
 13 34  1  0
 16 35  1  0
 16 36  1  0
 21 37  1  0
 21 38  1  0
 22 39  1  0
 22 40  1  0
 23 41  1  0
 24 42  1  0
 24 43  1  0
 25 44  1  0
 25 45  1  0
M  ISO  8  30  14  31  14  32  14  33  14  34  14  37  13  38  13  39  13
M  ISO  6  40  13  41   5  42  13  43  13  44  13  45  13
M  END
>  <minimizedAffinity>  (1) 
-6.24072933

>  <minimizedRMSD>  (1) 
0.137870684

$$$$
