
     RDKit          3D

 38 41  0  0  0  0  0  0  0  0999 V2000
   37.4050   28.6580   42.9140 C   0  0  0  0  0  0  0  0  0  0  0  0
   38.3880   29.6850   43.0260 C   0  0  0  0  0  0  0  0  0  0  0  0
   38.5230   30.5940   41.9690 C   0  0  0  0  0  0  0  0  0  0  0  0
   37.7010   30.4350   40.8970 N   0  0  0  0  0  0  0  0  0  0  0  0
   36.7870   29.4540   40.8300 C   0  0  0  0  0  0  0  0  0  0  0  0
   36.6300   28.5680   41.8210 N   0  0  0  0  0  0  0  0  0  0  0  0
   35.9650   29.3670   39.6560 N   0  0  0  0  0  0  0  0  0  0  0  0
   34.6860   29.0840   39.7470 N   0  0  0  0  0  0  0  0  0  0  0  0
   34.0850   29.0470   38.5590 C   0  0  0  0  0  0  0  0  0  0  0  0
   35.0620   29.3290   37.6460 C   0  0  0  0  0  0  0  0  0  0  0  0
   36.2450   29.5300   38.3380 C   0  0  0  0  0  0  0  0  0  0  0  0
   37.5880   29.8460   37.9970 N   0  0  0  0  0  0  0  0  0  0  0  0
   38.3690   28.7470   37.8330 C   0  0  0  0  0  0  0  0  0  0  0  0
   39.6950   28.9060   37.5010 C   0  0  0  0  0  0  0  0  0  0  0  0
   40.2140   30.1720   37.3400 C   0  0  0  0  0  0  0  0  0  0  0  0
   41.5670   30.3840   36.9990 N   0  0  0  0  0  0  0  0  0  0  0  0
   39.3960   31.2580   37.5140 N   0  0  0  0  0  0  0  0  0  0  0  0
   38.1030   31.0740   37.8380 C   0  0  0  0  0  0  0  0  0  0  0  0
   37.2790   32.0240   38.0160 O   0  0  0  0  0  0  0  0  0  0  0  0
   40.5520   27.7410   37.3200 C   0  0  0  0  0  0  0  0  0  0  0  0
   40.2540   26.6160   36.5970 C   0  0  0  0  0  0  0  0  0  0  0  0
   41.3300   25.7610   36.6830 C   0  0  0  0  0  0  0  0  0  0  0  0
   42.2690   26.3790   37.4560 N   0  0  0  0  0  0  0  0  0  0  0  0
   41.7790   27.5530   37.8210 N   0  0  0  0  0  0  0  0  0  0  0  0
   37.2530   27.6960   44.0200 C   0  0  0  0  0  0  0  0  0  0  0  0
   36.7560   28.2960   45.1550 F   0  0  0  0  0  0  0  0  0  0  0  0
   38.4780   27.0710   44.2960 F   0  0  0  0  0  0  0  0  0  0  0  0
   36.3490   26.7320   43.6130 F   0  0  0  0  0  0  0  0  0  0  0  0
   39.0243   29.7614   43.9201 H   0  0  0  0  0  0  0  0  0  0  0  0
   39.2651   31.4052   42.0044 H   0  0  0  0  0  0  0  0  0  0  0  0
   33.0251   28.8342   38.3555 H   0  0  0  0  0  0  0  0  0  0  0  0
   34.9320   29.3862   36.5552 H   0  0  0  0  0  0  0  0  0  0  0  0
   37.9459   27.7401   37.9642 H   0  0  0  0  0  0  0  0  0  0  0  0
   41.9254   31.3430   36.8857 H   0  0  0  0  0  0  0  0  0  0  0  0
   42.1961   29.5798   36.8635 H   0  0  0  0  0  0  0  0  0  0  0  0
   39.3207   26.4289   36.0456 H   0  0  0  0  0  0  0  0  0  0  0  0
   41.4161   24.7683   36.2170 H   0  0  0  0  0  0  0  0  0  0  0  0
   43.1926   26.0003   37.7098 H   0  0  0  0  0  0  0  0  0  0  0  0
  1  2  2  0
  1 25  1  0
  3  2  1  0
  4  3  2  0
  5  4  1  0
  5  6  2  0
  6  1  1  0
  7  8  1  0
  7  5  1  0
  9  8  2  0
 10 11  2  0
 10  9  1  0
 11  7  1  0
 12 11  1  0
 13 12  1  0
 14 13  2  0
 15 14  1  0
 15 17  2  0
 16 15  1  0
 17 18  1  0
 18 12  1  0
 18 19  2  0
 20 14  1  0
 20 24  2  0
 21 22  2  0
 21 20  1  0
 22 23  1  0
 23 24  1  0
 25 27  1  0
 25 26  1  0
 28 25  1  0
  2 29  1  0
  3 30  1  0
  9 31  1  0
 10 32  1  0
 13 33  1  0
 16 34  1  0
 16 35  1  0
 21 36  1  0
 22 37  1  0
 23 38  1  0
M  ISO  8  29  14  30  14  31  14  32  14  33  14  36  14  37  14  38   9
M  END
>  <minimizedAffinity>  (1) 
-6.23347425

>  <minimizedRMSD>  (1) 
0.0941692665

$$$$
