
     RDKit          3D

 36 39  0  0  0  0  0  0  0  0999 V2000
   37.4180   28.6730   42.9130 C   0  0  0  0  0  0  0  0  0  0  0  0
   38.4020   29.6910   43.0270 C   0  0  0  0  0  0  0  0  0  0  0  0
   38.5300   30.5860   41.9650 C   0  0  0  0  0  0  0  0  0  0  0  0
   37.7130   30.4260   40.9020 N   0  0  0  0  0  0  0  0  0  0  0  0
   36.7830   29.4400   40.8270 C   0  0  0  0  0  0  0  0  0  0  0  0
   36.6380   28.5730   41.8240 N   0  0  0  0  0  0  0  0  0  0  0  0
   35.9730   29.3620   39.6570 N   0  0  0  0  0  0  0  0  0  0  0  0
   34.6830   29.0760   39.7510 N   0  0  0  0  0  0  0  0  0  0  0  0
   34.0910   29.0480   38.5580 C   0  0  0  0  0  0  0  0  0  0  0  0
   35.0670   29.3340   37.6390 C   0  0  0  0  0  0  0  0  0  0  0  0
   36.2480   29.5310   38.3390 C   0  0  0  0  0  0  0  0  0  0  0  0
   37.5920   29.8500   37.9980 N   0  0  0  0  0  0  0  0  0  0  0  0
   38.3660   28.7370   37.8230 C   0  0  0  0  0  0  0  0  0  0  0  0
   39.6900   28.9020   37.4890 C   0  0  0  0  0  0  0  0  0  0  0  0
   40.2080   30.1700   37.3360 C   0  0  0  0  0  0  0  0  0  0  0  0
   41.5750   30.3780   36.9910 N   0  0  0  0  0  0  0  0  0  0  0  0
   39.4050   31.2440   37.5190 N   0  0  0  0  0  0  0  0  0  0  0  0
   38.1030   31.0730   37.8480 C   0  0  0  0  0  0  0  0  0  0  0  0
   37.2870   32.0250   38.0360 O   0  0  0  0  0  0  0  0  0  0  0  0
   40.5530   27.7440   37.2930 C   0  0  0  0  0  0  0  0  0  0  0  0
   41.7370   27.4960   37.8360 N   0  0  0  0  0  0  0  0  0  0  0  0
   42.1750   26.3520   37.4010 O   0  0  0  0  0  0  0  0  0  0  0  0
   41.3260   25.8110   36.5770 C   0  0  0  0  0  0  0  0  0  0  0  0
   40.2810   26.6850   36.4940 N   0  0  0  0  0  0  0  0  0  0  0  0
   37.2550   27.7060   44.0220 C   0  0  0  0  0  0  0  0  0  0  0  0
   36.7540   28.3060   45.1530 F   0  0  0  0  0  0  0  0  0  0  0  0
   38.4780   27.0790   44.3030 F   0  0  0  0  0  0  0  0  0  0  0  0
   36.3570   26.7270   43.6070 F   0  0  0  0  0  0  0  0  0  0  0  0
   39.0395   29.7705   43.9199 H   0  0  0  0  0  0  0  0  0  0  0  0
   39.2731   31.3966   41.9926 H   0  0  0  0  0  0  0  0  0  0  0  0
   33.0312   28.8375   38.3517 H   0  0  0  0  0  0  0  0  0  0  0  0
   34.9375   29.3958   36.5484 H   0  0  0  0  0  0  0  0  0  0  0  0
   37.9391   27.7308   37.9467 H   0  0  0  0  0  0  0  0  0  0  0  0
   41.9388   31.3355   36.8823 H   0  0  0  0  0  0  0  0  0  0  0  0
   42.1992   29.5709   36.8504 H   0  0  0  0  0  0  0  0  0  0  0  0
   41.4291   24.8482   36.0551 H   0  0  0  0  0  0  0  0  0  0  0  0
  1  2  2  0
  1 25  1  0
  3  2  1  0
  4  3  2  0
  5  4  1  0
  5  6  2  0
  6  1  1  0
  7  8  1  0
  7  5  1  0
  9  8  2  0
 10 11  2  0
 10  9  1  0
 11  7  1  0
 12 11  1  0
 13 12  1  0
 14 13  2  0
 15 14  1  0
 15 17  2  0
 16 15  1  0
 17 18  1  0
 18 12  1  0
 18 19  2  0
 20 14  1  0
 20 21  2  0
 22 21  1  0
 23 22  1  0
 24 23  2  0
 24 20  1  0
 25 27  1  0
 25 26  1  0
 28 25  1  0
  2 29  1  0
  3 30  1  0
  9 31  1  0
 10 32  1  0
 13 33  1  0
 16 34  1  0
 16 35  1  0
 23 36  1  0
M  ISO  6  29  14  30  14  31  14  32  14  33  14  36  14
M  END
>  <minimizedAffinity>  (1) 
-6.22405052

>  <minimizedRMSD>  (1) 
0.147632852

$$$$
