
     RDKit          3D

 32 34  0  0  0  0  0  0  0  0999 V2000
   37.4060   28.6830   42.9160 C   0  0  0  0  0  0  0  0  0  0  0  0
   38.3930   29.7010   43.0350 C   0  0  0  0  0  0  0  0  0  0  0  0
   38.5300   30.5980   41.9680 C   0  0  0  0  0  0  0  0  0  0  0  0
   37.7150   30.4360   40.8990 N   0  0  0  0  0  0  0  0  0  0  0  0
   36.7950   29.4590   40.8290 C   0  0  0  0  0  0  0  0  0  0  0  0
   36.6350   28.5780   41.8360 N   0  0  0  0  0  0  0  0  0  0  0  0
   35.9770   29.3670   39.6540 N   0  0  0  0  0  0  0  0  0  0  0  0
   34.6980   29.0800   39.7390 N   0  0  0  0  0  0  0  0  0  0  0  0
   34.1030   29.0380   38.5470 C   0  0  0  0  0  0  0  0  0  0  0  0
   35.0880   29.3230   37.6350 C   0  0  0  0  0  0  0  0  0  0  0  0
   36.2630   29.5280   38.3400 C   0  0  0  0  0  0  0  0  0  0  0  0
   37.6050   29.8480   38.0030 N   0  0  0  0  0  0  0  0  0  0  0  0
   38.3850   28.7420   37.8500 C   0  0  0  0  0  0  0  0  0  0  0  0
   39.7220   28.8920   37.5200 C   0  0  0  0  0  0  0  0  0  0  0  0
   40.2240   30.1730   37.3540 C   0  0  0  0  0  0  0  0  0  0  0  0
   41.5930   30.3630   37.0140 N   0  0  0  0  0  0  0  0  0  0  0  0
   39.4110   31.2500   37.5150 N   0  0  0  0  0  0  0  0  0  0  0  0
   38.1210   31.0690   37.8360 C   0  0  0  0  0  0  0  0  0  0  0  0
   37.2950   32.0210   38.0050 O   0  0  0  0  0  0  0  0  0  0  0  0
   40.5700   27.8040   37.3500 O   0  0  0  0  0  0  0  0  0  0  0  0
   37.2510   27.7300   44.0330 C   0  0  0  0  0  0  0  0  0  0  0  0
   36.7520   28.3350   45.1710 F   0  0  0  0  0  0  0  0  0  0  0  0
   38.4630   27.0810   44.3130 F   0  0  0  0  0  0  0  0  0  0  0  0
   36.3440   26.7540   43.6200 F   0  0  0  0  0  0  0  0  0  0  0  0
   39.0250   29.7806   43.9318 H   0  0  0  0  0  0  0  0  0  0  0  0
   39.2748   31.4070   41.9975 H   0  0  0  0  0  0  0  0  0  0  0  0
   33.0451   28.8206   38.3383 H   0  0  0  0  0  0  0  0  0  0  0  0
   34.9668   29.3786   36.5431 H   0  0  0  0  0  0  0  0  0  0  0  0
   37.9569   27.7381   37.9873 H   0  0  0  0  0  0  0  0  0  0  0  0
   42.2111   29.5482   36.8915 H   0  0  0  0  0  0  0  0  0  0  0  0
   41.9656   31.3153   36.8905 H   0  0  0  0  0  0  0  0  0  0  0  0
   41.5204   27.9493   37.1141 H   0  0  0  0  0  0  0  0  0  0  0  0
  1  2  2  0
  1 21  1  0
  3  2  1  0
  4  3  2  0
  5  4  1  0
  5  6  2  0
  6  1  1  0
  7  8  1  0
  7  5  1  0
  9  8  2  0
 10 11  2  0
 10  9  1  0
 11  7  1  0
 12 11  1  0
 13 12  1  0
 14 13  2  0
 15 17  2  0
 15 14  1  0
 16 15  1  0
 17 18  1  0
 18 12  1  0
 18 19  2  0
 20 14  1  0
 21 23  1  0
 21 22  1  0
 24 21  1  0
  2 25  1  0
  3 26  1  0
  9 27  1  0
 10 28  1  0
 13 29  1  0
 16 30  1  0
 16 31  1  0
 20 32  1  0
M  ISO  6  25  14  26  14  27  14  28  14  29  14  32   3
M  END
>  <minimizedAffinity>  (1) 
-6.08920145

>  <minimizedRMSD>  (1) 
0.0144849038

$$$$
