
     RDKit          3D

 34 36  0  0  0  0  0  0  0  0999 V2000
   37.4110   28.6790   42.9220 C   0  0  0  0  0  0  0  0  0  0  0  0
   38.3910   29.6950   43.0250 C   0  0  0  0  0  0  0  0  0  0  0  0
   38.5360   30.5930   41.9680 C   0  0  0  0  0  0  0  0  0  0  0  0
   37.7190   30.4330   40.8930 N   0  0  0  0  0  0  0  0  0  0  0  0
   36.7990   29.4570   40.8290 C   0  0  0  0  0  0  0  0  0  0  0  0
   36.6350   28.5770   41.8310 N   0  0  0  0  0  0  0  0  0  0  0  0
   35.9790   29.3650   39.6520 N   0  0  0  0  0  0  0  0  0  0  0  0
   34.6900   29.0810   39.7380 N   0  0  0  0  0  0  0  0  0  0  0  0
   34.1010   29.0410   38.5460 C   0  0  0  0  0  0  0  0  0  0  0  0
   35.0770   29.3170   37.6380 C   0  0  0  0  0  0  0  0  0  0  0  0
   36.2470   29.5180   38.3450 C   0  0  0  0  0  0  0  0  0  0  0  0
   37.6010   29.8350   37.9990 N   0  0  0  0  0  0  0  0  0  0  0  0
   38.3770   28.7290   37.8420 C   0  0  0  0  0  0  0  0  0  0  0  0
   39.7030   28.8790   37.5090 C   0  0  0  0  0  0  0  0  0  0  0  0
   40.2240   30.1390   37.3390 C   0  0  0  0  0  0  0  0  0  0  0  0
   41.5800   30.3490   36.9970 N   0  0  0  0  0  0  0  0  0  0  0  0
   39.4180   31.2230   37.5040 N   0  0  0  0  0  0  0  0  0  0  0  0
   38.1250   31.0600   37.8300 C   0  0  0  0  0  0  0  0  0  0  0  0
   37.2960   32.0100   38.0060 O   0  0  0  0  0  0  0  0  0  0  0  0
   40.5560   27.7000   37.3350 C   0  0  0  0  0  0  0  0  0  0  0  0
   40.2260   26.8360   36.4820 O   0  0  0  0  0  0  0  0  0  0  0  0
   41.7010   27.5590   38.1070 O   0  0  0  0  0  0  0  0  0  0  0  0
   37.2460   27.7230   44.0330 C   0  0  0  0  0  0  0  0  0  0  0  0
   36.7490   28.3170   45.1590 F   0  0  0  0  0  0  0  0  0  0  0  0
   38.4650   27.0830   44.3120 F   0  0  0  0  0  0  0  0  0  0  0  0
   36.3390   26.7510   43.6240 F   0  0  0  0  0  0  0  0  0  0  0  0
   39.0251   29.7746   43.9203 H   0  0  0  0  0  0  0  0  0  0  0  0
   39.2828   31.3999   42.0026 H   0  0  0  0  0  0  0  0  0  0  0  0
   33.0422   28.8284   38.3368 H   0  0  0  0  0  0  0  0  0  0  0  0
   34.9567   29.3701   36.5459 H   0  0  0  0  0  0  0  0  0  0  0  0
   37.9486   27.7253   37.9799 H   0  0  0  0  0  0  0  0  0  0  0  0
   42.2090   29.5438   36.8669 H   0  0  0  0  0  0  0  0  0  0  0  0
   41.9387   31.3072   36.8780 H   0  0  0  0  0  0  0  0  0  0  0  0
   42.2802   26.7642   37.9929 H   0  0  0  0  0  0  0  0  0  0  0  0
  1  2  2  0
  1 23  1  0
  3  2  1  0
  4  3  2  0
  5  4  1  0
  5  6  2  0
  6  1  1  0
  7  8  1  0
  7  5  1  0
  9  8  2  0
 10 11  2  0
 10  9  1  0
 11  7  1  0
 12 11  1  0
 13 12  1  0
 14 13  2  0
 15 17  2  0
 15 14  1  0
 16 15  1  0
 17 18  1  0
 18 12  1  0
 18 19  2  0
 20 14  1  0
 20 22  1  0
 21 20  2  0
 23 25  1  0
 23 24  1  0
 26 23  1  0
  2 27  1  0
  3 28  1  0
  9 29  1  0
 10 30  1  0
 13 31  1  0
 16 32  1  0
 16 33  1  0
 22 34  1  0
M  ISO  6  27  14  28  14  29  14  30  14  31  14  34   3
M  END
>  <minimizedAffinity>  (1) 
-6.03612423

>  <minimizedRMSD>  (1) 
0.0319987461

$$$$
