
     RDKit          3D

 37 39  0  0  0  0  0  0  0  0999 V2000
   37.4170   28.6770   42.9080 C   0  0  0  0  0  0  0  0  0  0  0  0
   38.3990   29.7030   43.0300 C   0  0  0  0  0  0  0  0  0  0  0  0
   38.5320   30.6060   41.9690 C   0  0  0  0  0  0  0  0  0  0  0  0
   37.7140   30.4420   40.8940 N   0  0  0  0  0  0  0  0  0  0  0  0
   36.7890   29.4480   40.8190 C   0  0  0  0  0  0  0  0  0  0  0  0
   36.6400   28.5650   41.8250 N   0  0  0  0  0  0  0  0  0  0  0  0
   35.9840   29.3650   39.6500 N   0  0  0  0  0  0  0  0  0  0  0  0
   34.6930   29.0740   39.7390 N   0  0  0  0  0  0  0  0  0  0  0  0
   34.1050   29.0420   38.5460 C   0  0  0  0  0  0  0  0  0  0  0  0
   35.0750   29.3280   37.6410 C   0  0  0  0  0  0  0  0  0  0  0  0
   36.2520   29.5300   38.3380 C   0  0  0  0  0  0  0  0  0  0  0  0
   37.5980   29.8540   37.9980 N   0  0  0  0  0  0  0  0  0  0  0  0
   38.3830   28.7450   37.8310 C   0  0  0  0  0  0  0  0  0  0  0  0
   39.7070   28.9100   37.4990 C   0  0  0  0  0  0  0  0  0  0  0  0
   40.2230   30.1840   37.3410 C   0  0  0  0  0  0  0  0  0  0  0  0
   41.5820   30.3800   37.0010 N   0  0  0  0  0  0  0  0  0  0  0  0
   39.4110   31.2500   37.5160 N   0  0  0  0  0  0  0  0  0  0  0  0
   38.1240   31.0740   37.8380 C   0  0  0  0  0  0  0  0  0  0  0  0
   37.2900   32.0220   38.0220 O   0  0  0  0  0  0  0  0  0  0  0  0
   40.6390   27.7730   37.2970 C   0  0  0  0  0  0  0  0  0  0  0  0
   39.9490   26.5960   36.6160 C   0  0  0  0  0  0  0  0  0  0  0  0
   37.2550   27.7040   44.0190 C   0  0  0  0  0  0  0  0  0  0  0  0
   36.7540   28.3190   45.1500 F   0  0  0  0  0  0  0  0  0  0  0  0
   38.4730   27.0790   44.2950 F   0  0  0  0  0  0  0  0  0  0  0  0
   36.3540   26.7410   43.6100 F   0  0  0  0  0  0  0  0  0  0  0  0
   39.0305   29.7823   43.9272 H   0  0  0  0  0  0  0  0  0  0  0  0
   39.2716   31.4195   42.0029 H   0  0  0  0  0  0  0  0  0  0  0  0
   33.0469   28.8272   38.3357 H   0  0  0  0  0  0  0  0  0  0  0  0
   34.9479   29.3882   36.5500 H   0  0  0  0  0  0  0  0  0  0  0  0
   37.9610   27.7374   37.9604 H   0  0  0  0  0  0  0  0  0  0  0  0
   41.9518   31.3345   36.8868 H   0  0  0  0  0  0  0  0  0  0  0  0
   42.2018   29.5682   36.8677 H   0  0  0  0  0  0  0  0  0  0  0  0
   41.4784   28.1066   36.6692 H   0  0  0  0  0  0  0  0  0  0  0  0
   40.9943   27.4399   38.2833 H   0  0  0  0  0  0  0  0  0  0  0  0
   39.5488   25.9134   37.3802 H   0  0  0  0  0  0  0  0  0  0  0  0
   39.1254   26.9670   35.9883 H   0  0  0  0  0  0  0  0  0  0  0  0
   40.6750   26.0585   35.9883 H   0  0  0  0  0  0  0  0  0  0  0  0
  1  2  2  0
  1 22  1  0
  3  2  1  0
  4  3  2  0
  5  4  1  0
  5  6  2  0
  6  1  1  0
  7  8  1  0
  7  5  1  0
  9  8  2  0
 10 11  2  0
 10  9  1  0
 11  7  1  0
 12 11  1  0
 13 12  1  0
 14 13  2  0
 15 14  1  0
 15 17  2  0
 16 15  1  0
 17 18  1  0
 18 12  1  0
 18 19  2  0
 20 14  1  0
 21 20  1  0
 22 24  1  0
 22 23  1  0
 25 22  1  0
  2 26  1  0
  3 27  1  0
  9 28  1  0
 10 29  1  0
 13 30  1  0
 16 31  1  0
 16 32  1  0
 20 33  1  0
 20 34  1  0
 21 35  1  0
 21 36  1  0
 21 37  1  0
M  ISO  8  26  14  27  14  28  14  29  14  30  14  33   8  34   8  35   8
M  ISO  2  36   8  37   8
M  END
>  <minimizedAffinity>  (1) 
-6.0169487

>  <minimizedRMSD>  (1) 
0.0386356078

$$$$
