
     RDKit          3D

 38 41  0  0  0  0  0  0  0  0999 V2000
   37.3320   28.6820   43.0190 C   0  0  0  0  0  0  0  0  0  0  0  0
   38.3650   29.6480   43.0990 C   0  0  0  0  0  0  0  0  0  0  0  0
   38.5410   30.5070   42.0010 C   0  0  0  0  0  0  0  0  0  0  0  0
   37.7040   30.3450   40.9420 N   0  0  0  0  0  0  0  0  0  0  0  0
   36.7320   29.4070   40.9130 C   0  0  0  0  0  0  0  0  0  0  0  0
   36.5480   28.5820   41.9450 N   0  0  0  0  0  0  0  0  0  0  0  0
   35.9000   29.3170   39.7470 N   0  0  0  0  0  0  0  0  0  0  0  0
   34.6020   29.1000   39.8540 N   0  0  0  0  0  0  0  0  0  0  0  0
   34.0030   29.0490   38.6620 C   0  0  0  0  0  0  0  0  0  0  0  0
   34.9810   29.2470   37.7370 C   0  0  0  0  0  0  0  0  0  0  0  0
   36.1730   29.4150   38.4310 C   0  0  0  0  0  0  0  0  0  0  0  0
   37.5240   29.6510   38.0680 N   0  0  0  0  0  0  0  0  0  0  0  0
   38.2680   28.5200   38.0030 C   0  0  0  0  0  0  0  0  0  0  0  0
   39.5970   28.6000   37.6640 C   0  0  0  0  0  0  0  0  0  0  0  0
   40.1690   29.8300   37.3890 C   0  0  0  0  0  0  0  0  0  0  0  0
   41.5310   29.9410   37.0380 N   0  0  0  0  0  0  0  0  0  0  0  0
   39.3930   30.9390   37.4650 N   0  0  0  0  0  0  0  0  0  0  0  0
   38.1000   30.8440   37.7980 C   0  0  0  0  0  0  0  0  0  0  0  0
   37.2970   31.8370   37.8910 O   0  0  0  0  0  0  0  0  0  0  0  0
   40.4930   27.4150   37.5670 C   0  0  0  0  0  0  0  0  0  0  0  0
   40.0520   26.4050   36.4990 C   0  0  0  0  0  0  0  0  0  0  0  0
   40.0010   26.0650   37.9650 C   0  0  0  0  0  0  0  0  0  0  0  0
   37.1360   27.7690   44.1720 C   0  0  0  0  0  0  0  0  0  0  0  0
   36.6810   28.4380   45.2800 F   0  0  0  0  0  0  0  0  0  0  0  0
   38.3300   27.0910   44.4660 F   0  0  0  0  0  0  0  0  0  0  0  0
   36.1830   26.8330   43.8030 F   0  0  0  0  0  0  0  0  0  0  0  0
   39.0067   29.7230   43.9893 H   0  0  0  0  0  0  0  0  0  0  0  0
   39.3243   31.2793   41.9984 H   0  0  0  0  0  0  0  0  0  0  0  0
   32.9336   28.8807   38.4669 H   0  0  0  0  0  0  0  0  0  0  0  0
   34.8522   29.2698   36.6448 H   0  0  0  0  0  0  0  0  0  0  0  0
   37.8104   27.5436   38.2204 H   0  0  0  0  0  0  0  0  0  0  0  0
   42.1186   29.0970   36.9809 H   0  0  0  0  0  0  0  0  0  0  0  0
   41.9378   30.8661   36.8388 H   0  0  0  0  0  0  0  0  0  0  0  0
   41.3955   27.9832   37.8363 H   0  0  0  0  0  0  0  0  0  0  0  0
   39.1212   26.5663   35.9355 H   0  0  0  0  0  0  0  0  0  0  0  0
   40.5101   25.9576   35.6046 H   0  0  0  0  0  0  0  0  0  0  0  0
   40.7050   25.3280   38.3789 H   0  0  0  0  0  0  0  0  0  0  0  0
   39.2138   25.7033   38.6428 H   0  0  0  0  0  0  0  0  0  0  0  0
  1  2  2  0
  1 23  1  0
  3  2  1  0
  4  3  2  0
  5  4  1  0
  5  6  2  0
  6  1  1  0
  7  8  1  0
  7  5  1  0
  9  8  2  0
 10 11  2  0
 10  9  1  0
 11  7  1  0
 12 11  1  0
 13 12  1  0
 14 13  2  0
 15 17  2  0
 15 14  1  0
 16 15  1  0
 17 18  1  0
 18 19  2  0
 18 12  1  0
 20 14  1  0
 20 22  1  0
 21 20  1  0
 21 22  1  0
 23 25  1  0
 23 24  1  0
 26 23  1  0
  2 27  1  0
  3 28  1  0
  9 29  1  0
 10 30  1  0
 13 31  1  0
 16 32  1  0
 16 33  1  0
 20 34  1  0
 21 35  1  0
 21 36  1  0
 22 37  1  0
 22 38  1  0
M  ISO  8  27  14  28  14  29  14  30  14  31  14  34  13  35  13  36  13
M  ISO  2  37  13  38  13
M  END
>  <minimizedAffinity>  (1) 
-6.00979233

>  <minimizedRMSD>  (1) 
0.341346025

$$$$
