
     RDKit          3D

 35 37  0  0  1  0  0  0  0  0999 V2000
   36.7260   30.6850   41.2210 C   0  0  0  0  0  0  0  0  0  0  0  0
   37.6210   29.8440   41.9190 C   0  0  0  0  0  0  0  0  0  0  0  0
   37.3310   28.4610   41.8810 C   0  0  0  0  0  0  0  0  0  0  0  0
   36.2410   28.0390   41.1940 N   0  0  0  0  0  0  0  0  0  0  0  0
   35.4260   28.8950   40.5470 C   0  0  0  0  0  0  0  0  0  0  0  0
   35.6680   30.2300   40.5600 N   0  0  0  0  0  0  0  0  0  0  0  0
   38.1340   27.4780   42.5330 N   0  0  0  0  0  0  0  0  0  0  0  0
   38.4420   27.3660   43.9420 C   0  0  0  0  0  0  0  0  0  0  0  0
   39.7640   26.6380   43.9670 C   0  0  0  0  0  0  0  0  0  0  0  0
   39.5850   25.6530   42.8330 C   0  0  0  0  0  0  0  0  0  0  0  0
   38.7780   26.4150   41.8280 C   0  0  1  0  0  0  0  0  0  0  0  0
   36.2030   23.9170   39.4620 C   0  0  0  0  0  0  0  0  0  0  0  0
   36.1240   23.8800   40.8200 C   0  0  0  0  0  0  0  0  0  0  0  0
   36.9460   24.6790   41.6230 C   0  0  0  0  0  0  0  0  0  0  0  0
   37.8670   25.5340   41.0700 C   0  0  0  0  0  0  0  0  0  0  0  0
   37.8900   25.5170   39.6750 C   0  0  0  0  0  0  0  0  0  0  0  0
   37.1010   24.7480   38.8530 C   0  0  0  0  0  0  0  0  0  0  0  0
   35.1690   22.9130   38.4820 S   0  0  0  0  0  0  0  0  0  0  0  0
   35.4650   21.4700   38.8370 O   0  0  0  0  0  0  0  0  0  0  0  0
   33.7320   23.2560   38.7300 O   0  0  0  0  0  0  0  0  0  0  0  0
   36.9145   31.7687   41.2252 H   0  0  0  0  0  0  0  0  0  0  0  0
   38.4922   30.2418   42.4601 H   0  0  0  0  0  0  0  0  0  0  0  0
   34.5534   28.5066   40.0014 H   0  0  0  0  0  0  0  0  0  0  0  0
   38.5340   28.3605   44.4029 H   0  0  0  0  0  0  0  0  0  0  0  0
   37.6578   26.8415   44.5076 H   0  0  0  0  0  0  0  0  0  0  0  0
   40.6037   27.3225   43.7764 H   0  0  0  0  0  0  0  0  0  0  0  0
   40.0016   26.1712   44.9343 H   0  0  0  0  0  0  0  0  0  0  0  0
   40.5575   25.3571   42.4127 H   0  0  0  0  0  0  0  0  0  0  0  0
   39.0991   24.7189   43.1513 H   0  0  0  0  0  0  0  0  0  0  0  0
   39.4146   26.8504   41.0437 H   0  0  0  0  0  0  0  0  0  0  0  0
   35.3972   23.2065   41.2977 H   0  0  0  0  0  0  0  0  0  0  0  0
   36.8524   24.6209   42.7175 H   0  0  0  0  0  0  0  0  0  0  0  0
   38.6119   26.1860   39.1838 H   0  0  0  0  0  0  0  0  0  0  0  0
   37.1882   24.7990   37.7576 H   0  0  0  0  0  0  0  0  0  0  0  0
   35.4056   23.1172   37.1481 H   0  0  0  0  0  0  0  0  0  0  0  0
  1  2  2  0
  3  2  1  0
  3  7  1  0
  4  3  2  0
  5  6  2  0
  5  4  1  0
  6  1  1  0
  7  8  1  0
  8  9  1  0
 10  9  1  0
 11  7  1  0
 11 10  1  0
 12 13  2  0
 13 14  1  0
 15 14  2  0
 15 11  1  0
 16 15  1  0
 17 12  1  0
 17 16  2  0
 18 20  2  0
 18 19  2  0
 18 12  1  0
  1 21  1  0
  2 22  1  0
  5 23  1  0
  8 24  1  0
  8 25  1  0
  9 26  1  0
  9 27  1  0
 10 28  1  0
 10 29  1  0
 11 30  1  6
 13 31  1  0
 14 32  1  0
 16 33  1  0
 17 34  1  0
 18 35  1  0
M  ISO  8  21  14  22  14  23  14  24  13  25  13  26  13  27  13  28  13
M  ISO  7  29  13  30  13  31  14  32  14  33  14  34  14  35  11
M  END
>  <minimizedAffinity>  (1) 
-5.06945658

>  <minimizedRMSD>  (1) 
0.550882339

$$$$
