
     RDKit          3D

 35 37  0  0  1  0  0  0  0  0999 V2000
   36.6310   30.7190   41.2260 C   0  0  0  0  0  0  0  0  0  0  0  0
   37.5390   29.8580   41.8870 C   0  0  0  0  0  0  0  0  0  0  0  0
   37.2940   28.4860   41.7750 C   0  0  0  0  0  0  0  0  0  0  0  0
   36.2220   28.1010   41.0520 N   0  0  0  0  0  0  0  0  0  0  0  0
   35.3740   28.9290   40.4340 C   0  0  0  0  0  0  0  0  0  0  0  0
   35.5940   30.2690   40.5320 N   0  0  0  0  0  0  0  0  0  0  0  0
   38.1100   27.4800   42.3770 N   0  0  0  0  0  0  0  0  0  0  0  0
   38.3890   27.2840   43.7700 C   0  0  0  0  0  0  0  0  0  0  0  0
   39.7000   26.5500   43.7910 C   0  0  0  0  0  0  0  0  0  0  0  0
   39.5820   25.6610   42.5860 C   0  0  0  0  0  0  0  0  0  0  0  0
   38.7930   26.4800   41.6190 C   0  0  1  0  0  0  0  0  0  0  0  0
   37.8400   25.7110   40.8310 N   0  0  0  0  0  0  0  0  0  0  0  0
   37.6690   25.8820   39.4920 C   0  0  0  0  0  0  0  0  0  0  0  0
   36.7540   25.1310   38.7830 C   0  0  0  0  0  0  0  0  0  0  0  0
   36.6420   25.3950   37.3140 C   0  0  0  0  0  0  0  0  0  0  0  0
   35.9860   24.1790   39.4330 C   0  0  0  0  0  0  0  0  0  0  0  0
   35.1530   23.5000   38.7730 O   0  0  0  0  0  0  0  0  0  0  0  0
   36.1550   24.0100   40.7580 N   0  0  0  0  0  0  0  0  0  0  0  0
   37.0590   24.7650   41.4090 C   0  0  0  0  0  0  0  0  0  0  0  0
   37.2200   24.6070   42.6570 O   0  0  0  0  0  0  0  0  0  0  0  0
   36.7917   31.8053   41.2903 H   0  0  0  0  0  0  0  0  0  0  0  0
   38.3935   30.2481   42.4594 H   0  0  0  0  0  0  0  0  0  0  0  0
   34.5204   28.5378   39.8610 H   0  0  0  0  0  0  0  0  0  0  0  0
   38.4758   28.2500   44.2889 H   0  0  0  0  0  0  0  0  0  0  0  0
   37.5900   26.7283   44.2827 H   0  0  0  0  0  0  0  0  0  0  0  0
   40.5478   27.2441   43.6937 H   0  0  0  0  0  0  0  0  0  0  0  0
   39.8866   26.0039   44.7274 H   0  0  0  0  0  0  0  0  0  0  0  0
   40.5745   25.4198   42.1776 H   0  0  0  0  0  0  0  0  0  0  0  0
   39.1077   24.6949   42.8134 H   0  0  0  0  0  0  0  0  0  0  0  0
   39.4884   26.9138   40.8853 H   0  0  0  0  0  0  0  0  0  0  0  0
   38.2728   26.6346   38.9637 H   0  0  0  0  0  0  0  0  0  0  0  0
   36.2170   26.3967   37.1528 H   0  0  0  0  0  0  0  0  0  0  0  0
   37.6401   25.3419   36.8548 H   0  0  0  0  0  0  0  0  0  0  0  0
   35.9865   24.6404   36.8548 H   0  0  0  0  0  0  0  0  0  0  0  0
   35.5980   23.3099   41.2683 H   0  0  0  0  0  0  0  0  0  0  0  0
  1  2  2  0
  3  2  1  0
  3  7  1  0
  4  3  2  0
  5  6  2  0
  5  4  1  0
  6  1  1  0
  7  8  1  0
  8  9  1  0
 10  9  1  0
 11  7  1  0
 11 10  1  0
 12 19  1  0
 12 11  1  0
 13 12  1  0
 14 16  1  0
 14 13  2  0
 15 14  1  0
 16 18  1  0
 17 16  2  0
 18 19  1  0
 19 20  2  0
  1 21  1  0
  2 22  1  0
  5 23  1  0
  8 24  1  0
  8 25  1  0
  9 26  1  0
  9 27  1  0
 10 28  1  0
 10 29  1  0
 11 30  1  6
 13 31  1  0
 15 32  1  0
 15 33  1  0
 15 34  1  0
 18 35  1  0
M  ISO  8  21  14  22  14  23  14  24  13  25  13  26  13  27  13  28  13
M  ISO  7  29  13  30  13  31  14  32   8  33   8  34   8  35   9
M  END
>  <minimizedAffinity>  (1) 
-5.03333664

>  <minimizedRMSD>  (1) 
0.750351846

$$$$
