
     RDKit          3D

 31 33  0  0  1  0  0  0  0  0999 V2000
   36.7220   30.6590   41.2250 C   0  0  0  0  0  0  0  0  0  0  0  0
   37.6070   29.8180   41.9110 C   0  0  0  0  0  0  0  0  0  0  0  0
   37.3720   28.4440   41.8770 C   0  0  0  0  0  0  0  0  0  0  0  0
   36.2910   28.0100   41.1730 N   0  0  0  0  0  0  0  0  0  0  0  0
   35.4600   28.8380   40.5240 C   0  0  0  0  0  0  0  0  0  0  0  0
   35.6740   30.1680   40.5490 N   0  0  0  0  0  0  0  0  0  0  0  0
   38.1840   27.4750   42.5260 N   0  0  0  0  0  0  0  0  0  0  0  0
   38.4780   27.3660   43.9450 C   0  0  0  0  0  0  0  0  0  0  0  0
   39.8020   26.6540   43.9810 C   0  0  0  0  0  0  0  0  0  0  0  0
   39.6690   25.6760   42.8390 C   0  0  0  0  0  0  0  0  0  0  0  0
   38.8560   26.4220   41.8350 C   0  0  1  0  0  0  0  0  0  0  0  0
   37.9600   25.5470   41.0410 C   0  0  0  0  0  0  0  0  0  0  0  0
   37.0050   24.6790   41.5790 C   0  0  0  0  0  0  0  0  0  0  0  0
   36.2190   23.9050   40.7380 C   0  0  0  0  0  0  0  0  0  0  0  0
   36.3770   23.9900   39.3740 C   0  0  0  0  0  0  0  0  0  0  0  0
   37.3430   24.8710   38.8740 C   0  0  0  0  0  0  0  0  0  0  0  0
   38.0850   25.6040   39.7230 N   0  0  0  0  0  0  0  0  0  0  0  0
   36.8906   31.7459   41.2413 H   0  0  0  0  0  0  0  0  0  0  0  0
   38.4650   30.2305   42.4622 H   0  0  0  0  0  0  0  0  0  0  0  0
   34.6015   28.4306   39.9699 H   0  0  0  0  0  0  0  0  0  0  0  0
   38.5551   28.3612   44.4072 H   0  0  0  0  0  0  0  0  0  0  0  0
   37.6931   26.8349   44.5034 H   0  0  0  0  0  0  0  0  0  0  0  0
   40.6351   27.3524   43.8131 H   0  0  0  0  0  0  0  0  0  0  0  0
   40.0208   26.1770   44.9477 H   0  0  0  0  0  0  0  0  0  0  0  0
   40.6555   25.4133   42.4293 H   0  0  0  0  0  0  0  0  0  0  0  0
   39.2083   24.7240   43.1415 H   0  0  0  0  0  0  0  0  0  0  0  0
   39.5113   26.8578   41.0665 H   0  0  0  0  0  0  0  0  0  0  0  0
   36.8769   24.6099   42.6693 H   0  0  0  0  0  0  0  0  0  0  0  0
   35.4682   23.2222   41.1624 H   0  0  0  0  0  0  0  0  0  0  0  0
   35.7610   23.3822   38.6949 H   0  0  0  0  0  0  0  0  0  0  0  0
   37.4950   24.9636   37.7885 H   0  0  0  0  0  0  0  0  0  0  0  0
  1  2  2  0
  3  2  1  0
  3  7  1  0
  4  3  2  0
  5  6  2  0
  5  4  1  0
  6  1  1  0
  7  8  1  0
  8  9  1  0
 10  9  1  0
 11  7  1  0
 11 10  1  0
 12 13  2  0
 12 11  1  0
 14 13  1  0
 15 14  2  0
 16 15  1  0
 16 17  2  0
 17 12  1  0
  1 18  1  0
  2 19  1  0
  5 20  1  0
  8 21  1  0
  8 22  1  0
  9 23  1  0
  9 24  1  0
 10 25  1  0
 10 26  1  0
 11 27  1  6
 13 28  1  0
 14 29  1  0
 15 30  1  0
 16 31  1  0
M  ISO  8  18  14  19  14  20  14  21  13  22  13  23  13  24  13  25  13
M  ISO  6  26  13  27  13  28  14  29  14  30  14  31  14
M  END
>  <minimizedAffinity>  (1) 
-4.93682337

>  <minimizedRMSD>  (1) 
0.750781476

$$$$
