
     RDKit          3D

 34 36  0  0  1  0  0  0  0  0999 V2000
   36.7370   30.7930   41.1430 C   0  0  0  0  0  0  0  0  0  0  0  0
   37.5770   29.9020   41.8230 C   0  0  0  0  0  0  0  0  0  0  0  0
   37.2600   28.5440   41.8720 C   0  0  0  0  0  0  0  0  0  0  0  0
   36.1270   28.1800   41.2390 N   0  0  0  0  0  0  0  0  0  0  0  0
   35.3190   29.0280   40.5870 C   0  0  0  0  0  0  0  0  0  0  0  0
   35.6410   30.3480   40.5470 N   0  0  0  0  0  0  0  0  0  0  0  0
   38.0220   27.5480   42.5300 N   0  0  0  0  0  0  0  0  0  0  0  0
   38.3790   27.5140   43.9420 C   0  0  0  0  0  0  0  0  0  0  0  0
   39.6350   26.6860   43.9690 C   0  0  0  0  0  0  0  0  0  0  0  0
   39.3570   25.6560   42.8890 C   0  0  0  0  0  0  0  0  0  0  0  0
   38.5610   26.4090   41.8820 C   0  0  1  0  0  0  0  0  0  0  0  0
   37.5620   25.6280   41.2090 N   0  0  0  0  0  0  0  0  0  0  0  0
   37.8720   25.3300   39.8520 C   0  0  0  0  0  0  0  0  0  0  0  0
   37.2020   23.9990   39.5910 C   0  0  0  0  0  0  0  0  0  0  0  0
   37.5070   23.2780   40.9090 C   0  0  0  0  0  0  0  0  0  0  0  0
   37.1990   24.4190   41.8880 C   0  0  0  0  0  0  0  0  0  0  0  0
   36.9877   31.8633   41.1039 H   0  0  0  0  0  0  0  0  0  0  0  0
   38.4865   30.2728   42.3183 H   0  0  0  0  0  0  0  0  0  0  0  0
   34.4082   28.6608   40.0913 H   0  0  0  0  0  0  0  0  0  0  0  0
   38.5687   28.5280   44.3238 H   0  0  0  0  0  0  0  0  0  0  0  0
   37.5803   27.1002   44.5752 H   0  0  0  0  0  0  0  0  0  0  0  0
   40.5192   27.2929   43.7244 H   0  0  0  0  0  0  0  0  0  0  0  0
   39.8564   26.2479   44.9534 H   0  0  0  0  0  0  0  0  0  0  0  0
   40.2948   25.2846   42.4501 H   0  0  0  0  0  0  0  0  0  0  0  0
   38.8319   24.7681   43.2709 H   0  0  0  0  0  0  0  0  0  0  0  0
   39.2284   26.7125   41.0620 H   0  0  0  0  0  0  0  0  0  0  0  0
   37.4702   26.1049   39.1827 H   0  0  0  0  0  0  0  0  0  0  0  0
   38.9562   25.2941   39.6700 H   0  0  0  0  0  0  0  0  0  0  0  0
   36.1198   24.1124   39.4297 H   0  0  0  0  0  0  0  0  0  0  0  0
   37.5506   23.4764   38.6880 H   0  0  0  0  0  0  0  0  0  0  0  0
   36.8482   22.4112   41.0663 H   0  0  0  0  0  0  0  0  0  0  0  0
   38.5162   22.8476   40.9887 H   0  0  0  0  0  0  0  0  0  0  0  0
   37.7912   24.3042   42.8079 H   0  0  0  0  0  0  0  0  0  0  0  0
   36.1391   24.4237   42.1822 H   0  0  0  0  0  0  0  0  0  0  0  0
  1  2  2  0
  2  3  1  0
  3  7  1  0
  4  3  2  0
  5  4  1  0
  6  5  2  0
  6  1  1  0
  7  8  1  0
  8  9  1  0
 10  9  1  0
 11  7  1  0
 11 10  1  0
 12 13  1  0
 12 11  1  0
 12 16  1  0
 14 13  1  0
 14 15  1  0
 15 16  1  0
  1 17  1  0
  2 18  1  0
  5 19  1  0
  8 20  1  0
  8 21  1  0
  9 22  1  0
  9 23  1  0
 10 24  1  0
 10 25  1  0
 11 26  1  6
 13 27  1  0
 13 28  1  0
 14 29  1  0
 14 30  1  0
 15 31  1  0
 15 32  1  0
 16 33  1  0
 16 34  1  0
M  ISO  8  17  14  18  14  19  14  20  13  21  13  22  13  23  13  24  13
M  ISO  8  25  13  26  13  27  13  28  13  29  13  30  13  31  13  32  13
M  ISO  2  33  13  34  13
M  END
>  <minimizedAffinity>  (1) 
-4.70630884

>  <minimizedRMSD>  (1) 
0.587006748

$$$$
