
     RDKit          3D

 29 31  0  0  1  0  0  0  0  0999 V2000
   36.7590   30.6720   41.1900 C   0  0  0  0  0  0  0  0  0  0  0  0
   37.6490   29.8280   41.8970 C   0  0  0  0  0  0  0  0  0  0  0  0
   37.3390   28.4490   41.8910 C   0  0  0  0  0  0  0  0  0  0  0  0
   36.2400   28.0280   41.2320 N   0  0  0  0  0  0  0  0  0  0  0  0
   35.4230   28.8730   40.5740 C   0  0  0  0  0  0  0  0  0  0  0  0
   35.6820   30.1890   40.5540 N   0  0  0  0  0  0  0  0  0  0  0  0
   38.1590   27.4890   42.5640 N   0  0  0  0  0  0  0  0  0  0  0  0
   38.5020   27.4000   43.9490 C   0  0  0  0  0  0  0  0  0  0  0  0
   39.7800   26.6100   43.9660 C   0  0  0  0  0  0  0  0  0  0  0  0
   39.5660   25.6280   42.8580 C   0  0  0  0  0  0  0  0  0  0  0  0
   38.7850   26.4060   41.8430 C   0  0  1  0  0  0  0  0  0  0  0  0
   37.8650   25.5440   41.1040 C   0  0  0  0  0  0  0  0  0  0  0  0
   36.9850   24.6290   41.6910 C   0  0  0  0  0  0  0  0  0  0  0  0
   36.2710   23.9900   40.6920 C   0  0  0  0  0  0  0  0  0  0  0  0
   36.7360   24.5310   39.5630 N   0  0  0  0  0  0  0  0  0  0  0  0
   37.6730   25.4450   39.7910 N   0  0  0  0  0  0  0  0  0  0  0  0
   36.9565   31.7538   41.1617 H   0  0  0  0  0  0  0  0  0  0  0  0
   38.5317   30.2230   42.4212 H   0  0  0  0  0  0  0  0  0  0  0  0
   34.5385   28.4817   40.0501 H   0  0  0  0  0  0  0  0  0  0  0  0
   38.6574   28.4014   44.3769 H   0  0  0  0  0  0  0  0  0  0  0  0
   37.7091   26.9288   44.5485 H   0  0  0  0  0  0  0  0  0  0  0  0
   40.6486   27.2541   43.7645 H   0  0  0  0  0  0  0  0  0  0  0  0
   39.9917   26.1378   44.9367 H   0  0  0  0  0  0  0  0  0  0  0  0
   40.5265   25.2914   42.4407 H   0  0  0  0  0  0  0  0  0  0  0  0
   39.0471   24.7164   43.1893 H   0  0  0  0  0  0  0  0  0  0  0  0
   39.4231   26.8286   41.0529 H   0  0  0  0  0  0  0  0  0  0  0  0
   36.8778   24.4469   42.7705 H   0  0  0  0  0  0  0  0  0  0  0  0
   35.4983   23.2149   40.8026 H   0  0  0  0  0  0  0  0  0  0  0  0
   36.4060   24.2696   38.6230 H   0  0  0  0  0  0  0  0  0  0  0  0
  1  2  2  0
  3  2  1  0
  3  7  1  0
  4  3  2  0
  5  4  1  0
  6  5  2  0
  6  1  1  0
  7  8  1  0
  8  9  1  0
 10  9  1  0
 11  7  1  0
 11 10  1  0
 12 13  1  0
 12 11  1  0
 14 13  2  0
 15 16  1  0
 15 14  1  0
 16 12  2  0
  1 17  1  0
  2 18  1  0
  5 19  1  0
  8 20  1  0
  8 21  1  0
  9 22  1  0
  9 23  1  0
 10 24  1  0
 10 25  1  0
 11 26  1  6
 13 27  1  0
 14 28  1  0
 15 29  1  0
M  ISO  8  17  14  18  14  19  14  20  13  21  13  22  13  23  13  24  13
M  ISO  5  25  13  26  13  27  14  28  14  29   9
M  END
>  <minimizedAffinity>  (1) 
-4.66900492

>  <minimizedRMSD>  (1) 
0.413413316

$$$$
