
     RDKit          3D

 29 31  0  0  1  0  0  0  0  0999 V2000
   36.8390   30.6260   41.1800 C   0  0  0  0  0  0  0  0  0  0  0  0
   37.7010   29.7680   41.8740 C   0  0  0  0  0  0  0  0  0  0  0  0
   37.3980   28.4050   41.9490 C   0  0  0  0  0  0  0  0  0  0  0  0
   36.2580   27.9770   41.3320 N   0  0  0  0  0  0  0  0  0  0  0  0
   35.4580   28.8430   40.6740 C   0  0  0  0  0  0  0  0  0  0  0  0
   35.7380   30.1550   40.5940 N   0  0  0  0  0  0  0  0  0  0  0  0
   38.2140   27.4510   42.6300 N   0  0  0  0  0  0  0  0  0  0  0  0
   38.5760   27.4030   44.0160 C   0  0  0  0  0  0  0  0  0  0  0  0
   39.8910   26.6300   43.9800 C   0  0  0  0  0  0  0  0  0  0  0  0
   39.5640   25.5750   42.9690 C   0  0  0  0  0  0  0  0  0  0  0  0
   38.8050   26.3430   41.9050 C   0  0  1  0  0  0  0  0  0  0  0  0
   37.8820   25.5430   41.1760 C   0  0  0  0  0  0  0  0  0  0  0  0
   36.9120   24.6360   41.4520 C   0  0  0  0  0  0  0  0  0  0  0  0
   36.1610   24.0180   40.5120 C   0  0  0  0  0  0  0  0  0  0  0  0
   36.4710   24.4010   39.1280 C   0  0  0  0  0  0  0  0  0  0  0  0
   37.8220   25.6240   39.2820 S   0  0  0  0  0  0  0  0  0  0  0  0
   37.0726   31.6991   41.1177 H   0  0  0  0  0  0  0  0  0  0  0  0
   38.6079   30.1625   42.3556 H   0  0  0  0  0  0  0  0  0  0  0  0
   34.5477   28.4624   40.1877 H   0  0  0  0  0  0  0  0  0  0  0  0
   38.7188   28.4137   44.4260 H   0  0  0  0  0  0  0  0  0  0  0  0
   37.8101   26.9411   44.6563 H   0  0  0  0  0  0  0  0  0  0  0  0
   40.7256   27.2649   43.6480 H   0  0  0  0  0  0  0  0  0  0  0  0
   40.2199   26.2420   44.9553 H   0  0  0  0  0  0  0  0  0  0  0  0
   40.4795   25.1270   42.5553 H   0  0  0  0  0  0  0  0  0  0  0  0
   38.9900   24.7360   43.3893 H   0  0  0  0  0  0  0  0  0  0  0  0
   39.4578   26.7011   41.0953 H   0  0  0  0  0  0  0  0  0  0  0  0
   36.7242   24.3873   42.5069 H   0  0  0  0  0  0  0  0  0  0  0  0
   35.3795   23.2861   40.7640 H   0  0  0  0  0  0  0  0  0  0  0  0
   35.9968   24.0343   38.2057 H   0  0  0  0  0  0  0  0  0  0  0  0
  1  2  2  0
  2  3  1  0
  3  7  1  0
  4  3  2  0
  5  4  1  0
  6  5  2  0
  6  1  1  0
  7  8  1  0
  9  8  1  0
 10  9  1  0
 11  7  1  0
 11 10  1  0
 12 13  2  0
 12 11  1  0
 14 13  1  0
 15 16  1  0
 15 14  2  0
 16 12  1  0
  1 17  1  0
  2 18  1  0
  5 19  1  0
  8 20  1  0
  8 21  1  0
  9 22  1  0
  9 23  1  0
 10 24  1  0
 10 25  1  0
 11 26  1  6
 13 27  1  0
 14 28  1  0
 15 29  1  0
M  ISO  8  17  14  18  14  19  14  20  13  21  13  22  13  23  13  24  13
M  ISO  5  25  13  26  13  27  14  28  14  29  14
M  END
>  <minimizedAffinity>  (1) 
-4.63705873

>  <minimizedRMSD>  (1) 
0.759138942

$$$$
