
     RDKit          3D

 36 38  0  0  1  0  0  0  0  0999 V2000
   36.8920   30.7530   41.0820 C   0  0  0  0  0  0  0  0  0  0  0  0
   37.7610   29.8760   41.7820 C   0  0  0  0  0  0  0  0  0  0  0  0
   37.3410   28.5320   41.9020 C   0  0  0  0  0  0  0  0  0  0  0  0
   36.1590   28.2150   41.3400 N   0  0  0  0  0  0  0  0  0  0  0  0
   35.3630   29.0660   40.6860 C   0  0  0  0  0  0  0  0  0  0  0  0
   35.7410   30.3530   40.5580 N   0  0  0  0  0  0  0  0  0  0  0  0
   38.0940   27.5370   42.5710 N   0  0  0  0  0  0  0  0  0  0  0  0
   38.5090   27.5300   43.9540 C   0  0  0  0  0  0  0  0  0  0  0  0
   39.6990   26.5920   43.9460 C   0  0  0  0  0  0  0  0  0  0  0  0
   39.2750   25.5540   42.9410 C   0  0  0  0  0  0  0  0  0  0  0  0
   38.5560   26.3600   41.9120 C   0  0  1  0  0  0  0  0  0  0  0  0
   37.6480   25.6600   41.0890 N   0  0  0  0  0  0  0  0  0  0  0  0
   36.9800   24.5260   41.5900 C   0  0  0  0  0  0  0  0  0  0  0  0
   36.9700   23.4190   40.5260 C   0  0  0  0  0  0  0  0  0  0  0  0
   36.3700   23.8780   39.3020 N   0  0  0  0  0  0  0  0  0  0  0  0
   36.9610   25.1180   38.8410 C   0  0  0  0  0  0  0  0  0  0  0  0
   38.1160   25.5170   39.7310 C   0  0  0  0  0  0  0  0  0  0  0  0
   37.1849   31.8073   40.9694 H   0  0  0  0  0  0  0  0  0  0  0  0
   38.7128   30.2246   42.2093 H   0  0  0  0  0  0  0  0  0  0  0  0
   34.4108   28.7201   40.2574 H   0  0  0  0  0  0  0  0  0  0  0  0
   38.8016   28.5376   44.2844 H   0  0  0  0  0  0  0  0  0  0  0  0
   37.7128   27.2155   44.6447 H   0  0  0  0  0  0  0  0  0  0  0  0
   40.6139   27.1103   43.6230 H   0  0  0  0  0  0  0  0  0  0  0  0
   39.9424   26.1771   44.9352 H   0  0  0  0  0  0  0  0  0  0  0  0
   40.1476   25.0447   42.5060 H   0  0  0  0  0  0  0  0  0  0  0  0
   38.6570   24.7549   43.3764 H   0  0  0  0  0  0  0  0  0  0  0  0
   39.2433   26.6585   41.1067 H   0  0  0  0  0  0  0  0  0  0  0  0
   37.4990   24.1637   42.4897 H   0  0  0  0  0  0  0  0  0  0  0  0
   35.9445   24.7961   41.8444 H   0  0  0  0  0  0  0  0  0  0  0  0
   38.0052   23.1073   40.3231 H   0  0  0  0  0  0  0  0  0  0  0  0
   36.3779   22.5744   40.9083 H   0  0  0  0  0  0  0  0  0  0  0  0
   36.4999   23.1578   38.5772 H   0  0  0  0  0  0  0  0  0  0  0  0
   37.3262   24.9844   37.8120 H   0  0  0  0  0  0  0  0  0  0  0  0
   36.1976   25.9093   38.8726 H   0  0  0  0  0  0  0  0  0  0  0  0
   38.8950   24.7414   39.6911 H   0  0  0  0  0  0  0  0  0  0  0  0
   38.5339   26.4735   39.3838 H   0  0  0  0  0  0  0  0  0  0  0  0
  1  2  2  0
  2  3  1  0
  3  7  1  0
  4  3  2  0
  5  4  1  0
  6  5  2  0
  6  1  1  0
  7  8  1  0
  9  8  1  0
 10  9  1  0
 11  7  1  0
 11 10  1  0
 12 13  1  0
 12 11  1  0
 14 13  1  0
 15 14  1  0
 16 15  1  0
 16 17  1  0
 17 12  1  0
  1 18  1  0
  2 19  1  0
  5 20  1  0
  8 21  1  0
  8 22  1  0
  9 23  1  0
  9 24  1  0
 10 25  1  0
 10 26  1  0
 11 27  1  6
 13 28  1  0
 13 29  1  0
 14 30  1  0
 14 31  1  0
 15 32  1  0
 16 33  1  0
 16 34  1  0
 17 35  1  0
 17 36  1  0
M  ISO  8  18  14  19  14  20  14  21  13  22  13  23  13  24  13  25  13
M  ISO  8  26  13  27  13  28  13  29  13  30  13  31  13  32   5  33  13
M  ISO  3  34  13  35  13  36  13
M  END
>  <minimizedAffinity>  (1) 
-4.59717655

>  <minimizedRMSD>  (1) 
0.301838905

$$$$
