
     RDKit          3D

 36 39  0  0  1  0  0  0  0  0999 V2000
   36.7870   30.7590   41.1690 C   0  0  0  0  0  0  0  0  0  0  0  0
   37.6620   29.8730   41.8380 C   0  0  0  0  0  0  0  0  0  0  0  0
   37.2820   28.5220   41.8550 C   0  0  0  0  0  0  0  0  0  0  0  0
   36.1310   28.1820   41.2380 N   0  0  0  0  0  0  0  0  0  0  0  0
   35.3220   29.0430   40.6120 C   0  0  0  0  0  0  0  0  0  0  0  0
   35.6600   30.3480   40.5800 N   0  0  0  0  0  0  0  0  0  0  0  0
   38.0480   27.4860   42.4860 N   0  0  0  0  0  0  0  0  0  0  0  0
   38.4190   27.3850   43.8740 C   0  0  0  0  0  0  0  0  0  0  0  0
   39.6840   26.5510   43.8390 C   0  0  0  0  0  0  0  0  0  0  0  0
   39.3430   25.5530   42.7540 C   0  0  0  0  0  0  0  0  0  0  0  0
   38.5660   26.3620   41.7710 C   0  0  2  0  0  0  0  0  0  0  0  0
   39.2510   26.6640   40.5150 C   0  0  0  0  0  0  0  0  0  0  0  0
   40.5290   27.1890   40.4580 C   0  0  0  0  0  0  0  0  0  0  0  0
   40.8090   27.3250   39.1460 N   0  0  0  0  0  0  0  0  0  0  0  0
   39.7940   26.9220   38.3690 C   0  0  0  0  0  0  0  0  0  0  0  0
   39.6390   26.8810   37.0040 C   0  0  0  0  0  0  0  0  0  0  0  0
   38.4290   26.3930   36.5620 C   0  0  0  0  0  0  0  0  0  0  0  0
   37.3790   25.9490   37.3300 C   0  0  0  0  0  0  0  0  0  0  0  0
   37.5930   26.0150   38.7040 C   0  0  0  0  0  0  0  0  0  0  0  0
   38.7950   26.4980   39.2210 C   0  0  0  0  0  0  0  0  0  0  0  0
   37.0436   31.8280   41.1318 H   0  0  0  0  0  0  0  0  0  0  0  0
   38.5880   30.2225   42.3180 H   0  0  0  0  0  0  0  0  0  0  0  0
   34.3966   28.6928   40.1314 H   0  0  0  0  0  0  0  0  0  0  0  0
   38.6145   28.3790   44.3026 H   0  0  0  0  0  0  0  0  0  0  0  0
   37.6294   26.9420   44.4987 H   0  0  0  0  0  0  0  0  0  0  0  0
   40.5605   27.1580   43.5683 H   0  0  0  0  0  0  0  0  0  0  0  0
   39.9541   26.0968   44.8038 H   0  0  0  0  0  0  0  0  0  0  0  0
   40.2551   25.1448   42.2941 H   0  0  0  0  0  0  0  0  0  0  0  0
   38.7846   24.6834   43.1309 H   0  0  0  0  0  0  0  0  0  0  0  0
   37.7334   25.7638   41.3722 H   0  0  0  0  0  0  0  0  0  0  0  0
   41.1815   27.4429   41.3064 H   0  0  0  0  0  0  0  0  0  0  0  0
   41.6990   27.6954   38.7833 H   0  0  0  0  0  0  0  0  0  0  0  0
   40.4266   27.2147   36.3124 H   0  0  0  0  0  0  0  0  0  0  0  0
   38.2871   26.3543   35.4719 H   0  0  0  0  0  0  0  0  0  0  0  0
   36.4429   25.5711   36.8931 H   0  0  0  0  0  0  0  0  0  0  0  0
   36.8024   25.6813   39.3922 H   0  0  0  0  0  0  0  0  0  0  0  0
  1  2  2  0
  2  3  1  0
  3  7  1  0
  4  3  2  0
  5  4  1  0
  6  5  2  0
  6  1  1  0
  7  8  1  0
  9  8  1  0
 10  9  1  0
 11  7  1  0
 11 10  1  0
 12 11  1  0
 13 12  2  0
 14 13  1  0
 15 14  1  0
 15 20  2  0
 16 15  1  0
 17 16  2  0
 17 18  1  0
 18 19  2  0
 19 20  1  0
 20 12  1  0
  1 21  1  0
  2 22  1  0
  5 23  1  0
  8 24  1  0
  8 25  1  0
  9 26  1  0
  9 27  1  0
 10 28  1  0
 10 29  1  0
 11 30  1  6
 13 31  1  0
 14 32  1  0
 16 33  1  0
 17 34  1  0
 18 35  1  0
 19 36  1  0
M  ISO  8  21  14  22  14  23  14  24  13  25  13  26  13  27  13  28  13
M  ISO  8  29  13  30  13  31  14  32   9  33  14  34  14  35  14  36  14
M  END
>  <minimizedAffinity>  (1) 
-4.51841211

>  <minimizedRMSD>  (1) 
1.02668536

$$$$
