
     RDKit          3D

 27 29  0  0  1  0  0  0  0  0999 V2000
   36.9290   30.6500   41.0960 C   0  0  0  0  0  0  0  0  0  0  0  0
   37.8210   29.7970   41.7870 C   0  0  0  0  0  0  0  0  0  0  0  0
   37.4310   28.4590   41.9320 C   0  0  0  0  0  0  0  0  0  0  0  0
   36.2450   28.1190   41.3980 N   0  0  0  0  0  0  0  0  0  0  0  0
   35.4150   28.9390   40.7500 C   0  0  0  0  0  0  0  0  0  0  0  0
   35.7670   30.2240   40.5980 N   0  0  0  0  0  0  0  0  0  0  0  0
   38.1910   27.4510   42.5880 N   0  0  0  0  0  0  0  0  0  0  0  0
   38.5840   27.4410   43.9930 C   0  0  0  0  0  0  0  0  0  0  0  0
   39.8400   26.5930   43.9820 C   0  0  0  0  0  0  0  0  0  0  0  0
   39.4820   25.5480   42.9750 C   0  0  0  0  0  0  0  0  0  0  0  0
   38.6880   26.2940   41.9370 C   0  0  1  0  0  0  0  0  0  0  0  0
   37.6960   25.4360   41.2620 C   0  0  0  0  0  0  0  0  0  0  0  0
   36.7600   24.5820   41.6860 N   0  0  0  0  0  0  0  0  0  0  0  0
   36.1620   24.0930   40.6590 O   0  0  0  0  0  0  0  0  0  0  0  0
   36.6540   24.5790   39.5650 C   0  0  0  0  0  0  0  0  0  0  0  0
   37.6160   25.4230   39.8980 N   0  0  0  0  0  0  0  0  0  0  0  0
   37.2044   31.7067   40.9640 H   0  0  0  0  0  0  0  0  0  0  0  0
   38.7751   30.1663   42.1912 H   0  0  0  0  0  0  0  0  0  0  0  0
   34.4606   28.5679   40.3483 H   0  0  0  0  0  0  0  0  0  0  0  0
   38.7957   28.4587   44.3528 H   0  0  0  0  0  0  0  0  0  0  0  0
   37.8017   27.0534   44.6622 H   0  0  0  0  0  0  0  0  0  0  0  0
   40.7163   27.1761   43.6625 H   0  0  0  0  0  0  0  0  0  0  0  0
   40.1196   26.1910   44.9670 H   0  0  0  0  0  0  0  0  0  0  0  0
   40.3869   25.1069   42.5317 H   0  0  0  0  0  0  0  0  0  0  0  0
   38.9193   24.7122   43.4163 H   0  0  0  0  0  0  0  0  0  0  0  0
   39.3005   26.6169   41.0823 H   0  0  0  0  0  0  0  0  0  0  0  0
   36.3303   24.3342   38.5426 H   0  0  0  0  0  0  0  0  0  0  0  0
  1  2  2  0
  2  3  1  0
  3  7  1  0
  4  3  2  0
  5  4  1  0
  6  5  2  0
  6  1  1  0
  7  8  1  0
  9  8  1  0
 10  9  1  0
 11  7  1  0
 11 10  1  0
 12 13  2  0
 12 11  1  0
 14 13  1  0
 15 16  2  0
 15 14  1  0
 16 12  1  0
  1 17  1  0
  2 18  1  0
  5 19  1  0
  8 20  1  0
  8 21  1  0
  9 22  1  0
  9 23  1  0
 10 24  1  0
 10 25  1  0
 11 26  1  6
 15 27  1  0
M  ISO  8  17  14  18  14  19  14  20  13  21  13  22  13  23  13  24  13
M  ISO  3  25  13  26  13  27  14
M  END
>  <minimizedAffinity>  (1) 
-4.50105

>  <minimizedRMSD>  (1) 
0.390609026

$$$$
