
     RDKit          3D

 29 31  0  0  1  0  0  0  0  0999 V2000
   36.8630   30.7090   41.1550 C   0  0  0  0  0  0  0  0  0  0  0  0
   37.7170   29.8260   41.8320 C   0  0  0  0  0  0  0  0  0  0  0  0
   37.3620   28.4770   41.9010 C   0  0  0  0  0  0  0  0  0  0  0  0
   36.2060   28.1270   41.3000 N   0  0  0  0  0  0  0  0  0  0  0  0
   35.3970   28.9740   40.6570 C   0  0  0  0  0  0  0  0  0  0  0  0
   35.7360   30.2840   40.5860 N   0  0  0  0  0  0  0  0  0  0  0  0
   38.1270   27.4750   42.5490 N   0  0  0  0  0  0  0  0  0  0  0  0
   38.5270   27.4400   43.9480 C   0  0  0  0  0  0  0  0  0  0  0  0
   39.7950   26.6130   43.9170 C   0  0  0  0  0  0  0  0  0  0  0  0
   39.3900   25.5390   42.9190 C   0  0  0  0  0  0  0  0  0  0  0  0
   38.6250   26.3150   41.8880 C   0  0  1  0  0  0  0  0  0  0  0  0
   37.5630   25.5260   41.1690 C   0  0  0  0  0  0  0  0  0  0  0  0
   36.7220   24.5580   41.9450 C   0  0  0  0  0  0  0  0  0  0  0  0
   37.6960   24.0900   40.8780 C   0  0  0  0  0  0  0  0  0  0  0  0
   37.1294   31.7744   41.0926 H   0  0  0  0  0  0  0  0  0  0  0  0
   38.6454   30.1878   42.2981 H   0  0  0  0  0  0  0  0  0  0  0  0
   34.4682   28.6127   40.1915 H   0  0  0  0  0  0  0  0  0  0  0  0
   38.7245   28.4530   44.3286 H   0  0  0  0  0  0  0  0  0  0  0  0
   37.7535   27.0244   44.6106 H   0  0  0  0  0  0  0  0  0  0  0  0
   40.6548   27.1984   43.5593 H   0  0  0  0  0  0  0  0  0  0  0  0
   40.1231   26.2337   44.8960 H   0  0  0  0  0  0  0  0  0  0  0  0
   40.2736   25.0560   42.4763 H   0  0  0  0  0  0  0  0  0  0  0  0
   38.8074   24.7224   43.3704 H   0  0  0  0  0  0  0  0  0  0  0  0
   39.2941   26.5941   41.0607 H   0  0  0  0  0  0  0  0  0  0  0  0
   37.3756   26.4030   40.5320 H   0  0  0  0  0  0  0  0  0  0  0  0
   36.9317   24.3696   43.0083 H   0  0  0  0  0  0  0  0  0  0  0  0
   35.6472   24.4296   42.1408 H   0  0  0  0  0  0  0  0  0  0  0  0
   37.3175   23.6844   39.9282 H   0  0  0  0  0  0  0  0  0  0  0  0
   38.5335   23.3774   40.8493 H   0  0  0  0  0  0  0  0  0  0  0  0
  1  2  2  0
  2  3  1  0
  3  7  1  0
  4  3  2  0
  5  4  1  0
  6  5  2  0
  6  1  1  0
  7  8  1  0
  9  8  1  0
 10  9  1  0
 11  7  1  0
 11 10  1  0
 12 11  1  0
 12 13  1  0
 14 12  1  0
 14 13  1  0
  1 15  1  0
  2 16  1  0
  5 17  1  0
  8 18  1  0
  8 19  1  0
  9 20  1  0
  9 21  1  0
 10 22  1  0
 10 23  1  0
 11 24  1  6
 12 25  1  0
 13 26  1  0
 13 27  1  0
 14 28  1  0
 14 29  1  0
M  ISO  8  15  14  16  14  17  14  18  13  19  13  20  13  21  13  22  13
M  ISO  7  23  13  24  13  25  13  26  13  27  13  28  13  29  13
M  END
>  <minimizedAffinity>  (1) 
-4.49326897

>  <minimizedRMSD>  (1) 
0.984373987

$$$$
