
     RDKit          3D

 29 31  0  0  1  0  0  0  0  0999 V2000
   36.8860   30.6340   41.1590 C   0  0  0  0  0  0  0  0  0  0  0  0
   37.7520   29.7780   41.8530 C   0  0  0  0  0  0  0  0  0  0  0  0
   37.4010   28.4170   41.9560 C   0  0  0  0  0  0  0  0  0  0  0  0
   36.2480   28.0230   41.3760 N   0  0  0  0  0  0  0  0  0  0  0  0
   35.4420   28.8750   40.7170 C   0  0  0  0  0  0  0  0  0  0  0  0
   35.7610   30.1890   40.6070 N   0  0  0  0  0  0  0  0  0  0  0  0
   38.2080   27.4600   42.6380 N   0  0  0  0  0  0  0  0  0  0  0  0
   38.5870   27.4340   44.0220 C   0  0  0  0  0  0  0  0  0  0  0  0
   39.8510   26.5880   44.0130 C   0  0  0  0  0  0  0  0  0  0  0  0
   39.4890   25.5290   42.9880 C   0  0  0  0  0  0  0  0  0  0  0  0
   38.7710   26.3270   41.9450 C   0  0  1  0  0  0  0  0  0  0  0  0
   37.7540   25.5610   41.1870 C   0  0  0  0  0  0  0  0  0  0  0  0
   36.9700   24.5320   41.6720 C   0  0  0  0  0  0  0  0  0  0  0  0
   36.1940   24.1160   40.6800 N   0  0  0  0  0  0  0  0  0  0  0  0
   36.4340   24.8320   39.5550 C   0  0  0  0  0  0  0  0  0  0  0  0
   37.3820   25.6990   39.8880 N   0  0  0  0  0  0  0  0  0  0  0  0
   37.1431   31.6997   41.0687 H   0  0  0  0  0  0  0  0  0  0  0  0
   38.6801   30.1580   42.3049 H   0  0  0  0  0  0  0  0  0  0  0  0
   34.5129   28.5016   40.2617 H   0  0  0  0  0  0  0  0  0  0  0  0
   38.7924   28.4482   44.3951 H   0  0  0  0  0  0  0  0  0  0  0  0
   37.8014   27.0338   44.6798 H   0  0  0  0  0  0  0  0  0  0  0  0
   40.7261   27.1740   43.6955 H   0  0  0  0  0  0  0  0  0  0  0  0
   40.1325   26.1861   44.9975 H   0  0  0  0  0  0  0  0  0  0  0  0
   40.3891   25.0509   42.5742 H   0  0  0  0  0  0  0  0  0  0  0  0
   38.8906   24.7032   43.4003 H   0  0  0  0  0  0  0  0  0  0  0  0
   39.4751   26.6392   41.1597 H   0  0  0  0  0  0  0  0  0  0  0  0
   36.9864   24.1303   42.6959 H   0  0  0  0  0  0  0  0  0  0  0  0
   35.9471   24.7188   38.5751 H   0  0  0  0  0  0  0  0  0  0  0  0
   37.7859   26.3913   39.2411 H   0  0  0  0  0  0  0  0  0  0  0  0
  1  2  2  0
  2  3  1  0
  3  7  1  0
  4  3  2  0
  5  4  1  0
  6  5  2  0
  6  1  1  0
  7  8  1  0
  9  8  1  0
 10  9  1  0
 11  7  1  0
 11 10  1  0
 12 13  2  0
 12 11  1  0
 14 13  1  0
 15 16  1  0
 15 14  2  0
 16 12  1  0
  1 17  1  0
  2 18  1  0
  5 19  1  0
  8 20  1  0
  8 21  1  0
  9 22  1  0
  9 23  1  0
 10 24  1  0
 10 25  1  0
 11 26  1  6
 13 27  1  0
 15 28  1  0
 16 29  1  0
M  ISO  8  17  14  18  14  19  14  20  13  21  13  22  13  23  13  24  13
M  ISO  5  25  13  26  13  27  14  28  14  29   9
M  END
>  <minimizedAffinity>  (1) 
-4.48921394

>  <minimizedRMSD>  (1) 
0.252527982

$$$$
