
     RDKit          3D

 38 40  0  0  1  0  0  0  0  0999 V2000
   36.9770   30.7110   41.0580 C   0  0  0  0  0  0  0  0  0  0  0  0
   37.8250   29.8170   41.7340 C   0  0  0  0  0  0  0  0  0  0  0  0
   37.3810   28.5030   41.8500 C   0  0  0  0  0  0  0  0  0  0  0  0
   36.1710   28.1780   41.3070 N   0  0  0  0  0  0  0  0  0  0  0  0
   35.3910   29.0760   40.6670 C   0  0  0  0  0  0  0  0  0  0  0  0
   35.8070   30.3590   40.5440 N   0  0  0  0  0  0  0  0  0  0  0  0
   38.0750   27.4290   42.5000 N   0  0  0  0  0  0  0  0  0  0  0  0
   38.5150   27.4440   43.8870 C   0  0  0  0  0  0  0  0  0  0  0  0
   39.6630   26.4910   43.9050 C   0  0  0  0  0  0  0  0  0  0  0  0
   39.2490   25.4550   42.9040 C   0  0  0  0  0  0  0  0  0  0  0  0
   38.4030   26.2050   41.8950 C   0  0  2  0  0  0  0  0  0  0  0  0
   39.0830   26.1480   40.5990 C   0  0  0  0  0  0  0  0  0  0  0  0
   38.2290   25.9330   39.3730 C   0  0  0  0  0  0  0  0  0  0  0  0
   39.1680   26.0820   38.1640 C   0  0  0  0  0  0  0  0  0  0  0  0
   40.2750   25.0930   38.1400 C   0  0  0  0  0  0  0  0  0  0  0  0
   40.9580   24.9270   39.4810 C   0  0  0  0  0  0  0  0  0  0  0  0
   39.9900   24.8910   40.6120 C   0  0  0  0  0  0  0  0  0  0  0  0
   37.3009   31.7567   40.9499 H   0  0  0  0  0  0  0  0  0  0  0  0
   38.7907   30.1395   42.1503 H   0  0  0  0  0  0  0  0  0  0  0  0
   34.4223   28.7667   40.2476 H   0  0  0  0  0  0  0  0  0  0  0  0
   38.8378   28.4524   44.1851 H   0  0  0  0  0  0  0  0  0  0  0  0
   37.7171   27.1630   44.5901 H   0  0  0  0  0  0  0  0  0  0  0  0
   40.5954   26.9878   43.5987 H   0  0  0  0  0  0  0  0  0  0  0  0
   39.8690   26.0755   44.9025 H   0  0  0  0  0  0  0  0  0  0  0  0
   40.1308   25.0127   42.4173 H   0  0  0  0  0  0  0  0  0  0  0  0
   38.6987   24.6246   43.3705 H   0  0  0  0  0  0  0  0  0  0  0  0
   37.4213   25.7846   41.6314 H   0  0  0  0  0  0  0  0  0  0  0  0
   39.5627   27.1340   40.5116 H   0  0  0  0  0  0  0  0  0  0  0  0
   37.7851   24.9267   39.3893 H   0  0  0  0  0  0  0  0  0  0  0  0
   37.4015   26.6564   39.3292 H   0  0  0  0  0  0  0  0  0  0  0  0
   38.5739   25.9600   37.2463 H   0  0  0  0  0  0  0  0  0  0  0  0
   39.6294   27.0778   38.2374 H   0  0  0  0  0  0  0  0  0  0  0  0
   39.8665   24.1189   37.8331 H   0  0  0  0  0  0  0  0  0  0  0  0
   41.0306   25.4664   37.4332 H   0  0  0  0  0  0  0  0  0  0  0  0
   41.5270   23.9856   39.4732 H   0  0  0  0  0  0  0  0  0  0  0  0
   41.6162   25.7954   39.6312 H   0  0  0  0  0  0  0  0  0  0  0  0
   40.5451   24.8564   41.5611 H   0  0  0  0  0  0  0  0  0  0  0  0
   39.3569   23.9977   40.5065 H   0  0  0  0  0  0  0  0  0  0  0  0
  1  2  2  0
  2  3  1  0
  3  7  1  0
  4  3  2  0
  5  4  1  0
  6  5  2  0
  6  1  1  0
  7  8  1  0
  8  9  1  0
 10  9  1  0
 11  7  1  0
 11 10  1  0
 12 17  1  0
 12 11  1  0
 13 12  1  0
 14 13  1  0
 15 14  1  0
 15 16  1  0
 16 17  1  0
  1 18  1  0
  2 19  1  0
  5 20  1  0
  8 21  1  0
  8 22  1  0
  9 23  1  0
  9 24  1  0
 10 25  1  0
 10 26  1  0
 11 27  1  6
 12 28  1  0
 13 29  1  0
 13 30  1  0
 14 31  1  0
 14 32  1  0
 15 33  1  0
 15 34  1  0
 16 35  1  0
 16 36  1  0
 17 37  1  0
 17 38  1  0
M  ISO  8  18  14  19  14  20  14  21  13  22  13  23  13  24  13  25  13
M  ISO  8  26  13  27  13  28  13  29  13  30  13  31  13  32  13  33  13
M  ISO  5  34  13  35  13  36  13  37  13  38  13
M  END
>  <minimizedAffinity>  (1) 
-4.24172163

>  <minimizedRMSD>  (1) 
0.425864071

$$$$
