
     RDKit          3D

 28 29  0  0  1  0  0  0  0  0999 V2000
   37.0740   30.9100   41.0840 C   0  0  0  0  0  0  0  0  0  0  0  0
   37.8220   29.9090   41.7250 C   0  0  0  0  0  0  0  0  0  0  0  0
   37.3120   28.6120   41.7590 C   0  0  0  0  0  0  0  0  0  0  0  0
   36.1060   28.3690   41.1690 N   0  0  0  0  0  0  0  0  0  0  0  0
   35.4160   29.3560   40.5630 C   0  0  0  0  0  0  0  0  0  0  0  0
   35.8950   30.6270   40.5180 N   0  0  0  0  0  0  0  0  0  0  0  0
   37.9880   27.5120   42.3850 N   0  0  0  0  0  0  0  0  0  0  0  0
   38.3740   27.3990   43.7840 C   0  0  0  0  0  0  0  0  0  0  0  0
   39.5340   26.4410   43.7280 C   0  0  0  0  0  0  0  0  0  0  0  0
   39.0940   25.4700   42.6740 C   0  0  0  0  0  0  0  0  0  0  0  0
   38.3770   26.3470   41.6720 C   0  0  1  0  0  0  0  0  0  0  0  0
   37.2600   25.5190   41.0970 C   0  0  0  0  0  0  0  0  0  0  0  0
   36.9420   24.4650   42.1670 C   0  0  0  0  0  0  0  0  0  0  0  0
   37.4619   31.9387   41.0468 H   0  0  0  0  0  0  0  0  0  0  0  0
   38.7905   30.1436   42.1907 H   0  0  0  0  0  0  0  0  0  0  0  0
   34.4465   29.1281   40.0959 H   0  0  0  0  0  0  0  0  0  0  0  0
   38.6828   28.3733   44.1907 H   0  0  0  0  0  0  0  0  0  0  0  0
   37.5569   27.0591   44.4373 H   0  0  0  0  0  0  0  0  0  0  0  0
   40.4614   26.9547   43.4346 H   0  0  0  0  0  0  0  0  0  0  0  0
   39.7630   25.9688   44.6947 H   0  0  0  0  0  0  0  0  0  0  0  0
   39.9586   24.9701   42.2129 H   0  0  0  0  0  0  0  0  0  0  0  0
   38.4613   24.6619   43.0698 H   0  0  0  0  0  0  0  0  0  0  0  0
   38.9728   26.6875   40.8123 H   0  0  0  0  0  0  0  0  0  0  0  0
   36.3779   26.1461   40.9002 H   0  0  0  0  0  0  0  0  0  0  0  0
   37.5436   25.0576   40.1396 H   0  0  0  0  0  0  0  0  0  0  0  0
   37.0748   24.9053   43.1663 H   0  0  0  0  0  0  0  0  0  0  0  0
   35.9018   24.1267   42.0507 H   0  0  0  0  0  0  0  0  0  0  0  0
   37.6215   23.6078   42.0507 H   0  0  0  0  0  0  0  0  0  0  0  0
  1  2  2  0
  2  3  1  0
  3  7  1  0
  4  3  2  0
  5  4  1  0
  6  5  2  0
  6  1  1  0
  7  8  1  0
  9  8  1  0
 10  9  1  0
 11  7  1  0
 11 10  1  0
 12 11  1  0
 12 13  1  0
  1 14  1  0
  2 15  1  0
  5 16  1  0
  8 17  1  0
  8 18  1  0
  9 19  1  0
  9 20  1  0
 10 21  1  0
 10 22  1  0
 11 23  1  6
 12 24  1  0
 12 25  1  0
 13 26  1  0
 13 27  1  0
 13 28  1  0
M  ISO  8  14  14  15  14  16  14  17  13  18  13  19  13  20  13  21  13
M  ISO  7  22  13  23  13  24   8  25   8  26   8  27   8  28   8
M  END
>  <minimizedAffinity>  (1) 
-4.17661285

>  <minimizedRMSD>  (1) 
0.272538662

$$$$
