
     RDKit          3D

 29 31  0  0  1  0  0  0  0  0999 V2000
   36.8940   30.7420   41.1030 C   0  0  0  0  0  0  0  0  0  0  0  0
   37.7360   29.8360   41.7870 C   0  0  0  0  0  0  0  0  0  0  0  0
   37.3110   28.4920   41.8770 C   0  0  0  0  0  0  0  0  0  0  0  0
   36.1330   28.1820   41.3020 N   0  0  0  0  0  0  0  0  0  0  0  0
   35.3460   29.0600   40.6550 C   0  0  0  0  0  0  0  0  0  0  0  0
   35.7450   30.3580   40.5620 N   0  0  0  0  0  0  0  0  0  0  0  0
   38.0440   27.4690   42.5280 N   0  0  0  0  0  0  0  0  0  0  0  0
   38.4420   27.4230   43.9250 C   0  0  0  0  0  0  0  0  0  0  0  0
   39.6680   26.5370   43.9110 C   0  0  0  0  0  0  0  0  0  0  0  0
   39.2820   25.5130   42.8750 C   0  0  0  0  0  0  0  0  0  0  0  0
   38.5040   26.3040   41.8630 C   0  0  2  0  0  0  0  0  0  0  0  0
   39.3100   26.5540   40.6790 N   0  0  0  0  0  0  0  0  0  0  0  0
   38.9640   26.2690   39.4350 N   0  0  0  0  0  0  0  0  0  0  0  0
   39.9750   26.6490   38.6050 C   0  0  0  0  0  0  0  0  0  0  0  0
   41.0180   27.2050   39.3550 C   0  0  0  0  0  0  0  0  0  0  0  0
   40.5340   27.1120   40.6420 C   0  0  0  0  0  0  0  0  0  0  0  0
   37.1999   31.7951   41.0168 H   0  0  0  0  0  0  0  0  0  0  0  0
   38.6864   30.1651   42.2324 H   0  0  0  0  0  0  0  0  0  0  0  0
   34.3951   28.7343   40.2081 H   0  0  0  0  0  0  0  0  0  0  0  0
   38.6872   28.4284   44.2978 H   0  0  0  0  0  0  0  0  0  0  0  0
   37.6474   27.0464   44.5858 H   0  0  0  0  0  0  0  0  0  0  0  0
   40.5655   27.0966   43.6089 H   0  0  0  0  0  0  0  0  0  0  0  0
   39.9259   26.1101   44.8914 H   0  0  0  0  0  0  0  0  0  0  0  0
   40.1751   25.0622   42.4177 H   0  0  0  0  0  0  0  0  0  0  0  0
   38.7048   24.6771   43.2971 H   0  0  0  0  0  0  0  0  0  0  0  0
   37.6295   25.7584   41.4790 H   0  0  0  0  0  0  0  0  0  0  0  0
   39.9722   26.5360   37.5108 H   0  0  0  0  0  0  0  0  0  0  0  0
   41.9785   27.6121   39.0062 H   0  0  0  0  0  0  0  0  0  0  0  0
   41.0825   27.4531   41.5324 H   0  0  0  0  0  0  0  0  0  0  0  0
  1  2  2  0
  2  3  1  0
  3  7  1  0
  4  3  2  0
  5  4  1  0
  6  5  2  0
  6  1  1  0
  7  8  1  0
  9  8  1  0
 10  9  1  0
 11  7  1  0
 11 10  1  0
 12 11  1  0
 13 12  1  0
 14 15  1  0
 14 13  2  0
 15 16  2  0
 16 12  1  0
  1 17  1  0
  2 18  1  0
  5 19  1  0
  8 20  1  0
  8 21  1  0
  9 22  1  0
  9 23  1  0
 10 24  1  0
 10 25  1  0
 11 26  1  6
 14 27  1  0
 15 28  1  0
 16 29  1  0
M  ISO  8  17  14  18  14  19  14  20  13  21  13  22  13  23  13  24  13
M  ISO  5  25  13  26  13  27  14  28  14  29  14
M  END
>  <minimizedAffinity>  (1) 
-4.00578022

>  <minimizedRMSD>  (1) 
0.444541693

$$$$
