
     RDKit          3D

 29 30  0  0  1  0  0  0  0  0999 V2000
   36.7370   30.7350   41.2020 C   0  0  0  0  0  0  0  0  0  0  0  0
   37.6190   29.8810   41.8870 C   0  0  0  0  0  0  0  0  0  0  0  0
   37.3100   28.5150   41.8700 C   0  0  0  0  0  0  0  0  0  0  0  0
   36.1950   28.0860   41.2060 N   0  0  0  0  0  0  0  0  0  0  0  0
   35.3850   28.9690   40.5640 C   0  0  0  0  0  0  0  0  0  0  0  0
   35.6630   30.2870   40.5680 N   0  0  0  0  0  0  0  0  0  0  0  0
   38.0880   27.4960   42.5130 N   0  0  0  0  0  0  0  0  0  0  0  0
   38.3640   27.3790   43.9390 C   0  0  0  0  0  0  0  0  0  0  0  0
   39.6910   26.6290   43.9430 C   0  0  0  0  0  0  0  0  0  0  0  0
   39.4160   25.6080   42.8790 C   0  0  0  0  0  0  0  0  0  0  0  0
   38.7100   26.4270   41.8090 C   0  0  2  0  0  0  0  0  0  0  0  0
   39.7630   26.8280   40.8890 N   0  0  0  0  0  0  0  0  0  0  0  0
   40.9170   27.5450   41.3700 C   0  0  0  0  0  0  0  0  0  0  0  0
   40.6830   28.4910   42.2470 N   0  0  0  0  0  0  0  0  0  0  0  0
   42.2260   27.1970   40.8750 N   0  0  0  0  0  0  0  0  0  0  0  0
   41.5450   28.9900   42.5730 H   0  0  0  0  0  0  0  0  0  0  0  0
   36.9461   31.8149   41.1919 H   0  0  0  0  0  0  0  0  0  0  0  0
   38.5069   30.2661   42.4099 H   0  0  0  0  0  0  0  0  0  0  0  0
   34.4925   28.6031   40.0353 H   0  0  0  0  0  0  0  0  0  0  0  0
   38.4623   28.3683   44.4098 H   0  0  0  0  0  0  0  0  0  0  0  0
   37.5673   26.8748   44.5056 H   0  0  0  0  0  0  0  0  0  0  0  0
   40.5315   27.2849   43.6720 H   0  0  0  0  0  0  0  0  0  0  0  0
   39.9859   26.2142   44.9182 H   0  0  0  0  0  0  0  0  0  0  0  0
   40.3505   25.1734   42.4945 H   0  0  0  0  0  0  0  0  0  0  0  0
   38.8249   24.7518   43.2361 H   0  0  0  0  0  0  0  0  0  0  0  0
   37.9303   25.9198   41.2217 H   0  0  0  0  0  0  0  0  0  0  0  0
   39.6834   26.5982   39.8881 H   0  0  0  0  0  0  0  0  0  0  0  0
   43.0562   27.7042   41.2133 H   0  0  0  0  0  0  0  0  0  0  0  0
   42.3308   26.4412   40.1831 H   0  0  0  0  0  0  0  0  0  0  0  0
  1  2  2  0
  3  2  1  0
  3  7  1  0
  4  3  2  0
  5  6  2  0
  5  4  1  0
  6  1  1  0
  7  8  1  0
  8  9  1  0
 10  9  1  0
 11  7  1  0
 11 10  1  0
 12 13  1  0
 12 11  1  0
 13 14  2  0
 14 16  1  0
 15 13  1  0
  1 17  1  0
  2 18  1  0
  5 19  1  0
  8 20  1  0
  8 21  1  0
  9 22  1  0
  9 23  1  0
 10 24  1  0
 10 25  1  0
 11 26  1  6
 12 27  1  0
 15 28  1  0
 15 29  1  0
M  ISO  8  17  14  18  14  19  14  20  13  21  13  22  13  23  13  24  13
M  ISO  2  25  13  26  13
M  END
>  <minimizedAffinity>  (1) 
-3.94317389

>  <minimizedRMSD>  (1) 
0.688605428

$$$$
