
     RDKit          3D

 25 26  0  0  1  0  0  0  0  0999 V2000
   36.9380   30.7470   41.0700 C   0  0  0  0  0  0  0  0  0  0  0  0
   37.7660   29.8300   41.7290 C   0  0  0  0  0  0  0  0  0  0  0  0
   37.3460   28.5070   41.8410 C   0  0  0  0  0  0  0  0  0  0  0  0
   36.1470   28.2010   41.2910 N   0  0  0  0  0  0  0  0  0  0  0  0
   35.3570   29.0830   40.6600 C   0  0  0  0  0  0  0  0  0  0  0  0
   35.7560   30.3670   40.5480 N   0  0  0  0  0  0  0  0  0  0  0  0
   38.0980   27.4860   42.4880 N   0  0  0  0  0  0  0  0  0  0  0  0
   38.5040   27.4470   43.8770 C   0  0  0  0  0  0  0  0  0  0  0  0
   39.6620   26.5030   43.8800 C   0  0  0  0  0  0  0  0  0  0  0  0
   39.2880   25.5030   42.8270 C   0  0  0  0  0  0  0  0  0  0  0  0
   38.5600   26.3250   41.8010 C   0  0  1  0  0  0  0  0  0  0  0  0
   37.3630   25.6300   41.2140 C   0  0  0  0  0  0  0  0  0  0  0  0
   37.2583   31.7952   40.9771 H   0  0  0  0  0  0  0  0  0  0  0  0
   38.7307   30.1489   42.1506 H   0  0  0  0  0  0  0  0  0  0  0  0
   34.3931   28.7623   40.2380 H   0  0  0  0  0  0  0  0  0  0  0  0
   38.8101   28.4447   44.2245 H   0  0  0  0  0  0  0  0  0  0  0  0
   37.6934   27.1302   44.5498 H   0  0  0  0  0  0  0  0  0  0  0  0
   40.5955   27.0223   43.6177 H   0  0  0  0  0  0  0  0  0  0  0  0
   39.8455   26.0468   44.8640 H   0  0  0  0  0  0  0  0  0  0  0  0
   40.1844   25.0366   42.3924 H   0  0  0  0  0  0  0  0  0  0  0  0
   38.6801   24.6751   43.2208 H   0  0  0  0  0  0  0  0  0  0  0  0
   39.2453   26.5353   40.9666 H   0  0  0  0  0  0  0  0  0  0  0  0
   36.7209   25.2572   42.0256 H   0  0  0  0  0  0  0  0  0  0  0  0
   36.7952   26.3389   40.5935 H   0  0  0  0  0  0  0  0  0  0  0  0
   37.6971   24.7854   40.5935 H   0  0  0  0  0  0  0  0  0  0  0  0
  1  2  2  0
  2  3  1  0
  3  7  1  0
  4  3  2  0
  5  4  1  0
  6  5  2  0
  6  1  1  0
  7  8  1  0
  8  9  1  0
 10  9  1  0
 11  7  1  0
 11 10  1  0
 12 11  1  0
  1 13  1  0
  2 14  1  0
  5 15  1  0
  8 16  1  0
  8 17  1  0
  9 18  1  0
  9 19  1  0
 10 20  1  0
 10 21  1  0
 11 22  1  6
 12 23  1  0
 12 24  1  0
 12 25  1  0
M  ISO  8  13  14  14  14  15  14  16  13  17  13  18  13  19  13  20  13
M  ISO  5  21  13  22  13  23   8  24   8  25   8
M  END
>  <minimizedAffinity>  (1) 
-3.93607521

>  <minimizedRMSD>  (1) 
0.0881417021

$$$$
