
     RDKit          3D

 31 32  0  0  1  0  0  0  0  0999 V2000
   36.8280   30.7400   41.1600 C   0  0  0  0  0  0  0  0  0  0  0  0
   37.7010   29.8560   41.8350 C   0  0  0  0  0  0  0  0  0  0  0  0
   37.3270   28.4970   41.8720 C   0  0  0  0  0  0  0  0  0  0  0  0
   36.1710   28.1480   41.2640 N   0  0  0  0  0  0  0  0  0  0  0  0
   35.3700   29.0230   40.6340 C   0  0  0  0  0  0  0  0  0  0  0  0
   35.7020   30.3230   40.5820 N   0  0  0  0  0  0  0  0  0  0  0  0
   38.1000   27.4870   42.5130 N   0  0  0  0  0  0  0  0  0  0  0  0
   38.4810   27.4290   43.9070 C   0  0  0  0  0  0  0  0  0  0  0  0
   39.6680   26.5160   43.9260 C   0  0  0  0  0  0  0  0  0  0  0  0
   39.3460   25.5360   42.8290 C   0  0  0  0  0  0  0  0  0  0  0  0
   38.6160   26.3560   41.8290 C   0  0  2  0  0  0  0  0  0  0  0  0
   39.4380   26.6950   40.6120 C   0  0  0  0  0  0  0  0  0  0  0  0
   40.7780   26.0210   40.6030 C   0  0  0  0  0  0  0  0  0  0  0  0
   38.7210   26.2860   39.3450 C   0  0  0  0  0  0  0  0  0  0  0  0
   37.0870   31.8079   41.1103 H   0  0  0  0  0  0  0  0  0  0  0  0
   38.6279   30.2116   42.3088 H   0  0  0  0  0  0  0  0  0  0  0  0
   34.4407   28.6741   40.1600 H   0  0  0  0  0  0  0  0  0  0  0  0
   38.7514   28.4281   44.2794 H   0  0  0  0  0  0  0  0  0  0  0  0
   37.6647   27.0722   44.5523 H   0  0  0  0  0  0  0  0  0  0  0  0
   40.5954   27.0658   43.7077 H   0  0  0  0  0  0  0  0  0  0  0  0
   39.8378   26.0393   44.9027 H   0  0  0  0  0  0  0  0  0  0  0  0
   40.2656   25.1157   42.3958 H   0  0  0  0  0  0  0  0  0  0  0  0
   38.7605   24.6751   43.1842 H   0  0  0  0  0  0  0  0  0  0  0  0
   37.7855   25.7764   41.3997 H   0  0  0  0  0  0  0  0  0  0  0  0
   39.5835   27.7845   40.6540 H   0  0  0  0  0  0  0  0  0  0  0  0
   41.1111   25.8534   41.6379 H   0  0  0  0  0  0  0  0  0  0  0  0
   40.6992   25.0553   40.0823 H   0  0  0  0  0  0  0  0  0  0  0  0
   41.5064   26.6600   40.0823 H   0  0  0  0  0  0  0  0  0  0  0  0
   37.7924   25.7563   39.6039 H   0  0  0  0  0  0  0  0  0  0  0  0
   38.4795   27.1822   38.7547 H   0  0  0  0  0  0  0  0  0  0  0  0
   39.3696   25.6220   38.7547 H   0  0  0  0  0  0  0  0  0  0  0  0
  1  2  2  0
  2  3  1  0
  3  7  1  0
  4  3  2  0
  5  4  1  0
  6  5  2  0
  6  1  1  0
  7  8  1  0
  8  9  1  0
 10  9  1  0
 11  7  1  0
 11 10  1  0
 12 11  1  0
 13 12  1  0
 14 12  1  0
  1 15  1  0
  2 16  1  0
  5 17  1  0
  8 18  1  0
  8 19  1  0
  9 20  1  0
  9 21  1  0
 10 22  1  0
 10 23  1  0
 11 24  1  6
 12 25  1  0
 13 26  1  0
 13 27  1  0
 13 28  1  0
 14 29  1  0
 14 30  1  0
 14 31  1  0
M  ISO  8  15  14  16  14  17  14  18  13  19  13  20  13  21  13  22  13
M  ISO  8  23  13  24  13  25   8  26   8  27   8  28   8  29   8  30   8
M  ISO  1  31   8
M  END
>  <minimizedAffinity>  (1) 
-3.87071848

>  <minimizedRMSD>  (1) 
0.581518471

$$$$
