
     RDKit          3D

 23 24  0  0  1  0  0  0  0  0999 V2000
   36.8080   30.7630   41.1670 C   0  0  0  0  0  0  0  0  0  0  0  0
   37.6520   29.8540   41.8210 C   0  0  0  0  0  0  0  0  0  0  0  0
   37.3090   28.5010   41.8550 C   0  0  0  0  0  0  0  0  0  0  0  0
   36.1530   28.1450   41.2380 N   0  0  0  0  0  0  0  0  0  0  0  0
   35.3530   29.0320   40.6140 C   0  0  0  0  0  0  0  0  0  0  0  0
   35.6930   30.3500   40.5840 N   0  0  0  0  0  0  0  0  0  0  0  0
   38.0810   27.4900   42.4860 N   0  0  0  0  0  0  0  0  0  0  0  0
   38.4460   27.4300   43.8930 C   0  0  0  0  0  0  0  0  0  0  0  0
   39.6870   26.5600   43.8820 C   0  0  0  0  0  0  0  0  0  0  0  0
   39.2890   25.5270   42.8540 C   0  0  0  0  0  0  0  0  0  0  0  0
   38.6170   26.3650   41.7960 C   0  0  1  0  0  0  0  0  0  0  0  0
   37.5930   25.6390   41.1820 O   0  0  0  0  0  0  0  0  0  0  0  0
   37.0748   31.8298   41.1379 H   0  0  0  0  0  0  0  0  0  0  0  0
   38.5766   30.2040   42.3032 H   0  0  0  0  0  0  0  0  0  0  0  0
   34.4261   28.6914   40.1293 H   0  0  0  0  0  0  0  0  0  0  0  0
   38.6685   28.4324   44.2876 H   0  0  0  0  0  0  0  0  0  0  0  0
   37.6439   27.0358   44.5342 H   0  0  0  0  0  0  0  0  0  0  0  0
   40.5765   27.1251   43.5667 H   0  0  0  0  0  0  0  0  0  0  0  0
   39.9665   26.1473   44.8626 H   0  0  0  0  0  0  0  0  0  0  0  0
   40.1704   25.0077   42.4498 H   0  0  0  0  0  0  0  0  0  0  0  0
   38.6465   24.7305   43.2574 H   0  0  0  0  0  0  0  0  0  0  0  0
   39.3194   26.6674   41.0053 H   0  0  0  0  0  0  0  0  0  0  0  0
   37.0166   25.2303   41.8755 H   0  0  0  0  0  0  0  0  0  0  0  0
  1  2  2  0
  2  3  1  0
  3  7  1  0
  4  3  2  0
  5  4  1  0
  6  5  2  0
  6  1  1  0
  7  8  1  0
  9  8  1  0
 10  9  1  0
 11  7  1  0
 11 10  1  0
 12 11  1  0
  1 13  1  0
  2 14  1  0
  5 15  1  0
  8 16  1  0
  8 17  1  0
  9 18  1  0
  9 19  1  0
 10 20  1  0
 10 21  1  0
 11 22  1  6
 12 23  1  0
M  ISO  8  13  14  14  14  15  14  16  13  17  13  18  13  19  13  20  13
M  ISO  3  21  13  22  13  23   3
M  END
>  <minimizedAffinity>  (1) 
-3.85587907

>  <minimizedRMSD>  (1) 
0.00882764906

$$$$
