
     RDKit          3D

 33 36  0  0  1  0  0  0  0  0999 V2000
   36.9050   30.6430   41.1490 C   0  0  0  0  0  0  0  0  0  0  0  0
   37.7680   29.7770   41.8200 C   0  0  0  0  0  0  0  0  0  0  0  0
   37.4130   28.4310   41.9450 C   0  0  0  0  0  0  0  0  0  0  0  0
   36.2360   28.0600   41.3960 N   0  0  0  0  0  0  0  0  0  0  0  0
   35.4190   28.9130   40.7530 C   0  0  0  0  0  0  0  0  0  0  0  0
   35.7590   30.2130   40.6290 N   0  0  0  0  0  0  0  0  0  0  0  0
   38.2070   27.4580   42.6040 N   0  0  0  0  0  0  0  0  0  0  0  0
   38.6190   27.4530   43.9990 C   0  0  0  0  0  0  0  0  0  0  0  0
   39.8790   26.5970   43.9680 C   0  0  0  0  0  0  0  0  0  0  0  0
   39.4210   25.5170   43.0190 C   0  0  0  0  0  0  0  0  0  0  0  0
   38.7280   26.3050   41.9510 C   0  0  1  0  0  0  0  0  0  0  0  0
   37.7790   25.5340   41.1930 N   0  0  0  0  0  0  0  0  0  0  0  0
   36.9370   24.5900   41.7070 C   0  0  0  0  0  0  0  0  0  0  0  0
   36.1640   24.0290   40.7850 N   0  0  0  0  0  0  0  0  0  0  0  0
   36.4960   24.6130   39.6280 C   0  0  0  0  0  0  0  0  0  0  0  0
   36.0040   24.4120   38.3410 C   0  0  0  0  0  0  0  0  0  0  0  0
   36.5470   25.1670   37.3530 N   0  0  0  0  0  0  0  0  0  0  0  0
   37.5250   26.0710   37.6370 C   0  0  0  0  0  0  0  0  0  0  0  0
   37.9990   26.2650   38.8740 N   0  0  0  0  0  0  0  0  0  0  0  0
   37.5000   25.5460   39.8990 C   0  0  0  0  0  0  0  0  0  0  0  0
   37.1779   31.7038   41.0478 H   0  0  0  0  0  0  0  0  0  0  0  0
   38.7130   30.1474   42.2441 H   0  0  0  0  0  0  0  0  0  0  0  0
   34.4718   28.5503   40.3273 H   0  0  0  0  0  0  0  0  0  0  0  0
   38.8389   28.4713   44.3521 H   0  0  0  0  0  0  0  0  0  0  0  0
   37.8465   27.0714   44.6829 H   0  0  0  0  0  0  0  0  0  0  0  0
   40.7427   27.1518   43.5727 H   0  0  0  0  0  0  0  0  0  0  0  0
   40.2289   26.2420   44.9486 H   0  0  0  0  0  0  0  0  0  0  0  0
   40.2751   24.9571   42.6104 H   0  0  0  0  0  0  0  0  0  0  0  0
   38.7812   24.7571   43.4915 H   0  0  0  0  0  0  0  0  0  0  0  0
   39.4216   26.6161   41.1560 H   0  0  0  0  0  0  0  0  0  0  0  0
   36.9028   24.3224   42.7734 H   0  0  0  0  0  0  0  0  0  0  0  0
   35.2127   23.6761   38.1351 H   0  0  0  0  0  0  0  0  0  0  0  0
   37.9441   26.6682   36.8138 H   0  0  0  0  0  0  0  0  0  0  0  0
  1  2  2  0
  2  3  1  0
  3  7  1  0
  4  3  2  0
  5  4  1  0
  6  5  2  0
  6  1  1  0
  7  8  1  0
  9  8  1  0
 10  9  1  0
 11  7  1  0
 11 10  1  0
 12 13  1  0
 12 11  1  0
 14 13  2  0
 15 20  2  0
 15 14  1  0
 16 15  1  0
 17 18  1  0
 17 16  2  0
 18 19  2  0
 19 20  1  0
 20 12  1  0
  1 21  1  0
  2 22  1  0
  5 23  1  0
  8 24  1  0
  8 25  1  0
  9 26  1  0
  9 27  1  0
 10 28  1  0
 10 29  1  0
 11 30  1  6
 13 31  1  0
 16 32  1  0
 18 33  1  0
M  ISO  8  21  14  22  14  23  14  24  13  25  13  26  13  27  13  28  13
M  ISO  5  29  13  30  13  31  14  32  14  33  14
M  END
>  <minimizedAffinity>  (1) 
-4.94389915

>  <minimizedRMSD>  (1) 
1.58742011

$$$$
