
     RDKit          3D

 16 17  0  0  0  0  0  0  0  0999 V2000
   38.2420   28.8920   43.3760 C   0  0  0  0  0  0  0  0  0  0  0  0
   37.2890   27.8480   43.2420 C   0  0  0  0  0  0  0  0  0  0  0  0
   36.3850   27.9410   42.1790 C   0  0  0  0  0  0  0  0  0  0  0  0
   36.4650   29.0170   41.3370 N   0  0  0  0  0  0  0  0  0  0  0  0
   37.3810   29.9880   41.4940 C   0  0  0  0  0  0  0  0  0  0  0  0
   38.2680   29.9250   42.5100 N   0  0  0  0  0  0  0  0  0  0  0  0
   37.3260   31.0340   40.5290 N   0  0  0  0  0  0  0  0  0  0  0  0
   37.0280   30.7000   39.2430 C   0  0  0  0  0  0  0  0  0  0  0  0
   37.0340   31.8570   38.5260 N   0  0  0  0  0  0  0  0  0  0  0  0
   37.3320   32.8890   39.3620 C   0  0  0  0  0  0  0  0  0  0  0  0
   37.5050   32.3400   40.5870 N   0  0  0  0  0  0  0  0  0  0  0  0
   38.9706   28.8574   44.1994 H   0  0  0  0  0  0  0  0  0  0  0  0
   37.2629   27.0019   43.9445 H   0  0  0  0  0  0  0  0  0  0  0  0
   35.6232   27.1631   42.0224 H   0  0  0  0  0  0  0  0  0  0  0  0
   36.8222   29.6903   38.8580 H   0  0  0  0  0  0  0  0  0  0  0  0
   37.4153   33.9531   39.0960 H   0  0  0  0  0  0  0  0  0  0  0  0
  2  1  2  0
  3  2  1  0
  4  5  1  0
  4  3  2  0
  5  6  2  0
  6  1  1  0
  7 11  1  0
  7  5  1  0
  8  7  1  0
  9  8  2  0
  9 10  1  0
 10 11  2  0
  1 12  1  0
  2 13  1  0
  3 14  1  0
  8 15  1  0
 10 16  1  0
M  ISO  5  12  14  13  14  14  14  15  14  16  14
M  END
>  <minimizedAffinity>  (1) 
-3.61710215

>  <minimizedRMSD>  (1) 
1.49447358

$$$$
