
     RDKit          3D

 43 47  0  0  1  0  0  0  0  0999 V2000
   36.8060   30.6630   41.1570 C   0  0  0  0  0  0  0  0  0  0  0  0
   37.7120   29.8100   41.7810 C   0  0  0  0  0  0  0  0  0  0  0  0
   37.3820   28.4610   41.9360 C   0  0  0  0  0  0  0  0  0  0  0  0
   36.1820   28.0740   41.4580 N   0  0  0  0  0  0  0  0  0  0  0  0
   35.3190   28.9130   40.8580 C   0  0  0  0  0  0  0  0  0  0  0  0
   35.6360   30.2160   40.7070 N   0  0  0  0  0  0  0  0  0  0  0  0
   38.2320   27.5070   42.5570 N   0  0  0  0  0  0  0  0  0  0  0  0
   38.7340   27.5170   43.9220 C   0  0  0  0  0  0  0  0  0  0  0  0
   39.9980   26.6750   43.8260 C   0  0  0  0  0  0  0  0  0  0  0  0
   39.4940   25.5770   42.9150 C   0  0  0  0  0  0  0  0  0  0  0  0
   38.7280   26.3480   41.8740 C   0  0  1  0  0  0  0  0  0  0  0  0
   37.7460   25.5630   41.1800 N   0  0  0  0  0  0  0  0  0  0  0  0
   37.1620   24.4210   41.6680 C   0  0  0  0  0  0  0  0  0  0  0  0
   36.2840   23.8880   40.8260 N   0  0  0  0  0  0  0  0  0  0  0  0
   36.2800   24.6890   39.7540 C   0  0  0  0  0  0  0  0  0  0  0  0
   35.5560   24.6200   38.5630 C   0  0  0  0  0  0  0  0  0  0  0  0
   35.7730   25.5970   37.6480 N   0  0  0  0  0  0  0  0  0  0  0  0
   36.6620   26.5840   37.9050 C   0  0  0  0  0  0  0  0  0  0  0  0
   37.3660   26.6590   39.0510 N   0  0  0  0  0  0  0  0  0  0  0  0
   37.1930   25.7200   39.9950 C   0  0  0  0  0  0  0  0  0  0  0  0
   36.7400   27.5040   36.8190 N   0  0  0  0  0  0  0  0  0  0  0  0
   35.6400   28.3090   36.7950 C   0  0  0  0  0  0  0  0  0  0  0  0
   35.5210   29.2870   35.8010 C   0  0  0  0  0  0  0  0  0  0  0  0
   36.5280   29.4260   34.8450 C   0  0  0  0  0  0  0  0  0  0  0  0
   36.4520   30.2930   33.9400 O   0  0  0  0  0  0  0  0  0  0  0  0
   37.5920   28.5820   34.9420 N   0  0  0  0  0  0  0  0  0  0  0  0
   37.6910   27.6530   35.8980 C   0  0  0  0  0  0  0  0  0  0  0  0
   38.6500   26.8550   36.0260 O   0  0  0  0  0  0  0  0  0  0  0  0
   37.0617   31.7257   41.0336 H   0  0  0  0  0  0  0  0  0  0  0  0
   38.6758   30.1931   42.1475 H   0  0  0  0  0  0  0  0  0  0  0  0
   34.3532   28.5365   40.4898 H   0  0  0  0  0  0  0  0  0  0  0  0
   38.9647   28.5409   44.2513 H   0  0  0  0  0  0  0  0  0  0  0  0
   38.0095   27.1307   44.6540 H   0  0  0  0  0  0  0  0  0  0  0  0
   40.8307   27.2339   43.3741 H   0  0  0  0  0  0  0  0  0  0  0  0
   40.4098   26.3350   44.7877 H   0  0  0  0  0  0  0  0  0  0  0  0
   40.3283   25.0198   42.4639 H   0  0  0  0  0  0  0  0  0  0  0  0
   38.8896   24.8182   43.4335 H   0  0  0  0  0  0  0  0  0  0  0  0
   39.3673   26.6556   41.0334 H   0  0  0  0  0  0  0  0  0  0  0  0
   37.3965   23.9920   42.6534 H   0  0  0  0  0  0  0  0  0  0  0  0
   34.8393   23.8071   38.3743 H   0  0  0  0  0  0  0  0  0  0  0  0
   34.8509   28.1906   37.5522 H   0  0  0  0  0  0  0  0  0  0  0  0
   34.6382   29.9427   35.7735 H   0  0  0  0  0  0  0  0  0  0  0  0
   38.3513   28.6626   34.2508 H   0  0  0  0  0  0  0  0  0  0  0  0
  1  2  2  0
  2  3  1  0
  3  7  1  0
  4  3  2  0
  5  4  1  0
  6  5  2  0
  6  1  1  0
  7  8  1  0
  9  8  1  0
 10  9  1  0
 11  7  1  0
 11 10  1  0
 12 13  1  0
 12 11  1  0
 14 13  2  0
 15 20  2  0
 15 14  1  0
 16 15  1  0
 17 18  1  0
 17 16  2  0
 18 19  2  0
 19 20  1  0
 20 12  1  0
 21 18  1  0
 22 21  1  0
 23 22  2  0
 24 26  1  0
 24 23  1  0
 25 24  2  0
 26 27  1  0
 27 28  2  0
 27 21  1  0
  1 29  1  0
  2 30  1  0
  5 31  1  0
  8 32  1  0
  8 33  1  0
  9 34  1  0
  9 35  1  0
 10 36  1  0
 10 37  1  0
 11 38  1  6
 13 39  1  0
 16 40  1  0
 22 41  1  0
 23 42  1  0
 26 43  1  0
M  ISO  8  29  14  30  14  31  14  32  13  33  13  34  13  35  13  36  13
M  ISO  7  37  13  38  13  39  14  40  14  41  14  42  14  43   9
M  END
>  <minimizedAffinity>  (1) 
-6.88083363

>  <minimizedRMSD>  (1) 
1.11994135

$$$$
