
     RDKit          3D

 45 49  0  0  1  0  0  0  0  0999 V2000
   36.8880   30.6850   41.2340 C   0  0  0  0  0  0  0  0  0  0  0  0
   37.7580   29.8010   41.8690 C   0  0  0  0  0  0  0  0  0  0  0  0
   37.4070   28.4470   41.9900 C   0  0  0  0  0  0  0  0  0  0  0  0
   36.2120   28.0980   41.4610 N   0  0  0  0  0  0  0  0  0  0  0  0
   35.3800   28.9580   40.8510 C   0  0  0  0  0  0  0  0  0  0  0  0
   35.7280   30.2610   40.7400 N   0  0  0  0  0  0  0  0  0  0  0  0
   38.2150   27.4710   42.6130 N   0  0  0  0  0  0  0  0  0  0  0  0
   38.6640   27.4560   43.9940 C   0  0  0  0  0  0  0  0  0  0  0  0
   39.9100   26.5970   43.9330 C   0  0  0  0  0  0  0  0  0  0  0  0
   39.4380   25.5220   42.9730 C   0  0  0  0  0  0  0  0  0  0  0  0
   38.7150   26.3270   41.9350 C   0  0  1  0  0  0  0  0  0  0  0  0
   37.7390   25.5650   41.1920 N   0  0  0  0  0  0  0  0  0  0  0  0
   37.1020   24.4450   41.6400 C   0  0  0  0  0  0  0  0  0  0  0  0
   36.2500   23.9390   40.7520 N   0  0  0  0  0  0  0  0  0  0  0  0
   36.3240   24.7500   39.6810 C   0  0  0  0  0  0  0  0  0  0  0  0
   35.6540   24.6960   38.4690 C   0  0  0  0  0  0  0  0  0  0  0  0
   35.9440   25.6740   37.5630 N   0  0  0  0  0  0  0  0  0  0  0  0
   36.8550   26.6430   37.8740 C   0  0  0  0  0  0  0  0  0  0  0  0
   37.4970   26.6910   39.0390 N   0  0  0  0  0  0  0  0  0  0  0  0
   37.2550   25.7510   39.9820 C   0  0  0  0  0  0  0  0  0  0  0  0
   37.1110   27.6330   36.8850 N   0  0  0  0  0  0  0  0  0  0  0  0
   37.5060   29.0150   37.0820 C   0  0  0  0  0  0  0  0  0  0  0  0
   36.6810   29.7310   36.0350 C   0  0  0  0  0  0  0  0  0  0  0  0
   36.8230   28.8050   34.8480 C   0  0  0  0  0  0  0  0  0  0  0  0
   37.0300   27.4600   35.4450 C   0  0  0  0  0  0  0  0  0  0  0  0
   37.1636   31.7458   41.1401 H   0  0  0  0  0  0  0  0  0  0  0  0
   38.7150   30.1622   42.2735 H   0  0  0  0  0  0  0  0  0  0  0  0
   34.4210   28.6051   40.4439 H   0  0  0  0  0  0  0  0  0  0  0  0
   38.8997   28.4715   44.3449 H   0  0  0  0  0  0  0  0  0  0  0  0
   37.9061   27.0744   44.6940 H   0  0  0  0  0  0  0  0  0  0  0  0
   40.7707   27.1531   43.5329 H   0  0  0  0  0  0  0  0  0  0  0  0
   40.2673   26.2271   44.9054 H   0  0  0  0  0  0  0  0  0  0  0  0
   40.2869   24.9759   42.5357 H   0  0  0  0  0  0  0  0  0  0  0  0
   38.8167   24.7470   43.4455 H   0  0  0  0  0  0  0  0  0  0  0  0
   39.3886   26.6472   41.1264 H   0  0  0  0  0  0  0  0  0  0  0  0
   37.2749   24.0053   42.6334 H   0  0  0  0  0  0  0  0  0  0  0  0
   34.9240   23.9033   38.2483 H   0  0  0  0  0  0  0  0  0  0  0  0
   37.2543   29.3620   38.0950 H   0  0  0  0  0  0  0  0  0  0  0  0
   38.5886   29.1846   36.9856 H   0  0  0  0  0  0  0  0  0  0  0  0
   35.6304   29.8247   36.3472 H   0  0  0  0  0  0  0  0  0  0  0  0
   37.0069   30.7630   35.8382 H   0  0  0  0  0  0  0  0  0  0  0  0
   37.6871   29.0935   34.2315 H   0  0  0  0  0  0  0  0  0  0  0  0
   35.9449   28.8372   34.1862 H   0  0  0  0  0  0  0  0  0  0  0  0
   36.1855   26.8021   35.1920 H   0  0  0  0  0  0  0  0  0  0  0  0
   37.9502   26.9994   35.0563 H   0  0  0  0  0  0  0  0  0  0  0  0
  1  2  2  0
  2  3  1  0
  3  7  1  0
  4  3  2  0
  5  4  1  0
  6  5  2  0
  6  1  1  0
  7  8  1  0
  9  8  1  0
 10  9  1  0
 11  7  1  0
 11 10  1  0
 12 13  1  0
 12 11  1  0
 14 13  2  0
 15 20  2  0
 15 14  1  0
 16 15  1  0
 17 18  1  0
 17 16  2  0
 18 19  2  0
 19 20  1  0
 20 12  1  0
 21 22  1  0
 21 18  1  0
 23 22  1  0
 24 25  1  0
 24 23  1  0
 25 21  1  0
  1 26  1  0
  2 27  1  0
  5 28  1  0
  8 29  1  0
  8 30  1  0
  9 31  1  0
  9 32  1  0
 10 33  1  0
 10 34  1  0
 11 35  1  6
 13 36  1  0
 16 37  1  0
 22 38  1  0
 22 39  1  0
 23 40  1  0
 23 41  1  0
 24 42  1  0
 24 43  1  0
 25 44  1  0
 25 45  1  0
M  ISO  8  26  14  27  14  28  14  29  13  30  13  31  13  32  13  33  13
M  ISO  8  34  13  35  13  36  14  37  14  38  13  39  13  40  13  41  13
M  ISO  4  42  13  43  13  44  13  45  13
M  END
>  <minimizedAffinity>  (1) 
-5.96310568

>  <minimizedRMSD>  (1) 
0.791415691

$$$$
