
     RDKit          3D

 40 44  0  0  1  0  0  0  0  0999 V2000
   36.8060   30.6770   41.2010 C   0  0  0  0  0  0  0  0  0  0  0  0
   37.6970   29.8130   41.8300 C   0  0  0  0  0  0  0  0  0  0  0  0
   37.3520   28.4610   41.9540 C   0  0  0  0  0  0  0  0  0  0  0  0
   36.1650   28.0830   41.4480 N   0  0  0  0  0  0  0  0  0  0  0  0
   35.3160   28.9380   40.8420 C   0  0  0  0  0  0  0  0  0  0  0  0
   35.6380   30.2410   40.7180 N   0  0  0  0  0  0  0  0  0  0  0  0
   38.1880   27.4870   42.5800 N   0  0  0  0  0  0  0  0  0  0  0  0
   38.6480   27.4700   43.9570 C   0  0  0  0  0  0  0  0  0  0  0  0
   39.9070   26.6410   43.8760 C   0  0  0  0  0  0  0  0  0  0  0  0
   39.4440   25.5580   42.9230 C   0  0  0  0  0  0  0  0  0  0  0  0
   38.6980   26.3580   41.8950 C   0  0  1  0  0  0  0  0  0  0  0  0
   37.7220   25.5780   41.1610 N   0  0  0  0  0  0  0  0  0  0  0  0
   37.1410   24.4260   41.6030 C   0  0  0  0  0  0  0  0  0  0  0  0
   36.2790   23.9140   40.7310 N   0  0  0  0  0  0  0  0  0  0  0  0
   36.2930   24.7550   39.6830 C   0  0  0  0  0  0  0  0  0  0  0  0
   35.5820   24.7090   38.4830 C   0  0  0  0  0  0  0  0  0  0  0  0
   35.7990   25.7030   37.5990 N   0  0  0  0  0  0  0  0  0  0  0  0
   36.6870   26.6980   37.9020 C   0  0  0  0  0  0  0  0  0  0  0  0
   37.3690   26.7510   39.0420 N   0  0  0  0  0  0  0  0  0  0  0  0
   37.1920   25.7810   39.9660 C   0  0  0  0  0  0  0  0  0  0  0  0
   36.8070   27.6730   36.8710 N   0  0  0  0  0  0  0  0  0  0  0  0
   36.7650   29.0040   37.1680 C   0  0  0  0  0  0  0  0  0  0  0  0
   36.9100   29.6420   35.9470 C   0  0  0  0  0  0  0  0  0  0  0  0
   37.0340   28.7430   34.9540 N   0  0  0  0  0  0  0  0  0  0  0  0
   36.9670   27.5190   35.5510 C   0  0  0  0  0  0  0  0  0  0  0  0
   37.0679   31.7405   41.0990 H   0  0  0  0  0  0  0  0  0  0  0  0
   38.6549   30.1848   42.2227 H   0  0  0  0  0  0  0  0  0  0  0  0
   34.3572   28.5706   40.4475 H   0  0  0  0  0  0  0  0  0  0  0  0
   38.8651   28.4871   44.3153 H   0  0  0  0  0  0  0  0  0  0  0  0
   37.9046   27.0672   44.6606 H   0  0  0  0  0  0  0  0  0  0  0  0
   40.7492   27.2159   43.4634 H   0  0  0  0  0  0  0  0  0  0  0  0
   40.2872   26.2781   44.8423 H   0  0  0  0  0  0  0  0  0  0  0  0
   40.2965   25.0256   42.4760 H   0  0  0  0  0  0  0  0  0  0  0  0
   38.8421   24.7703   43.3997 H   0  0  0  0  0  0  0  0  0  0  0  0
   39.3576   26.6943   41.0814 H   0  0  0  0  0  0  0  0  0  0  0  0
   37.3627   23.9688   42.5786 H   0  0  0  0  0  0  0  0  0  0  0  0
   34.8739   23.8953   38.2676 H   0  0  0  0  0  0  0  0  0  0  0  0
   36.6430   29.4678   38.1579 H   0  0  0  0  0  0  0  0  0  0  0  0
   36.9221   30.7332   35.8085 H   0  0  0  0  0  0  0  0  0  0  0  0
   37.0341   26.5535   35.0283 H   0  0  0  0  0  0  0  0  0  0  0  0
  1  2  2  0
  2  3  1  0
  3  7  1  0
  4  3  2  0
  5  4  1  0
  6  5  2  0
  6  1  1  0
  7  8  1  0
  9  8  1  0
 10  9  1  0
 11  7  1  0
 11 10  1  0
 12 13  1  0
 12 11  1  0
 14 13  2  0
 15 20  2  0
 15 14  1  0
 16 15  1  0
 17 18  1  0
 17 16  2  0
 18 19  2  0
 19 20  1  0
 20 12  1  0
 21 22  1  0
 21 18  1  0
 23 22  2  0
 24 25  2  0
 24 23  1  0
 25 21  1  0
  1 26  1  0
  2 27  1  0
  5 28  1  0
  8 29  1  0
  8 30  1  0
  9 31  1  0
  9 32  1  0
 10 33  1  0
 10 34  1  0
 11 35  1  6
 13 36  1  0
 16 37  1  0
 22 38  1  0
 23 39  1  0
 25 40  1  0
M  ISO  8  26  14  27  14  28  14  29  13  30  13  31  13  32  13  33  13
M  ISO  7  34  13  35  13  36  14  37  14  38  14  39  14  40  14
M  END
>  <minimizedAffinity>  (1) 
-5.84237719

>  <minimizedRMSD>  (1) 
0.936116636

$$$$
