
     RDKit          3D

 40 44  0  0  1  0  0  0  0  0999 V2000
   36.7300   30.6650   41.1040 C   0  0  0  0  0  0  0  0  0  0  0  0
   37.6570   29.8280   41.7240 C   0  0  0  0  0  0  0  0  0  0  0  0
   37.3500   28.4640   41.8860 C   0  0  0  0  0  0  0  0  0  0  0  0
   36.1530   28.0700   41.4170 N   0  0  0  0  0  0  0  0  0  0  0  0
   35.2720   28.9030   40.8190 C   0  0  0  0  0  0  0  0  0  0  0  0
   35.5630   30.2020   40.6630 N   0  0  0  0  0  0  0  0  0  0  0  0
   38.2020   27.5230   42.4950 N   0  0  0  0  0  0  0  0  0  0  0  0
   38.7110   27.5370   43.8630 C   0  0  0  0  0  0  0  0  0  0  0  0
   39.9940   26.7100   43.7480 C   0  0  0  0  0  0  0  0  0  0  0  0
   39.5030   25.6170   42.8370 C   0  0  0  0  0  0  0  0  0  0  0  0
   38.7040   26.3760   41.8230 C   0  0  1  0  0  0  0  0  0  0  0  0
   37.7250   25.5720   41.1370 N   0  0  0  0  0  0  0  0  0  0  0  0
   37.1830   24.4200   41.6020 C   0  0  0  0  0  0  0  0  0  0  0  0
   36.3030   23.8920   40.7540 N   0  0  0  0  0  0  0  0  0  0  0  0
   36.2590   24.7100   39.7020 C   0  0  0  0  0  0  0  0  0  0  0  0
   35.5140   24.6470   38.5250 C   0  0  0  0  0  0  0  0  0  0  0  0
   35.6900   25.6420   37.6330 N   0  0  0  0  0  0  0  0  0  0  0  0
   36.5640   26.6550   37.8900 C   0  0  0  0  0  0  0  0  0  0  0  0
   37.2830   26.7250   39.0160 N   0  0  0  0  0  0  0  0  0  0  0  0
   37.1470   25.7520   39.9490 C   0  0  0  0  0  0  0  0  0  0  0  0
   36.8090   27.7730   36.9680 C   0  0  0  0  0  0  0  0  0  0  0  0
   36.5030   29.1170   36.9290 C   0  0  0  0  0  0  0  0  0  0  0  0
   37.0550   29.5930   35.7410 C   0  0  0  0  0  0  0  0  0  0  0  0
   37.6630   28.5520   35.1100 N   0  0  0  0  0  0  0  0  0  0  0  0
   37.5110   27.4570   35.8550 N   0  0  0  0  0  0  0  0  0  0  0  0
   36.9686   31.7312   40.9767 H   0  0  0  0  0  0  0  0  0  0  0  0
   38.6167   30.2289   42.0822 H   0  0  0  0  0  0  0  0  0  0  0  0
   34.3094   28.5119   40.4579 H   0  0  0  0  0  0  0  0  0  0  0  0
   38.9278   28.5627   44.1959 H   0  0  0  0  0  0  0  0  0  0  0  0
   37.9978   27.1395   44.6002 H   0  0  0  0  0  0  0  0  0  0  0  0
   40.8140   27.2855   43.2938 H   0  0  0  0  0  0  0  0  0  0  0  0
   40.4184   26.3682   44.7035 H   0  0  0  0  0  0  0  0  0  0  0  0
   40.3425   25.0856   42.3650 H   0  0  0  0  0  0  0  0  0  0  0  0
   38.9258   24.8384   43.3572 H   0  0  0  0  0  0  0  0  0  0  0  0
   39.3300   26.6991   40.9782 H   0  0  0  0  0  0  0  0  0  0  0  0
   37.4416   23.9711   42.5724 H   0  0  0  0  0  0  0  0  0  0  0  0
   34.8132   23.8212   38.3328 H   0  0  0  0  0  0  0  0  0  0  0  0
   35.9408   29.6930   37.6787 H   0  0  0  0  0  0  0  0  0  0  0  0
   37.0074   30.6299   35.3768 H   0  0  0  0  0  0  0  0  0  0  0  0
   38.1577   28.6017   34.2080 H   0  0  0  0  0  0  0  0  0  0  0  0
  1  2  2  0
  2  3  1  0
  3  7  1  0
  4  3  2  0
  5  4  1  0
  6  5  2  0
  6  1  1  0
  7  8  1  0
  9  8  1  0
 10  9  1  0
 11  7  1  0
 11 10  1  0
 12 13  1  0
 12 11  1  0
 14 13  2  0
 15 20  2  0
 15 14  1  0
 16 15  1  0
 17 18  1  0
 17 16  2  0
 18 19  2  0
 19 20  1  0
 20 12  1  0
 21 18  1  0
 22 21  1  0
 23 22  2  0
 24 23  1  0
 24 25  1  0
 25 21  2  0
  1 26  1  0
  2 27  1  0
  5 28  1  0
  8 29  1  0
  8 30  1  0
  9 31  1  0
  9 32  1  0
 10 33  1  0
 10 34  1  0
 11 35  1  6
 13 36  1  0
 16 37  1  0
 22 38  1  0
 23 39  1  0
 24 40  1  0
M  ISO  8  26  14  27  14  28  14  29  13  30  13  31  13  32  13  33  13
M  ISO  7  34  13  35  13  36  14  37  14  38  14  39  14  40   9
M  END
>  <minimizedAffinity>  (1) 
-5.81782198

>  <minimizedRMSD>  (1) 
1.00685179

$$$$
