
     RDKit          3D

 43 47  0  0  1  0  0  0  0  0999 V2000
   36.9490   30.6050   41.3110 C   0  0  0  0  0  0  0  0  0  0  0  0
   37.8790   29.7210   41.8680 C   0  0  0  0  0  0  0  0  0  0  0  0
   37.5600   28.3710   41.9950 C   0  0  0  0  0  0  0  0  0  0  0  0
   36.3420   28.0060   41.5580 N   0  0  0  0  0  0  0  0  0  0  0  0
   35.4480   28.8580   41.0230 C   0  0  0  0  0  0  0  0  0  0  0  0
   35.7570   30.1730   40.8990 N   0  0  0  0  0  0  0  0  0  0  0  0
   38.4290   27.3960   42.5440 N   0  0  0  0  0  0  0  0  0  0  0  0
   38.9880   27.3590   43.8780 C   0  0  0  0  0  0  0  0  0  0  0  0
   40.2450   26.5230   43.6950 C   0  0  0  0  0  0  0  0  0  0  0  0
   39.6900   25.4620   42.7810 C   0  0  0  0  0  0  0  0  0  0  0  0
   38.8860   26.2710   41.8130 C   0  0  1  0  0  0  0  0  0  0  0  0
   37.8660   25.5040   41.1290 N   0  0  0  0  0  0  0  0  0  0  0  0
   37.3500   24.3190   41.5750 C   0  0  0  0  0  0  0  0  0  0  0  0
   36.4250   23.8260   40.7550 N   0  0  0  0  0  0  0  0  0  0  0  0
   36.3250   24.7030   39.7430 C   0  0  0  0  0  0  0  0  0  0  0  0
   35.5210   24.6970   38.6100 C   0  0  0  0  0  0  0  0  0  0  0  0
   35.6480   25.7380   37.7560 N   0  0  0  0  0  0  0  0  0  0  0  0
   36.5340   26.7360   38.0190 C   0  0  0  0  0  0  0  0  0  0  0  0
   37.3050   26.7360   39.1110 N   0  0  0  0  0  0  0  0  0  0  0  0
   37.2270   25.7350   39.9950 C   0  0  0  0  0  0  0  0  0  0  0  0
   36.6700   27.8640   37.0920 C   0  0  0  0  0  0  0  0  0  0  0  0
   36.8800   29.1550   37.5630 C   0  0  0  0  0  0  0  0  0  0  0  0
   37.0150   30.2570   36.7230 C   0  0  0  0  0  0  0  0  0  0  0  0
   36.9270   29.9830   35.3820 C   0  0  0  0  0  0  0  0  0  0  0  0
   36.7210   28.7400   34.8210 C   0  0  0  0  0  0  0  0  0  0  0  0
   36.5950   27.6880   35.7060 C   0  0  0  0  0  0  0  0  0  0  0  0
   37.2045   31.6703   41.2117 H   0  0  0  0  0  0  0  0  0  0  0  0
   38.8589   30.0906   42.2046 H   0  0  0  0  0  0  0  0  0  0  0  0
   34.4680   28.4885   40.6867 H   0  0  0  0  0  0  0  0  0  0  0  0
   39.2336   28.3709   44.2326 H   0  0  0  0  0  0  0  0  0  0  0  0
   38.2968   26.9468   44.6279 H   0  0  0  0  0  0  0  0  0  0  0  0
   41.0553   27.0949   43.2192 H   0  0  0  0  0  0  0  0  0  0  0  0
   40.7076   26.1543   44.6224 H   0  0  0  0  0  0  0  0  0  0  0  0
   40.4954   24.9136   42.2706 H   0  0  0  0  0  0  0  0  0  0  0  0
   39.1069   24.6891   43.3031 H   0  0  0  0  0  0  0  0  0  0  0  0
   39.4906   26.6129   40.9601 H   0  0  0  0  0  0  0  0  0  0  0  0
   37.6644   23.8278   42.5077 H   0  0  0  0  0  0  0  0  0  0  0  0
   34.8108   23.8798   38.4156 H   0  0  0  0  0  0  0  0  0  0  0  0
   36.9424   29.3131   38.6498 H   0  0  0  0  0  0  0  0  0  0  0  0
   37.1804   31.2744   37.1072 H   0  0  0  0  0  0  0  0  0  0  0  0
   37.0302   30.8323   34.6906 H   0  0  0  0  0  0  0  0  0  0  0  0
   36.6606   28.5954   33.7322 H   0  0  0  0  0  0  0  0  0  0  0  0
   36.4299   26.6761   35.3076 H   0  0  0  0  0  0  0  0  0  0  0  0
  1  2  2  0
  2  3  1  0
  3  7  1  0
  4  3  2  0
  5  4  1  0
  6  5  2  0
  6  1  1  0
  7  8  1  0
  9  8  1  0
 10  9  1  0
 11  7  1  0
 11 10  1  0
 12 13  1  0
 12 11  1  0
 14 13  2  0
 15 20  2  0
 15 14  1  0
 16 15  1  0
 17 18  1  0
 17 16  2  0
 18 19  2  0
 19 20  1  0
 20 12  1  0
 21 22  2  0
 21 18  1  0
 23 22  1  0
 24 23  2  0
 25 24  1  0
 25 26  2  0
 26 21  1  0
  1 27  1  0
  2 28  1  0
  5 29  1  0
  8 30  1  0
  8 31  1  0
  9 32  1  0
  9 33  1  0
 10 34  1  0
 10 35  1  0
 11 36  1  6
 13 37  1  0
 16 38  1  0
 22 39  1  0
 23 40  1  0
 24 41  1  0
 25 42  1  0
 26 43  1  0
M  ISO  8  27  14  28  14  29  14  30  13  31  13  32  13  33  13  34  13
M  ISO  8  35  13  36  13  37  14  38  14  39  14  40  14  41  14  42  14
M  ISO  1  43  14
M  END
>  <minimizedAffinity>  (1) 
-5.61846447

>  <minimizedRMSD>  (1) 
1.2911253

$$$$
