
     RDKit          3D

 40 44  0  0  1  0  0  0  0  0999 V2000
   36.7480   30.6680   41.1000 C   0  0  0  0  0  0  0  0  0  0  0  0
   37.6820   29.8180   41.7130 C   0  0  0  0  0  0  0  0  0  0  0  0
   37.3600   28.4700   41.8590 C   0  0  0  0  0  0  0  0  0  0  0  0
   36.1510   28.0720   41.3900 N   0  0  0  0  0  0  0  0  0  0  0  0
   35.2740   28.9080   40.8060 C   0  0  0  0  0  0  0  0  0  0  0  0
   35.5800   30.2160   40.6630 N   0  0  0  0  0  0  0  0  0  0  0  0
   38.2200   27.5060   42.4630 N   0  0  0  0  0  0  0  0  0  0  0  0
   38.7200   27.5210   43.8290 C   0  0  0  0  0  0  0  0  0  0  0  0
   39.9880   26.6780   43.7140 C   0  0  0  0  0  0  0  0  0  0  0  0
   39.4910   25.5890   42.7940 C   0  0  0  0  0  0  0  0  0  0  0  0
   38.7160   26.3630   41.7740 C   0  0  1  0  0  0  0  0  0  0  0  0
   37.7280   25.5760   41.0880 N   0  0  0  0  0  0  0  0  0  0  0  0
   37.1530   24.4290   41.5620 C   0  0  0  0  0  0  0  0  0  0  0  0
   36.2690   23.9090   40.7180 N   0  0  0  0  0  0  0  0  0  0  0  0
   36.2560   24.7240   39.6620 C   0  0  0  0  0  0  0  0  0  0  0  0
   35.5170   24.6590   38.4840 C   0  0  0  0  0  0  0  0  0  0  0  0
   35.7210   25.6540   37.5690 N   0  0  0  0  0  0  0  0  0  0  0  0
   36.6100   26.6380   37.8350 C   0  0  0  0  0  0  0  0  0  0  0  0
   37.3170   26.7020   38.9600 N   0  0  0  0  0  0  0  0  0  0  0  0
   37.1680   25.7590   39.9000 C   0  0  0  0  0  0  0  0  0  0  0  0
   36.7810   27.6700   36.8170 C   0  0  0  0  0  0  0  0  0  0  0  0
   36.6060   29.0420   36.9780 C   0  0  0  0  0  0  0  0  0  0  0  0
   36.8530   29.6710   35.8220 N   0  0  0  0  0  0  0  0  0  0  0  0
   37.1850   28.7410   34.9090 C   0  0  0  0  0  0  0  0  0  0  0  0
   37.1350   27.5490   35.5310 N   0  0  0  0  0  0  0  0  0  0  0  0
   36.9905   31.7341   40.9792 H   0  0  0  0  0  0  0  0  0  0  0  0
   38.6468   30.2074   42.0702 H   0  0  0  0  0  0  0  0  0  0  0  0
   34.3075   28.5266   40.4448 H   0  0  0  0  0  0  0  0  0  0  0  0
   38.9497   28.5449   44.1590 H   0  0  0  0  0  0  0  0  0  0  0  0
   38.0002   27.1397   44.5683 H   0  0  0  0  0  0  0  0  0  0  0  0
   40.8170   27.2453   43.2657 H   0  0  0  0  0  0  0  0  0  0  0  0
   40.4006   26.3259   44.6710 H   0  0  0  0  0  0  0  0  0  0  0  0
   40.3280   25.0460   42.3307 H   0  0  0  0  0  0  0  0  0  0  0  0
   38.8977   24.8168   43.3055 H   0  0  0  0  0  0  0  0  0  0  0  0
   39.3489   26.6830   40.9331 H   0  0  0  0  0  0  0  0  0  0  0  0
   37.3967   23.9845   42.5382 H   0  0  0  0  0  0  0  0  0  0  0  0
   34.8017   23.8443   38.2980 H   0  0  0  0  0  0  0  0  0  0  0  0
   36.3091   29.5356   37.9152 H   0  0  0  0  0  0  0  0  0  0  0  0
   37.4471   28.9204   33.8559 H   0  0  0  0  0  0  0  0  0  0  0  0
   37.3440   26.6505   35.0728 H   0  0  0  0  0  0  0  0  0  0  0  0
  1  2  2  0
  2  3  1  0
  3  7  1  0
  4  3  2  0
  5  4  1  0
  6  5  2  0
  6  1  1  0
  7  8  1  0
  9  8  1  0
 10  9  1  0
 11  7  1  0
 11 10  1  0
 12 13  1  0
 12 11  1  0
 14 13  2  0
 15 20  2  0
 15 14  1  0
 16 15  1  0
 17 18  1  0
 17 16  2  0
 18 19  2  0
 19 20  1  0
 20 12  1  0
 21 22  2  0
 21 18  1  0
 23 22  1  0
 24 25  1  0
 24 23  2  0
 25 21  1  0
  1 26  1  0
  2 27  1  0
  5 28  1  0
  8 29  1  0
  8 30  1  0
  9 31  1  0
  9 32  1  0
 10 33  1  0
 10 34  1  0
 11 35  1  6
 13 36  1  0
 16 37  1  0
 22 38  1  0
 24 39  1  0
 25 40  1  0
M  ISO  8  26  14  27  14  28  14  29  13  30  13  31  13  32  13  33  13
M  ISO  7  34  13  35  13  36  14  37  14  38  14  39  14  40   9
M  END
>  <minimizedAffinity>  (1) 
-5.46577311

>  <minimizedRMSD>  (1) 
0.995817125

$$$$
