
     RDKit          3D

 41 45  0  0  1  0  0  0  0  0999 V2000
   37.2780   30.4010   41.5570 C   0  0  0  0  0  0  0  0  0  0  0  0
   38.1990   29.4660   42.0290 C   0  0  0  0  0  0  0  0  0  0  0  0
   37.8080   28.1150   42.0840 C   0  0  0  0  0  0  0  0  0  0  0  0
   36.5630   27.8220   41.6730 N   0  0  0  0  0  0  0  0  0  0  0  0
   35.7010   28.7480   41.2250 C   0  0  0  0  0  0  0  0  0  0  0  0
   36.0600   30.0380   41.1680 N   0  0  0  0  0  0  0  0  0  0  0  0
   38.6640   27.0740   42.5480 N   0  0  0  0  0  0  0  0  0  0  0  0
   39.2650   26.9430   43.8540 C   0  0  0  0  0  0  0  0  0  0  0  0
   40.4690   26.0610   43.5880 C   0  0  0  0  0  0  0  0  0  0  0  0
   39.8510   25.0780   42.6190 C   0  0  0  0  0  0  0  0  0  0  0  0
   39.0460   25.9740   41.7260 C   0  0  1  0  0  0  0  0  0  0  0  0
   37.9720   25.2890   41.0490 N   0  0  0  0  0  0  0  0  0  0  0  0
   37.4150   24.1150   41.4510 C   0  0  0  0  0  0  0  0  0  0  0  0
   36.4370   23.7060   40.6360 N   0  0  0  0  0  0  0  0  0  0  0  0
   36.3590   24.6450   39.6760 C   0  0  0  0  0  0  0  0  0  0  0  0
   35.5100   24.7200   38.5720 C   0  0  0  0  0  0  0  0  0  0  0  0
   35.6700   25.8010   37.7710 N   0  0  0  0  0  0  0  0  0  0  0  0
   36.6030   26.7420   38.0420 C   0  0  0  0  0  0  0  0  0  0  0  0
   37.4130   26.6580   39.1080 N   0  0  0  0  0  0  0  0  0  0  0  0
   37.3180   25.6120   39.9530 C   0  0  0  0  0  0  0  0  0  0  0  0
   36.7180   27.8820   37.1350 C   0  0  0  0  0  0  0  0  0  0  0  0
   36.8900   29.1590   37.6300 C   0  0  0  0  0  0  0  0  0  0  0  0
   36.9930   30.2010   36.7010 C   0  0  0  0  0  0  0  0  0  0  0  0
   36.9270   29.9690   35.3700 N   0  0  0  0  0  0  0  0  0  0  0  0
   36.7610   28.7160   34.9250 C   0  0  0  0  0  0  0  0  0  0  0  0
   36.6550   27.6720   35.7970 N   0  0  0  0  0  0  0  0  0  0  0  0
   37.5658   31.4614   41.5056 H   0  0  0  0  0  0  0  0  0  0  0  0
   39.2044   29.7762   42.3498 H   0  0  0  0  0  0  0  0  0  0  0  0
   34.6935   28.4463   40.9026 H   0  0  0  0  0  0  0  0  0  0  0  0
   39.5721   27.9230   44.2481 H   0  0  0  0  0  0  0  0  0  0  0  0
   38.5798   26.5260   44.6068 H   0  0  0  0  0  0  0  0  0  0  0  0
   41.2961   26.6233   43.1301 H   0  0  0  0  0  0  0  0  0  0  0  0
   40.9262   25.6118   44.4819 H   0  0  0  0  0  0  0  0  0  0  0  0
   40.6236   24.5391   42.0510 H   0  0  0  0  0  0  0  0  0  0  0  0
   39.2558   24.2925   43.1075 H   0  0  0  0  0  0  0  0  0  0  0  0
   39.6271   26.3413   40.8672 H   0  0  0  0  0  0  0  0  0  0  0  0
   37.7339   23.5630   42.3475 H   0  0  0  0  0  0  0  0  0  0  0  0
   34.7552   23.9473   38.3639 H   0  0  0  0  0  0  0  0  0  0  0  0
   36.9440   29.3503   38.7119 H   0  0  0  0  0  0  0  0  0  0  0  0
   37.1306   31.2312   37.0613 H   0  0  0  0  0  0  0  0  0  0  0  0
   36.7095   28.5267   33.8426 H   0  0  0  0  0  0  0  0  0  0  0  0
  1  2  2  0
  2  3  1  0
  3  7  1  0
  4  3  2  0
  5  4  1  0
  6  5  2  0
  6  1  1  0
  7  8  1  0
  9  8  1  0
 10  9  1  0
 11  7  1  0
 11 10  1  0
 12 13  1  0
 12 11  1  0
 14 13  2  0
 15 20  2  0
 15 14  1  0
 16 15  1  0
 17 18  1  0
 17 16  2  0
 18 19  2  0
 19 20  1  0
 20 12  1  0
 21 22  2  0
 21 18  1  0
 23 22  1  0
 24 23  2  0
 25 24  1  0
 25 26  2  0
 26 21  1  0
  1 27  1  0
  2 28  1  0
  5 29  1  0
  8 30  1  0
  8 31  1  0
  9 32  1  0
  9 33  1  0
 10 34  1  0
 10 35  1  0
 11 36  1  6
 13 37  1  0
 16 38  1  0
 22 39  1  0
 23 40  1  0
 25 41  1  0
M  ISO  8  27  14  28  14  29  14  30  13  31  13  32  13  33  13  34  13
M  ISO  7  35  13  36  13  37  14  38  14  39  14  40  14  41  14
M  END
>  <minimizedAffinity>  (1) 
-5.46517801

>  <minimizedRMSD>  (1) 
1.37926209

$$$$
