
     RDKit          3D

 45 48  0  0  1  0  0  0  0  0999 V2000
   36.8850   30.6810   41.1870 C   0  0  0  0  0  0  0  0  0  0  0  0
   37.7520   29.8080   41.8480 C   0  0  0  0  0  0  0  0  0  0  0  0
   37.3920   28.4630   41.9710 C   0  0  0  0  0  0  0  0  0  0  0  0
   36.2030   28.1020   41.4260 N   0  0  0  0  0  0  0  0  0  0  0  0
   35.3820   28.9560   40.7920 C   0  0  0  0  0  0  0  0  0  0  0  0
   35.7300   30.2560   40.6740 N   0  0  0  0  0  0  0  0  0  0  0  0
   38.1820   27.4870   42.6170 N   0  0  0  0  0  0  0  0  0  0  0  0
   38.6050   27.4690   44.0080 C   0  0  0  0  0  0  0  0  0  0  0  0
   39.8560   26.6020   43.9670 C   0  0  0  0  0  0  0  0  0  0  0  0
   39.3830   25.5370   43.0150 C   0  0  0  0  0  0  0  0  0  0  0  0
   38.6920   26.3330   41.9490 C   0  0  1  0  0  0  0  0  0  0  0  0
   37.7380   25.5750   41.2030 N   0  0  0  0  0  0  0  0  0  0  0  0
   37.0310   24.4960   41.6740 C   0  0  0  0  0  0  0  0  0  0  0  0
   36.2120   23.9760   40.7750 N   0  0  0  0  0  0  0  0  0  0  0  0
   36.3670   24.7200   39.6700 C   0  0  0  0  0  0  0  0  0  0  0  0
   35.7540   24.6200   38.4280 C   0  0  0  0  0  0  0  0  0  0  0  0
   36.1190   25.5280   37.4900 N   0  0  0  0  0  0  0  0  0  0  0  0
   37.0470   26.4790   37.7910 C   0  0  0  0  0  0  0  0  0  0  0  0
   37.6400   26.5850   38.9750 N   0  0  0  0  0  0  0  0  0  0  0  0
   37.3210   25.7100   39.9560 C   0  0  0  0  0  0  0  0  0  0  0  0
   37.4240   27.4670   36.7230 C   0  0  0  0  0  0  0  0  0  0  0  0
   36.6520   27.1930   35.4440 C   0  0  0  0  0  0  0  0  0  0  0  0
   37.1660   28.8980   37.1780 C   0  0  0  0  0  0  0  0  0  0  0  0
   38.8920   27.3820   36.3630 C   0  0  0  0  0  0  0  0  0  0  0  0
   37.1608   31.7412   41.0876 H   0  0  0  0  0  0  0  0  0  0  0  0
   38.7023   30.1728   42.2649 H   0  0  0  0  0  0  0  0  0  0  0  0
   34.4308   28.5983   40.3709 H   0  0  0  0  0  0  0  0  0  0  0  0
   38.8370   28.4832   44.3651 H   0  0  0  0  0  0  0  0  0  0  0  0
   37.8333   27.0892   44.6937 H   0  0  0  0  0  0  0  0  0  0  0  0
   40.7237   27.1507   43.5720 H   0  0  0  0  0  0  0  0  0  0  0  0
   40.2073   26.2372   44.9435 H   0  0  0  0  0  0  0  0  0  0  0  0
   40.2299   24.9702   42.6009 H   0  0  0  0  0  0  0  0  0  0  0  0
   38.7348   24.7846   43.4880 H   0  0  0  0  0  0  0  0  0  0  0  0
   39.3798   26.6417   41.1480 H   0  0  0  0  0  0  0  0  0  0  0  0
   37.1354   24.1036   42.6963 H   0  0  0  0  0  0  0  0  0  0  0  0
   35.0074   23.8407   38.2153 H   0  0  0  0  0  0  0  0  0  0  0  0
   35.6426   26.8347   35.6946 H   0  0  0  0  0  0  0  0  0  0  0  0
   36.5767   28.1193   34.8556 H   0  0  0  0  0  0  0  0  0  0  0  0
   37.1776   26.4265   34.8556 H   0  0  0  0  0  0  0  0  0  0  0  0
   37.1589   28.9376   38.2773 H   0  0  0  0  0  0  0  0  0  0  0  0
   37.9603   29.5541   36.7926 H   0  0  0  0  0  0  0  0  0  0  0  0
   36.1925   29.2354   36.7926 H   0  0  0  0  0  0  0  0  0  0  0  0
   39.4938   27.3472   37.2831 H   0  0  0  0  0  0  0  0  0  0  0  0
   39.0725   26.4719   35.7721 H   0  0  0  0  0  0  0  0  0  0  0  0
   39.1764   28.2652   35.7721 H   0  0  0  0  0  0  0  0  0  0  0  0
  1  2  2  0
  2  3  1  0
  3  7  1  0
  4  3  2  0
  5  4  1  0
  6  5  2  0
  6  1  1  0
  7  8  1  0
  9  8  1  0
 10  9  1  0
 11  7  1  0
 11 10  1  0
 12 13  1  0
 12 11  1  0
 14 13  2  0
 15 20  2  0
 15 14  1  0
 16 15  1  0
 17 18  1  0
 17 16  2  0
 18 19  2  0
 19 20  1  0
 20 12  1  0
 21 23  1  0
 21 18  1  0
 22 21  1  0
 24 21  1  0
  1 25  1  0
  2 26  1  0
  5 27  1  0
  8 28  1  0
  8 29  1  0
  9 30  1  0
  9 31  1  0
 10 32  1  0
 10 33  1  0
 11 34  1  6
 13 35  1  0
 16 36  1  0
 22 37  1  0
 22 38  1  0
 22 39  1  0
 23 40  1  0
 23 41  1  0
 23 42  1  0
 24 43  1  0
 24 44  1  0
 24 45  1  0
M  ISO  8  25  14  26  14  27  14  28  13  29  13  30  13  31  13  32  13
M  ISO  8  33  13  34  13  35  14  36  14  37   8  38   8  39   8  40   8
M  ISO  5  41   8  42   8  43   8  44   8  45   8
M  END
>  <minimizedAffinity>  (1) 
-5.39892483

>  <minimizedRMSD>  (1) 
0.482858688

$$$$
