
     RDKit          3D

 40 44  0  0  1  0  0  0  0  0999 V2000
   36.8970   30.7100   41.2250 C   0  0  0  0  0  0  0  0  0  0  0  0
   37.7370   29.8230   41.8870 C   0  0  0  0  0  0  0  0  0  0  0  0
   37.3910   28.4670   41.9540 C   0  0  0  0  0  0  0  0  0  0  0  0
   36.2330   28.1060   41.3530 N   0  0  0  0  0  0  0  0  0  0  0  0
   35.4320   28.9790   40.7160 C   0  0  0  0  0  0  0  0  0  0  0  0
   35.7670   30.2830   40.6530 N   0  0  0  0  0  0  0  0  0  0  0  0
   38.1790   27.4800   42.6060 N   0  0  0  0  0  0  0  0  0  0  0  0
   38.5480   27.4290   44.0030 C   0  0  0  0  0  0  0  0  0  0  0  0
   39.8100   26.5830   43.9930 C   0  0  0  0  0  0  0  0  0  0  0  0
   39.4050   25.5380   42.9810 C   0  0  0  0  0  0  0  0  0  0  0  0
   38.7300   26.3590   41.9220 C   0  0  1  0  0  0  0  0  0  0  0  0
   37.8170   25.6070   41.1100 N   0  0  0  0  0  0  0  0  0  0  0  0
   36.9830   24.6310   41.5580 C   0  0  0  0  0  0  0  0  0  0  0  0
   36.2460   24.1000   40.5880 N   0  0  0  0  0  0  0  0  0  0  0  0
   36.5950   24.7320   39.4670 C   0  0  0  0  0  0  0  0  0  0  0  0
   36.1440   24.5820   38.1540 C   0  0  0  0  0  0  0  0  0  0  0  0
   36.7040   25.3890   37.2180 N   0  0  0  0  0  0  0  0  0  0  0  0
   37.6550   26.2940   37.5650 C   0  0  0  0  0  0  0  0  0  0  0  0
   38.0840   26.4370   38.8230 N   0  0  0  0  0  0  0  0  0  0  0  0
   37.5710   25.6640   39.8080 C   0  0  0  0  0  0  0  0  0  0  0  0
   38.2600   27.1740   36.5260 C   0  0  0  0  0  0  0  0  0  0  0  0
   37.4140   27.9500   35.6040 C   0  0  0  0  0  0  0  0  0  0  0  0
   37.9810   28.6740   36.8120 C   0  0  0  0  0  0  0  0  0  0  0  0
   37.1650   31.7755   41.1711 H   0  0  0  0  0  0  0  0  0  0  0  0
   38.6656   30.1823   42.3544 H   0  0  0  0  0  0  0  0  0  0  0  0
   34.5017   28.6279   40.2456 H   0  0  0  0  0  0  0  0  0  0  0  0
   38.7506   28.4365   44.3953 H   0  0  0  0  0  0  0  0  0  0  0  0
   37.7557   27.0177   44.6457 H   0  0  0  0  0  0  0  0  0  0  0  0
   40.6864   27.1582   43.6599 H   0  0  0  0  0  0  0  0  0  0  0  0
   40.1165   26.1897   44.9735 H   0  0  0  0  0  0  0  0  0  0  0  0
   40.2836   25.0131   42.5778 H   0  0  0  0  0  0  0  0  0  0  0  0
   38.7646   24.7471   43.3985 H   0  0  0  0  0  0  0  0  0  0  0  0
   39.4378   26.7098   41.1565 H   0  0  0  0  0  0  0  0  0  0  0  0
   36.9246   24.3150   42.6100 H   0  0  0  0  0  0  0  0  0  0  0  0
   35.3714   23.8445   37.8910 H   0  0  0  0  0  0  0  0  0  0  0  0
   39.1154   26.5085   36.3377 H   0  0  0  0  0  0  0  0  0  0  0  0
   37.7887   28.1947   34.5992 H   0  0  0  0  0  0  0  0  0  0  0  0
   36.3986   27.8142   35.2034 H   0  0  0  0  0  0  0  0  0  0  0  0
   37.3242   28.9701   37.6432 H   0  0  0  0  0  0  0  0  0  0  0  0
   38.5880   29.5751   36.9841 H   0  0  0  0  0  0  0  0  0  0  0  0
  1  2  2  0
  2  3  1  0
  3  7  1  0
  4  3  2  0
  5  4  1  0
  6  5  2  0
  6  1  1  0
  7  8  1  0
  9  8  1  0
 10  9  1  0
 11  7  1  0
 11 10  1  0
 12 13  1  0
 12 11  1  0
 14 13  2  0
 15 20  2  0
 15 14  1  0
 16 15  1  0
 17 18  1  0
 17 16  2  0
 18 19  2  0
 19 20  1  0
 20 12  1  0
 21 23  1  0
 21 18  1  0
 22 21  1  0
 22 23  1  0
  1 24  1  0
  2 25  1  0
  5 26  1  0
  8 27  1  0
  8 28  1  0
  9 29  1  0
  9 30  1  0
 10 31  1  0
 10 32  1  0
 11 33  1  6
 13 34  1  0
 16 35  1  0
 21 36  1  0
 22 37  1  0
 22 38  1  0
 23 39  1  0
 23 40  1  0
M  ISO  8  24  14  25  14  26  14  27  13  28  13  29  13  30  13  31  13
M  ISO  8  32  13  33  13  34  14  35  14  36  13  37  13  38  13  39  13
M  ISO  1  40  13
M  END
>  <minimizedAffinity>  (1) 
-5.22482824

>  <minimizedRMSD>  (1) 
0.200156495

$$$$
