
     RDKit          3D

 39 43  0  0  1  0  0  0  0  0999 V2000
   36.9950   30.5370   41.3950 C   0  0  0  0  0  0  0  0  0  0  0  0
   37.9170   29.6520   41.9410 C   0  0  0  0  0  0  0  0  0  0  0  0
   37.5850   28.2940   42.0410 C   0  0  0  0  0  0  0  0  0  0  0  0
   36.3630   27.9500   41.5890 N   0  0  0  0  0  0  0  0  0  0  0  0
   35.4800   28.8200   41.0630 C   0  0  0  0  0  0  0  0  0  0  0  0
   35.8000   30.1250   40.9660 N   0  0  0  0  0  0  0  0  0  0  0  0
   38.4350   27.3020   42.5740 N   0  0  0  0  0  0  0  0  0  0  0  0
   38.9820   27.2350   43.9200 C   0  0  0  0  0  0  0  0  0  0  0  0
   40.2390   26.3930   43.7240 C   0  0  0  0  0  0  0  0  0  0  0  0
   39.6860   25.3540   42.7860 C   0  0  0  0  0  0  0  0  0  0  0  0
   38.8960   26.1760   41.8290 C   0  0  1  0  0  0  0  0  0  0  0  0
   37.8690   25.4340   41.1340 N   0  0  0  0  0  0  0  0  0  0  0  0
   37.3350   24.2420   41.5500 C   0  0  0  0  0  0  0  0  0  0  0  0
   36.4050   23.7820   40.7190 N   0  0  0  0  0  0  0  0  0  0  0  0
   36.3170   24.6860   39.7270 C   0  0  0  0  0  0  0  0  0  0  0  0
   35.5050   24.7020   38.5950 C   0  0  0  0  0  0  0  0  0  0  0  0
   35.6480   25.7610   37.7720 N   0  0  0  0  0  0  0  0  0  0  0  0
   36.5410   26.7410   38.0530 C   0  0  0  0  0  0  0  0  0  0  0  0
   37.3260   26.7310   39.1390 N   0  0  0  0  0  0  0  0  0  0  0  0
   37.2310   25.6980   40.0040 C   0  0  0  0  0  0  0  0  0  0  0  0
   36.7310   27.9220   37.1750 C   0  0  0  0  0  0  0  0  0  0  0  0
   36.8440   29.2550   37.6040 C   0  0  0  0  0  0  0  0  0  0  0  0
   37.0550   30.1350   35.9750 S   0  0  0  0  0  0  0  0  0  0  0  0
   36.9460   28.4920   35.0260 C   0  0  0  0  0  0  0  0  0  0  0  0
   36.7990   27.6760   35.8600 N   0  0  0  0  0  0  0  0  0  0  0  0
   37.2562   31.6025   41.3144 H   0  0  0  0  0  0  0  0  0  0  0  0
   38.8956   30.0130   42.2905 H   0  0  0  0  0  0  0  0  0  0  0  0
   34.4991   28.4657   40.7131 H   0  0  0  0  0  0  0  0  0  0  0  0
   39.2301   28.2375   44.2986 H   0  0  0  0  0  0  0  0  0  0  0  0
   38.2826   26.8138   44.6571 H   0  0  0  0  0  0  0  0  0  0  0  0
   41.0544   26.9708   43.2643 H   0  0  0  0  0  0  0  0  0  0  0  0
   40.6938   26.0021   44.6462 H   0  0  0  0  0  0  0  0  0  0  0  0
   40.4934   24.8113   42.2725 H   0  0  0  0  0  0  0  0  0  0  0  0
   39.0938   24.5765   43.2909 H   0  0  0  0  0  0  0  0  0  0  0  0
   39.5156   26.5165   40.9863 H   0  0  0  0  0  0  0  0  0  0  0  0
   37.6422   23.7233   42.4701 H   0  0  0  0  0  0  0  0  0  0  0  0
   34.7871   23.8957   38.3841 H   0  0  0  0  0  0  0  0  0  0  0  0
   36.8157   29.6670   38.6236 H   0  0  0  0  0  0  0  0  0  0  0  0
   37.0069   28.3384   33.9385 H   0  0  0  0  0  0  0  0  0  0  0  0
  1  2  2  0
  2  3  1  0
  3  7  1  0
  4  3  2  0
  5  4  1  0
  6  5  2  0
  6  1  1  0
  7  8  1  0
  9  8  1  0
 10  9  1  0
 11  7  1  0
 11 10  1  0
 12 13  1  0
 12 11  1  0
 14 13  2  0
 15 20  2  0
 15 14  1  0
 16 15  1  0
 17 18  1  0
 17 16  2  0
 18 19  2  0
 19 20  1  0
 20 12  1  0
 21 22  2  0
 21 18  1  0
 23 22  1  0
 24 25  2  0
 24 23  1  0
 25 21  1  0
  1 26  1  0
  2 27  1  0
  5 28  1  0
  8 29  1  0
  8 30  1  0
  9 31  1  0
  9 32  1  0
 10 33  1  0
 10 34  1  0
 11 35  1  6
 13 36  1  0
 16 37  1  0
 22 38  1  0
 24 39  1  0
M  ISO  8  26  14  27  14  28  14  29  13  30  13  31  13  32  13  33  13
M  ISO  6  34  13  35  13  36  14  37  14  38  14  39  14
M  END
>  <minimizedAffinity>  (1) 
-5.1490221

>  <minimizedRMSD>  (1) 
1.20906496

$$$$
