
     RDKit          3D

 35 38  0  0  1  0  0  0  0  0999 V2000
   36.8730   30.6290   41.1560 C   0  0  0  0  0  0  0  0  0  0  0  0
   37.7390   29.7740   41.8240 C   0  0  0  0  0  0  0  0  0  0  0  0
   37.4080   28.4130   41.9320 C   0  0  0  0  0  0  0  0  0  0  0  0
   36.2500   28.0490   41.3630 N   0  0  0  0  0  0  0  0  0  0  0  0
   35.4170   28.8970   40.7160 C   0  0  0  0  0  0  0  0  0  0  0  0
   35.7360   30.1980   40.6140 N   0  0  0  0  0  0  0  0  0  0  0  0
   38.2050   27.4500   42.5840 N   0  0  0  0  0  0  0  0  0  0  0  0
   38.6090   27.4410   43.9880 C   0  0  0  0  0  0  0  0  0  0  0  0
   39.8770   26.5930   43.9590 C   0  0  0  0  0  0  0  0  0  0  0  0
   39.4410   25.5210   43.0000 C   0  0  0  0  0  0  0  0  0  0  0  0
   38.7460   26.3110   41.9270 C   0  0  1  0  0  0  0  0  0  0  0  0
   37.8140   25.5370   41.1530 N   0  0  0  0  0  0  0  0  0  0  0  0
   36.9260   24.6190   41.6610 C   0  0  0  0  0  0  0  0  0  0  0  0
   36.1860   24.0510   40.7180 N   0  0  0  0  0  0  0  0  0  0  0  0
   36.5840   24.5960   39.5680 C   0  0  0  0  0  0  0  0  0  0  0  0
   36.1430   24.3630   38.2710 C   0  0  0  0  0  0  0  0  0  0  0  0
   36.7410   25.0740   37.2840 N   0  0  0  0  0  0  0  0  0  0  0  0
   37.7230   25.9640   37.5840 C   0  0  0  0  0  0  0  0  0  0  0  0
   38.1530   26.1920   38.8320 N   0  0  0  0  0  0  0  0  0  0  0  0
   37.5930   25.5130   39.8590 C   0  0  0  0  0  0  0  0  0  0  0  0
   38.3720   26.7280   36.5680 N   0  0  0  0  0  0  0  0  0  0  0  0
   37.1340   31.6943   41.0720 H   0  0  0  0  0  0  0  0  0  0  0  0
   38.6720   30.1571   42.2629 H   0  0  0  0  0  0  0  0  0  0  0  0
   34.4816   28.5221   40.2750 H   0  0  0  0  0  0  0  0  0  0  0  0
   38.8192   28.4589   44.3481 H   0  0  0  0  0  0  0  0  0  0  0  0
   37.8350   27.0510   44.6654 H   0  0  0  0  0  0  0  0  0  0  0  0
   40.7395   27.1586   43.5768 H   0  0  0  0  0  0  0  0  0  0  0  0
   40.2190   26.2310   44.9398 H   0  0  0  0  0  0  0  0  0  0  0  0
   40.3051   24.9740   42.5949 H   0  0  0  0  0  0  0  0  0  0  0  0
   38.8046   24.7513   43.4610 H   0  0  0  0  0  0  0  0  0  0  0  0
   39.4440   26.6351   41.1410 H   0  0  0  0  0  0  0  0  0  0  0  0
   36.8387   24.3816   42.7315 H   0  0  0  0  0  0  0  0  0  0  0  0
   35.3462   23.6359   38.0555 H   0  0  0  0  0  0  0  0  0  0  0  0
   39.1137   27.3964   36.8209 H   0  0  0  0  0  0  0  0  0  0  0  0
   38.0986   26.6109   35.5819 H   0  0  0  0  0  0  0  0  0  0  0  0
  1  2  2  0
  2  3  1  0
  3  7  1  0
  4  3  2  0
  5  4  1  0
  6  5  2  0
  6  1  1  0
  7  8  1  0
  9  8  1  0
 10  9  1  0
 11  7  1  0
 11 10  1  0
 12 13  1  0
 12 11  1  0
 14 13  2  0
 15 20  2  0
 15 14  1  0
 16 15  1  0
 17 18  1  0
 17 16  2  0
 18 19  2  0
 19 20  1  0
 20 12  1  0
 21 18  1  0
  1 22  1  0
  2 23  1  0
  5 24  1  0
  8 25  1  0
  8 26  1  0
  9 27  1  0
  9 28  1  0
 10 29  1  0
 10 30  1  0
 11 31  1  6
 13 32  1  0
 16 33  1  0
 21 34  1  0
 21 35  1  0
M  ISO  8  22  14  23  14  24  14  25  13  26  13  27  13  28  13  29  13
M  ISO  4  30  13  31  13  32  14  33  14
M  END
>  <minimizedAffinity>  (1) 
-5.01987123

>  <minimizedRMSD>  (1) 
0.11659018

$$$$
