
     RDKit          3D

 39 42  0  0  1  0  0  0  0  0999 V2000
   36.8430   30.6740   41.1890 C   0  0  0  0  0  0  0  0  0  0  0  0
   37.7070   29.8050   41.8630 C   0  0  0  0  0  0  0  0  0  0  0  0
   37.3960   28.4480   41.9290 C   0  0  0  0  0  0  0  0  0  0  0  0
   36.2530   28.0700   41.3200 N   0  0  0  0  0  0  0  0  0  0  0  0
   35.4280   28.9030   40.6760 C   0  0  0  0  0  0  0  0  0  0  0  0
   35.7280   30.2160   40.6110 N   0  0  0  0  0  0  0  0  0  0  0  0
   38.1940   27.4730   42.5830 N   0  0  0  0  0  0  0  0  0  0  0  0
   38.5580   27.4300   43.9920 C   0  0  0  0  0  0  0  0  0  0  0  0
   39.8390   26.6100   43.9820 C   0  0  0  0  0  0  0  0  0  0  0  0
   39.4430   25.5570   42.9820 C   0  0  0  0  0  0  0  0  0  0  0  0
   38.7670   26.3620   41.9170 C   0  0  1  0  0  0  0  0  0  0  0  0
   37.8710   25.5880   41.0970 N   0  0  0  0  0  0  0  0  0  0  0  0
   36.9650   24.6770   41.5550 C   0  0  0  0  0  0  0  0  0  0  0  0
   36.2620   24.1050   40.5810 N   0  0  0  0  0  0  0  0  0  0  0  0
   36.7170   24.6550   39.4480 C   0  0  0  0  0  0  0  0  0  0  0  0
   36.3370   24.4260   38.1210 C   0  0  0  0  0  0  0  0  0  0  0  0
   36.9830   25.1400   37.1800 N   0  0  0  0  0  0  0  0  0  0  0  0
   37.9570   26.0360   37.5140 C   0  0  0  0  0  0  0  0  0  0  0  0
   38.3180   26.2510   38.7920 N   0  0  0  0  0  0  0  0  0  0  0  0
   37.7080   25.5690   39.7730 C   0  0  0  0  0  0  0  0  0  0  0  0
   38.6470   26.8030   36.4410 C   0  0  0  0  0  0  0  0  0  0  0  0
   37.8730   27.9780   35.9400 C   0  0  0  0  0  0  0  0  0  0  0  0
   37.0835   31.7460   41.1339 H   0  0  0  0  0  0  0  0  0  0  0  0
   38.6229   30.1887   42.3363 H   0  0  0  0  0  0  0  0  0  0  0  0
   34.5118   28.5198   40.2030 H   0  0  0  0  0  0  0  0  0  0  0  0
   38.7374   28.4411   44.3863 H   0  0  0  0  0  0  0  0  0  0  0  0
   37.7721   27.0038   44.6329 H   0  0  0  0  0  0  0  0  0  0  0  0
   40.7023   27.1993   43.6392 H   0  0  0  0  0  0  0  0  0  0  0  0
   40.1631   26.2305   44.9623 H   0  0  0  0  0  0  0  0  0  0  0  0
   40.3253   25.0334   42.5852 H   0  0  0  0  0  0  0  0  0  0  0  0
   38.8062   24.7664   43.4056 H   0  0  0  0  0  0  0  0  0  0  0  0
   39.4783   26.7220   41.1591 H   0  0  0  0  0  0  0  0  0  0  0  0
   36.8295   24.4396   42.6205 H   0  0  0  0  0  0  0  0  0  0  0  0
   35.5519   23.7009   37.8604 H   0  0  0  0  0  0  0  0  0  0  0  0
   39.6072   27.1649   36.8374 H   0  0  0  0  0  0  0  0  0  0  0  0
   38.7713   26.1176   35.5897 H   0  0  0  0  0  0  0  0  0  0  0  0
   37.4916   28.5570   36.7940 H   0  0  0  0  0  0  0  0  0  0  0  0
   38.5287   28.6153   35.3285 H   0  0  0  0  0  0  0  0  0  0  0  0
   37.0286   27.6271   35.3285 H   0  0  0  0  0  0  0  0  0  0  0  0
  1  2  2  0
  2  3  1  0
  3  7  1  0
  4  3  2  0
  5  4  1  0
  6  5  2  0
  6  1  1  0
  7  8  1  0
  9  8  1  0
 10  9  1  0
 11  7  1  0
 11 10  1  0
 12 13  1  0
 12 11  1  0
 14 13  2  0
 15 20  2  0
 15 14  1  0
 16 15  1  0
 17 18  1  0
 17 16  2  0
 18 19  2  0
 19 20  1  0
 20 12  1  0
 21 18  1  0
 22 21  1  0
  1 23  1  0
  2 24  1  0
  5 25  1  0
  8 26  1  0
  8 27  1  0
  9 28  1  0
  9 29  1  0
 10 30  1  0
 10 31  1  0
 11 32  1  6
 13 33  1  0
 16 34  1  0
 21 35  1  0
 21 36  1  0
 22 37  1  0
 22 38  1  0
 22 39  1  0
M  ISO  8  23  14  24  14  25  14  26  13  27  13  28  13  29  13  30  13
M  ISO  8  31  13  32  13  33  14  34  14  35   8  36   8  37   8  38   8
M  ISO  1  39   8
M  END
>  <minimizedAffinity>  (1) 
-5.06631708

>  <minimizedRMSD>  (1) 
0.32374689

$$$$
