
     RDKit          3D

 54 58  0  0  1  0  0  0  0  0999 V2000
   38.0730   25.1810   41.2500 N   0  0  0  0  0  0  0  0  0  0  0  0
   37.1410   24.3760   41.8380 C   0  0  0  0  0  0  0  0  0  0  0  0
   36.2560   23.8790   40.9660 N   0  0  0  0  0  0  0  0  0  0  0  0
   36.6170   24.3700   39.7810 C   0  0  0  0  0  0  0  0  0  0  0  0
   36.0540   24.1870   38.5210 C   0  0  0  0  0  0  0  0  0  0  0  0
   36.6440   24.8200   37.4910 N   0  0  0  0  0  0  0  0  0  0  0  0
   37.7520   25.6120   37.6740 C   0  0  0  0  0  0  0  0  0  0  0  0
   38.2770   25.7750   38.8970 N   0  0  0  0  0  0  0  0  0  0  0  0
   37.7360   25.1720   39.9580 C   0  0  0  0  0  0  0  0  0  0  0  0
   37.5160   30.3210   41.5780 C   0  0  0  0  0  0  0  0  0  0  0  0
   38.3920   29.3720   42.0960 C   0  0  0  0  0  0  0  0  0  0  0  0
   37.9790   28.0360   42.1890 C   0  0  0  0  0  0  0  0  0  0  0  0
   36.7190   27.7780   41.7500 N   0  0  0  0  0  0  0  0  0  0  0  0
   35.8910   28.6930   41.2560 C   0  0  0  0  0  0  0  0  0  0  0  0
   36.2950   29.9760   41.1700 N   0  0  0  0  0  0  0  0  0  0  0  0
   38.7810   26.9800   42.7000 N   0  0  0  0  0  0  0  0  0  0  0  0
   39.3470   26.8770   44.0290 C   0  0  0  0  0  0  0  0  0  0  0  0
   40.5320   25.9510   43.8170 C   0  0  0  0  0  0  0  0  0  0  0  0
   39.8970   24.9570   42.8750 C   0  0  0  0  0  0  0  0  0  0  0  0
   39.1430   25.8500   41.9350 C   0  0  1  0  0  0  0  0  0  0  0  0
   38.3720   26.2910   36.5160 C   0  0  0  0  0  0  0  0  0  0  0  0
   37.4090   27.0830   35.6980 C   0  0  0  0  0  0  0  0  0  0  0  0
   37.5650   28.4870   35.6730 N   0  0  0  0  0  0  0  0  0  0  0  0
   38.1290   28.9450   36.9060 C   0  0  0  0  0  0  0  0  0  0  0  0
   37.3080   29.9930   37.6030 C   0  0  0  0  0  0  0  0  0  0  0  0
   35.8460   29.6970   37.6640 C   0  0  0  0  0  0  0  0  0  0  0  0
   35.3590   29.0500   36.3830 C   0  0  0  0  0  0  0  0  0  0  0  0
   36.4310   29.2710   35.3480 C   0  0  0  0  0  0  0  0  0  0  0  0
   37.1195   24.1584   42.9161 H   0  0  0  0  0  0  0  0  0  0  0  0
   35.1668   23.5534   38.3743 H   0  0  0  0  0  0  0  0  0  0  0  0
   37.8358   31.3709   41.5042 H   0  0  0  0  0  0  0  0  0  0  0  0
   39.3980   29.6673   42.4290 H   0  0  0  0  0  0  0  0  0  0  0  0
   34.8839   28.4054   40.9200 H   0  0  0  0  0  0  0  0  0  0  0  0
   39.6733   27.8604   44.3984 H   0  0  0  0  0  0  0  0  0  0  0  0
   38.6331   26.5072   44.7798 H   0  0  0  0  0  0  0  0  0  0  0  0
   41.3831   26.4714   43.3535 H   0  0  0  0  0  0  0  0  0  0  0  0
   40.9640   25.5219   44.7331 H   0  0  0  0  0  0  0  0  0  0  0  0
   40.6590   24.3693   42.3421 H   0  0  0  0  0  0  0  0  0  0  0  0
   39.2645   24.2117   43.3795 H   0  0  0  0  0  0  0  0  0  0  0  0
   39.7584   26.1719   41.0820 H   0  0  0  0  0  0  0  0  0  0  0  0
   39.1518   26.9711   36.8892 H   0  0  0  0  0  0  0  0  0  0  0  0
   38.7777   25.5048   35.8623 H   0  0  0  0  0  0  0  0  0  0  0  0
   37.4881   26.7256   34.6607 H   0  0  0  0  0  0  0  0  0  0  0  0
   36.4350   26.9210   36.1828 H   0  0  0  0  0  0  0  0  0  0  0  0
   38.2327   28.0821   37.5803 H   0  0  0  0  0  0  0  0  0  0  0  0
   39.0952   29.4098   36.6602 H   0  0  0  0  0  0  0  0  0  0  0  0
   37.6813   30.0927   38.6329 H   0  0  0  0  0  0  0  0  0  0  0  0
   37.4153   30.9161   37.0144 H   0  0  0  0  0  0  0  0  0  0  0  0
   35.6538   29.0147   38.5051 H   0  0  0  0  0  0  0  0  0  0  0  0
   35.3060   30.6457   37.7997 H   0  0  0  0  0  0  0  0  0  0  0  0
   35.2003   27.9728   36.5396 H   0  0  0  0  0  0  0  0  0  0  0  0
   34.4025   29.4866   36.0596 H   0  0  0  0  0  0  0  0  0  0  0  0
   36.7121   30.3344   35.3315 H   0  0  0  0  0  0  0  0  0  0  0  0
   36.0525   28.9782   34.3575 H   0  0  0  0  0  0  0  0  0  0  0  0
  1  2  1  0
  1 20  1  0
  3  2  2  0
  4  9  2  0
  4  3  1  0
  5  4  1  0
  6  7  1  0
  6  5  2  0
  7  8  2  0
  8  9  1  0
  9  1  1  0
 10 11  2  0
 11 12  1  0
 12 16  1  0
 13 12  2  0
 14 13  1  0
 15 14  2  0
 15 10  1  0
 16 17  1  0
 18 17  1  0
 19 18  1  0
 20 16  1  0
 20 19  1  0
 21  7  1  0
 22 21  1  0
 23 22  1  0
 23 24  1  0
 24 25  1  0
 25 26  1  0
 27 26  1  0
 28 23  1  0
 28 27  1  0
  2 29  1  0
  5 30  1  0
 10 31  1  0
 11 32  1  0
 14 33  1  0
 17 34  1  0
 17 35  1  0
 18 36  1  0
 18 37  1  0
 19 38  1  0
 19 39  1  0
 20 40  1  6
 21 41  1  0
 21 42  1  0
 22 43  1  0
 22 44  1  0
 24 45  1  0
 24 46  1  0
 25 47  1  0
 25 48  1  0
 26 49  1  0
 26 50  1  0
 27 51  1  0
 27 52  1  0
 28 53  1  0
 28 54  1  0
M  ISO  8  29  14  30  14  31  14  32  14  33  14  34  13  35  13  36  13
M  ISO  8  37  13  38  13  39  13  40  13  41   8  42   8  43   8  44   8
M  ISO  8  45  13  46  13  47  13  48  13  49  13  50  13  51  13  52  13
M  ISO  2  53  13  54  13
M  END
>  <minimizedAffinity>  (1) 
-5.60741663

>  <minimizedRMSD>  (1) 
1.00015318

$$$$
