
     RDKit          3D

 53 57  0  0  1  0  0  0  0  0999 V2000
   37.9640   25.2410   41.2210 N   0  0  0  0  0  0  0  0  0  0  0  0
   36.9790   24.5210   41.8090 C   0  0  0  0  0  0  0  0  0  0  0  0
   36.1650   23.9500   40.9190 N   0  0  0  0  0  0  0  0  0  0  0  0
   36.6310   24.3060   39.7170 C   0  0  0  0  0  0  0  0  0  0  0  0
   36.1700   23.9950   38.4340 C   0  0  0  0  0  0  0  0  0  0  0  0
   36.8660   24.5150   37.4010 N   0  0  0  0  0  0  0  0  0  0  0  0
   37.9660   25.3020   37.6080 C   0  0  0  0  0  0  0  0  0  0  0  0
   38.4000   25.5950   38.8490 N   0  0  0  0  0  0  0  0  0  0  0  0
   37.7410   25.1030   39.9170 C   0  0  0  0  0  0  0  0  0  0  0  0
   37.3010   30.3930   41.2850 C   0  0  0  0  0  0  0  0  0  0  0  0
   38.1650   29.4760   41.8920 C   0  0  0  0  0  0  0  0  0  0  0  0
   37.7730   28.1520   42.0220 C   0  0  0  0  0  0  0  0  0  0  0  0
   36.5510   27.8280   41.5420 N   0  0  0  0  0  0  0  0  0  0  0  0
   35.7230   28.7170   40.9570 C   0  0  0  0  0  0  0  0  0  0  0  0
   36.1040   30.0050   40.8300 N   0  0  0  0  0  0  0  0  0  0  0  0
   38.5680   27.1300   42.6210 N   0  0  0  0  0  0  0  0  0  0  0  0
   39.0710   27.0880   43.9910 C   0  0  0  0  0  0  0  0  0  0  0  0
   40.2830   26.1830   43.8740 C   0  0  0  0  0  0  0  0  0  0  0  0
   39.7190   25.1420   42.9490 C   0  0  0  0  0  0  0  0  0  0  0  0
   38.9940   25.9690   41.9330 C   0  0  1  0  0  0  0  0  0  0  0  0
   38.7150   25.8560   36.4520 C   0  0  0  0  0  0  0  0  0  0  0  0
   39.3510   27.1830   36.7410 C   0  0  0  0  0  0  0  0  0  0  0  0
   38.4720   28.2900   36.7430 N   0  0  0  0  0  0  0  0  0  0  0  0
   37.6130   28.4560   35.6390 C   0  0  0  0  0  0  0  0  0  0  0  0
   36.4990   29.4030   36.0290 C   0  0  0  0  0  0  0  0  0  0  0  0
   37.1930   30.6880   36.2240 N   0  0  0  0  0  0  0  0  0  0  0  0
   37.9060   30.5690   37.4770 C   0  0  0  0  0  0  0  0  0  0  0  0
   38.7800   29.3710   37.5650 C   0  0  0  0  0  0  0  0  0  0  0  0
   36.8630   24.4184   42.8980 H   0  0  0  0  0  0  0  0  0  0  0  0
   35.2862   23.3597   38.2749 H   0  0  0  0  0  0  0  0  0  0  0  0
   37.6086   31.4439   41.1806 H   0  0  0  0  0  0  0  0  0  0  0  0
   39.1477   29.8022   42.2634 H   0  0  0  0  0  0  0  0  0  0  0  0
   34.7400   28.3931   40.5845 H   0  0  0  0  0  0  0  0  0  0  0  0
   39.3574   28.0913   44.3393 H   0  0  0  0  0  0  0  0  0  0  0  0
   38.3274   26.7297   44.7181 H   0  0  0  0  0  0  0  0  0  0  0  0
   41.1443   26.7041   43.4305 H   0  0  0  0  0  0  0  0  0  0  0  0
   40.6789   25.8012   44.8266 H   0  0  0  0  0  0  0  0  0  0  0  0
   40.5196   24.5500   42.4815 H   0  0  0  0  0  0  0  0  0  0  0  0
   39.0759   24.4075   43.4559 H   0  0  0  0  0  0  0  0  0  0  0  0
   39.6487   26.2599   41.0983 H   0  0  0  0  0  0  0  0  0  0  0  0
   38.0178   25.9785   35.6100 H   0  0  0  0  0  0  0  0  0  0  0  0
   39.5250   25.1493   36.2185 H   0  0  0  0  0  0  0  0  0  0  0  0
   39.8240   27.1237   37.7323 H   0  0  0  0  0  0  0  0  0  0  0  0
   40.0622   27.3627   35.9213 H   0  0  0  0  0  0  0  0  0  0  0  0
   37.1880   27.4831   35.3512 H   0  0  0  0  0  0  0  0  0  0  0  0
   38.1735   28.8675   34.7866 H   0  0  0  0  0  0  0  0  0  0  0  0
   35.7488   29.4788   35.2281 H   0  0  0  0  0  0  0  0  0  0  0  0
   35.9491   29.0729   36.9227 H   0  0  0  0  0  0  0  0  0  0  0  0
   37.8525   30.8595   35.4517 H   0  0  0  0  0  0  0  0  0  0  0  0
   38.5326   31.4641   37.6045 H   0  0  0  0  0  0  0  0  0  0  0  0
   37.1465   30.4668   38.2662 H   0  0  0  0  0  0  0  0  0  0  0  0
   38.7468   29.0143   38.6050 H   0  0  0  0  0  0  0  0  0  0  0  0
   39.7651   29.7160   37.2178 H   0  0  0  0  0  0  0  0  0  0  0  0
  1  2  1  0
  1 20  1  0
  3  2  2  0
  4  9  2  0
  4  3  1  0
  5  4  1  0
  6  7  1  0
  6  5  2  0
  7  8  2  0
  8  9  1  0
  9  1  1  0
 10 11  2  0
 11 12  1  0
 12 16  1  0
 13 12  2  0
 14 13  1  0
 15 14  2  0
 15 10  1  0
 16 17  1  0
 18 17  1  0
 19 18  1  0
 20 16  1  0
 20 19  1  0
 21 22  1  0
 21  7  1  0
 22 23  1  0
 23 28  1  0
 24 25  1  0
 24 23  1  0
 25 26  1  0
 26 27  1  0
 27 28  1  0
  2 29  1  0
  5 30  1  0
 10 31  1  0
 11 32  1  0
 14 33  1  0
 17 34  1  0
 17 35  1  0
 18 36  1  0
 18 37  1  0
 19 38  1  0
 19 39  1  0
 20 40  1  6
 21 41  1  0
 21 42  1  0
 22 43  1  0
 22 44  1  0
 24 45  1  0
 24 46  1  0
 25 47  1  0
 25 48  1  0
 26 49  1  0
 27 50  1  0
 27 51  1  0
 28 52  1  0
 28 53  1  0
M  ISO  8  29  14  30  14  31  14  32  14  33  14  34  13  35  13  36  13
M  ISO  8  37  13  38  13  39  13  40  13  41   8  42   8  43   8  44   8
M  ISO  8  45  13  46  13  47  13  48  13  49   5  50  13  51  13  52  13
M  ISO  1  53  13
M  END
>  <minimizedAffinity>  (1) 
-5.55473423

>  <minimizedRMSD>  (1) 
1.98144948

$$$$
