
     RDKit          3D

 40 43  0  0  1  0  0  0  0  0999 V2000
   36.8260   30.7060   41.1690 C   0  0  0  0  0  0  0  0  0  0  0  0
   37.6920   29.8250   41.8290 C   0  0  0  0  0  0  0  0  0  0  0  0
   37.3690   28.4620   41.8970 C   0  0  0  0  0  0  0  0  0  0  0  0
   36.2080   28.1030   41.3020 N   0  0  0  0  0  0  0  0  0  0  0  0
   35.3830   28.9430   40.6740 C   0  0  0  0  0  0  0  0  0  0  0  0
   35.6960   30.2540   40.6070 N   0  0  0  0  0  0  0  0  0  0  0  0
   38.1620   27.4850   42.5330 N   0  0  0  0  0  0  0  0  0  0  0  0
   38.5560   27.4340   43.9370 C   0  0  0  0  0  0  0  0  0  0  0  0
   39.8130   26.5900   43.9050 C   0  0  0  0  0  0  0  0  0  0  0  0
   39.3910   25.5490   42.9080 C   0  0  0  0  0  0  0  0  0  0  0  0
   38.7080   26.3720   41.8610 C   0  0  1  0  0  0  0  0  0  0  0  0
   37.7910   25.6050   41.0470 N   0  0  0  0  0  0  0  0  0  0  0  0
   36.9410   24.6500   41.5080 C   0  0  0  0  0  0  0  0  0  0  0  0
   36.2110   24.1040   40.5400 N   0  0  0  0  0  0  0  0  0  0  0  0
   36.5910   24.7170   39.4160 C   0  0  0  0  0  0  0  0  0  0  0  0
   36.1530   24.5380   38.0960 C   0  0  0  0  0  0  0  0  0  0  0  0
   36.7300   25.3150   37.1540 N   0  0  0  0  0  0  0  0  0  0  0  0
   37.6880   26.2210   37.4820 C   0  0  0  0  0  0  0  0  0  0  0  0
   38.1090   26.3920   38.7500 N   0  0  0  0  0  0  0  0  0  0  0  0
   37.5640   25.6410   39.7320 C   0  0  0  0  0  0  0  0  0  0  0  0
   38.3000   27.0550   36.4260 C   0  0  0  0  0  0  0  0  0  0  0  0
   37.6330   28.3890   36.2280 C   0  0  0  0  0  0  0  0  0  0  0  0
   37.5800   28.6170   34.8330 O   0  0  0  0  0  0  0  0  0  0  0  0
   37.0748   31.7760   41.1114 H   0  0  0  0  0  0  0  0  0  0  0  0
   38.6179   30.1991   42.2902 H   0  0  0  0  0  0  0  0  0  0  0  0
   34.4556   28.5700   40.2148 H   0  0  0  0  0  0  0  0  0  0  0  0
   38.7654   28.4413   44.3261 H   0  0  0  0  0  0  0  0  0  0  0  0
   37.7740   27.0241   44.5931 H   0  0  0  0  0  0  0  0  0  0  0  0
   40.6834   27.1642   43.5545 H   0  0  0  0  0  0  0  0  0  0  0  0
   40.1374   26.1982   44.8803 H   0  0  0  0  0  0  0  0  0  0  0  0
   40.2607   25.0181   42.4934 H   0  0  0  0  0  0  0  0  0  0  0  0
   38.7535   24.7611   43.3355 H   0  0  0  0  0  0  0  0  0  0  0  0
   39.4116   26.7344   41.0971 H   0  0  0  0  0  0  0  0  0  0  0  0
   36.8652   24.3603   42.5665 H   0  0  0  0  0  0  0  0  0  0  0  0
   35.3775   23.8009   37.8403 H   0  0  0  0  0  0  0  0  0  0  0  0
   39.3523   27.2320   36.6931 H   0  0  0  0  0  0  0  0  0  0  0  0
   38.1864   26.5022   35.4818 H   0  0  0  0  0  0  0  0  0  0  0  0
   36.6163   28.3699   36.6474 H   0  0  0  0  0  0  0  0  0  0  0  0
   38.1910   29.1885   36.7374 H   0  0  0  0  0  0  0  0  0  0  0  0
   37.3592   29.5668   34.6620 H   0  0  0  0  0  0  0  0  0  0  0  0
  1  2  2  0
  2  3  1  0
  3  7  1  0
  4  3  2  0
  5  4  1  0
  6  5  2  0
  6  1  1  0
  7  8  1  0
  9  8  1  0
 10  9  1  0
 11  7  1  0
 11 10  1  0
 12 13  1  0
 12 11  1  0
 14 13  2  0
 15 20  2  0
 15 14  1  0
 16 15  1  0
 17 18  1  0
 17 16  2  0
 18 19  2  0
 19 20  1  0
 20 12  1  0
 21 18  1  0
 22 21  1  0
 23 22  1  0
  1 24  1  0
  2 25  1  0
  5 26  1  0
  8 27  1  0
  8 28  1  0
  9 29  1  0
  9 30  1  0
 10 31  1  0
 10 32  1  0
 11 33  1  6
 13 34  1  0
 16 35  1  0
 21 36  1  0
 21 37  1  0
 22 38  1  0
 22 39  1  0
 23 40  1  0
M  ISO  8  24  14  25  14  26  14  27  13  28  13  29  13  30  13  31  13
M  ISO  8  32  13  33  13  34  14  35  14  36   8  37   8  38   8  39   8
M  ISO  1  40   3
M  END
>  <minimizedAffinity>  (1) 
-5.34897995

>  <minimizedRMSD>  (1) 
0.301918924

$$$$
