
     RDKit          3D

 46 50  0  0  1  0  0  0  0  0999 V2000
   36.8610   30.6590   41.1590 C   0  0  0  0  0  0  0  0  0  0  0  0
   37.7360   29.7830   41.8180 C   0  0  0  0  0  0  0  0  0  0  0  0
   37.4020   28.4400   41.9300 C   0  0  0  0  0  0  0  0  0  0  0  0
   36.2280   28.0760   41.3790 N   0  0  0  0  0  0  0  0  0  0  0  0
   35.4000   28.9100   40.7540 C   0  0  0  0  0  0  0  0  0  0  0  0
   35.7150   30.2150   40.6400 N   0  0  0  0  0  0  0  0  0  0  0  0
   38.2080   27.4630   42.5740 N   0  0  0  0  0  0  0  0  0  0  0  0
   38.6390   27.4480   43.9650 C   0  0  0  0  0  0  0  0  0  0  0  0
   39.8890   26.5910   43.9300 C   0  0  0  0  0  0  0  0  0  0  0  0
   39.4200   25.5300   42.9720 C   0  0  0  0  0  0  0  0  0  0  0  0
   38.7240   26.3190   41.9130 C   0  0  1  0  0  0  0  0  0  0  0  0
   37.7800   25.5510   41.1490 N   0  0  0  0  0  0  0  0  0  0  0  0
   36.9280   24.6210   41.6630 C   0  0  0  0  0  0  0  0  0  0  0  0
   36.1570   24.0530   40.7400 N   0  0  0  0  0  0  0  0  0  0  0  0
   36.5140   24.6330   39.5760 C   0  0  0  0  0  0  0  0  0  0  0  0
   36.0320   24.4210   38.2780 C   0  0  0  0  0  0  0  0  0  0  0  0
   36.5930   25.1610   37.3050 N   0  0  0  0  0  0  0  0  0  0  0  0
   37.5710   26.0590   37.5750 C   0  0  0  0  0  0  0  0  0  0  0  0
   38.0260   26.2530   38.8320 N   0  0  0  0  0  0  0  0  0  0  0  0
   37.5110   25.5500   39.8400 C   0  0  0  0  0  0  0  0  0  0  0  0
   38.1720   26.8620   36.4790 C   0  0  0  0  0  0  0  0  0  0  0  0
   38.3550   28.3050   36.7990 C   0  0  0  0  0  0  0  0  0  0  0  0
   37.2510   29.2040   36.3460 C   0  0  0  0  0  0  0  0  0  0  0  0
   37.0990   30.4390   37.2590 C   0  0  0  0  0  0  0  0  0  0  0  0
   36.0160   29.4130   37.1180 C   0  0  0  0  0  0  0  0  0  0  0  0
   37.1225   31.7237   41.0691 H   0  0  0  0  0  0  0  0  0  0  0  0
   38.6793   30.1570   42.2427 H   0  0  0  0  0  0  0  0  0  0  0  0
   34.4575   28.5333   40.3301 H   0  0  0  0  0  0  0  0  0  0  0  0
   38.8671   28.4644   44.3184 H   0  0  0  0  0  0  0  0  0  0  0  0
   37.8704   27.0627   44.6511 H   0  0  0  0  0  0  0  0  0  0  0  0
   40.7571   27.1434   43.5410 H   0  0  0  0  0  0  0  0  0  0  0  0
   40.2394   26.2253   44.9065 H   0  0  0  0  0  0  0  0  0  0  0  0
   40.2701   24.9707   42.5541 H   0  0  0  0  0  0  0  0  0  0  0  0
   38.7754   24.7738   43.4438 H   0  0  0  0  0  0  0  0  0  0  0  0
   39.4113   26.6369   41.1152 H   0  0  0  0  0  0  0  0  0  0  0  0
   36.8822   24.3658   42.7320 H   0  0  0  0  0  0  0  0  0  0  0  0
   35.2383   23.6895   38.0661 H   0  0  0  0  0  0  0  0  0  0  0  0
   37.5172   26.7858   35.5984 H   0  0  0  0  0  0  0  0  0  0  0  0
   39.1771   26.4504   36.3047 H   0  0  0  0  0  0  0  0  0  0  0  0
   38.4461   28.4021   37.8909 H   0  0  0  0  0  0  0  0  0  0  0  0
   39.2534   28.6266   36.2517 H   0  0  0  0  0  0  0  0  0  0  0  0
   37.3995   28.9497   35.2861 H   0  0  0  0  0  0  0  0  0  0  0  0
   37.6753   30.5142   38.1929 H   0  0  0  0  0  0  0  0  0  0  0  0
   37.1762   31.5291   37.1333 H   0  0  0  0  0  0  0  0  0  0  0  0
   35.0856   29.6748   36.5929 H   0  0  0  0  0  0  0  0  0  0  0  0
   35.4513   28.7976   37.8338 H   0  0  0  0  0  0  0  0  0  0  0  0
  1  2  2  0
  2  3  1  0
  3  7  1  0
  4  3  2  0
  5  4  1  0
  6  5  2  0
  6  1  1  0
  7  8  1  0
  9  8  1  0
 10  9  1  0
 11  7  1  0
 11 10  1  0
 12 13  1  0
 12 11  1  0
 14 13  2  0
 15 20  2  0
 15 14  1  0
 16 15  1  0
 17 18  1  0
 17 16  2  0
 18 19  2  0
 19 20  1  0
 20 12  1  0
 21 22  1  0
 21 18  1  0
 23 22  1  0
 23 25  1  0
 23 24  1  0
 25 24  1  0
  1 26  1  0
  2 27  1  0
  5 28  1  0
  8 29  1  0
  8 30  1  0
  9 31  1  0
  9 32  1  0
 10 33  1  0
 10 34  1  0
 11 35  1  6
 13 36  1  0
 16 37  1  0
 21 38  1  0
 21 39  1  0
 22 40  1  0
 22 41  1  0
 23 42  1  0
 24 43  1  0
 24 44  1  0
 25 45  1  0
 25 46  1  0
M  ISO  8  26  14  27  14  28  14  29  13  30  13  31  13  32  13  33  13
M  ISO  8  34  13  35  13  36  14  37  14  38   8  39   8  40   8  41   8
M  ISO  5  42  13  43  13  44  13  45  13  46  13
M  END
>  <minimizedAffinity>  (1) 
-5.28525114

>  <minimizedRMSD>  (1) 
1.12659442

$$$$
