
     RDKit          3D

 25 27  0  0  0  0  0  0  0  0999 V2000
   38.3870   32.8250   40.4930 C   0  0  0  0  0  0  0  0  0  0  0  0
   37.1040   32.5950   40.1750 N   0  0  0  0  0  0  0  0  0  0  0  0
   36.7560   31.3970   40.5060 O   0  0  0  0  0  0  0  0  0  0  0  0
   37.7790   30.7740   41.0580 C   0  0  0  0  0  0  0  0  0  0  0  0
   38.7970   31.6620   41.0510 N   0  0  0  0  0  0  0  0  0  0  0  0
   38.0290   29.4840   41.6120 N   0  0  0  0  0  0  0  0  0  0  0  0
   37.6230   29.2450   42.8720 C   0  0  0  0  0  0  0  0  0  0  0  0
   37.8960   27.9670   43.3560 C   0  0  0  0  0  0  0  0  0  0  0  0
   38.5450   27.0750   42.5220 C   0  0  0  0  0  0  0  0  0  0  0  0
   38.7870   25.9140   42.9790 O   0  0  0  0  0  0  0  0  0  0  0  0
   38.9310   27.3680   41.2660 N   0  0  0  0  0  0  0  0  0  0  0  0
   38.6610   28.6190   40.7970 C   0  0  0  0  0  0  0  0  0  0  0  0
   39.0030   28.9370   39.6310 O   0  0  0  0  0  0  0  0  0  0  0  0
   41.3560   35.1490   40.2240 C   0  0  0  0  0  0  0  0  0  0  0  0
   40.6720   33.9400   40.3800 C   0  0  0  0  0  0  0  0  0  0  0  0
   39.2820   33.9800   40.3490 C   0  0  0  0  0  0  0  0  0  0  0  0
   38.6730   35.1780   40.1710 N   0  0  0  0  0  0  0  0  0  0  0  0
   39.3720   36.3200   40.0260 C   0  0  0  0  0  0  0  0  0  0  0  0
   40.7320   36.3140   40.0510 N   0  0  0  0  0  0  0  0  0  0  0  0
   37.1106   30.0062   43.4787 H   0  0  0  0  0  0  0  0  0  0  0  0
   37.6028   27.6752   44.3753 H   0  0  0  0  0  0  0  0  0  0  0  0
   39.4133   26.6715   40.6802 H   0  0  0  0  0  0  0  0  0  0  0  0
   42.4558   35.1385   40.2449 H   0  0  0  0  0  0  0  0  0  0  0  0
   41.2127   32.9926   40.5219 H   0  0  0  0  0  0  0  0  0  0  0  0
   38.8360   37.2702   39.8855 H   0  0  0  0  0  0  0  0  0  0  0  0
  1  5  1  0
  2  1  2  0
  2  3  1  0
  3  4  1  0
  4  6  1  0
  5  4  2  0
  6  7  1  0
  7  8  2  0
  9 10  2  0
  9  8  1  0
 11  9  1  0
 12 11  1  0
 12  6  1  0
 13 12  2  0
 14 15  2  0
 16 15  1  0
 16  1  1  0
 17 16  2  0
 18 19  2  0
 18 17  1  0
 19 14  1  0
  7 20  1  0
  8 21  1  0
 11 22  1  0
 14 23  1  0
 15 24  1  0
 18 25  1  0
M  ISO  6  20  14  21  14  22   9  23  14  24  14  25  14
M  END
>  <minimizedAffinity>  (1) 
-5.65860319

>  <minimizedRMSD>  (1) 
4.24582148

$$$$
