
     RDKit          3D

 24 26  0  0  0  0  0  0  0  0999 V2000
   38.1740   32.6090   40.4950 C   0  0  0  0  0  0  0  0  0  0  0  0
   36.9120   32.4440   40.0620 N   0  0  0  0  0  0  0  0  0  0  0  0
   36.4490   31.3020   40.4510 O   0  0  0  0  0  0  0  0  0  0  0  0
   37.3480   30.6590   41.1450 C   0  0  0  0  0  0  0  0  0  0  0  0
   38.4350   31.4770   41.1750 N   0  0  0  0  0  0  0  0  0  0  0  0
   41.3360   34.6580   40.2430 C   0  0  0  0  0  0  0  0  0  0  0  0
   40.5540   33.5110   40.3800 C   0  0  0  0  0  0  0  0  0  0  0  0
   39.1740   33.6700   40.3670 C   0  0  0  0  0  0  0  0  0  0  0  0
   38.6620   34.9300   40.2220 N   0  0  0  0  0  0  0  0  0  0  0  0
   39.4590   36.0190   40.0920 C   0  0  0  0  0  0  0  0  0  0  0  0
   40.8160   35.8710   40.1050 N   0  0  0  0  0  0  0  0  0  0  0  0
   37.3650   29.3600   41.8100 C   0  0  0  0  0  0  0  0  0  0  0  0
   37.6930   29.1520   43.1370 C   0  0  0  0  0  0  0  0  0  0  0  0
   37.6860   27.9090   43.6830 C   0  0  0  0  0  0  0  0  0  0  0  0
   37.3410   26.8160   42.9030 C   0  0  0  0  0  0  0  0  0  0  0  0
   37.0150   27.0400   41.5790 C   0  0  0  0  0  0  0  0  0  0  0  0
   37.0340   28.2820   41.0750 N   0  0  0  0  0  0  0  0  0  0  0  0
   42.4309   34.5524   40.2497 H   0  0  0  0  0  0  0  0  0  0  0  0
   41.0129   32.5178   40.4941 H   0  0  0  0  0  0  0  0  0  0  0  0
   39.0138   37.0182   39.9765 H   0  0  0  0  0  0  0  0  0  0  0  0
   37.9658   30.0132   43.7646 H   0  0  0  0  0  0  0  0  0  0  0  0
   37.9532   27.7696   44.7409 H   0  0  0  0  0  0  0  0  0  0  0  0
   37.3272   25.8005   43.3256 H   0  0  0  0  0  0  0  0  0  0  0  0
   36.7379   26.1931   40.9340 H   0  0  0  0  0  0  0  0  0  0  0  0
  1  5  1  0
  2  3  1  0
  2  1  2  0
  3  4  1  0
  4  5  2  0
  4 12  1  0
  6  7  2  0
  8  7  1  0
  8  1  1  0
  9  8  2  0
 10 11  2  0
 10  9  1  0
 11  6  1  0
 12 13  2  0
 13 14  1  0
 15 14  2  0
 16 15  1  0
 17 16  2  0
 17 12  1  0
  6 18  1  0
  7 19  1  0
 10 20  1  0
 13 21  1  0
 14 22  1  0
 15 23  1  0
 16 24  1  0
M  ISO  7  18  14  19  14  20  14  21  14  22  14  23  14  24  14
M  END
>  <minimizedAffinity>  (1) 
-5.40828753

>  <minimizedRMSD>  (1) 
3.93979669

$$$$
