
     RDKit          3D

 18 19  0  0  0  0  0  0  0  0999 V2000
   39.5020   33.0820   40.7560 C   0  0  0  0  0  0  0  0  0  0  0  0
   39.0330   31.8320   41.2090 C   0  0  0  0  0  0  0  0  0  0  0  0
   37.7270   31.4770   40.8400 C   0  0  0  0  0  0  0  0  0  0  0  0
   36.9950   32.3380   40.0810 N   0  0  0  0  0  0  0  0  0  0  0  0
   37.5070   33.5280   39.6780 C   0  0  0  0  0  0  0  0  0  0  0  0
   38.7620   33.9010   40.0150 N   0  0  0  0  0  0  0  0  0  0  0  0
   37.0660   30.2260   41.2130 C   0  0  0  0  0  0  0  0  0  0  0  0
   36.0100   29.5560   40.7050 N   0  0  0  0  0  0  0  0  0  0  0  0
   35.8180   28.4750   41.4080 O   0  0  0  0  0  0  0  0  0  0  0  0
   36.6900   28.3750   42.3690 C   0  0  0  0  0  0  0  0  0  0  0  0
   37.4630   29.4650   42.2450 N   0  0  0  0  0  0  0  0  0  0  0  0
   36.8570   27.3210   43.4130 C   0  0  0  0  0  0  0  0  0  0  0  0
   35.9010   27.4420   44.3880 F   0  0  0  0  0  0  0  0  0  0  0  0
   38.0990   27.4070   44.0260 F   0  0  0  0  0  0  0  0  0  0  0  0
   36.7290   26.0670   42.8020 F   0  0  0  0  0  0  0  0  0  0  0  0
   40.5220   33.3923   41.0268 H   0  0  0  0  0  0  0  0  0  0  0  0
   39.6603   31.1678   41.8216 H   0  0  0  0  0  0  0  0  0  0  0  0
   36.8896   34.2018   39.0658 H   0  0  0  0  0  0  0  0  0  0  0  0
  1  2  2  0
  3  2  1  0
  3  7  1  0
  4  3  2  0
  5  6  2  0
  5  4  1  0
  6  1  1  0
  7 11  1  0
  8  7  2  0
  8  9  1  0
  9 10  1  0
 10 12  1  0
 11 10  2  0
 12 14  1  0
 12 13  1  0
 15 12  1  0
  1 16  1  0
  2 17  1  0
  5 18  1  0
M  ISO  3  16  14  17  14  18  14
M  END
>  <minimizedAffinity>  (1) 
-5.00592804

>  <minimizedRMSD>  (1) 
1.437922

$$$$
