
     RDKit          3D

 27 28  0  0  0  0  0  0  0  0999 V2000
   39.4880   33.5060   40.6800 C   0  0  0  0  0  0  0  0  0  0  0  0
   39.0970   32.2460   41.1370 C   0  0  0  0  0  0  0  0  0  0  0  0
   37.8290   31.8040   40.7860 C   0  0  0  0  0  0  0  0  0  0  0  0
   37.0500   32.6180   40.0240 N   0  0  0  0  0  0  0  0  0  0  0  0
   37.4530   33.8310   39.5970 C   0  0  0  0  0  0  0  0  0  0  0  0
   38.6980   34.2740   39.9370 N   0  0  0  0  0  0  0  0  0  0  0  0
   37.2240   30.5150   41.1610 C   0  0  0  0  0  0  0  0  0  0  0  0
   36.1450   29.8360   40.7320 N   0  0  0  0  0  0  0  0  0  0  0  0
   36.0340   28.7290   41.3920 O   0  0  0  0  0  0  0  0  0  0  0  0
   37.0150   28.6190   42.2730 C   0  0  0  0  0  0  0  0  0  0  0  0
   37.7690   29.7420   42.1320 N   0  0  0  0  0  0  0  0  0  0  0  0
   37.2880   27.5160   43.2450 C   0  0  0  0  0  0  0  0  0  0  0  0
   36.8860   26.2100   42.6210 C   0  0  0  0  0  0  0  0  0  0  0  0
   38.7800   27.4570   43.5480 C   0  0  0  0  0  0  0  0  0  0  0  0
   36.5500   27.7200   44.5470 C   0  0  0  0  0  0  0  0  0  0  0  0
   40.4888   33.8774   40.9453 H   0  0  0  0  0  0  0  0  0  0  0  0
   39.7679   31.6276   41.7514 H   0  0  0  0  0  0  0  0  0  0  0  0
   36.7875   34.4554   38.9828 H   0  0  0  0  0  0  0  0  0  0  0  0
   36.6611   25.4795   43.4121 H   0  0  0  0  0  0  0  0  0  0  0  0
   35.9928   26.3613   41.9970 H   0  0  0  0  0  0  0  0  0  0  0  0
   37.7096   25.8329   41.9970 H   0  0  0  0  0  0  0  0  0  0  0  0
   38.9330   27.4510   44.6373 H   0  0  0  0  0  0  0  0  0  0  0  0
   39.2066   26.5413   43.1127 H   0  0  0  0  0  0  0  0  0  0  0  0
   39.2776   28.3362   43.1127 H   0  0  0  0  0  0  0  0  0  0  0  0
   37.2325   27.5313   45.3888 H   0  0  0  0  0  0  0  0  0  0  0  0
   36.1793   28.7543   44.6002 H   0  0  0  0  0  0  0  0  0  0  0  0
   35.7007   27.0229   44.6002 H   0  0  0  0  0  0  0  0  0  0  0  0
  1  2  2  0
  3  2  1  0
  3  7  1  0
  4  3  2  0
  5  6  2  0
  5  4  1  0
  6  1  1  0
  7 11  1  0
  8  7  2  0
  8  9  1  0
  9 10  1  0
 10 12  1  0
 11 10  2  0
 12 14  1  0
 12 15  1  0
 13 12  1  0
  1 16  1  0
  2 17  1  0
  5 18  1  0
 13 19  1  0
 13 20  1  0
 13 21  1  0
 14 22  1  0
 14 23  1  0
 14 24  1  0
 15 25  1  0
 15 26  1  0
 15 27  1  0
M  ISO  8  16  14  17  14  18  14  19   8  20   8  21   8  22   8  23   8
M  ISO  4  24   8  25   8  26   8  27   8
M  END
>  <minimizedAffinity>  (1) 
-4.93519735

>  <minimizedRMSD>  (1) 
1.61903036

$$$$
