
     RDKit          3D

 22 24  0  0  0  0  0  0  0  0999 V2000
   37.6810   31.6250   40.2560 C   0  0  0  0  0  0  0  0  0  0  0  0
   38.5860   31.5030   41.2530 N   0  0  0  0  0  0  0  0  0  0  0  0
   39.2440   32.6110   41.3950 O   0  0  0  0  0  0  0  0  0  0  0  0
   38.8230   33.4930   40.5310 C   0  0  0  0  0  0  0  0  0  0  0  0
   37.8400   32.8940   39.8040 N   0  0  0  0  0  0  0  0  0  0  0  0
   35.5420   29.5070   37.9800 C   0  0  0  0  0  0  0  0  0  0  0  0
   36.5640   30.4100   38.3310 C   0  0  0  0  0  0  0  0  0  0  0  0
   36.6970   30.7200   39.6770 C   0  0  0  0  0  0  0  0  0  0  0  0
   35.8390   30.1360   40.5600 N   0  0  0  0  0  0  0  0  0  0  0  0
   34.8690   29.2720   40.1760 C   0  0  0  0  0  0  0  0  0  0  0  0
   34.7170   28.9530   38.8770 N   0  0  0  0  0  0  0  0  0  0  0  0
   39.2960   34.8630   40.3550 C   0  0  0  0  0  0  0  0  0  0  0  0
   40.6030   35.2530   40.6190 C   0  0  0  0  0  0  0  0  0  0  0  0
   40.5850   36.6090   40.3130 C   0  0  0  0  0  0  0  0  0  0  0  0
   39.3270   36.9750   39.8920 C   0  0  0  0  0  0  0  0  0  0  0  0
   38.5840   35.8720   39.9370 O   0  0  0  0  0  0  0  0  0  0  0  0
   35.4157   29.2446   36.9192 H   0  0  0  0  0  0  0  0  0  0  0  0
   37.2274   30.8501   37.5719 H   0  0  0  0  0  0  0  0  0  0  0  0
   34.2018   28.8286   40.9298 H   0  0  0  0  0  0  0  0  0  0  0  0
   41.4429   34.6413   40.9802 H   0  0  0  0  0  0  0  0  0  0  0  0
   41.4469   37.2875   40.3951 H   0  0  0  0  0  0  0  0  0  0  0  0
   39.0009   37.9784   39.5806 H   0  0  0  0  0  0  0  0  0  0  0  0
  1  2  2  0
  2  3  1  0
  4  3  1  0
  5  1  1  0
  5  4  2  0
  6  7  2  0
  6 11  1  0
  7  8  1  0
  8  1  1  0
  8  9  2  0
 10  9  1  0
 11 10  2  0
 12  4  1  0
 12 13  2  0
 14 13  1  0
 15 16  1  0
 15 14  2  0
 16 12  1  0
  6 17  1  0
  7 18  1  0
 10 19  1  0
 13 20  1  0
 14 21  1  0
 15 22  1  0
M  ISO  6  17  14  18  14  19  14  20  14  21  14  22  14
M  END
>  <minimizedAffinity>  (1) 
-4.78673601

>  <minimizedRMSD>  (1) 
7.30765486

$$$$
