
     RDKit          3D

 22 24  0  0  0  0  0  0  0  0999 V2000
   40.8760   33.6170   40.4580 C   0  0  0  0  0  0  0  0  0  0  0  0
   40.2570   32.4370   40.8430 C   0  0  0  0  0  0  0  0  0  0  0  0
   38.8640   32.4130   40.8910 C   0  0  0  0  0  0  0  0  0  0  0  0
   38.1830   33.5540   40.5540 N   0  0  0  0  0  0  0  0  0  0  0  0
   38.8410   34.6730   40.1860 C   0  0  0  0  0  0  0  0  0  0  0  0
   40.1950   34.7110   40.1350 N   0  0  0  0  0  0  0  0  0  0  0  0
   38.0300   31.2710   41.2740 C   0  0  0  0  0  0  0  0  0  0  0  0
   36.7770   30.8960   40.9860 N   0  0  0  0  0  0  0  0  0  0  0  0
   36.4920   29.7890   41.5820 O   0  0  0  0  0  0  0  0  0  0  0  0
   37.5240   29.3780   42.2850 C   0  0  0  0  0  0  0  0  0  0  0  0
   38.5050   30.3060   42.1000 N   0  0  0  0  0  0  0  0  0  0  0  0
   37.6700   28.1620   43.1340 C   0  0  0  0  0  0  0  0  0  0  0  0
   36.9360   28.1550   44.4740 C   0  0  0  0  0  0  0  0  0  0  0  0
   36.5460   27.2510   43.3580 C   0  0  0  0  0  0  0  0  0  0  0  0
   41.9748   33.6483   40.4185 H   0  0  0  0  0  0  0  0  0  0  0  0
   40.8479   31.5463   41.1028 H   0  0  0  0  0  0  0  0  0  0  0  0
   38.2667   35.5732   39.9219 H   0  0  0  0  0  0  0  0  0  0  0  0
   38.7017   28.0170   42.7812 H   0  0  0  0  0  0  0  0  0  0  0  0
   37.4242   27.7494   45.3724 H   0  0  0  0  0  0  0  0  0  0  0  0
   36.4259   28.9035   45.0981 H   0  0  0  0  0  0  0  0  0  0  0  0
   35.5964   27.4192   42.8289 H   0  0  0  0  0  0  0  0  0  0  0  0
   36.4149   26.1627   43.2668 H   0  0  0  0  0  0  0  0  0  0  0  0
  1  2  2  0
  2  3  1  0
  3  7  1  0
  4  3  2  0
  5  4  1  0
  6  5  2  0
  6  1  1  0
  7 11  1  0
  8  7  2  0
  8  9  1  0
  9 10  1  0
 10 12  1  0
 11 10  2  0
 12 14  1  0
 12 13  1  0
 14 13  1  0
  1 15  1  0
  2 16  1  0
  5 17  1  0
 12 18  1  0
 13 19  1  0
 13 20  1  0
 14 21  1  0
 14 22  1  0
M  ISO  8  15  14  16  14  17  14  18  13  19  13  20  13  21  13  22  13
M  END
>  <minimizedAffinity>  (1) 
-4.63218546

>  <minimizedRMSD>  (1) 
2.24143314

$$$$
