
     RDKit          3D

 46 48  0  0  1  0  0  0  0  0999 V2000
   39.8640   31.4920   39.9700 C   0  0  0  0  0  0  0  0  0  0  0  0
   39.4280   30.3980   40.7660 C   0  0  0  0  0  0  0  0  0  0  0  0
   38.1360   30.4060   41.2200 C   0  0  0  0  0  0  0  0  0  0  0  0
   37.3150   31.4510   40.8960 N   0  0  0  0  0  0  0  0  0  0  0  0
   37.7480   32.4820   40.1380 C   0  0  0  0  0  0  0  0  0  0  0  0
   39.0240   32.5060   39.6720 N   0  0  0  0  0  0  0  0  0  0  0  0
   36.8500   33.5440   39.8340 N   0  0  0  0  0  0  0  0  0  0  0  0
   37.6290   29.3570   42.0140 N   0  0  0  0  0  0  0  0  0  0  0  0
   38.2430   29.0430   43.2800 C   0  0  0  0  0  0  0  0  0  0  0  0
   37.1970   28.3160   44.1290 C   0  0  0  0  0  0  0  0  0  0  0  0
   36.6730   27.1450   43.5150 N   0  0  0  0  0  0  0  0  0  0  0  0
   36.6410   27.1700   42.0870 C   0  0  0  0  0  0  0  0  0  0  0  0
   36.4900   28.5780   41.5780 C   0  0  2  0  0  0  0  0  0  0  0  0
   36.2280   28.6390   40.1270 C   0  0  0  0  0  0  0  0  0  0  0  0
   34.9840   29.0710   39.6530 C   0  0  0  0  0  0  0  0  0  0  0  0
   34.6570   29.1580   38.3320 C   0  0  0  0  0  0  0  0  0  0  0  0
   35.6350   28.7900   37.4780 N   0  0  0  0  0  0  0  0  0  0  0  0
   36.8350   28.3720   37.9000 C   0  0  0  0  0  0  0  0  0  0  0  0
   37.1680   28.2840   39.2140 N   0  0  0  0  0  0  0  0  0  0  0  0
   37.8580   27.9860   36.8890 C   0  0  0  0  0  0  0  0  0  0  0  0
   38.0250   26.4820   36.8120 C   0  0  0  0  0  0  0  0  0  0  0  0
   39.1960   28.5980   37.1520 C   0  0  0  0  0  0  0  0  0  0  0  0
   37.4370   28.4150   35.4840 C   0  0  0  0  0  0  0  0  0  0  0  0
   40.8971   31.5126   39.5927 H   0  0  0  0  0  0  0  0  0  0  0  0
   40.1086   29.5691   41.0102 H   0  0  0  0  0  0  0  0  0  0  0  0
   37.1662   34.3366   39.2572 H   0  0  0  0  0  0  0  0  0  0  0  0
   35.8841   33.5198   40.1909 H   0  0  0  0  0  0  0  0  0  0  0  0
   39.1170   28.3938   43.1231 H   0  0  0  0  0  0  0  0  0  0  0  0
   38.5833   29.9595   43.7842 H   0  0  0  0  0  0  0  0  0  0  0  0
   37.6634   28.0285   45.0829 H   0  0  0  0  0  0  0  0  0  0  0  0
   36.3551   29.0109   44.2648 H   0  0  0  0  0  0  0  0  0  0  0  0
   37.2529   26.3453   43.8069 H   0  0  0  0  0  0  0  0  0  0  0  0
   37.5782   26.7450   41.6982 H   0  0  0  0  0  0  0  0  0  0  0  0
   35.7795   26.5780   41.7443 H   0  0  0  0  0  0  0  0  0  0  0  0
   35.5876   29.0306   42.0149 H   0  0  0  0  0  0  0  0  0  0  0  0
   34.2221   29.3584   40.3926 H   0  0  0  0  0  0  0  0  0  0  0  0
   33.6704   29.5022   37.9884 H   0  0  0  0  0  0  0  0  0  0  0  0
   38.0712   26.0657   37.8291 H   0  0  0  0  0  0  0  0  0  0  0  0
   37.1698   26.0451   36.2755 H   0  0  0  0  0  0  0  0  0  0  0  0
   38.9552   26.2434   36.2755 H   0  0  0  0  0  0  0  0  0  0  0  0
   39.3583   28.6722   38.2374 H   0  0  0  0  0  0  0  0  0  0  0  0
   39.9808   27.9693   36.7061 H   0  0  0  0  0  0  0  0  0  0  0  0
   39.2336   29.6029   36.7061 H   0  0  0  0  0  0  0  0  0  0  0  0
   36.6681   29.1985   35.5548 H   0  0  0  0  0  0  0  0  0  0  0  0
   38.3109   28.8067   34.9429 H   0  0  0  0  0  0  0  0  0  0  0  0
   37.0289   27.5486   34.9429 H   0  0  0  0  0  0  0  0  0  0  0  0
  1  2  2  0
  2  3  1  0
  3  8  1  0
  4  3  2  0
  5  4  1  0
  6  1  1  0
  6  5  2  0
  7  5  1  0
  8  9  1  0
  9 10  1  0
 11 10  1  0
 12 11  1  0
 13  8  1  0
 13 12  1  0
 14 13  1  0
 15 14  2  0
 16 15  1  0
 17 18  1  0
 17 16  2  0
 18 19  2  0
 19 14  1  0
 20 22  1  0
 20 18  1  0
 21 20  1  0
 23 20  1  0
  1 24  1  0
  2 25  1  0
  7 26  1  0
  7 27  1  0
  9 28  1  0
  9 29  1  0
 10 30  1  0
 10 31  1  0
 11 32  1  0
 12 33  1  0
 12 34  1  0
 13 35  1  1
 15 36  1  0
 16 37  1  0
 21 38  1  0
 21 39  1  0
 21 40  1  0
 22 41  1  0
 22 42  1  0
 22 43  1  0
 23 44  1  0
 23 45  1  0
 23 46  1  0
M  ISO  8  24  14  25  14  28  13  29  13  30  13  31  13  32   5  33  13
M  ISO  8  34  13  35  13  36  14  37  14  38   8  39   8  40   8  41   8
M  ISO  5  42   8  43   8  44   8  45   8  46   8
M  END
>  <minimizedAffinity>  (1) 
-5.72460794

>  <minimizedRMSD>  (1) 
0.536122501

$$$$
