
     RDKit          3D

 41 44  0  0  1  0  0  0  0  0999 V2000
   40.0220   32.1620   41.1200 C   0  0  0  0  0  0  0  0  0  0  0  0
   39.6130   30.8850   41.5960 C   0  0  0  0  0  0  0  0  0  0  0  0
   38.2960   30.5490   41.4620 C   0  0  0  0  0  0  0  0  0  0  0  0
   37.4260   31.4370   40.8810 N   0  0  0  0  0  0  0  0  0  0  0  0
   37.8480   32.6460   40.4370 C   0  0  0  0  0  0  0  0  0  0  0  0
   39.1490   33.0130   40.5550 N   0  0  0  0  0  0  0  0  0  0  0  0
   36.9020   33.5270   39.8430 N   0  0  0  0  0  0  0  0  0  0  0  0
   37.8030   29.2980   41.9090 N   0  0  0  0  0  0  0  0  0  0  0  0
   37.9290   28.9370   43.2960 C   0  0  0  0  0  0  0  0  0  0  0  0
   36.8610   27.8760   43.5830 C   0  0  0  0  0  0  0  0  0  0  0  0
   36.9370   26.7370   42.7330 N   0  0  0  0  0  0  0  0  0  0  0  0
   37.4770   26.9700   41.4310 C   0  0  0  0  0  0  0  0  0  0  0  0
   37.1750   28.3770   40.9860 C   0  0  2  0  0  0  0  0  0  0  0  0
   37.4900   28.6160   39.5700 C   0  0  0  0  0  0  0  0  0  0  0  0
   36.5200   29.0520   38.6800 C   0  0  0  0  0  0  0  0  0  0  0  0
   36.7300   29.2960   37.3550 C   0  0  0  0  0  0  0  0  0  0  0  0
   37.9890   29.0840   36.9310 N   0  0  0  0  0  0  0  0  0  0  0  0
   38.9570   28.6610   37.7600 C   0  0  0  0  0  0  0  0  0  0  0  0
   38.7410   28.4200   39.0800 N   0  0  0  0  0  0  0  0  0  0  0  0
   40.2950   28.4520   37.2300 C   0  0  0  0  0  0  0  0  0  0  0  0
   40.8870   27.2360   36.9020 C   0  0  0  0  0  0  0  0  0  0  0  0
   42.1490   27.4480   36.4360 C   0  0  0  0  0  0  0  0  0  0  0  0
   42.2980   28.8070   36.4910 C   0  0  0  0  0  0  0  0  0  0  0  0
   41.1940   29.3720   36.9610 O   0  0  0  0  0  0  0  0  0  0  0  0
   41.0766   32.4593   41.2167 H   0  0  0  0  0  0  0  0  0  0  0  0
   40.3329   30.1921   42.0561 H   0  0  0  0  0  0  0  0  0  0  0  0
   35.9161   33.2418   39.7567 H   0  0  0  0  0  0  0  0  0  0  0  0
   37.2030   34.4501   39.4992 H   0  0  0  0  0  0  0  0  0  0  0  0
   38.9309   28.5262   43.4897 H   0  0  0  0  0  0  0  0  0  0  0  0
   37.7928   29.8156   43.9437 H   0  0  0  0  0  0  0  0  0  0  0  0
   36.9776   27.5399   44.6239 H   0  0  0  0  0  0  0  0  0  0  0  0
   35.8845   28.3476   43.3985 H   0  0  0  0  0  0  0  0  0  0  0  0
   37.5273   26.0333   43.1990 H   0  0  0  0  0  0  0  0  0  0  0  0
   38.5669   26.8237   41.4583 H   0  0  0  0  0  0  0  0  0  0  0  0
   37.0206   26.2638   40.7218 H   0  0  0  0  0  0  0  0  0  0  0  0
   36.0893   28.5499   41.0243 H   0  0  0  0  0  0  0  0  0  0  0  0
   35.5051   29.2131   39.0724 H   0  0  0  0  0  0  0  0  0  0  0  0
   35.9300   29.6404   36.6832 H   0  0  0  0  0  0  0  0  0  0  0  0
   40.4075   26.2513   37.0039 H   0  0  0  0  0  0  0  0  0  0  0  0
   42.8795   26.6998   36.0944 H   0  0  0  0  0  0  0  0  0  0  0  0
   43.2039   29.3529   36.1886 H   0  0  0  0  0  0  0  0  0  0  0  0
  1  2  2  0
  3  2  1  0
  3  8  1  0
  4  3  2  0
  5  6  2  0
  5  4  1  0
  6  1  1  0
  7  5  1  0
  8  9  1  0
  9 10  1  0
 11 10  1  0
 12 11  1  0
 13 12  1  0
 13  8  1  0
 14 13  1  0
 15 14  2  0
 16 15  1  0
 17 16  2  0
 17 18  1  0
 18 19  2  0
 19 14  1  0
 20 18  1  0
 21 20  2  0
 22 23  2  0
 22 21  1  0
 23 24  1  0
 24 20  1  0
  1 25  1  0
  2 26  1  0
  7 27  1  0
  7 28  1  0
  9 29  1  0
  9 30  1  0
 10 31  1  0
 10 32  1  0
 11 33  1  0
 12 34  1  0
 12 35  1  0
 13 36  1  6
 15 37  1  0
 16 38  1  0
 21 39  1  0
 22 40  1  0
 23 41  1  0
M  ISO  8  25  14  26  14  29  13  30  13  31  13  32  13  33   5  34  13
M  ISO  7  35  13  36  13  37  14  38  14  39  14  40  14  41  14
M  END
>  <minimizedAffinity>  (1) 
-5.72020483

>  <minimizedRMSD>  (1) 
1.25328243

$$$$
