
     RDKit          3D

 31 34  0  0  0  0  0  0  0  0999 V2000
   37.9290   29.7400   40.2690 C   0  0  0  0  0  0  0  0  0  0  0  0
   38.5750   29.6150   41.4340 N   0  0  0  0  0  0  0  0  0  0  0  0
   39.1720   30.7350   41.7100 O   0  0  0  0  0  0  0  0  0  0  0  0
   38.9470   31.6190   40.7600 C   0  0  0  0  0  0  0  0  0  0  0  0
   38.1580   31.0000   39.8370 N   0  0  0  0  0  0  0  0  0  0  0  0
   39.3440   32.9680   40.5490 N   0  0  0  0  0  0  0  0  0  0  0  0
   38.4500   33.9380   40.2810 C   0  0  0  0  0  0  0  0  0  0  0  0
   38.8890   35.2290   40.0870 C   0  0  0  0  0  0  0  0  0  0  0  0
   40.2540   35.4770   40.1760 C   0  0  0  0  0  0  0  0  0  0  0  0
   40.8740   36.7470   40.0050 N   0  0  0  0  0  0  0  0  0  0  0  0
   41.0980   34.4670   40.4480 N   0  0  0  0  0  0  0  0  0  0  0  0
   40.6800   33.2020   40.6400 C   0  0  0  0  0  0  0  0  0  0  0  0
   41.5230   32.2990   40.8910 O   0  0  0  0  0  0  0  0  0  0  0  0
   35.8480   27.7260   38.0990 C   0  0  0  0  0  0  0  0  0  0  0  0
   36.1420   26.8880   39.1130 N   0  0  0  0  0  0  0  0  0  0  0  0
   36.9010   27.4990   39.9820 O   0  0  0  0  0  0  0  0  0  0  0  0
   37.1290   28.7170   39.5920 C   0  0  0  0  0  0  0  0  0  0  0  0
   36.4840   28.8750   38.4250 N   0  0  0  0  0  0  0  0  0  0  0  0
   34.4980   27.8600   34.5780 C   0  0  0  0  0  0  0  0  0  0  0  0
   35.4060   28.0840   35.6150 C   0  0  0  0  0  0  0  0  0  0  0  0
   35.0580   27.6090   36.8660 C   0  0  0  0  0  0  0  0  0  0  0  0
   33.8720   26.9630   37.0080 N   0  0  0  0  0  0  0  0  0  0  0  0
   33.0260   26.7710   35.9650 C   0  0  0  0  0  0  0  0  0  0  0  0
   33.3500   27.2290   34.7400 N   0  0  0  0  0  0  0  0  0  0  0  0
   37.3776   33.7015   40.2175 H   0  0  0  0  0  0  0  0  0  0  0  0
   38.1797   36.0407   39.8679 H   0  0  0  0  0  0  0  0  0  0  0  0
   41.8966   36.8364   40.0893 H   0  0  0  0  0  0  0  0  0  0  0  0
   40.2999   37.5765   39.7970 H   0  0  0  0  0  0  0  0  0  0  0  0
   34.7528   28.2287   33.5735 H   0  0  0  0  0  0  0  0  0  0  0  0
   36.3547   28.6141   35.4444 H   0  0  0  0  0  0  0  0  0  0  0  0
   32.0746   26.2409   36.1196 H   0  0  0  0  0  0  0  0  0  0  0  0
  1  2  2  0
  2  3  1  0
  4  3  1  0
  5  1  1  0
  5  4  2  0
  6 12  1  0
  6  4  1  0
  7  6  1  0
  8  9  1  0
  8  7  2  0
  9 11  2  0
 10  9  1  0
 11 12  1  0
 12 13  2  0
 14 18  1  0
 14 15  2  0
 15 16  1  0
 17 16  1  0
 17  1  1  0
 18 17  2  0
 19 24  2  0
 19 20  1  0
 20 21  2  0
 21 22  1  0
 21 14  1  0
 23 22  2  0
 24 23  1  0
  7 25  1  0
  8 26  1  0
 10 27  1  0
 10 28  1  0
 19 29  1  0
 20 30  1  0
 23 31  1  0
M  ISO  5  25  14  26  14  29  14  30  14  31  14
M  END
>  <minimizedAffinity>  (1) 
-5.07688665

>  <minimizedRMSD>  (1) 
7.67179537

$$$$
