
     RDKit          3D

 22 24  0  0  0  0  0  0  0  0999 V2000
   38.1270   29.9380   41.8350 C   0  0  0  0  0  0  0  0  0  0  0  0
   38.3810   29.4950   43.0920 N   0  0  0  0  0  0  0  0  0  0  0  0
   38.0970   28.2210   43.1610 O   0  0  0  0  0  0  0  0  0  0  0  0
   37.6670   27.7950   42.0120 C   0  0  0  0  0  0  0  0  0  0  0  0
   37.6780   28.8550   41.1650 N   0  0  0  0  0  0  0  0  0  0  0  0
   39.2740   33.3260   40.6090 C   0  0  0  0  0  0  0  0  0  0  0  0
   39.3320   32.1200   41.3040 C   0  0  0  0  0  0  0  0  0  0  0  0
   38.2530   31.2400   41.1890 C   0  0  0  0  0  0  0  0  0  0  0  0
   37.2120   31.6130   40.4040 N   0  0  0  0  0  0  0  0  0  0  0  0
   37.1980   32.8060   39.7400 C   0  0  0  0  0  0  0  0  0  0  0  0
   38.2380   33.6600   39.8480 N   0  0  0  0  0  0  0  0  0  0  0  0
   37.2460   26.4470   41.6620 C   0  0  0  0  0  0  0  0  0  0  0  0
   37.1400   25.3950   42.4760 N   0  0  0  0  0  0  0  0  0  0  0  0
   36.7350   24.3590   41.8140 O   0  0  0  0  0  0  0  0  0  0  0  0
   36.5570   24.6760   40.5400 C   0  0  0  0  0  0  0  0  0  0  0  0
   36.8820   25.9920   40.4580 N   0  0  0  0  0  0  0  0  0  0  0  0
   36.1150   23.8800   39.3900 C   0  0  0  0  0  0  0  0  0  0  0  0
   34.9720   23.3080   39.3800 O   0  0  0  0  0  0  0  0  0  0  0  0
   40.1172   34.0273   40.6936 H   0  0  0  0  0  0  0  0  0  0  0  0
   40.2033   31.8676   41.9262 H   0  0  0  0  0  0  0  0  0  0  0  0
   36.3342   33.0728   39.1134 H   0  0  0  0  0  0  0  0  0  0  0  0
   36.7796   23.7733   38.5200 H   0  0  0  0  0  0  0  0  0  0  0  0
  1  2  2  0
  2  3  1  0
  4  3  1  0
  5  1  1  0
  5  4  2  0
  6  7  2  0
  8  7  1  0
  8  1  1  0
  9  8  2  0
 10 11  2  0
 10  9  1  0
 11  6  1  0
 12  4  1  0
 12 13  2  0
 14 13  1  0
 15 14  1  0
 16 15  2  0
 16 12  1  0
 17 15  1  0
 18 17  2  0
  6 19  1  0
  7 20  1  0
 10 21  1  0
 17 22  1  0
M  ISO  4  19  14  20  14  21  14  22   6
M  END
>  <minimizedAffinity>  (1) 
-4.25572538

>  <minimizedRMSD>  (1) 
4.17788839

$$$$
