
     RDKit          3D

 41 44  0  0  1  0  0  0  0  0999 V2000
   40.0400   32.1380   41.0850 C   0  0  0  0  0  0  0  0  0  0  0  0
   39.6270   30.8650   41.5650 C   0  0  0  0  0  0  0  0  0  0  0  0
   38.3020   30.5390   41.4490 C   0  0  0  0  0  0  0  0  0  0  0  0
   37.4320   31.4410   40.8840 N   0  0  0  0  0  0  0  0  0  0  0  0
   37.8530   32.6510   40.4340 C   0  0  0  0  0  0  0  0  0  0  0  0
   39.1580   32.9970   40.5350 N   0  0  0  0  0  0  0  0  0  0  0  0
   36.9090   33.5420   39.8580 N   0  0  0  0  0  0  0  0  0  0  0  0
   37.8050   29.3040   41.8970 N   0  0  0  0  0  0  0  0  0  0  0  0
   37.9460   28.9320   43.2860 C   0  0  0  0  0  0  0  0  0  0  0  0
   36.8660   27.8800   43.5800 C   0  0  0  0  0  0  0  0  0  0  0  0
   36.9260   26.7350   42.7300 N   0  0  0  0  0  0  0  0  0  0  0  0
   37.4430   26.9800   41.4260 C   0  0  0  0  0  0  0  0  0  0  0  0
   37.1500   28.3900   40.9870 C   0  0  2  0  0  0  0  0  0  0  0  0
   37.4510   28.6270   39.5640 C   0  0  0  0  0  0  0  0  0  0  0  0
   36.4550   29.1120   38.7070 C   0  0  0  0  0  0  0  0  0  0  0  0
   36.6550   29.3580   37.3740 C   0  0  0  0  0  0  0  0  0  0  0  0
   37.8980   29.1000   36.9220 N   0  0  0  0  0  0  0  0  0  0  0  0
   38.8660   28.6350   37.7260 C   0  0  0  0  0  0  0  0  0  0  0  0
   38.6800   28.3880   39.0490 N   0  0  0  0  0  0  0  0  0  0  0  0
   40.2130   28.3560   37.2300 C   0  0  0  0  0  0  0  0  0  0  0  0
   41.1860   29.3590   37.1670 C   0  0  0  0  0  0  0  0  0  0  0  0
   42.3270   28.7540   36.6580 C   0  0  0  0  0  0  0  0  0  0  0  0
   42.0450   27.4570   36.4310 N   0  0  0  0  0  0  0  0  0  0  0  0
   40.7820   27.2060   36.7710 N   0  0  0  0  0  0  0  0  0  0  0  0
   41.0983   32.4274   41.1637 H   0  0  0  0  0  0  0  0  0  0  0  0
   40.3474   30.1656   42.0143 H   0  0  0  0  0  0  0  0  0  0  0  0
   35.9188   33.2676   39.7866 H   0  0  0  0  0  0  0  0  0  0  0  0
   37.2145   34.4626   39.5116 H   0  0  0  0  0  0  0  0  0  0  0  0
   38.9452   28.5078   43.4641 H   0  0  0  0  0  0  0  0  0  0  0  0
   37.8300   29.8080   43.9411 H   0  0  0  0  0  0  0  0  0  0  0  0
   36.9836   27.5448   44.6211 H   0  0  0  0  0  0  0  0  0  0  0  0
   35.8939   28.3616   43.3980 H   0  0  0  0  0  0  0  0  0  0  0  0
   37.5251   26.0309   43.1842 H   0  0  0  0  0  0  0  0  0  0  0  0
   38.5320   26.8249   41.4355 H   0  0  0  0  0  0  0  0  0  0  0  0
   36.9617   26.2858   40.7214 H   0  0  0  0  0  0  0  0  0  0  0  0
   36.0668   28.5730   41.0442 H   0  0  0  0  0  0  0  0  0  0  0  0
   35.4572   29.3061   39.1273 H   0  0  0  0  0  0  0  0  0  0  0  0
   35.8575   29.7391   36.7192 H   0  0  0  0  0  0  0  0  0  0  0  0
   41.0705   30.4127   37.4610 H   0  0  0  0  0  0  0  0  0  0  0  0
   43.2924   29.2476   36.4726 H   0  0  0  0  0  0  0  0  0  0  0  0
   42.7060   26.7640   36.0518 H   0  0  0  0  0  0  0  0  0  0  0  0
  1  2  2  0
  3  2  1  0
  3  8  1  0
  4  3  2  0
  5  6  2  0
  5  4  1  0
  6  1  1  0
  7  5  1  0
  8  9  1  0
  9 10  1  0
 11 10  1  0
 12 11  1  0
 13 12  1  0
 13  8  1  0
 14 13  1  0
 15 14  2  0
 16 15  1  0
 17 16  2  0
 17 18  1  0
 18 19  2  0
 19 14  1  0
 20 18  1  0
 21 20  1  0
 22 21  2  0
 23 22  1  0
 23 24  1  0
 24 20  2  0
  1 25  1  0
  2 26  1  0
  7 27  1  0
  7 28  1  0
  9 29  1  0
  9 30  1  0
 10 31  1  0
 10 32  1  0
 11 33  1  0
 12 34  1  0
 12 35  1  0
 13 36  1  6
 15 37  1  0
 16 38  1  0
 21 39  1  0
 22 40  1  0
 23 41  1  0
M  ISO  8  25  14  26  14  29  13  30  13  31  13  32  13  33   5  34  13
M  ISO  7  35  13  36  13  37  14  38  14  39  14  40  14  41   9
M  END
>  <minimizedAffinity>  (1) 
-5.68702745

>  <minimizedRMSD>  (1) 
1.20113981

$$$$
