
     RDKit          3D

 30 33  0  0  0  0  0  0  0  0999 V2000
   34.7910   29.1210   37.2820 C   0  0  0  0  0  0  0  0  0  0  0  0
   36.0160   29.6180   36.9950 N   0  0  0  0  0  0  0  0  0  0  0  0
   36.7670   29.5580   38.0660 O   0  0  0  0  0  0  0  0  0  0  0  0
   36.0900   29.0360   39.0630 C   0  0  0  0  0  0  0  0  0  0  0  0
   34.8730   28.7660   38.5810 N   0  0  0  0  0  0  0  0  0  0  0  0
   31.2770   29.1410   35.9240 C   0  0  0  0  0  0  0  0  0  0  0  0
   32.3220   29.4240   36.7890 C   0  0  0  0  0  0  0  0  0  0  0  0
   33.5730   28.9360   36.5060 C   0  0  0  0  0  0  0  0  0  0  0  0
   33.7330   28.1830   35.3680 N   0  0  0  0  0  0  0  0  0  0  0  0
   32.6740   27.9360   34.5530 C   0  0  0  0  0  0  0  0  0  0  0  0
   31.4540   28.4000   34.8110 N   0  0  0  0  0  0  0  0  0  0  0  0
   36.5460   28.7930   40.4180 C   0  0  0  0  0  0  0  0  0  0  0  0
   35.8250   28.3450   41.4510 N   0  0  0  0  0  0  0  0  0  0  0  0
   36.5750   28.2550   42.5020 O   0  0  0  0  0  0  0  0  0  0  0  0
   37.8080   28.6390   42.2030 C   0  0  0  0  0  0  0  0  0  0  0  0
   37.8000   28.9780   40.9000 N   0  0  0  0  0  0  0  0  0  0  0  0
   39.0190   28.7090   43.0810 C   0  0  0  0  0  0  0  0  0  0  0  0
   39.9030   27.5180   42.9120 C   0  0  0  0  0  0  0  0  0  0  0  0
   39.8240   26.5110   44.0380 C   0  0  0  0  0  0  0  0  0  0  0  0
   41.0760   27.2970   43.7960 C   0  0  0  0  0  0  0  0  0  0  0  0
   30.2743   29.5319   36.1516 H   0  0  0  0  0  0  0  0  0  0  0  0
   32.1511   30.0314   37.6900 H   0  0  0  0  0  0  0  0  0  0  0  0
   32.8310   27.3310   33.6479 H   0  0  0  0  0  0  0  0  0  0  0  0
   39.5902   29.6140   42.8264 H   0  0  0  0  0  0  0  0  0  0  0  0
   38.6790   28.7336   44.1268 H   0  0  0  0  0  0  0  0  0  0  0  0
   39.7935   27.5306   41.8175 H   0  0  0  0  0  0  0  0  0  0  0  0
   39.2036   26.7187   44.9223 H   0  0  0  0  0  0  0  0  0  0  0  0
   39.5731   25.4429   44.1170 H   0  0  0  0  0  0  0  0  0  0  0  0
   41.9711   26.7933   43.4022 H   0  0  0  0  0  0  0  0  0  0  0  0
   41.7105   27.9487   44.4147 H   0  0  0  0  0  0  0  0  0  0  0  0
  1  5  1  0
  2  1  2  0
  2  3  1  0
  3  4  1  0
  4 12  1  0
  5  4  2  0
  6  7  2  0
  8  7  1  0
  8  1  1  0
  9  8  2  0
 10 11  2  0
 10  9  1  0
 11  6  1  0
 12 16  1  0
 12 13  2  0
 13 14  1  0
 15 14  1  0
 15 17  1  0
 16 15  2  0
 18 17  1  0
 18 20  1  0
 18 19  1  0
 20 19  1  0
  6 21  1  0
  7 22  1  0
 10 23  1  0
 17 24  1  0
 17 25  1  0
 18 26  1  0
 19 27  1  0
 19 28  1  0
 20 29  1  0
 20 30  1  0
M  ISO  8  21  14  22  14  23  14  24   8  25   8  26  13  27  13  28  13
M  ISO  2  29  13  30  13
M  END
>  <minimizedAffinity>  (1) 
-4.01747036

>  <minimizedRMSD>  (1) 
3.2276516

$$$$
