
     RDKit          3D

 36 39  0  0  0  0  0  0  0  0999 V2000
   35.8720   26.6970   37.1460 C   0  0  0  0  0  0  0  0  0  0  0  0
   34.9750   25.7980   37.6080 N   0  0  0  0  0  0  0  0  0  0  0  0
   35.5410   25.0580   38.5250 O   0  0  0  0  0  0  0  0  0  0  0  0
   36.7930   25.4280   38.6990 C   0  0  0  0  0  0  0  0  0  0  0  0
   37.0030   26.4380   37.8500 N   0  0  0  0  0  0  0  0  0  0  0  0
   36.6400   29.2840   34.5070 C   0  0  0  0  0  0  0  0  0  0  0  0
   36.8850   28.2630   35.4190 C   0  0  0  0  0  0  0  0  0  0  0  0
   35.8300   27.7670   36.1370 C   0  0  0  0  0  0  0  0  0  0  0  0
   34.5790   28.2920   35.9300 N   0  0  0  0  0  0  0  0  0  0  0  0
   34.3820   29.2880   35.0290 C   0  0  0  0  0  0  0  0  0  0  0  0
   35.4180   29.7750   34.3250 N   0  0  0  0  0  0  0  0  0  0  0  0
   37.7590   24.8650   39.6180 C   0  0  0  0  0  0  0  0  0  0  0  0
   38.6900   23.9510   39.3710 N   0  0  0  0  0  0  0  0  0  0  0  0
   39.3530   23.7180   40.4750 O   0  0  0  0  0  0  0  0  0  0  0  0
   38.8930   24.4490   41.4610 C   0  0  0  0  0  0  0  0  0  0  0  0
   37.8870   25.1780   40.9360 N   0  0  0  0  0  0  0  0  0  0  0  0
   39.3540   24.4930   42.8670 C   0  0  0  0  0  0  0  0  0  0  0  0
   40.3380   25.5360   43.0880 N   0  0  0  0  0  0  0  0  0  0  0  0
   40.7040   26.1790   41.8480 C   0  0  0  0  0  0  0  0  0  0  0  0
   41.0740   27.6180   41.9740 C   0  0  0  0  0  0  0  0  0  0  0  0
   40.3060   28.3530   42.8440 O   0  0  0  0  0  0  0  0  0  0  0  0
   39.2120   27.6200   43.2680 C   0  0  0  0  0  0  0  0  0  0  0  0
   39.7580   26.4470   44.0520 C   0  0  0  0  0  0  0  0  0  0  0  0
   37.4766   29.6948   33.9228 H   0  0  0  0  0  0  0  0  0  0  0  0
   37.9004   27.8642   35.5599 H   0  0  0  0  0  0  0  0  0  0  0  0
   33.3726   29.6972   34.8748 H   0  0  0  0  0  0  0  0  0  0  0  0
   38.4875   24.6795   43.5184 H   0  0  0  0  0  0  0  0  0  0  0  0
   39.8274   23.5273   43.0979 H   0  0  0  0  0  0  0  0  0  0  0  0
   39.8497   26.1046   41.1590 H   0  0  0  0  0  0  0  0  0  0  0  0
   41.6026   25.6595   41.4838 H   0  0  0  0  0  0  0  0  0  0  0  0
   42.1180   27.6705   42.3164 H   0  0  0  0  0  0  0  0  0  0  0  0
   40.9100   28.0597   40.9800 H   0  0  0  0  0  0  0  0  0  0  0  0
   38.5661   28.2378   43.9091 H   0  0  0  0  0  0  0  0  0  0  0  0
   38.6060   27.2806   42.4150 H   0  0  0  0  0  0  0  0  0  0  0  0
   38.9469   25.9492   44.6036 H   0  0  0  0  0  0  0  0  0  0  0  0
   40.5081   26.7765   44.7860 H   0  0  0  0  0  0  0  0  0  0  0  0
  1  2  2  0
  1  5  1  0
  2  3  1  0
  3  4  1  0
  4 12  1  0
  5  4  2  0
  6  7  2  0
  7  8  1  0
  8  1  1  0
  9  8  2  0
 10  9  1  0
 11  6  1  0
 11 10  2  0
 12 16  1  0
 13 12  2  0
 13 14  1  0
 14 15  1  0
 15 17  1  0
 16 15  2  0
 17 18  1  0
 18 23  1  0
 19 20  1  0
 19 18  1  0
 20 21  1  0
 21 22  1  0
 22 23  1  0
  6 24  1  0
  7 25  1  0
 10 26  1  0
 17 27  1  0
 17 28  1  0
 19 29  1  0
 19 30  1  0
 20 31  1  0
 20 32  1  0
 22 33  1  0
 22 34  1  0
 23 35  1  0
 23 36  1  0
M  ISO  8  24  14  25  14  26  14  27   8  28   8  29  13  30  13  31  13
M  ISO  5  32  13  33  13  34  13  35  13  36  13
M  END
>  <minimizedAffinity>  (1) 
-3.68098402

>  <minimizedRMSD>  (1) 
3.59589601

$$$$
