
     RDKit          3D

 25 27  0  0  0  0  0  0  0  0999 V2000
   36.0310   27.0250   37.4350 C   0  0  0  0  0  0  0  0  0  0  0  0
   35.7360   25.7020   37.6070 N   0  0  0  0  0  0  0  0  0  0  0  0
   36.0440   25.3640   38.8380 O   0  0  0  0  0  0  0  0  0  0  0  0
   36.5270   26.4000   39.4830 C   0  0  0  0  0  0  0  0  0  0  0  0
   36.5250   27.4330   38.6280 N   0  0  0  0  0  0  0  0  0  0  0  0
   36.6110   29.2060   34.4070 C   0  0  0  0  0  0  0  0  0  0  0  0
   36.9010   28.3330   35.4470 C   0  0  0  0  0  0  0  0  0  0  0  0
   35.9040   27.9320   36.2950 C   0  0  0  0  0  0  0  0  0  0  0  0
   34.6350   28.4160   36.0830 N   0  0  0  0  0  0  0  0  0  0  0  0
   34.3940   29.2670   35.0540 C   0  0  0  0  0  0  0  0  0  0  0  0
   35.3650   29.6570   34.2280 N   0  0  0  0  0  0  0  0  0  0  0  0
   36.9820   26.4380   40.8630 C   0  0  0  0  0  0  0  0  0  0  0  0
   37.7510   25.5320   41.4810 N   0  0  0  0  0  0  0  0  0  0  0  0
   37.9370   25.9220   42.7120 O   0  0  0  0  0  0  0  0  0  0  0  0
   37.3140   27.0630   42.9380 C   0  0  0  0  0  0  0  0  0  0  0  0
   36.7030   27.4000   41.7700 N   0  0  0  0  0  0  0  0  0  0  0  0
   37.2590   27.8560   44.1870 C   0  0  0  0  0  0  0  0  0  0  0  0
   37.3150   29.2770   43.8180 N   0  0  0  0  0  0  0  0  0  0  0  0
   37.4119   29.5289   33.7256 H   0  0  0  0  0  0  0  0  0  0  0  0
   37.9279   27.9650   35.5890 H   0  0  0  0  0  0  0  0  0  0  0  0
   33.3726   29.6443   34.8976 H   0  0  0  0  0  0  0  0  0  0  0  0
   36.3221   27.6451   44.7235 H   0  0  0  0  0  0  0  0  0  0  0  0
   38.1010   27.5959   44.8453 H   0  0  0  0  0  0  0  0  0  0  0  0
   37.3377   29.8528   44.6717 H   0  0  0  0  0  0  0  0  0  0  0  0
   38.1636   29.4541   43.2618 H   0  0  0  0  0  0  0  0  0  0  0  0
  1  2  2  0
  1  5  1  0
  2  3  1  0
  3  4  1  0
  4 12  1  0
  5  4  2  0
  6  7  2  0
  7  8  1  0
  8  1  1  0
  9  8  2  0
 10  9  1  0
 11  6  1  0
 11 10  2  0
 12 13  2  0
 12 16  1  0
 13 14  1  0
 14 15  1  0
 15 17  1  0
 16 15  2  0
 18 17  1  0
  6 19  1  0
  7 20  1  0
 10 21  1  0
 17 22  1  0
 17 23  1  0
 18 24  1  0
 18 25  1  0
M  ISO  7  19  14  20  14  21  14  22   8  23   8  24   5  25   5
M  END
>  <minimizedAffinity>  (1) 
-3.89284945

>  <minimizedRMSD>  (1) 
1.16448808

$$$$
