
     RDKit          3D

 32 35  0  0  0  0  0  0  0  0999 V2000
   38.1480   25.6210   42.1610 C   0  0  0  0  0  0  0  0  0  0  0  0
   39.1500   25.5790   43.0490 N   0  0  0  0  0  0  0  0  0  0  0  0
   39.2700   26.7690   43.5730 O   0  0  0  0  0  0  0  0  0  0  0  0
   38.3830   27.6040   43.0680 C   0  0  0  0  0  0  0  0  0  0  0  0
   37.6520   26.8870   42.1600 N   0  0  0  0  0  0  0  0  0  0  0  0
   36.4250   23.3230   39.9780 C   0  0  0  0  0  0  0  0  0  0  0  0
   37.5060   22.5990   40.3910 N   0  0  0  0  0  0  0  0  0  0  0  0
   38.2210   23.3410   41.2030 O   0  0  0  0  0  0  0  0  0  0  0  0
   37.6620   24.5220   41.3470 C   0  0  0  0  0  0  0  0  0  0  0  0
   36.5530   24.5330   40.5980 N   0  0  0  0  0  0  0  0  0  0  0  0
   33.5800   21.7340   38.0700 C   0  0  0  0  0  0  0  0  0  0  0  0
   34.6330   21.8550   38.9660 C   0  0  0  0  0  0  0  0  0  0  0  0
   35.3080   23.0340   39.0940 C   0  0  0  0  0  0  0  0  0  0  0  0
   34.9030   24.0770   38.3080 N   0  0  0  0  0  0  0  0  0  0  0  0
   33.8670   23.9340   37.4360 C   0  0  0  0  0  0  0  0  0  0  0  0
   33.2250   22.7830   37.3260 N   0  0  0  0  0  0  0  0  0  0  0  0
   38.1870   29.0240   43.3880 C   0  0  0  0  0  0  0  0  0  0  0  0
   36.9080   29.4410   42.8040 N   0  0  0  0  0  0  0  0  0  0  0  0
   37.0010   30.2890   41.6380 C   0  0  0  0  0  0  0  0  0  0  0  0
   36.2040   30.7920   40.5970 C   0  0  0  0  0  0  0  0  0  0  0  0
   36.8660   31.5680   39.6890 C   0  0  0  0  0  0  0  0  0  0  0  0
   38.1890   31.8240   39.8000 C   0  0  0  0  0  0  0  0  0  0  0  0
   38.6820   30.9220   41.3230 S   0  0  0  0  0  0  0  0  0  0  0  0
   33.0417   20.7795   37.9739 H   0  0  0  0  0  0  0  0  0  0  0  0
   34.9267   20.9908   39.5799 H   0  0  0  0  0  0  0  0  0  0  0  0
   33.5597   24.7879   36.8143 H   0  0  0  0  0  0  0  0  0  0  0  0
   38.1633   29.1622   44.4790 H   0  0  0  0  0  0  0  0  0  0  0  0
   39.0113   29.6278   42.9806 H   0  0  0  0  0  0  0  0  0  0  0  0
   36.0029   29.1485   43.1991 H   0  0  0  0  0  0  0  0  0  0  0  0
   35.1280   30.5772   40.5189 H   0  0  0  0  0  0  0  0  0  0  0  0
   36.3074   31.9967   38.8439 H   0  0  0  0  0  0  0  0  0  0  0  0
   38.8216   32.4300   39.1347 H   0  0  0  0  0  0  0  0  0  0  0  0
  1  2  2  0
  2  3  1  0
  4 17  1  0
  4  3  1  0
  5  1  1  0
  5  4  2  0
  6  7  2  0
  6 10  1  0
  7  8  1  0
  8  9  1  0
  9  1  1  0
 10  9  2  0
 11 12  2  0
 12 13  1  0
 13  6  1  0
 14 13  2  0
 15 14  1  0
 16 15  2  0
 16 11  1  0
 18 17  1  0
 19 18  1  0
 20 19  2  0
 21 22  2  0
 21 20  1  0
 22 23  1  0
 23 19  1  0
 11 24  1  0
 12 25  1  0
 15 26  1  0
 17 27  1  0
 17 28  1  0
 18 29  1  0
 20 30  1  0
 21 31  1  0
 22 32  1  0
M  ISO  8  24  14  25  14  26  14  27   8  28   8  30  14  31  14  32  14
M  END
>  <minimizedAffinity>  (1) 
-4.83018208

>  <minimizedRMSD>  (1) 
4.71627235

$$$$
