
     RDKit          3D

 31 34  0  0  0  0  0  0  0  0999 V2000
   36.8370   26.4130   40.6850 C   0  0  0  0  0  0  0  0  0  0  0  0
   37.3960   25.4280   41.3810 N   0  0  0  0  0  0  0  0  0  0  0  0
   37.5720   25.8330   42.6080 O   0  0  0  0  0  0  0  0  0  0  0  0
   37.1490   27.0610   42.7600 C   0  0  0  0  0  0  0  0  0  0  0  0
   36.6850   27.4290   41.5480 N   0  0  0  0  0  0  0  0  0  0  0  0
   36.0310   27.0680   37.2290 C   0  0  0  0  0  0  0  0  0  0  0  0
   35.8090   25.7220   37.3530 N   0  0  0  0  0  0  0  0  0  0  0  0
   36.0720   25.3630   38.5840 O   0  0  0  0  0  0  0  0  0  0  0  0
   36.4600   26.4140   39.2840 C   0  0  0  0  0  0  0  0  0  0  0  0
   36.4390   27.4660   38.4610 N   0  0  0  0  0  0  0  0  0  0  0  0
   36.6160   29.3040   34.2590 C   0  0  0  0  0  0  0  0  0  0  0  0
   36.9040   28.4030   35.2700 C   0  0  0  0  0  0  0  0  0  0  0  0
   35.9080   28.0050   36.1130 C   0  0  0  0  0  0  0  0  0  0  0  0
   34.6330   28.5080   35.9420 N   0  0  0  0  0  0  0  0  0  0  0  0
   34.4000   29.3960   34.9280 C   0  0  0  0  0  0  0  0  0  0  0  0
   35.3720   29.7880   34.1010 N   0  0  0  0  0  0  0  0  0  0  0  0
   37.1650   27.8890   43.9830 C   0  0  0  0  0  0  0  0  0  0  0  0
   37.5020   29.2510   43.6070 N   0  0  0  0  0  0  0  0  0  0  0  0
   38.6450   29.5450   42.7930 C   0  0  0  0  0  0  0  0  0  0  0  0
   38.5200   30.5400   41.6980 C   0  0  0  0  0  0  0  0  0  0  0  0
   40.3140   30.4380   41.0850 S   0  0  0  0  0  0  0  0  0  0  0  0
   40.8120   29.1380   42.3790 C   0  0  0  0  0  0  0  0  0  0  0  0
   39.7430   28.8980   43.0920 N   0  0  0  0  0  0  0  0  0  0  0  0
   37.4154   29.6279   33.5763 H   0  0  0  0  0  0  0  0  0  0  0  0
   37.9250   28.0123   35.3922 H   0  0  0  0  0  0  0  0  0  0  0  0
   33.3852   29.7976   34.7904 H   0  0  0  0  0  0  0  0  0  0  0  0
   36.1734   27.8690   44.4588 H   0  0  0  0  0  0  0  0  0  0  0  0
   37.9060   27.4981   44.6958 H   0  0  0  0  0  0  0  0  0  0  0  0
   36.9052   30.0245   43.9332 H   0  0  0  0  0  0  0  0  0  0  0  0
   37.6655   31.1411   41.3537 H   0  0  0  0  0  0  0  0  0  0  0  0
   41.8037   28.6785   42.5033 H   0  0  0  0  0  0  0  0  0  0  0  0
  1  2  2  0
  1  5  1  0
  2  3  1  0
  3  4  1  0
  4 17  1  0
  5  4  2  0
  6  7  2  0
  6 10  1  0
  7  8  1  0
  8  9  1  0
  9  1  1  0
 10  9  2  0
 11 12  2  0
 12 13  1  0
 13  6  1  0
 14 13  2  0
 15 14  1  0
 16 11  1  0
 16 15  2  0
 18 17  1  0
 19 23  1  0
 19 18  1  0
 20 19  2  0
 21 20  1  0
 21 22  1  0
 22 23  2  0
 11 24  1  0
 12 25  1  0
 15 26  1  0
 17 27  1  0
 17 28  1  0
 18 29  1  0
 20 30  1  0
 22 31  1  0
M  ISO  7  24  14  25  14  26  14  27   8  28   8  30  14  31  14
M  END
>  <minimizedAffinity>  (1) 
-4.31140089

>  <minimizedRMSD>  (1) 
0.419532567

$$$$
