
     RDKit          3D

 28 30  0  0  0  0  0  0  0  0999 V2000
   36.9590   26.3010   38.2750 C   0  0  0  0  0  0  0  0  0  0  0  0
   36.5970   25.9160   39.5390 N   0  0  0  0  0  0  0  0  0  0  0  0
   36.4540   26.9930   40.2780 O   0  0  0  0  0  0  0  0  0  0  0  0
   36.7070   28.0690   39.5530 C   0  0  0  0  0  0  0  0  0  0  0  0
   37.0210   27.6570   38.3130 N   0  0  0  0  0  0  0  0  0  0  0  0
   38.4770   24.1020   35.6030 C   0  0  0  0  0  0  0  0  0  0  0  0
   38.3390   24.7520   36.8210 C   0  0  0  0  0  0  0  0  0  0  0  0
   37.2490   25.5530   37.0560 C   0  0  0  0  0  0  0  0  0  0  0  0
   36.3250   25.6830   36.0620 N   0  0  0  0  0  0  0  0  0  0  0  0
   36.4980   25.0270   34.8830 C   0  0  0  0  0  0  0  0  0  0  0  0
   37.5530   24.2550   34.6630 N   0  0  0  0  0  0  0  0  0  0  0  0
   36.6560   29.4520   40.0100 C   0  0  0  0  0  0  0  0  0  0  0  0
   36.1080   29.9160   41.1330 N   0  0  0  0  0  0  0  0  0  0  0  0
   36.2780   31.2140   41.1660 O   0  0  0  0  0  0  0  0  0  0  0  0
   36.9230   31.6270   40.0990 C   0  0  0  0  0  0  0  0  0  0  0  0
   37.1750   30.5190   39.3480 N   0  0  0  0  0  0  0  0  0  0  0  0
   37.3140   33.0010   39.7470 C   0  0  0  0  0  0  0  0  0  0  0  0
   38.2540   33.4840   40.7700 N   0  0  0  0  0  0  0  0  0  0  0  0
   38.9050   34.7140   40.3600 C   0  0  0  0  0  0  0  0  0  0  0  0
   39.1850   35.4530   41.4930 F   0  0  0  0  0  0  0  0  0  0  0  0
   38.0010   35.4910   39.6220 F   0  0  0  0  0  0  0  0  0  0  0  0
   39.9880   34.4960   39.5620 F   0  0  0  0  0  0  0  0  0  0  0  0
   39.3511   23.4607   35.4169 H   0  0  0  0  0  0  0  0  0  0  0  0
   39.1049   24.6252   37.6003 H   0  0  0  0  0  0  0  0  0  0  0  0
   35.7427   25.1401   34.0914 H   0  0  0  0  0  0  0  0  0  0  0  0
   37.8000   33.0093   38.7602 H   0  0  0  0  0  0  0  0  0  0  0  0
   36.4277   33.6512   39.7060 H   0  0  0  0  0  0  0  0  0  0  0  0
   37.7373   33.6549   41.6445 H   0  0  0  0  0  0  0  0  0  0  0  0
  1  5  1  0
  1  2  2  0
  2  3  1  0
  4 12  1  0
  4  3  1  0
  5  4  2  0
  6  7  2  0
  7  8  1  0
  8  1  1  0
  9  8  2  0
 10  9  1  0
 11 10  2  0
 11  6  1  0
 12 13  2  0
 13 14  1  0
 15 14  1  0
 16 12  1  0
 16 15  2  0
 17 15  1  0
 17 18  1  0
 19 18  1  0
 19 20  1  0
 21 19  1  0
 22 19  1  0
  6 23  1  0
  7 24  1  0
 10 25  1  0
 17 26  1  0
 17 27  1  0
 18 28  1  0
M  ISO  6  23  14  24  14  25  14  26   8  27   8  28   5
M  END
>  <minimizedAffinity>  (1) 
-4.29473305

>  <minimizedRMSD>  (1) 
4.91342258

$$$$
