
     RDKit          3D

 27 29  0  0  0  0  0  0  0  0999 V2000
   35.9970   27.0080   37.3990 C   0  0  0  0  0  0  0  0  0  0  0  0
   35.7010   25.6980   37.5910 N   0  0  0  0  0  0  0  0  0  0  0  0
   36.0130   25.3610   38.8170 O   0  0  0  0  0  0  0  0  0  0  0  0
   36.5100   26.4060   39.4510 C   0  0  0  0  0  0  0  0  0  0  0  0
   36.5020   27.4190   38.5890 N   0  0  0  0  0  0  0  0  0  0  0  0
   36.5660   29.1740   34.3550 C   0  0  0  0  0  0  0  0  0  0  0  0
   36.8580   28.3040   35.3930 C   0  0  0  0  0  0  0  0  0  0  0  0
   35.8680   27.9110   36.2600 C   0  0  0  0  0  0  0  0  0  0  0  0
   34.6150   28.4050   36.0560 N   0  0  0  0  0  0  0  0  0  0  0  0
   34.3560   29.2570   35.0300 C   0  0  0  0  0  0  0  0  0  0  0  0
   35.3180   29.6380   34.1890 N   0  0  0  0  0  0  0  0  0  0  0  0
   36.9740   26.4370   40.8290 C   0  0  0  0  0  0  0  0  0  0  0  0
   37.7770   25.5670   41.4340 N   0  0  0  0  0  0  0  0  0  0  0  0
   37.9490   25.9560   42.6700 O   0  0  0  0  0  0  0  0  0  0  0  0
   37.2740   27.0740   42.9070 C   0  0  0  0  0  0  0  0  0  0  0  0
   36.6520   27.3880   41.7490 N   0  0  0  0  0  0  0  0  0  0  0  0
   37.1960   27.8430   44.1670 C   0  0  0  0  0  0  0  0  0  0  0  0
   37.3160   29.2680   43.8160 N   0  0  0  0  0  0  0  0  0  0  0  0
   38.1620   29.6100   42.7190 C   0  0  0  0  0  0  0  0  0  0  0  0
   39.2630   30.1220   43.1140 O   0  0  0  0  0  0  0  0  0  0  0  0
   37.3620   29.4862   33.6629 H   0  0  0  0  0  0  0  0  0  0  0  0
   37.8835   27.9278   35.5228 H   0  0  0  0  0  0  0  0  0  0  0  0
   33.3341   29.6395   34.8905 H   0  0  0  0  0  0  0  0  0  0  0  0
   36.2319   27.6570   44.6629 H   0  0  0  0  0  0  0  0  0  0  0  0
   37.9974   27.5424   44.8580 H   0  0  0  0  0  0  0  0  0  0  0  0
   36.8075   29.9920   44.3434 H   0  0  0  0  0  0  0  0  0  0  0  0
   37.8981   29.4520   41.6629 H   0  0  0  0  0  0  0  0  0  0  0  0
  1  2  2  0
  1  5  1  0
  2  3  1  0
  3  4  1  0
  4 12  1  0
  5  4  2  0
  6  7  2  0
  7  8  1  0
  8  1  1  0
  9  8  2  0
 10  9  1  0
 11  6  1  0
 11 10  2  0
 12 13  2  0
 12 16  1  0
 13 14  1  0
 14 15  1  0
 15 17  1  0
 16 15  2  0
 18 17  1  0
 19 20  2  0
 19 18  1  0
  6 21  1  0
  7 22  1  0
 10 23  1  0
 17 24  1  0
 17 25  1  0
 18 26  1  0
 19 27  1  0
M  ISO  6  21  14  22  14  23  14  24   8  25   8  27   6
M  END
>  <minimizedAffinity>  (1) 
-4.19072771

>  <minimizedRMSD>  (1) 
0.214819908

$$$$
