
     RDKit          3D

 36 38  0  0  1  0  0  0  0  0999 V2000
   40.0400   31.9820   40.2530 C   0  0  0  0  0  0  0  0  0  0  0  0
   39.6300   30.7790   40.8880 C   0  0  0  0  0  0  0  0  0  0  0  0
   38.2900   30.6130   41.1400 C   0  0  0  0  0  0  0  0  0  0  0  0
   37.4040   31.6010   40.7750 N   0  0  0  0  0  0  0  0  0  0  0  0
   37.8240   32.7390   40.1700 C   0  0  0  0  0  0  0  0  0  0  0  0
   39.1460   32.9350   39.9050 N   0  0  0  0  0  0  0  0  0  0  0  0
   36.8650   33.7240   39.8150 N   0  0  0  0  0  0  0  0  0  0  0  0
   37.7960   29.4600   41.7630 N   0  0  0  0  0  0  0  0  0  0  0  0
   38.2470   29.1020   43.0880 C   0  0  0  0  0  0  0  0  0  0  0  0
   37.1850   28.1860   43.7050 C   0  0  0  0  0  0  0  0  0  0  0  0
   36.8980   27.0330   42.9240 N   0  0  0  0  0  0  0  0  0  0  0  0
   37.0700   27.1790   41.5220 C   0  0  0  0  0  0  0  0  0  0  0  0
   36.8320   28.6060   41.1020 C   0  0  2  0  0  0  0  0  0  0  0  0
   36.7730   28.7740   39.6410 C   0  0  0  0  0  0  0  0  0  0  0  0
   35.5920   29.1830   39.0210 C   0  0  0  0  0  0  0  0  0  0  0  0
   35.4440   29.3650   37.6800 C   0  0  0  0  0  0  0  0  0  0  0  0
   36.5530   29.1160   36.9510 N   0  0  0  0  0  0  0  0  0  0  0  0
   37.6990   28.7220   37.5140 C   0  0  0  0  0  0  0  0  0  0  0  0
   37.8410   28.5430   38.8540 N   0  0  0  0  0  0  0  0  0  0  0  0
   38.7480   28.5130   36.5750 N   0  0  0  0  0  0  0  0  0  0  0  0
   41.1073   32.1416   40.0399 H   0  0  0  0  0  0  0  0  0  0  0  0
   40.3611   30.0065   41.1684 H   0  0  0  0  0  0  0  0  0  0  0  0
   37.1670   34.5945   39.3547 H   0  0  0  0  0  0  0  0  0  0  0  0
   35.8673   33.5681   40.0178 H   0  0  0  0  0  0  0  0  0  0  0  0
   39.2094   28.5729   43.0268 H   0  0  0  0  0  0  0  0  0  0  0  0
   38.3881   30.0016   43.7051 H   0  0  0  0  0  0  0  0  0  0  0  0
   37.5422   27.8564   44.6918 H   0  0  0  0  0  0  0  0  0  0  0  0
   36.2551   28.7703   43.7675 H   0  0  0  0  0  0  0  0  0  0  0  0
   37.5177   26.2739   43.2413 H   0  0  0  0  0  0  0  0  0  0  0  0
   38.0963   26.8895   41.2520 H   0  0  0  0  0  0  0  0  0  0  0  0
   36.3434   26.5331   41.0074 H   0  0  0  0  0  0  0  0  0  0  0  0
   35.8295   28.9170   41.4310 H   0  0  0  0  0  0  0  0  0  0  0  0
   34.7179   29.3719   39.6615 H   0  0  0  0  0  0  0  0  0  0  0  0
   34.4959   29.6893   37.2262 H   0  0  0  0  0  0  0  0  0  0  0  0
   39.6765   28.2075   36.8997 H   0  0  0  0  0  0  0  0  0  0  0  0
   38.5786   28.6673   35.5708 H   0  0  0  0  0  0  0  0  0  0  0  0
  1  2  2  0
  2  3  1  0
  3  8  1  0
  4  3  2  0
  5  4  1  0
  6  5  2  0
  6  1  1  0
  7  5  1  0
  8  9  1  0
  9 10  1  0
 11 10  1  0
 12 11  1  0
 13 12  1  0
 13  8  1  0
 14 13  1  0
 15 14  2  0
 16 15  1  0
 17 18  1  0
 17 16  2  0
 18 19  2  0
 19 14  1  0
 20 18  1  0
  1 21  1  0
  2 22  1  0
  7 23  1  0
  7 24  1  0
  9 25  1  0
  9 26  1  0
 10 27  1  0
 10 28  1  0
 11 29  1  0
 12 30  1  0
 12 31  1  0
 13 32  1  1
 15 33  1  0
 16 34  1  0
 20 35  1  0
 20 36  1  0
M  ISO  8  21  14  22  14  25  13  26  13  27  13  28  13  29   5  30  13
M  ISO  4  31  13  32  13  33  14  34  14
M  END
>  <minimizedAffinity>  (1) 
-5.6404953

>  <minimizedRMSD>  (1) 
0.219001755

$$$$
