
     RDKit          3D

 31 33  0  0  0  0  0  0  0  0999 V2000
   35.7470   27.6760   38.4870 C   0  0  0  0  0  0  0  0  0  0  0  0
   36.0760   26.4980   39.0940 N   0  0  0  0  0  0  0  0  0  0  0  0
   36.7800   26.7670   40.1690 O   0  0  0  0  0  0  0  0  0  0  0  0
   36.9310   28.0640   40.2970 C   0  0  0  0  0  0  0  0  0  0  0  0
   36.2980   28.6390   39.2630 N   0  0  0  0  0  0  0  0  0  0  0  0
   34.4090   29.1480   35.2830 C   0  0  0  0  0  0  0  0  0  0  0  0
   35.2530   28.9670   36.3690 C   0  0  0  0  0  0  0  0  0  0  0  0
   34.9680   27.9960   37.2920 C   0  0  0  0  0  0  0  0  0  0  0  0
   33.8500   27.2200   37.0990 N   0  0  0  0  0  0  0  0  0  0  0  0
   33.0570   27.4300   36.0210 C   0  0  0  0  0  0  0  0  0  0  0  0
   33.3290   28.3760   35.1220 N   0  0  0  0  0  0  0  0  0  0  0  0
   37.6460   28.7660   41.3500 C   0  0  0  0  0  0  0  0  0  0  0  0
   37.4490   28.6430   42.6700 N   0  0  0  0  0  0  0  0  0  0  0  0
   38.2690   29.4550   43.2800 O   0  0  0  0  0  0  0  0  0  0  0  0
   39.0160   30.1080   42.4040 C   0  0  0  0  0  0  0  0  0  0  0  0
   38.6280   29.6770   41.1820 N   0  0  0  0  0  0  0  0  0  0  0  0
   40.1000   31.0880   42.6760 C   0  0  0  0  0  0  0  0  0  0  0  0
   39.7710   32.3070   41.9310 N   0  0  0  0  0  0  0  0  0  0  0  0
   40.8560   32.5170   40.6030 S   0  0  0  0  0  0  0  0  0  0  0  0
   39.9840   32.6600   39.0620 C   0  0  0  0  0  0  0  0  0  0  0  0
   41.8930   31.4650   40.5030 O   0  0  0  0  0  0  0  0  0  0  0  0
   41.5530   33.8410   40.8300 O   0  0  0  0  0  0  0  0  0  0  0  0
   34.6304   29.9347   34.5467 H   0  0  0  0  0  0  0  0  0  0  0  0
   36.1453   29.5992   36.4881 H   0  0  0  0  0  0  0  0  0  0  0  0
   32.1640   26.8026   35.8837 H   0  0  0  0  0  0  0  0  0  0  0  0
   40.1514   31.3055   43.7531 H   0  0  0  0  0  0  0  0  0  0  0  0
   41.0772   30.6894   42.3657 H   0  0  0  0  0  0  0  0  0  0  0  0
   38.8076   32.2360   41.5735 H   0  0  0  0  0  0  0  0  0  0  0  0
   38.9162   32.8351   39.2598 H   0  0  0  0  0  0  0  0  0  0  0  0
   40.3933   33.5030   38.4860 H   0  0  0  0  0  0  0  0  0  0  0  0
   40.1026   31.7304   38.4860 H   0  0  0  0  0  0  0  0  0  0  0  0
  1  2  2  0
  1  5  1  0
  2  3  1  0
  3  4  1  0
  4 12  1  0
  5  4  2  0
  6  7  2  0
  7  8  1  0
  8  1  1  0
  9  8  2  0
 10  9  1  0
 11  6  1  0
 11 10  2  0
 12 13  2  0
 13 14  1  0
 15 17  1  0
 15 14  1  0
 16 12  1  0
 16 15  2  0
 18 17  1  0
 19 22  2  0
 19 18  1  0
 20 19  1  0
 21 19  2  0
  6 23  1  0
  7 24  1  0
 10 25  1  0
 17 26  1  0
 17 27  1  0
 18 28  1  0
 20 29  1  0
 20 30  1  0
 20 31  1  0
M  ISO  8  23  14  24  14  25  14  26   8  27   8  28   5  29   8  30   8
M  ISO  1  31   8
M  END
>  <minimizedAffinity>  (1) 
-3.96328664

>  <minimizedRMSD>  (1) 
3.19583058

$$$$
