
     RDKit          3D

 40 43  0  0  1  0  0  0  0  0999 V2000
   39.9960   32.1450   41.2500 C   0  0  0  0  0  0  0  0  0  0  0  0
   39.5970   30.8600   41.7170 C   0  0  0  0  0  0  0  0  0  0  0  0
   38.2940   30.4980   41.5310 C   0  0  0  0  0  0  0  0  0  0  0  0
   37.4330   31.3740   40.9120 N   0  0  0  0  0  0  0  0  0  0  0  0
   37.8360   32.5900   40.4780 C   0  0  0  0  0  0  0  0  0  0  0  0
   39.1190   32.9790   40.6450 N   0  0  0  0  0  0  0  0  0  0  0  0
   36.8930   33.4470   39.8450 N   0  0  0  0  0  0  0  0  0  0  0  0
   37.8000   29.2540   41.9540 N   0  0  0  0  0  0  0  0  0  0  0  0
   37.8720   28.8950   43.3560 C   0  0  0  0  0  0  0  0  0  0  0  0
   36.8100   27.8170   43.6020 C   0  0  0  0  0  0  0  0  0  0  0  0
   36.9440   26.6700   42.7670 N   0  0  0  0  0  0  0  0  0  0  0  0
   37.5230   26.9160   41.4880 C   0  0  0  0  0  0  0  0  0  0  0  0
   37.2160   28.3140   41.0210 C   0  0  2  0  0  0  0  0  0  0  0  0
   37.5990   28.5460   39.6220 C   0  0  0  0  0  0  0  0  0  0  0  0
   36.6510   28.9930   38.6950 C   0  0  0  0  0  0  0  0  0  0  0  0
   36.9120   29.2360   37.3790 C   0  0  0  0  0  0  0  0  0  0  0  0
   38.1810   29.0150   36.9970 N   0  0  0  0  0  0  0  0  0  0  0  0
   39.1170   28.5850   37.8630 C   0  0  0  0  0  0  0  0  0  0  0  0
   38.8490   28.3460   39.1700 N   0  0  0  0  0  0  0  0  0  0  0  0
   40.4450   28.3960   37.2840 C   0  0  0  0  0  0  0  0  0  0  0  0
   41.0150   27.1010   36.9370 C   0  0  0  0  0  0  0  0  0  0  0  0
   42.6580   27.5730   36.2770 S   0  0  0  0  0  0  0  0  0  0  0  0
   42.3280   29.3680   36.5630 C   0  0  0  0  0  0  0  0  0  0  0  0
   41.2260   29.4310   37.0360 N   0  0  0  0  0  0  0  0  0  0  0  0
   41.0395   32.4663   41.3840 H   0  0  0  0  0  0  0  0  0  0  0  0
   40.3121   30.1845   42.2092 H   0  0  0  0  0  0  0  0  0  0  0  0
   35.9177   33.1390   39.7235 H   0  0  0  0  0  0  0  0  0  0  0  0
   37.1857   34.3753   39.5083 H   0  0  0  0  0  0  0  0  0  0  0  0
   38.8712   28.5011   43.5935 H   0  0  0  0  0  0  0  0  0  0  0  0
   37.6929   29.7730   43.9940 H   0  0  0  0  0  0  0  0  0  0  0  0
   36.8833   27.4921   44.6504 H   0  0  0  0  0  0  0  0  0  0  0  0
   35.8359   28.2703   43.3661 H   0  0  0  0  0  0  0  0  0  0  0  0
   37.5359   25.9852   43.2585 H   0  0  0  0  0  0  0  0  0  0  0  0
   38.6137   26.7900   41.5558 H   0  0  0  0  0  0  0  0  0  0  0  0
   37.0987   26.2025   40.7663 H   0  0  0  0  0  0  0  0  0  0  0  0
   36.1266   28.4661   41.0180 H   0  0  0  0  0  0  0  0  0  0  0  0
   35.6242   29.1599   39.0527 H   0  0  0  0  0  0  0  0  0  0  0  0
   36.1389   29.5878   36.6800 H   0  0  0  0  0  0  0  0  0  0  0  0
   40.5734   26.0992   37.0436 H   0  0  0  0  0  0  0  0  0  0  0  0
   43.0035   30.2082   36.3445 H   0  0  0  0  0  0  0  0  0  0  0  0
  1  2  2  0
  3  2  1  0
  3  8  1  0
  4  3  2  0
  5  6  2  0
  5  4  1  0
  6  1  1  0
  7  5  1  0
  8  9  1  0
  9 10  1  0
 11 10  1  0
 12 11  1  0
 13 12  1  0
 13  8  1  0
 14 13  1  0
 15 14  2  0
 16 15  1  0
 17 16  2  0
 17 18  1  0
 18 19  2  0
 19 14  1  0
 20 18  1  0
 21 20  2  0
 22 23  1  0
 22 21  1  0
 23 24  2  0
 24 20  1  0
  1 25  1  0
  2 26  1  0
  7 27  1  0
  7 28  1  0
  9 29  1  0
  9 30  1  0
 10 31  1  0
 10 32  1  0
 11 33  1  0
 12 34  1  0
 12 35  1  0
 13 36  1  6
 15 37  1  0
 16 38  1  0
 21 39  1  0
 23 40  1  0
M  ISO  8  25  14  26  14  29  13  30  13  31  13  32  13  33   5  34  13
M  ISO  6  35  13  36  13  37  14  38  14  39  14  40  14
M  END
>  <minimizedAffinity>  (1) 
-5.63007736

>  <minimizedRMSD>  (1) 
1.42381787

$$$$
