
     RDKit          3D

 22 23  0  0  0  0  0  0  0  0999 V2000
   37.3210   28.1220   39.7990 C   0  0  0  0  0  0  0  0  0  0  0  0
   38.4760   28.3830   39.3230 O   0  0  0  0  0  0  0  0  0  0  0  0
   36.1850   27.9000   38.9640 C   0  0  0  0  0  0  0  0  0  0  0  0
   35.2000   28.9110   38.9750 C   0  0  0  0  0  0  0  0  0  0  0  0
   34.0580   28.7910   38.2030 C   0  0  0  0  0  0  0  0  0  0  0  0
   33.9390   27.6660   37.4440 N   0  0  0  0  0  0  0  0  0  0  0  0
   34.8830   26.7080   37.4380 C   0  0  0  0  0  0  0  0  0  0  0  0
   35.9750   26.8270   38.1810 N   0  0  0  0  0  0  0  0  0  0  0  0
   37.2690   28.0730   41.2620 C   0  0  0  0  0  0  0  0  0  0  0  0
   36.5370   27.2280   42.0830 C   0  0  0  0  0  0  0  0  0  0  0  0
   36.5560   27.3070   43.4410 C   0  0  0  0  0  0  0  0  0  0  0  0
   37.3060   28.2360   44.1030 C   0  0  0  0  0  0  0  0  0  0  0  0
   38.0610   29.1110   43.3600 C   0  0  0  0  0  0  0  0  0  0  0  0
   38.0130   28.9970   41.9910 C   0  0  0  0  0  0  0  0  0  0  0  0
   35.3416   29.8027   39.6033 H   0  0  0  0  0  0  0  0  0  0  0  0
   33.2808   29.5694   38.2022 H   0  0  0  0  0  0  0  0  0  0  0  0
   34.7477   25.8154   36.8095 H   0  0  0  0  0  0  0  0  0  0  0  0
   35.9102   26.4559   41.6129 H   0  0  0  0  0  0  0  0  0  0  0  0
   35.9478   26.5999   44.0241 H   0  0  0  0  0  0  0  0  0  0  0  0
   37.3058   28.2827   45.2020 H   0  0  0  0  0  0  0  0  0  0  0  0
   38.6834   29.8776   43.8447 H   0  0  0  0  0  0  0  0  0  0  0  0
   38.6235   29.7068   41.4135 H   0  0  0  0  0  0  0  0  0  0  0  0
  1  9  1  0
  2  1  2  0
  3  4  2  0
  3  1  1  0
  5  4  1  0
  6  5  2  0
  7  6  1  0
  7  8  2  0
  8  3  1  0
  9 14  1  0
  9 10  2  0
 10 11  1  0
 11 12  2  0
 13 12  1  0
 14 13  2  0
  4 15  1  0
  5 16  1  0
  7 17  1  0
 10 18  1  0
 11 19  1  0
 12 20  1  0
 13 21  1  0
 14 22  1  0
M  ISO  8  15  14  16  14  17  14  18  14  19  14  20  14  21  14  22  14
M  END
>  <minimizedAffinity>  (1) 
-3.92763901

>  <minimizedRMSD>  (1) 
5.24901867

$$$$
