
     RDKit          3D

 24 25  0  0  0  0  0  0  0  0999 V2000
   39.5760   25.5620   42.3040 C   0  0  0  0  0  0  0  0  0  0  0  0
   38.9860   24.3090   42.0290 C   0  0  0  0  0  0  0  0  0  0  0  0
   37.5990   24.2220   42.0520 C   0  0  0  0  0  0  0  0  0  0  0  0
   36.8850   25.3490   42.3400 N   0  0  0  0  0  0  0  0  0  0  0  0
   37.4780   26.5310   42.5990 C   0  0  0  0  0  0  0  0  0  0  0  0
   38.8040   26.6100   42.5760 N   0  0  0  0  0  0  0  0  0  0  0  0
   41.0080   25.5680   42.2610 C   0  0  0  0  0  0  0  0  0  0  0  0
   41.7310   24.9530   43.0700 O   0  0  0  0  0  0  0  0  0  0  0  0
   41.8210   26.2580   41.3130 N   0  0  0  0  0  0  0  0  0  0  0  0
   41.1820   26.3980   40.0180 C   0  0  0  0  0  0  0  0  0  0  0  0
   42.1350   27.2380   39.1940 C   0  0  0  0  0  0  0  0  0  0  0  0
   43.4710   26.7920   39.7710 C   0  0  0  0  0  0  0  0  0  0  0  0
   43.1350   26.8800   41.2490 C   0  0  0  0  0  0  0  0  0  0  0  0
   39.6053   23.4284   41.8034 H   0  0  0  0  0  0  0  0  0  0  0  0
   37.0899   23.2695   41.8435 H   0  0  0  0  0  0  0  0  0  0  0  0
   36.8714   27.4199   42.8268 H   0  0  0  0  0  0  0  0  0  0  0  0
   41.0347   25.4126   39.5520 H   0  0  0  0  0  0  0  0  0  0  0  0
   40.1882   26.8627   40.0979 H   0  0  0  0  0  0  0  0  0  0  0  0
   41.9651   28.3138   39.3485 H   0  0  0  0  0  0  0  0  0  0  0  0
   42.0390   27.1049   38.1063 H   0  0  0  0  0  0  0  0  0  0  0  0
   43.7294   25.7668   39.4674 H   0  0  0  0  0  0  0  0  0  0  0  0
   44.3439   27.3789   39.4493 H   0  0  0  0  0  0  0  0  0  0  0  0
   43.8664   26.3265   41.8562 H   0  0  0  0  0  0  0  0  0  0  0  0
   43.1524   27.9075   41.6414 H   0  0  0  0  0  0  0  0  0  0  0  0
  1  6  2  0
  2  3  2  0
  2  1  1  0
  3  4  1  0
  4  5  2  0
  6  5  1  0
  7  1  1  0
  7  8  2  0
  9  7  1  0
 10  9  1  0
 11 12  1  0
 11 10  1  0
 12 13  1  0
 13  9  1  0
  2 14  1  0
  3 15  1  0
  5 16  1  0
 10 17  1  0
 10 18  1  0
 11 19  1  0
 11 20  1  0
 12 21  1  0
 12 22  1  0
 13 23  1  0
 13 24  1  0
M  ISO  8  14  14  15  14  16  14  17  13  18  13  19  13  20  13  21  13
M  ISO  3  22  13  23  13  24  13
M  END
>  <minimizedAffinity>  (1) 
-2.54421926

>  <minimizedRMSD>  (1) 
7.21903467

$$$$
