
     RDKit          3D

 35 37  0  0  1  0  0  0  0  0999 V2000
   39.9880   31.8420   40.1000 C   0  0  0  0  0  0  0  0  0  0  0  0
   39.5800   30.6900   40.8240 C   0  0  0  0  0  0  0  0  0  0  0  0
   38.2550   30.5840   41.1590 C   0  0  0  0  0  0  0  0  0  0  0  0
   37.3910   31.5710   40.7920 N   0  0  0  0  0  0  0  0  0  0  0  0
   37.7920   32.6600   40.1060 C   0  0  0  0  0  0  0  0  0  0  0  0
   39.0990   32.7950   39.7590 N   0  0  0  0  0  0  0  0  0  0  0  0
   36.8400   33.6590   39.7500 N   0  0  0  0  0  0  0  0  0  0  0  0
   37.7700   29.4680   41.8780 N   0  0  0  0  0  0  0  0  0  0  0  0
   38.2960   29.1670   43.1820 C   0  0  0  0  0  0  0  0  0  0  0  0
   37.2320   28.3290   43.9130 C   0  0  0  0  0  0  0  0  0  0  0  0
   36.8680   27.1360   43.2230 N   0  0  0  0  0  0  0  0  0  0  0  0
   36.9610   27.2070   41.8020 C   0  0  0  0  0  0  0  0  0  0  0  0
   36.7440   28.6150   41.3170 C   0  0  2  0  0  0  0  0  0  0  0  0
   36.5970   28.7110   39.8530 C   0  0  0  0  0  0  0  0  0  0  0  0
   35.4370   29.2340   39.2930 C   0  0  0  0  0  0  0  0  0  0  0  0
   35.2260   29.3560   37.9480 C   0  0  0  0  0  0  0  0  0  0  0  0
   36.2380   28.9270   37.1670 N   0  0  0  0  0  0  0  0  0  0  0  0
   37.3650   28.4200   37.6810 C   0  0  0  0  0  0  0  0  0  0  0  0
   37.5740   28.2990   39.0160 N   0  0  0  0  0  0  0  0  0  0  0  0
   38.5600   27.9200   36.4510 S   0  0  0  0  0  0  0  0  0  0  0  0
   41.0439   31.9575   39.8140 H   0  0  0  0  0  0  0  0  0  0  0  0
   40.3024   29.9099   41.1061 H   0  0  0  0  0  0  0  0  0  0  0  0
   37.1404   34.4932   39.2259 H   0  0  0  0  0  0  0  0  0  0  0  0
   35.8515   33.5468   40.0168 H   0  0  0  0  0  0  0  0  0  0  0  0
   39.2304   28.5940   43.0896 H   0  0  0  0  0  0  0  0  0  0  0  0
   38.5198   30.0894   43.7379 H   0  0  0  0  0  0  0  0  0  0  0  0
   37.6273   28.0516   44.9013 H   0  0  0  0  0  0  0  0  0  0  0  0
   36.3262   28.9493   43.9820 H   0  0  0  0  0  0  0  0  0  0  0  0
   37.4873   26.3790   43.5459 H   0  0  0  0  0  0  0  0  0  0  0  0
   37.9600   26.8689   41.4896 H   0  0  0  0  0  0  0  0  0  0  0  0
   36.1826   26.5627   41.3672 H   0  0  0  0  0  0  0  0  0  0  0  0
   35.7719   28.9778   41.6822 H   0  0  0  0  0  0  0  0  0  0  0  0
   34.6407   29.5700   39.9735 H   0  0  0  0  0  0  0  0  0  0  0  0
   34.2973   29.7742   37.5326 H   0  0  0  0  0  0  0  0  0  0  0  0
   39.6860   27.4489   37.0732 H   0  0  0  0  0  0  0  0  0  0  0  0
  1  2  2  0
  2  3  1  0
  3  8  1  0
  4  3  2  0
  5  4  1  0
  6  1  1  0
  6  5  2  0
  7  5  1  0
  8  9  1  0
  9 10  1  0
 11 10  1  0
 12 11  1  0
 13 12  1  0
 13  8  1  0
 14 13  1  0
 15 14  2  0
 16 15  1  0
 17 18  1  0
 17 16  2  0
 18 19  2  0
 19 14  1  0
 20 18  1  0
  1 21  1  0
  2 22  1  0
  7 23  1  0
  7 24  1  0
  9 25  1  0
  9 26  1  0
 10 27  1  0
 10 28  1  0
 11 29  1  0
 12 30  1  0
 12 31  1  0
 13 32  1  1
 15 33  1  0
 16 34  1  0
 20 35  1  0
M  ISO  8  21  14  22  14  25  13  26  13  27  13  28  13  29   5  30  13
M  ISO  5  31  13  32  13  33  14  34  14  35  11
M  END
>  <minimizedAffinity>  (1) 
-5.57755613

>  <minimizedRMSD>  (1) 
0.0899450332

$$$$
