
     RDKit          3D

 25 26  0  0  1  0  0  0  0  0999 V2000
   38.2190   29.7320   42.0580 C   0  0  0  0  0  0  0  0  0  0  0  0
   37.2310   29.3040   41.1670 C   0  0  0  0  0  0  0  0  0  0  0  0
   36.3700   28.2970   41.6260 C   0  0  0  0  0  0  0  0  0  0  0  0
   36.5440   27.8050   42.8860 N   0  0  0  0  0  0  0  0  0  0  0  0
   37.5180   28.2570   43.7050 C   0  0  0  0  0  0  0  0  0  0  0  0
   38.3570   29.2180   43.3020 N   0  0  0  0  0  0  0  0  0  0  0  0
   39.0950   30.7690   41.5700 C   0  0  0  0  0  0  0  0  0  0  0  0
   40.2950   30.6060   41.1790 O   0  0  0  0  0  0  0  0  0  0  0  0
   38.7980   32.1140   41.4370 O   0  0  0  0  0  0  0  0  0  0  0  0
   38.5430   32.1210   39.1560 N   0  0  0  0  0  0  0  0  0  0  0  0
   37.1500   32.5150   39.1960 C   0  0  0  0  0  0  0  0  0  0  0  0
   37.2600   34.0120   39.3930 C   0  0  0  0  0  0  0  0  0  0  0  0
   38.4660   34.2220   40.2740 C   0  0  0  0  0  0  0  0  0  0  0  0
   39.1130   32.8740   40.2840 C   0  0  1  0  0  0  0  0  0  0  0  0
   37.1340   29.7342   40.1593 H   0  0  0  0  0  0  0  0  0  0  0  0
   35.5676   27.9103   40.9806 H   0  0  0  0  0  0  0  0  0  0  0  0
   37.6226   27.8307   44.7136 H   0  0  0  0  0  0  0  0  0  0  0  0
   38.6478   31.1057   39.2941 H   0  0  0  0  0  0  0  0  0  0  0  0
   36.6371   32.2712   38.2539 H   0  0  0  0  0  0  0  0  0  0  0  0
   36.5636   32.0041   39.9739 H   0  0  0  0  0  0  0  0  0  0  0  0
   37.3996   34.5166   38.4256 H   0  0  0  0  0  0  0  0  0  0  0  0
   36.3490   34.4290   39.8469 H   0  0  0  0  0  0  0  0  0  0  0  0
   39.1393   34.9807   39.8485 H   0  0  0  0  0  0  0  0  0  0  0  0
   38.2104   34.5880   41.2793 H   0  0  0  0  0  0  0  0  0  0  0  0
   40.2014   33.0274   40.2416 H   0  0  0  0  0  0  0  0  0  0  0  0
  1  6  2  0
  2  3  2  0
  2  1  1  0
  3  4  1  0
  4  5  2  0
  6  5  1  0
  7  1  1  0
  8  7  2  0
  9  7  1  0
 10 11  1  0
 10 14  1  0
 11 12  1  0
 12 13  1  0
 13 14  1  0
 14  9  1  0
  2 15  1  0
  3 16  1  0
  5 17  1  0
 10 18  1  0
 11 19  1  0
 11 20  1  0
 12 21  1  0
 12 22  1  0
 13 23  1  0
 13 24  1  0
 14 25  1  6
M  ISO  8  15  14  16  14  17  14  18   5  19  13  20  13  21  13  22  13
M  ISO  3  23  13  24  13  25  13
M  END
>  <minimizedAffinity>  (1) 
-3.80278754

>  <minimizedRMSD>  (1) 
2.45484328

$$$$
