
     RDKit          3D

 17 17  0  0  0  0  0  0  0  0999 V2000
   38.1810   28.2610   41.6450 C   0  0  0  0  0  0  0  0  0  0  0  0
   37.4030   28.2480   42.8130 C   0  0  0  0  0  0  0  0  0  0  0  0
   37.8940   27.5590   43.9120 C   0  0  0  0  0  0  0  0  0  0  0  0
   39.0840   26.9410   43.8120 N   0  0  0  0  0  0  0  0  0  0  0  0
   39.8210   26.9700   42.6610 C   0  0  0  0  0  0  0  0  0  0  0  0
   39.3720   27.6330   41.5690 N   0  0  0  0  0  0  0  0  0  0  0  0
   37.6290   28.9920   40.5270 C   0  0  0  0  0  0  0  0  0  0  0  0
   36.9170   28.4840   39.5990 O   0  0  0  0  0  0  0  0  0  0  0  0
   37.7950   30.3640   40.3030 O   0  0  0  0  0  0  0  0  0  0  0  0
   36.8880   31.3380   40.6500 C   0  0  0  0  0  0  0  0  0  0  0  0
   35.6460   30.9970   41.2690 N   0  0  0  0  0  0  0  0  0  0  0  0
   37.1810   32.5380   40.4090 O   0  0  0  0  0  0  0  0  0  0  0  0
   36.4345   28.7678   42.8555 H   0  0  0  0  0  0  0  0  0  0  0  0
   37.3198   27.5188   44.8494 H   0  0  0  0  0  0  0  0  0  0  0  0
   40.7891   26.4492   42.6215 H   0  0  0  0  0  0  0  0  0  0  0  0
   34.9768   31.7376   41.5231 H   0  0  0  0  0  0  0  0  0  0  0  0
   35.4200   30.0106   41.4610 H   0  0  0  0  0  0  0  0  0  0  0  0
  1  2  2  0
  2  3  1  0
  4  3  2  0
  5  4  1  0
  6  1  1  0
  6  5  2  0
  7  1  1  0
  8  7  2  0
  9  7  1  0
  9 10  1  0
 10 11  1  0
 12 10  2  0
  2 13  1  0
  3 14  1  0
  5 15  1  0
 11 16  1  0
 11 17  1  0
M  ISO  3  13  14  14  14  15  14
M  END
>  <minimizedAffinity>  (1) 
-3.59070206

>  <minimizedRMSD>  (1) 
2.14733839

$$$$
