
     RDKit          3D

 37 39  0  0  1  0  0  0  0  0999 V2000
   40.0250   31.9410   40.2400 C   0  0  0  0  0  0  0  0  0  0  0  0
   39.6060   30.7670   40.9170 C   0  0  0  0  0  0  0  0  0  0  0  0
   38.2730   30.6200   41.1880 C   0  0  0  0  0  0  0  0  0  0  0  0
   37.4000   31.5910   40.8060 N   0  0  0  0  0  0  0  0  0  0  0  0
   37.8180   32.7160   40.1560 C   0  0  0  0  0  0  0  0  0  0  0  0
   39.1380   32.8890   39.8730 N   0  0  0  0  0  0  0  0  0  0  0  0
   36.8610   33.6930   39.7840 N   0  0  0  0  0  0  0  0  0  0  0  0
   37.7730   29.4760   41.8600 N   0  0  0  0  0  0  0  0  0  0  0  0
   38.2390   29.1550   43.1770 C   0  0  0  0  0  0  0  0  0  0  0  0
   37.1780   28.2830   43.8380 C   0  0  0  0  0  0  0  0  0  0  0  0
   36.8720   27.0960   43.1060 N   0  0  0  0  0  0  0  0  0  0  0  0
   37.0150   27.2070   41.6930 C   0  0  0  0  0  0  0  0  0  0  0  0
   36.7890   28.6200   41.2320 C   0  0  2  0  0  0  0  0  0  0  0  0
   36.7160   28.7440   39.7630 C   0  0  0  0  0  0  0  0  0  0  0  0
   35.5530   29.2070   39.1470 C   0  0  0  0  0  0  0  0  0  0  0  0
   35.3900   29.3540   37.8010 C   0  0  0  0  0  0  0  0  0  0  0  0
   36.4690   29.0100   37.0640 N   0  0  0  0  0  0  0  0  0  0  0  0
   37.6050   28.5600   37.6300 C   0  0  0  0  0  0  0  0  0  0  0  0
   37.7520   28.4190   38.9680 N   0  0  0  0  0  0  0  0  0  0  0  0
   38.7550   28.1970   36.7680 C   0  0  0  0  0  0  0  0  0  0  0  0
   41.0916   32.0809   40.0103 H   0  0  0  0  0  0  0  0  0  0  0  0
   40.3322   29.9966   41.2156 H   0  0  0  0  0  0  0  0  0  0  0  0
   37.1612   34.5472   39.2930 H   0  0  0  0  0  0  0  0  0  0  0  0
   35.8653   33.5488   40.0047 H   0  0  0  0  0  0  0  0  0  0  0  0
   39.1908   28.6069   43.1155 H   0  0  0  0  0  0  0  0  0  0  0  0
   38.4078   30.0709   43.7624 H   0  0  0  0  0  0  0  0  0  0  0  0
   37.5396   27.9923   44.8353 H   0  0  0  0  0  0  0  0  0  0  0  0
   36.2548   28.8793   43.8832 H   0  0  0  0  0  0  0  0  0  0  0  0
   37.5000   26.3480   43.4330 H   0  0  0  0  0  0  0  0  0  0  0  0
   38.0313   26.8956   41.4098 H   0  0  0  0  0  0  0  0  0  0  0  0
   36.2636   26.5609   41.2155 H   0  0  0  0  0  0  0  0  0  0  0  0
   35.7936   28.9573   41.5568 H   0  0  0  0  0  0  0  0  0  0  0  0
   34.7048   29.4732   39.7949 H   0  0  0  0  0  0  0  0  0  0  0  0
   34.4560   29.7227   37.3518 H   0  0  0  0  0  0  0  0  0  0  0  0
   39.6146   27.9257   37.3985 H   0  0  0  0  0  0  0  0  0  0  0  0
   38.4816   27.3415   36.1329 H   0  0  0  0  0  0  0  0  0  0  0  0
   39.0223   29.0545   36.1329 H   0  0  0  0  0  0  0  0  0  0  0  0
  1  2  2  0
  2  3  1  0
  3  8  1  0
  4  3  2  0
  5  4  1  0
  6  5  2  0
  6  1  1  0
  7  5  1  0
  8  9  1  0
  9 10  1  0
 11 10  1  0
 12 11  1  0
 13 12  1  0
 13  8  1  0
 14 13  1  0
 15 14  2  0
 16 15  1  0
 17 18  1  0
 17 16  2  0
 18 19  2  0
 19 14  1  0
 20 18  1  0
  1 21  1  0
  2 22  1  0
  7 23  1  0
  7 24  1  0
  9 25  1  0
  9 26  1  0
 10 27  1  0
 10 28  1  0
 11 29  1  0
 12 30  1  0
 12 31  1  0
 13 32  1  1
 15 33  1  0
 16 34  1  0
 20 35  1  0
 20 36  1  0
 20 37  1  0
M  ISO  8  21  14  22  14  25  13  26  13  27  13  28  13  29   5  30  13
M  ISO  7  31  13  32  13  33  14  34  14  35   8  36   8  37   8
M  END
>  <minimizedAffinity>  (1) 
-5.56588364

>  <minimizedRMSD>  (1) 
0.0914003402

$$$$
