
     RDKit          3D

 19 19  0  0  0  0  0  0  0  0999 V2000
   38.2220   26.7730   42.9740 C   0  0  0  0  0  0  0  0  0  0  0  0
   37.7290   25.6480   42.3150 C   0  0  0  0  0  0  0  0  0  0  0  0
   38.4760   24.4700   42.3990 C   0  0  0  0  0  0  0  0  0  0  0  0
   39.6310   24.4850   43.1120 N   0  0  0  0  0  0  0  0  0  0  0  0
   40.0710   25.6120   43.7390 C   0  0  0  0  0  0  0  0  0  0  0  0
   39.3760   26.7600   43.6780 N   0  0  0  0  0  0  0  0  0  0  0  0
   37.4130   27.9610   42.8560 C   0  0  0  0  0  0  0  0  0  0  0  0
   37.6870   29.1020   43.3090 O   0  0  0  0  0  0  0  0  0  0  0  0
   36.1910   28.0750   42.2260 O   0  0  0  0  0  0  0  0  0  0  0  0
   35.9810   28.8250   41.0560 C   0  0  0  0  0  0  0  0  0  0  0  0
   36.3310   28.1210   39.7950 C   0  0  0  0  0  0  0  0  0  0  0  0
   36.7863   25.6861   41.7494 H   0  0  0  0  0  0  0  0  0  0  0  0
   38.1358   23.5514   41.8987 H   0  0  0  0  0  0  0  0  0  0  0  0
   41.0132   25.5812   44.3059 H   0  0  0  0  0  0  0  0  0  0  0  0
   34.9166   29.0989   41.0112 H   0  0  0  0  0  0  0  0  0  0  0  0
   36.6500   29.6957   41.1213 H   0  0  0  0  0  0  0  0  0  0  0  0
   36.8091   27.1593   40.0326 H   0  0  0  0  0  0  0  0  0  0  0  0
   35.4172   27.9415   39.2095 H   0  0  0  0  0  0  0  0  0  0  0  0
   37.0257   28.7411   39.2095 H   0  0  0  0  0  0  0  0  0  0  0  0
  1  6  2  0
  2  3  2  0
  2  1  1  0
  3  4  1  0
  4  5  2  0
  6  5  1  0
  7  1  1  0
  7  8  2  0
  9  7  1  0
 10  9  1  0
 11 10  1  0
  2 12  1  0
  3 13  1  0
  5 14  1  0
 10 15  1  0
 10 16  1  0
 11 17  1  0
 11 18  1  0
 11 19  1  0
M  ISO  8  12  14  13  14  14  14  15   8  16   8  17   8  18   8  19   8
M  END
>  <minimizedAffinity>  (1) 
-3.23066163

>  <minimizedRMSD>  (1) 
3.15553784

$$$$
