
     RDKit          3D

 16 16  0  0  0  0  0  0  0  0999 V2000
   38.3440   26.4860   42.3080 C   0  0  0  0  0  0  0  0  0  0  0  0
   37.0380   26.4390   42.7790 C   0  0  0  0  0  0  0  0  0  0  0  0
   36.5460   27.5460   43.4570 C   0  0  0  0  0  0  0  0  0  0  0  0
   37.3760   28.6200   43.6230 N   0  0  0  0  0  0  0  0  0  0  0  0
   38.6400   28.6280   43.1500 C   0  0  0  0  0  0  0  0  0  0  0  0
   39.1300   27.5710   42.4930 N   0  0  0  0  0  0  0  0  0  0  0  0
   38.8110   25.3090   41.6060 C   0  0  0  0  0  0  0  0  0  0  0  0
   39.8870   24.6770   41.8600 O   0  0  0  0  0  0  0  0  0  0  0  0
   38.1350   24.6960   40.5400 O   0  0  0  0  0  0  0  0  0  0  0  0
   37.4670   23.5030   40.6230 C   0  0  0  0  0  0  0  0  0  0  0  0
   36.2520   23.4670   40.3510 O   0  0  0  0  0  0  0  0  0  0  0  0
   38.1340   22.3280   41.0070 O   0  0  0  0  0  0  0  0  0  0  0  0
   36.4111   25.5494   42.6192 H   0  0  0  0  0  0  0  0  0  0  0  0
   35.5184   27.5588   43.8493 H   0  0  0  0  0  0  0  0  0  0  0  0
   39.2740   29.5132   43.3065 H   0  0  0  0  0  0  0  0  0  0  0  0
   37.6381   21.4729   41.0626 H   0  0  0  0  0  0  0  0  0  0  0  0
  1  6  2  0
  1  2  1  0
  2  3  2  0
  3  4  1  0
  5  4  2  0
  6  5  1  0
  7  8  2  0
  7  1  1  0
  9 10  1  0
  9  7  1  0
 10 12  1  0
 11 10  2  0
  2 13  1  0
  3 14  1  0
  5 15  1  0
 12 16  1  0
M  ISO  4  13  14  14  14  15  14  16   3
M  END
>  <minimizedAffinity>  (1) 
-3.21952581

>  <minimizedRMSD>  (1) 
6.01945686

$$$$
