
     RDKit          3D

 40 43  0  0  1  0  0  0  0  0999 V2000
   36.5910   29.8620   41.8220 C   0  0  2  0  0  0  0  0  0  0  0  0
   35.8930   28.8550   40.8600 C   0  0  0  0  0  0  0  0  0  0  0  0
   36.2970   29.1380   39.4680 C   0  0  0  0  0  0  0  0  0  0  0  0
   36.6170   30.5940   39.4800 C   0  0  0  0  0  0  0  0  0  0  0  0
   36.9700   30.9490   40.9170 C   0  0  2  0  0  0  0  0  0  0  0  0
   38.4240   31.2100   40.9300 N   0  0  0  0  0  0  0  0  0  0  0  0
   39.4190   30.3370   41.1730 C   0  0  0  0  0  0  0  0  0  0  0  0
   40.6090   30.9590   41.0930 N   0  0  0  0  0  0  0  0  0  0  0  0
   40.3720   32.2460   40.7950 C   0  0  0  0  0  0  0  0  0  0  0  0
   41.2190   33.3100   40.6000 C   0  0  0  0  0  0  0  0  0  0  0  0
   42.4640   33.1280   40.7020 O   0  0  0  0  0  0  0  0  0  0  0  0
   40.6820   34.4910   40.3120 N   0  0  0  0  0  0  0  0  0  0  0  0
   39.3440   34.7000   40.2000 C   0  0  0  0  0  0  0  0  0  0  0  0
   38.7710   35.9650   39.8910 N   0  0  0  0  0  0  0  0  0  0  0  0
   38.5370   33.6310   40.3980 N   0  0  0  0  0  0  0  0  0  0  0  0
   39.0070   32.4060   40.6920 C   0  0  0  0  0  0  0  0  0  0  0  0
   37.6870   29.3190   42.4060 O   0  0  0  0  0  0  0  0  0  0  0  0
   37.6690   28.3260   43.4250 C   0  0  0  0  0  0  0  0  0  0  0  0
   36.9880   28.6730   44.4120 O   0  0  0  0  0  0  0  0  0  0  0  0
   38.3810   27.0690   43.2700 C   0  0  0  0  0  0  0  0  0  0  0  0
   37.7020   26.1380   42.4430 C   0  0  0  0  0  0  0  0  0  0  0  0
   38.3190   24.8910   42.2360 C   0  0  0  0  0  0  0  0  0  0  0  0
   39.5140   24.6720   42.8420 N   0  0  0  0  0  0  0  0  0  0  0  0
   40.1240   25.5960   43.6260 C   0  0  0  0  0  0  0  0  0  0  0  0
   39.5470   26.7820   43.8280 N   0  0  0  0  0  0  0  0  0  0  0  0
   35.9484   30.1782   42.6569 H   0  0  0  0  0  0  0  0  0  0  0  0
   36.1892   27.8295   41.1258 H   0  0  0  0  0  0  0  0  0  0  0  0
   34.8018   28.9587   40.9518 H   0  0  0  0  0  0  0  0  0  0  0  0
   35.4746   28.9232   38.7698 H   0  0  0  0  0  0  0  0  0  0  0  0
   37.1436   28.5189   39.1364 H   0  0  0  0  0  0  0  0  0  0  0  0
   37.4703   30.8007   38.8173 H   0  0  0  0  0  0  0  0  0  0  0  0
   35.7652   31.1906   39.1215 H   0  0  0  0  0  0  0  0  0  0  0  0
   36.4224   31.8356   41.2693 H   0  0  0  0  0  0  0  0  0  0  0  0
   39.2795   29.2705   41.4034 H   0  0  0  0  0  0  0  0  0  0  0  0
   41.3140   35.2910   40.1658 H   0  0  0  0  0  0  0  0  0  0  0  0
   37.7482   36.0633   39.8190 H   0  0  0  0  0  0  0  0  0  0  0  0
   39.3789   36.7825   39.7393 H   0  0  0  0  0  0  0  0  0  0  0  0
   36.7330   26.3811   41.9826 H   0  0  0  0  0  0  0  0  0  0  0  0
   37.8501   24.1209   41.6058 H   0  0  0  0  0  0  0  0  0  0  0  0
   41.0928   25.3678   44.0944 H   0  0  0  0  0  0  0  0  0  0  0  0
  1 17  1  0
  2  1  1  0
  3  4  1  0
  3  2  1  0
  4  5  1  0
  5  6  1  0
  5  1  1  0
  6  7  1  0
  8  7  2  0
  9  8  1  0
 10 11  2  0
 10  9  1  0
 12 10  1  0
 13 12  1  0
 13 15  2  0
 14 13  1  0
 15 16  1  0
 16  9  2  0
 16  6  1  0
 17 18  1  0
 18 19  2  0
 20 18  1  0
 20 25  1  0
 21 20  2  0
 22 21  1  0
 22 23  2  0
 23 24  1  0
 24 25  2  0
  1 26  1  1
  2 27  1  0
  2 28  1  0
  3 29  1  0
  3 30  1  0
  4 31  1  0
  4 32  1  0
  5 33  1  1
  7 34  1  0
 12 35  1  0
 14 36  1  0
 14 37  1  0
 21 38  1  0
 22 39  1  0
 24 40  1  0
M  ISO  8  26  13  27  13  28  13  29  13  30  13  31  13  32  13  33  13
M  ISO  5  34  14  35   9  38  14  39  14  40  14
M  END
>  <minimizedAffinity>  (1) 
-6.40077448

>  <minimizedRMSD>  (1) 
0.681987405

$$$$
