
     RDKit          3D

 40 43  0  0  1  0  0  0  0  0999 V2000
   36.5170   29.8220   41.8110 C   0  0  2  0  0  0  0  0  0  0  0  0
   35.7680   28.7790   40.9230 C   0  0  0  0  0  0  0  0  0  0  0  0
   36.1260   29.0060   39.4970 C   0  0  0  0  0  0  0  0  0  0  0  0
   36.3600   30.4920   39.4600 C   0  0  0  0  0  0  0  0  0  0  0  0
   36.8230   30.8850   40.8560 C   0  0  2  0  0  0  0  0  0  0  0  0
   38.2540   31.2980   40.7710 C   0  0  0  0  0  0  0  0  0  0  0  0
   39.3880   30.5190   40.8590 C   0  0  0  0  0  0  0  0  0  0  0  0
   40.5190   31.2330   40.7280 N   0  0  0  0  0  0  0  0  0  0  0  0
   40.1740   32.5210   40.5480 C   0  0  0  0  0  0  0  0  0  0  0  0
   40.9010   33.6900   40.3600 C   0  0  0  0  0  0  0  0  0  0  0  0
   40.2320   34.8850   40.2010 C   0  0  0  0  0  0  0  0  0  0  0  0
   38.8660   34.9420   40.2230 C   0  0  0  0  0  0  0  0  0  0  0  0
   38.1270   33.7890   40.4080 C   0  0  0  0  0  0  0  0  0  0  0  0
   38.7970   32.5730   40.5710 C   0  0  0  0  0  0  0  0  0  0  0  0
   37.6350   29.3030   42.3550 O   0  0  0  0  0  0  0  0  0  0  0  0
   37.6820   28.3400   43.4020 C   0  0  0  0  0  0  0  0  0  0  0  0
   37.0430   28.7120   44.4120 O   0  0  0  0  0  0  0  0  0  0  0  0
   38.4030   27.0870   43.2460 C   0  0  0  0  0  0  0  0  0  0  0  0
   37.7250   26.1530   42.4240 C   0  0  0  0  0  0  0  0  0  0  0  0
   38.3320   24.9090   42.2150 C   0  0  0  0  0  0  0  0  0  0  0  0
   39.5440   24.6810   42.8240 N   0  0  0  0  0  0  0  0  0  0  0  0
   40.1390   25.6170   43.5990 C   0  0  0  0  0  0  0  0  0  0  0  0
   39.5700   26.8140   43.8070 N   0  0  0  0  0  0  0  0  0  0  0  0
   35.9273   30.1655   42.6737 H   0  0  0  0  0  0  0  0  0  0  0  0
   36.0647   27.7622   41.2197 H   0  0  0  0  0  0  0  0  0  0  0  0
   34.6818   28.8928   41.0546 H   0  0  0  0  0  0  0  0  0  0  0  0
   37.0355   28.4522   39.2212 H   0  0  0  0  0  0  0  0  0  0  0  0
   35.3574   28.6625   38.7890 H   0  0  0  0  0  0  0  0  0  0  0  0
   37.1344   30.7375   38.7184 H   0  0  0  0  0  0  0  0  0  0  0  0
   35.4467   31.0342   39.1736 H   0  0  0  0  0  0  0  0  0  0  0  0
   36.2761   31.7546   41.2492 H   0  0  0  0  0  0  0  0  0  0  0  0
   39.3691   29.4309   41.0191 H   0  0  0  0  0  0  0  0  0  0  0  0
   41.4788   30.8606   40.7597 H   0  0  0  0  0  0  0  0  0  0  0  0
   42.0004   33.6623   40.3382 H   0  0  0  0  0  0  0  0  0  0  0  0
   40.8082   35.8103   40.0536 H   0  0  0  0  0  0  0  0  0  0  0  0
   38.3545   35.9072   40.0932 H   0  0  0  0  0  0  0  0  0  0  0  0
   37.0278   33.8275   40.4267 H   0  0  0  0  0  0  0  0  0  0  0  0
   36.7552   26.3970   41.9659 H   0  0  0  0  0  0  0  0  0  0  0  0
   37.8568   24.1415   41.5864 H   0  0  0  0  0  0  0  0  0  0  0  0
   41.1084   25.3921   44.0678 H   0  0  0  0  0  0  0  0  0  0  0  0
  1 15  1  0
  2  1  1  0
  3  2  1  0
  4  3  1  0
  4  5  1  0
  5  1  1  0
  6  5  1  0
  6  7  2  0
  8  7  1  0
  9 14  2  0
  9  8  1  0
 10  9  1  0
 11 12  1  0
 11 10  2  0
 12 13  2  0
 13 14  1  0
 14  6  1  0
 15 16  1  0
 16 17  2  0
 18 16  1  0
 18 23  1  0
 19 18  2  0
 20 19  1  0
 20 21  2  0
 21 22  1  0
 22 23  2  0
  1 24  1  1
  2 25  1  0
  2 26  1  0
  3 27  1  0
  3 28  1  0
  4 29  1  0
  4 30  1  0
  5 31  1  1
  7 32  1  0
  8 33  1  0
 10 34  1  0
 11 35  1  0
 12 36  1  0
 13 37  1  0
 19 38  1  0
 20 39  1  0
 22 40  1  0
M  ISO  8  24  13  25  13  26  13  27  13  28  13  29  13  30  13  31  13
M  ISO  8  32  14  33   9  34  14  35  14  36  14  37  14  38  14  39  14
M  ISO  1  40  14
M  END
>  <minimizedAffinity>  (1) 
-5.9972887

>  <minimizedRMSD>  (1) 
0.732313454

$$$$
