
     RDKit          3D

 33 34  0  0  1  0  0  0  0  0999 V2000
   36.6750   29.8710   41.4660 C   0  0  2  0  0  0  0  0  0  0  0  0
   35.6410   28.8600   40.8720 C   0  0  0  0  0  0  0  0  0  0  0  0
   35.8010   28.8140   39.3930 C   0  0  0  0  0  0  0  0  0  0  0  0
   36.2400   30.2190   39.0880 C   0  0  0  0  0  0  0  0  0  0  0  0
   37.0030   30.6980   40.3120 C   0  0  1  0  0  0  0  0  0  0  0  0
   36.7820   32.1300   40.5180 N   0  0  0  0  0  0  0  0  0  0  0  0
   37.4730   33.0270   39.6620 C   0  0  0  0  0  0  0  0  0  0  0  0
   38.5660   32.6640   39.0800 N   0  0  0  0  0  0  0  0  0  0  0  0
   36.9480   34.3500   39.4430 N   0  0  0  0  0  0  0  0  0  0  0  0
   39.0680   33.3290   38.4520 H   0  0  0  0  0  0  0  0  0  0  0  0
   37.7730   29.2340   41.9360 O   0  0  0  0  0  0  0  0  0  0  0  0
   37.8100   28.4030   43.0930 C   0  0  0  0  0  0  0  0  0  0  0  0
   37.2640   28.9420   44.0830 O   0  0  0  0  0  0  0  0  0  0  0  0
   38.4190   27.0940   43.0630 C   0  0  0  0  0  0  0  0  0  0  0  0
   37.6690   26.1430   42.3220 C   0  0  0  0  0  0  0  0  0  0  0  0
   38.1850   24.8320   42.2450 C   0  0  0  0  0  0  0  0  0  0  0  0
   39.3670   24.5710   42.8880 N   0  0  0  0  0  0  0  0  0  0  0  0
   40.0370   25.5210   43.5790 C   0  0  0  0  0  0  0  0  0  0  0  0
   39.5530   26.7560   43.6530 N   0  0  0  0  0  0  0  0  0  0  0  0
   36.2859   30.4417   42.3221 H   0  0  0  0  0  0  0  0  0  0  0  0
   35.8197   27.8597   41.2933 H   0  0  0  0  0  0  0  0  0  0  0  0
   34.6200   29.1818   41.1250 H   0  0  0  0  0  0  0  0  0  0  0  0
   36.5660   28.0817   39.0954 H   0  0  0  0  0  0  0  0  0  0  0  0
   34.8924   28.5044   38.8558 H   0  0  0  0  0  0  0  0  0  0  0  0
   36.8926   30.2312   38.2026 H   0  0  0  0  0  0  0  0  0  0  0  0
   35.3804   30.8700   38.8704 H   0  0  0  0  0  0  0  0  0  0  0  0
   38.0853   30.5800   40.1550 H   0  0  0  0  0  0  0  0  0  0  0  0
   36.1499   32.4734   41.2552 H   0  0  0  0  0  0  0  0  0  0  0  0
   37.4451   35.0052   38.8229 H   0  0  0  0  0  0  0  0  0  0  0  0
   36.0754   34.6410   39.9065 H   0  0  0  0  0  0  0  0  0  0  0  0
   36.7249   26.4169   41.8284 H   0  0  0  0  0  0  0  0  0  0  0  0
   37.6560   24.0452   41.6872 H   0  0  0  0  0  0  0  0  0  0  0  0
   40.9837   25.2709   44.0803 H   0  0  0  0  0  0  0  0  0  0  0  0
  1 11  1  0
  2  1  1  0
  3  2  1  0
  4  3  1  0
  4  5  1  0
  5  6  1  0
  5  1  1  0
  7  6  1  0
  8  7  2  0
  9  7  1  0
 10  8  1  0
 11 12  1  0
 12 13  2  0
 14 12  1  0
 14 19  1  0
 15 14  2  0
 16 15  1  0
 16 17  2  0
 17 18  1  0
 18 19  2  0
  1 20  1  1
  2 21  1  0
  2 22  1  0
  3 23  1  0
  3 24  1  0
  4 25  1  0
  4 26  1  0
  5 27  1  6
  6 28  1  0
  9 29  1  0
  9 30  1  0
 15 31  1  0
 16 32  1  0
 18 33  1  0
M  ISO  8  20  13  21  13  22  13  23  13  24  13  25  13  26  13  27  13
M  ISO  3  31  14  32  14  33  14
M  END
>  <minimizedAffinity>  (1) 
-5.50423479

>  <minimizedRMSD>  (1) 
0.669129968

$$$$
