
     RDKit          3D

 22 22  0  0  0  0  0  0  0  0999 V2000
   38.2190   29.0720   43.3840 C   0  0  0  0  0  0  0  0  0  0  0  0
   37.6450   27.8540   43.8440 C   0  0  0  0  0  0  0  0  0  0  0  0
   36.6210   27.2990   43.0730 C   0  0  0  0  0  0  0  0  0  0  0  0
   36.2380   27.9440   41.9410 N   0  0  0  0  0  0  0  0  0  0  0  0
   36.8000   29.0990   41.5260 C   0  0  0  0  0  0  0  0  0  0  0  0
   37.7940   29.6560   42.2580 N   0  0  0  0  0  0  0  0  0  0  0  0
   36.2920   29.7100   40.2670 C   0  0  0  0  0  0  0  0  0  0  0  0
   36.4340   31.2070   40.4150 C   0  0  0  0  0  0  0  0  0  0  0  0
   34.8650   29.2670   40.0620 C   0  0  0  0  0  0  0  0  0  0  0  0
   37.1160   29.1760   39.1230 C   0  0  0  0  0  0  0  0  0  0  0  0
   39.0266   29.5418   43.9646 H   0  0  0  0  0  0  0  0  0  0  0  0
   37.9931   27.3697   44.7682 H   0  0  0  0  0  0  0  0  0  0  0  0
   36.1353   26.3598   43.3762 H   0  0  0  0  0  0  0  0  0  0  0  0
   36.4589   31.4691   41.4830 H   0  0  0  0  0  0  0  0  0  0  0  0
   37.3674   31.5360   39.9349 H   0  0  0  0  0  0  0  0  0  0  0  0
   35.5791   31.7057   39.9349 H   0  0  0  0  0  0  0  0  0  0  0  0
   34.3834   29.1175   41.0396 H   0  0  0  0  0  0  0  0  0  0  0  0
   34.3191   30.0380   39.4984 H   0  0  0  0  0  0  0  0  0  0  0  0
   34.8517   28.3224   39.4984 H   0  0  0  0  0  0  0  0  0  0  0  0
   37.9768   28.6181   39.5202 H   0  0  0  0  0  0  0  0  0  0  0  0
   36.4978   28.5064   38.5070 H   0  0  0  0  0  0  0  0  0  0  0  0
   37.4747   30.0138   38.5070 H   0  0  0  0  0  0  0  0  0  0  0  0
  1  2  2  0
  3  2  1  0
  4  3  2  0
  5  4  1  0
  5  6  2  0
  6  1  1  0
  7  8  1  0
  7  5  1  0
  9  7  1  0
 10  7  1  0
  1 11  1  0
  2 12  1  0
  3 13  1  0
  8 14  1  0
  8 15  1  0
  8 16  1  0
  9 17  1  0
  9 18  1  0
  9 19  1  0
 10 20  1  0
 10 21  1  0
 10 22  1  0
M  ISO  8  11  14  12  14  13  14  14   8  15   8  16   8  17   8  18   8
M  ISO  4  19   8  20   8  21   8  22   8
M  END
>  <minimizedAffinity>  (1) 
-3.54144144

>  <minimizedRMSD>  (1) 
0.36332649

$$$$
