
     RDKit          3D

 41 43  0  0  1  0  0  0  0  0999 V2000
   38.4160   30.5030   40.0550 C   0  0  2  0  0  0  0  0  0  0  0  0
   37.8030   30.6150   38.6230 C   0  0  0  0  0  0  0  0  0  0  0  0
   36.3480   30.3300   38.6840 C   0  0  0  0  0  0  0  0  0  0  0  0
   36.2380   29.3940   39.8510 C   0  0  0  0  0  0  0  0  0  0  0  0
   37.4250   29.6900   40.7540 C   0  0  1  0  0  0  0  0  0  0  0  0
   37.9880   28.4190   41.2570 N   0  0  0  0  0  0  0  0  0  0  0  0
   36.9060   27.5620   41.6200 C   0  0  0  0  0  0  0  0  0  0  0  0
   36.4960   27.6650   43.0710 C   0  0  0  0  0  0  0  0  0  0  0  0
   37.6220   27.5010   44.0360 C   0  0  0  0  0  0  0  0  0  0  0  0
   38.9590   27.7180   43.3990 C   0  0  0  0  0  0  0  0  0  0  0  0
   38.8930   28.7610   42.3090 C   0  0  0  0  0  0  0  0  0  0  0  0
   38.5490   31.7210   40.6350 O   0  0  0  0  0  0  0  0  0  0  0  0
   39.7840   32.3910   40.8660 C   0  0  0  0  0  0  0  0  0  0  0  0
   40.6530   31.6330   41.3470 O   0  0  0  0  0  0  0  0  0  0  0  0
   39.9520   33.7970   40.5530 C   0  0  0  0  0  0  0  0  0  0  0  0
   38.7240   34.4640   40.3030 C   0  0  0  0  0  0  0  0  0  0  0  0
   38.7950   35.8360   39.9840 C   0  0  0  0  0  0  0  0  0  0  0  0
   40.0350   36.4180   39.9400 N   0  0  0  0  0  0  0  0  0  0  0  0
   41.1660   35.7250   40.1890 C   0  0  0  0  0  0  0  0  0  0  0  0
   41.1110   34.4340   40.4900 N   0  0  0  0  0  0  0  0  0  0  0  0
   39.4284   30.0730   40.0657 H   0  0  0  0  0  0  0  0  0  0  0  0
   38.2914   29.8882   37.9572 H   0  0  0  0  0  0  0  0  0  0  0  0
   37.9614   31.6320   38.2349 H   0  0  0  0  0  0  0  0  0  0  0  0
   35.7716   31.2503   38.8592 H   0  0  0  0  0  0  0  0  0  0  0  0
   35.9486   29.9081   37.7499 H   0  0  0  0  0  0  0  0  0  0  0  0
   35.2961   29.5693   40.3915 H   0  0  0  0  0  0  0  0  0  0  0  0
   36.2404   28.3446   39.5213 H   0  0  0  0  0  0  0  0  0  0  0  0
   37.0945   30.2796   41.6218 H   0  0  0  0  0  0  0  0  0  0  0  0
   36.0372   27.8199   40.9966 H   0  0  0  0  0  0  0  0  0  0  0  0
   37.2522   26.5301   41.4612 H   0  0  0  0  0  0  0  0  0  0  0  0
   36.0440   28.6547   43.2327 H   0  0  0  0  0  0  0  0  0  0  0  0
   35.7932   26.8404   43.2610 H   0  0  0  0  0  0  0  0  0  0  0  0
   37.4971   28.2293   44.8509 H   0  0  0  0  0  0  0  0  0  0  0  0
   37.5938   26.4669   44.4099 H   0  0  0  0  0  0  0  0  0  0  0  0
   39.6713   28.0505   44.1685 H   0  0  0  0  0  0  0  0  0  0  0  0
   39.2830   26.7687   42.9475 H   0  0  0  0  0  0  0  0  0  0  0  0
   39.8985   28.8822   41.8797 H   0  0  0  0  0  0  0  0  0  0  0  0
   38.5250   29.6906   42.7677 H   0  0  0  0  0  0  0  0  0  0  0  0
   37.7610   33.9349   40.3557 H   0  0  0  0  0  0  0  0  0  0  0  0
   37.8856   36.4194   39.7774 H   0  0  0  0  0  0  0  0  0  0  0  0
   42.1400   36.2340   40.1421 H   0  0  0  0  0  0  0  0  0  0  0  0
  1 12  1  0
  1  5  1  0
  2  3  1  0
  2  1  1  0
  3  4  1  0
  4  5  1  0
  5  6  1  0
  6  7  1  0
  6 11  1  0
  7  8  1  0
  8  9  1  0
 10  9  1  0
 11 10  1  0
 12 13  1  0
 13 14  2  0
 15 13  1  0
 16 15  2  0
 17 16  1  0
 18 17  2  0
 18 19  1  0
 19 20  2  0
 20 15  1  0
  1 21  1  6
  2 22  1  0
  2 23  1  0
  3 24  1  0
  3 25  1  0
  4 26  1  0
  4 27  1  0
  5 28  1  1
  7 29  1  0
  7 30  1  0
  8 31  1  0
  8 32  1  0
  9 33  1  0
  9 34  1  0
 10 35  1  0
 10 36  1  0
 11 37  1  0
 11 38  1  0
 16 39  1  0
 17 40  1  0
 19 41  1  0
M  ISO  8  21  13  22  13  23  13  24  13  25  13  26  13  27  13  28  13
M  ISO  8  29  13  30  13  31  13  32  13  33  13  34  13  35  13  36  13
M  ISO  5  37  13  38  13  39  14  40  14  41  14
M  END
>  <minimizedAffinity>  (1) 
-5.2419982

>  <minimizedRMSD>  (1) 
6.86269855

$$$$
