
     RDKit          3D

 31 33  0  0  1  0  0  0  0  0999 V2000
   36.5840   29.8270   41.8350 C   0  0  2  0  0  0  0  0  0  0  0  0
   35.9270   28.8760   40.7750 C   0  0  0  0  0  0  0  0  0  0  0  0
   36.3610   29.2970   39.4150 C   0  0  0  0  0  0  0  0  0  0  0  0
   36.4650   30.7840   39.6070 C   0  0  0  0  0  0  0  0  0  0  0  0
   36.9640   30.9800   41.0280 C   0  0  2  0  0  0  0  0  0  0  0  0
   38.4670   31.0740   40.8520 C   0  0  0  0  0  0  0  0  0  0  0  0
   39.2500   30.4470   39.9590 N   0  0  0  0  0  0  0  0  0  0  0  0
   40.4870   30.7990   40.1370 O   0  0  0  0  0  0  0  0  0  0  0  0
   40.5600   31.6660   41.1470 C   0  0  0  0  0  0  0  0  0  0  0  0
   39.3030   31.8420   41.5980 N   0  0  0  0  0  0  0  0  0  0  0  0
   37.6800   29.2590   42.3810 O   0  0  0  0  0  0  0  0  0  0  0  0
   37.6870   28.2920   43.4240 C   0  0  0  0  0  0  0  0  0  0  0  0
   37.0340   28.6590   44.4220 O   0  0  0  0  0  0  0  0  0  0  0  0
   38.3950   27.0350   43.2750 C   0  0  0  0  0  0  0  0  0  0  0  0
   37.7200   26.1070   42.4400 C   0  0  0  0  0  0  0  0  0  0  0  0
   38.3380   24.8550   42.2410 C   0  0  0  0  0  0  0  0  0  0  0  0
   39.5220   24.6270   42.8580 N   0  0  0  0  0  0  0  0  0  0  0  0
   40.1270   25.5510   43.6520 C   0  0  0  0  0  0  0  0  0  0  0  0
   39.5510   26.7340   43.8430 N   0  0  0  0  0  0  0  0  0  0  0  0
   35.9174   30.0679   42.6762 H   0  0  0  0  0  0  0  0  0  0  0  0
   36.2464   27.8398   40.9603 H   0  0  0  0  0  0  0  0  0  0  0  0
   34.8311   28.9337   40.8510 H   0  0  0  0  0  0  0  0  0  0  0  0
   35.6125   29.0377   38.6517 H   0  0  0  0  0  0  0  0  0  0  0  0
   37.2840   28.8157   39.0596 H   0  0  0  0  0  0  0  0  0  0  0  0
   37.1768   31.2149   38.8875 H   0  0  0  0  0  0  0  0  0  0  0  0
   35.4988   31.2835   39.4431 H   0  0  0  0  0  0  0  0  0  0  0  0
   36.5508   31.8617   41.5399 H   0  0  0  0  0  0  0  0  0  0  0  0
   41.4704   32.1449   41.5366 H   0  0  0  0  0  0  0  0  0  0  0  0
   36.7571   26.3534   41.9687 H   0  0  0  0  0  0  0  0  0  0  0  0
   37.8730   24.0877   41.6046 H   0  0  0  0  0  0  0  0  0  0  0  0
   41.0886   25.3205   44.1339 H   0  0  0  0  0  0  0  0  0  0  0  0
  1 11  1  0
  2  1  1  0
  3  4  1  0
  3  2  1  0
  4  5  1  0
  5  1  1  0
  6  5  1  0
  6 10  1  0
  7  8  1  0
  7  6  2  0
  8  9  1  0
  9 10  2  0
 11 12  1  0
 12 13  2  0
 14 12  1  0
 14 19  1  0
 15 14  2  0
 16 15  1  0
 16 17  2  0
 17 18  1  0
 18 19  2  0
  1 20  1  1
  2 21  1  0
  2 22  1  0
  3 23  1  0
  3 24  1  0
  4 25  1  0
  4 26  1  0
  5 27  1  1
  9 28  1  0
 15 29  1  0
 16 30  1  0
 18 31  1  0
M  ISO  8  20  13  21  13  22  13  23  13  24  13  25  13  26  13  27  13
M  ISO  4  28  14  29  14  30  14  31  14
M  END
>  <minimizedAffinity>  (1) 
-4.68820381

>  <minimizedRMSD>  (1) 
0.588770628

$$$$
