
     RDKit          3D

 28 29  0  0  1  0  0  0  0  0999 V2000
   36.6630   29.7440   41.5070 C   0  0  2  0  0  0  0  0  0  0  0  0
   35.6260   28.7900   40.8370 C   0  0  0  0  0  0  0  0  0  0  0  0
   35.8100   28.8110   39.3670 C   0  0  0  0  0  0  0  0  0  0  0  0
   36.3260   30.2030   39.1210 C   0  0  0  0  0  0  0  0  0  0  0  0
   37.0120   30.6380   40.4090 C   0  0  1  0  0  0  0  0  0  0  0  0
   36.7240   32.0430   40.6830 N   0  0  0  0  0  0  0  0  0  0  0  0
   37.7510   29.0640   41.9560 O   0  0  0  0  0  0  0  0  0  0  0  0
   37.7500   28.1890   43.0820 C   0  0  0  0  0  0  0  0  0  0  0  0
   37.2060   28.7000   44.0880 O   0  0  0  0  0  0  0  0  0  0  0  0
   38.3250   26.8660   43.0070 C   0  0  0  0  0  0  0  0  0  0  0  0
   37.5200   25.9340   42.2980 C   0  0  0  0  0  0  0  0  0  0  0  0
   37.9820   24.6190   42.1750 C   0  0  0  0  0  0  0  0  0  0  0  0
   39.1890   24.3190   42.7530 N   0  0  0  0  0  0  0  0  0  0  0  0
   39.9180   25.2410   43.4170 C   0  0  0  0  0  0  0  0  0  0  0  0
   39.4800   26.5010   43.5370 N   0  0  0  0  0  0  0  0  0  0  0  0
   36.2723   30.2634   42.3945 H   0  0  0  0  0  0  0  0  0  0  0  0
   35.7757   27.7661   41.2103 H   0  0  0  0  0  0  0  0  0  0  0  0
   34.6078   29.1259   41.0829 H   0  0  0  0  0  0  0  0  0  0  0  0
   36.5414   28.0541   39.0474 H   0  0  0  0  0  0  0  0  0  0  0  0
   34.8916   28.5795   38.8076 H   0  0  0  0  0  0  0  0  0  0  0  0
   37.0449   30.2012   38.2884 H   0  0  0  0  0  0  0  0  0  0  0  0
   35.5105   30.8899   38.8506 H   0  0  0  0  0  0  0  0  0  0  0  0
   38.1030   30.5599   40.2925 H   0  0  0  0  0  0  0  0  0  0  0  0
   36.6929   32.1948   41.7013 H   0  0  0  0  0  0  0  0  0  0  0  0
   37.4618   32.6315   40.2705 H   0  0  0  0  0  0  0  0  0  0  0  0
   36.5591   26.2383   41.8575 H   0  0  0  0  0  0  0  0  0  0  0  0
   37.4004   23.8564   41.6363 H   0  0  0  0  0  0  0  0  0  0  0  0
   40.8814   24.9546   43.8640 H   0  0  0  0  0  0  0  0  0  0  0  0
  1  7  1  0
  2  1  1  0
  3  2  1  0
  4  3  1  0
  4  5  1  0
  5  6  1  0
  5  1  1  0
  7  8  1  0
  8  9  2  0
 10  8  1  0
 10 15  1  0
 11 10  2  0
 12 11  1  0
 12 13  2  0
 13 14  1  0
 14 15  2  0
  1 16  1  1
  2 17  1  0
  2 18  1  0
  3 19  1  0
  3 20  1  0
  4 21  1  0
  4 22  1  0
  5 23  1  6
  6 24  1  0
  6 25  1  0
 11 26  1  0
 12 27  1  0
 14 28  1  0
M  ISO  8  16  13  17  13  18  13  19  13  20  13  21  13  22  13  23  13
M  ISO  5  24   5  25   5  26  14  27  14  28  14
M  END
>  <minimizedAffinity>  (1) 
-4.60108662

>  <minimizedRMSD>  (1) 
0.386131465

$$$$
