
     RDKit          3D

 33 35  0  0  1  0  0  0  0  0999 V2000
   37.9800   29.2560   41.0540 C   0  0  2  0  0  0  0  0  0  0  0  0
   37.3700   29.4300   39.6220 C   0  0  0  0  0  0  0  0  0  0  0  0
   35.8970   29.6050   39.7510 C   0  0  0  0  0  0  0  0  0  0  0  0
   35.6150   28.7400   40.9420 C   0  0  0  0  0  0  0  0  0  0  0  0
   36.8040   28.9070   41.8550 C   0  0  1  0  0  0  0  0  0  0  0  0
   37.0160   27.7120   42.7540 C   0  0  0  0  0  0  0  0  0  0  0  0
   38.2330   27.5970   43.5660 C   0  0  0  0  0  0  0  0  0  0  0  0
   36.9780   28.0170   44.2650 C   0  0  0  0  0  0  0  0  0  0  0  0
   38.5050   30.4140   41.5030 O   0  0  0  0  0  0  0  0  0  0  0  0
   39.5280   31.1680   40.8660 C   0  0  0  0  0  0  0  0  0  0  0  0
   40.5240   30.4710   40.5820 O   0  0  0  0  0  0  0  0  0  0  0  0
   39.3640   32.5820   40.5990 C   0  0  0  0  0  0  0  0  0  0  0  0
   38.0400   32.9400   40.2360 C   0  0  0  0  0  0  0  0  0  0  0  0
   37.7980   34.2960   39.9530 C   0  0  0  0  0  0  0  0  0  0  0  0
   38.8470   35.1610   40.0480 N   0  0  0  0  0  0  0  0  0  0  0  0
   40.0910   34.7700   40.3980 C   0  0  0  0  0  0  0  0  0  0  0  0
   40.3260   33.4870   40.6680 N   0  0  0  0  0  0  0  0  0  0  0  0
   38.7926   28.5154   41.0890 H   0  0  0  0  0  0  0  0  0  0  0  0
   37.5855   28.5373   39.0165 H   0  0  0  0  0  0  0  0  0  0  0  0
   37.8112   30.3094   39.1300 H   0  0  0  0  0  0  0  0  0  0  0  0
   35.6291   30.6549   39.9406 H   0  0  0  0  0  0  0  0  0  0  0  0
   35.3259   29.3389   38.8493 H   0  0  0  0  0  0  0  0  0  0  0  0
   34.6944   29.0691   41.4463 H   0  0  0  0  0  0  0  0  0  0  0  0
   35.4663   27.6885   40.6554 H   0  0  0  0  0  0  0  0  0  0  0  0
   36.6105   29.7366   42.5510 H   0  0  0  0  0  0  0  0  0  0  0  0
   36.5177   27.0289   42.0504 H   0  0  0  0  0  0  0  0  0  0  0  0
   38.6591   26.6030   43.7669 H   0  0  0  0  0  0  0  0  0  0  0  0
   39.2428   28.0265   43.4900 H   0  0  0  0  0  0  0  0  0  0  0  0
   36.8590   29.0510   44.6208 H   0  0  0  0  0  0  0  0  0  0  0  0
   36.3973   27.6620   45.1291 H   0  0  0  0  0  0  0  0  0  0  0  0
   37.2378   32.1896   40.1784 H   0  0  0  0  0  0  0  0  0  0  0  0
   36.7961   34.6467   39.6647 H   0  0  0  0  0  0  0  0  0  0  0  0
   40.9056   35.5066   40.4598 H   0  0  0  0  0  0  0  0  0  0  0  0
  1  9  1  0
  1  5  1  0
  2  3  1  0
  2  1  1  0
  3  4  1  0
  4  5  1  0
  5  6  1  0
  6  7  1  0
  6  8  1  0
  7  8  1  0
 10  9  1  0
 11 10  2  0
 12 17  1  0
 12 10  1  0
 13 12  2  0
 14 15  2  0
 14 13  1  0
 15 16  1  0
 16 17  2  0
  1 18  1  6
  2 19  1  0
  2 20  1  0
  3 21  1  0
  3 22  1  0
  4 23  1  0
  4 24  1  0
  5 25  1  1
  6 26  1  0
  7 27  1  0
  7 28  1  0
  8 29  1  0
  8 30  1  0
 13 31  1  0
 14 32  1  0
 16 33  1  0
M  ISO  8  18  13  19  13  20  13  21  13  22  13  23  13  24  13  25  13
M  ISO  8  26  13  27  13  28  13  29  13  30  13  31  14  32  14  33  14
M  END
>  <minimizedAffinity>  (1) 
-4.71519566

>  <minimizedRMSD>  (1) 
6.16191769

$$$$
