
     RDKit          3D

 47 51  0  0  1  0  0  0  0  0999 V2000
   38.2620   30.6690   41.5990 O   0  0  0  0  0  0  0  0  0  0  0  0
   37.9000   29.4770   41.1340 C   0  0  2  0  0  0  0  0  0  0  0  0
   37.2640   29.7630   39.6510 C   0  0  0  0  0  0  0  0  0  0  0  0
   35.8080   29.8140   39.7510 C   0  0  0  0  0  0  0  0  0  0  0  0
   35.5580   28.8350   40.8400 C   0  0  0  0  0  0  0  0  0  0  0  0
   36.7340   28.9990   41.7980 C   0  0  1  0  0  0  0  0  0  0  0  0
   36.9570   27.7690   42.6310 C   0  0  0  0  0  0  0  0  0  0  0  0
   38.1880   27.6290   43.4140 C   0  0  0  0  0  0  0  0  0  0  0  0
   36.9380   27.9730   44.1670 C   0  0  0  0  0  0  0  0  0  0  0  0
   39.6150   31.0890   41.8390 C   0  0  0  0  0  0  0  0  0  0  0  0
   40.3060   30.3280   42.4870 O   0  0  0  0  0  0  0  0  0  0  0  0
   40.0150   32.3770   41.2730 C   0  0  0  0  0  0  0  0  0  0  0  0
   38.9270   33.1830   40.8010 C   0  0  0  0  0  0  0  0  0  0  0  0
   39.2570   34.4080   40.2210 C   0  0  0  0  0  0  0  0  0  0  0  0
   40.5650   34.7550   40.1410 N   0  0  0  0  0  0  0  0  0  0  0  0
   41.5550   33.9800   40.5920 C   0  0  0  0  0  0  0  0  0  0  0  0
   41.2340   32.8300   41.1360 N   0  0  0  0  0  0  0  0  0  0  0  0
   43.0090   34.1850   40.5910 C   0  0  0  0  0  0  0  0  0  0  0  0
   43.8640   33.6190   39.7030 N   0  0  0  0  0  0  0  0  0  0  0  0
   45.1840   33.8030   39.6970 C   0  0  0  0  0  0  0  0  0  0  0  0
   45.7910   34.5900   40.5980 N   0  0  0  0  0  0  0  0  0  0  0  0
   45.0260   35.1960   41.5220 C   0  0  0  0  0  0  0  0  0  0  0  0
   45.6620   36.0020   42.4420 C   0  0  0  0  0  0  0  0  0  0  0  0
   44.9390   36.6570   43.4170 C   0  0  0  0  0  0  0  0  0  0  0  0
   43.5580   36.4540   43.4110 C   0  0  0  0  0  0  0  0  0  0  0  0
   42.9890   35.6410   42.4680 C   0  0  0  0  0  0  0  0  0  0  0  0
   43.6670   34.9820   41.4970 C   0  0  0  0  0  0  0  0  0  0  0  0
   38.7620   28.7986   41.2162 H   0  0  0  0  0  0  0  0  0  0  0  0
   37.5569   28.9556   38.9638 H   0  0  0  0  0  0  0  0  0  0  0  0
   37.6405   30.7229   39.2679 H   0  0  0  0  0  0  0  0  0  0  0  0
   35.4580   30.8201   40.0254 H   0  0  0  0  0  0  0  0  0  0  0  0
   35.2831   29.5871   38.8113 H   0  0  0  0  0  0  0  0  0  0  0  0
   34.6097   29.0587   41.3505 H   0  0  0  0  0  0  0  0  0  0  0  0
   35.4763   27.8062   40.4593 H   0  0  0  0  0  0  0  0  0  0  0  0
   36.4720   29.7878   42.5185 H   0  0  0  0  0  0  0  0  0  0  0  0
   36.4457   27.1254   41.9000 H   0  0  0  0  0  0  0  0  0  0  0  0
   38.6394   26.6338   43.5399 H   0  0  0  0  0  0  0  0  0  0  0  0
   39.1860   28.0870   43.3489 H   0  0  0  0  0  0  0  0  0  0  0  0
   36.8036   28.9779   44.5938 H   0  0  0  0  0  0  0  0  0  0  0  0
   36.3821   27.5487   45.0161 H   0  0  0  0  0  0  0  0  0  0  0  0
   37.8822   32.8512   40.8919 H   0  0  0  0  0  0  0  0  0  0  0  0
   38.4732   35.0776   39.8371 H   0  0  0  0  0  0  0  0  0  0  0  0
   45.7918   33.2961   38.9330 H   0  0  0  0  0  0  0  0  0  0  0  0
   46.7544   36.1237   42.3982 H   0  0  0  0  0  0  0  0  0  0  0  0
   45.4253   37.3055   44.1606 H   0  0  0  0  0  0  0  0  0  0  0  0
   42.9266   36.9476   44.1644 H   0  0  0  0  0  0  0  0  0  0  0  0
   41.8970   35.5127   42.5009 H   0  0  0  0  0  0  0  0  0  0  0  0
  1 10  1  0
  2  1  1  0
  2  6  1  0
  3  4  1  0
  3  2  1  0
  4  5  1  0
  5  6  1  0
  6  7  1  0
  7  8  1  0
  7  9  1  0
  8  9  1  0
 10 11  2  0
 12 10  1  0
 13 12  2  0
 14 13  1  0
 15 14  2  0
 15 16  1  0
 16 17  2  0
 17 12  1  0
 18 16  1  0
 18 27  1  0
 19 18  2  0
 20 19  1  0
 20 21  2  0
 21 22  1  0
 22 23  1  0
 23 24  2  0
 25 24  1  0
 26 25  2  0
 27 22  2  0
 27 26  1  0
  2 28  1  6
  3 29  1  0
  3 30  1  0
  4 31  1  0
  4 32  1  0
  5 33  1  0
  5 34  1  0
  6 35  1  1
  7 36  1  0
  8 37  1  0
  8 38  1  0
  9 39  1  0
  9 40  1  0
 13 41  1  0
 14 42  1  0
 20 43  1  0
 23 44  1  0
 24 45  1  0
 25 46  1  0
 26 47  1  0
M  ISO  8  28  13  29  13  30  13  31  13  32  13  33  13  34  13  35  13
M  ISO  8  36  13  37  13  38  13  39  13  40  13  41  14  42  14  43  14
M  ISO  4  44  14  45  14  46  14  47  14
M  END
>  <minimizedAffinity>  (1) 
-6.98604345

>  <minimizedRMSD>  (1) 
2.29699063

$$$$
