
     RDKit          3D

 49 53  0  0  1  0  0  0  0  0999 V2000
   37.8270   28.5460   40.5000 C   0  0  2  0  0  0  0  0  0  0  0  0
   36.9840   28.8800   39.1370 C   0  0  0  0  0  0  0  0  0  0  0  0
   35.7880   29.6370   39.4820 C   0  0  0  0  0  0  0  0  0  0  0  0
   35.4560   29.0470   40.8050 C   0  0  0  0  0  0  0  0  0  0  0  0
   36.8050   28.7780   41.4640 C   0  0  1  0  0  0  0  0  0  0  0  0
   36.7120   27.7300   42.5380 C   0  0  0  0  0  0  0  0  0  0  0  0
   37.9300   27.1970   43.1500 C   0  0  0  0  0  0  0  0  0  0  0  0
   37.1310   28.1770   43.9620 C   0  0  0  0  0  0  0  0  0  0  0  0
   38.7750   29.4740   40.5700 O   0  0  0  0  0  0  0  0  0  0  0  0
   39.9430   29.5320   39.7320 C   0  0  0  0  0  0  0  0  0  0  0  0
   40.5070   28.4720   39.5320 O   0  0  0  0  0  0  0  0  0  0  0  0
   40.3140   30.8520   39.2120 C   0  0  0  0  0  0  0  0  0  0  0  0
   40.6310   30.8760   37.8230 C   0  0  0  0  0  0  0  0  0  0  0  0
   41.0210   32.1050   37.2730 C   0  0  0  0  0  0  0  0  0  0  0  0
   41.0660   33.1860   38.1180 N   0  0  0  0  0  0  0  0  0  0  0  0
   40.7550   33.1140   39.4280 C   0  0  0  0  0  0  0  0  0  0  0  0
   40.3980   31.9550   39.8980 N   0  0  0  0  0  0  0  0  0  0  0  0
   40.8870   34.4060   40.0800 C   0  0  0  0  0  0  0  0  0  0  0  0
   40.0030   35.4340   39.8260 C   0  0  0  0  0  0  0  0  0  0  0  0
   40.0670   36.6820   40.4080 C   0  0  0  0  0  0  0  0  0  0  0  0
   41.0660   36.9660   41.3090 C   0  0  0  0  0  0  0  0  0  0  0  0
   41.9780   35.9790   41.6030 C   0  0  0  0  0  0  0  0  0  0  0  0
   42.9750   36.2730   42.5080 C   0  0  0  0  0  0  0  0  0  0  0  0
   43.9240   35.3320   42.8500 C   0  0  0  0  0  0  0  0  0  0  0  0
   43.8130   34.0870   42.2320 C   0  0  0  0  0  0  0  0  0  0  0  0
   42.8030   33.8520   41.3430 C   0  0  0  0  0  0  0  0  0  0  0  0
   41.8550   34.7550   40.9850 C   0  0  0  0  0  0  0  0  0  0  0  0
   38.3069   27.5608   40.5951 H   0  0  0  0  0  0  0  0  0  0  0  0
   36.6942   27.9399   38.6449 H   0  0  0  0  0  0  0  0  0  0  0  0
   37.6098   29.4725   38.4534 H   0  0  0  0  0  0  0  0  0  0  0  0
   35.9992   30.7137   39.5606 H   0  0  0  0  0  0  0  0  0  0  0  0
   34.9791   29.5733   38.7393 H   0  0  0  0  0  0  0  0  0  0  0  0
   34.8653   29.7535   41.4066 H   0  0  0  0  0  0  0  0  0  0  0  0
   34.8513   28.1329   40.7110 H   0  0  0  0  0  0  0  0  0  0  0  0
   37.1109   29.6930   41.9923 H   0  0  0  0  0  0  0  0  0  0  0  0
   35.8342   27.2617   42.0688 H   0  0  0  0  0  0  0  0  0  0  0  0
   37.9647   26.1411   43.4564 H   0  0  0  0  0  0  0  0  0  0  0  0
   38.9825   27.1524   42.8334 H   0  0  0  0  0  0  0  0  0  0  0  0
   37.5097   29.1947   44.1379 H   0  0  0  0  0  0  0  0  0  0  0  0
   36.6662   28.1888   44.9589 H   0  0  0  0  0  0  0  0  0  0  0  0
   40.5720   29.9666   37.2070 H   0  0  0  0  0  0  0  0  0  0  0  0
   41.2803   32.1993   36.2082 H   0  0  0  0  0  0  0  0  0  0  0  0
   39.1904   35.2448   39.1091 H   0  0  0  0  0  0  0  0  0  0  0  0
   39.3208   37.4486   40.1522 H   0  0  0  0  0  0  0  0  0  0  0  0
   41.1342   37.9566   41.7824 H   0  0  0  0  0  0  0  0  0  0  0  0
   43.0146   37.2730   42.9645 H   0  0  0  0  0  0  0  0  0  0  0  0
   44.7249   35.5519   43.5712 H   0  0  0  0  0  0  0  0  0  0  0  0
   44.5395   33.2933   42.4606 H   0  0  0  0  0  0  0  0  0  0  0  0
   42.7542   32.8545   40.8819 H   0  0  0  0  0  0  0  0  0  0  0  0
  1  9  1  0
  1  5  1  0
  2  3  1  0
  2  1  1  0
  3  4  1  0
  4  5  1  0
  5  6  1  0
  6  7  1  0
  6  8  1  0
  7  8  1  0
 10  9  1  0
 11 10  2  0
 12 10  1  0
 12 17  1  0
 13 12  2  0
 14 13  1  0
 14 15  2  0
 15 16  1  0
 16 17  2  0
 16 18  1  0
 18 27  1  0
 19 18  2  0
 19 20  1  0
 20 21  2  0
 21 22  1  0
 22 23  2  0
 23 24  1  0
 25 24  2  0
 26 25  1  0
 27 26  2  0
 27 22  1  0
  1 28  1  6
  2 29  1  0
  2 30  1  0
  3 31  1  0
  3 32  1  0
  4 33  1  0
  4 34  1  0
  5 35  1  1
  6 36  1  0
  7 37  1  0
  7 38  1  0
  8 39  1  0
  8 40  1  0
 13 41  1  0
 14 42  1  0
 19 43  1  0
 20 44  1  0
 21 45  1  0
 23 46  1  0
 24 47  1  0
 25 48  1  0
 26 49  1  0
M  ISO  8  28  13  29  13  30  13  31  13  32  13  33  13  34  13  35  13
M  ISO  8  36  13  37  13  38  13  39  13  40  13  41  14  42  14  43  14
M  ISO  6  44  14  45  14  46  14  47  14  48  14  49  14
M  END
>  <minimizedAffinity>  (1) 
-6.7032795

>  <minimizedRMSD>  (1) 
2.1332469

$$$$
