
     RDKit          3D

 22 22  0  0  0  0  0  0  0  0999 V2000
   39.0700   29.7700   42.7510 C   0  0  0  0  0  0  0  0  0  0  0  0
   37.8950   28.9920   42.6730 C   0  0  0  0  0  0  0  0  0  0  0  0
   36.9000   29.4080   41.7900 C   0  0  0  0  0  0  0  0  0  0  0  0
   37.1140   30.5390   41.0520 N   0  0  0  0  0  0  0  0  0  0  0  0
   38.2590   31.2580   41.1570 C   0  0  0  0  0  0  0  0  0  0  0  0
   39.2320   30.8730   42.0040 N   0  0  0  0  0  0  0  0  0  0  0  0
   37.6320   27.7720   43.4510 C   0  0  0  0  0  0  0  0  0  0  0  0
   38.9210   27.0930   43.8560 C   0  0  0  0  0  0  0  0  0  0  0  0
   36.8350   28.0870   44.7000 C   0  0  0  0  0  0  0  0  0  0  0  0
   36.8410   26.7730   42.6300 C   0  0  0  0  0  0  0  0  0  0  0  0
   39.8715   29.4652   43.4400 H   0  0  0  0  0  0  0  0  0  0  0  0
   35.9638   28.8393   41.6891 H   0  0  0  0  0  0  0  0  0  0  0  0
   38.3937   32.1625   40.5456 H   0  0  0  0  0  0  0  0  0  0  0  0
   38.9878   27.0578   44.9534 H   0  0  0  0  0  0  0  0  0  0  0  0
   38.9378   26.0690   43.4546 H   0  0  0  0  0  0  0  0  0  0  0  0
   39.7750   27.6583   43.4546 H   0  0  0  0  0  0  0  0  0  0  0  0
   37.4374   27.8489   45.5891 H   0  0  0  0  0  0  0  0  0  0  0  0
   36.5746   29.1557   44.7090 H   0  0  0  0  0  0  0  0  0  0  0  0
   35.9143   27.4851   44.7090 H   0  0  0  0  0  0  0  0  0  0  0  0
   36.3010   26.0910   43.3032 H   0  0  0  0  0  0  0  0  0  0  0  0
   36.1199   27.3091   41.9955 H   0  0  0  0  0  0  0  0  0  0  0  0
   37.5282   26.1940   41.9955 H   0  0  0  0  0  0  0  0  0  0  0  0
  2  1  2  0
  2  7  1  0
  3  2  1  0
  4  5  1  0
  4  3  2  0
  5  6  2  0
  6  1  1  0
  7  8  1  0
  7  9  1  0
 10  7  1  0
  1 11  1  0
  3 12  1  0
  5 13  1  0
  8 14  1  0
  8 15  1  0
  8 16  1  0
  9 17  1  0
  9 18  1  0
  9 19  1  0
 10 20  1  0
 10 21  1  0
 10 22  1  0
M  ISO  8  11  14  12  14  13  14  14   8  15   8  16   8  17   8  18   8
M  ISO  4  19   8  20   8  21   8  22   8
M  END
>  <minimizedAffinity>  (1) 
-3.81368852

>  <minimizedRMSD>  (1) 
1.97149622

$$$$
