
     RDKit          3D

 46 49  0  0  1  0  0  0  0  0999 V2000
   37.8850   29.1550   41.0030 C   0  0  2  0  0  0  0  0  0  0  0  0
   37.1330   29.3700   39.5730 C   0  0  0  0  0  0  0  0  0  0  0  0
   35.7100   29.6150   39.8110 C   0  0  0  0  0  0  0  0  0  0  0  0
   35.4790   28.7450   40.9960 C   0  0  0  0  0  0  0  0  0  0  0  0
   36.7600   28.8580   41.8190 C   0  0  1  0  0  0  0  0  0  0  0  0
   36.9400   27.6860   42.7400 C   0  0  0  0  0  0  0  0  0  0  0  0
   38.1780   27.5440   43.5100 C   0  0  0  0  0  0  0  0  0  0  0  0
   36.9520   28.0000   44.2550 C   0  0  0  0  0  0  0  0  0  0  0  0
   38.4180   30.3300   41.3190 O   0  0  0  0  0  0  0  0  0  0  0  0
   39.5350   30.9410   40.6530 C   0  0  0  0  0  0  0  0  0  0  0  0
   40.3800   30.1820   40.2130 O   0  0  0  0  0  0  0  0  0  0  0  0
   39.5260   32.4080   40.5690 C   0  0  0  0  0  0  0  0  0  0  0  0
   38.2940   32.9620   40.1000 C   0  0  0  0  0  0  0  0  0  0  0  0
   38.2270   34.3570   39.9720 C   0  0  0  0  0  0  0  0  0  0  0  0
   39.3370   35.0790   40.3020 N   0  0  0  0  0  0  0  0  0  0  0  0
   40.4780   34.5040   40.7410 C   0  0  0  0  0  0  0  0  0  0  0  0
   40.5470   33.1900   40.8630 N   0  0  0  0  0  0  0  0  0  0  0  0
   41.5960   35.3230   41.0670 N   0  0  0  0  0  0  0  0  0  0  0  0
   41.4390   36.6780   41.5640 C   0  0  0  0  0  0  0  0  0  0  0  0
   42.2870   36.8280   42.8290 C   0  0  0  0  0  0  0  0  0  0  0  0
   43.5490   36.3120   42.6660 O   0  0  0  0  0  0  0  0  0  0  0  0
   43.5670   34.9660   42.3260 C   0  0  0  0  0  0  0  0  0  0  0  0
   42.9600   34.8510   40.9220 C   0  0  0  0  0  0  0  0  0  0  0  0
   38.6821   28.3994   41.0641 H   0  0  0  0  0  0  0  0  0  0  0  0
   37.2529   28.4681   38.9548 H   0  0  0  0  0  0  0  0  0  0  0  0
   37.5740   30.2305   39.0487 H   0  0  0  0  0  0  0  0  0  0  0  0
   35.5128   30.6728   40.0393 H   0  0  0  0  0  0  0  0  0  0  0  0
   35.0581   29.4008   38.9513 H   0  0  0  0  0  0  0  0  0  0  0  0
   34.6139   29.1006   41.5750 H   0  0  0  0  0  0  0  0  0  0  0  0
   35.2590   27.7055   40.7112 H   0  0  0  0  0  0  0  0  0  0  0  0
   36.6627   29.7244   42.4897 H   0  0  0  0  0  0  0  0  0  0  0  0
   36.3859   27.0159   42.0662 H   0  0  0  0  0  0  0  0  0  0  0  0
   38.5860   26.5404   43.7003 H   0  0  0  0  0  0  0  0  0  0  0  0
   39.1948   27.9484   43.3978 H   0  0  0  0  0  0  0  0  0  0  0  0
   36.8694   29.0380   44.6096 H   0  0  0  0  0  0  0  0  0  0  0  0
   36.3904   27.6639   45.1391 H   0  0  0  0  0  0  0  0  0  0  0  0
   37.4354   32.3213   39.8503 H   0  0  0  0  0  0  0  0  0  0  0  0
   37.3109   34.8523   39.6177 H   0  0  0  0  0  0  0  0  0  0  0  0
   41.7780   37.3952   40.8019 H   0  0  0  0  0  0  0  0  0  0  0  0
   40.3814   36.8778   41.7912 H   0  0  0  0  0  0  0  0  0  0  0  0
   42.3694   37.8966   43.0768 H   0  0  0  0  0  0  0  0  0  0  0  0
   41.7931   36.2692   43.6376 H   0  0  0  0  0  0  0  0  0  0  0  0
   44.6010   34.5908   42.3226 H   0  0  0  0  0  0  0  0  0  0  0  0
   42.9945   34.3697   43.0517 H   0  0  0  0  0  0  0  0  0  0  0  0
   42.9738   33.8061   40.5785 H   0  0  0  0  0  0  0  0  0  0  0  0
   43.5233   35.4329   40.1777 H   0  0  0  0  0  0  0  0  0  0  0  0
  1  9  1  0
  1  5  1  0
  2  3  1  0
  2  1  1  0
  3  4  1  0
  4  5  1  0
  5  6  1  0
  6  7  1  0
  6  8  1  0
  7  8  1  0
 10  9  1  0
 11 10  2  0
 12 10  1  0
 12 17  1  0
 13 12  2  0
 14 13  1  0
 14 15  2  0
 15 16  1  0
 16 17  2  0
 16 18  1  0
 18 19  1  0
 19 20  1  0
 21 20  1  0
 22 21  1  0
 23 18  1  0
 23 22  1  0
  1 24  1  6
  2 25  1  0
  2 26  1  0
  3 27  1  0
  3 28  1  0
  4 29  1  0
  4 30  1  0
  5 31  1  1
  6 32  1  0
  7 33  1  0
  7 34  1  0
  8 35  1  0
  8 36  1  0
 13 37  1  0
 14 38  1  0
 19 39  1  0
 19 40  1  0
 20 41  1  0
 20 42  1  0
 22 43  1  0
 22 44  1  0
 23 45  1  0
 23 46  1  0
M  ISO  8  24  13  25  13  26  13  27  13  28  13  29  13  30  13  31  13
M  ISO  8  32  13  33  13  34  13  35  13  36  13  37  14  38  14  39  13
M  ISO  7  40  13  41  13  42  13  43  13  44  13  45  13  46  13
M  END
>  <minimizedAffinity>  (1) 
-6.2858119

>  <minimizedRMSD>  (1) 
0.609362125

$$$$
