
     RDKit          3D

 49 52  0  0  1  0  0  0  0  0999 V2000
   37.9130   29.2850   40.8510 C   0  0  2  0  0  0  0  0  0  0  0  0
   37.1020   29.5500   39.4560 C   0  0  0  0  0  0  0  0  0  0  0  0
   35.6860   29.7630   39.7560 C   0  0  0  0  0  0  0  0  0  0  0  0
   35.5080   28.8640   40.9240 C   0  0  0  0  0  0  0  0  0  0  0  0
   36.8130   28.9680   41.7040 C   0  0  1  0  0  0  0  0  0  0  0  0
   37.0410   27.7720   42.5860 C   0  0  0  0  0  0  0  0  0  0  0  0
   38.2710   27.6630   43.3710 C   0  0  0  0  0  0  0  0  0  0  0  0
   37.0300   28.0390   44.1120 C   0  0  0  0  0  0  0  0  0  0  0  0
   38.4490   30.4590   41.1880 O   0  0  0  0  0  0  0  0  0  0  0  0
   39.5560   31.0800   40.5100 C   0  0  0  0  0  0  0  0  0  0  0  0
   40.3720   30.3230   40.0110 O   0  0  0  0  0  0  0  0  0  0  0  0
   39.5830   32.5420   40.4810 C   0  0  0  0  0  0  0  0  0  0  0  0
   38.3250   33.1440   40.1330 C   0  0  0  0  0  0  0  0  0  0  0  0
   38.2800   34.5440   40.0610 C   0  0  0  0  0  0  0  0  0  0  0  0
   39.4310   35.2250   40.3260 N   0  0  0  0  0  0  0  0  0  0  0  0
   40.5880   34.6290   40.6490 C   0  0  0  0  0  0  0  0  0  0  0  0
   40.6320   33.3000   40.7180 N   0  0  0  0  0  0  0  0  0  0  0  0
   41.8240   35.4120   40.9310 C   0  0  0  0  0  0  0  0  0  0  0  0
   42.9580   34.4950   41.2240 C   0  0  0  0  0  0  0  0  0  0  0  0
   43.6320   34.7130   42.5480 C   0  0  0  0  0  0  0  0  0  0  0  0
   43.9370   36.1970   42.6160 C   0  0  0  0  0  0  0  0  0  0  0  0
   42.5730   36.8180   42.9160 C   0  0  0  0  0  0  0  0  0  0  0  0
   41.5200   36.4560   41.9440 C   0  0  0  0  0  0  0  0  0  0  0  0
   38.7111   28.5280   40.8537 H   0  0  0  0  0  0  0  0  0  0  0  0
   37.2109   28.6771   38.7955 H   0  0  0  0  0  0  0  0  0  0  0  0
   37.5112   30.4389   38.9537 H   0  0  0  0  0  0  0  0  0  0  0  0
   35.4814   30.8116   40.0179 H   0  0  0  0  0  0  0  0  0  0  0  0
   35.0073   29.5558   38.9155 H   0  0  0  0  0  0  0  0  0  0  0  0
   34.6607   29.1961   41.5419 H   0  0  0  0  0  0  0  0  0  0  0  0
   35.2896   27.8297   40.6199 H   0  0  0  0  0  0  0  0  0  0  0  0
   36.7258   29.8182   42.3965 H   0  0  0  0  0  0  0  0  0  0  0  0
   36.5279   27.0998   41.8825 H   0  0  0  0  0  0  0  0  0  0  0  0
   38.7210   26.6730   43.5367 H   0  0  0  0  0  0  0  0  0  0  0  0
   39.2693   28.1167   43.2838 H   0  0  0  0  0  0  0  0  0  0  0  0
   36.8997   29.0609   44.4977 H   0  0  0  0  0  0  0  0  0  0  0  0
   36.4773   27.6512   44.9804 H   0  0  0  0  0  0  0  0  0  0  0  0
   37.4338   32.5316   39.9313 H   0  0  0  0  0  0  0  0  0  0  0  0
   37.3511   35.0726   39.8006 H   0  0  0  0  0  0  0  0  0  0  0  0
   42.1709   35.9731   40.0508 H   0  0  0  0  0  0  0  0  0  0  0  0
   42.5758   33.4638   41.2026 H   0  0  0  0  0  0  0  0  0  0  0  0
   43.7200   34.6977   40.4570 H   0  0  0  0  0  0  0  0  0  0  0  0
   42.9632   34.4211   43.3711 H   0  0  0  0  0  0  0  0  0  0  0  0
   44.5451   34.1069   42.6425 H   0  0  0  0  0  0  0  0  0  0  0  0
   44.6558   36.4160   43.4193 H   0  0  0  0  0  0  0  0  0  0  0  0
   44.3964   36.5866   41.6956 H   0  0  0  0  0  0  0  0  0  0  0  0
   42.2525   36.4832   43.9136 H   0  0  0  0  0  0  0  0  0  0  0  0
   42.7001   37.9090   42.8555 H   0  0  0  0  0  0  0  0  0  0  0  0
   41.2529   37.3723   41.3971 H   0  0  0  0  0  0  0  0  0  0  0  0
   40.7236   36.0126   42.5597 H   0  0  0  0  0  0  0  0  0  0  0  0
  1  9  1  0
  1  5  1  0
  2  3  1  0
  2  1  1  0
  3  4  1  0
  4  5  1  0
  5  6  1  0
  6  7  1  0
  6  8  1  0
  7  8  1  0
 10  9  1  0
 11 10  2  0
 12 10  1  0
 12 17  1  0
 13 12  2  0
 14 13  1  0
 14 15  2  0
 15 16  1  0
 16 17  2  0
 16 18  1  0
 18 19  1  0
 18 23  1  0
 19 20  1  0
 20 21  1  0
 21 22  1  0
 23 22  1  0
  1 24  1  6
  2 25  1  0
  2 26  1  0
  3 27  1  0
  3 28  1  0
  4 29  1  0
  4 30  1  0
  5 31  1  1
  6 32  1  0
  7 33  1  0
  7 34  1  0
  8 35  1  0
  8 36  1  0
 13 37  1  0
 14 38  1  0
 18 39  1  0
 19 40  1  0
 19 41  1  0
 20 42  1  0
 20 43  1  0
 21 44  1  0
 21 45  1  0
 22 46  1  0
 22 47  1  0
 23 48  1  0
 23 49  1  0
M  ISO  8  24  13  25  13  26  13  27  13  28  13  29  13  30  13  31  13
M  ISO  8  32  13  33  13  34  13  35  13  36  13  37  14  38  14  39  13
M  ISO  8  40  13  41  13  42  13  43  13  44  13  45  13  46  13  47  13
M  ISO  2  48  13  49  13
M  END
>  <minimizedAffinity>  (1) 
-6.18053627

>  <minimizedRMSD>  (1) 
1.36720765

$$$$
