
     RDKit          3D

 40 43  0  0  1  0  0  0  0  0999 V2000
   37.8750   29.7150   40.3190 C   0  0  2  0  0  0  0  0  0  0  0  0
   36.7710   29.7520   39.1170 C   0  0  0  0  0  0  0  0  0  0  0  0
   35.4330   29.8110   39.6910 C   0  0  0  0  0  0  0  0  0  0  0  0
   35.6220   28.9920   40.9180 C   0  0  0  0  0  0  0  0  0  0  0  0
   37.0310   29.3230   41.3970 C   0  0  1  0  0  0  0  0  0  0  0  0
   37.5980   28.2420   42.2730 C   0  0  0  0  0  0  0  0  0  0  0  0
   38.7610   28.5210   43.1200 C   0  0  0  0  0  0  0  0  0  0  0  0
   37.4280   28.4410   43.8010 C   0  0  0  0  0  0  0  0  0  0  0  0
   38.2940   30.9680   40.4680 O   0  0  0  0  0  0  0  0  0  0  0  0
   39.4710   31.5230   39.8540 C   0  0  0  0  0  0  0  0  0  0  0  0
   40.0710   30.7890   39.0870 O   0  0  0  0  0  0  0  0  0  0  0  0
   39.8110   32.9050   40.2100 C   0  0  0  0  0  0  0  0  0  0  0  0
   38.7550   33.8430   40.0040 C   0  0  0  0  0  0  0  0  0  0  0  0
   39.0200   35.1890   40.2940 C   0  0  0  0  0  0  0  0  0  0  0  0
   40.2630   35.5050   40.7510 N   0  0  0  0  0  0  0  0  0  0  0  0
   41.2390   34.5760   40.9320 C   0  0  0  0  0  0  0  0  0  0  0  0
   40.9850   33.3040   40.6580 N   0  0  0  0  0  0  0  0  0  0  0  0
   42.5280   34.9400   41.4120 N   0  0  0  0  0  0  0  0  0  0  0  0
   42.8590   35.8540   42.3080 N   0  0  0  0  0  0  0  0  0  0  0  0
   44.1950   35.9020   42.4940 C   0  0  0  0  0  0  0  0  0  0  0  0
   44.7310   34.9360   41.6410 C   0  0  0  0  0  0  0  0  0  0  0  0
   43.6540   34.3530   40.9770 C   0  0  0  0  0  0  0  0  0  0  0  0
   38.7607   29.0744   40.1957 H   0  0  0  0  0  0  0  0  0  0  0  0
   36.8671   28.8448   38.5023 H   0  0  0  0  0  0  0  0  0  0  0  0
   36.9410   30.6389   38.4889 H   0  0  0  0  0  0  0  0  0  0  0  0
   35.1415   30.8435   39.9339 H   0  0  0  0  0  0  0  0  0  0  0  0
   34.6342   29.4553   39.0236 H   0  0  0  0  0  0  0  0  0  0  0  0
   34.8794   29.2635   41.6828 H   0  0  0  0  0  0  0  0  0  0  0  0
   35.4927   27.9172   40.7226 H   0  0  0  0  0  0  0  0  0  0  0  0
   36.9698   30.2067   42.0492 H   0  0  0  0  0  0  0  0  0  0  0  0
   37.3672   27.4601   41.5345 H   0  0  0  0  0  0  0  0  0  0  0  0
   39.5061   27.7307   43.2940 H   0  0  0  0  0  0  0  0  0  0  0  0
   39.5555   29.2813   43.0927 H   0  0  0  0  0  0  0  0  0  0  0  0
   36.9481   29.3492   44.1944 H   0  0  0  0  0  0  0  0  0  0  0  0
   36.9959   27.8645   44.6322 H   0  0  0  0  0  0  0  0  0  0  0  0
   37.7708   33.5221   39.6319 H   0  0  0  0  0  0  0  0  0  0  0  0
   38.2503   35.9628   40.1570 H   0  0  0  0  0  0  0  0  0  0  0  0
   44.7470   36.5650   43.1764 H   0  0  0  0  0  0  0  0  0  0  0  0
   45.7947   34.6845   41.5173 H   0  0  0  0  0  0  0  0  0  0  0  0
   43.7156   33.5510   40.2267 H   0  0  0  0  0  0  0  0  0  0  0  0
  1  9  1  0
  1  5  1  0
  2  3  1  0
  2  1  1  0
  3  4  1  0
  4  5  1  0
  5  6  1  0
  6  7  1  0
  6  8  1  0
  7  8  1  0
 10 12  1  0
 10  9  1  0
 11 10  2  0
 12 17  1  0
 13 12  2  0
 13 14  1  0
 14 15  2  0
 15 16  1  0
 16 18  1  0
 17 16  2  0
 18 19  1  0
 19 20  2  0
 21 20  1  0
 22 18  1  0
 22 21  2  0
  1 23  1  6
  2 24  1  0
  2 25  1  0
  3 26  1  0
  3 27  1  0
  4 28  1  0
  4 29  1  0
  5 30  1  1
  6 31  1  0
  7 32  1  0
  7 33  1  0
  8 34  1  0
  8 35  1  0
 13 36  1  0
 14 37  1  0
 20 38  1  0
 21 39  1  0
 22 40  1  0
M  ISO  8  23  13  24  13  25  13  26  13  27  13  28  13  29  13  30  13
M  ISO  8  31  13  32  13  33  13  34  13  35  13  36  14  37  14  38  14
M  ISO  2  39  14  40  14
M  END
>  <minimizedAffinity>  (1) 
-5.69552517

>  <minimizedRMSD>  (1) 
1.45255268

$$$$
