
     RDKit          3D

 40 43  0  0  1  0  0  0  0  0999 V2000
   37.8370   28.7370   40.5990 C   0  0  2  0  0  0  0  0  0  0  0  0
   36.8970   29.0110   39.2870 C   0  0  0  0  0  0  0  0  0  0  0  0
   35.5840   29.4800   39.7210 C   0  0  0  0  0  0  0  0  0  0  0  0
   35.4250   28.7330   40.9950 C   0  0  0  0  0  0  0  0  0  0  0  0
   36.8230   28.6840   41.6020 C   0  0  1  0  0  0  0  0  0  0  0  0
   36.9770   27.5520   42.5800 C   0  0  0  0  0  0  0  0  0  0  0  0
   38.2250   27.3970   43.3280 C   0  0  0  0  0  0  0  0  0  0  0  0
   37.0570   27.9490   44.0750 C   0  0  0  0  0  0  0  0  0  0  0  0
   38.5850   29.8280   40.7330 O   0  0  0  0  0  0  0  0  0  0  0  0
   39.0210   30.6710   39.6530 C   0  0  0  0  0  0  0  0  0  0  0  0
   39.5160   30.0980   38.6960 O   0  0  0  0  0  0  0  0  0  0  0  0
   38.8210   32.1100   39.8070 C   0  0  0  0  0  0  0  0  0  0  0  0
   37.5340   32.5730   39.3690 C   0  0  0  0  0  0  0  0  0  0  0  0
   37.2810   33.9490   39.4560 C   0  0  0  0  0  0  0  0  0  0  0  0
   38.2710   34.7430   39.9510 N   0  0  0  0  0  0  0  0  0  0  0  0
   39.4630   34.2710   40.3510 C   0  0  0  0  0  0  0  0  0  0  0  0
   39.7090   32.9590   40.2680 N   0  0  0  0  0  0  0  0  0  0  0  0
   40.4780   35.1280   40.8630 N   0  0  0  0  0  0  0  0  0  0  0  0
   40.4590   36.4380   41.1420 C   0  0  0  0  0  0  0  0  0  0  0  0
   41.7010   36.8080   41.6210 C   0  0  0  0  0  0  0  0  0  0  0  0
   42.4730   35.6930   41.6260 N   0  0  0  0  0  0  0  0  0  0  0  0
   41.7130   34.6690   41.1590 C   0  0  0  0  0  0  0  0  0  0  0  0
   38.5023   27.8610   40.5971 H   0  0  0  0  0  0  0  0  0  0  0  0
   36.7831   28.0779   38.7157 H   0  0  0  0  0  0  0  0  0  0  0  0
   37.3680   29.7743   38.6503 H   0  0  0  0  0  0  0  0  0  0  0  0
   35.5776   30.5675   39.8865 H   0  0  0  0  0  0  0  0  0  0  0  0
   34.7777   29.3113   38.9920 H   0  0  0  0  0  0  0  0  0  0  0  0
   34.7302   29.2582   41.6668 H   0  0  0  0  0  0  0  0  0  0  0  0
   35.0091   27.7274   40.8347 H   0  0  0  0  0  0  0  0  0  0  0  0
   36.9615   29.5951   42.2026 H   0  0  0  0  0  0  0  0  0  0  0  0
   36.3740   26.8731   41.9590 H   0  0  0  0  0  0  0  0  0  0  0  0
   38.5912   26.3874   43.5660 H   0  0  0  0  0  0  0  0  0  0  0  0
   39.2552   27.7465   43.1653 H   0  0  0  0  0  0  0  0  0  0  0  0
   37.0359   29.0080   44.3718 H   0  0  0  0  0  0  0  0  0  0  0  0
   36.5101   27.6905   44.9938 H   0  0  0  0  0  0  0  0  0  0  0  0
   36.7770   31.8757   38.9808 H   0  0  0  0  0  0  0  0  0  0  0  0
   36.3175   34.3724   39.1360 H   0  0  0  0  0  0  0  0  0  0  0  0
   39.5968   37.1085   41.0113 H   0  0  0  0  0  0  0  0  0  0  0  0
   42.0059   37.8161   41.9383 H   0  0  0  0  0  0  0  0  0  0  0  0
   42.0505   33.6288   41.0404 H   0  0  0  0  0  0  0  0  0  0  0  0
  1  9  1  0
  1  5  1  0
  2  3  1  0
  2  1  1  0
  3  4  1  0
  4  5  1  0
  5  6  1  0
  6  7  1  0
  6  8  1  0
  7  8  1  0
 10 12  1  0
 10  9  1  0
 11 10  2  0
 12 17  2  0
 13 14  2  0
 13 12  1  0
 14 15  1  0
 15 16  2  0
 16 18  1  0
 17 16  1  0
 18 19  1  0
 18 22  1  0
 19 20  2  0
 20 21  1  0
 22 21  2  0
  1 23  1  6
  2 24  1  0
  2 25  1  0
  3 26  1  0
  3 27  1  0
  4 28  1  0
  4 29  1  0
  5 30  1  1
  6 31  1  0
  7 32  1  0
  7 33  1  0
  8 34  1  0
  8 35  1  0
 13 36  1  0
 14 37  1  0
 19 38  1  0
 20 39  1  0
 22 40  1  0
M  ISO  8  23  13  24  13  25  13  26  13  27  13  28  13  29  13  30  13
M  ISO  8  31  13  32  13  33  13  34  13  35  13  36  14  37  14  38  14
M  ISO  2  39  14  40  14
M  END
>  <minimizedAffinity>  (1) 
-5.68189144

>  <minimizedRMSD>  (1) 
0.999961138

$$$$
