
     RDKit          3D

 41 44  0  0  1  0  0  0  0  0999 V2000
   37.7170   28.4970   40.3920 C   0  0  2  0  0  0  0  0  0  0  0  0
   36.7060   28.7920   39.1310 C   0  0  0  0  0  0  0  0  0  0  0  0
   35.4810   29.4130   39.6340 C   0  0  0  0  0  0  0  0  0  0  0  0
   35.3500   28.7570   40.9610 C   0  0  0  0  0  0  0  0  0  0  0  0
   36.7820   28.5910   41.4610 C   0  0  1  0  0  0  0  0  0  0  0  0
   36.9000   27.4960   42.4810 C   0  0  0  0  0  0  0  0  0  0  0  0
   38.1830   27.2520   43.1500 C   0  0  0  0  0  0  0  0  0  0  0  0
   37.1310   27.9440   43.9470 C   0  0  0  0  0  0  0  0  0  0  0  0
   38.5690   29.5100   40.3970 O   0  0  0  0  0  0  0  0  0  0  0  0
   38.8100   30.4140   39.3120 C   0  0  0  0  0  0  0  0  0  0  0  0
   39.0870   29.9000   38.2410 O   0  0  0  0  0  0  0  0  0  0  0  0
   38.6910   31.8440   39.5930 C   0  0  0  0  0  0  0  0  0  0  0  0
   37.4110   32.4010   39.2380 C   0  0  0  0  0  0  0  0  0  0  0  0
   37.2290   33.7760   39.4330 C   0  0  0  0  0  0  0  0  0  0  0  0
   38.2820   34.4850   39.9460 N   0  0  0  0  0  0  0  0  0  0  0  0
   39.4590   33.9190   40.2640 C   0  0  0  0  0  0  0  0  0  0  0  0
   39.6350   32.6160   40.0810 N   0  0  0  0  0  0  0  0  0  0  0  0
   40.5520   34.7320   40.8130 C   0  0  0  0  0  0  0  0  0  0  0  0
   40.3090   36.0690   41.1060 C   0  0  0  0  0  0  0  0  0  0  0  0
   41.4040   36.7580   41.6210 C   0  0  0  0  0  0  0  0  0  0  0  0
   42.6240   36.1960   41.8300 N   0  0  0  0  0  0  0  0  0  0  0  0
   42.7990   34.8900   41.5240 C   0  0  0  0  0  0  0  0  0  0  0  0
   41.7770   34.1720   41.0240 N   0  0  0  0  0  0  0  0  0  0  0  0
   38.2978   27.5629   40.4037 H   0  0  0  0  0  0  0  0  0  0  0  0
   36.4592   27.8455   38.6277 H   0  0  0  0  0  0  0  0  0  0  0  0
   37.1958   29.4670   38.4138 H   0  0  0  0  0  0  0  0  0  0  0  0
   35.5923   30.5029   39.7322 H   0  0  0  0  0  0  0  0  0  0  0  0
   34.6072   29.2847   38.9783 H   0  0  0  0  0  0  0  0  0  0  0  0
   34.7706   29.3895   41.6497 H   0  0  0  0  0  0  0  0  0  0  0  0
   34.8202   27.7952   40.8965 H   0  0  0  0  0  0  0  0  0  0  0  0
   37.0543   29.5123   41.9967 H   0  0  0  0  0  0  0  0  0  0  0  0
   36.1896   26.8552   41.9380 H   0  0  0  0  0  0  0  0  0  0  0  0
   38.4698   26.2226   43.4110 H   0  0  0  0  0  0  0  0  0  0  0  0
   39.2267   27.4934   42.9000 H   0  0  0  0  0  0  0  0  0  0  0  0
   37.2316   29.0113   44.1933 H   0  0  0  0  0  0  0  0  0  0  0  0
   36.6324   27.7772   44.9132 H   0  0  0  0  0  0  0  0  0  0  0  0
   36.6073   31.7708   38.8295 H   0  0  0  0  0  0  0  0  0  0  0  0
   36.2769   34.2673   39.1836 H   0  0  0  0  0  0  0  0  0  0  0  0
   39.3304   36.5445   40.9440 H   0  0  0  0  0  0  0  0  0  0  0  0
   41.2740   37.8206   41.8738 H   0  0  0  0  0  0  0  0  0  0  0  0
   43.7779   34.4146   41.6841 H   0  0  0  0  0  0  0  0  0  0  0  0
  1  9  1  0
  1  5  1  0
  2  3  1  0
  2  1  1  0
  3  4  1  0
  4  5  1  0
  5  6  1  0
  6  7  1  0
  6  8  1  0
  7  8  1  0
 10 12  1  0
 10  9  1  0
 11 10  2  0
 12 17  2  0
 13 14  2  0
 13 12  1  0
 14 15  1  0
 15 16  2  0
 16 18  1  0
 17 16  1  0
 18 23  1  0
 18 19  2  0
 19 20  1  0
 20 21  2  0
 22 21  1  0
 23 22  2  0
  1 24  1  6
  2 25  1  0
  2 26  1  0
  3 27  1  0
  3 28  1  0
  4 29  1  0
  4 30  1  0
  5 31  1  1
  6 32  1  0
  7 33  1  0
  7 34  1  0
  8 35  1  0
  8 36  1  0
 13 37  1  0
 14 38  1  0
 19 39  1  0
 20 40  1  0
 22 41  1  0
M  ISO  8  24  13  25  13  26  13  27  13  28  13  29  13  30  13  31  13
M  ISO  8  32  13  33  13  34  13  35  13  36  13  37  14  38  14  39  14
M  ISO  2  40  14  41  14
M  END
>  <minimizedAffinity>  (1) 
-5.66013861

>  <minimizedRMSD>  (1) 
1.317765

$$$$
