
     RDKit          3D

 36 38  0  0  1  0  0  0  0  0999 V2000
   37.9510   29.3340   41.2670 C   0  0  2  0  0  0  0  0  0  0  0  0
   37.3790   29.4680   39.7460 C   0  0  0  0  0  0  0  0  0  0  0  0
   35.9230   29.5320   39.7820 C   0  0  0  0  0  0  0  0  0  0  0  0
   35.6370   28.6310   40.9320 C   0  0  0  0  0  0  0  0  0  0  0  0
   36.7700   28.8910   41.9230 C   0  0  1  0  0  0  0  0  0  0  0  0
   36.9720   27.7380   42.8640 C   0  0  0  0  0  0  0  0  0  0  0  0
   38.1690   27.6810   43.7040 C   0  0  0  0  0  0  0  0  0  0  0  0
   36.8820   28.0620   44.3740 C   0  0  0  0  0  0  0  0  0  0  0  0
   38.2840   30.5610   41.6450 O   0  0  0  0  0  0  0  0  0  0  0  0
   39.3330   31.3530   41.0570 C   0  0  0  0  0  0  0  0  0  0  0  0
   40.4120   30.7980   40.9220 O   0  0  0  0  0  0  0  0  0  0  0  0
   38.9890   32.7260   40.6790 C   0  0  0  0  0  0  0  0  0  0  0  0
   37.7380   32.8530   39.9940 C   0  0  0  0  0  0  0  0  0  0  0  0
   37.3590   34.1400   39.5870 C   0  0  0  0  0  0  0  0  0  0  0  0
   38.2070   35.1720   39.8710 N   0  0  0  0  0  0  0  0  0  0  0  0
   39.3740   35.0050   40.5180 C   0  0  0  0  0  0  0  0  0  0  0  0
   39.7410   33.7840   40.9090 N   0  0  0  0  0  0  0  0  0  0  0  0
   40.2440   36.1240   40.8000 C   0  0  0  0  0  0  0  0  0  0  0  0
   40.7630   36.8120   39.8810 O   0  0  0  0  0  0  0  0  0  0  0  0
   40.5860   36.5440   42.0720 O   0  0  0  0  0  0  0  0  0  0  0  0
   38.8208   28.6836   41.4413 H   0  0  0  0  0  0  0  0  0  0  0  0
   37.6938   28.5941   39.1568 H   0  0  0  0  0  0  0  0  0  0  0  0
   37.7764   30.3830   39.2824 H   0  0  0  0  0  0  0  0  0  0  0  0
   35.5666   30.5555   39.9702 H   0  0  0  0  0  0  0  0  0  0  0  0
   35.4294   29.2443   38.8420 H   0  0  0  0  0  0  0  0  0  0  0  0
   34.6640   28.8755   41.3831 H   0  0  0  0  0  0  0  0  0  0  0  0
   35.5848   27.5749   40.6289 H   0  0  0  0  0  0  0  0  0  0  0  0
   36.4711   29.7289   42.5700 H   0  0  0  0  0  0  0  0  0  0  0  0
   36.5001   27.0299   42.1670 H   0  0  0  0  0  0  0  0  0  0  0  0
   38.6283   26.7067   43.9273 H   0  0  0  0  0  0  0  0  0  0  0  0
   39.1626   28.1491   43.6443 H   0  0  0  0  0  0  0  0  0  0  0  0
   36.7150   29.0950   44.7132 H   0  0  0  0  0  0  0  0  0  0  0  0
   36.2952   27.6968   45.2297 H   0  0  0  0  0  0  0  0  0  0  0  0
   37.1015   31.9781   39.7956 H   0  0  0  0  0  0  0  0  0  0  0  0
   36.4107   34.3126   39.0569 H   0  0  0  0  0  0  0  0  0  0  0  0
   41.1886   37.3203   42.1917 H   0  0  0  0  0  0  0  0  0  0  0  0
  1  9  1  0
  1  5  1  0
  2  3  1  0
  2  1  1  0
  3  4  1  0
  4  5  1  0
  5  6  1  0
  6  7  1  0
  6  8  1  0
  7  8  1  0
 10  9  1  0
 11 10  2  0
 12 17  1  0
 12 10  1  0
 13 12  2  0
 14 15  2  0
 14 13  1  0
 15 16  1  0
 16 18  1  0
 16 17  2  0
 18 20  1  0
 19 18  2  0
  1 21  1  6
  2 22  1  0
  2 23  1  0
  3 24  1  0
  3 25  1  0
  4 26  1  0
  4 27  1  0
  5 28  1  1
  6 29  1  0
  7 30  1  0
  7 31  1  0
  8 32  1  0
  8 33  1  0
 13 34  1  0
 14 35  1  0
 20 36  1  0
M  ISO  8  21  13  22  13  23  13  24  13  25  13  26  13  27  13  28  13
M  ISO  8  29  13  30  13  31  13  32  13  33  13  34  14  35  14  36   3
M  END
>  <minimizedAffinity>  (1) 
-5.65257788

>  <minimizedRMSD>  (1) 
0.601415873

$$$$
