
     RDKit          3D

 40 43  0  0  1  0  0  0  0  0999 V2000
   37.9130   28.8260   41.0690 C   0  0  2  0  0  0  0  0  0  0  0  0
   37.1900   28.9310   39.6100 C   0  0  0  0  0  0  0  0  0  0  0  0
   35.7810   29.2590   39.7930 C   0  0  0  0  0  0  0  0  0  0  0  0
   35.4920   28.5160   41.0490 C   0  0  0  0  0  0  0  0  0  0  0  0
   36.7610   28.6530   41.8850 C   0  0  1  0  0  0  0  0  0  0  0  0
   36.8800   27.5640   42.9130 C   0  0  0  0  0  0  0  0  0  0  0  0
   38.0930   27.4600   43.7290 C   0  0  0  0  0  0  0  0  0  0  0  0
   36.8710   28.0190   44.3940 C   0  0  0  0  0  0  0  0  0  0  0  0
   38.4880   30.0020   41.2810 O   0  0  0  0  0  0  0  0  0  0  0  0
   39.2170   30.7600   40.2990 C   0  0  0  0  0  0  0  0  0  0  0  0
   40.0330   30.1380   39.6430 O   0  0  0  0  0  0  0  0  0  0  0  0
   38.8910   32.1870   40.1920 C   0  0  0  0  0  0  0  0  0  0  0  0
   37.6010   32.4590   39.6370 C   0  0  0  0  0  0  0  0  0  0  0  0
   37.2340   33.8010   39.4900 C   0  0  0  0  0  0  0  0  0  0  0  0
   38.1320   34.7520   39.8880 N   0  0  0  0  0  0  0  0  0  0  0  0
   39.3370   34.4510   40.4080 C   0  0  0  0  0  0  0  0  0  0  0  0
   39.6940   33.1690   40.5500 N   0  0  0  0  0  0  0  0  0  0  0  0
   40.2400   35.5100   40.8090 C   0  0  0  0  0  0  0  0  0  0  0  0
   40.1770   36.8390   40.4120 C   0  0  0  0  0  0  0  0  0  0  0  0
   41.1700   37.5430   40.9740 N   0  0  0  0  0  0  0  0  0  0  0  0
   41.8870   36.6810   41.7420 C   0  0  0  0  0  0  0  0  0  0  0  0
   41.3060   35.4760   41.6200 N   0  0  0  0  0  0  0  0  0  0  0  0
   38.6788   28.0508   41.2191 H   0  0  0  0  0  0  0  0  0  0  0  0
   37.2780   27.9678   39.0861 H   0  0  0  0  0  0  0  0  0  0  0  0
   37.6767   29.7164   39.0132 H   0  0  0  0  0  0  0  0  0  0  0  0
   35.6285   30.3413   39.9169 H   0  0  0  0  0  0  0  0  0  0  0  0
   35.1341   28.9939   38.9438 H   0  0  0  0  0  0  0  0  0  0  0  0
   34.6331   28.9605   41.5731 H   0  0  0  0  0  0  0  0  0  0  0  0
   35.2324   27.4642   40.8583 H   0  0  0  0  0  0  0  0  0  0  0  0
   36.6840   29.5810   42.4706 H   0  0  0  0  0  0  0  0  0  0  0  0
   36.3210   26.8507   42.2895 H   0  0  0  0  0  0  0  0  0  0  0  0
   38.4638   26.4673   44.0239 H   0  0  0  0  0  0  0  0  0  0  0  0
   39.1244   27.8224   43.6066 H   0  0  0  0  0  0  0  0  0  0  0  0
   36.8148   29.0878   44.6480 H   0  0  0  0  0  0  0  0  0  0  0  0
   36.2798   27.7846   45.2915 H   0  0  0  0  0  0  0  0  0  0  0  0
   36.9243   31.6451   39.3376 H   0  0  0  0  0  0  0  0  0  0  0  0
   36.2572   34.0812   39.0690 H   0  0  0  0  0  0  0  0  0  0  0  0
   39.4192   37.2556   39.7322 H   0  0  0  0  0  0  0  0  0  0  0  0
   42.7729   36.9235   42.3473 H   0  0  0  0  0  0  0  0  0  0  0  0
   41.6409   34.6253   42.0945 H   0  0  0  0  0  0  0  0  0  0  0  0
  1  9  1  0
  1  5  1  0
  2  3  1  0
  2  1  1  0
  3  4  1  0
  4  5  1  0
  5  6  1  0
  6  7  1  0
  6  8  1  0
  7  8  1  0
 10  9  1  0
 11 10  2  0
 12 10  1  0
 12 17  1  0
 13 12  2  0
 14 13  1  0
 14 15  2  0
 15 16  1  0
 16 17  2  0
 16 18  1  0
 18 22  1  0
 19 18  2  0
 19 20  1  0
 20 21  2  0
 22 21  1  0
  1 23  1  6
  2 24  1  0
  2 25  1  0
  3 26  1  0
  3 27  1  0
  4 28  1  0
  4 29  1  0
  5 30  1  1
  6 31  1  0
  7 32  1  0
  7 33  1  0
  8 34  1  0
  8 35  1  0
 13 36  1  0
 14 37  1  0
 19 38  1  0
 21 39  1  0
 22 40  1  0
M  ISO  8  23  13  24  13  25  13  26  13  27  13  28  13  29  13  30  13
M  ISO  8  31  13  32  13  33  13  34  13  35  13  36  14  37  14  38  14
M  ISO  2  39  14  40   9
M  END
>  <minimizedAffinity>  (1) 
-5.63535881

>  <minimizedRMSD>  (1) 
0.82578814

$$$$
