
     RDKit          3D

 46 49  0  0  1  0  0  0  0  0999 V2000
   37.9940   28.9870   41.1740 C   0  0  2  0  0  0  0  0  0  0  0  0
   37.3730   29.1890   39.6730 C   0  0  0  0  0  0  0  0  0  0  0  0
   35.9410   29.4710   39.7790 C   0  0  0  0  0  0  0  0  0  0  0  0
   35.5850   28.6540   40.9680 C   0  0  0  0  0  0  0  0  0  0  0  0
   36.7860   28.7670   41.8980 C   0  0  1  0  0  0  0  0  0  0  0  0
   36.8510   27.6260   42.8760 C   0  0  0  0  0  0  0  0  0  0  0  0
   38.0320   27.4570   43.7220 C   0  0  0  0  0  0  0  0  0  0  0  0
   36.8140   28.0130   44.3770 C   0  0  0  0  0  0  0  0  0  0  0  0
   38.5380   30.1580   41.4920 O   0  0  0  0  0  0  0  0  0  0  0  0
   39.5730   30.8210   40.7490 C   0  0  0  0  0  0  0  0  0  0  0  0
   40.5360   30.1370   40.4470 O   0  0  0  0  0  0  0  0  0  0  0  0
   39.3640   32.2340   40.4310 C   0  0  0  0  0  0  0  0  0  0  0  0
   37.9860   32.6400   40.4380 C   0  0  0  0  0  0  0  0  0  0  0  0
   37.7070   33.9740   40.1190 C   0  0  0  0  0  0  0  0  0  0  0  0
   38.7550   34.7910   39.8250 N   0  0  0  0  0  0  0  0  0  0  0  0
   40.0370   34.3680   39.8300 C   0  0  0  0  0  0  0  0  0  0  0  0
   40.2990   33.1090   40.1300 N   0  0  0  0  0  0  0  0  0  0  0  0
   41.1930   35.2500   39.5110 C   0  0  0  0  0  0  0  0  0  0  0  0
   40.8130   36.6550   39.9060 C   0  0  0  0  0  0  0  0  0  0  0  0
   41.2720   36.8150   41.3270 C   0  0  0  0  0  0  0  0  0  0  0  0
   42.0450   35.5820   41.6920 C   0  0  0  0  0  0  0  0  0  0  0  0
   42.3570   34.9320   40.3740 C   0  0  0  0  0  0  0  0  0  0  0  0
   38.7490   28.2025   41.3309 H   0  0  0  0  0  0  0  0  0  0  0  0
   37.5249   28.2716   39.0854 H   0  0  0  0  0  0  0  0  0  0  0  0
   37.8791   30.0282   39.1734 H   0  0  0  0  0  0  0  0  0  0  0  0
   35.7504   30.5407   39.9507 H   0  0  0  0  0  0  0  0  0  0  0  0
   35.3617   29.2356   38.8740 H   0  0  0  0  0  0  0  0  0  0  0  0
   34.6814   29.0512   41.4535 H   0  0  0  0  0  0  0  0  0  0  0  0
   35.3660   27.6096   40.7011 H   0  0  0  0  0  0  0  0  0  0  0  0
   36.6507   29.6654   42.5182 H   0  0  0  0  0  0  0  0  0  0  0  0
   36.2953   26.9561   42.2033 H   0  0  0  0  0  0  0  0  0  0  0  0
   38.3703   26.4430   43.9817 H   0  0  0  0  0  0  0  0  0  0  0  0
   39.0744   27.7998   43.6452 H   0  0  0  0  0  0  0  0  0  0  0  0
   36.7773   29.0701   44.6788 H   0  0  0  0  0  0  0  0  0  0  0  0
   36.1936   27.7530   45.2474 H   0  0  0  0  0  0  0  0  0  0  0  0
   37.1821   31.9307   40.6843 H   0  0  0  0  0  0  0  0  0  0  0  0
   36.6734   34.3501   40.1063 H   0  0  0  0  0  0  0  0  0  0  0  0
   41.4385   35.1244   38.4461 H   0  0  0  0  0  0  0  0  0  0  0  0
   41.3161   37.3857   39.2557 H   0  0  0  0  0  0  0  0  0  0  0  0
   39.7310   36.8264   39.8068 H   0  0  0  0  0  0  0  0  0  0  0  0
   41.9160   37.7023   41.4161 H   0  0  0  0  0  0  0  0  0  0  0  0
   40.4118   36.9467   41.9998 H   0  0  0  0  0  0  0  0  0  0  0  0
   42.9706   35.8464   42.2243 H   0  0  0  0  0  0  0  0  0  0  0  0
   41.4816   34.9178   42.3638 H   0  0  0  0  0  0  0  0  0  0  0  0
   42.4647   33.8439   40.4942 H   0  0  0  0  0  0  0  0  0  0  0  0
   43.3033   35.2940   39.9456 H   0  0  0  0  0  0  0  0  0  0  0  0
  1  9  1  0
  1  5  1  0
  2  3  1  0
  2  1  1  0
  3  4  1  0
  4  5  1  0
  5  6  1  0
  6  7  1  0
  6  8  1  0
  7  8  1  0
 10  9  1  0
 11 10  2  0
 12 13  2  0
 12 10  1  0
 14 13  1  0
 15 16  1  0
 15 14  2  0
 16 17  2  0
 17 12  1  0
 18 16  1  0
 18 19  1  0
 18 22  1  0
 19 20  1  0
 20 21  1  0
 22 21  1  0
  1 23  1  6
  2 24  1  0
  2 25  1  0
  3 26  1  0
  3 27  1  0
  4 28  1  0
  4 29  1  0
  5 30  1  1
  6 31  1  0
  7 32  1  0
  7 33  1  0
  8 34  1  0
  8 35  1  0
 13 36  1  0
 14 37  1  0
 18 38  1  0
 19 39  1  0
 19 40  1  0
 20 41  1  0
 20 42  1  0
 21 43  1  0
 21 44  1  0
 22 45  1  0
 22 46  1  0
M  ISO  8  23  13  24  13  25  13  26  13  27  13  28  13  29  13  30  13
M  ISO  8  31  13  32  13  33  13  34  13  35  13  36  14  37  14  38  13
M  ISO  8  39  13  40  13  41  13  42  13  43  13  44  13  45  13  46  13
M  END
>  <minimizedAffinity>  (1) 
-5.59066057

>  <minimizedRMSD>  (1) 
0.672131002

$$$$
