
     RDKit          3D

 35 37  0  0  1  0  0  0  0  0999 V2000
   38.0160   29.4490   41.0650 C   0  0  2  0  0  0  0  0  0  0  0  0
   37.3220   29.7210   39.6130 C   0  0  0  0  0  0  0  0  0  0  0  0
   35.8830   29.8850   39.7900 C   0  0  0  0  0  0  0  0  0  0  0  0
   35.6400   28.9260   40.9010 C   0  0  0  0  0  0  0  0  0  0  0  0
   36.8680   29.0470   41.7990 C   0  0  1  0  0  0  0  0  0  0  0  0
   37.0650   27.8240   42.6490 C   0  0  0  0  0  0  0  0  0  0  0  0
   38.2830   27.6800   43.4520 C   0  0  0  0  0  0  0  0  0  0  0  0
   37.0230   28.0480   44.1830 C   0  0  0  0  0  0  0  0  0  0  0  0
   38.4730   30.6210   41.4780 O   0  0  0  0  0  0  0  0  0  0  0  0
   39.7280   31.2120   41.0910 C   0  0  0  0  0  0  0  0  0  0  0  0
   40.6870   30.4610   41.0750 O   0  0  0  0  0  0  0  0  0  0  0  0
   39.7060   32.6380   40.7520 C   0  0  0  0  0  0  0  0  0  0  0  0
   38.4030   33.1640   40.4880 C   0  0  0  0  0  0  0  0  0  0  0  0
   38.3100   34.5180   40.1410 C   0  0  0  0  0  0  0  0  0  0  0  0
   39.4720   35.2340   40.0810 N   0  0  0  0  0  0  0  0  0  0  0  0
   40.6800   34.7000   40.3370 C   0  0  0  0  0  0  0  0  0  0  0  0
   40.7650   33.4170   40.6660 N   0  0  0  0  0  0  0  0  0  0  0  0
   41.8840   35.4290   40.2780 N   0  0  0  0  0  0  0  0  0  0  0  0
   38.8465   28.7300   41.1221 H   0  0  0  0  0  0  0  0  0  0  0  0
   37.5155   28.8669   38.9474 H   0  0  0  0  0  0  0  0  0  0  0  0
   37.7450   30.6334   39.1673 H   0  0  0  0  0  0  0  0  0  0  0  0
   35.6231   30.9146   40.0771 H   0  0  0  0  0  0  0  0  0  0  0  0
   35.2844   29.7024   38.8854 H   0  0  0  0  0  0  0  0  0  0  0  0
   34.7282   29.1967   41.4535 H   0  0  0  0  0  0  0  0  0  0  0  0
   35.4927   27.8986   40.5367 H   0  0  0  0  0  0  0  0  0  0  0  0
   36.6887   29.8603   42.5176 H   0  0  0  0  0  0  0  0  0  0  0  0
   36.5587   27.1765   41.9180 H   0  0  0  0  0  0  0  0  0  0  0  0
   38.7212   26.6815   43.5969 H   0  0  0  0  0  0  0  0  0  0  0  0
   39.2870   28.1259   43.3963 H   0  0  0  0  0  0  0  0  0  0  0  0
   36.8931   29.0596   44.5950 H   0  0  0  0  0  0  0  0  0  0  0  0
   36.4490   27.6409   45.0284 H   0  0  0  0  0  0  0  0  0  0  0  0
   37.5071   32.5293   40.5549 H   0  0  0  0  0  0  0  0  0  0  0  0
   37.3386   34.9868   39.9251 H   0  0  0  0  0  0  0  0  0  0  0  0
   42.7789   34.9630   40.4852 H   0  0  0  0  0  0  0  0  0  0  0  0
   41.8694   36.4280   40.0277 H   0  0  0  0  0  0  0  0  0  0  0  0
  1  9  1  0
  1  5  1  0
  2  3  1  0
  2  1  1  0
  3  4  1  0
  4  5  1  0
  5  6  1  0
  6  7  1  0
  6  8  1  0
  7  8  1  0
 10  9  1  0
 11 10  2  0
 12 10  1  0
 13 12  2  0
 14 13  1  0
 15 14  2  0
 15 16  1  0
 16 17  2  0
 17 12  1  0
 18 16  1  0
  1 19  1  6
  2 20  1  0
  2 21  1  0
  3 22  1  0
  3 23  1  0
  4 24  1  0
  4 25  1  0
  5 26  1  1
  6 27  1  0
  7 28  1  0
  7 29  1  0
  8 30  1  0
  8 31  1  0
 13 32  1  0
 14 33  1  0
 18 34  1  0
 18 35  1  0
M  ISO  8  19  13  20  13  21  13  22  13  23  13  24  13  25  13  26  13
M  ISO  7  27  13  28  13  29  13  30  13  31  13  32  14  33  14
M  END
>  <minimizedAffinity>  (1) 
-5.1501894

>  <minimizedRMSD>  (1) 
0.405626923

$$$$
