
     RDKit          3D

 34 36  0  0  1  0  0  0  0  0999 V2000
   37.9800   29.2530   41.0830 C   0  0  2  0  0  0  0  0  0  0  0  0
   37.2840   29.4690   39.6140 C   0  0  0  0  0  0  0  0  0  0  0  0
   35.8480   29.6220   39.7800 C   0  0  0  0  0  0  0  0  0  0  0  0
   35.5920   28.7430   40.9480 C   0  0  0  0  0  0  0  0  0  0  0  0
   36.8250   28.8980   41.8330 C   0  0  1  0  0  0  0  0  0  0  0  0
   37.0170   27.7210   42.7490 C   0  0  0  0  0  0  0  0  0  0  0  0
   38.2300   27.6160   43.5600 C   0  0  0  0  0  0  0  0  0  0  0  0
   36.9800   28.0250   44.2680 C   0  0  0  0  0  0  0  0  0  0  0  0
   38.4420   30.4460   41.4300 O   0  0  0  0  0  0  0  0  0  0  0  0
   39.5480   31.1270   40.8190 C   0  0  0  0  0  0  0  0  0  0  0  0
   40.5150   30.4390   40.5500 O   0  0  0  0  0  0  0  0  0  0  0  0
   39.3900   32.5640   40.5800 C   0  0  0  0  0  0  0  0  0  0  0  0
   38.0620   32.9620   40.2290 C   0  0  0  0  0  0  0  0  0  0  0  0
   37.8390   34.3190   39.9650 C   0  0  0  0  0  0  0  0  0  0  0  0
   38.9070   35.1620   40.0630 N   0  0  0  0  0  0  0  0  0  0  0  0
   40.1440   34.7460   40.3980 C   0  0  0  0  0  0  0  0  0  0  0  0
   40.3520   33.4650   40.6470 N   0  0  0  0  0  0  0  0  0  0  0  0
   41.1720   35.6850   40.4730 O   0  0  0  0  0  0  0  0  0  0  0  0
   38.8022   28.5289   41.1818 H   0  0  0  0  0  0  0  0  0  0  0  0
   37.4893   28.5951   38.9782 H   0  0  0  0  0  0  0  0  0  0  0  0
   37.6980   30.3708   39.1394 H   0  0  0  0  0  0  0  0  0  0  0  0
   35.5770   30.6661   39.9954 H   0  0  0  0  0  0  0  0  0  0  0  0
   35.2622   29.3629   38.8857 H   0  0  0  0  0  0  0  0  0  0  0  0
   34.6875   29.0656   41.4844 H   0  0  0  0  0  0  0  0  0  0  0  0
   35.4242   27.6973   40.6507 H   0  0  0  0  0  0  0  0  0  0  0  0
   36.6479   29.7519   42.5034 H   0  0  0  0  0  0  0  0  0  0  0  0
   36.5073   27.0387   42.0528 H   0  0  0  0  0  0  0  0  0  0  0  0
   38.6642   26.6249   43.7580 H   0  0  0  0  0  0  0  0  0  0  0  0
   39.2354   28.0552   43.4812 H   0  0  0  0  0  0  0  0  0  0  0  0
   36.8553   29.0574   44.6265 H   0  0  0  0  0  0  0  0  0  0  0  0
   36.4060   27.6651   45.1346 H   0  0  0  0  0  0  0  0  0  0  0  0
   37.2447   32.2282   40.1685 H   0  0  0  0  0  0  0  0  0  0  0  0
   36.8412   34.6908   39.6892 H   0  0  0  0  0  0  0  0  0  0  0  0
   42.0875   35.3983   40.7176 H   0  0  0  0  0  0  0  0  0  0  0  0
  1  9  1  0
  1  5  1  0
  2  3  1  0
  2  1  1  0
  3  4  1  0
  4  5  1  0
  5  6  1  0
  6  7  1  0
  6  8  1  0
  7  8  1  0
 10  9  1  0
 11 10  2  0
 12 17  1  0
 12 10  1  0
 13 12  2  0
 14 15  2  0
 14 13  1  0
 15 16  1  0
 16 18  1  0
 16 17  2  0
  1 19  1  6
  2 20  1  0
  2 21  1  0
  3 22  1  0
  3 23  1  0
  4 24  1  0
  4 25  1  0
  5 26  1  1
  6 27  1  0
  7 28  1  0
  7 29  1  0
  8 30  1  0
  8 31  1  0
 13 32  1  0
 14 33  1  0
 18 34  1  0
M  ISO  8  19  13  20  13  21  13  22  13  23  13  24  13  25  13  26  13
M  ISO  8  27  13  28  13  29  13  30  13  31  13  32  14  33  14  34   3
M  END
>  <minimizedAffinity>  (1) 
-4.97884941

>  <minimizedRMSD>  (1) 
0.041218359

$$$$
