
     RDKit          3D

 47 50  0  0  1  0  0  0  0  0999 V2000
   39.6450   30.7320   40.9580 C   0  0  0  0  0  0  0  0  0  0  0  0
   40.5630   29.9820   40.8280 O   0  0  0  0  0  0  0  0  0  0  0  0
   39.6000   32.1760   40.6380 C   0  0  0  0  0  0  0  0  0  0  0  0
   38.2690   32.7130   40.4670 C   0  0  0  0  0  0  0  0  0  0  0  0
   38.1530   34.0630   40.1310 C   0  0  0  0  0  0  0  0  0  0  0  0
   39.3080   34.7760   39.9880 N   0  0  0  0  0  0  0  0  0  0  0  0
   40.5260   34.2320   40.1580 C   0  0  0  0  0  0  0  0  0  0  0  0
   40.6440   32.9550   40.4770 N   0  0  0  0  0  0  0  0  0  0  0  0
   41.7120   35.1250   39.9560 C   0  0  0  0  0  0  0  0  0  0  0  0
   42.2550   35.5850   41.2090 N   0  0  0  0  0  0  0  0  0  0  0  0
   43.2950   34.8640   41.7260 C   0  0  0  0  0  0  0  0  0  0  0  0
   43.9380   35.1520   42.9110 C   0  0  0  0  0  0  0  0  0  0  0  0
   43.4660   36.2670   43.6040 C   0  0  0  0  0  0  0  0  0  0  0  0
   44.1330   36.5600   44.8260 N   0  0  0  0  0  0  0  0  0  0  0  0
   42.4360   36.9840   43.0930 N   0  0  0  0  0  0  0  0  0  0  0  0
   41.8500   36.6480   41.9290 C   0  0  0  0  0  0  0  0  0  0  0  0
   40.9050   37.2990   41.4550 O   0  0  0  0  0  0  0  0  0  0  0  0
   38.4080   30.2060   41.4800 O   0  0  0  0  0  0  0  0  0  0  0  0
   37.9100   29.0250   41.2380 C   0  0  2  0  0  0  0  0  0  0  0  0
   37.2690   29.2390   39.6970 C   0  0  0  0  0  0  0  0  0  0  0  0
   35.8610   29.5020   39.7990 C   0  0  0  0  0  0  0  0  0  0  0  0
   35.4890   28.6870   40.9700 C   0  0  0  0  0  0  0  0  0  0  0  0
   36.7100   28.7790   41.9020 C   0  0  1  0  0  0  0  0  0  0  0  0
   36.7550   27.6300   42.8610 C   0  0  0  0  0  0  0  0  0  0  0  0
   37.9260   27.4520   43.7170 C   0  0  0  0  0  0  0  0  0  0  0  0
   36.6950   27.9720   44.3760 C   0  0  0  0  0  0  0  0  0  0  0  0
   37.3787   32.0802   40.5971 H   0  0  0  0  0  0  0  0  0  0  0  0
   37.1692   34.5337   39.9871 H   0  0  0  0  0  0  0  0  0  0  0  0
   42.4898   34.5668   39.4143 H   0  0  0  0  0  0  0  0  0  0  0  0
   41.3842   36.0043   39.3820 H   0  0  0  0  0  0  0  0  0  0  0  0
   43.6441   33.9909   41.1552 H   0  0  0  0  0  0  0  0  0  0  0  0
   44.7716   34.5405   43.2868 H   0  0  0  0  0  0  0  0  0  0  0  0
   43.8390   37.3687   45.3921 H   0  0  0  0  0  0  0  0  0  0  0  0
   44.9099   35.9635   45.1446 H   0  0  0  0  0  0  0  0  0  0  0  0
   38.6733   28.2656   41.4631 H   0  0  0  0  0  0  0  0  0  0  0  0
   37.4301   28.3276   39.1026 H   0  0  0  0  0  0  0  0  0  0  0  0
   37.7671   30.0882   39.2063 H   0  0  0  0  0  0  0  0  0  0  0  0
   35.6642   30.5699   39.9748 H   0  0  0  0  0  0  0  0  0  0  0  0
   35.2942   29.2597   38.8879 H   0  0  0  0  0  0  0  0  0  0  0  0
   34.5931   29.0957   41.4603 H   0  0  0  0  0  0  0  0  0  0  0  0
   35.2450   27.6492   40.6988 H   0  0  0  0  0  0  0  0  0  0  0  0
   36.5742   29.6821   42.5152 H   0  0  0  0  0  0  0  0  0  0  0  0
   36.2031   26.9779   42.1680 H   0  0  0  0  0  0  0  0  0  0  0  0
   38.2748   26.4352   43.9502 H   0  0  0  0  0  0  0  0  0  0  0  0
   38.9642   27.8114   43.6627 H   0  0  0  0  0  0  0  0  0  0  0  0
   36.6411   29.0189   44.7092 H   0  0  0  0  0  0  0  0  0  0  0  0
   36.0687   27.6782   45.2312 H   0  0  0  0  0  0  0  0  0  0  0  0
  1 18  1  0
  2  1  2  0
  3  1  1  0
  4  3  2  0
  5  4  1  0
  6  5  2  0
  6  7  1  0
  7  8  2  0
  8  3  1  0
  9  7  1  0
  9 10  1  0
 10 11  1  0
 10 16  1  0
 11 12  2  0
 12 13  1  0
 13 14  1  0
 15 13  2  0
 16 15  1  0
 17 16  2  0
 19 18  1  0
 19 23  1  0
 20 21  1  0
 20 19  1  0
 21 22  1  0
 22 23  1  0
 23 24  1  0
 24 25  1  0
 24 26  1  0
 25 26  1  0
  4 27  1  0
  5 28  1  0
  9 29  1  0
  9 30  1  0
 11 31  1  0
 12 32  1  0
 14 33  1  0
 14 34  1  0
 19 35  1  6
 20 36  1  0
 20 37  1  0
 21 38  1  0
 21 39  1  0
 22 40  1  0
 22 41  1  0
 23 42  1  1
 24 43  1  0
 25 44  1  0
 25 45  1  0
 26 46  1  0
 26 47  1  0
M  ISO  8  27  14  28  14  29   8  30   8  31  14  32  14  35  13  36  13
M  ISO  8  37  13  38  13  39  13  40  13  41  13  42  13  43  13  44  13
M  ISO  3  45  13  46  13  47  13
M  END
>  <minimizedAffinity>  (1) 
-6.50196457

>  <minimizedRMSD>  (1) 
1.36881137

$$$$
