
     RDKit          3D

 52 55  0  0  1  0  0  0  0  0999 V2000
   37.8940   29.3560   41.2690 C   0  0  2  0  0  0  0  0  0  0  0  0
   37.2990   29.6480   39.7240 C   0  0  0  0  0  0  0  0  0  0  0  0
   35.8690   29.7620   39.7760 C   0  0  0  0  0  0  0  0  0  0  0  0
   35.5350   28.8100   40.8520 C   0  0  0  0  0  0  0  0  0  0  0  0
   36.6990   28.9390   41.8500 C   0  0  1  0  0  0  0  0  0  0  0  0
   36.8190   27.7180   42.7050 C   0  0  0  0  0  0  0  0  0  0  0  0
   37.9800   27.5620   43.5790 C   0  0  0  0  0  0  0  0  0  0  0  0
   36.6960   27.9150   44.2430 C   0  0  0  0  0  0  0  0  0  0  0  0
   38.2600   30.5540   41.6320 O   0  0  0  0  0  0  0  0  0  0  0  0
   39.6070   30.9850   41.9180 C   0  0  0  0  0  0  0  0  0  0  0  0
   40.2950   30.2660   42.5740 O   0  0  0  0  0  0  0  0  0  0  0  0
   39.9600   32.2940   41.3350 C   0  0  0  0  0  0  0  0  0  0  0  0
   38.8360   33.0680   40.8550 C   0  0  0  0  0  0  0  0  0  0  0  0
   39.1040   34.3190   40.2880 C   0  0  0  0  0  0  0  0  0  0  0  0
   40.4090   34.7110   40.2340 N   0  0  0  0  0  0  0  0  0  0  0  0
   41.4170   33.9550   40.6940 C   0  0  0  0  0  0  0  0  0  0  0  0
   41.1750   32.7910   41.2220 N   0  0  0  0  0  0  0  0  0  0  0  0
   42.8000   34.5220   40.5550 C   0  0  0  0  0  0  0  0  0  0  0  0
   43.3180   35.0970   41.8330 C   0  0  0  0  0  0  0  0  0  0  0  0
   44.8310   35.1400   41.8910 C   0  0  0  0  0  0  0  0  0  0  0  0
   45.3340   36.2810   42.7350 C   0  0  0  0  0  0  0  0  0  0  0  0
   44.4990   36.5920   43.9300 C   0  0  0  0  0  0  0  0  0  0  0  0
   43.0180   36.5990   43.6880 C   0  0  0  0  0  0  0  0  0  0  0  0
   42.7960   36.4380   42.1840 C   0  0  0  0  0  0  0  0  0  0  0  0
   38.7180   28.6546   41.4667 H   0  0  0  0  0  0  0  0  0  0  0  0
   37.5767   28.8156   39.0607 H   0  0  0  0  0  0  0  0  0  0  0  0
   37.7278   30.5840   39.3366 H   0  0  0  0  0  0  0  0  0  0  0  0
   35.5569   30.7848   40.0337 H   0  0  0  0  0  0  0  0  0  0  0  0
   35.3680   29.5507   38.8198 H   0  0  0  0  0  0  0  0  0  0  0  0
   34.5813   29.0802   41.3289 H   0  0  0  0  0  0  0  0  0  0  0  0
   35.4128   27.7820   40.4801 H   0  0  0  0  0  0  0  0  0  0  0  0
   36.4486   29.7664   42.5303 H   0  0  0  0  0  0  0  0  0  0  0  0
   36.3407   27.0881   41.9405 H   0  0  0  0  0  0  0  0  0  0  0  0
   38.4094   26.5609   43.7323 H   0  0  0  0  0  0  0  0  0  0  0  0
   38.9843   28.0107   43.5888 H   0  0  0  0  0  0  0  0  0  0  0  0
   36.5450   28.9192   44.6658 H   0  0  0  0  0  0  0  0  0  0  0  0
   36.0782   27.4935   45.0496 H   0  0  0  0  0  0  0  0  0  0  0  0
   37.8072   32.6867   40.9330 H   0  0  0  0  0  0  0  0  0  0  0  0
   38.2965   34.9588   39.9024 H   0  0  0  0  0  0  0  0  0  0  0  0
   43.4784   33.7196   40.2296 H   0  0  0  0  0  0  0  0  0  0  0  0
   42.7524   35.3377   39.8186 H   0  0  0  0  0  0  0  0  0  0  0  0
   42.9315   34.3892   42.5811 H   0  0  0  0  0  0  0  0  0  0  0  0
   45.1964   34.1947   42.3186 H   0  0  0  0  0  0  0  0  0  0  0  0
   45.2049   35.2861   40.8669 H   0  0  0  0  0  0  0  0  0  0  0  0
   46.3470   36.0290   43.0819 H   0  0  0  0  0  0  0  0  0  0  0  0
   45.3033   37.1754   42.0954 H   0  0  0  0  0  0  0  0  0  0  0  0
   44.7145   35.8383   44.7017 H   0  0  0  0  0  0  0  0  0  0  0  0
   44.7648   37.6161   44.2311 H   0  0  0  0  0  0  0  0  0  0  0  0
   42.5454   35.7656   44.2285 H   0  0  0  0  0  0  0  0  0  0  0  0
   42.5718   37.5384   44.0466 H   0  0  0  0  0  0  0  0  0  0  0  0
   43.3424   37.2169   41.6319 H   0  0  0  0  0  0  0  0  0  0  0  0
   41.7322   36.5364   41.9220 H   0  0  0  0  0  0  0  0  0  0  0  0
  1  9  1  0
  1  5  1  0
  2  3  1  0
  2  1  1  0
  3  4  1  0
  4  5  1  0
  5  6  1  0
  6  7  1  0
  6  8  1  0
  7  8  1  0
  9 10  1  0
 10 11  2  0
 12 10  1  0
 13 12  2  0
 14 13  1  0
 15 14  2  0
 15 16  1  0
 16 17  2  0
 17 12  1  0
 18 16  1  0
 18 19  1  0
 19 20  1  0
 19 24  1  0
 20 21  1  0
 21 22  1  0
 23 22  1  0
 24 23  1  0
  1 25  1  6
  2 26  1  0
  2 27  1  0
  3 28  1  0
  3 29  1  0
  4 30  1  0
  4 31  1  0
  5 32  1  1
  6 33  1  0
  7 34  1  0
  7 35  1  0
  8 36  1  0
  8 37  1  0
 13 38  1  0
 14 39  1  0
 18 40  1  0
 18 41  1  0
 19 42  1  0
 20 43  1  0
 20 44  1  0
 21 45  1  0
 21 46  1  0
 22 47  1  0
 22 48  1  0
 23 49  1  0
 23 50  1  0
 24 51  1  0
 24 52  1  0
M  ISO  8  25  13  26  13  27  13  28  13  29  13  30  13  31  13  32  13
M  ISO  8  33  13  34  13  35  13  36  13  37  13  38  14  39  14  40   8
M  ISO  8  41   8  42  13  43  13  44  13  45  13  46  13  47  13  48  13
M  ISO  4  49  13  50  13  51  13  52  13
M  END
>  <minimizedAffinity>  (1) 
-6.21530342

>  <minimizedRMSD>  (1) 
1.90853834

$$$$
