
     RDKit          3D

 43 46  0  0  1  0  0  0  0  0999 V2000
   37.8540   29.2620   41.3860 C   0  0  2  0  0  0  0  0  0  0  0  0
   37.3320   29.4720   39.8050 C   0  0  0  0  0  0  0  0  0  0  0  0
   35.8980   29.5550   39.7820 C   0  0  0  0  0  0  0  0  0  0  0  0
   35.5290   28.6450   40.8830 C   0  0  0  0  0  0  0  0  0  0  0  0
   36.6420   28.8370   41.9290 C   0  0  1  0  0  0  0  0  0  0  0  0
   36.7510   27.6500   42.8360 C   0  0  0  0  0  0  0  0  0  0  0  0
   37.9210   27.5190   43.7040 C   0  0  0  0  0  0  0  0  0  0  0  0
   36.6570   27.9210   44.3640 C   0  0  0  0  0  0  0  0  0  0  0  0
   38.1700   30.4830   41.7260 O   0  0  0  0  0  0  0  0  0  0  0  0
   39.5090   31.0210   41.7840 C   0  0  0  0  0  0  0  0  0  0  0  0
   40.3610   30.3660   42.3030 O   0  0  0  0  0  0  0  0  0  0  0  0
   39.6510   32.3540   41.1610 C   0  0  0  0  0  0  0  0  0  0  0  0
   38.4080   32.9510   40.7290 C   0  0  0  0  0  0  0  0  0  0  0  0
   38.4680   34.1970   40.1000 C   0  0  0  0  0  0  0  0  0  0  0  0
   39.7030   34.7600   39.9420 N   0  0  0  0  0  0  0  0  0  0  0  0
   40.8450   34.1650   40.3650 C   0  0  0  0  0  0  0  0  0  0  0  0
   40.7860   32.9840   40.9600 N   0  0  0  0  0  0  0  0  0  0  0  0
   42.1130   34.8990   40.1230 C   0  0  0  0  0  0  0  0  0  0  0  0
   42.5250   35.5130   41.3550 N   0  0  0  0  0  0  0  0  0  0  0  0
   41.8600   36.5350   41.8870 N   0  0  0  0  0  0  0  0  0  0  0  0
   42.4510   36.9220   43.0350 C   0  0  0  0  0  0  0  0  0  0  0  0
   43.5590   36.1020   43.2550 C   0  0  0  0  0  0  0  0  0  0  0  0
   43.5520   35.2460   42.1760 C   0  0  0  0  0  0  0  0  0  0  0  0
   38.6868   28.5918   41.6455 H   0  0  0  0  0  0  0  0  0  0  0  0
   37.7597   30.4000   39.3977 H   0  0  0  0  0  0  0  0  0  0  0  0
   37.6601   28.6183   39.1937 H   0  0  0  0  0  0  0  0  0  0  0  0
   35.5524   30.5810   39.9767 H   0  0  0  0  0  0  0  0  0  0  0  0
   35.4504   29.2887   38.8131 H   0  0  0  0  0  0  0  0  0  0  0  0
   34.5496   28.9187   41.3023 H   0  0  0  0  0  0  0  0  0  0  0  0
   35.4417   27.5999   40.5512 H   0  0  0  0  0  0  0  0  0  0  0  0
   36.3404   29.6806   42.5673 H   0  0  0  0  0  0  0  0  0  0  0  0
   36.2516   26.9929   42.1088 H   0  0  0  0  0  0  0  0  0  0  0  0
   38.3379   26.5201   43.9002 H   0  0  0  0  0  0  0  0  0  0  0  0
   38.9315   27.9530   43.6799 H   0  0  0  0  0  0  0  0  0  0  0  0
   36.5272   28.9464   44.7406 H   0  0  0  0  0  0  0  0  0  0  0  0
   36.0456   27.5472   45.1985 H   0  0  0  0  0  0  0  0  0  0  0  0
   37.4466   32.4414   40.8900 H   0  0  0  0  0  0  0  0  0  0  0  0
   37.5582   34.7041   39.7464 H   0  0  0  0  0  0  0  0  0  0  0  0
   42.8882   34.1980   39.7801 H   0  0  0  0  0  0  0  0  0  0  0  0
   41.9629   35.6672   39.3501 H   0  0  0  0  0  0  0  0  0  0  0  0
   42.1174   37.7431   43.6866 H   0  0  0  0  0  0  0  0  0  0  0  0
   44.2706   36.1323   44.0933 H   0  0  0  0  0  0  0  0  0  0  0  0
   44.2911   34.4485   42.0093 H   0  0  0  0  0  0  0  0  0  0  0  0
  1  9  1  0
  1  5  1  0
  2  1  1  0
  3  2  1  0
  3  4  1  0
  4  5  1  0
  5  6  1  0
  6  7  1  0
  6  8  1  0
  7  8  1  0
  9 10  1  0
 10 11  2  0
 12 10  1  0
 13 12  2  0
 14 13  1  0
 15 14  2  0
 15 16  1  0
 16 17  2  0
 17 12  1  0
 18 16  1  0
 18 19  1  0
 19 20  1  0
 19 23  1  0
 20 21  2  0
 21 22  1  0
 23 22  2  0
  1 24  1  6
  2 25  1  0
  2 26  1  0
  3 27  1  0
  3 28  1  0
  4 29  1  0
  4 30  1  0
  5 31  1  1
  6 32  1  0
  7 33  1  0
  7 34  1  0
  8 35  1  0
  8 36  1  0
 13 37  1  0
 14 38  1  0
 18 39  1  0
 18 40  1  0
 21 41  1  0
 22 42  1  0
 23 43  1  0
M  ISO  8  24  13  25  13  26  13  27  13  28  13  29  13  30  13  31  13
M  ISO  8  32  13  33  13  34  13  35  13  36  13  37  14  38  14  39   8
M  ISO  4  40   8  41  14  42  14  43  14
M  END
>  <minimizedAffinity>  (1) 
-6.02878952

>  <minimizedRMSD>  (1) 
1.34127533

$$$$
