
     RDKit          3D

 42 45  0  0  1  0  0  0  0  0999 V2000
   37.9720   29.3760   41.3310 C   0  0  2  0  0  0  0  0  0  0  0  0
   37.4030   29.5070   39.7560 C   0  0  0  0  0  0  0  0  0  0  0  0
   35.9660   29.5140   39.7660 C   0  0  0  0  0  0  0  0  0  0  0  0
   35.6710   28.6210   40.9020 C   0  0  0  0  0  0  0  0  0  0  0  0
   36.7930   28.9080   41.9150 C   0  0  1  0  0  0  0  0  0  0  0  0
   36.9850   27.7630   42.8610 C   0  0  0  0  0  0  0  0  0  0  0  0
   38.1500   27.7470   43.7430 C   0  0  0  0  0  0  0  0  0  0  0  0
   36.8510   28.0720   44.3790 C   0  0  0  0  0  0  0  0  0  0  0  0
   38.2320   30.6230   41.6220 O   0  0  0  0  0  0  0  0  0  0  0  0
   39.3540   31.3880   41.1380 C   0  0  0  0  0  0  0  0  0  0  0  0
   40.4290   30.8660   41.1320 O   0  0  0  0  0  0  0  0  0  0  0  0
   39.0080   32.7570   40.6960 C   0  0  0  0  0  0  0  0  0  0  0  0
   37.7090   32.8740   40.0730 C   0  0  0  0  0  0  0  0  0  0  0  0
   37.3300   34.1360   39.6060 C   0  0  0  0  0  0  0  0  0  0  0  0
   38.2170   35.1600   39.7750 N   0  0  0  0  0  0  0  0  0  0  0  0
   39.4160   35.0100   40.3620 C   0  0  0  0  0  0  0  0  0  0  0  0
   39.7830   33.8120   40.8080 N   0  0  0  0  0  0  0  0  0  0  0  0
   40.2880   36.2080   40.4900 C   0  0  0  0  0  0  0  0  0  0  0  0
   41.5590   35.8630   41.1670 C   0  0  0  0  0  0  0  0  0  0  0  0
   41.9050   36.7200   42.2260 C   0  0  0  0  0  0  0  0  0  0  0  0
   43.5460   36.0170   42.8590 S   0  0  0  0  0  0  0  0  0  0  0  0
   43.4210   34.6720   41.5240 C   0  0  0  0  0  0  0  0  0  0  0  0
   42.4620   34.9260   41.0090 N   0  0  0  0  0  0  0  0  0  0  0  0
   38.8435   28.7585   41.5938 H   0  0  0  0  0  0  0  0  0  0  0  0
   37.7616   28.6520   39.1641 H   0  0  0  0  0  0  0  0  0  0  0  0
   37.7716   30.4421   39.3090 H   0  0  0  0  0  0  0  0  0  0  0  0
   35.5711   30.5261   39.9384 H   0  0  0  0  0  0  0  0  0  0  0  0
   35.5111   29.1945   38.8168 H   0  0  0  0  0  0  0  0  0  0  0  0
   34.6868   28.8537   41.3348 H   0  0  0  0  0  0  0  0  0  0  0  0
   35.6346   27.5625   40.6051 H   0  0  0  0  0  0  0  0  0  0  0  0
   36.4576   29.7573   42.5284 H   0  0  0  0  0  0  0  0  0  0  0  0
   36.5473   27.0478   42.1490 H   0  0  0  0  0  0  0  0  0  0  0  0
   38.6386   26.7889   43.9737 H   0  0  0  0  0  0  0  0  0  0  0  0
   39.1251   28.2553   43.7151 H   0  0  0  0  0  0  0  0  0  0  0  0
   36.6397   29.0954   44.7225 H   0  0  0  0  0  0  0  0  0  0  0  0
   36.2593   27.6784   45.2186 H   0  0  0  0  0  0  0  0  0  0  0  0
   37.0443   32.0036   39.9703 H   0  0  0  0  0  0  0  0  0  0  0  0
   36.3557   34.2975   39.1216 H   0  0  0  0  0  0  0  0  0  0  0  0
   40.5090   36.6021   39.4871 H   0  0  0  0  0  0  0  0  0  0  0  0
   39.7622   36.9644   41.0912 H   0  0  0  0  0  0  0  0  0  0  0  0
   41.3521   37.5944   42.5997 H   0  0  0  0  0  0  0  0  0  0  0  0
   44.1184   33.8485   41.3108 H   0  0  0  0  0  0  0  0  0  0  0  0
  1  9  1  0
  1  5  1  0
  2  3  1  0
  2  1  1  0
  3  4  1  0
  4  5  1  0
  5  6  1  0
  6  7  1  0
  6  8  1  0
  7  8  1  0
 10  9  1  0
 11 10  2  0
 12 17  1  0
 12 10  1  0
 13 12  2  0
 14 15  2  0
 14 13  1  0
 15 16  1  0
 16 18  1  0
 16 17  2  0
 18 19  1  0
 19 20  2  0
 20 21  1  0
 22 21  1  0
 23 19  1  0
 23 22  2  0
  1 24  1  6
  2 25  1  0
  2 26  1  0
  3 27  1  0
  3 28  1  0
  4 29  1  0
  4 30  1  0
  5 31  1  1
  6 32  1  0
  7 33  1  0
  7 34  1  0
  8 35  1  0
  8 36  1  0
 13 37  1  0
 14 38  1  0
 18 39  1  0
 18 40  1  0
 20 41  1  0
 22 42  1  0
M  ISO  8  24  13  25  13  26  13  27  13  28  13  29  13  30  13  31  13
M  ISO  8  32  13  33  13  34  13  35  13  36  13  37  14  38  14  39   8
M  ISO  3  40   8  41  14  42  14
M  END
>  <minimizedAffinity>  (1) 
-6.015306

>  <minimizedRMSD>  (1) 
1.42333043

$$$$
