
     RDKit          3D

 42 45  0  0  1  0  0  0  0  0999 V2000
   37.8370   29.2580   41.3690 C   0  0  2  0  0  0  0  0  0  0  0  0
   37.2990   29.4720   39.7920 C   0  0  0  0  0  0  0  0  0  0  0  0
   35.8640   29.5550   39.7850 C   0  0  0  0  0  0  0  0  0  0  0  0
   35.5080   28.6400   40.8860 C   0  0  0  0  0  0  0  0  0  0  0  0
   36.6290   28.8330   41.9220 C   0  0  1  0  0  0  0  0  0  0  0  0
   36.7460   27.6450   42.8260 C   0  0  0  0  0  0  0  0  0  0  0  0
   37.9150   27.5160   43.6940 C   0  0  0  0  0  0  0  0  0  0  0  0
   36.6450   27.9080   44.3550 C   0  0  0  0  0  0  0  0  0  0  0  0
   38.1550   30.4800   41.7090 O   0  0  0  0  0  0  0  0  0  0  0  0
   39.4950   31.0160   41.7760 C   0  0  0  0  0  0  0  0  0  0  0  0
   40.3400   30.3570   42.3040 O   0  0  0  0  0  0  0  0  0  0  0  0
   39.6440   32.3450   41.1520 C   0  0  0  0  0  0  0  0  0  0  0  0
   38.4050   32.9550   40.7270 C   0  0  0  0  0  0  0  0  0  0  0  0
   38.4730   34.2010   40.1030 C   0  0  0  0  0  0  0  0  0  0  0  0
   39.7140   34.7550   39.9400 N   0  0  0  0  0  0  0  0  0  0  0  0
   40.8450   34.1590   40.3500 C   0  0  0  0  0  0  0  0  0  0  0  0
   40.7820   32.9710   40.9450 N   0  0  0  0  0  0  0  0  0  0  0  0
   42.1310   34.8660   40.1310 C   0  0  0  0  0  0  0  0  0  0  0  0
   42.4430   35.5710   41.3630 N   0  0  0  0  0  0  0  0  0  0  0  0
   43.4820   35.2170   42.1390 C   0  0  0  0  0  0  0  0  0  0  0  0
   43.5090   36.0600   43.2090 N   0  0  0  0  0  0  0  0  0  0  0  0
   42.4860   36.9310   43.0870 C   0  0  0  0  0  0  0  0  0  0  0  0
   41.8680   36.5970   41.9530 N   0  0  0  0  0  0  0  0  0  0  0  0
   38.6723   28.5874   41.6190 H   0  0  0  0  0  0  0  0  0  0  0  0
   37.7225   30.4010   39.3825 H   0  0  0  0  0  0  0  0  0  0  0  0
   37.6211   28.6204   39.1748 H   0  0  0  0  0  0  0  0  0  0  0  0
   35.5203   30.5800   39.9881 H   0  0  0  0  0  0  0  0  0  0  0  0
   35.4056   29.2932   38.8200 H   0  0  0  0  0  0  0  0  0  0  0  0
   34.5313   28.9086   41.3148 H   0  0  0  0  0  0  0  0  0  0  0  0
   35.4215   27.5956   40.5517 H   0  0  0  0  0  0  0  0  0  0  0  0
   36.3328   29.6769   42.5625 H   0  0  0  0  0  0  0  0  0  0  0  0
   36.2526   26.9881   42.0945 H   0  0  0  0  0  0  0  0  0  0  0  0
   38.3373   26.5185   43.8855 H   0  0  0  0  0  0  0  0  0  0  0  0
   38.9231   27.9557   43.6738 H   0  0  0  0  0  0  0  0  0  0  0  0
   36.5082   28.9307   44.7364 H   0  0  0  0  0  0  0  0  0  0  0  0
   36.0335   27.5267   45.1861 H   0  0  0  0  0  0  0  0  0  0  0  0
   37.4397   32.4534   40.8901 H   0  0  0  0  0  0  0  0  0  0  0  0
   37.5658   34.7174   39.7560 H   0  0  0  0  0  0  0  0  0  0  0  0
   42.9256   34.1417   39.8985 H   0  0  0  0  0  0  0  0  0  0  0  0
   42.0552   35.5663   39.2861 H   0  0  0  0  0  0  0  0  0  0  0  0
   44.1850   34.3936   41.9448 H   0  0  0  0  0  0  0  0  0  0  0  0
   42.2181   37.7448   43.7769 H   0  0  0  0  0  0  0  0  0  0  0  0
  1  9  1  0
  1  5  1  0
  2  1  1  0
  3  2  1  0
  3  4  1  0
  4  5  1  0
  5  6  1  0
  6  7  1  0
  6  8  1  0
  7  8  1  0
  9 10  1  0
 10 11  2  0
 12 10  1  0
 13 12  2  0
 14 13  1  0
 15 14  2  0
 15 16  1  0
 16 17  2  0
 17 12  1  0
 18 16  1  0
 18 19  1  0
 19 23  1  0
 19 20  1  0
 20 21  2  0
 22 21  1  0
 23 22  2  0
  1 24  1  6
  2 25  1  0
  2 26  1  0
  3 27  1  0
  3 28  1  0
  4 29  1  0
  4 30  1  0
  5 31  1  1
  6 32  1  0
  7 33  1  0
  7 34  1  0
  8 35  1  0
  8 36  1  0
 13 37  1  0
 14 38  1  0
 18 39  1  0
 18 40  1  0
 20 41  1  0
 22 42  1  0
M  ISO  8  24  13  25  13  26  13  27  13  28  13  29  13  30  13  31  13
M  ISO  8  32  13  33  13  34  13  35  13  36  13  37  14  38  14  39   8
M  ISO  3  40   8  41  14  42  14
M  END
>  <minimizedAffinity>  (1) 
-6.00783777

>  <minimizedRMSD>  (1) 
1.25666726

$$$$
