
     RDKit          3D

 43 46  0  0  1  0  0  0  0  0999 V2000
   38.0670   29.2830   41.3960 C   0  0  2  0  0  0  0  0  0  0  0  0
   37.5270   29.4510   39.8160 C   0  0  0  0  0  0  0  0  0  0  0  0
   36.0950   29.5470   39.8090 C   0  0  0  0  0  0  0  0  0  0  0  0
   35.7220   28.6890   40.9470 C   0  0  0  0  0  0  0  0  0  0  0  0
   36.8550   28.8940   41.9660 C   0  0  1  0  0  0  0  0  0  0  0  0
   36.9610   27.7310   42.9060 C   0  0  0  0  0  0  0  0  0  0  0  0
   38.1200   27.6250   43.7900 C   0  0  0  0  0  0  0  0  0  0  0  0
   36.8440   28.0400   44.4250 C   0  0  0  0  0  0  0  0  0  0  0  0
   38.4050   30.5100   41.6920 O   0  0  0  0  0  0  0  0  0  0  0  0
   39.6010   31.1870   41.2560 C   0  0  0  0  0  0  0  0  0  0  0  0
   40.6410   30.6060   41.3370 O   0  0  0  0  0  0  0  0  0  0  0  0
   39.3660   32.5550   40.7410 C   0  0  0  0  0  0  0  0  0  0  0  0
   37.9760   32.8800   40.5120 C   0  0  0  0  0  0  0  0  0  0  0  0
   37.6840   34.1460   40.0010 C   0  0  0  0  0  0  0  0  0  0  0  0
   38.7340   34.9830   39.7560 N   0  0  0  0  0  0  0  0  0  0  0  0
   40.0210   34.6370   39.9880 C   0  0  0  0  0  0  0  0  0  0  0  0
   40.2910   33.4480   40.4670 N   0  0  0  0  0  0  0  0  0  0  0  0
   41.0630   35.6510   39.6740 C   0  0  0  0  0  0  0  0  0  0  0  0
   41.7760   35.9270   40.9560 C   0  0  0  0  0  0  0  0  0  0  0  0
   41.5850   36.8280   41.9890 C   0  0  0  0  0  0  0  0  0  0  0  0
   42.5430   36.6340   42.9160 N   0  0  0  0  0  0  0  0  0  0  0  0
   43.3480   35.6360   42.5200 C   0  0  0  0  0  0  0  0  0  0  0  0
   42.8770   35.2230   41.3470 N   0  0  0  0  0  0  0  0  0  0  0  0
   38.8931   28.6093   41.6674 H   0  0  0  0  0  0  0  0  0  0  0  0
   37.9580   30.3623   39.3759 H   0  0  0  0  0  0  0  0  0  0  0  0
   37.8394   28.5767   39.2261 H   0  0  0  0  0  0  0  0  0  0  0  0
   35.7637   30.5842   39.9656 H   0  0  0  0  0  0  0  0  0  0  0  0
   35.6359   29.2430   38.8567 H   0  0  0  0  0  0  0  0  0  0  0  0
   34.7561   29.0017   41.3704 H   0  0  0  0  0  0  0  0  0  0  0  0
   35.6039   27.6345   40.6569 H   0  0  0  0  0  0  0  0  0  0  0  0
   36.5752   29.7634   42.5791 H   0  0  0  0  0  0  0  0  0  0  0  0
   36.4749   27.0534   42.1886 H   0  0  0  0  0  0  0  0  0  0  0  0
   38.5373   26.6326   44.0159 H   0  0  0  0  0  0  0  0  0  0  0  0
   39.1296   28.0612   43.7676 H   0  0  0  0  0  0  0  0  0  0  0  0
   36.7060   29.0740   44.7740 H   0  0  0  0  0  0  0  0  0  0  0  0
   36.2223   27.6854   45.2603 H   0  0  0  0  0  0  0  0  0  0  0  0
   37.1776   32.1562   40.7324 H   0  0  0  0  0  0  0  0  0  0  0  0
   36.6475   34.4570   39.8034 H   0  0  0  0  0  0  0  0  0  0  0  0
   41.7651   35.2567   38.9246 H   0  0  0  0  0  0  0  0  0  0  0  0
   40.6182   36.5669   39.2578 H   0  0  0  0  0  0  0  0  0  0  0  0
   40.7830   37.5789   42.0440 H   0  0  0  0  0  0  0  0  0  0  0  0
   44.2218   35.2393   43.0576 H   0  0  0  0  0  0  0  0  0  0  0  0
   43.2954   34.4593   40.7969 H   0  0  0  0  0  0  0  0  0  0  0  0
  1  9  1  0
  1  5  1  0
  2  1  1  0
  3  2  1  0
  3  4  1  0
  4  5  1  0
  5  6  1  0
  6  7  1  0
  6  8  1  0
  7  8  1  0
 10 11  2  0
 10  9  1  0
 12 10  1  0
 13 12  2  0
 14 13  1  0
 15 16  1  0
 15 14  2  0
 16 17  2  0
 17 12  1  0
 18 16  1  0
 18 19  1  0
 19 23  1  0
 19 20  2  0
 20 21  1  0
 22 21  2  0
 23 22  1  0
  1 24  1  6
  2 25  1  0
  2 26  1  0
  3 27  1  0
  3 28  1  0
  4 29  1  0
  4 30  1  0
  5 31  1  1
  6 32  1  0
  7 33  1  0
  7 34  1  0
  8 35  1  0
  8 36  1  0
 13 37  1  0
 14 38  1  0
 18 39  1  0
 18 40  1  0
 20 41  1  0
 22 42  1  0
 23 43  1  0
M  ISO  8  24  13  25  13  26  13  27  13  28  13  29  13  30  13  31  13
M  ISO  8  32  13  33  13  34  13  35  13  36  13  37  14  38  14  39   8
M  ISO  4  40   8  41  14  42  14  43   9
M  END
>  <minimizedAffinity>  (1) 
-6.00596857

>  <minimizedRMSD>  (1) 
2.06905913

$$$$
