
     RDKit          3D

 43 46  0  0  1  0  0  0  0  0999 V2000
   37.8120   29.2410   41.3230 C   0  0  2  0  0  0  0  0  0  0  0  0
   37.2450   29.4620   39.7590 C   0  0  0  0  0  0  0  0  0  0  0  0
   35.8100   29.5540   39.7810 C   0  0  0  0  0  0  0  0  0  0  0  0
   35.4730   28.6300   40.8790 C   0  0  0  0  0  0  0  0  0  0  0  0
   36.6130   28.8150   41.8970 C   0  0  1  0  0  0  0  0  0  0  0  0
   36.7430   27.6240   42.7940 C   0  0  0  0  0  0  0  0  0  0  0  0
   37.9010   27.5110   43.6800 C   0  0  0  0  0  0  0  0  0  0  0  0
   36.6090   27.8620   44.3210 C   0  0  0  0  0  0  0  0  0  0  0  0
   38.1380   30.4590   41.6670 O   0  0  0  0  0  0  0  0  0  0  0  0
   39.4830   30.9850   41.7230 C   0  0  0  0  0  0  0  0  0  0  0  0
   40.3340   30.3060   42.2100 O   0  0  0  0  0  0  0  0  0  0  0  0
   39.6260   32.3360   41.1410 C   0  0  0  0  0  0  0  0  0  0  0  0
   38.3850   32.9400   40.7190 C   0  0  0  0  0  0  0  0  0  0  0  0
   38.4420   34.2030   40.1210 C   0  0  0  0  0  0  0  0  0  0  0  0
   39.6840   34.7720   39.9850 N   0  0  0  0  0  0  0  0  0  0  0  0
   40.8210   34.1690   40.3970 C   0  0  0  0  0  0  0  0  0  0  0  0
   40.7620   32.9730   40.9620 N   0  0  0  0  0  0  0  0  0  0  0  0
   42.0880   34.9120   40.1880 C   0  0  0  0  0  0  0  0  0  0  0  0
   42.7970   34.4210   38.9710 C   0  0  0  0  0  0  0  0  0  0  0  0
   43.8770   33.5860   38.8310 C   0  0  0  0  0  0  0  0  0  0  0  0
   44.1510   33.4420   37.4740 C   0  0  0  0  0  0  0  0  0  0  0  0
   43.2080   34.2090   36.8610 N   0  0  0  0  0  0  0  0  0  0  0  0
   42.4230   34.7760   37.7390 N   0  0  0  0  0  0  0  0  0  0  0  0
   38.6520   28.5685   41.5513 H   0  0  0  0  0  0  0  0  0  0  0  0
   37.5488   28.6091   39.1343 H   0  0  0  0  0  0  0  0  0  0  0  0
   37.6668   30.3885   39.3422 H   0  0  0  0  0  0  0  0  0  0  0  0
   35.4764   30.5787   40.0015 H   0  0  0  0  0  0  0  0  0  0  0  0
   35.3300   29.3059   38.8229 H   0  0  0  0  0  0  0  0  0  0  0  0
   34.5039   28.8947   41.3271 H   0  0  0  0  0  0  0  0  0  0  0  0
   35.3801   27.5885   40.5375 H   0  0  0  0  0  0  0  0  0  0  0  0
   36.3305   29.6554   42.5480 H   0  0  0  0  0  0  0  0  0  0  0  0
   36.2762   26.9660   42.0462 H   0  0  0  0  0  0  0  0  0  0  0  0
   38.3446   26.5216   43.8654 H   0  0  0  0  0  0  0  0  0  0  0  0
   38.8983   27.9750   43.6843 H   0  0  0  0  0  0  0  0  0  0  0  0
   36.4396   28.8755   44.7137 H   0  0  0  0  0  0  0  0  0  0  0  0
   35.9921   27.4536   45.1350 H   0  0  0  0  0  0  0  0  0  0  0  0
   37.4247   32.4233   40.8631 H   0  0  0  0  0  0  0  0  0  0  0  0
   37.5330   34.7171   39.7753 H   0  0  0  0  0  0  0  0  0  0  0  0
   41.8626   35.9818   40.0668 H   0  0  0  0  0  0  0  0  0  0  0  0
   42.7373   34.7534   41.0617 H   0  0  0  0  0  0  0  0  0  0  0  0
   44.4326   33.1106   39.6528 H   0  0  0  0  0  0  0  0  0  0  0  0
   44.9470   32.8453   37.0045 H   0  0  0  0  0  0  0  0  0  0  0  0
   43.1243   34.3268   35.8412 H   0  0  0  0  0  0  0  0  0  0  0  0
  1  9  1  0
  1  5  1  0
  2  3  1  0
  2  1  1  0
  3  4  1  0
  4  5  1  0
  5  6  1  0
  6  7  1  0
  6  8  1  0
  7  8  1  0
  9 10  1  0
 10 11  2  0
 12 10  1  0
 13 12  2  0
 14 13  1  0
 15 14  2  0
 15 16  1  0
 16 17  2  0
 17 12  1  0
 18 16  1  0
 19 18  1  0
 20 19  1  0
 21 20  2  0
 22 21  1  0
 22 23  1  0
 23 19  2  0
  1 24  1  6
  2 25  1  0
  2 26  1  0
  3 27  1  0
  3 28  1  0
  4 29  1  0
  4 30  1  0
  5 31  1  1
  6 32  1  0
  7 33  1  0
  7 34  1  0
  8 35  1  0
  8 36  1  0
 13 37  1  0
 14 38  1  0
 18 39  1  0
 18 40  1  0
 20 41  1  0
 21 42  1  0
 22 43  1  0
M  ISO  8  24  13  25  13  26  13  27  13  28  13  29  13  30  13  31  13
M  ISO  8  32  13  33  13  34  13  35  13  36  13  37  14  38  14  39   8
M  ISO  4  40   8  41  14  42  14  43   9
M  END
>  <minimizedAffinity>  (1) 
-5.86539602

>  <minimizedRMSD>  (1) 
1.35573268

$$$$
