
     RDKit          3D

 49 52  0  0  1  0  0  0  0  0999 V2000
   38.0140   29.2130   41.0660 C   0  0  2  0  0  0  0  0  0  0  0  0
   37.2920   29.5170   39.5790 C   0  0  0  0  0  0  0  0  0  0  0  0
   35.8990   29.8070   39.7760 C   0  0  0  0  0  0  0  0  0  0  0  0
   35.5750   28.9420   40.9260 C   0  0  0  0  0  0  0  0  0  0  0  0
   36.8490   28.9610   41.7880 C   0  0  1  0  0  0  0  0  0  0  0  0
   36.9220   27.7590   42.6800 C   0  0  0  0  0  0  0  0  0  0  0  0
   38.1290   27.5190   43.4670 C   0  0  0  0  0  0  0  0  0  0  0  0
   36.9450   28.0170   44.2120 C   0  0  0  0  0  0  0  0  0  0  0  0
   38.5530   30.3710   41.3400 O   0  0  0  0  0  0  0  0  0  0  0  0
   39.8630   30.8160   40.9310 C   0  0  0  0  0  0  0  0  0  0  0  0
   40.6970   29.9880   40.7220 O   0  0  0  0  0  0  0  0  0  0  0  0
   39.9940   32.2840   40.8180 C   0  0  0  0  0  0  0  0  0  0  0  0
   38.7510   32.9810   40.5730 C   0  0  0  0  0  0  0  0  0  0  0  0
   38.8040   34.3680   40.4220 C   0  0  0  0  0  0  0  0  0  0  0  0
   40.0340   34.9630   40.5210 N   0  0  0  0  0  0  0  0  0  0  0  0
   41.1630   34.2710   40.7510 C   0  0  0  0  0  0  0  0  0  0  0  0
   41.1170   32.9630   40.8930 N   0  0  0  0  0  0  0  0  0  0  0  0
   42.4370   35.0510   40.8210 C   0  0  0  0  0  0  0  0  0  0  0  0
   43.1680   34.8130   42.1140 C   0  0  0  0  0  0  0  0  0  0  0  0
   43.4880   36.0490   42.8880 C   0  0  0  0  0  0  0  0  0  0  0  0
   44.9820   36.2930   42.7850 C   0  0  0  0  0  0  0  0  0  0  0  0
   45.4600   35.3510   41.6930 C   0  0  0  0  0  0  0  0  0  0  0  0
   44.5080   34.2010   41.7670 C   0  0  0  0  0  0  0  0  0  0  0  0
   38.7706   28.4267   41.2052 H   0  0  0  0  0  0  0  0  0  0  0  0
   37.3951   28.6325   38.9332 H   0  0  0  0  0  0  0  0  0  0  0  0
   37.7827   30.3777   39.1011 H   0  0  0  0  0  0  0  0  0  0  0  0
   35.7401   30.8688   40.0152 H   0  0  0  0  0  0  0  0  0  0  0  0
   35.2744   29.6245   38.8891 H   0  0  0  0  0  0  0  0  0  0  0  0
   34.7189   29.3446   41.4873 H   0  0  0  0  0  0  0  0  0  0  0  0
   35.2907   27.9246   40.6192 H   0  0  0  0  0  0  0  0  0  0  0  0
   36.7712   29.8335   42.4534 H   0  0  0  0  0  0  0  0  0  0  0  0
   36.3259   27.1543   41.9807 H   0  0  0  0  0  0  0  0  0  0  0  0
   38.4722   26.4863   43.6273 H   0  0  0  0  0  0  0  0  0  0  0  0
   39.1689   27.8672   43.3809 H   0  0  0  0  0  0  0  0  0  0  0  0
   36.9254   29.0445   44.6042 H   0  0  0  0  0  0  0  0  0  0  0  0
   36.3577   27.6847   45.0807 H   0  0  0  0  0  0  0  0  0  0  0  0
   37.7969   32.4374   40.5079 H   0  0  0  0  0  0  0  0  0  0  0  0
   37.8957   34.9585   40.2314 H   0  0  0  0  0  0  0  0  0  0  0  0
   43.0852   34.7497   39.9849 H   0  0  0  0  0  0  0  0  0  0  0  0
   42.1865   36.1205   40.7619 H   0  0  0  0  0  0  0  0  0  0  0  0
   42.5061   34.1857   42.7291 H   0  0  0  0  0  0  0  0  0  0  0  0
   42.9401   36.9051   42.4675 H   0  0  0  0  0  0  0  0  0  0  0  0
   43.1922   35.9281   43.9406 H   0  0  0  0  0  0  0  0  0  0  0  0
   45.1849   37.3385   42.5098 H   0  0  0  0  0  0  0  0  0  0  0  0
   45.4968   36.1131   43.7403 H   0  0  0  0  0  0  0  0  0  0  0  0
   46.4906   35.0188   41.8864 H   0  0  0  0  0  0  0  0  0  0  0  0
   45.4753   35.8254   40.7007 H   0  0  0  0  0  0  0  0  0  0  0  0
   44.4552   33.6817   40.7987 H   0  0  0  0  0  0  0  0  0  0  0  0
   44.8232   33.4552   42.5116 H   0  0  0  0  0  0  0  0  0  0  0  0
  1  9  1  0
  1  5  1  0
  2  3  1  0
  2  1  1  0
  3  4  1  0
  4  5  1  0
  5  6  1  0
  6  7  1  0
  6  8  1  0
  7  8  1  0
 10  9  1  0
 11 10  2  0
 12 17  1  0
 12 10  1  0
 13 12  2  0
 14 15  2  0
 14 13  1  0
 15 16  1  0
 16 18  1  0
 16 17  2  0
 18 19  1  0
 19 20  1  0
 21 20  1  0
 22 23  1  0
 22 21  1  0
 23 19  1  0
  1 24  1  6
  2 25  1  0
  2 26  1  0
  3 27  1  0
  3 28  1  0
  4 29  1  0
  4 30  1  0
  5 31  1  1
  6 32  1  0
  7 33  1  0
  7 34  1  0
  8 35  1  0
  8 36  1  0
 13 37  1  0
 14 38  1  0
 18 39  1  0
 18 40  1  0
 19 41  1  0
 20 42  1  0
 20 43  1  0
 21 44  1  0
 21 45  1  0
 22 46  1  0
 22 47  1  0
 23 48  1  0
 23 49  1  0
M  ISO  8  24  13  25  13  26  13  27  13  28  13  29  13  30  13  31  13
M  ISO  8  32  13  33  13  34  13  35  13  36  13  37  14  38  14  39   8
M  ISO  8  40   8  41  13  42  13  43  13  44  13  45  13  46  13  47  13
M  ISO  2  48  13  49  13
M  END
>  <minimizedAffinity>  (1) 
-5.71130991

>  <minimizedRMSD>  (1) 
1.45809126

$$$$
