
     RDKit          3D

 41 44  0  0  1  0  0  0  0  0999 V2000
   37.8760   29.1880   41.3680 C   0  0  2  0  0  0  0  0  0  0  0  0
   37.3450   29.3550   39.7830 C   0  0  0  0  0  0  0  0  0  0  0  0
   35.9130   29.4690   39.7720 C   0  0  0  0  0  0  0  0  0  0  0  0
   35.5340   28.6050   40.9050 C   0  0  0  0  0  0  0  0  0  0  0  0
   36.6610   28.8080   41.9320 C   0  0  1  0  0  0  0  0  0  0  0  0
   36.7510   27.6540   42.8830 C   0  0  0  0  0  0  0  0  0  0  0  0
   37.9330   27.5130   43.7290 C   0  0  0  0  0  0  0  0  0  0  0  0
   36.6980   27.9850   44.4020 C   0  0  0  0  0  0  0  0  0  0  0  0
   38.2260   30.4110   41.6600 O   0  0  0  0  0  0  0  0  0  0  0  0
   39.4710   31.0450   41.3030 C   0  0  0  0  0  0  0  0  0  0  0  0
   40.4770   30.4170   41.4230 O   0  0  0  0  0  0  0  0  0  0  0  0
   39.3220   32.4330   40.8120 C   0  0  0  0  0  0  0  0  0  0  0  0
   37.9670   32.8100   40.4770 C   0  0  0  0  0  0  0  0  0  0  0  0
   37.7600   34.0970   39.9760 C   0  0  0  0  0  0  0  0  0  0  0  0
   38.8560   34.9000   39.8390 N   0  0  0  0  0  0  0  0  0  0  0  0
   40.0960   34.5060   40.1640 C   0  0  0  0  0  0  0  0  0  0  0  0
   40.3000   33.2930   40.6390 N   0  0  0  0  0  0  0  0  0  0  0  0
   41.1950   35.4960   39.9380 C   0  0  0  0  0  0  0  0  0  0  0  0
   42.1950   34.8050   39.0810 C   0  0  0  0  0  0  0  0  0  0  0  0
   42.2710   34.5950   37.7540 N   0  0  0  0  0  0  0  0  0  0  0  0
   43.3620   33.9230   37.4740 O   0  0  0  0  0  0  0  0  0  0  0  0
   44.0240   33.6770   38.5880 C   0  0  0  0  0  0  0  0  0  0  0  0
   43.3110   34.2210   39.6070 N   0  0  0  0  0  0  0  0  0  0  0  0
   38.6948   28.5089   41.6479 H   0  0  0  0  0  0  0  0  0  0  0  0
   37.7890   30.2586   39.3399 H   0  0  0  0  0  0  0  0  0  0  0  0
   37.6493   28.4748   39.1976 H   0  0  0  0  0  0  0  0  0  0  0  0
   35.5925   30.5084   39.9360 H   0  0  0  0  0  0  0  0  0  0  0  0
   35.4501   29.1804   38.8168 H   0  0  0  0  0  0  0  0  0  0  0  0
   34.5650   28.9143   41.3237 H   0  0  0  0  0  0  0  0  0  0  0  0
   35.4193   27.5515   40.6099 H   0  0  0  0  0  0  0  0  0  0  0  0
   36.3833   29.6817   42.5399 H   0  0  0  0  0  0  0  0  0  0  0  0
   36.2139   26.9883   42.1914 H   0  0  0  0  0  0  0  0  0  0  0  0
   38.3187   26.5076   43.9533 H   0  0  0  0  0  0  0  0  0  0  0  0
   38.9573   27.9091   43.6669 H   0  0  0  0  0  0  0  0  0  0  0  0
   36.6127   29.0275   44.7424 H   0  0  0  0  0  0  0  0  0  0  0  0
   36.0922   27.6649   45.2626 H   0  0  0  0  0  0  0  0  0  0  0  0
   37.1301   32.1090   40.6118 H   0  0  0  0  0  0  0  0  0  0  0  0
   36.7546   34.4497   39.7027 H   0  0  0  0  0  0  0  0  0  0  0  0
   40.8062   36.3897   39.4280 H   0  0  0  0  0  0  0  0  0  0  0  0
   41.6387   35.8311   40.8871 H   0  0  0  0  0  0  0  0  0  0  0  0
   44.9759   33.1327   38.6750 H   0  0  0  0  0  0  0  0  0  0  0  0
  1  9  1  0
  1  5  1  0
  2  1  1  0
  3  2  1  0
  3  4  1  0
  4  5  1  0
  5  6  1  0
  6  7  1  0
  6  8  1  0
  7  8  1  0
 10 11  2  0
 10  9  1  0
 12 10  1  0
 13 12  2  0
 14 13  1  0
 15 14  2  0
 15 16  1  0
 16 17  2  0
 17 12  1  0
 18 16  1  0
 19 23  1  0
 19 18  1  0
 20 19  2  0
 21 20  1  0
 21 22  1  0
 22 23  2  0
  1 24  1  6
  2 25  1  0
  2 26  1  0
  3 27  1  0
  3 28  1  0
  4 29  1  0
  4 30  1  0
  5 31  1  1
  6 32  1  0
  7 33  1  0
  7 34  1  0
  8 35  1  0
  8 36  1  0
 13 37  1  0
 14 38  1  0
 18 39  1  0
 18 40  1  0
 22 41  1  0
M  ISO  8  24  13  25  13  26  13  27  13  28  13  29  13  30  13  31  13
M  ISO  8  32  13  33  13  34  13  35  13  36  13  37  14  38  14  39   8
M  ISO  2  40   8  41  14
M  END
>  <minimizedAffinity>  (1) 
-5.43761396

>  <minimizedRMSD>  (1) 
1.04155529

$$$$
