
     RDKit          3D

 38 40  0  0  1  0  0  0  0  0999 V2000
   37.9640   29.4330   41.0210 C   0  0  2  0  0  0  0  0  0  0  0  0
   37.1980   29.6570   39.5460 C   0  0  0  0  0  0  0  0  0  0  0  0
   35.7800   29.7430   39.7520 C   0  0  0  0  0  0  0  0  0  0  0  0
   35.5850   28.8290   40.8920 C   0  0  0  0  0  0  0  0  0  0  0  0
   36.8490   29.0130   41.7480 C   0  0  1  0  0  0  0  0  0  0  0  0
   37.0900   27.8240   42.6270 C   0  0  0  0  0  0  0  0  0  0  0  0
   38.3030   27.7690   43.4430 C   0  0  0  0  0  0  0  0  0  0  0  0
   37.0380   28.0590   44.1640 C   0  0  0  0  0  0  0  0  0  0  0  0
   38.3370   30.6520   41.3150 O   0  0  0  0  0  0  0  0  0  0  0  0
   39.4970   31.3290   40.7920 C   0  0  0  0  0  0  0  0  0  0  0  0
   40.4730   30.6820   40.5670 O   0  0  0  0  0  0  0  0  0  0  0  0
   39.3140   32.7800   40.5920 C   0  0  0  0  0  0  0  0  0  0  0  0
   38.0170   33.1550   40.0720 C   0  0  0  0  0  0  0  0  0  0  0  0
   37.7840   34.5120   39.8250 C   0  0  0  0  0  0  0  0  0  0  0  0
   38.8020   35.3820   40.0950 N   0  0  0  0  0  0  0  0  0  0  0  0
   40.0000   34.9870   40.5830 C   0  0  0  0  0  0  0  0  0  0  0  0
   40.2210   33.7040   40.8160 N   0  0  0  0  0  0  0  0  0  0  0  0
   41.0110   36.0520   40.8230 C   0  0  0  0  0  0  0  0  0  0  0  0
   40.8500   36.6680   42.1140 N   0  0  0  0  0  0  0  0  0  0  0  0
   38.8231   28.7563   41.1396 H   0  0  0  0  0  0  0  0  0  0  0  0
   37.4216   28.8075   38.8839 H   0  0  0  0  0  0  0  0  0  0  0  0
   37.5586   30.5873   39.0829 H   0  0  0  0  0  0  0  0  0  0  0  0
   35.4734   30.7689   40.0041 H   0  0  0  0  0  0  0  0  0  0  0  0
   35.1843   29.4821   38.8648 H   0  0  0  0  0  0  0  0  0  0  0  0
   34.6852   29.1036   41.4620 H   0  0  0  0  0  0  0  0  0  0  0  0
   35.4413   27.7858   40.5741 H   0  0  0  0  0  0  0  0  0  0  0  0
   36.6590   29.8584   42.4256 H   0  0  0  0  0  0  0  0  0  0  0  0
   36.6132   27.1428   41.9068 H   0  0  0  0  0  0  0  0  0  0  0  0
   38.8041   26.8024   43.6001 H   0  0  0  0  0  0  0  0  0  0  0  0
   39.2749   28.2811   43.3869 H   0  0  0  0  0  0  0  0  0  0  0  0
   36.8448   29.0639   44.5675 H   0  0  0  0  0  0  0  0  0  0  0  0
   36.4927   27.6233   45.0142 H   0  0  0  0  0  0  0  0  0  0  0  0
   37.2414   32.3996   39.8777 H   0  0  0  0  0  0  0  0  0  0  0  0
   36.8200   34.8643   39.4293 H   0  0  0  0  0  0  0  0  0  0  0  0
   42.0155   35.6076   40.7644 H   0  0  0  0  0  0  0  0  0  0  0  0
   40.8741   36.8291   40.0566 H   0  0  0  0  0  0  0  0  0  0  0  0
   41.0318   35.9723   42.8514 H   0  0  0  0  0  0  0  0  0  0  0  0
   41.5151   37.4489   42.2072 H   0  0  0  0  0  0  0  0  0  0  0  0
  1  9  1  0
  1  5  1  0
  2  3  1  0
  2  1  1  0
  3  4  1  0
  4  5  1  0
  5  6  1  0
  6  7  1  0
  6  8  1  0
  7  8  1  0
 10  9  1  0
 11 10  2  0
 12 10  1  0
 12 17  1  0
 13 12  2  0
 14 13  1  0
 14 15  2  0
 15 16  1  0
 16 17  2  0
 16 18  1  0
 18 19  1  0
  1 20  1  6
  2 21  1  0
  2 22  1  0
  3 23  1  0
  3 24  1  0
  4 25  1  0
  4 26  1  0
  5 27  1  1
  6 28  1  0
  7 29  1  0
  7 30  1  0
  8 31  1  0
  8 32  1  0
 13 33  1  0
 14 34  1  0
 18 35  1  0
 18 36  1  0
 19 37  1  0
 19 38  1  0
M  ISO  8  20  13  21  13  22  13  23  13  24  13  25  13  26  13  27  13
M  ISO  8  28  13  29  13  30  13  31  13  32  13  33  14  34  14  35   8
M  ISO  3  36   8  37   5  38   5
M  END
>  <minimizedAffinity>  (1) 
-5.37076998

>  <minimizedRMSD>  (1) 
0.185476333

$$$$
