
     RDKit          3D

 43 46  0  0  1  0  0  0  0  0999 V2000
   38.0060   29.3320   41.1000 C   0  0  2  0  0  0  0  0  0  0  0  0
   37.2950   29.5370   39.5990 C   0  0  0  0  0  0  0  0  0  0  0  0
   35.8820   29.7350   39.7680 C   0  0  0  0  0  0  0  0  0  0  0  0
   35.6070   28.8410   40.9100 C   0  0  0  0  0  0  0  0  0  0  0  0
   36.8580   28.9730   41.8010 C   0  0  1  0  0  0  0  0  0  0  0  0
   37.0220   27.7840   42.6950 C   0  0  0  0  0  0  0  0  0  0  0  0
   38.2360   27.6570   43.5030 C   0  0  0  0  0  0  0  0  0  0  0  0
   37.0000   28.0470   44.2270 C   0  0  0  0  0  0  0  0  0  0  0  0
   38.4340   30.5330   41.3740 O   0  0  0  0  0  0  0  0  0  0  0  0
   39.6030   31.1660   40.8060 C   0  0  0  0  0  0  0  0  0  0  0  0
   40.5550   30.4880   40.5830 O   0  0  0  0  0  0  0  0  0  0  0  0
   39.4340   32.6200   40.5690 C   0  0  0  0  0  0  0  0  0  0  0  0
   38.1030   33.0280   40.2040 C   0  0  0  0  0  0  0  0  0  0  0  0
   37.8920   34.3830   39.9570 C   0  0  0  0  0  0  0  0  0  0  0  0
   38.9670   35.2210   40.0790 N   0  0  0  0  0  0  0  0  0  0  0  0
   40.1950   34.8000   40.4220 C   0  0  0  0  0  0  0  0  0  0  0  0
   40.3880   33.5180   40.6550 N   0  0  0  0  0  0  0  0  0  0  0  0
   41.2740   35.8170   40.5210 C   0  0  0  0  0  0  0  0  0  0  0  0
   41.8600   35.6600   41.9270 C   0  0  0  0  0  0  0  0  0  0  0  0
   42.2710   36.8620   42.6740 C   0  0  0  0  0  0  0  0  0  0  0  0
   43.2900   35.8350   42.1880 C   0  0  0  0  0  0  0  0  0  0  0  0
   38.8336   28.6263   41.2647 H   0  0  0  0  0  0  0  0  0  0  0  0
   37.4700   28.6421   38.9838 H   0  0  0  0  0  0  0  0  0  0  0  0
   37.7335   30.4133   39.0992 H   0  0  0  0  0  0  0  0  0  0  0  0
   35.6468   30.7822   40.0090 H   0  0  0  0  0  0  0  0  0  0  0  0
   35.2835   29.5210   38.8702 H   0  0  0  0  0  0  0  0  0  0  0  0
   34.7060   29.1651   41.4515 H   0  0  0  0  0  0  0  0  0  0  0  0
   35.4188   27.8032   40.5978 H   0  0  0  0  0  0  0  0  0  0  0  0
   36.6889   29.8308   42.4685 H   0  0  0  0  0  0  0  0  0  0  0  0
   36.4927   27.1263   41.9898 H   0  0  0  0  0  0  0  0  0  0  0  0
   38.6693   26.6603   43.6730 H   0  0  0  0  0  0  0  0  0  0  0  0
   39.2411   28.0982   43.4315 H   0  0  0  0  0  0  0  0  0  0  0  0
   36.8810   29.0695   44.6147 H   0  0  0  0  0  0  0  0  0  0  0  0
   36.4325   27.6646   45.0882 H   0  0  0  0  0  0  0  0  0  0  0  0
   37.2839   32.2983   40.1231 H   0  0  0  0  0  0  0  0  0  0  0  0
   36.8996   34.7644   39.6748 H   0  0  0  0  0  0  0  0  0  0  0  0
   42.0467   35.6324   39.7601 H   0  0  0  0  0  0  0  0  0  0  0  0
   40.8915   36.8342   40.3507 H   0  0  0  0  0  0  0  0  0  0  0  0
   41.1621   34.8304   42.1133 H   0  0  0  0  0  0  0  0  0  0  0  0
   42.2154   37.8540   42.2020 H   0  0  0  0  0  0  0  0  0  0  0  0
   42.0100   37.3147   43.6420 H   0  0  0  0  0  0  0  0  0  0  0  0
   43.8042   35.1825   42.9091 H   0  0  0  0  0  0  0  0  0  0  0  0
   44.2009   35.8658   41.5722 H   0  0  0  0  0  0  0  0  0  0  0  0
  1  9  1  0
  1  5  1  0
  2  3  1  0
  2  1  1  0
  3  4  1  0
  4  5  1  0
  5  6  1  0
  6  7  1  0
  6  8  1  0
  7  8  1  0
 10  9  1  0
 11 10  2  0
 12 17  1  0
 12 10  1  0
 13 12  2  0
 14 15  2  0
 14 13  1  0
 15 16  1  0
 16 18  1  0
 16 17  2  0
 18 19  1  0
 19 21  1  0
 19 20  1  0
 21 20  1  0
  1 22  1  6
  2 23  1  0
  2 24  1  0
  3 25  1  0
  3 26  1  0
  4 27  1  0
  4 28  1  0
  5 29  1  1
  6 30  1  0
  7 31  1  0
  7 32  1  0
  8 33  1  0
  8 34  1  0
 13 35  1  0
 14 36  1  0
 18 37  1  0
 18 38  1  0
 19 39  1  0
 20 40  1  0
 20 41  1  0
 21 42  1  0
 21 43  1  0
M  ISO  8  22  13  23  13  24  13  25  13  26  13  27  13  28  13  29  13
M  ISO  8  30  13  31  13  32  13  33  13  34  13  35  14  36  14  37   8
M  ISO  6  38   8  39  13  40  13  41  13  42  13  43  13
M  END
>  <minimizedAffinity>  (1) 
-5.30890656

>  <minimizedRMSD>  (1) 
0.488235712

$$$$
