
     RDKit          3D

 36 38  0  0  0  0  0  0  0  0999 V2000
   37.5230   26.5790   42.0720 C   0  0  0  0  0  0  0  0  0  0  0  0
   35.2870   29.1440   40.3780 C   0  0  0  0  0  0  0  0  0  0  0  0
   36.0180   28.5280   41.4020 C   0  0  0  0  0  0  0  0  0  0  0  0
   36.7080   27.3470   41.1050 C   0  0  0  0  0  0  0  0  0  0  0  0
   36.6240   26.8730   39.8370 N   0  0  0  0  0  0  0  0  0  0  0  0
   35.9090   27.4890   38.8650 C   0  0  0  0  0  0  0  0  0  0  0  0
   35.2460   28.6180   39.1390 N   0  0  0  0  0  0  0  0  0  0  0  0
   36.9520   25.1690   42.0540 C   0  0  0  0  0  0  0  0  0  0  0  0
   37.4790   27.1810   43.4500 C   0  0  0  0  0  0  0  0  0  0  0  0
   38.9550   26.4560   41.6240 C   0  0  0  0  0  0  0  0  0  0  0  0
   39.8360   27.4540   42.1510 N   0  0  0  0  0  0  0  0  0  0  0  0
   39.6960   28.8100   42.2120 C   0  0  0  0  0  0  0  0  0  0  0  0
   40.8040   29.3450   42.8060 N   0  0  0  0  0  0  0  0  0  0  0  0
   41.6510   28.3580   43.1260 C   0  0  0  0  0  0  0  0  0  0  0  0
   42.8880   28.2880   43.7240 C   0  0  0  0  0  0  0  0  0  0  0  0
   43.4730   29.3070   44.1080 O   0  0  0  0  0  0  0  0  0  0  0  0
   43.5050   27.1080   43.9130 N   0  0  0  0  0  0  0  0  0  0  0  0
   42.8830   25.9680   43.5000 C   0  0  0  0  0  0  0  0  0  0  0  0
   43.4290   24.6400   43.6400 N   0  0  0  0  0  0  0  0  0  0  0  0
   41.6790   26.0000   42.9140 N   0  0  0  0  0  0  0  0  0  0  0  0
   41.0490   27.1840   42.7190 C   0  0  0  0  0  0  0  0  0  0  0  0
   34.7372   30.0730   40.5895 H   0  0  0  0  0  0  0  0  0  0  0  0
   36.0489   28.9610   42.4127 H   0  0  0  0  0  0  0  0  0  0  0  0
   35.8737   27.0614   37.8521 H   0  0  0  0  0  0  0  0  0  0  0  0
   36.8098   24.8178   43.0867 H   0  0  0  0  0  0  0  0  0  0  0  0
   35.9842   25.1720   41.5312 H   0  0  0  0  0  0  0  0  0  0  0  0
   37.6492   24.4977   41.5312 H   0  0  0  0  0  0  0  0  0  0  0  0
   37.5375   26.3803   44.2020 H   0  0  0  0  0  0  0  0  0  0  0  0
   38.3294   27.8669   43.5778 H   0  0  0  0  0  0  0  0  0  0  0  0
   36.5379   27.7360   43.5778 H   0  0  0  0  0  0  0  0  0  0  0  0
   39.3283   25.4699   41.9374 H   0  0  0  0  0  0  0  0  0  0  0  0
   38.9510   26.5912   40.5323 H   0  0  0  0  0  0  0  0  0  0  0  0
   38.8309   29.3802   41.8426 H   0  0  0  0  0  0  0  0  0  0  0  0
   44.4311   27.0667   44.3619 H   0  0  0  0  0  0  0  0  0  0  0  0
   42.8963   23.8259   43.3018 H   0  0  0  0  0  0  0  0  0  0  0  0
   44.3515   24.5060   44.0781 H   0  0  0  0  0  0  0  0  0  0  0  0
  1  9  1  0
  2  3  2  0
  4  3  1  0
  4  1  1  0
  5  4  2  0
  6  7  2  0
  6  5  1  0
  7  2  1  0
  8  1  1  0
 10  1  1  0
 10 11  1  0
 11 12  1  0
 11 21  1  0
 12 13  2  0
 13 14  1  0
 14 15  1  0
 15 17  1  0
 15 16  2  0
 18 19  1  0
 18 17  1  0
 20 18  2  0
 21 20  1  0
 21 14  2  0
  2 22  1  0
  3 23  1  0
  6 24  1  0
  8 25  1  0
  8 26  1  0
  8 27  1  0
  9 28  1  0
  9 29  1  0
  9 30  1  0
 10 31  1  0
 10 32  1  0
 12 33  1  0
 17 34  1  0
 19 35  1  0
 19 36  1  0
M  ISO  8  22  14  23  14  24  14  25   8  26   8  27   8  28   8  29   8
M  ISO  5  30   8  31   8  32   8  33  14  34   9
M  END
>  <minimizedAffinity>  (1) 
-5.01392221

>  <minimizedRMSD>  (1) 
6.20536137

$$$$
