
     RDKit          3D

 36 38  0  0  0  0  0  0  0  0999 V2000
   36.8440   29.8800   39.1150 C   0  0  0  0  0  0  0  0  0  0  0  0
   38.9970   32.3710   41.0520 C   0  0  0  0  0  0  0  0  0  0  0  0
   38.5140   31.1290   40.6210 C   0  0  0  0  0  0  0  0  0  0  0  0
   37.4910   31.1000   39.6920 C   0  0  0  0  0  0  0  0  0  0  0  0
   37.0090   32.3050   39.2490 N   0  0  0  0  0  0  0  0  0  0  0  0
   37.4880   33.4880   39.6760 C   0  0  0  0  0  0  0  0  0  0  0  0
   38.4750   33.5200   40.5710 N   0  0  0  0  0  0  0  0  0  0  0  0
   36.6430   30.1700   37.6420 C   0  0  0  0  0  0  0  0  0  0  0  0
   35.5280   29.6230   39.8120 C   0  0  0  0  0  0  0  0  0  0  0  0
   37.7480   28.6900   39.2360 C   0  0  0  0  0  0  0  0  0  0  0  0
   37.1270   27.3940   38.9860 C   0  0  0  0  0  0  0  0  0  0  0  0
   36.5940   26.9750   37.8500 N   0  0  0  0  0  0  0  0  0  0  0  0
   36.0650   25.7470   37.7520 C   0  0  0  0  0  0  0  0  0  0  0  0
   36.0350   24.8680   38.7690 N   0  0  0  0  0  0  0  0  0  0  0  0
   36.5660   25.2470   39.9480 C   0  0  0  0  0  0  0  0  0  0  0  0
   36.5020   24.3030   40.9480 C   0  0  0  0  0  0  0  0  0  0  0  0
   37.0310   24.6420   42.1720 C   0  0  0  0  0  0  0  0  0  0  0  0
   37.5890   25.8880   42.3370 C   0  0  0  0  0  0  0  0  0  0  0  0
   37.6210   26.7870   41.2960 C   0  0  0  0  0  0  0  0  0  0  0  0
   37.1060   26.5080   40.0380 C   0  0  0  0  0  0  0  0  0  0  0  0
   39.8109   32.4111   41.7908 H   0  0  0  0  0  0  0  0  0  0  0  0
   38.9406   30.1945   41.0143 H   0  0  0  0  0  0  0  0  0  0  0  0
   37.0658   34.4264   39.2872 H   0  0  0  0  0  0  0  0  0  0  0  0
   36.0198   31.0691   37.5270 H   0  0  0  0  0  0  0  0  0  0  0  0
   37.6198   30.3374   37.1646 H   0  0  0  0  0  0  0  0  0  0  0  0
   36.1434   29.3141   37.1646 H   0  0  0  0  0  0  0  0  0  0  0  0
   35.6782   29.6523   40.9013 H   0  0  0  0  0  0  0  0  0  0  0  0
   34.8018   30.3963   39.5210 H   0  0  0  0  0  0  0  0  0  0  0  0
   35.1461   28.6333   39.5210 H   0  0  0  0  0  0  0  0  0  0  0  0
   38.5695   28.8154   38.5153 H   0  0  0  0  0  0  0  0  0  0  0  0
   38.0742   28.6677   40.2863 H   0  0  0  0  0  0  0  0  0  0  0  0
   35.6322   25.4422   36.7877 H   0  0  0  0  0  0  0  0  0  0  0  0
   36.0461   23.3169   40.7753 H   0  0  0  0  0  0  0  0  0  0  0  0
   37.0079   23.9263   43.0070 H   0  0  0  0  0  0  0  0  0  0  0  0
   38.0143   26.1689   43.3118 H   0  0  0  0  0  0  0  0  0  0  0  0
   38.0762   27.7733   41.4691 H   0  0  0  0  0  0  0  0  0  0  0  0
  1 10  1  0
  1  4  1  0
  1  9  1  0
  3  2  2  0
  4  3  1  0
  5  6  1  0
  5  4  2  0
  6  7  2  0
  7  2  1  0
  8  1  1  0
 11 10  1  0
 11 20  1  0
 12 11  2  0
 13 12  1  0
 13 14  2  0
 14 15  1  0
 15 20  2  0
 15 16  1  0
 16 17  2  0
 17 18  1  0
 19 18  2  0
 20 19  1  0
  2 21  1  0
  3 22  1  0
  6 23  1  0
  8 24  1  0
  8 25  1  0
  8 26  1  0
  9 27  1  0
  9 28  1  0
  9 29  1  0
 10 30  1  0
 10 31  1  0
 13 32  1  0
 16 33  1  0
 17 34  1  0
 18 35  1  0
 19 36  1  0
M  ISO  8  21  14  22  14  23  14  24   8  25   8  26   8  27   8  28   8
M  ISO  8  29   8  30   8  31   8  32  14  33  14  34  14  35  14  36  14
M  END
>  <minimizedAffinity>  (1) 
-4.98119926

>  <minimizedRMSD>  (1) 
5.81509304

$$$$
