
     RDKit          3D

 29 30  0  0  0  0  0  0  0  0999 V2000
   37.3720   27.7850   43.2540 C   0  0  0  0  0  0  0  0  0  0  0  0
   36.9940   30.8280   41.0030 C   0  0  0  0  0  0  0  0  0  0  0  0
   37.5110   30.0020   42.0050 C   0  0  0  0  0  0  0  0  0  0  0  0
   36.9190   28.7500   42.2250 C   0  0  0  0  0  0  0  0  0  0  0  0
   35.8630   28.4080   41.4400 N   0  0  0  0  0  0  0  0  0  0  0  0
   35.3810   29.2190   40.4800 C   0  0  0  0  0  0  0  0  0  0  0  0
   35.9390   30.4230   40.2580 N   0  0  0  0  0  0  0  0  0  0  0  0
   37.0360   26.4120   42.6850 C   0  0  0  0  0  0  0  0  0  0  0  0
   36.7190   28.0220   44.5800 C   0  0  0  0  0  0  0  0  0  0  0  0
   38.8780   27.8190   43.3900 C   0  0  0  0  0  0  0  0  0  0  0  0
   39.5300   26.6690   42.8420 N   0  0  0  0  0  0  0  0  0  0  0  0
   39.8070   26.3770   41.5820 N   0  0  0  0  0  0  0  0  0  0  0  0
   40.4390   25.1720   41.5270 C   0  0  0  0  0  0  0  0  0  0  0  0
   40.5400   24.7260   42.8300 C   0  0  0  0  0  0  0  0  0  0  0  0
   39.9640   25.6750   43.6720 C   0  0  0  0  0  0  0  0  0  0  0  0
   37.4473   31.8132   40.8187 H   0  0  0  0  0  0  0  0  0  0  0  0
   38.3686   30.3288   42.6114 H   0  0  0  0  0  0  0  0  0  0  0  0
   34.5237   28.8947   39.8718 H   0  0  0  0  0  0  0  0  0  0  0  0
   36.8631   25.7054   43.5101 H   0  0  0  0  0  0  0  0  0  0  0  0
   36.1288   26.4832   42.0670 H   0  0  0  0  0  0  0  0  0  0  0  0
   37.8736   26.0562   42.0670 H   0  0  0  0  0  0  0  0  0  0  0  0
   37.4226   27.7666   45.3861 H   0  0  0  0  0  0  0  0  0  0  0  0
   36.4337   29.0810   44.6642 H   0  0  0  0  0  0  0  0  0  0  0  0
   35.8209   27.3925   44.6642 H   0  0  0  0  0  0  0  0  0  0  0  0
   39.2538   28.7124   42.8698 H   0  0  0  0  0  0  0  0  0  0  0  0
   39.1039   27.8348   44.4664 H   0  0  0  0  0  0  0  0  0  0  0  0
   40.7978   24.6564   40.6240 H   0  0  0  0  0  0  0  0  0  0  0  0
   40.9989   23.7789   43.1500 H   0  0  0  0  0  0  0  0  0  0  0  0
   39.8775   25.6328   44.7678 H   0  0  0  0  0  0  0  0  0  0  0  0
  1 10  1  0
  1  9  1  0
  2  3  2  0
  3  4  1  0
  4  1  1  0
  5  4  2  0
  6  5  1  0
  7  6  2  0
  7  2  1  0
  8  1  1  0
 11 10  1  0
 11 15  1  0
 12 11  1  0
 13 12  2  0
 13 14  1  0
 14 15  2  0
  2 16  1  0
  3 17  1  0
  6 18  1  0
  8 19  1  0
  8 20  1  0
  8 21  1  0
  9 22  1  0
  9 23  1  0
  9 24  1  0
 10 25  1  0
 10 26  1  0
 13 27  1  0
 14 28  1  0
 15 29  1  0
M  ISO  8  16  14  17  14  18  14  19   8  20   8  21   8  22   8  23   8
M  ISO  6  24   8  25   8  26   8  27  14  28  14  29  14
M  END
>  <minimizedAffinity>  (1) 
-4.49193382

>  <minimizedRMSD>  (1) 
3.48041797

$$$$
