
     RDKit          3D

 31 32  0  0  0  0  0  0  0  0999 V2000
   36.9560   29.2090   40.0500 C   0  0  0  0  0  0  0  0  0  0  0  0
   37.4910   32.9740   39.9090 C   0  0  0  0  0  0  0  0  0  0  0  0
   36.9040   31.7270   39.6490 C   0  0  0  0  0  0  0  0  0  0  0  0
   37.4590   30.5880   40.2280 C   0  0  0  0  0  0  0  0  0  0  0  0
   38.5580   30.7540   41.0260 N   0  0  0  0  0  0  0  0  0  0  0  0
   39.1130   31.9630   41.2680 C   0  0  0  0  0  0  0  0  0  0  0  0
   38.5740   33.0630   40.7060 N   0  0  0  0  0  0  0  0  0  0  0  0
   36.6900   29.0470   38.5670 C   0  0  0  0  0  0  0  0  0  0  0  0
   35.7490   28.9430   40.9020 C   0  0  0  0  0  0  0  0  0  0  0  0
   38.0420   28.1990   40.3880 C   0  0  0  0  0  0  0  0  0  0  0  0
   37.5110   26.8610   40.6300 C   0  0  0  0  0  0  0  0  0  0  0  0
   37.5280   26.3690   41.9410 C   0  0  0  0  0  0  0  0  0  0  0  0
   37.0390   25.1100   42.2220 C   0  0  0  0  0  0  0  0  0  0  0  0
   36.5190   24.2840   41.2630 C   0  0  0  0  0  0  0  0  0  0  0  0
   36.5170   24.8030   39.9680 C   0  0  0  0  0  0  0  0  0  0  0  0
   36.9950   26.0230   39.7120 N   0  0  0  0  0  0  0  0  0  0  0  0
   37.0653   33.8836   39.4602 H   0  0  0  0  0  0  0  0  0  0  0  0
   36.0201   31.6497   38.9988 H   0  0  0  0  0  0  0  0  0  0  0  0
   39.9965   32.0480   41.9177 H   0  0  0  0  0  0  0  0  0  0  0  0
   35.7588   28.4799   38.4213 H   0  0  0  0  0  0  0  0  0  0  0  0
   36.5919   30.0388   38.1016 H   0  0  0  0  0  0  0  0  0  0  0  0
   37.5262   28.5047   38.1016 H   0  0  0  0  0  0  0  0  0  0  0  0
   36.0290   29.0047   41.9640 H   0  0  0  0  0  0  0  0  0  0  0  0
   34.9735   29.6918   40.6832 H   0  0  0  0  0  0  0  0  0  0  0  0
   35.3601   27.9376   40.6832 H   0  0  0  0  0  0  0  0  0  0  0  0
   38.7506   28.1498   39.5481 H   0  0  0  0  0  0  0  0  0  0  0  0
   38.5316   28.5348   41.3140 H   0  0  0  0  0  0  0  0  0  0  0  0
   37.9341   26.9908   42.7524 H   0  0  0  0  0  0  0  0  0  0  0  0
   37.0684   24.7546   43.2626 H   0  0  0  0  0  0  0  0  0  0  0  0
   36.1301   23.2819   41.4965 H   0  0  0  0  0  0  0  0  0  0  0  0
   36.1145   24.1964   39.1434 H   0  0  0  0  0  0  0  0  0  0  0  0
  1  4  1  0
  1 10  1  0
  1  9  1  0
  2  7  2  0
  3  2  1  0
  3  4  2  0
  4  5  1  0
  5  6  2  0
  7  6  1  0
  8  1  1  0
 10 11  1  0
 11 12  2  0
 12 13  1  0
 14 13  2  0
 15 14  1  0
 16 15  2  0
 16 11  1  0
  2 17  1  0
  3 18  1  0
  6 19  1  0
  8 20  1  0
  8 21  1  0
  8 22  1  0
  9 23  1  0
  9 24  1  0
  9 25  1  0
 10 26  1  0
 10 27  1  0
 12 28  1  0
 13 29  1  0
 14 30  1  0
 15 31  1  0
M  ISO  8  17  14  18  14  19  14  20   8  21   8  22   8  23   8  24   8
M  ISO  7  25   8  26   8  27   8  28  14  29  14  30  14  31  14
M  END
>  <minimizedAffinity>  (1) 
-4.17661715

>  <minimizedRMSD>  (1) 
5.03240538

$$$$
