
     RDKit          3D

 32 33  0  0  0  0  0  0  0  0999 V2000
   38.5070   25.2030   42.1980 C   0  0  0  0  0  0  0  0  0  0  0  0
   39.4640   28.8620   42.6550 C   0  0  0  0  0  0  0  0  0  0  0  0
   39.5870   27.5100   42.2670 C   0  0  0  0  0  0  0  0  0  0  0  0
   38.5310   26.6400   42.5390 C   0  0  0  0  0  0  0  0  0  0  0  0
   37.4340   27.1590   43.1720 N   0  0  0  0  0  0  0  0  0  0  0  0
   37.3470   28.4580   43.5310 C   0  0  0  0  0  0  0  0  0  0  0  0
   38.3410   29.3050   43.2800 N   0  0  0  0  0  0  0  0  0  0  0  0
   37.0490   24.7580   42.3990 C   0  0  0  0  0  0  0  0  0  0  0  0
   39.4410   24.4120   43.0540 C   0  0  0  0  0  0  0  0  0  0  0  0
   38.8260   24.9690   40.7500 C   0  0  0  0  0  0  0  0  0  0  0  0
   37.6410   24.5950   39.9490 C   0  0  0  0  0  0  0  0  0  0  0  0
   37.1810   23.3020   39.8050 C   0  0  0  0  0  0  0  0  0  0  0  0
   36.0640   23.1200   39.0260 C   0  0  0  0  0  0  0  0  0  0  0  0
   35.4080   24.1860   38.3990 C   0  0  0  0  0  0  0  0  0  0  0  0
   35.8760   25.4760   38.5490 C   0  0  0  0  0  0  0  0  0  0  0  0
   36.9970   25.6560   39.3320 C   0  0  0  0  0  0  0  0  0  0  0  0
   40.2854   29.5641   42.4494 H   0  0  0  0  0  0  0  0  0  0  0  0
   40.4954   27.1507   41.7614 H   0  0  0  0  0  0  0  0  0  0  0  0
   36.4409   28.8207   44.0383 H   0  0  0  0  0  0  0  0  0  0  0  0
   36.8310   24.6915   43.4751 H   0  0  0  0  0  0  0  0  0  0  0  0
   36.3743   25.4911   41.9328 H   0  0  0  0  0  0  0  0  0  0  0  0
   36.8987   23.7731   41.9328 H   0  0  0  0  0  0  0  0  0  0  0  0
   39.2167   24.6019   44.1140 H   0  0  0  0  0  0  0  0  0  0  0  0
   39.3166   23.3404   42.8392 H   0  0  0  0  0  0  0  0  0  0  0  0
   40.4775   24.7111   42.8392 H   0  0  0  0  0  0  0  0  0  0  0  0
   39.2541   25.8921   40.3321 H   0  0  0  0  0  0  0  0  0  0  0  0
   39.5338   24.1284   40.7014 H   0  0  0  0  0  0  0  0  0  0  0  0
   37.6860   22.4549   40.2921 H   0  0  0  0  0  0  0  0  0  0  0  0
   35.6716   22.1014   38.8903 H   0  0  0  0  0  0  0  0  0  0  0  0
   34.5160   23.9949   37.7843 H   0  0  0  0  0  0  0  0  0  0  0  0
   35.3749   26.3264   38.0634 H   0  0  0  0  0  0  0  0  0  0  0  0
   37.3922   26.6731   39.4711 H   0  0  0  0  0  0  0  0  0  0  0  0
  1  8  1  0
  1  4  1  0
  1  9  1  0
  2  7  2  0
  3  4  2  0
  3  2  1  0
  4  5  1  0
  5  6  2  0
  7  6  1  0
 10  1  1  0
 11 10  1  0
 12 11  2  0
 13 12  1  0
 14 15  1  0
 14 13  2  0
 15 16  2  0
 16 11  1  0
  2 17  1  0
  3 18  1  0
  6 19  1  0
  8 20  1  0
  8 21  1  0
  8 22  1  0
  9 23  1  0
  9 24  1  0
  9 25  1  0
 10 26  1  0
 10 27  1  0
 12 28  1  0
 13 29  1  0
 14 30  1  0
 15 31  1  0
 16 32  1  0
M  ISO  8  17  14  18  14  19  14  20   8  21   8  22   8  23   8  24   8
M  ISO  8  25   8  26   8  27   8  28  14  29  14  30  14  31  14  32  14
M  END
>  <minimizedAffinity>  (1) 
-4.03917265

>  <minimizedRMSD>  (1) 
1.56393456

$$$$
