
     RDKit          3D

 34 35  0  0  0  0  0  0  0  0999 V2000
   37.2170   27.0510   42.4810 C   0  0  0  0  0  0  0  0  0  0  0  0
   35.2460   29.1270   39.9430 C   0  0  0  0  0  0  0  0  0  0  0  0
   35.7710   28.7300   41.1870 C   0  0  0  0  0  0  0  0  0  0  0  0
   36.5930   27.5920   41.2310 C   0  0  0  0  0  0  0  0  0  0  0  0
   36.8400   26.9300   40.0690 N   0  0  0  0  0  0  0  0  0  0  0  0
   36.3150   27.3480   38.8920 C   0  0  0  0  0  0  0  0  0  0  0  0
   35.5340   28.4230   38.8270 N   0  0  0  0  0  0  0  0  0  0  0  0
   37.2140   25.5450   42.2800 C   0  0  0  0  0  0  0  0  0  0  0  0
   36.4110   27.4400   43.6950 C   0  0  0  0  0  0  0  0  0  0  0  0
   38.6320   27.5170   42.6270 C   0  0  0  0  0  0  0  0  0  0  0  0
   39.0020   28.7310   42.0260 N   0  0  0  0  0  0  0  0  0  0  0  0
   38.9840   29.9380   42.7490 C   0  0  0  0  0  0  0  0  0  0  0  0
   40.3860   30.5480   42.6420 C   0  0  0  0  0  0  0  0  0  0  0  0
   41.2100   29.3170   42.2860 C   0  0  0  0  0  0  0  0  0  0  0  0
   40.2470   28.6440   41.3000 C   0  0  0  0  0  0  0  0  0  0  0  0
   34.5986   30.0141   39.8794 H   0  0  0  0  0  0  0  0  0  0  0  0
   35.5433   29.2967   42.1018 H   0  0  0  0  0  0  0  0  0  0  0  0
   36.5389   26.7876   37.9723 H   0  0  0  0  0  0  0  0  0  0  0  0
   37.2130   25.0444   43.2595 H   0  0  0  0  0  0  0  0  0  0  0  0
   36.3153   25.2519   41.7175 H   0  0  0  0  0  0  0  0  0  0  0  0
   38.1116   25.2484   41.7175 H   0  0  0  0  0  0  0  0  0  0  0  0
   36.9668   27.1717   44.6055 H   0  0  0  0  0  0  0  0  0  0  0  0
   36.2295   28.5249   43.6824 H   0  0  0  0  0  0  0  0  0  0  0  0
   35.4488   26.9071   43.6824 H   0  0  0  0  0  0  0  0  0  0  0  0
   38.8329   27.6132   43.7042 H   0  0  0  0  0  0  0  0  0  0  0  0
   39.2222   26.7595   42.0905 H   0  0  0  0  0  0  0  0  0  0  0  0
   38.2399   30.6245   42.3188 H   0  0  0  0  0  0  0  0  0  0  0  0
   38.7132   29.7608   43.8003 H   0  0  0  0  0  0  0  0  0  0  0  0
   40.4358   31.3105   41.8508 H   0  0  0  0  0  0  0  0  0  0  0  0
   40.7229   31.0738   43.5476 H   0  0  0  0  0  0  0  0  0  0  0  0
   42.1641   29.5858   41.8090 H   0  0  0  0  0  0  0  0  0  0  0  0
   41.5155   28.6951   43.1403 H   0  0  0  0  0  0  0  0  0  0  0  0
   40.5306   27.5986   41.1086 H   0  0  0  0  0  0  0  0  0  0  0  0
   40.2230   29.1073   40.3026 H   0  0  0  0  0  0  0  0  0  0  0  0
  1 10  1  0
  1  9  1  0
  2  3  2  0
  3  4  1  0
  4  1  1  0
  5  4  2  0
  6  5  1  0
  7  6  2  0
  7  2  1  0
  8  1  1  0
 11 10  1  0
 11 12  1  0
 13 12  1  0
 14 13  1  0
 15 11  1  0
 15 14  1  0
  2 16  1  0
  3 17  1  0
  6 18  1  0
  8 19  1  0
  8 20  1  0
  8 21  1  0
  9 22  1  0
  9 23  1  0
  9 24  1  0
 10 25  1  0
 10 26  1  0
 12 27  1  0
 12 28  1  0
 13 29  1  0
 13 30  1  0
 14 31  1  0
 14 32  1  0
 15 33  1  0
 15 34  1  0
M  ISO  8  16  14  17  14  18  14  19   8  20   8  21   8  22   8  23   8
M  ISO  8  24   8  25   8  26   8  27  13  28  13  29  13  30  13  31  13
M  ISO  3  32  13  33  13  34  13
M  END
>  <minimizedAffinity>  (1) 
-3.99784088

>  <minimizedRMSD>  (1) 
5.09059572

$$$$
