
     RDKit          3D

 29 30  0  0  0  0  0  0  0  0999 V2000
   38.4670   25.1730   42.0980 C   0  0  0  0  0  0  0  0  0  0  0  0
   37.2970   28.5190   43.4970 C   0  0  0  0  0  0  0  0  0  0  0  0
   37.2510   27.1630   43.1310 C   0  0  0  0  0  0  0  0  0  0  0  0
   38.3780   26.5790   42.5320 C   0  0  0  0  0  0  0  0  0  0  0  0
   39.4690   27.3830   42.3390 N   0  0  0  0  0  0  0  0  0  0  0  0
   39.4900   28.6830   42.6990 C   0  0  0  0  0  0  0  0  0  0  0  0
   38.4090   29.2440   43.2740 N   0  0  0  0  0  0  0  0  0  0  0  0
   37.0380   24.6340   42.1790 C   0  0  0  0  0  0  0  0  0  0  0  0
   39.4130   24.3780   42.9420 C   0  0  0  0  0  0  0  0  0  0  0  0
   38.8760   25.0740   40.6550 C   0  0  0  0  0  0  0  0  0  0  0  0
   37.7110   25.3550   39.7700 C   0  0  0  0  0  0  0  0  0  0  0  0
   36.7290   24.5260   39.1530 C   0  0  0  0  0  0  0  0  0  0  0  0
   35.8050   25.1920   38.4040 C   0  0  0  0  0  0  0  0  0  0  0  0
   35.8640   26.5480   38.2890 C   0  0  0  0  0  0  0  0  0  0  0  0
   37.2750   27.1040   39.2500 S   0  0  0  0  0  0  0  0  0  0  0  0
   36.4211   28.9897   43.9674 H   0  0  0  0  0  0  0  0  0  0  0  0
   36.3440   26.5673   43.3115 H   0  0  0  0  0  0  0  0  0  0  0  0
   40.3926   29.2865   42.5224 H   0  0  0  0  0  0  0  0  0  0  0  0
   36.7468   24.5242   43.2341 H   0  0  0  0  0  0  0  0  0  0  0  0
   36.3527   25.3354   41.6806 H   0  0  0  0  0  0  0  0  0  0  0  0
   36.9867   23.6547   41.6806 H   0  0  0  0  0  0  0  0  0  0  0  0
   39.1970   24.5595   44.0052 H   0  0  0  0  0  0  0  0  0  0  0  0
   39.2909   23.3075   42.7206 H   0  0  0  0  0  0  0  0  0  0  0  0
   40.4465   24.6826   42.7206 H   0  0  0  0  0  0  0  0  0  0  0  0
   39.6717   25.8059   40.4517 H   0  0  0  0  0  0  0  0  0  0  0  0
   39.2420   24.0562   40.4545 H   0  0  0  0  0  0  0  0  0  0  0  0
   36.7177   23.4325   39.2722 H   0  0  0  0  0  0  0  0  0  0  0  0
   35.0091   24.6325   37.8907 H   0  0  0  0  0  0  0  0  0  0  0  0
   35.1751   27.1843   37.7141 H   0  0  0  0  0  0  0  0  0  0  0  0
  1  8  1  0
  1  4  1  0
  1  9  1  0
  3  2  2  0
  4  3  1  0
  5  4  2  0
  5  6  1  0
  6  7  2  0
  7  2  1  0
 10  1  1  0
 11 10  1  0
 12 11  2  0
 13 12  1  0
 14 13  2  0
 14 15  1  0
 15 11  1  0
  2 16  1  0
  3 17  1  0
  6 18  1  0
  8 19  1  0
  8 20  1  0
  8 21  1  0
  9 22  1  0
  9 23  1  0
  9 24  1  0
 10 25  1  0
 10 26  1  0
 12 27  1  0
 13 28  1  0
 14 29  1  0
M  ISO  8  16  14  17  14  18  14  19   8  20   8  21   8  22   8  23   8
M  ISO  6  24   8  25   8  26   8  27  14  28  14  29  14
M  END
>  <minimizedAffinity>  (1) 
-3.85444951

>  <minimizedRMSD>  (1) 
3.33473468

$$$$
