
     RDKit          3D

 29 30  0  0  0  0  0  0  0  0999 V2000
   38.1810   25.2920   42.0630 C   0  0  0  0  0  0  0  0  0  0  0  0
   38.3800   28.9250   43.2030 C   0  0  0  0  0  0  0  0  0  0  0  0
   38.7050   27.5610   43.0980 C   0  0  0  0  0  0  0  0  0  0  0  0
   37.9560   26.7330   42.2670 C   0  0  0  0  0  0  0  0  0  0  0  0
   36.9230   27.3260   41.5900 N   0  0  0  0  0  0  0  0  0  0  0  0
   36.6280   28.6260   41.7010 C   0  0  0  0  0  0  0  0  0  0  0  0
   37.3370   29.4270   42.4920 N   0  0  0  0  0  0  0  0  0  0  0  0
   36.8450   24.6190   42.3480 C   0  0  0  0  0  0  0  0  0  0  0  0
   39.2890   24.7760   42.9340 C   0  0  0  0  0  0  0  0  0  0  0  0
   38.5200   24.9890   40.6180 C   0  0  0  0  0  0  0  0  0  0  0  0
   37.8950   23.8070   40.1100 N   0  0  0  0  0  0  0  0  0  0  0  0
   38.4040   22.5590   40.3230 C   0  0  0  0  0  0  0  0  0  0  0  0
   37.5950   21.6200   39.7190 C   0  0  0  0  0  0  0  0  0  0  0  0
   36.5850   22.2860   39.1320 N   0  0  0  0  0  0  0  0  0  0  0  0
   36.7890   23.5950   39.3800 C   0  0  0  0  0  0  0  0  0  0  0  0
   38.9685   29.5835   43.8588 H   0  0  0  0  0  0  0  0  0  0  0  0
   39.5489   27.1495   43.6711 H   0  0  0  0  0  0  0  0  0  0  0  0
   35.7848   29.0398   41.1285 H   0  0  0  0  0  0  0  0  0  0  0  0
   36.6967   24.5443   43.4354 H   0  0  0  0  0  0  0  0  0  0  0  0
   36.0326   25.2154   41.9072 H   0  0  0  0  0  0  0  0  0  0  0  0
   36.8407   23.6112   41.9072 H   0  0  0  0  0  0  0  0  0  0  0  0
   39.0141   24.9040   43.9914 H   0  0  0  0  0  0  0  0  0  0  0  0
   39.4533   23.7087   42.7245 H   0  0  0  0  0  0  0  0  0  0  0  0
   40.2117   25.3371   42.7245 H   0  0  0  0  0  0  0  0  0  0  0  0
   38.2001   25.8419   40.0014 H   0  0  0  0  0  0  0  0  0  0  0  0
   39.6059   24.8190   40.5745 H   0  0  0  0  0  0  0  0  0  0  0  0
   39.3199   22.3361   40.8900 H   0  0  0  0  0  0  0  0  0  0  0  0
   37.7472   20.5306   39.7176 H   0  0  0  0  0  0  0  0  0  0  0  0
   36.1254   24.3972   39.0249 H   0  0  0  0  0  0  0  0  0  0  0  0
  1  4  1  0
  1  8  1  0
  1  9  1  0
  3  2  2  0
  4  3  1  0
  5  6  1  0
  5  4  2  0
  6  7  2  0
  7  2  1  0
 10  1  1  0
 11 12  1  0
 11 10  1  0
 13 12  2  0
 14 15  2  0
 14 13  1  0
 15 11  1  0
  2 16  1  0
  3 17  1  0
  6 18  1  0
  8 19  1  0
  8 20  1  0
  8 21  1  0
  9 22  1  0
  9 23  1  0
  9 24  1  0
 10 25  1  0
 10 26  1  0
 12 27  1  0
 13 28  1  0
 15 29  1  0
M  ISO  8  16  14  17  14  18  14  19   8  20   8  21   8  22   8  23   8
M  ISO  6  24   8  25   8  26   8  27  14  28  14  29  14
M  END
>  <minimizedAffinity>  (1) 
-3.68737793

>  <minimizedRMSD>  (1) 
1.96747303

$$$$
