
     RDKit          3D

 29 30  0  0  0  0  0  0  0  0999 V2000
   38.6290   25.0390   42.0700 C   0  0  0  0  0  0  0  0  0  0  0  0
   38.0460   28.5100   43.5330 C   0  0  0  0  0  0  0  0  0  0  0  0
   38.6010   27.2090   43.4020 C   0  0  0  0  0  0  0  0  0  0  0  0
   38.1580   26.4070   42.3400 C   0  0  0  0  0  0  0  0  0  0  0  0
   37.2230   26.9300   41.5030 N   0  0  0  0  0  0  0  0  0  0  0  0
   36.7110   28.1700   41.6490 C   0  0  0  0  0  0  0  0  0  0  0  0
   37.1130   28.9520   42.6460 N   0  0  0  0  0  0  0  0  0  0  0  0
   37.3750   24.1710   42.0630 C   0  0  0  0  0  0  0  0  0  0  0  0
   39.6150   24.5790   43.1120 C   0  0  0  0  0  0  0  0  0  0  0  0
   39.2530   24.9230   40.7000 C   0  0  0  0  0  0  0  0  0  0  0  0
   40.5560   25.6760   40.6650 C   0  0  0  0  0  0  0  0  0  0  0  0
   40.7350   27.0200   40.3370 C   0  0  0  0  0  0  0  0  0  0  0  0
   42.0380   27.3480   40.4120 N   0  0  0  0  0  0  0  0  0  0  0  0
   42.6830   26.2360   40.7810 C   0  0  0  0  0  0  0  0  0  0  0  0
   41.7990   25.2320   40.9330 N   0  0  0  0  0  0  0  0  0  0  0  0
   38.3719   29.1636   44.3555 H   0  0  0  0  0  0  0  0  0  0  0  0
   39.3560   26.8413   44.1125 H   0  0  0  0  0  0  0  0  0  0  0  0
   35.9557   28.5362   40.9381 H   0  0  0  0  0  0  0  0  0  0  0  0
   37.0696   23.9596   43.0984 H   0  0  0  0  0  0  0  0  0  0  0  0
   36.5643   24.7022   41.5428 H   0  0  0  0  0  0  0  0  0  0  0  0
   37.5866   23.2252   41.5428 H   0  0  0  0  0  0  0  0  0  0  0  0
   39.2049   24.7703   44.1146 H   0  0  0  0  0  0  0  0  0  0  0  0
   39.8003   23.5015   42.9911 H   0  0  0  0  0  0  0  0  0  0  0  0
   40.5597   25.1293   42.9911 H   0  0  0  0  0  0  0  0  0  0  0  0
   39.4381   23.8629   40.4721 H   0  0  0  0  0  0  0  0  0  0  0  0
   38.5679   25.3498   39.9527 H   0  0  0  0  0  0  0  0  0  0  0  0
   39.9272   27.7122   40.0573 H   0  0  0  0  0  0  0  0  0  0  0  0
   43.7689   26.1543   40.9364 H   0  0  0  0  0  0  0  0  0  0  0  0
   42.0373   24.2696   41.2121 H   0  0  0  0  0  0  0  0  0  0  0  0
  1  4  1  0
  1  9  1  0
  3  2  2  0
  4  3  1  0
  5  6  1  0
  5  4  2  0
  6  7  2  0
  7  2  1  0
  8  1  1  0
 10  1  1  0
 11 10  1  0
 11 15  1  0
 12 13  1  0
 12 11  2  0
 13 14  2  0
 14 15  1  0
  2 16  1  0
  3 17  1  0
  6 18  1  0
  8 19  1  0
  8 20  1  0
  8 21  1  0
  9 22  1  0
  9 23  1  0
  9 24  1  0
 10 25  1  0
 10 26  1  0
 12 27  1  0
 14 28  1  0
 15 29  1  0
M  ISO  8  16  14  17  14  18  14  19   8  20   8  21   8  22   8  23   8
M  ISO  6  24   8  25   8  26   8  27  14  28  14  29   9
M  END
>  <minimizedAffinity>  (1) 
-3.50425053

>  <minimizedRMSD>  (1) 
0.325223595

$$$$
