
     RDKit          3D

 28 29  0  0  0  0  0  0  0  0999 V2000
   38.6320   25.0150   42.0810 C   0  0  0  0  0  0  0  0  0  0  0  0
   38.0790   28.4900   43.5270 C   0  0  0  0  0  0  0  0  0  0  0  0
   38.6290   27.2060   43.3760 C   0  0  0  0  0  0  0  0  0  0  0  0
   38.1470   26.3850   42.3540 C   0  0  0  0  0  0  0  0  0  0  0  0
   37.1630   26.8670   41.5440 N   0  0  0  0  0  0  0  0  0  0  0  0
   36.6530   28.1140   41.7160 C   0  0  0  0  0  0  0  0  0  0  0  0
   37.0980   28.9110   42.6840 N   0  0  0  0  0  0  0  0  0  0  0  0
   37.3830   24.1480   41.9950 C   0  0  0  0  0  0  0  0  0  0  0  0
   39.5550   24.5160   43.1490 C   0  0  0  0  0  0  0  0  0  0  0  0
   39.3170   24.9180   40.7350 C   0  0  0  0  0  0  0  0  0  0  0  0
   40.5420   25.6890   40.6920 N   0  0  0  0  0  0  0  0  0  0  0  0
   41.8370   25.3620   40.9780 C   0  0  0  0  0  0  0  0  0  0  0  0
   42.6180   26.4230   40.7840 N   0  0  0  0  0  0  0  0  0  0  0  0
   41.8310   27.4340   40.3750 C   0  0  0  0  0  0  0  0  0  0  0  0
   40.5790   26.9700   40.3260 N   0  0  0  0  0  0  0  0  0  0  0  0
   38.4412   29.1539   44.3258 H   0  0  0  0  0  0  0  0  0  0  0  0
   39.4240   26.8540   44.0498 H   0  0  0  0  0  0  0  0  0  0  0  0
   35.8588   28.4710   41.0438 H   0  0  0  0  0  0  0  0  0  0  0  0
   37.0342   23.9059   43.0097 H   0  0  0  0  0  0  0  0  0  0  0  0
   36.5942   24.6938   41.4566 H   0  0  0  0  0  0  0  0  0  0  0  0
   37.6185   23.2181   41.4566 H   0  0  0  0  0  0  0  0  0  0  0  0
   39.1303   24.7456   44.1374 H   0  0  0  0  0  0  0  0  0  0  0  0
   39.6793   23.4278   43.0472 H   0  0  0  0  0  0  0  0  0  0  0  0
   40.5336   25.0080   43.0472 H   0  0  0  0  0  0  0  0  0  0  0  0
   39.5542   23.8631   40.5326 H   0  0  0  0  0  0  0  0  0  0  0  0
   38.6329   25.3252   39.9759 H   0  0  0  0  0  0  0  0  0  0  0  0
   42.1818   24.3739   41.3166 H   0  0  0  0  0  0  0  0  0  0  0  0
   42.1578   28.4546   40.1267 H   0  0  0  0  0  0  0  0  0  0  0  0
  1  4  1  0
  1  9  1  0
  3  2  2  0
  4  3  1  0
  5  6  1  0
  5  4  2  0
  6  7  2  0
  7  2  1  0
  8  1  1  0
 10  1  1  0
 11 10  1  0
 11 12  1  0
 13 12  2  0
 14 13  1  0
 15 14  2  0
 15 11  1  0
  2 16  1  0
  3 17  1  0
  6 18  1  0
  8 19  1  0
  8 20  1  0
  8 21  1  0
  9 22  1  0
  9 23  1  0
  9 24  1  0
 10 25  1  0
 10 26  1  0
 12 27  1  0
 14 28  1  0
M  ISO  8  16  14  17  14  18  14  19   8  20   8  21   8  22   8  23   8
M  ISO  5  24   8  25   8  26   8  27  14  28  14
M  END
>  <minimizedAffinity>  (1) 
-3.48832393

>  <minimizedRMSD>  (1) 
0.352933735

$$$$
