
     RDKit          3D

 36 38  0  0  0  0  0  0  0  0999 V2000
   37.3150   27.7290   42.7070 C   0  0  0  0  0  0  0  0  0  0  0  0
   40.3760   25.7360   43.7690 C   0  0  0  0  0  0  0  0  0  0  0  0
   39.4770   26.7910   43.6200 C   0  0  0  0  0  0  0  0  0  0  0  0
   38.3050   26.6550   42.8970 C   0  0  0  0  0  0  0  0  0  0  0  0
   38.0840   25.4320   42.3410 N   0  0  0  0  0  0  0  0  0  0  0  0
   38.9510   24.4120   42.4840 C   0  0  0  0  0  0  0  0  0  0  0  0
   40.0790   24.5550   43.1850 N   0  0  0  0  0  0  0  0  0  0  0  0
   36.2360   27.4470   43.7640 C   0  0  0  0  0  0  0  0  0  0  0  0
   36.7220   27.6640   41.3110 C   0  0  0  0  0  0  0  0  0  0  0  0
   37.8540   29.0860   42.9780 C   0  0  0  0  0  0  0  0  0  0  0  0
   37.5930   30.0870   41.9310 C   0  0  0  0  0  0  0  0  0  0  0  0
   36.4110   30.4900   41.3540 C   0  0  0  0  0  0  0  0  0  0  0  0
   36.6310   31.4780   40.4000 C   0  0  0  0  0  0  0  0  0  0  0  0
   37.9590   31.6550   40.4220 N   0  0  0  0  0  0  0  0  0  0  0  0
   38.5110   30.8420   41.3150 N   0  0  0  0  0  0  0  0  0  0  0  0
   38.6920   32.6060   39.5810 C   0  0  0  0  0  0  0  0  0  0  0  0
   38.7600   34.0450   40.1790 C   0  0  0  0  0  0  0  0  0  0  0  0
   39.9850   33.1380   40.0780 C   0  0  0  0  0  0  0  0  0  0  0  0
   41.3032   25.8622   44.3472 H   0  0  0  0  0  0  0  0  0  0  0  0
   39.7057   27.7587   44.0904 H   0  0  0  0  0  0  0  0  0  0  0  0
   38.7263   23.4428   42.0148 H   0  0  0  0  0  0  0  0  0  0  0  0
   36.6688   27.5601   44.7690 H   0  0  0  0  0  0  0  0  0  0  0  0
   35.4063   28.1585   43.6399 H   0  0  0  0  0  0  0  0  0  0  0  0
   35.8605   26.4206   43.6399 H   0  0  0  0  0  0  0  0  0  0  0  0
   35.6308   27.5444   41.3814 H   0  0  0  0  0  0  0  0  0  0  0  0
   36.9549   28.5931   40.7701 H   0  0  0  0  0  0  0  0  0  0  0  0
   37.1506   26.8075   40.7701 H   0  0  0  0  0  0  0  0  0  0  0  0
   37.4056   29.4490   43.9146 H   0  0  0  0  0  0  0  0  0  0  0  0
   38.9473   28.9749   43.0269 H   0  0  0  0  0  0  0  0  0  0  0  0
   35.4219   30.0842   41.6130 H   0  0  0  0  0  0  0  0  0  0  0  0
   35.8882   31.9937   39.7737 H   0  0  0  0  0  0  0  0  0  0  0  0
   38.3871   32.1414   38.6317 H   0  0  0  0  0  0  0  0  0  0  0  0
   38.6630   34.9247   39.5258 H   0  0  0  0  0  0  0  0  0  0  0  0
   38.2453   34.5954   40.9803 H   0  0  0  0  0  0  0  0  0  0  0  0
   40.4285   32.7200   40.9937 H   0  0  0  0  0  0  0  0  0  0  0  0
   40.9850   33.2520   39.6342 H   0  0  0  0  0  0  0  0  0  0  0  0
  1  4  1  0
  1 10  1  0
  1  8  1  0
  3  2  2  0
  4  3  1  0
  5  6  1  0
  5  4  2  0
  6  7  2  0
  7  2  1  0
  9  1  1  0
 11 10  1  0
 12 11  1  0
 13 14  1  0
 13 12  2  0
 14 15  1  0
 15 11  2  0
 16 18  1  0
 16 17  1  0
 16 14  1  0
 18 17  1  0
  2 19  1  0
  3 20  1  0
  6 21  1  0
  8 22  1  0
  8 23  1  0
  8 24  1  0
  9 25  1  0
  9 26  1  0
  9 27  1  0
 10 28  1  0
 10 29  1  0
 12 30  1  0
 13 31  1  0
 16 32  1  0
 17 33  1  0
 17 34  1  0
 18 35  1  0
 18 36  1  0
M  ISO  8  19  14  20  14  21  14  22   8  23   8  24   8  25   8  26   8
M  ISO  8  27   8  28   8  29   8  30  14  31  14  32  13  33  13  34  13
M  ISO  2  35  13  36  13
M  END
>  <minimizedAffinity>  (1) 
-5.19705582

>  <minimizedRMSD>  (1) 
6.61300278

$$$$
