
     RDKit          3D

 35 36  0  0  0  0  0  0  0  0999 V2000
   37.5190   27.9020   43.5290 C   0  0  0  0  0  0  0  0  0  0  0  0
   39.2620   30.9300   42.0290 C   0  0  0  0  0  0  0  0  0  0  0  0
   39.0220   29.8030   42.8040 C   0  0  0  0  0  0  0  0  0  0  0  0
   37.8310   29.1050   42.7380 C   0  0  0  0  0  0  0  0  0  0  0  0
   36.9090   29.5940   41.8660 N   0  0  0  0  0  0  0  0  0  0  0  0
   37.1360   30.6900   41.1110 C   0  0  0  0  0  0  0  0  0  0  0  0
   38.2940   31.3490   41.1880 N   0  0  0  0  0  0  0  0  0  0  0  0
   36.4300   27.1840   42.7270 C   0  0  0  0  0  0  0  0  0  0  0  0
   36.9900   28.2970   44.8990 C   0  0  0  0  0  0  0  0  0  0  0  0
   38.6730   26.9750   43.6660 C   0  0  0  0  0  0  0  0  0  0  0  0
   38.8930   26.0860   42.5120 C   0  0  0  0  0  0  0  0  0  0  0  0
   39.6410   26.2560   41.3670 C   0  0  0  0  0  0  0  0  0  0  0  0
   39.5620   25.1430   40.5460 C   0  0  0  0  0  0  0  0  0  0  0  0
   38.7590   24.3050   41.2120 N   0  0  0  0  0  0  0  0  0  0  0  0
   38.3730   24.8640   42.3590 N   0  0  0  0  0  0  0  0  0  0  0  0
   38.3920   22.9900   40.7130 C   0  0  0  0  0  0  0  0  0  0  0  0
   37.0430   23.0220   40.0730 C   0  0  0  0  0  0  0  0  0  0  0  0
   40.2187   31.4683   42.0992 H   0  0  0  0  0  0  0  0  0  0  0  0
   39.8055   29.4544   43.4930 H   0  0  0  0  0  0  0  0  0  0  0  0
   36.3551   31.0450   40.4224 H   0  0  0  0  0  0  0  0  0  0  0  0
   35.7157   26.7131   43.4184 H   0  0  0  0  0  0  0  0  0  0  0  0
   35.9016   27.9114   42.0932 H   0  0  0  0  0  0  0  0  0  0  0  0
   36.8904   26.4117   42.0932 H   0  0  0  0  0  0  0  0  0  0  0  0
   37.6111   27.8333   45.6795 H   0  0  0  0  0  0  0  0  0  0  0  0
   37.0255   29.3914   45.0042 H   0  0  0  0  0  0  0  0  0  0  0  0
   35.9508   27.9521   45.0042 H   0  0  0  0  0  0  0  0  0  0  0  0
   39.5812   27.5785   43.8108 H   0  0  0  0  0  0  0  0  0  0  0  0
   38.4447   26.3213   44.5208 H   0  0  0  0  0  0  0  0  0  0  0  0
   40.2252   27.1587   41.1350 H   0  0  0  0  0  0  0  0  0  0  0  0
   40.0473   24.9847   39.5716 H   0  0  0  0  0  0  0  0  0  0  0  0
   39.1358   22.6659   39.9702 H   0  0  0  0  0  0  0  0  0  0  0  0
   38.3638   22.2876   41.5590 H   0  0  0  0  0  0  0  0  0  0  0  0
   36.2675   23.0404   40.8529 H   0  0  0  0  0  0  0  0  0  0  0  0
   36.9553   23.9225   39.4474 H   0  0  0  0  0  0  0  0  0  0  0  0
   36.9127   22.1267   39.4474 H   0  0  0  0  0  0  0  0  0  0  0  0
  1 10  1  0
  1  9  1  0
  2  3  2  0
  4  3  1  0
  4  1  1  0
  5  4  2  0
  6  7  2  0
  6  5  1  0
  7  2  1  0
  8  1  1  0
 11 10  1  0
 12 11  1  0
 13 14  1  0
 13 12  2  0
 14 15  1  0
 15 11  2  0
 16 14  1  0
 17 16  1  0
  2 18  1  0
  3 19  1  0
  6 20  1  0
  8 21  1  0
  8 22  1  0
  8 23  1  0
  9 24  1  0
  9 25  1  0
  9 26  1  0
 10 27  1  0
 10 28  1  0
 12 29  1  0
 13 30  1  0
 16 31  1  0
 16 32  1  0
 17 33  1  0
 17 34  1  0
 17 35  1  0
M  ISO  8  18  14  19  14  20  14  21   8  22   8  23   8  24   8  25   8
M  ISO  8  26   8  27   8  28   8  29  14  30  14  31   8  32   8  33   8
M  ISO  2  34   8  35   8
M  END
>  <minimizedAffinity>  (1) 
-4.47280264

>  <minimizedRMSD>  (1) 
2.18178725

$$$$
