
     RDKit          3D

 39 40  0  0  0  0  0  0  0  0999 V2000
   36.0650   30.7140   40.9020 C   0  0  0  0  0  0  0  0  0  0  0  0
   37.2770   31.5120   40.6200 C   0  0  0  0  0  0  0  0  0  0  0  0
   37.3940   32.7820   40.1110 C   0  0  0  0  0  0  0  0  0  0  0  0
   38.7130   33.1750   39.9990 C   0  0  0  0  0  0  0  0  0  0  0  0
   39.3840   32.1040   40.4540 N   0  0  0  0  0  0  0  0  0  0  0  0
   38.5520   31.1380   40.8150 N   0  0  0  0  0  0  0  0  0  0  0  0
   39.2540   34.4010   39.5230 N   0  0  0  0  0  0  0  0  0  0  0  0
   39.3160   35.5470   40.3270 C   0  0  0  0  0  0  0  0  0  0  0  0
   39.4950   35.4060   41.5960 N   0  0  0  0  0  0  0  0  0  0  0  0
   39.1850   36.8370   39.7600 N   0  0  0  0  0  0  0  0  0  0  0  0
   39.5450   36.2320   42.2110 H   0  0  0  0  0  0  0  0  0  0  0  0
   40.8340   31.9880   40.5480 C   0  0  0  0  0  0  0  0  0  0  0  0
   41.4320   32.9440   41.2880 F   0  0  0  0  0  0  0  0  0  0  0  0
   41.4200   32.0410   39.2800 F   0  0  0  0  0  0  0  0  0  0  0  0
   41.2060   30.7380   41.0460 F   0  0  0  0  0  0  0  0  0  0  0  0
   35.9820   29.4410   40.1650 C   0  0  0  0  0  0  0  0  0  0  0  0
   37.0900   27.0900   42.9160 C   0  0  0  0  0  0  0  0  0  0  0  0
   36.6570   28.2190   42.2320 C   0  0  0  0  0  0  0  0  0  0  0  0
   36.4380   28.2550   40.8800 C   0  0  0  0  0  0  0  0  0  0  0  0
   36.6730   27.0980   40.2270 N   0  0  0  0  0  0  0  0  0  0  0  0
   37.0930   25.9780   40.8540 C   0  0  0  0  0  0  0  0  0  0  0  0
   37.2980   25.9730   42.1730 N   0  0  0  0  0  0  0  0  0  0  0  0
   34.4950   29.1580   39.8630 C   0  0  0  0  0  0  0  0  0  0  0  0
   36.7140   29.5700   38.8240 C   0  0  0  0  0  0  0  0  0  0  0  0
   36.0456   30.4888   41.9785 H   0  0  0  0  0  0  0  0  0  0  0  0
   35.2091   31.3210   40.5719 H   0  0  0  0  0  0  0  0  0  0  0  0
   36.5383   33.4117   39.8262 H   0  0  0  0  0  0  0  0  0  0  0  0
   39.6111   34.4480   38.5580 H   0  0  0  0  0  0  0  0  0  0  0  0
   39.2324   37.6714   40.3620 H   0  0  0  0  0  0  0  0  0  0  0  0
   39.0422   36.9415   38.7453 H   0  0  0  0  0  0  0  0  0  0  0  0
   37.2557   27.1006   44.0034 H   0  0  0  0  0  0  0  0  0  0  0  0
   36.4796   29.1380   42.8098 H   0  0  0  0  0  0  0  0  0  0  0  0
   37.2678   25.0610   40.2721 H   0  0  0  0  0  0  0  0  0  0  0  0
   33.9424   29.0528   40.8083 H   0  0  0  0  0  0  0  0  0  0  0  0
   34.0735   29.9920   39.2827 H   0  0  0  0  0  0  0  0  0  0  0  0
   34.4093   28.2274   39.2827 H   0  0  0  0  0  0  0  0  0  0  0  0
   37.7824   29.7583   39.0061 H   0  0  0  0  0  0  0  0  0  0  0  0
   36.5983   28.6376   38.2519 H   0  0  0  0  0  0  0  0  0  0  0  0
   36.2865   30.4067   38.2519 H   0  0  0  0  0  0  0  0  0  0  0  0
  2  6  2  0
  2  1  1  0
  3  2  1  0
  4  3  2  0
  4  5  1  0
  5 12  1  0
  5  6  1  0
  7  4  1  0
  7  8  1  0
  8  9  2  0
  9 11  1  0
 10  8  1  0
 12 15  1  0
 12 13  1  0
 14 12  1  0
 16 19  1  0
 16  1  1  0
 18 17  2  0
 19 18  1  0
 20 21  1  0
 20 19  2  0
 21 22  2  0
 22 17  1  0
 23 16  1  0
 24 16  1  0
  1 25  1  0
  1 26  1  0
  3 27  1  0
  7 28  1  0
 10 29  1  0
 10 30  1  0
 17 31  1  0
 18 32  1  0
 21 33  1  0
 23 34  1  0
 23 35  1  0
 23 36  1  0
 24 37  1  0
 24 38  1  0
 24 39  1  0
M  ISO  8  25   8  26   8  27  14  31  14  32  14  33  14  34   8  35   8
M  ISO  4  36   8  37   8  38   8  39   8
M  END
>  <minimizedAffinity>  (1) 
-5.77362967

>  <minimizedRMSD>  (1) 
1.00390184

$$$$
