
     RDKit          3D

 35 36  0  0  0  0  0  0  0  0999 V2000
   36.0940   29.5180   40.1980 C   0  0  0  0  0  0  0  0  0  0  0  0
   37.0890   27.1080   42.9410 C   0  0  0  0  0  0  0  0  0  0  0  0
   36.6950   28.2590   42.2660 C   0  0  0  0  0  0  0  0  0  0  0  0
   36.5130   28.3140   40.9070 C   0  0  0  0  0  0  0  0  0  0  0  0
   36.7450   27.1620   40.2450 N   0  0  0  0  0  0  0  0  0  0  0  0
   37.1290   26.0310   40.8760 C   0  0  0  0  0  0  0  0  0  0  0  0
   37.2980   26.0030   42.1940 N   0  0  0  0  0  0  0  0  0  0  0  0
   34.6180   29.2580   39.8370 C   0  0  0  0  0  0  0  0  0  0  0  0
   36.8770   29.6650   38.8910 C   0  0  0  0  0  0  0  0  0  0  0  0
   36.1610   30.7760   40.9640 C   0  0  0  0  0  0  0  0  0  0  0  0
   37.4140   31.5370   40.7790 C   0  0  0  0  0  0  0  0  0  0  0  0
   37.6150   32.8550   40.3820 C   0  0  0  0  0  0  0  0  0  0  0  0
   38.9540   33.1660   40.3390 C   0  0  0  0  0  0  0  0  0  0  0  0
   39.5610   32.0340   40.7090 N   0  0  0  0  0  0  0  0  0  0  0  0
   38.6630   31.0920   40.9640 N   0  0  0  0  0  0  0  0  0  0  0  0
   40.9990   31.8340   40.8260 C   0  0  0  0  0  0  0  0  0  0  0  0
   41.6110   32.7350   41.6360 F   0  0  0  0  0  0  0  0  0  0  0  0
   41.6190   31.8990   39.5770 F   0  0  0  0  0  0  0  0  0  0  0  0
   41.2830   30.5570   41.3090 F   0  0  0  0  0  0  0  0  0  0  0  0
   39.6450   34.4150   39.9820 C   0  0  0  0  0  0  0  0  0  0  0  0
   40.4370   34.8610   41.0360 F   0  0  0  0  0  0  0  0  0  0  0  0
   38.7770   35.4570   39.7170 F   0  0  0  0  0  0  0  0  0  0  0  0
   40.5020   34.2170   38.9300 F   0  0  0  0  0  0  0  0  0  0  0  0
   37.2240   27.0987   44.0326 H   0  0  0  0  0  0  0  0  0  0  0  0
   36.5202   29.1730   42.8526 H   0  0  0  0  0  0  0  0  0  0  0  0
   37.3048   25.1175   40.2889 H   0  0  0  0  0  0  0  0  0  0  0  0
   34.0278   29.1540   40.7594 H   0  0  0  0  0  0  0  0  0  0  0  0
   34.2307   30.1018   39.2470 H   0  0  0  0  0  0  0  0  0  0  0  0
   34.5423   28.3327   39.2470 H   0  0  0  0  0  0  0  0  0  0  0  0
   37.9349   29.8636   39.1177 H   0  0  0  0  0  0  0  0  0  0  0  0
   36.7951   28.7358   38.3080 H   0  0  0  0  0  0  0  0  0  0  0  0
   36.4637   30.5012   38.3080 H   0  0  0  0  0  0  0  0  0  0  0  0
   35.3214   31.4143   40.6515 H   0  0  0  0  0  0  0  0  0  0  0  0
   36.1160   30.4989   42.0276 H   0  0  0  0  0  0  0  0  0  0  0  0
   36.8065   33.5584   40.1342 H   0  0  0  0  0  0  0  0  0  0  0  0
  1  4  1  0
  1 10  1  0
  3  2  2  0
  4  3  1  0
  5  6  1  0
  5  4  2  0
  6  7  2  0
  7  2  1  0
  8  1  1  0
  9  1  1  0
 11 10  1  0
 11 15  2  0
 12 11  1  0
 13 12  2  0
 13 14  1  0
 14 16  1  0
 14 15  1  0
 16 19  1  0
 16 17  1  0
 18 16  1  0
 20 13  1  0
 20 21  1  0
 22 20  1  0
 23 20  1  0
  2 24  1  0
  3 25  1  0
  6 26  1  0
  8 27  1  0
  8 28  1  0
  8 29  1  0
  9 30  1  0
  9 31  1  0
  9 32  1  0
 10 33  1  0
 10 34  1  0
 12 35  1  0
M  ISO  8  24  14  25  14  26  14  27   8  28   8  29   8  30   8  31   8
M  ISO  4  32   8  33   8  34   8  35  14
M  END
>  <minimizedAffinity>  (1) 
-5.32597065

>  <minimizedRMSD>  (1) 
1.11038172

$$$$
