
     RDKit          3D

 33 34  0  0  0  0  0  0  0  0999 V2000
   36.3150   29.6310   40.4400 C   0  0  0  0  0  0  0  0  0  0  0  0
   37.6570   27.7820   43.4560 C   0  0  0  0  0  0  0  0  0  0  0  0
   37.1840   28.7820   42.6170 C   0  0  0  0  0  0  0  0  0  0  0  0
   36.8140   28.5750   41.3130 C   0  0  0  0  0  0  0  0  0  0  0  0
   36.9380   27.3070   40.8710 N   0  0  0  0  0  0  0  0  0  0  0  0
   37.3950   26.3090   41.6570 C   0  0  0  0  0  0  0  0  0  0  0  0
   37.7480   26.5360   42.9220 N   0  0  0  0  0  0  0  0  0  0  0  0
   34.8730   29.2010   40.1020 C   0  0  0  0  0  0  0  0  0  0  0  0
   37.1120   29.6480   39.1290 C   0  0  0  0  0  0  0  0  0  0  0  0
   36.2660   30.9830   41.0150 C   0  0  0  0  0  0  0  0  0  0  0  0
   37.4490   31.8220   40.7110 C   0  0  0  0  0  0  0  0  0  0  0  0
   37.5410   33.0130   40.0020 C   0  0  0  0  0  0  0  0  0  0  0  0
   38.8390   33.4650   39.9540 C   0  0  0  0  0  0  0  0  0  0  0  0
   39.5250   32.5370   40.6370 N   0  0  0  0  0  0  0  0  0  0  0  0
   38.7150   31.5850   41.0760 N   0  0  0  0  0  0  0  0  0  0  0  0
   40.9620   32.5560   40.8770 C   0  0  0  0  0  0  0  0  0  0  0  0
   41.4690   33.7880   41.1260 F   0  0  0  0  0  0  0  0  0  0  0  0
   41.6580   32.0340   39.7870 F   0  0  0  0  0  0  0  0  0  0  0  0
   41.2920   31.7240   41.9420 F   0  0  0  0  0  0  0  0  0  0  0  0
   39.3090   34.6210   39.3320 O   0  0  0  0  0  0  0  0  0  0  0  0
   37.9430   27.9877   44.4981 H   0  0  0  0  0  0  0  0  0  0  0  0
   37.1011   29.8011   43.0226 H   0  0  0  0  0  0  0  0  0  0  0  0
   37.4774   25.2917   41.2466 H   0  0  0  0  0  0  0  0  0  0  0  0
   34.3124   29.0338   41.0335 H   0  0  0  0  0  0  0  0  0  0  0  0
   34.3824   29.9919   39.5157 H   0  0  0  0  0  0  0  0  0  0  0  0
   34.8957   28.2705   39.5157 H   0  0  0  0  0  0  0  0  0  0  0  0
   38.1884   29.6710   39.3545 H   0  0  0  0  0  0  0  0  0  0  0  0
   36.8787   28.7447   38.5463 H   0  0  0  0  0  0  0  0  0  0  0  0
   36.8403   30.5406   38.5463 H   0  0  0  0  0  0  0  0  0  0  0  0
   35.3735   31.4917   40.6217 H   0  0  0  0  0  0  0  0  0  0  0  0
   36.2427   30.8582   42.1077 H   0  0  0  0  0  0  0  0  0  0  0  0
   36.6864   33.5279   39.5389 H   0  0  0  0  0  0  0  0  0  0  0  0
   40.2730   34.8439   39.3651 H   0  0  0  0  0  0  0  0  0  0  0  0
  1 10  1  0
  1  4  1  0
  3  2  2  0
  4  3  1  0
  5  4  2  0
  5  6  1  0
  6  7  2  0
  7  2  1  0
  8  1  1  0
  9  1  1  0
 11 10  1  0
 11 15  2  0
 12 11  1  0
 13 12  2  0
 13 14  1  0
 14 16  1  0
 14 15  1  0
 16 17  1  0
 16 19  1  0
 18 16  1  0
 20 13  1  0
  2 21  1  0
  3 22  1  0
  6 23  1  0
  8 24  1  0
  8 25  1  0
  8 26  1  0
  9 27  1  0
  9 28  1  0
  9 29  1  0
 10 30  1  0
 10 31  1  0
 12 32  1  0
 20 33  1  0
M  ISO  8  21  14  22  14  23  14  24   8  25   8  26   8  27   8  28   8
M  ISO  5  29   8  30   8  31   8  32  14  33   3
M  END
>  <minimizedAffinity>  (1) 
-5.08837605

>  <minimizedRMSD>  (1) 
0.398443222

$$$$
