
     RDKit          3D

 35 36  0  0  0  0  0  0  0  0999 V2000
   35.9360   29.4390   40.0900 C   0  0  0  0  0  0  0  0  0  0  0  0
   36.9690   26.9210   42.7210 C   0  0  0  0  0  0  0  0  0  0  0  0
   36.5410   28.0860   42.0970 C   0  0  0  0  0  0  0  0  0  0  0  0
   36.3870   28.2150   40.7420 C   0  0  0  0  0  0  0  0  0  0  0  0
   36.6820   27.1170   40.0170 N   0  0  0  0  0  0  0  0  0  0  0  0
   37.1010   25.9660   40.5870 C   0  0  0  0  0  0  0  0  0  0  0  0
   37.2430   25.8660   41.9110 N   0  0  0  0  0  0  0  0  0  0  0  0
   34.4410   29.1940   39.8040 C   0  0  0  0  0  0  0  0  0  0  0  0
   36.6510   29.6180   38.7450 C   0  0  0  0  0  0  0  0  0  0  0  0
   36.0510   30.6750   40.8860 C   0  0  0  0  0  0  0  0  0  0  0  0
   37.3280   31.3990   40.7090 C   0  0  0  0  0  0  0  0  0  0  0  0
   37.5640   32.7010   40.2750 C   0  0  0  0  0  0  0  0  0  0  0  0
   38.9090   32.9820   40.2540 C   0  0  0  0  0  0  0  0  0  0  0  0
   39.4890   31.8390   40.6790 N   0  0  0  0  0  0  0  0  0  0  0  0
   38.5600   30.9290   40.9380 N   0  0  0  0  0  0  0  0  0  0  0  0
   40.9140   31.6220   40.8320 C   0  0  0  0  0  0  0  0  0  0  0  0
   41.5070   32.4820   41.7040 F   0  0  0  0  0  0  0  0  0  0  0  0
   41.5800   31.7190   39.6110 F   0  0  0  0  0  0  0  0  0  0  0  0
   41.1610   30.3240   41.2790 F   0  0  0  0  0  0  0  0  0  0  0  0
   39.5730   34.2530   39.8550 C   0  0  0  0  0  0  0  0  0  0  0  0
   37.0801   26.8565   43.8135 H   0  0  0  0  0  0  0  0  0  0  0  0
   36.3121   28.9569   42.7287 H   0  0  0  0  0  0  0  0  0  0  0  0
   37.3286   25.0980   39.9508 H   0  0  0  0  0  0  0  0  0  0  0  0
   33.8956   29.1046   40.7551 H   0  0  0  0  0  0  0  0  0  0  0  0
   34.0351   30.0376   39.2264 H   0  0  0  0  0  0  0  0  0  0  0  0
   34.3256   28.2650   39.2264 H   0  0  0  0  0  0  0  0  0  0  0  0
   37.7042   29.8817   38.9219 H   0  0  0  0  0  0  0  0  0  0  0  0
   36.5989   28.6791   38.1742 H   0  0  0  0  0  0  0  0  0  0  0  0
   36.1627   30.4216   38.1742 H   0  0  0  0  0  0  0  0  0  0  0  0
   35.2308   31.3483   40.5963 H   0  0  0  0  0  0  0  0  0  0  0  0
   36.0052   30.3732   41.9428 H   0  0  0  0  0  0  0  0  0  0  0  0
   36.7760   33.4122   39.9864 H   0  0  0  0  0  0  0  0  0  0  0  0
   39.8653   34.8125   40.7558 H   0  0  0  0  0  0  0  0  0  0  0  0
   40.4683   34.0270   39.2571 H   0  0  0  0  0  0  0  0  0  0  0  0
   38.8761   34.8588   39.2571 H   0  0  0  0  0  0  0  0  0  0  0  0
  1  4  1  0
  1 10  1  0
  3  2  2  0
  4  3  1  0
  5  6  1  0
  5  4  2  0
  6  7  2  0
  7  2  1  0
  8  1  1  0
  9  1  1  0
 11 10  1  0
 11 15  2  0
 12 11  1  0
 13 12  2  0
 13 14  1  0
 14 16  1  0
 14 15  1  0
 16 19  1  0
 16 17  1  0
 18 16  1  0
 20 13  1  0
  2 21  1  0
  3 22  1  0
  6 23  1  0
  8 24  1  0
  8 25  1  0
  8 26  1  0
  9 27  1  0
  9 28  1  0
  9 29  1  0
 10 30  1  0
 10 31  1  0
 12 32  1  0
 20 33  1  0
 20 34  1  0
 20 35  1  0
M  ISO  8  21  14  22  14  23  14  24   8  25   8  26   8  27   8  28   8
M  ISO  7  29   8  30   8  31   8  32  14  33   8  34   8  35   8
M  END
>  <minimizedAffinity>  (1) 
-4.72816706

>  <minimizedRMSD>  (1) 
1.21133983

$$$$
