
     RDKit          3D

 48 50  0  0  1  0  0  0  0  0999 V2000
   36.3350   31.1020   40.8370 C   0  0  0  0  0  0  0  0  0  0  0  0
   37.5640   31.9220   40.7370 C   0  0  0  0  0  0  0  0  0  0  0  0
   38.8870   31.5640   40.9070 C   0  0  0  0  0  0  0  0  0  0  0  0
   39.7330   32.6370   40.7250 C   0  0  0  0  0  0  0  0  0  0  0  0
   38.9020   33.6520   40.4420 N   0  0  0  0  0  0  0  0  0  0  0  0
   37.6440   33.2410   40.4490 N   0  0  0  0  0  0  0  0  0  0  0  0
   41.2050   32.6260   40.8180 C   0  0  2  0  0  0  0  0  0  0  0  0
   41.9110   31.2980   40.3770 C   0  0  0  0  0  0  0  0  0  0  0  0
   41.9970   31.8430   41.7290 C   0  0  2  0  0  0  0  0  0  0  0  0
   41.6250   31.0990   42.9310 C   0  0  0  0  0  0  0  0  0  0  0  0
   41.4810   29.6060   42.5180 C   0  0  0  0  0  0  0  0  0  0  0  0
   42.8930   31.0530   43.8120 C   0  0  0  0  0  0  0  0  0  0  0  0
   39.3070   35.0140   40.1550 C   0  0  0  0  0  0  0  0  0  0  0  0
   40.3340   35.1260   39.2620 F   0  0  0  0  0  0  0  0  0  0  0  0
   39.7070   35.6690   41.3030 F   0  0  0  0  0  0  0  0  0  0  0  0
   38.2330   35.7520   39.6680 F   0  0  0  0  0  0  0  0  0  0  0  0
   36.4170   29.8080   40.1540 C   0  0  0  0  0  0  0  0  0  0  0  0
   37.1620   27.1330   42.6990 C   0  0  0  0  0  0  0  0  0  0  0  0
   36.5680   28.2000   42.0130 C   0  0  0  0  0  0  0  0  0  0  0  0
   37.0450   28.7090   40.8440 C   0  0  0  0  0  0  0  0  0  0  0  0
   38.1540   28.1170   40.3680 N   0  0  0  0  0  0  0  0  0  0  0  0
   38.7560   27.0860   40.9990 C   0  0  0  0  0  0  0  0  0  0  0  0
   38.2780   26.6030   42.1330 N   0  0  0  0  0  0  0  0  0  0  0  0
   34.9660   29.3280   39.8850 C   0  0  0  0  0  0  0  0  0  0  0  0
   37.0620   30.0140   38.7730 C   0  0  0  0  0  0  0  0  0  0  0  0
   36.1296   30.9173   41.9018 H   0  0  0  0  0  0  0  0  0  0  0  0
   35.5352   31.6707   40.3401 H   0  0  0  0  0  0  0  0  0  0  0  0
   39.2243   30.5473   41.1570 H   0  0  0  0  0  0  0  0  0  0  0  0
   41.2027   33.7028   40.5934 H   0  0  0  0  0  0  0  0  0  0  0  0
   41.3214   30.3914   40.1761 H   0  0  0  0  0  0  0  0  0  0  0  0
   42.6207   30.9948   39.5931 H   0  0  0  0  0  0  0  0  0  0  0  0
   42.7992   32.1569   42.4131 H   0  0  0  0  0  0  0  0  0  0  0  0
   40.7317   31.5357   43.4013 H   0  0  0  0  0  0  0  0  0  0  0  0
   41.4206   28.9801   43.4205 H   0  0  0  0  0  0  0  0  0  0  0  0
   40.5663   29.4774   41.9207 H   0  0  0  0  0  0  0  0  0  0  0  0
   42.3543   29.3049   41.9207 H   0  0  0  0  0  0  0  0  0  0  0  0
   42.6029   31.0635   44.8730 H   0  0  0  0  0  0  0  0  0  0  0  0
   43.4570   30.1338   43.5952 H   0  0  0  0  0  0  0  0  0  0  0  0
   43.5221   31.9289   43.5952 H   0  0  0  0  0  0  0  0  0  0  0  0
   36.7487   26.7461   43.6421 H   0  0  0  0  0  0  0  0  0  0  0  0
   35.6631   28.6532   42.4441 H   0  0  0  0  0  0  0  0  0  0  0  0
   39.6611   26.6397   40.5612 H   0  0  0  0  0  0  0  0  0  0  0  0
   34.4525   29.1581   40.8428 H   0  0  0  0  0  0  0  0  0  0  0  0
   34.4264   30.0955   39.3107 H   0  0  0  0  0  0  0  0  0  0  0  0
   34.9906   28.3901   39.3107 H   0  0  0  0  0  0  0  0  0  0  0  0
   38.1028   30.3464   38.9003 H   0  0  0  0  0  0  0  0  0  0  0  0
   37.0455   29.0659   38.2155 H   0  0  0  0  0  0  0  0  0  0  0  0
   36.4990   30.7770   38.2155 H   0  0  0  0  0  0  0  0  0  0  0  0
  2  1  1  0
  2  3  1  0
  4  7  1  0
  4  3  2  0
  5  6  1  0
  5  4  1  0
  6  2  2  0
  7  9  1  0
  8  7  1  0
  8  9  1  0
  9 10  1  0
 10 12  1  0
 11 10  1  0
 13  5  1  0
 13 15  1  0
 14 13  1  0
 16 13  1  0
 17  1  1  0
 17 20  1  0
 19 18  2  0
 20 19  1  0
 21 20  2  0
 21 22  1  0
 22 23  2  0
 23 18  1  0
 24 17  1  0
 25 17  1  0
  1 26  1  0
  1 27  1  0
  3 28  1  0
  7 29  1  6
  8 30  1  0
  8 31  1  0
  9 32  1  1
 10 33  1  0
 11 34  1  0
 11 35  1  0
 11 36  1  0
 12 37  1  0
 12 38  1  0
 12 39  1  0
 18 40  1  0
 19 41  1  0
 22 42  1  0
 24 43  1  0
 24 44  1  0
 24 45  1  0
 25 46  1  0
 25 47  1  0
 25 48  1  0
M  ISO  8  26   8  27   8  28  14  29  13  30  13  31  13  32  13  33   8
M  ISO  8  34   8  35   8  36   8  37   8  38   8  39   8  40  14  41  14
M  ISO  7  42  14  43   8  44   8  45   8  46   8  47   8  48   8
M  END
>  <minimizedAffinity>  (1) 
-5.69373131

>  <minimizedRMSD>  (1) 
3.76248002

$$$$
