
     RDKit          3D

 52 55  0  0  1  0  0  0  0  0999 V2000
   36.5350   27.6930   39.6610 C   0  0  0  0  0  0  0  0  0  0  0  0
   37.0720   28.9250   39.3150 C   0  0  0  0  0  0  0  0  0  0  0  0
   37.8270   29.4530   40.3500 C   0  0  0  0  0  0  0  0  0  0  0  0
   37.7350   28.5270   41.3120 N   0  0  0  0  0  0  0  0  0  0  0  0
   36.9920   27.5130   40.9170 N   0  0  0  0  0  0  0  0  0  0  0  0
   38.5500   30.7510   40.3570 C   0  0  2  0  0  0  0  0  0  0  0  0
   37.7090   31.9920   40.7830 C   0  0  0  0  0  0  0  0  0  0  0  0
   38.3110   31.8320   39.4250 C   0  0  1  0  0  0  0  0  0  0  0  0
   39.4590   32.7170   39.1810 N   0  0  0  0  0  0  0  0  0  0  0  0
   39.8490   33.6500   40.0490 C   0  0  0  0  0  0  0  0  0  0  0  0
   40.9500   34.3870   39.6470 C   0  0  0  0  0  0  0  0  0  0  0  0
   41.4500   35.4570   40.5700 C   0  0  0  0  0  0  0  0  0  0  0  0
   41.5860   34.1620   38.4360 C   0  0  0  0  0  0  0  0  0  0  0  0
   42.5860   34.8500   38.0980 O   0  0  0  0  0  0  0  0  0  0  0  0
   41.1380   33.2030   37.6080 N   0  0  0  0  0  0  0  0  0  0  0  0
   40.0710   32.4830   37.9880 C   0  0  0  0  0  0  0  0  0  0  0  0
   39.6850   31.5910   37.1780 O   0  0  0  0  0  0  0  0  0  0  0  0
   38.3520   28.6210   42.6130 C   0  0  0  0  0  0  0  0  0  0  0  0
   38.1410   27.5430   43.4250 F   0  0  0  0  0  0  0  0  0  0  0  0
   37.9150   29.7320   43.3090 F   0  0  0  0  0  0  0  0  0  0  0  0
   39.7350   28.7780   42.4940 F   0  0  0  0  0  0  0  0  0  0  0  0
   35.6800   26.7810   38.8680 C   0  0  0  0  0  0  0  0  0  0  0  0
   36.3890   25.6390   38.2860 C   0  0  0  0  0  0  0  0  0  0  0  0
   37.5110   23.2240   40.9490 C   0  0  0  0  0  0  0  0  0  0  0  0
   36.7330   24.0120   40.1040 C   0  0  0  0  0  0  0  0  0  0  0  0
   37.2350   24.8390   39.1400 C   0  0  0  0  0  0  0  0  0  0  0  0
   38.5730   24.8470   39.0510 N   0  0  0  0  0  0  0  0  0  0  0  0
   39.3680   24.1080   39.8370 C   0  0  0  0  0  0  0  0  0  0  0  0
   38.8630   23.3120   40.7660 N   0  0  0  0  0  0  0  0  0  0  0  0
   35.3420   24.6470   37.7220 C   0  0  0  0  0  0  0  0  0  0  0  0
   37.1880   26.1260   37.0590 C   0  0  0  0  0  0  0  0  0  0  0  0
   36.9181   29.4188   38.3442 H   0  0  0  0  0  0  0  0  0  0  0  0
   39.4747   30.2313   40.6483 H   0  0  0  0  0  0  0  0  0  0  0  0
   36.6216   31.9083   40.9261 H   0  0  0  0  0  0  0  0  0  0  0  0
   37.7442   32.7411   41.5877 H   0  0  0  0  0  0  0  0  0  0  0  0
   37.9100   31.8599   38.4011 H   0  0  0  0  0  0  0  0  0  0  0  0
   39.3374   33.8208   41.0077 H   0  0  0  0  0  0  0  0  0  0  0  0
   41.3020   35.1402   41.6129 H   0  0  0  0  0  0  0  0  0  0  0  0
   42.5212   35.6278   40.3872 H   0  0  0  0  0  0  0  0  0  0  0  0
   40.8938   36.3882   40.3872 H   0  0  0  0  0  0  0  0  0  0  0  0
   41.6013   33.0252   36.7054 H   0  0  0  0  0  0  0  0  0  0  0  0
   34.8870   26.3948   39.5252 H   0  0  0  0  0  0  0  0  0  0  0  0
   35.2899   27.3705   38.0252 H   0  0  0  0  0  0  0  0  0  0  0  0
   37.0658   22.5722   41.7151 H   0  0  0  0  0  0  0  0  0  0  0  0
   35.6403   23.9650   40.2211 H   0  0  0  0  0  0  0  0  0  0  0  0
   40.4590   24.1639   39.7078 H   0  0  0  0  0  0  0  0  0  0  0  0
   34.8199   24.1524   38.5543 H   0  0  0  0  0  0  0  0  0  0  0  0
   34.6135   25.1940   37.1055 H   0  0  0  0  0  0  0  0  0  0  0  0
   35.8489   23.8900   37.1055 H   0  0  0  0  0  0  0  0  0  0  0  0
   38.0820   26.6709   37.3963 H   0  0  0  0  0  0  0  0  0  0  0  0
   37.4932   25.2602   36.4530 H   0  0  0  0  0  0  0  0  0  0  0  0
   36.5583   26.7940   36.4530 H   0  0  0  0  0  0  0  0  0  0  0  0
  1  5  2  0
  2  1  1  0
  2  3  2  0
  3  6  1  0
  3  4  1  0
  4 18  1  0
  5  4  1  0
  6  7  1  0
  8  6  1  0
  8  7  1  0
  9  8  1  0
  9 10  1  0
 11 10  2  0
 11 12  1  0
 13 11  1  0
 14 13  2  0
 15 16  1  0
 15 13  1  0
 16  9  1  0
 17 16  2  0
 18 20  1  0
 18 19  1  0
 21 18  1  0
 22  1  1  0
 23 22  1  0
 23 26  1  0
 25 24  2  0
 26 25  1  0
 27 26  2  0
 27 28  1  0
 28 29  2  0
 29 24  1  0
 30 23  1  0
 31 23  1  0
  2 32  1  0
  6 33  1  1
  7 34  1  0
  7 35  1  0
  8 36  1  6
 10 37  1  0
 12 38  1  0
 12 39  1  0
 12 40  1  0
 15 41  1  0
 22 42  1  0
 22 43  1  0
 24 44  1  0
 25 45  1  0
 28 46  1  0
 30 47  1  0
 30 48  1  0
 30 49  1  0
 31 50  1  0
 31 51  1  0
 31 52  1  0
M  ISO  8  32  14  33  13  34  13  35  13  36  13  37  14  38   8  39   8
M  ISO  8  40   8  41   9  42   8  43   8  44  14  45  14  46  14  47   8
M  ISO  5  48   8  49   8  50   8  51   8  52   8
M  END
>  <minimizedAffinity>  (1) 
-5.63701868

>  <minimizedRMSD>  (1) 
4.34406424

$$$$
