
     RDKit          3D

 52 55  0  0  1  0  0  0  0  0999 V2000
   38.0000   30.7970   39.8220 C   0  0  0  0  0  0  0  0  0  0  0  0
   38.5190   32.0100   39.3960 C   0  0  0  0  0  0  0  0  0  0  0  0
   39.8020   31.8660   38.9100 C   0  0  0  0  0  0  0  0  0  0  0  0
   40.0440   30.5580   39.0510 N   0  0  0  0  0  0  0  0  0  0  0  0
   39.0070   29.9330   39.5780 N   0  0  0  0  0  0  0  0  0  0  0  0
   40.6710   32.9250   38.3770 C   0  0  2  0  0  0  0  0  0  0  0  0
   42.0630   33.1050   39.0080 C   0  0  0  0  0  0  0  0  0  0  0  0
   41.0210   34.1500   39.0710 C   0  0  2  0  0  0  0  0  0  0  0  0
   40.5810   34.6260   40.3900 C   0  0  0  0  0  0  0  0  0  0  0  0
   41.4760   35.5480   41.1270 C   0  0  0  0  0  0  0  0  0  0  0  0
   40.9420   36.9480   41.0470 C   0  0  0  0  0  0  0  0  0  0  0  0
   39.9800   36.8920   39.8960 C   0  0  0  0  0  0  0  0  0  0  0  0
   39.3470   35.5210   40.1570 C   0  0  0  0  0  0  0  0  0  0  0  0
   41.2790   29.8910   38.6890 C   0  0  0  0  0  0  0  0  0  0  0  0
   42.3320   30.1710   39.5090 F   0  0  0  0  0  0  0  0  0  0  0  0
   41.6730   30.2120   37.4040 F   0  0  0  0  0  0  0  0  0  0  0  0
   41.1120   28.5060   38.6730 F   0  0  0  0  0  0  0  0  0  0  0  0
   36.6680   30.4960   40.3990 C   0  0  0  0  0  0  0  0  0  0  0  0
   36.1000   29.2140   39.9550 C   0  0  0  0  0  0  0  0  0  0  0  0
   36.9830   26.8380   42.7430 C   0  0  0  0  0  0  0  0  0  0  0  0
   36.6240   27.9850   42.0230 C   0  0  0  0  0  0  0  0  0  0  0  0
   36.4710   28.0170   40.6720 C   0  0  0  0  0  0  0  0  0  0  0  0
   36.6900   26.8530   40.0510 N   0  0  0  0  0  0  0  0  0  0  0  0
   37.0350   25.7270   40.6920 C   0  0  0  0  0  0  0  0  0  0  0  0
   37.1820   25.7110   42.0120 N   0  0  0  0  0  0  0  0  0  0  0  0
   34.5580   29.2940   40.1040 C   0  0  0  0  0  0  0  0  0  0  0  0
   36.3670   29.0440   38.4500 C   0  0  0  0  0  0  0  0  0  0  0  0
   37.9765   32.9659   39.4400 H   0  0  0  0  0  0  0  0  0  0  0  0
   40.2319   32.7343   37.3866 H   0  0  0  0  0  0  0  0  0  0  0  0
   42.3423   32.5419   39.9107 H   0  0  0  0  0  0  0  0  0  0  0  0
   43.1047   33.0446   38.6598 H   0  0  0  0  0  0  0  0  0  0  0  0
   40.8810   35.1931   38.7512 H   0  0  0  0  0  0  0  0  0  0  0  0
   40.4719   33.6986   40.9714 H   0  0  0  0  0  0  0  0  0  0  0  0
   41.5315   35.2381   42.1810 H   0  0  0  0  0  0  0  0  0  0  0  0
   42.4795   35.5161   40.6776 H   0  0  0  0  0  0  0  0  0  0  0  0
   40.4255   37.2254   41.9777 H   0  0  0  0  0  0  0  0  0  0  0  0
   41.7324   37.7003   40.9080 H   0  0  0  0  0  0  0  0  0  0  0  0
   40.4986   36.9260   38.9265 H   0  0  0  0  0  0  0  0  0  0  0  0
   39.2704   37.7306   39.8395 H   0  0  0  0  0  0  0  0  0  0  0  0
   38.6989   35.5445   41.0455 H   0  0  0  0  0  0  0  0  0  0  0  0
   38.6994   35.1728   39.3388 H   0  0  0  0  0  0  0  0  0  0  0  0
   36.7631   30.4713   41.4946 H   0  0  0  0  0  0  0  0  0  0  0  0
   35.9846   31.2846   40.0510 H   0  0  0  0  0  0  0  0  0  0  0  0
   37.0971   26.8497   43.8370 H   0  0  0  0  0  0  0  0  0  0  0  0
   36.4557   28.9159   42.5843 H   0  0  0  0  0  0  0  0  0  0  0  0
   37.1986   24.8038   40.1168 H   0  0  0  0  0  0  0  0  0  0  0  0
   34.2930   29.3077   41.1715 H   0  0  0  0  0  0  0  0  0  0  0  0
   34.1903   30.2124   39.6231 H   0  0  0  0  0  0  0  0  0  0  0  0
   34.0972   28.4186   39.6231 H   0  0  0  0  0  0  0  0  0  0  0  0
   37.2867   28.4584   38.3046 H   0  0  0  0  0  0  0  0  0  0  0  0
   35.5202   28.5184   37.9845 H   0  0  0  0  0  0  0  0  0  0  0  0
   36.4850   30.0336   37.9845 H   0  0  0  0  0  0  0  0  0  0  0  0
  1 18  1  0
  2  1  1  0
  3  4  1  0
  3  2  2  0
  4  5  1  0
  5  1  2  0
  6  3  1  0
  6  7  1  0
  6  8  1  0
  7  8  1  0
  8  9  1  0
  9 10  1  0
 11 10  1  0
 12 13  1  0
 12 11  1  0
 13  9  1  0
 14  4  1  0
 14 15  1  0
 16 14  1  0
 17 14  1  0
 19 26  1  0
 19 18  1  0
 19 22  1  0
 21 20  2  0
 22 21  1  0
 23 22  2  0
 23 24  1  0
 24 25  2  0
 25 20  1  0
 27 19  1  0
  2 28  1  0
  6 29  1  6
  7 30  1  0
  7 31  1  0
  8 32  1  6
  9 33  1  0
 10 34  1  0
 10 35  1  0
 11 36  1  0
 11 37  1  0
 12 38  1  0
 12 39  1  0
 13 40  1  0
 13 41  1  0
 18 42  1  0
 18 43  1  0
 20 44  1  0
 21 45  1  0
 24 46  1  0
 26 47  1  0
 26 48  1  0
 26 49  1  0
 27 50  1  0
 27 51  1  0
 27 52  1  0
M  ISO  8  28  14  29  13  30  13  31  13  32  13  33  13  34  13  35  13
M  ISO  8  36  13  37  13  38  13  39  13  40  13  41  13  42   8  43   8
M  ISO  8  44  14  45  14  46  14  47   8  48   8  49   8  50   8  51   8
M  ISO  1  52   8
M  END
>  <minimizedAffinity>  (1) 
-5.54346418

>  <minimizedRMSD>  (1) 
2.51609373

$$$$
