
     RDKit          3D

 53 57  0  0  1  0  0  0  0  0999 V2000
   39.6850   28.1640   42.6950 C   0  0  0  0  0  0  0  0  0  0  0  0
   39.9970   29.4150   42.1650 C   0  0  0  0  0  0  0  0  0  0  0  0
   41.1000   29.3430   41.3360 C   0  0  0  0  0  0  0  0  0  0  0  0
   41.4410   28.0480   41.3770 N   0  0  0  0  0  0  0  0  0  0  0  0
   40.6280   27.3670   42.1580 N   0  0  0  0  0  0  0  0  0  0  0  0
   41.7280   30.4590   40.6020 C   0  0  2  0  0  0  0  0  0  0  0  0
   42.8730   31.2170   41.3300 C   0  0  0  0  0  0  0  0  0  0  0  0
   41.5790   31.8580   40.9600 C   0  0  1  0  0  0  0  0  0  0  0  0
   41.6010   32.9240   39.9990 N   0  0  0  0  0  0  0  0  0  0  0  0
   41.7600   32.8590   38.6680 C   0  0  0  0  0  0  0  0  0  0  0  0
   41.7240   34.0950   38.0980 N   0  0  0  0  0  0  0  0  0  0  0  0
   41.5350   34.9730   39.1000 C   0  0  0  0  0  0  0  0  0  0  0  0
   41.4140   36.3670   39.1450 C   0  0  0  0  0  0  0  0  0  0  0  0
   41.4770   37.0530   38.1060 O   0  0  0  0  0  0  0  0  0  0  0  0
   41.2240   36.9640   40.3550 N   0  0  0  0  0  0  0  0  0  0  0  0
   41.1520   36.2380   41.5040 C   0  0  0  0  0  0  0  0  0  0  0  0
   40.9580   36.8070   42.7780 N   0  0  0  0  0  0  0  0  0  0  0  0
   41.2720   34.9110   41.4210 N   0  0  0  0  0  0  0  0  0  0  0  0
   41.4620   34.2490   40.2520 C   0  0  0  0  0  0  0  0  0  0  0  0
   42.5580   27.4640   40.6710 C   0  0  0  0  0  0  0  0  0  0  0  0
   43.7780   27.9670   41.0210 F   0  0  0  0  0  0  0  0  0  0  0  0
   42.4410   27.6170   39.3030 F   0  0  0  0  0  0  0  0  0  0  0  0
   42.6080   26.0840   40.8790 F   0  0  0  0  0  0  0  0  0  0  0  0
   38.5850   27.7810   43.6170 C   0  0  0  0  0  0  0  0  0  0  0  0
   37.2720   27.6680   42.9670 C   0  0  0  0  0  0  0  0  0  0  0  0
   36.9230   24.2490   41.4230 C   0  0  0  0  0  0  0  0  0  0  0  0
   37.1100   25.2910   42.3390 C   0  0  0  0  0  0  0  0  0  0  0  0
   37.0770   26.6090   42.0050 C   0  0  0  0  0  0  0  0  0  0  0  0
   36.8470   26.8530   40.7110 N   0  0  0  0  0  0  0  0  0  0  0  0
   36.6600   25.8860   39.7920 C   0  0  0  0  0  0  0  0  0  0  0  0
   36.6970   24.6120   40.1380 N   0  0  0  0  0  0  0  0  0  0  0  0
   36.2230   27.3860   44.0670 C   0  0  0  0  0  0  0  0  0  0  0  0
   36.9040   29.0310   42.3480 C   0  0  0  0  0  0  0  0  0  0  0  0
   39.4384   30.3382   42.3787 H   0  0  0  0  0  0  0  0  0  0  0  0
   41.5656   29.9177   39.6583 H   0  0  0  0  0  0  0  0  0  0  0  0
   43.1069   30.9980   42.3823 H   0  0  0  0  0  0  0  0  0  0  0  0
   43.9395   31.4138   41.1461 H   0  0  0  0  0  0  0  0  0  0  0  0
   40.7799   32.3856   41.5013 H   0  0  0  0  0  0  0  0  0  0  0  0
   41.9018   31.9234   38.1072 H   0  0  0  0  0  0  0  0  0  0  0  0
   41.1327   37.9889   40.4012 H   0  0  0  0  0  0  0  0  0  0  0  0
   40.9124   36.2023   43.6106 H   0  0  0  0  0  0  0  0  0  0  0  0
   40.8618   37.8277   42.8769 H   0  0  0  0  0  0  0  0  0  0  0  0
   38.8333   26.8082   44.0663 H   0  0  0  0  0  0  0  0  0  0  0  0
   38.5020   28.5841   44.3641 H   0  0  0  0  0  0  0  0  0  0  0  0
   36.9577   23.1933   41.7301 H   0  0  0  0  0  0  0  0  0  0  0  0
   37.2945   25.0282   43.3911 H   0  0  0  0  0  0  0  0  0  0  0  0
   36.4746   26.1602   38.7430 H   0  0  0  0  0  0  0  0  0  0  0  0
   36.6868   27.5107   45.0566 H   0  0  0  0  0  0  0  0  0  0  0  0
   35.3847   28.0907   43.9635 H   0  0  0  0  0  0  0  0  0  0  0  0
   35.8510   26.3560   43.9635 H   0  0  0  0  0  0  0  0  0  0  0  0
   36.7079   29.7572   43.1506 H   0  0  0  0  0  0  0  0  0  0  0  0
   37.7378   29.3883   41.7259 H   0  0  0  0  0  0  0  0  0  0  0  0
   36.0036   28.9201   41.7259 H   0  0  0  0  0  0  0  0  0  0  0  0
  1 24  1  0
  2  1  1  0
  3  4  1  0
  3  2  2  0
  4  5  1  0
  5  1  2  0
  6  8  1  0
  6  7  1  0
  6  3  1  0
  8  7  1  0
  9 19  1  0
  9  8  1  0
 10  9  1  0
 11 10  2  0
 11 12  1  0
 12 13  1  0
 12 19  2  0
 13 15  1  0
 14 13  2  0
 15 16  1  0
 16 17  1  0
 18 16  2  0
 19 18  1  0
 20 23  1  0
 20 21  1  0
 20  4  1  0
 22 20  1  0
 25 24  1  0
 25 32  1  0
 26 27  2  0
 28 27  1  0
 28 25  1  0
 29 28  2  0
 30 31  2  0
 30 29  1  0
 31 26  1  0
 33 25  1  0
  2 34  1  0
  6 35  1  6
  7 36  1  0
  7 37  1  0
  8 38  1  1
 10 39  1  0
 15 40  1  0
 17 41  1  0
 17 42  1  0
 24 43  1  0
 24 44  1  0
 26 45  1  0
 27 46  1  0
 30 47  1  0
 32 48  1  0
 32 49  1  0
 32 50  1  0
 33 51  1  0
 33 52  1  0
 33 53  1  0
M  ISO  8  34  14  35  13  36  13  37  13  38  13  39  14  40   9  43   8
M  ISO  8  44   8  45  14  46  14  47  14  48   8  49   8  50   8  51   8
M  ISO  2  52   8  53   8
M  END
>  <minimizedAffinity>  (1) 
-5.53224182

>  <minimizedRMSD>  (1) 
4.43985224

$$$$
