
     RDKit          3D

 54 57  0  0  1  0  0  0  0  0999 V2000
   38.3640   30.6670   41.3360 C   0  0  0  0  0  0  0  0  0  0  0  0
   39.1810   31.5610   40.6670 C   0  0  0  0  0  0  0  0  0  0  0  0
   40.4920   31.4190   41.0340 C   0  0  0  0  0  0  0  0  0  0  0  0
   40.4730   30.4300   41.9370 N   0  0  0  0  0  0  0  0  0  0  0  0
   39.2370   29.9930   42.1130 N   0  0  0  0  0  0  0  0  0  0  0  0
   41.6370   32.2070   40.5410 C   0  0  2  0  0  0  0  0  0  0  0  0
   42.5150   32.9390   41.5880 C   0  0  0  0  0  0  0  0  0  0  0  0
   41.7300   33.6560   40.5560 C   0  0  2  0  0  0  0  0  0  0  0  0
   40.7020   34.5820   40.9130 N   0  0  0  0  0  0  0  0  0  0  0  0
   39.8200   34.7740   39.7380 C   0  0  0  0  0  0  0  0  0  0  0  0
   38.8220   35.8600   39.9570 C   0  0  0  0  0  0  0  0  0  0  0  0
   39.4990   37.2310   40.0470 C   0  0  0  0  0  0  0  0  0  0  0  0
   40.9800   36.9160   40.1300 C   0  0  0  0  0  0  0  0  0  0  0  0
   41.1400   35.9050   41.2460 C   0  0  0  0  0  0  0  0  0  0  0  0
   41.6230   29.8990   42.6360 C   0  0  0  0  0  0  0  0  0  0  0  0
   42.1560   30.7390   43.5660 F   0  0  0  0  0  0  0  0  0  0  0  0
   42.6410   29.5720   41.7580 F   0  0  0  0  0  0  0  0  0  0  0  0
   41.3030   28.7140   43.2840 F   0  0  0  0  0  0  0  0  0  0  0  0
   36.8970   30.4750   41.2420 C   0  0  0  0  0  0  0  0  0  0  0  0
   36.4950   29.2760   40.5040 C   0  0  0  0  0  0  0  0  0  0  0  0
   36.7380   26.5480   43.0940 C   0  0  0  0  0  0  0  0  0  0  0  0
   36.5550   27.7860   42.4580 C   0  0  0  0  0  0  0  0  0  0  0  0
   36.6930   27.9860   41.1210 C   0  0  0  0  0  0  0  0  0  0  0  0
   37.0280   26.9030   40.4090 N   0  0  0  0  0  0  0  0  0  0  0  0
   37.2170   25.6920   40.9660 C   0  0  0  0  0  0  0  0  0  0  0  0
   37.0770   25.5120   42.2800 N   0  0  0  0  0  0  0  0  0  0  0  0
   34.9620   29.3590   40.2660 C   0  0  0  0  0  0  0  0  0  0  0  0
   37.1450   29.3150   39.1100 C   0  0  0  0  0  0  0  0  0  0  0  0
   38.8214   32.2952   39.9311 H   0  0  0  0  0  0  0  0  0  0  0  0
   41.7523   31.4675   39.7349 H   0  0  0  0  0  0  0  0  0  0  0  0
   42.2106   32.9740   42.6445 H   0  0  0  0  0  0  0  0  0  0  0  0
   43.5682   32.9057   41.9037 H   0  0  0  0  0  0  0  0  0  0  0  0
   41.9482   34.3731   39.7509 H   0  0  0  0  0  0  0  0  0  0  0  0
   39.2838   33.8342   39.5397 H   0  0  0  0  0  0  0  0  0  0  0  0
   40.4512   35.0613   38.8841 H   0  0  0  0  0  0  0  0  0  0  0  0
   38.1103   35.8666   39.1183 H   0  0  0  0  0  0  0  0  0  0  0  0
   38.3031   35.6669   40.9075 H   0  0  0  0  0  0  0  0  0  0  0  0
   39.2787   37.8332   39.1533 H   0  0  0  0  0  0  0  0  0  0  0  0
   39.1462   37.8169   40.9085 H   0  0  0  0  0  0  0  0  0  0  0  0
   41.3326   36.4913   39.1785 H   0  0  0  0  0  0  0  0  0  0  0  0
   41.5704   37.8232   40.3260 H   0  0  0  0  0  0  0  0  0  0  0  0
   40.5571   36.2528   42.1116 H   0  0  0  0  0  0  0  0  0  0  0  0
   42.2178   35.8358   41.4549 H   0  0  0  0  0  0  0  0  0  0  0  0
   36.4922   30.4040   42.2624 H   0  0  0  0  0  0  0  0  0  0  0  0
   36.5003   31.3368   40.6853 H   0  0  0  0  0  0  0  0  0  0  0  0
   36.6153   26.4237   44.1800 H   0  0  0  0  0  0  0  0  0  0  0  0
   36.2823   28.6498   43.0821 H   0  0  0  0  0  0  0  0  0  0  0  0
   37.4908   24.8387   40.3281 H   0  0  0  0  0  0  0  0  0  0  0  0
   34.4416   29.3872   41.2347 H   0  0  0  0  0  0  0  0  0  0  0  0
   34.7281   30.2711   39.6974 H   0  0  0  0  0  0  0  0  0  0  0  0
   34.6310   28.4775   39.6974 H   0  0  0  0  0  0  0  0  0  0  0  0
   38.2378   29.3806   39.2167 H   0  0  0  0  0  0  0  0  0  0  0  0
   36.8847   28.3996   38.5583 H   0  0  0  0  0  0  0  0  0  0  0  0
   36.7771   30.1927   38.5583 H   0  0  0  0  0  0  0  0  0  0  0  0
  1  5  2  0
  2  3  2  0
  2  1  1  0
  3  4  1  0
  4  5  1  0
  4 15  1  0
  6  8  1  0
  6  3  1  0
  6  7  1  0
  8  9  1  0
  8  7  1  0
  9 14  1  0
 10 11  1  0
 10  9  1  0
 11 12  1  0
 12 13  1  0
 13 14  1  0
 15 18  1  0
 15 16  1  0
 17 15  1  0
 19  1  1  0
 20 23  1  0
 20 19  1  0
 22 21  2  0
 23 22  1  0
 24 25  1  0
 24 23  2  0
 25 26  2  0
 26 21  1  0
 27 20  1  0
 28 20  1  0
  2 29  1  0
  6 30  1  6
  7 31  1  0
  7 32  1  0
  8 33  1  6
 10 34  1  0
 10 35  1  0
 11 36  1  0
 11 37  1  0
 12 38  1  0
 12 39  1  0
 13 40  1  0
 13 41  1  0
 14 42  1  0
 14 43  1  0
 19 44  1  0
 19 45  1  0
 21 46  1  0
 22 47  1  0
 25 48  1  0
 27 49  1  0
 27 50  1  0
 27 51  1  0
 28 52  1  0
 28 53  1  0
 28 54  1  0
M  ISO  8  29  14  30  13  31  13  32  13  33  13  34  13  35  13  36  13
M  ISO  8  37  13  38  13  39  13  40  13  41  13  42  13  43  13  44   8
M  ISO  8  45   8  46  14  47  14  48  14  49   8  50   8  51   8  52   8
M  ISO  2  53   8  54   8
M  END
>  <minimizedAffinity>  (1) 
-5.4862318

>  <minimizedRMSD>  (1) 
2.63162756

$$$$
