
     RDKit          3D

 51 53  0  0  1  0  0  0  0  0999 V2000
   36.0700   30.6710   40.3780 C   0  0  0  0  0  0  0  0  0  0  0  0
   37.3770   31.1760   39.8920 C   0  0  0  0  0  0  0  0  0  0  0  0
   37.9990   32.3950   40.1460 C   0  0  0  0  0  0  0  0  0  0  0  0
   39.2130   32.4770   39.4900 C   0  0  0  0  0  0  0  0  0  0  0  0
   39.3080   31.3060   38.8500 N   0  0  0  0  0  0  0  0  0  0  0  0
   38.2520   30.5550   39.0790 N   0  0  0  0  0  0  0  0  0  0  0  0
   40.1690   33.6160   39.5210 C   0  0  2  0  0  0  0  0  0  0  0  0
   41.3300   33.5100   40.5520 C   0  0  0  0  0  0  0  0  0  0  0  0
   40.2740   34.5520   40.6270 C   0  0  1  0  0  0  0  0  0  0  0  0
   40.5330   35.9920   40.2560 C   0  0  0  0  0  0  0  0  0  0  0  0
   41.2170   36.6650   41.3990 C   0  0  0  0  0  0  0  0  0  0  0  0
   39.1650   36.6190   40.0080 C   0  0  0  0  0  0  0  0  0  0  0  0
   41.3390   36.1420   38.9980 C   0  0  0  0  0  0  0  0  0  0  0  0
   40.4220   30.9030   38.0230 C   0  0  0  0  0  0  0  0  0  0  0  0
   41.5930   30.7130   38.6980 F   0  0  0  0  0  0  0  0  0  0  0  0
   40.6850   31.8220   37.0260 F   0  0  0  0  0  0  0  0  0  0  0  0
   40.1390   29.7060   37.3590 F   0  0  0  0  0  0  0  0  0  0  0  0
   35.7210   29.3340   39.8890 C   0  0  0  0  0  0  0  0  0  0  0  0
   36.9940   27.1020   42.6450 C   0  0  0  0  0  0  0  0  0  0  0  0
   36.4850   28.1840   41.9320 C   0  0  0  0  0  0  0  0  0  0  0  0
   36.2520   28.1860   40.5940 C   0  0  0  0  0  0  0  0  0  0  0  0
   36.5520   27.0390   39.9700 N   0  0  0  0  0  0  0  0  0  0  0  0
   37.0440   25.9620   40.5960 C   0  0  0  0  0  0  0  0  0  0  0  0
   37.2660   25.9820   41.9090 N   0  0  0  0  0  0  0  0  0  0  0  0
   34.1840   29.1710   39.9750 C   0  0  0  0  0  0  0  0  0  0  0  0
   36.0740   29.2440   38.3890 C   0  0  0  0  0  0  0  0  0  0  0  0
   36.1000   30.6390   41.4771 H   0  0  0  0  0  0  0  0  0  0  0  0
   35.3030   31.3582   39.9915 H   0  0  0  0  0  0  0  0  0  0  0  0
   37.5803   33.1875   40.7837 H   0  0  0  0  0  0  0  0  0  0  0  0
   40.0337   33.7622   38.4392 H   0  0  0  0  0  0  0  0  0  0  0  0
   41.3551   32.6872   41.2817 H   0  0  0  0  0  0  0  0  0  0  0  0
   42.4292   33.4934   40.5126 H   0  0  0  0  0  0  0  0  0  0  0  0
   39.6322   34.8623   41.4647 H   0  0  0  0  0  0  0  0  0  0  0  0
   40.8189   36.2733   42.3466 H   0  0  0  0  0  0  0  0  0  0  0  0
   42.2981   36.4687   41.3464 H   0  0  0  0  0  0  0  0  0  0  0  0
   41.0382   37.7491   41.3464 H   0  0  0  0  0  0  0  0  0  0  0  0
   38.6828   36.8400   40.9717 H   0  0  0  0  0  0  0  0  0  0  0  0
   39.2870   37.5511   39.4367 H   0  0  0  0  0  0  0  0  0  0  0  0
   38.5385   35.9181   39.4367 H   0  0  0  0  0  0  0  0  0  0  0  0
   42.3900   36.3376   39.2571 H   0  0  0  0  0  0  0  0  0  0  0  0
   41.2730   35.2162   38.4077 H   0  0  0  0  0  0  0  0  0  0  0  0
   40.9444   36.9821   38.4077 H   0  0  0  0  0  0  0  0  0  0  0  0
   37.1663   27.1452   43.7306 H   0  0  0  0  0  0  0  0  0  0  0  0
   36.2552   29.1024   42.4921 H   0  0  0  0  0  0  0  0  0  0  0  0
   37.2669   25.0518   40.0199 H   0  0  0  0  0  0  0  0  0  0  0  0
   33.8772   29.1385   41.0309 H   0  0  0  0  0  0  0  0  0  0  0  0
   33.6966   30.0225   39.4776 H   0  0  0  0  0  0  0  0  0  0  0  0
   33.8860   28.2362   39.4776 H   0  0  0  0  0  0  0  0  0  0  0  0
   37.1344   28.9736   38.2774 H   0  0  0  0  0  0  0  0  0  0  0  0
   35.4477   28.4768   37.9103 H   0  0  0  0  0  0  0  0  0  0  0  0
   35.8915   30.2174   37.9103 H   0  0  0  0  0  0  0  0  0  0  0  0
  2  3  1  0
  2  1  1  0
  4  7  1  0
  4  3  2  0
  5  6  1  0
  5  4  1  0
  6  2  2  0
  7  8  1  0
  7  9  1  0
  8  9  1  0
 10  9  1  0
 10 11  1  0
 12 10  1  0
 13 10  1  0
 14 15  1  0
 14  5  1  0
 16 14  1  0
 17 14  1  0
 18 25  1  0
 18  1  1  0
 18 21  1  0
 20 19  2  0
 21 20  1  0
 22 21  2  0
 22 23  1  0
 23 24  2  0
 24 19  1  0
 26 18  1  0
  1 27  1  0
  1 28  1  0
  3 29  1  0
  7 30  1  6
  8 31  1  0
  8 32  1  0
  9 33  1  1
 11 34  1  0
 11 35  1  0
 11 36  1  0
 12 37  1  0
 12 38  1  0
 12 39  1  0
 13 40  1  0
 13 41  1  0
 13 42  1  0
 19 43  1  0
 20 44  1  0
 23 45  1  0
 25 46  1  0
 25 47  1  0
 25 48  1  0
 26 49  1  0
 26 50  1  0
 26 51  1  0
M  ISO  8  27   8  28   8  29  14  30  13  31  13  32  13  33  13  34   8
M  ISO  8  35   8  36   8  37   8  38   8  39   8  40   8  41   8  42   8
M  ISO  8  43  14  44  14  45  14  46   8  47   8  48   8  49   8  50   8
M  ISO  1  51   8
M  END
>  <minimizedAffinity>  (1) 
-5.4656539

>  <minimizedRMSD>  (1) 
1.85329306

$$$$
