
     RDKit          3D

 46 48  0  0  1  0  0  0  0  0999 V2000
   38.1510   31.1390   40.9220 C   0  0  0  0  0  0  0  0  0  0  0  0
   38.9260   32.0010   40.1660 C   0  0  0  0  0  0  0  0  0  0  0  0
   40.2310   32.0000   40.5660 C   0  0  0  0  0  0  0  0  0  0  0  0
   40.2540   31.1230   41.5840 N   0  0  0  0  0  0  0  0  0  0  0  0
   39.0470   30.6230   41.7880 N   0  0  0  0  0  0  0  0  0  0  0  0
   41.3280   32.8060   40.0030 C   0  0  2  0  0  0  0  0  0  0  0  0
   42.0500   33.8100   40.9440 C   0  0  0  0  0  0  0  0  0  0  0  0
   41.2930   34.2230   39.7320 C   0  0  2  0  0  0  0  0  0  0  0  0
   40.1820   35.0800   39.7190 N   0  0  0  0  0  0  0  0  0  0  0  0
   39.7990   36.3730   40.1120 C   0  0  0  0  0  0  0  0  0  0  0  0
   40.4820   36.9960   40.9530 N   0  0  0  0  0  0  0  0  0  0  0  0
   38.6900   37.1440   39.6810 N   0  0  0  0  0  0  0  0  0  0  0  0
   41.3180   36.6710   41.4110 H   0  0  0  0  0  0  0  0  0  0  0  0
   41.4240   30.7580   42.3620 C   0  0  0  0  0  0  0  0  0  0  0  0
   41.8100   31.6860   43.2670 F   0  0  0  0  0  0  0  0  0  0  0  0
   42.5130   30.5120   41.5300 F   0  0  0  0  0  0  0  0  0  0  0  0
   41.2040   29.5570   43.0360 F   0  0  0  0  0  0  0  0  0  0  0  0
   36.7020   30.8360   40.8290 C   0  0  0  0  0  0  0  0  0  0  0  0
   36.3960   29.5270   40.2550 C   0  0  0  0  0  0  0  0  0  0  0  0
   36.9370   26.8650   42.8680 C   0  0  0  0  0  0  0  0  0  0  0  0
   36.4890   28.0030   42.1830 C   0  0  0  0  0  0  0  0  0  0  0  0
   36.8810   28.3470   40.9270 C   0  0  0  0  0  0  0  0  0  0  0  0
   37.7570   27.5140   40.3410 N   0  0  0  0  0  0  0  0  0  0  0  0
   38.2190   26.4020   40.9610 C   0  0  0  0  0  0  0  0  0  0  0  0
   37.8260   26.0800   42.1880 N   0  0  0  0  0  0  0  0  0  0  0  0
   34.8520   29.3700   40.2510 C   0  0  0  0  0  0  0  0  0  0  0  0
   36.8330   29.5230   38.7760 C   0  0  0  0  0  0  0  0  0  0  0  0
   38.5363   32.6145   39.3403 H   0  0  0  0  0  0  0  0  0  0  0  0
   41.5708   31.9436   39.3648 H   0  0  0  0  0  0  0  0  0  0  0  0
   41.6539   34.0186   41.9488 H   0  0  0  0  0  0  0  0  0  0  0  0
   43.0702   33.9468   41.3318 H   0  0  0  0  0  0  0  0  0  0  0  0
   41.5273   34.8107   38.8322 H   0  0  0  0  0  0  0  0  0  0  0  0
   39.3841   34.6038   39.2747 H   0  0  0  0  0  0  0  0  0  0  0  0
   38.5386   38.0878   40.0647 H   0  0  0  0  0  0  0  0  0  0  0  0
   38.0357   36.7603   38.9842 H   0  0  0  0  0  0  0  0  0  0  0  0
   36.2762   30.8756   41.8425 H   0  0  0  0  0  0  0  0  0  0  0  0
   36.2666   31.5859   40.1522 H   0  0  0  0  0  0  0  0  0  0  0  0
   36.5960   26.6200   43.8847 H   0  0  0  0  0  0  0  0  0  0  0  0
   35.7725   28.6618   42.6956 H   0  0  0  0  0  0  0  0  0  0  0  0
   38.9350   25.7517   40.4371 H   0  0  0  0  0  0  0  0  0  0  0  0
   34.4846   29.3326   41.2871 H   0  0  0  0  0  0  0  0  0  0  0  0
   34.3977   30.2266   39.7315 H   0  0  0  0  0  0  0  0  0  0  0  0
   34.5794   28.4395   39.7315 H   0  0  0  0  0  0  0  0  0  0  0  0
   37.9314   29.5129   38.7182 H   0  0  0  0  0  0  0  0  0  0  0  0
   36.4314   28.6285   38.2774 H   0  0  0  0  0  0  0  0  0  0  0  0
   36.4478   30.4247   38.2774 H   0  0  0  0  0  0  0  0  0  0  0  0
  1  5  2  0
  2  3  2  0
  2  1  1  0
  3  4  1  0
  4  5  1  0
  4 14  1  0
  6  3  1  0
  6  7  1  0
  8  6  1  0
  8  7  1  0
  9  8  1  0
  9 10  1  0
 10 11  2  0
 11 13  1  0
 12 10  1  0
 14 17  1  0
 14 15  1  0
 16 14  1  0
 18  1  1  0
 19 18  1  0
 19 22  1  0
 21 20  2  0
 22 21  1  0
 23 22  2  0
 23 24  1  0
 24 25  2  0
 25 20  1  0
 26 19  1  0
 27 19  1  0
  2 28  1  0
  6 29  1  6
  7 30  1  0
  7 31  1  0
  8 32  1  6
  9 33  1  0
 12 34  1  0
 12 35  1  0
 18 36  1  0
 18 37  1  0
 20 38  1  0
 21 39  1  0
 24 40  1  0
 26 41  1  0
 26 42  1  0
 26 43  1  0
 27 44  1  0
 27 45  1  0
 27 46  1  0
M  ISO  8  28  14  29  13  30  13  31  13  32  13  36   8  37   8  38  14
M  ISO  8  39  14  40  14  41   8  42   8  43   8  44   8  45   8  46   8
M  END
>  <minimizedAffinity>  (1) 
-5.42106295

>  <minimizedRMSD>  (1) 
2.06780648

$$$$
