
     RDKit          3D

 46 49  0  0  1  0  0  0  0  0999 V2000
   36.6870   30.7900   40.8690 C   0  0  0  0  0  0  0  0  0  0  0  0
   38.1350   31.0900   40.9780 C   0  0  0  0  0  0  0  0  0  0  0  0
   38.9060   31.9700   40.2330 C   0  0  0  0  0  0  0  0  0  0  0  0
   40.2260   31.9470   40.6510 C   0  0  0  0  0  0  0  0  0  0  0  0
   40.2330   31.0510   41.6440 N   0  0  0  0  0  0  0  0  0  0  0  0
   39.0280   30.5550   41.8350 N   0  0  0  0  0  0  0  0  0  0  0  0
   41.3310   32.7540   40.1000 C   0  0  2  0  0  0  0  0  0  0  0  0
   41.9880   33.7920   41.0550 C   0  0  0  0  0  0  0  0  0  0  0  0
   41.2650   34.1740   39.8080 C   0  0  2  0  0  0  0  0  0  0  0  0
   40.0850   35.0580   40.0420 C   0  0  0  0  0  0  0  0  0  0  0  0
   39.9910   36.0560   41.1140 C   0  0  0  0  0  0  0  0  0  0  0  0
   40.3780   36.5410   39.7260 C   0  0  0  0  0  0  0  0  0  0  0  0
   41.3940   30.6790   42.4140 C   0  0  0  0  0  0  0  0  0  0  0  0
   41.7540   31.5750   43.3770 F   0  0  0  0  0  0  0  0  0  0  0  0
   42.5040   30.4890   41.6140 F   0  0  0  0  0  0  0  0  0  0  0  0
   41.1850   29.4540   43.0580 F   0  0  0  0  0  0  0  0  0  0  0  0
   36.3830   29.4860   40.2710 C   0  0  0  0  0  0  0  0  0  0  0  0
   36.9120   26.8420   42.9020 C   0  0  0  0  0  0  0  0  0  0  0  0
   36.4850   27.9800   42.2180 C   0  0  0  0  0  0  0  0  0  0  0  0
   36.8470   28.2960   40.9460 C   0  0  0  0  0  0  0  0  0  0  0  0
   37.6740   27.4170   40.3560 N   0  0  0  0  0  0  0  0  0  0  0  0
   38.1160   26.3020   40.9710 C   0  0  0  0  0  0  0  0  0  0  0  0
   37.7510   26.0150   42.2070 N   0  0  0  0  0  0  0  0  0  0  0  0
   34.8410   29.3290   40.2080 C   0  0  0  0  0  0  0  0  0  0  0  0
   36.8620   29.4920   38.8040 C   0  0  0  0  0  0  0  0  0  0  0  0
   36.2533   30.8148   41.8796 H   0  0  0  0  0  0  0  0  0  0  0  0
   36.2578   31.5504   40.2000 H   0  0  0  0  0  0  0  0  0  0  0  0
   38.5205   32.6016   39.4191 H   0  0  0  0  0  0  0  0  0  0  0  0
   41.6233   31.8916   39.4829 H   0  0  0  0  0  0  0  0  0  0  0  0
   41.5483   33.9999   42.0416 H   0  0  0  0  0  0  0  0  0  0  0  0
   42.9889   33.9619   41.4786 H   0  0  0  0  0  0  0  0  0  0  0  0
   41.4722   34.6859   38.8566 H   0  0  0  0  0  0  0  0  0  0  0  0
   39.3853   34.2574   39.7601 H   0  0  0  0  0  0  0  0  0  0  0  0
   39.0061   36.3193   41.5270 H   0  0  0  0  0  0  0  0  0  0  0  0
   40.4448   36.1517   42.1115 H   0  0  0  0  0  0  0  0  0  0  0  0
   41.4055   36.8743   39.5182 H   0  0  0  0  0  0  0  0  0  0  0  0
   40.0022   37.2900   39.0135 H   0  0  0  0  0  0  0  0  0  0  0  0
   36.5949   26.6239   43.9325 H   0  0  0  0  0  0  0  0  0  0  0  0
   35.8085   28.6697   42.7440 H   0  0  0  0  0  0  0  0  0  0  0  0
   38.7919   25.6200   40.4343 H   0  0  0  0  0  0  0  0  0  0  0  0
   34.4346   29.2876   41.2293 H   0  0  0  0  0  0  0  0  0  0  0  0
   34.4065   30.1875   39.6750 H   0  0  0  0  0  0  0  0  0  0  0  0
   34.5884   28.4005   39.6750 H   0  0  0  0  0  0  0  0  0  0  0  0
   37.9616   29.5058   38.7774 H   0  0  0  0  0  0  0  0  0  0  0  0
   36.4942   28.5892   38.2945 H   0  0  0  0  0  0  0  0  0  0  0  0
   36.4717   30.3853   38.2945 H   0  0  0  0  0  0  0  0  0  0  0  0
  1  2  1  0
  2  6  2  0
  3  4  2  0
  3  2  1  0
  4  5  1  0
  5  6  1  0
  5 13  1  0
  7  4  1  0
  7  8  1  0
  9 10  1  0
  9  7  1  0
  9  8  1  0
 10 11  1  0
 12 10  1  0
 12 11  1  0
 13 16  1  0
 13 14  1  0
 15 13  1  0
 17  1  1  0
 17 20  1  0
 19 18  2  0
 20 19  1  0
 21 20  2  0
 21 22  1  0
 22 23  2  0
 23 18  1  0
 24 17  1  0
 25 17  1  0
  1 26  1  0
  1 27  1  0
  3 28  1  0
  7 29  1  6
  8 30  1  0
  8 31  1  0
  9 32  1  6
 10 33  1  0
 11 34  1  0
 11 35  1  0
 12 36  1  0
 12 37  1  0
 18 38  1  0
 19 39  1  0
 22 40  1  0
 24 41  1  0
 24 42  1  0
 24 43  1  0
 25 44  1  0
 25 45  1  0
 25 46  1  0
M  ISO  8  26   8  27   8  28  14  29  13  30  13  31  13  32  13  33  13
M  ISO  8  34  13  35  13  36  13  37  13  38  14  39  14  40  14  41   8
M  ISO  5  42   8  43   8  44   8  45   8  46   8
M  END
>  <minimizedAffinity>  (1) 
-5.21991014

>  <minimizedRMSD>  (1) 
1.80702233

$$$$
