
     RDKit          3D

 46 49  0  0  1  0  0  0  0  0999 V2000
   37.0070   29.8050   39.0840 C   0  0  0  0  0  0  0  0  0  0  0  0
   37.4210   31.0620   39.5270 C   0  0  0  0  0  0  0  0  0  0  0  0
   38.7610   31.2680   39.2580 C   0  0  0  0  0  0  0  0  0  0  0  0
   39.1410   30.1340   38.6590 N   0  0  0  0  0  0  0  0  0  0  0  0
   38.1330   29.2860   38.5570 N   0  0  0  0  0  0  0  0  0  0  0  0
   39.5650   32.4710   39.5770 C   0  0  2  0  0  0  0  0  0  0  0  0
   40.3670   32.4300   40.9040 C   0  0  0  0  0  0  0  0  0  0  0  0
   39.2610   33.3990   40.6490 C   0  0  1  0  0  0  0  0  0  0  0  0
   39.5920   34.7940   40.3550 N   0  0  0  0  0  0  0  0  0  0  0  0
   38.7800   35.7860   40.1200 N   0  0  0  0  0  0  0  0  0  0  0  0
   39.4820   36.9260   39.8890 C   0  0  0  0  0  0  0  0  0  0  0  0
   40.8060   36.5610   40.0040 C   0  0  0  0  0  0  0  0  0  0  0  0
   40.8920   35.2000   40.3010 C   0  0  0  0  0  0  0  0  0  0  0  0
   40.4800   29.8480   38.1900 C   0  0  0  0  0  0  0  0  0  0  0  0
   41.4150   29.7660   39.1810 F   0  0  0  0  0  0  0  0  0  0  0  0
   40.9260   30.8000   37.2960 F   0  0  0  0  0  0  0  0  0  0  0  0
   40.5130   28.6490   37.4830 F   0  0  0  0  0  0  0  0  0  0  0  0
   35.6680   29.1720   39.1560 C   0  0  0  0  0  0  0  0  0  0  0  0
   35.1950   28.6190   37.8810 C   0  0  0  0  0  0  0  0  0  0  0  0
   36.2040   25.0110   38.2740 C   0  0  0  0  0  0  0  0  0  0  0  0
   35.9190   26.3530   38.5240 C   0  0  0  0  0  0  0  0  0  0  0  0
   35.4810   27.2340   37.5860 C   0  0  0  0  0  0  0  0  0  0  0  0
   35.3270   26.7360   36.3400 N   0  0  0  0  0  0  0  0  0  0  0  0
   35.5920   25.4400   36.0510 C   0  0  0  0  0  0  0  0  0  0  0  0
   36.0180   24.5950   36.9860 N   0  0  0  0  0  0  0  0  0  0  0  0
   33.6490   28.7170   37.8530 C   0  0  0  0  0  0  0  0  0  0  0  0
   35.6990   29.5210   36.7320 C   0  0  0  0  0  0  0  0  0  0  0  0
   36.7668   31.7928   40.0249 H   0  0  0  0  0  0  0  0  0  0  0  0
   39.7481   32.6254   38.5034 H   0  0  0  0  0  0  0  0  0  0  0  0
   40.2304   31.6007   41.6137 H   0  0  0  0  0  0  0  0  0  0  0  0
   41.4258   32.4899   41.1960 H   0  0  0  0  0  0  0  0  0  0  0  0
   38.3655   33.6547   41.2344 H   0  0  0  0  0  0  0  0  0  0  0  0
   39.0806   37.9242   39.6598 H   0  0  0  0  0  0  0  0  0  0  0  0
   41.6637   37.2386   39.8806 H   0  0  0  0  0  0  0  0  0  0  0  0
   41.7980   34.5957   40.4555 H   0  0  0  0  0  0  0  0  0  0  0  0
   35.7116   28.3552   39.8914 H   0  0  0  0  0  0  0  0  0  0  0  0
   34.9588   29.9635   39.4400 H   0  0  0  0  0  0  0  0  0  0  0  0
   36.5561   24.3307   39.0635 H   0  0  0  0  0  0  0  0  0  0  0  0
   36.0581   26.7239   39.5502 H   0  0  0  0  0  0  0  0  0  0  0  0
   35.4521   25.0783   35.0216 H   0  0  0  0  0  0  0  0  0  0  0  0
   33.2644   28.7414   38.8833 H   0  0  0  0  0  0  0  0  0  0  0  0
   33.3493   29.6359   37.3279 H   0  0  0  0  0  0  0  0  0  0  0  0
   33.2357   27.8433   37.3279 H   0  0  0  0  0  0  0  0  0  0  0  0
   36.1947   30.4082   37.1528 H   0  0  0  0  0  0  0  0  0  0  0  0
   36.4146   28.9603   36.1126 H   0  0  0  0  0  0  0  0  0  0  0  0
   34.8465   29.8365   36.1126 H   0  0  0  0  0  0  0  0  0  0  0  0
  1 18  1  0
  1  2  1  0
  3  2  2  0
  3  6  1  0
  4  3  1  0
  5  4  1  0
  5  1  2  0
  6  8  1  0
  6  7  1  0
  8  7  1  0
  9  8  1  0
 10  9  1  0
 11 12  1  0
 11 10  2  0
 12 13  2  0
 13  9  1  0
 14  4  1  0
 14 15  1  0
 16 14  1  0
 17 14  1  0
 19 18  1  0
 20 21  2  0
 22 19  1  0
 22 21  1  0
 23 22  2  0
 24 23  1  0
 24 25  2  0
 25 20  1  0
 26 19  1  0
 27 19  1  0
  2 28  1  0
  6 29  1  6
  7 30  1  0
  7 31  1  0
  8 32  1  1
 11 33  1  0
 12 34  1  0
 13 35  1  0
 18 36  1  0
 18 37  1  0
 20 38  1  0
 21 39  1  0
 24 40  1  0
 26 41  1  0
 26 42  1  0
 26 43  1  0
 27 44  1  0
 27 45  1  0
 27 46  1  0
M  ISO  8  28  14  29  13  30  13  31  13  32  13  33  14  34  14  35  14
M  ISO  8  36   8  37   8  38  14  39  14  40  14  41   8  42   8  43   8
M  ISO  3  44   8  45   8  46   8
M  END
>  <minimizedAffinity>  (1) 
-4.83398056

>  <minimizedRMSD>  (1) 
3.30402708

$$$$
