
     RDKit          3D

 11 11  0  0  0  0  0  0  0  0999 V2000
   38.2670   29.3690   42.7910 C   0  0  0  0  0  0  0  0  0  0  0  0
   37.7370   28.0920   43.0380 C   0  0  0  0  0  0  0  0  0  0  0  0
   36.6000   27.6920   42.3340 C   0  0  0  0  0  0  0  0  0  0  0  0
   36.0570   28.5590   41.4420 N   0  0  0  0  0  0  0  0  0  0  0  0
   36.5860   29.7780   41.2270 C   0  0  0  0  0  0  0  0  0  0  0  0
   37.6910   30.1890   41.8980 N   0  0  0  0  0  0  0  0  0  0  0  0
   38.4200   27.3460   43.9790 O   0  0  0  0  0  0  0  0  0  0  0  0
   39.1636   29.7006   43.3351 H   0  0  0  0  0  0  0  0  0  0  0  0
   36.1553   26.6993   42.4980 H   0  0  0  0  0  0  0  0  0  0  0  0
   36.1149   30.4514   40.4958 H   0  0  0  0  0  0  0  0  0  0  0  0
   38.1089   26.4348   44.2091 H   0  0  0  0  0  0  0  0  0  0  0  0
  1  2  2  0
  2  7  1  0
  3  2  1  0
  4  3  2  0
  5  4  1  0
  5  6  2  0
  6  1  1  0
  1  8  1  0
  3  9  1  0
  5 10  1  0
  7 11  1  0
M  ISO  4   8  14   9  14  10  14  11   3
M  END
>  <minimizedAffinity>  (1) 
-2.36569667

>  <minimizedRMSD>  (1) 
0.646711648

$$$$
