
     RDKit          3D

 53 56  0  0  1  0  0  0  0  0999 V2000
   36.2620   30.7030   40.9900 C   0  0  0  0  0  0  0  0  0  0  0  0
   37.4850   31.4190   40.5650 C   0  0  0  0  0  0  0  0  0  0  0  0
   37.7070   32.7820   40.4280 C   0  0  0  0  0  0  0  0  0  0  0  0
   38.9890   33.0540   39.9890 C   0  0  0  0  0  0  0  0  0  0  0  0
   39.5340   31.8470   39.8670 N   0  0  0  0  0  0  0  0  0  0  0  0
   38.6750   30.9100   40.1960 N   0  0  0  0  0  0  0  0  0  0  0  0
   39.5940   34.3870   39.7260 C   0  0  2  0  0  0  0  0  0  0  0  0
   40.6360   34.8620   40.7990 C   0  0  0  0  0  0  0  0  0  0  0  0
   39.3430   35.5710   40.4970 C   0  0  1  0  0  0  0  0  0  0  0  0
   39.3560   36.7730   39.7820 O   0  0  0  0  0  0  0  0  0  0  0  0
   40.8900   31.5940   39.4430 C   0  0  0  0  0  0  0  0  0  0  0  0
   41.8410   31.9120   40.3840 F   0  0  0  0  0  0  0  0  0  0  0  0
   41.2210   32.2880   38.3110 F   0  0  0  0  0  0  0  0  0  0  0  0
   41.0720   30.2500   39.1300 F   0  0  0  0  0  0  0  0  0  0  0  0
   36.0600   29.4070   40.2980 C   0  0  1  0  0  0  0  0  0  0  0  0
   37.0030   26.9840   43.0550 C   0  0  0  0  0  0  0  0  0  0  0  0
   36.6220   28.1390   42.3650 C   0  0  0  0  0  0  0  0  0  0  0  0
   36.4660   28.2020   41.0170 C   0  0  0  0  0  0  0  0  0  0  0  0
   36.7090   27.0520   40.3720 N   0  0  0  0  0  0  0  0  0  0  0  0
   37.0770   25.9190   40.9860 C   0  0  0  0  0  0  0  0  0  0  0  0
   37.2220   25.8840   42.3110 N   0  0  0  0  0  0  0  0  0  0  0  0
   34.5470   29.2410   40.1170 C   0  0  0  0  0  0  0  0  0  0  0  0
   36.7360   29.4430   38.9410 C   0  0  0  0  0  0  0  0  0  0  0  0
   35.9280   29.6670   37.7390 C   0  0  0  0  0  0  0  0  0  0  0  0
   36.9340   30.2160   36.6820 C   0  0  0  0  0  0  0  0  0  0  0  0
   37.8210   29.0080   36.4860 C   0  0  0  0  0  0  0  0  0  0  0  0
   36.9120   27.7920   36.6670 C   0  0  0  0  0  0  0  0  0  0  0  0
   35.5610   28.3990   36.9560 C   0  0  0  0  0  0  0  0  0  0  0  0
   36.3289   30.5127   42.0714 H   0  0  0  0  0  0  0  0  0  0  0  0
   35.4069   31.3438   40.7291 H   0  0  0  0  0  0  0  0  0  0  0  0
   36.9530   33.5535   40.6430 H   0  0  0  0  0  0  0  0  0  0  0  0
   39.5302   34.2076   38.6426 H   0  0  0  0  0  0  0  0  0  0  0  0
   40.7660   34.3073   41.7399 H   0  0  0  0  0  0  0  0  0  0  0  0
   41.7056   35.1178   40.8211 H   0  0  0  0  0  0  0  0  0  0  0  0
   38.5311   35.9108   41.1568 H   0  0  0  0  0  0  0  0  0  0  0  0
   39.3642   37.5337   40.4155 H   0  0  0  0  0  0  0  0  0  0  0  0
   37.1178   26.9749   44.1490 H   0  0  0  0  0  0  0  0  0  0  0  0
   36.4373   29.0524   42.9495 H   0  0  0  0  0  0  0  0  0  0  0  0
   37.2608   25.0113   40.3925 H   0  0  0  0  0  0  0  0  0  0  0  0
   34.0633   29.1879   41.1035 H   0  0  0  0  0  0  0  0  0  0  0  0
   34.1480   30.1008   39.5588 H   0  0  0  0  0  0  0  0  0  0  0  0
   34.3439   28.3152   39.5588 H   0  0  0  0  0  0  0  0  0  0  0  0
   37.4851   30.2477   38.9777 H   0  0  0  0  0  0  0  0  0  0  0  0
   37.1126   28.4175   38.8122 H   0  0  0  0  0  0  0  0  0  0  0  0
   35.0519   30.2406   38.0757 H   0  0  0  0  0  0  0  0  0  0  0  0
   36.4261   30.5016   35.7490 H   0  0  0  0  0  0  0  0  0  0  0  0
   37.4662   31.1285   36.9888 H   0  0  0  0  0  0  0  0  0  0  0  0
   38.6271   28.9988   37.2344 H   0  0  0  0  0  0  0  0  0  0  0  0
   38.2995   29.0127   35.4956 H   0  0  0  0  0  0  0  0  0  0  0  0
   36.8817   27.1844   35.7505 H   0  0  0  0  0  0  0  0  0  0  0  0
   37.2561   27.1158   37.4635 H   0  0  0  0  0  0  0  0  0  0  0  0
   35.0289   28.6463   36.0256 H   0  0  0  0  0  0  0  0  0  0  0  0
   34.8853   27.7254   37.5035 H   0  0  0  0  0  0  0  0  0  0  0  0
  2  1  1  0
  3  2  1  0
  4  3  2  0
  5  4  1  0
  5  6  1  0
  6  2  2  0
  7  4  1  0
  7  9  1  0
  7  8  1  0
  9  8  1  0
 10  9  1  0
 11  5  1  0
 11 12  1  0
 13 11  1  0
 14 11  1  0
 15 23  1  6
 15  1  1  0
 15 18  1  0
 17 16  2  0
 18 17  1  0
 19 20  1  0
 19 18  2  0
 20 21  2  0
 21 16  1  0
 22 15  1  0
 24 23  1  0
 25 24  1  0
 26 27  1  0
 26 25  1  0
 27 28  1  0
 28 24  1  0
  1 29  1  0
  1 30  1  0
  3 31  1  0
  7 32  1  6
  8 33  1  0
  8 34  1  0
  9 35  1  1
 10 36  1  0
 16 37  1  0
 17 38  1  0
 20 39  1  0
 22 40  1  0
 22 41  1  0
 22 42  1  0
 23 43  1  0
 23 44  1  0
 24 45  1  0
 25 46  1  0
 25 47  1  0
 26 48  1  0
 26 49  1  0
 27 50  1  0
 27 51  1  0
 28 52  1  0
 28 53  1  0
M  ISO  8  29   8  30   8  31  14  32  13  33  13  34  13  35  13  36   3
M  ISO  8  37  14  38  14  39  14  40   8  41   8  42   8  43   8  44   8
M  ISO  8  45  13  46  13  47  13  48  13  49  13  50  13  51  13  52  13
M  ISO  1  53  13
M  END
>  <minimizedAffinity>  (1) 
-5.61119032

>  <minimizedRMSD>  (1) 
0.984861434

$$$$
