
     RDKit          3D

 41 43  0  0  1  0  0  0  0  0999 V2000
   36.0910   30.6210   40.9070 C   0  0  0  0  0  0  0  0  0  0  0  0
   37.3560   31.3640   40.6840 C   0  0  0  0  0  0  0  0  0  0  0  0
   37.5420   32.7030   40.3340 C   0  0  0  0  0  0  0  0  0  0  0  0
   38.8840   32.9970   40.2110 C   0  0  0  0  0  0  0  0  0  0  0  0
   39.4900   31.8480   40.4840 N   0  0  0  0  0  0  0  0  0  0  0  0
   38.6090   30.9060   40.7570 N   0  0  0  0  0  0  0  0  0  0  0  0
   39.4990   34.3120   39.8590 C   0  0  2  0  0  0  0  0  0  0  0  0
   40.2680   35.0160   41.0310 C   0  0  0  0  0  0  0  0  0  0  0  0
   39.0410   35.5760   40.3650 C   0  0  1  0  0  0  0  0  0  0  0  0
   39.1720   36.6590   39.4920 O   0  0  0  0  0  0  0  0  0  0  0  0
   40.9150   31.6390   40.4930 C   0  0  0  0  0  0  0  0  0  0  0  0
   41.5610   32.2240   41.5550 F   0  0  0  0  0  0  0  0  0  0  0  0
   41.5190   32.1200   39.3620 F   0  0  0  0  0  0  0  0  0  0  0  0
   41.2280   30.2820   40.5180 F   0  0  0  0  0  0  0  0  0  0  0  0
   36.0090   29.3490   40.1790 C   0  0  1  0  0  0  0  0  0  0  0  0
   36.9620   26.9220   42.8870 C   0  0  0  0  0  0  0  0  0  0  0  0
   36.5700   28.0760   42.1950 C   0  0  0  0  0  0  0  0  0  0  0  0
   36.4140   28.1450   40.8560 C   0  0  0  0  0  0  0  0  0  0  0  0
   36.6670   26.9960   40.1950 N   0  0  0  0  0  0  0  0  0  0  0  0
   37.0450   25.8610   40.7990 C   0  0  0  0  0  0  0  0  0  0  0  0
   37.1940   25.8120   42.1250 N   0  0  0  0  0  0  0  0  0  0  0  0
   34.5340   29.1080   39.7900 C   0  0  0  0  0  0  0  0  0  0  0  0
   36.7670   29.4860   38.8390 C   0  0  0  0  0  0  0  0  0  0  0  0
   35.5800   29.2850   37.4610 S   0  0  0  0  0  0  0  0  0  0  0  0
   35.9987   30.4104   41.9827 H   0  0  0  0  0  0  0  0  0  0  0  0
   35.2774   31.2572   40.5284 H   0  0  0  0  0  0  0  0  0  0  0  0
   36.7279   33.4260   40.1775 H   0  0  0  0  0  0  0  0  0  0  0  0
   39.6840   33.9668   38.8311 H   0  0  0  0  0  0  0  0  0  0  0  0
   40.2185   34.6168   42.0548 H   0  0  0  0  0  0  0  0  0  0  0  0
   41.2971   35.3507   41.2284 H   0  0  0  0  0  0  0  0  0  0  0  0
   38.0908   35.9451   40.7784 H   0  0  0  0  0  0  0  0  0  0  0  0
   39.2730   37.4938   40.0146 H   0  0  0  0  0  0  0  0  0  0  0  0
   37.0763   26.9106   43.9810 H   0  0  0  0  0  0  0  0  0  0  0  0
   36.3766   28.9859   42.7820 H   0  0  0  0  0  0  0  0  0  0  0  0
   37.2345   24.9606   40.1962 H   0  0  0  0  0  0  0  0  0  0  0  0
   33.9260   29.0087   40.7013 H   0  0  0  0  0  0  0  0  0  0  0  0
   34.1679   29.9582   39.1958 H   0  0  0  0  0  0  0  0  0  0  0  0
   34.4575   28.1855   39.1958 H   0  0  0  0  0  0  0  0  0  0  0  0
   37.2358   30.4794   38.7802 H   0  0  0  0  0  0  0  0  0  0  0  0
   37.5480   28.7142   38.7728 H   0  0  0  0  0  0  0  0  0  0  0  0
   34.3247   29.0724   37.9669 H   0  0  0  0  0  0  0  0  0  0  0  0
  2  6  2  0
  2  1  1  0
  3  2  1  0
  4  3  2  0
  4  5  1  0
  5 11  1  0
  5  6  1  0
  7  4  1  0
  7  9  1  0
  7  8  1  0
  9  8  1  0
 10  9  1  0
 11 14  1  0
 11 12  1  0
 13 11  1  0
 15 23  1  6
 15 18  1  0
 15  1  1  0
 17 16  2  0
 18 17  1  0
 19 20  1  0
 19 18  2  0
 20 21  2  0
 21 16  1  0
 22 15  1  0
 24 23  1  0
  1 25  1  0
  1 26  1  0
  3 27  1  0
  7 28  1  6
  8 29  1  0
  8 30  1  0
  9 31  1  1
 10 32  1  0
 16 33  1  0
 17 34  1  0
 20 35  1  0
 22 36  1  0
 22 37  1  0
 22 38  1  0
 23 39  1  0
 23 40  1  0
 24 41  1  0
M  ISO  8  25   8  26   8  27  14  28  13  29  13  30  13  31  13  32   3
M  ISO  8  33  14  34  14  35  14  36   8  37   8  38   8  39   8  40   8
M  ISO  1  41  11
M  END
>  <minimizedAffinity>  (1) 
-5.01866388

>  <minimizedRMSD>  (1) 
0.359861284

$$$$
