
     RDKit          3D

 36 38  0  0  1  0  0  0  0  0999 V2000
   39.4680   31.0600   42.4890 C   0  0  0  0  0  0  0  0  0  0  0  0
   38.8290   29.8240   42.6090 C   0  0  0  0  0  0  0  0  0  0  0  0
   37.8490   29.4910   41.6480 C   0  0  0  0  0  0  0  0  0  0  0  0
   37.5800   30.3720   40.6710 N   0  0  0  0  0  0  0  0  0  0  0  0
   38.2250   31.5590   40.5950 C   0  0  0  0  0  0  0  0  0  0  0  0
   39.1640   31.9080   41.4940 N   0  0  0  0  0  0  0  0  0  0  0  0
   37.1350   28.2520   41.6770 N   0  0  0  0  0  0  0  0  0  0  0  0
   36.8820   27.5890   42.9700 C   0  0  0  0  0  0  0  0  0  0  0  0
   37.0030   26.0890   42.6960 C   0  0  0  0  0  0  0  0  0  0  0  0
   38.0390   25.8520   41.6420 C   0  0  0  0  0  0  0  0  0  0  0  0
   37.5730   26.3680   40.3100 C   0  0  0  0  0  0  0  0  0  0  0  0
   36.6430   27.5760   40.5670 C   0  0  2  0  0  0  0  0  0  0  0  0
   36.1570   28.2160   39.3690 C   0  0  0  0  0  0  0  0  0  0  0  0
   34.8860   28.7370   39.2890 C   0  0  0  0  0  0  0  0  0  0  0  0
   34.5760   29.2620   38.0260 C   0  0  0  0  0  0  0  0  0  0  0  0
   35.4070   29.2710   36.9910 N   0  0  0  0  0  0  0  0  0  0  0  0
   36.6400   28.7480   37.1290 C   0  0  0  0  0  0  0  0  0  0  0  0
   37.0330   28.2130   38.3210 N   0  0  0  0  0  0  0  0  0  0  0  0
   37.7680   32.3700   39.4300 C   0  0  0  0  0  0  0  0  0  0  0  0
   38.8010   32.6020   38.5460 F   0  0  0  0  0  0  0  0  0  0  0  0
   37.2130   33.5510   39.8600 F   0  0  0  0  0  0  0  0  0  0  0  0
   36.7490   31.7030   38.7780 F   0  0  0  0  0  0  0  0  0  0  0  0
   40.2353   31.3441   43.2242 H   0  0  0  0  0  0  0  0  0  0  0  0
   39.0809   29.1318   43.4260 H   0  0  0  0  0  0  0  0  0  0  0  0
   37.6273   27.9042   43.7151 H   0  0  0  0  0  0  0  0  0  0  0  0
   35.8924   27.8497   43.3735 H   0  0  0  0  0  0  0  0  0  0  0  0
   37.2966   25.5707   43.6207 H   0  0  0  0  0  0  0  0  0  0  0  0
   36.0337   25.7023   42.3483 H   0  0  0  0  0  0  0  0  0  0  0  0
   38.9667   26.3708   41.9252 H   0  0  0  0  0  0  0  0  0  0  0  0
   38.2157   24.7695   41.5585 H   0  0  0  0  0  0  0  0  0  0  0  0
   37.0226   25.5797   39.7756 H   0  0  0  0  0  0  0  0  0  0  0  0
   38.4328   26.6707   39.6943 H   0  0  0  0  0  0  0  0  0  0  0  0
   35.6217   27.3305   40.8937 H   0  0  0  0  0  0  0  0  0  0  0  0
   34.1814   28.7413   40.1337 H   0  0  0  0  0  0  0  0  0  0  0  0
   33.5754   29.6962   37.8833 H   0  0  0  0  0  0  0  0  0  0  0  0
   37.3344   28.7521   36.2759 H   0  0  0  0  0  0  0  0  0  0  0  0
  1  2  2  0
  3  7  1  0
  3  2  1  0
  4  3  2  0
  5  4  1  0
  5  6  2  0
  6  1  1  0
  7  8  1  0
  9  8  1  0
 10  9  1  0
 11 12  1  0
 11 10  1  0
 12  7  1  0
 13 12  1  0
 14 13  2  0
 15 14  1  0
 16 17  1  0
 16 15  2  0
 17 18  2  0
 18 13  1  0
 19 21  1  0
 19  5  1  0
 20 19  1  0
 22 19  1  0
  1 23  1  0
  2 24  1  0
  8 25  1  0
  8 26  1  0
  9 27  1  0
  9 28  1  0
 10 29  1  0
 10 30  1  0
 11 31  1  0
 11 32  1  0
 12 33  1  1
 14 34  1  0
 15 35  1  0
 17 36  1  0
M  ISO  8  23  14  24  14  25  13  26  13  27  13  28  13  29  13  30  13
M  ISO  6  31  13  32  13  33  13  34  14  35  14  36  14
M  END
>  <minimizedAffinity>  (1) 
-5.44650221

>  <minimizedRMSD>  (1) 
0.937291324

$$$$
