
     RDKit          3D

 35 36  0  0  1  0  0  0  0  0999 V2000
   41.0560   31.3140   42.0640 C   0  0  0  0  0  0  0  0  0  0  0  0
   40.0850   30.4260   42.5610 C   0  0  0  0  0  0  0  0  0  0  0  0
   38.9900   30.1430   41.7510 C   0  0  0  0  0  0  0  0  0  0  0  0
   38.9100   30.7240   40.5420 N   0  0  0  0  0  0  0  0  0  0  0  0
   39.8590   31.5780   40.0860 C   0  0  0  0  0  0  0  0  0  0  0  0
   40.9290   31.8710   40.8440 N   0  0  0  0  0  0  0  0  0  0  0  0
   37.9580   29.2520   42.1790 N   0  0  0  0  0  0  0  0  0  0  0  0
   37.6100   29.1090   43.5910 C   0  0  0  0  0  0  0  0  0  0  0  0
   37.2510   27.6460   43.7940 C   0  0  0  0  0  0  0  0  0  0  0  0
   38.0960   26.7960   42.8900 C   0  0  0  0  0  0  0  0  0  0  0  0
   37.6060   27.0180   41.4670 C   0  0  0  0  0  0  0  0  0  0  0  0
   37.2130   28.4590   41.2740 C   0  0  1  0  0  0  0  0  0  0  0  0
   35.7900   28.6920   41.3030 N   0  0  0  0  0  0  0  0  0  0  0  0
   35.2060   29.4080   40.2210 C   0  0  0  0  0  0  0  0  0  0  0  0
   35.9950   30.1690   39.5140 N   0  0  0  0  0  0  0  0  0  0  0  0
   33.8120   29.2620   39.9690 N   0  0  0  0  0  0  0  0  0  0  0  0
   35.7130   30.7390   38.7090 H   0  0  0  0  0  0  0  0  0  0  0  0
   39.5450   32.0920   38.7170 C   0  0  0  0  0  0  0  0  0  0  0  0
   40.3880   33.1390   38.3920 F   0  0  0  0  0  0  0  0  0  0  0  0
   38.2470   32.4950   38.6630 F   0  0  0  0  0  0  0  0  0  0  0  0
   39.6980   31.0770   37.7820 F   0  0  0  0  0  0  0  0  0  0  0  0
   41.9332   31.5576   42.6814 H   0  0  0  0  0  0  0  0  0  0  0  0
   40.1880   29.9705   43.5569 H   0  0  0  0  0  0  0  0  0  0  0  0
   38.4667   29.3827   44.2244 H   0  0  0  0  0  0  0  0  0  0  0  0
   36.7738   29.7685   43.8662 H   0  0  0  0  0  0  0  0  0  0  0  0
   37.4358   27.3645   44.8412 H   0  0  0  0  0  0  0  0  0  0  0  0
   36.1881   27.4917   43.5563 H   0  0  0  0  0  0  0  0  0  0  0  0
   39.1520   27.0921   42.9744 H   0  0  0  0  0  0  0  0  0  0  0  0
   38.0148   25.7346   43.1674 H   0  0  0  0  0  0  0  0  0  0  0  0
   38.4102   26.7625   40.7613 H   0  0  0  0  0  0  0  0  0  0  0  0
   36.7301   26.3782   41.2838 H   0  0  0  0  0  0  0  0  0  0  0  0
   37.4722   28.7645   40.2496 H   0  0  0  0  0  0  0  0  0  0  0  0
   35.2130   28.3499   42.0846 H   0  0  0  0  0  0  0  0  0  0  0  0
   33.3732   29.7731   39.1898 H   0  0  0  0  0  0  0  0  0  0  0  0
   33.2426   28.6453   40.5659 H   0  0  0  0  0  0  0  0  0  0  0  0
  1  2  2  0
  3  7  1  0
  3  2  1  0
  4  3  2  0
  5  4  1  0
  5  6  2  0
  6  1  1  0
  7  8  1  0
  8  9  1  0
 10  9  1  0
 11 10  1  0
 12 13  1  0
 12 11  1  0
 12  7  1  0
 14 13  1  0
 15 14  2  0
 16 14  1  0
 17 15  1  0
 18  5  1  0
 19 18  1  0
 20 18  1  0
 21 18  1  0
  1 22  1  0
  2 23  1  0
  8 24  1  0
  8 25  1  0
  9 26  1  0
  9 27  1  0
 10 28  1  0
 10 29  1  0
 11 30  1  0
 11 31  1  0
 12 32  1  6
 13 33  1  0
 16 34  1  0
 16 35  1  0
M  ISO  8  22  14  23  14  24  13  25  13  26  13  27  13  28  13  29  13
M  ISO  3  30  13  31  13  32  13
M  END
>  <minimizedAffinity>  (1) 
-5.30287838

>  <minimizedRMSD>  (1) 
2.87858915

$$$$
