
     RDKit          3D

 29 30  0  0  1  0  0  0  0  0999 V2000
   40.5060   31.1270   42.3450 C   0  0  0  0  0  0  0  0  0  0  0  0
   39.5460   30.1450   42.6060 C   0  0  0  0  0  0  0  0  0  0  0  0
   38.3510   30.1910   41.8940 C   0  0  0  0  0  0  0  0  0  0  0  0
   38.1670   31.1740   40.9830 N   0  0  0  0  0  0  0  0  0  0  0  0
   39.1300   32.1070   40.7630 C   0  0  0  0  0  0  0  0  0  0  0  0
   40.2940   32.0850   41.4400 N   0  0  0  0  0  0  0  0  0  0  0  0
   37.3170   29.2340   42.0920 N   0  0  0  0  0  0  0  0  0  0  0  0
   37.1100   28.5950   43.3860 C   0  0  0  0  0  0  0  0  0  0  0  0
   36.6760   27.1760   43.1050 C   0  0  0  0  0  0  0  0  0  0  0  0
   37.3700   26.6880   41.8490 C   0  0  0  0  0  0  0  0  0  0  0  0
   36.7580   27.4150   40.6680 C   0  0  0  0  0  0  0  0  0  0  0  0
   36.4130   28.8270   41.0600 C   0  0  1  0  0  0  0  0  0  0  0  0
   38.7240   33.1000   39.7200 C   0  0  0  0  0  0  0  0  0  0  0  0
   38.5320   32.4920   38.4950 F   0  0  0  0  0  0  0  0  0  0  0  0
   39.6450   34.1020   39.6250 F   0  0  0  0  0  0  0  0  0  0  0  0
   37.5220   33.7100   40.1170 F   0  0  0  0  0  0  0  0  0  0  0  0
   35.0750   28.9990   41.3600 O   0  0  0  0  0  0  0  0  0  0  0  0
   41.4570   31.1099   42.8975 H   0  0  0  0  0  0  0  0  0  0  0  0
   39.7298   29.3584   43.3527 H   0  0  0  0  0  0  0  0  0  0  0  0
   38.0458   28.5977   43.9642 H   0  0  0  0  0  0  0  0  0  0  0  0
   36.3516   29.1313   43.9752 H   0  0  0  0  0  0  0  0  0  0  0  0
   36.9512   26.5313   43.9527 H   0  0  0  0  0  0  0  0  0  0  0  0
   35.5855   27.1415   42.9647 H   0  0  0  0  0  0  0  0  0  0  0  0
   38.4462   26.9080   41.9068 H   0  0  0  0  0  0  0  0  0  0  0  0
   37.2433   25.6010   41.7382 H   0  0  0  0  0  0  0  0  0  0  0  0
   35.8446   26.8909   40.3503 H   0  0  0  0  0  0  0  0  0  0  0  0
   37.4816   27.4350   39.8398 H   0  0  0  0  0  0  0  0  0  0  0  0
   36.5492   29.4986   40.1995 H   0  0  0  0  0  0  0  0  0  0  0  0
   34.9565   29.0142   42.3428 H   0  0  0  0  0  0  0  0  0  0  0  0
  1  2  2  0
  3  7  1  0
  3  2  1  0
  4  3  2  0
  5  4  1  0
  5  6  2  0
  6  1  1  0
  7  8  1  0
  9  8  1  0
 10  9  1  0
 11 12  1  0
 11 10  1  0
 12 17  1  0
 12  7  1  0
 13 16  1  0
 13  5  1  0
 14 13  1  0
 15 13  1  0
  1 18  1  0
  2 19  1  0
  8 20  1  0
  8 21  1  0
  9 22  1  0
  9 23  1  0
 10 24  1  0
 10 25  1  0
 11 26  1  0
 11 27  1  0
 12 28  1  6
 17 29  1  0
M  ISO  8  18  14  19  14  20  13  21  13  22  13  23  13  24  13  25  13
M  ISO  4  26  13  27  13  28  13  29   3
M  END
>  <minimizedAffinity>  (1) 
-5.20603752

>  <minimizedRMSD>  (1) 
2.16488719

$$$$
