
     RDKit          3D

 41 43  0  0  1  0  0  0  0  0999 V2000
   38.1460   30.3960   41.3630 C   0  0  0  0  0  0  0  0  0  0  0  0
   38.0350   29.6100   40.2100 C   0  0  0  0  0  0  0  0  0  0  0  0
   37.6710   28.2730   40.3390 C   0  0  0  0  0  0  0  0  0  0  0  0
   37.4410   27.7990   41.5760 N   0  0  0  0  0  0  0  0  0  0  0  0
   37.5530   28.5710   42.6720 C   0  0  0  0  0  0  0  0  0  0  0  0
   37.9030   29.8620   42.5780 N   0  0  0  0  0  0  0  0  0  0  0  0
   37.5460   27.4260   39.2070 N   0  0  0  0  0  0  0  0  0  0  0  0
   38.3550   27.6180   38.0190 C   0  0  0  0  0  0  0  0  0  0  0  0
   37.4930   27.2090   36.8380 C   0  0  0  0  0  0  0  0  0  0  0  0
   36.0740   27.6360   37.1290 C   0  0  0  0  0  0  0  0  0  0  0  0
   35.5190   26.7160   38.1910 C   0  0  0  0  0  0  0  0  0  0  0  0
   36.6270   26.3360   39.1670 C   0  0  1  0  0  0  0  0  0  0  0  0
   37.1600   25.0690   38.8610 N   0  0  0  0  0  0  0  0  0  0  0  0
   38.0750   24.5190   39.8010 C   0  0  0  0  0  0  0  0  0  0  0  0
   38.5940   23.1570   39.3920 C   0  0  0  0  0  0  0  0  0  0  0  0
   37.6100   22.3140   38.9440 O   0  0  0  0  0  0  0  0  0  0  0  0
   36.3520   22.8340   39.2510 C   0  0  0  0  0  0  0  0  0  0  0  0
   36.0800   24.1520   38.5580 C   0  0  0  0  0  0  0  0  0  0  0  0
   37.2430   27.8100   43.9310 C   0  0  0  0  0  0  0  0  0  0  0  0
   36.8340   28.6760   44.9330 F   0  0  0  0  0  0  0  0  0  0  0  0
   38.3370   27.1100   44.3380 F   0  0  0  0  0  0  0  0  0  0  0  0
   36.2270   26.8980   43.6880 F   0  0  0  0  0  0  0  0  0  0  0  0
   38.4328   31.4545   41.2780 H   0  0  0  0  0  0  0  0  0  0  0  0
   38.2323   30.0422   39.2179 H   0  0  0  0  0  0  0  0  0  0  0  0
   38.6495   28.6738   37.9266 H   0  0  0  0  0  0  0  0  0  0  0  0
   39.2763   27.0188   38.0647 H   0  0  0  0  0  0  0  0  0  0  0  0
   37.5351   26.1179   36.7047 H   0  0  0  0  0  0  0  0  0  0  0  0
   37.8553   27.6865   35.9157 H   0  0  0  0  0  0  0  0  0  0  0  0
   36.0634   28.6744   37.4918 H   0  0  0  0  0  0  0  0  0  0  0  0
   35.4627   27.5792   36.2163 H   0  0  0  0  0  0  0  0  0  0  0  0
   34.7120   27.2290   38.7347 H   0  0  0  0  0  0  0  0  0  0  0  0
   35.1222   25.8066   37.7161 H   0  0  0  0  0  0  0  0  0  0  0  0
   36.2602   26.1951   40.1944 H   0  0  0  0  0  0  0  0  0  0  0  0
   38.9295   25.2044   39.9011 H   0  0  0  0  0  0  0  0  0  0  0  0
   37.5359   24.3944   40.7517 H   0  0  0  0  0  0  0  0  0  0  0  0
   39.3316   23.2917   38.5871 H   0  0  0  0  0  0  0  0  0  0  0  0
   39.0367   22.6948   40.2867 H   0  0  0  0  0  0  0  0  0  0  0  0
   35.5858   22.1084   38.9404 H   0  0  0  0  0  0  0  0  0  0  0  0
   36.3234   23.0165   40.3354 H   0  0  0  0  0  0  0  0  0  0  0  0
   35.1281   24.5697   38.9179 H   0  0  0  0  0  0  0  0  0  0  0  0
   36.0146   23.9968   37.4710 H   0  0  0  0  0  0  0  0  0  0  0  0
  1  6  2  0
  2  3  2  0
  2  1  1  0
  3  4  1  0
  4  5  2  0
  5 19  1  0
  6  5  1  0
  7  3  1  0
  8  7  1  0
  9 10  1  0
  9  8  1  0
 10 11  1  0
 11 12  1  0
 12  7  1  0
 13 12  1  0
 13 14  1  0
 15 14  1  0
 16 17  1  0
 16 15  1  0
 18 13  1  0
 18 17  1  0
 19 21  1  0
 19 20  1  0
 22 19  1  0
  1 23  1  0
  2 24  1  0
  8 25  1  0
  8 26  1  0
  9 27  1  0
  9 28  1  0
 10 29  1  0
 10 30  1  0
 11 31  1  0
 11 32  1  0
 12 33  1  1
 14 34  1  0
 14 35  1  0
 15 36  1  0
 15 37  1  0
 17 38  1  0
 17 39  1  0
 18 40  1  0
 18 41  1  0
M  ISO  8  23  14  24  14  25  13  26  13  27  13  28  13  29  13  30  13
M  ISO  8  31  13  32  13  33  13  34  13  35  13  36  13  37  13  38  13
M  ISO  3  39  13  40  13  41  13
M  END
>  <minimizedAffinity>  (1) 
-4.91070986

>  <minimizedRMSD>  (1) 
4.23166418

$$$$
