
     RDKit          3D

 24 26  0  0  0  0  0  0  0  0999 V2000
   37.7870   28.7830   43.5090 C   0  0  0  0  0  0  0  0  0  0  0  0
   37.9660   27.4100   43.2770 C   0  0  0  0  0  0  0  0  0  0  0  0
   37.6850   26.9210   42.0030 C   0  0  0  0  0  0  0  0  0  0  0  0
   37.2540   27.7970   41.0520 N   0  0  0  0  0  0  0  0  0  0  0  0
   37.0930   29.1110   41.3050 C   0  0  0  0  0  0  0  0  0  0  0  0
   37.3620   29.5890   42.5340 N   0  0  0  0  0  0  0  0  0  0  0  0
   37.7850   25.5990   41.5310 N   0  0  0  0  0  0  0  0  0  0  0  0
   37.1020   24.5810   42.0320 C   0  0  0  0  0  0  0  0  0  0  0  0
   37.4530   23.4690   41.3330 N   0  0  0  0  0  0  0  0  0  0  0  0
   38.3620   23.8150   40.3930 C   0  0  0  0  0  0  0  0  0  0  0  0
   39.0660   23.1430   39.4120 C   0  0  0  0  0  0  0  0  0  0  0  0
   38.8910   21.9030   39.2750 O   0  0  0  0  0  0  0  0  0  0  0  0
   39.9220   23.8500   38.6320 N   0  0  0  0  0  0  0  0  0  0  0  0
   40.1140   25.1740   38.7720 C   0  0  0  0  0  0  0  0  0  0  0  0
   41.0160   25.9030   37.9450 N   0  0  0  0  0  0  0  0  0  0  0  0
   39.4300   25.8320   39.7270 N   0  0  0  0  0  0  0  0  0  0  0  0
   38.5800   25.1800   40.5160 C   0  0  0  0  0  0  0  0  0  0  0  0
   37.9993   29.1988   44.5050 H   0  0  0  0  0  0  0  0  0  0  0  0
   38.3173   26.7410   44.0764 H   0  0  0  0  0  0  0  0  0  0  0  0
   36.7439   29.7886   40.5119 H   0  0  0  0  0  0  0  0  0  0  0  0
   36.3820   24.6268   42.8623 H   0  0  0  0  0  0  0  0  0  0  0  0
   40.4480   23.3509   37.9005 H   0  0  0  0  0  0  0  0  0  0  0  0
   41.1362   26.9167   38.0826 H   0  0  0  0  0  0  0  0  0  0  0  0
   41.5480   25.4165   37.2094 H   0  0  0  0  0  0  0  0  0  0  0  0
  2  1  2  0
  3  2  1  0
  4  5  1  0
  4  3  2  0
  5  6  2  0
  6  1  1  0
  7  3  1  0
  7  8  1  0
  9  8  2  0
 10 17  2  0
 10  9  1  0
 11 10  1  0
 12 11  2  0
 13 14  1  0
 13 11  1  0
 14 16  2  0
 15 14  1  0
 16 17  1  0
 17  7  1  0
  1 18  1  0
  2 19  1  0
  5 20  1  0
  8 21  1  0
 13 22  1  0
 15 23  1  0
 15 24  1  0
M  ISO  5  18  14  19  14  20  14  21  14  22   9
M  END
>  <minimizedAffinity>  (1) 
-4.01489925

>  <minimizedRMSD>  (1) 
3.65018845

$$$$
