
     RDKit          3D

 17 18  0  0  0  0  0  0  0  0999 V2000
   37.6000   29.0170   41.8730 C   0  0  0  0  0  0  0  0  0  0  0  0
   36.7280   28.1090   41.2540 C   0  0  0  0  0  0  0  0  0  0  0  0
   35.6680   28.6140   40.5040 C   0  0  0  0  0  0  0  0  0  0  0  0
   35.5290   29.9770   40.4080 N   0  0  0  0  0  0  0  0  0  0  0  0
   36.3990   30.8210   41.0260 C   0  0  0  0  0  0  0  0  0  0  0  0
   37.4340   30.3390   41.7580 N   0  0  0  0  0  0  0  0  0  0  0  0
   36.8890   26.6650   41.3650 C   0  0  0  0  0  0  0  0  0  0  0  0
   36.8710   25.8120   40.2550 C   0  0  0  0  0  0  0  0  0  0  0  0
   37.0550   24.5610   40.8100 C   0  0  0  0  0  0  0  0  0  0  0  0
   37.1750   24.6420   42.1510 N   0  0  0  0  0  0  0  0  0  0  0  0
   37.0720   25.9220   42.4730 N   0  0  0  0  0  0  0  0  0  0  0  0
   38.4414   28.6319   42.4679 H   0  0  0  0  0  0  0  0  0  0  0  0
   34.9604   27.9382   40.0015 H   0  0  0  0  0  0  0  0  0  0  0  0
   36.2612   31.9082   40.9307 H   0  0  0  0  0  0  0  0  0  0  0  0
   36.7414   26.0752   39.1949 H   0  0  0  0  0  0  0  0  0  0  0  0
   37.0980   23.6240   40.2354 H   0  0  0  0  0  0  0  0  0  0  0  0
   37.3194   23.8566   42.8015 H   0  0  0  0  0  0  0  0  0  0  0  0
  2  7  1  0
  2  1  2  0
  3  2  1  0
  4  3  2  0
  4  5  1  0
  5  6  2  0
  6  1  1  0
  7 11  2  0
  8  9  2  0
  8  7  1  0
  9 10  1  0
 10 11  1  0
  1 12  1  0
  3 13  1  0
  5 14  1  0
  8 15  1  0
  9 16  1  0
 10 17  1  0
M  ISO  6  12  14  13  14  14  14  15  14  16  14  17   9
M  END
>  <minimizedAffinity>  (1) 
-3.2764461

>  <minimizedRMSD>  (1) 
3.56615424

$$$$
