
     RDKit          3D

 29 32  0  0  0  0  0  0  0  0999 V2000
   37.6690   28.8030   43.5110 C   0  0  0  0  0  0  0  0  0  0  0  0
   37.8300   27.4330   43.2920 C   0  0  0  0  0  0  0  0  0  0  0  0
   37.6160   26.9510   42.0050 C   0  0  0  0  0  0  0  0  0  0  0  0
   37.2640   27.8240   41.0260 N   0  0  0  0  0  0  0  0  0  0  0  0
   37.1160   29.1430   41.2640 C   0  0  0  0  0  0  0  0  0  0  0  0
   37.3210   29.6190   42.5090 N   0  0  0  0  0  0  0  0  0  0  0  0
   37.7140   25.6240   41.5400 N   0  0  0  0  0  0  0  0  0  0  0  0
   36.9710   24.6250   42.0050 C   0  0  0  0  0  0  0  0  0  0  0  0
   37.3360   23.5000   41.3310 N   0  0  0  0  0  0  0  0  0  0  0  0
   38.3120   23.8210   40.4480 C   0  0  0  0  0  0  0  0  0  0  0  0
   39.0540   23.1260   39.5160 C   0  0  0  0  0  0  0  0  0  0  0  0
   38.8720   21.9010   39.3590 O   0  0  0  0  0  0  0  0  0  0  0  0
   39.9700   23.7970   38.7900 N   0  0  0  0  0  0  0  0  0  0  0  0
   40.1940   25.1270   38.9340 C   0  0  0  0  0  0  0  0  0  0  0  0
   41.1650   25.8340   38.1630 N   0  0  0  0  0  0  0  0  0  0  0  0
   39.4730   25.8050   39.8390 N   0  0  0  0  0  0  0  0  0  0  0  0
   38.5630   25.1760   40.5720 C   0  0  0  0  0  0  0  0  0  0  0  0
   40.7310   23.0610   37.8300 C   0  0  0  0  0  0  0  0  0  0  0  0
   41.4880   23.5120   36.8130 N   0  0  0  0  0  0  0  0  0  0  0  0
   42.0160   22.5040   36.1720 O   0  0  0  0  0  0  0  0  0  0  0  0
   41.6350   21.3660   36.7290 C   0  0  0  0  0  0  0  0  0  0  0  0
   40.8330   21.7090   37.7640 N   0  0  0  0  0  0  0  0  0  0  0  0
   37.8300   29.2157   44.5179 H   0  0  0  0  0  0  0  0  0  0  0  0
   38.1168   26.7570   44.1110 H   0  0  0  0  0  0  0  0  0  0  0  0
   36.8305   29.8250   40.4495 H   0  0  0  0  0  0  0  0  0  0  0  0
   36.2030   24.6944   42.7895 H   0  0  0  0  0  0  0  0  0  0  0  0
   41.3004   26.8448   38.3071 H   0  0  0  0  0  0  0  0  0  0  0  0
   41.7303   25.3334   37.4625 H   0  0  0  0  0  0  0  0  0  0  0  0
   41.9131   20.3491   36.4152 H   0  0  0  0  0  0  0  0  0  0  0  0
  2  1  2  0
  3  2  1  0
  4  5  1  0
  4  3  2  0
  5  6  2  0
  6  1  1  0
  7  3  1  0
  7  8  1  0
  9  8  2  0
 10 17  2  0
 10  9  1  0
 11 10  1  0
 12 11  2  0
 13 14  1  0
 13 11  1  0
 14 16  2  0
 15 14  1  0
 16 17  1  0
 17  7  1  0
 18 13  1  0
 19 18  2  0
 20 21  1  0
 20 19  1  0
 21 22  2  0
 22 18  1  0
  1 23  1  0
  2 24  1  0
  5 25  1  0
  8 26  1  0
 15 27  1  0
 15 28  1  0
 21 29  1  0
M  ISO  5  23  14  24  14  25  14  26  14  29  14
M  END
>  <minimizedAffinity>  (1) 
-4.36607456

>  <minimizedRMSD>  (1) 
0.176651195

$$$$
