
     RDKit          3D

 38 42  0  0  0  0  0  0  0  0999 V2000
   37.7260   28.5440   43.6160 C   0  0  0  0  0  0  0  0  0  0  0  0
   37.9990   27.2170   43.2860 C   0  0  0  0  0  0  0  0  0  0  0  0
   37.7100   26.7580   42.0130 C   0  0  0  0  0  0  0  0  0  0  0  0
   37.1610   27.6420   41.1250 N   0  0  0  0  0  0  0  0  0  0  0  0
   36.9010   28.9230   41.4550 C   0  0  0  0  0  0  0  0  0  0  0  0
   37.1850   29.3580   42.6900 N   0  0  0  0  0  0  0  0  0  0  0  0
   37.8920   25.4850   41.4620 N   0  0  0  0  0  0  0  0  0  0  0  0
   37.3110   24.3870   41.9430 C   0  0  0  0  0  0  0  0  0  0  0  0
   37.7080   23.3440   41.1660 N   0  0  0  0  0  0  0  0  0  0  0  0
   38.5310   23.8030   40.2100 C   0  0  0  0  0  0  0  0  0  0  0  0
   39.2370   23.2540   39.1540 C   0  0  0  0  0  0  0  0  0  0  0  0
   39.1540   22.0100   38.9500 O   0  0  0  0  0  0  0  0  0  0  0  0
   39.9960   24.0720   38.3700 N   0  0  0  0  0  0  0  0  0  0  0  0
   40.0930   25.3900   38.5740 C   0  0  0  0  0  0  0  0  0  0  0  0
   40.8880   26.2160   37.7440 N   0  0  0  0  0  0  0  0  0  0  0  0
   39.4100   25.9350   39.5990 N   0  0  0  0  0  0  0  0  0  0  0  0
   38.6550   25.1790   40.3920 C   0  0  0  0  0  0  0  0  0  0  0  0
   40.6920   23.4300   37.3040 C   0  0  0  0  0  0  0  0  0  0  0  0
   40.0720   23.2760   36.0780 C   0  0  0  0  0  0  0  0  0  0  0  0
   40.9360   22.6390   35.2330 N   0  0  0  0  0  0  0  0  0  0  0  0
   42.0750   22.3950   35.9060 C   0  0  0  0  0  0  0  0  0  0  0  0
   43.2850   21.8020   35.6170 C   0  0  0  0  0  0  0  0  0  0  0  0
   44.3280   21.6710   36.5090 C   0  0  0  0  0  0  0  0  0  0  0  0
   44.1200   22.1860   37.7930 C   0  0  0  0  0  0  0  0  0  0  0  0
   42.9280   22.8030   38.1740 C   0  0  0  0  0  0  0  0  0  0  0  0
   41.9520   22.8780   37.2030 C   0  0  0  0  0  0  0  0  0  0  0  0
   37.9507   28.9225   44.6241 H   0  0  0  0  0  0  0  0  0  0  0  0
   38.4408   26.5401   44.0321 H   0  0  0  0  0  0  0  0  0  0  0  0
   36.4587   29.6065   40.7153 H   0  0  0  0  0  0  0  0  0  0  0  0
   36.6348   24.3338   42.8090 H   0  0  0  0  0  0  0  0  0  0  0  0
   40.9431   27.2283   37.9260 H   0  0  0  0  0  0  0  0  0  0  0  0
   41.4115   25.8048   36.9580 H   0  0  0  0  0  0  0  0  0  0  0  0
   39.0548   23.6100   35.8255 H   0  0  0  0  0  0  0  0  0  0  0  0
   40.7481   22.3891   34.2516 H   0  0  0  0  0  0  0  0  0  0  0  0
   43.4290   21.4046   34.6015 H   0  0  0  0  0  0  0  0  0  0  0  0
   45.2743   21.1868   36.2259 H   0  0  0  0  0  0  0  0  0  0  0  0
   44.9296   22.1010   38.5328 H   0  0  0  0  0  0  0  0  0  0  0  0
   42.7762   23.2048   39.1867 H   0  0  0  0  0  0  0  0  0  0  0  0
  2  1  2  0
  3  2  1  0
  4  5  1  0
  4  3  2  0
  5  6  2  0
  6  1  1  0
  7  8  1  0
  7  3  1  0
  9  8  2  0
 10 17  2  0
 10  9  1  0
 11 10  1  0
 12 11  2  0
 13 14  1  0
 13 11  1  0
 14 16  2  0
 15 14  1  0
 16 17  1  0
 17  7  1  0
 18 13  1  0
 19 18  2  0
 20 21  1  0
 20 19  1  0
 21 26  2  0
 22 21  1  0
 22 23  2  0
 23 24  1  0
 24 25  2  0
 26 18  1  0
 26 25  1  0
  1 27  1  0
  2 28  1  0
  5 29  1  0
  8 30  1  0
 15 31  1  0
 15 32  1  0
 19 33  1  0
 20 34  1  0
 22 35  1  0
 23 36  1  0
 24 37  1  0
 25 38  1  0
M  ISO  8  27  14  28  14  29  14  30  14  33  14  34   9  35  14  36  14
M  ISO  2  37  14  38  14
M  END
>  <minimizedAffinity>  (1) 
-4.34863615

>  <minimizedRMSD>  (1) 
1.29239011

$$$$
