
     RDKit          3D

 40 43  0  0  0  0  0  0  0  0999 V2000
   37.7910   28.7710   43.5140 C   0  0  0  0  0  0  0  0  0  0  0  0
   37.9730   27.4000   43.2900 C   0  0  0  0  0  0  0  0  0  0  0  0
   37.6790   26.9290   42.0000 C   0  0  0  0  0  0  0  0  0  0  0  0
   37.2460   27.8080   41.0630 N   0  0  0  0  0  0  0  0  0  0  0  0
   37.0860   29.1210   41.3270 C   0  0  0  0  0  0  0  0  0  0  0  0
   37.3640   29.5900   42.5620 N   0  0  0  0  0  0  0  0  0  0  0  0
   37.7790   25.6010   41.5260 N   0  0  0  0  0  0  0  0  0  0  0  0
   37.1060   24.5850   42.0200 C   0  0  0  0  0  0  0  0  0  0  0  0
   37.4660   23.4770   41.3090 N   0  0  0  0  0  0  0  0  0  0  0  0
   38.3740   23.8390   40.3710 C   0  0  0  0  0  0  0  0  0  0  0  0
   39.0780   23.1770   39.3880 C   0  0  0  0  0  0  0  0  0  0  0  0
   38.9100   21.9380   39.2460 O   0  0  0  0  0  0  0  0  0  0  0  0
   39.9260   23.8830   38.6120 N   0  0  0  0  0  0  0  0  0  0  0  0
   40.1120   25.2020   38.7570 C   0  0  0  0  0  0  0  0  0  0  0  0
   41.0100   25.9600   37.9370 N   0  0  0  0  0  0  0  0  0  0  0  0
   39.4230   25.8620   39.7220 N   0  0  0  0  0  0  0  0  0  0  0  0
   38.5800   25.1990   40.5050 C   0  0  0  0  0  0  0  0  0  0  0  0
   40.6760   23.1930   37.5700 C   0  0  0  0  0  0  0  0  0  0  0  0
   42.1340   23.0330   37.8880 C   0  0  0  0  0  0  0  0  0  0  0  0
   43.0200   23.3000   36.6950 C   0  0  0  0  0  0  0  0  0  0  0  0
   42.5580   22.6230   35.4450 C   0  0  0  0  0  0  0  0  0  0  0  0
   41.0490   22.7010   35.2400 C   0  0  0  0  0  0  0  0  0  0  0  0
   40.5330   23.7810   36.2050 C   0  0  0  0  0  0  0  0  0  0  0  0
   38.0092   29.1812   44.5110 H   0  0  0  0  0  0  0  0  0  0  0  0
   38.3281   26.7267   44.0841 H   0  0  0  0  0  0  0  0  0  0  0  0
   36.7315   29.8048   40.5416 H   0  0  0  0  0  0  0  0  0  0  0  0
   36.3868   24.6213   42.8515 H   0  0  0  0  0  0  0  0  0  0  0  0
   41.1164   26.9730   38.0900 H   0  0  0  0  0  0  0  0  0  0  0  0
   41.5491   25.4918   37.1946 H   0  0  0  0  0  0  0  0  0  0  0  0
   40.2043   22.1994   37.5535 H   0  0  0  0  0  0  0  0  0  0  0  0
   42.3995   23.7384   38.6892 H   0  0  0  0  0  0  0  0  0  0  0  0
   42.2956   21.9897   38.1968 H   0  0  0  0  0  0  0  0  0  0  0  0
   43.0436   24.3849   36.5149 H   0  0  0  0  0  0  0  0  0  0  0  0
   44.0143   22.8946   36.9336 H   0  0  0  0  0  0  0  0  0  0  0  0
   43.0523   23.1004   34.5861 H   0  0  0  0  0  0  0  0  0  0  0  0
   42.8203   21.5585   35.5347 H   0  0  0  0  0  0  0  0  0  0  0  0
   40.8205   22.9794   34.2006 H   0  0  0  0  0  0  0  0  0  0  0  0
   40.5700   21.7304   35.4362 H   0  0  0  0  0  0  0  0  0  0  0  0
   41.1354   24.6970   36.1153 H   0  0  0  0  0  0  0  0  0  0  0  0
   39.4919   24.0612   35.9870 H   0  0  0  0  0  0  0  0  0  0  0  0
  2  1  2  0
  3  2  1  0
  4  5  1  0
  4  3  2  0
  5  6  2  0
  6  1  1  0
  7  3  1  0
  7  8  1  0
  9  8  2  0
 10 17  2  0
 10  9  1  0
 11 10  1  0
 12 11  2  0
 13 14  1  0
 13 11  1  0
 14 16  2  0
 15 14  1  0
 16 17  1  0
 17  7  1  0
 18 19  1  0
 18 13  1  0
 20 19  1  0
 21 20  1  0
 22 21  1  0
 22 23  1  0
 23 18  1  0
  1 24  1  0
  2 25  1  0
  5 26  1  0
  8 27  1  0
 15 28  1  0
 15 29  1  0
 18 30  1  0
 19 31  1  0
 19 32  1  0
 20 33  1  0
 20 34  1  0
 21 35  1  0
 21 36  1  0
 22 37  1  0
 22 38  1  0
 23 39  1  0
 23 40  1  0
M  ISO  8  24  14  25  14  26  14  27  14  30  13  31  13  32  13  33  13
M  ISO  7  34  13  35  13  36  13  37  13  38  13  39  13  40  13
M  END
>  <minimizedAffinity>  (1) 
-4.25487614

>  <minimizedRMSD>  (1) 
0.0426118709

$$$$
