
     RDKit          3D

 32 35  0  0  0  0  0  0  0  0999 V2000
   37.7520   28.7620   43.5240 C   0  0  0  0  0  0  0  0  0  0  0  0
   37.9330   27.3900   43.2900 C   0  0  0  0  0  0  0  0  0  0  0  0
   37.6650   26.9270   41.9940 C   0  0  0  0  0  0  0  0  0  0  0  0
   37.2500   27.8110   41.0530 N   0  0  0  0  0  0  0  0  0  0  0  0
   37.0900   29.1240   41.3200 C   0  0  0  0  0  0  0  0  0  0  0  0
   37.3420   29.5830   42.5500 N   0  0  0  0  0  0  0  0  0  0  0  0
   37.7730   25.6090   41.5180 N   0  0  0  0  0  0  0  0  0  0  0  0
   37.0880   24.5860   42.0030 C   0  0  0  0  0  0  0  0  0  0  0  0
   37.4520   23.4790   41.3060 N   0  0  0  0  0  0  0  0  0  0  0  0
   38.3780   23.8340   40.3740 C   0  0  0  0  0  0  0  0  0  0  0  0
   39.1020   23.1730   39.3970 C   0  0  0  0  0  0  0  0  0  0  0  0
   38.9240   21.9390   39.2660 O   0  0  0  0  0  0  0  0  0  0  0  0
   39.9590   23.8730   38.6350 N   0  0  0  0  0  0  0  0  0  0  0  0
   40.1380   25.2060   38.7930 C   0  0  0  0  0  0  0  0  0  0  0  0
   41.0500   25.9630   37.9820 N   0  0  0  0  0  0  0  0  0  0  0  0
   39.4350   25.8520   39.7450 N   0  0  0  0  0  0  0  0  0  0  0  0
   38.5820   25.1980   40.5130 C   0  0  0  0  0  0  0  0  0  0  0  0
   40.7540   23.3190   37.6070 C   0  0  0  0  0  0  0  0  0  0  0  0
   41.9080   22.6110   37.7470 C   0  0  0  0  0  0  0  0  0  0  0  0
   42.6660   22.0800   36.7350 C   0  0  0  0  0  0  0  0  0  0  0  0
   42.2520   22.2610   35.4530 N   0  0  0  0  0  0  0  0  0  0  0  0
   41.1140   22.9560   35.2850 C   0  0  0  0  0  0  0  0  0  0  0  0
   40.4240   23.4470   36.3210 N   0  0  0  0  0  0  0  0  0  0  0  0
   37.9507   29.1698   44.5261 H   0  0  0  0  0  0  0  0  0  0  0  0
   38.2694   26.7097   44.0862 H   0  0  0  0  0  0  0  0  0  0  0  0
   36.7543   29.8124   40.5304 H   0  0  0  0  0  0  0  0  0  0  0  0
   36.3558   24.6253   42.8229 H   0  0  0  0  0  0  0  0  0  0  0  0
   41.1563   26.9760   38.1351 H   0  0  0  0  0  0  0  0  0  0  0  0
   41.5978   25.4929   37.2472 H   0  0  0  0  0  0  0  0  0  0  0  0
   42.2683   22.4487   38.7736 H   0  0  0  0  0  0  0  0  0  0  0  0
   43.5873   21.5208   36.9555 H   0  0  0  0  0  0  0  0  0  0  0  0
   40.7385   23.1263   34.2652 H   0  0  0  0  0  0  0  0  0  0  0  0
  2  1  2  0
  3  2  1  0
  4  5  1  0
  4  3  2  0
  5  6  2  0
  6  1  1  0
  7  3  1  0
  7  8  1  0
  9  8  2  0
 10 17  2  0
 10  9  1  0
 11 10  1  0
 12 11  2  0
 13 14  1  0
 13 11  1  0
 14 16  2  0
 15 14  1  0
 16 17  1  0
 17  7  1  0
 18 19  2  0
 18 13  1  0
 20 19  1  0
 21 20  2  0
 22 21  1  0
 22 23  2  0
 23 18  1  0
  1 24  1  0
  2 25  1  0
  5 26  1  0
  8 27  1  0
 15 28  1  0
 15 29  1  0
 19 30  1  0
 20 31  1  0
 22 32  1  0
M  ISO  7  24  14  25  14  26  14  27  14  30  14  31  14  32  14
M  END
>  <minimizedAffinity>  (1) 
-4.23020744

>  <minimizedRMSD>  (1) 
0.456336319

$$$$
