
     RDKit          3D

 34 37  0  0  0  0  0  0  0  0999 V2000
   37.6690   28.6860   43.5700 C   0  0  0  0  0  0  0  0  0  0  0  0
   37.8400   27.3250   43.2880 C   0  0  0  0  0  0  0  0  0  0  0  0
   37.6410   26.8760   41.9940 C   0  0  0  0  0  0  0  0  0  0  0  0
   37.2860   27.7840   41.0480 N   0  0  0  0  0  0  0  0  0  0  0  0
   37.1230   29.0960   41.3290 C   0  0  0  0  0  0  0  0  0  0  0  0
   37.3170   29.5270   42.5890 N   0  0  0  0  0  0  0  0  0  0  0  0
   37.7550   25.5740   41.4890 N   0  0  0  0  0  0  0  0  0  0  0  0
   37.0310   24.5470   41.9090 C   0  0  0  0  0  0  0  0  0  0  0  0
   37.4170   23.4590   41.1940 N   0  0  0  0  0  0  0  0  0  0  0  0
   38.3820   23.8120   40.3290 C   0  0  0  0  0  0  0  0  0  0  0  0
   39.1460   23.1700   39.3680 C   0  0  0  0  0  0  0  0  0  0  0  0
   38.9720   21.9380   39.1730 O   0  0  0  0  0  0  0  0  0  0  0  0
   40.0600   23.9010   38.6670 N   0  0  0  0  0  0  0  0  0  0  0  0
   40.2560   25.2110   38.8630 C   0  0  0  0  0  0  0  0  0  0  0  0
   41.2130   25.9500   38.1220 N   0  0  0  0  0  0  0  0  0  0  0  0
   39.5170   25.8400   39.7950 N   0  0  0  0  0  0  0  0  0  0  0  0
   38.6110   25.1710   40.5070 C   0  0  0  0  0  0  0  0  0  0  0  0
   40.8560   23.2620   37.6740 C   0  0  0  0  0  0  0  0  0  0  0  0
   42.0670   22.6490   37.8080 C   0  0  0  0  0  0  0  0  0  0  0  0
   42.7000   22.0780   36.7240 C   0  0  0  0  0  0  0  0  0  0  0  0
   42.1550   22.0910   35.4460 C   0  0  0  0  0  0  0  0  0  0  0  0
   40.9160   22.7260   35.3370 C   0  0  0  0  0  0  0  0  0  0  0  0
   40.2710   23.3020   36.4180 C   0  0  0  0  0  0  0  0  0  0  0  0
   37.8230   29.0624   44.5921 H   0  0  0  0  0  0  0  0  0  0  0  0
   38.1285   26.6226   44.0838 H   0  0  0  0  0  0  0  0  0  0  0  0
   36.8352   29.8031   40.5371 H   0  0  0  0  0  0  0  0  0  0  0  0
   36.2594   24.5712   42.6926 H   0  0  0  0  0  0  0  0  0  0  0  0
   41.3364   26.9570   38.3001 H   0  0  0  0  0  0  0  0  0  0  0  0
   41.7847   25.4798   37.4057 H   0  0  0  0  0  0  0  0  0  0  0  0
   42.5467   22.6094   38.7971 H   0  0  0  0  0  0  0  0  0  0  0  0
   43.6753   21.5929   36.8773 H   0  0  0  0  0  0  0  0  0  0  0  0
   42.6623   21.6346   34.5833 H   0  0  0  0  0  0  0  0  0  0  0  0
   40.4320   22.7704   34.3502 H   0  0  0  0  0  0  0  0  0  0  0  0
   39.2953   23.7909   36.2804 H   0  0  0  0  0  0  0  0  0  0  0  0
  2  1  2  0
  3  2  1  0
  4  5  1  0
  4  3  2  0
  5  6  2  0
  6  1  1  0
  7  8  1  0
  7  3  1  0
  9  8  2  0
 10 17  2  0
 10  9  1  0
 11 10  1  0
 12 11  2  0
 13 14  1  0
 13 11  1  0
 14 16  2  0
 15 14  1  0
 16 17  1  0
 17  7  1  0
 18 19  2  0
 18 13  1  0
 20 19  1  0
 21 20  2  0
 22 21  1  0
 22 23  2  0
 23 18  1  0
  1 24  1  0
  2 25  1  0
  5 26  1  0
  8 27  1  0
 15 28  1  0
 15 29  1  0
 19 30  1  0
 20 31  1  0
 21 32  1  0
 22 33  1  0
 23 34  1  0
M  ISO  8  24  14  25  14  26  14  27  14  30  14  31  14  32  14  33  14
M  ISO  1  34  14
M  END
>  <minimizedAffinity>  (1) 
-4.22789717

>  <minimizedRMSD>  (1) 
0.468089849

$$$$
