
     RDKit          3D

 34 37  0  0  0  0  0  0  0  0999 V2000
   37.7250   28.6830   43.5530 C   0  0  0  0  0  0  0  0  0  0  0  0
   37.9120   27.3250   43.2900 C   0  0  0  0  0  0  0  0  0  0  0  0
   37.6650   26.8730   41.9870 C   0  0  0  0  0  0  0  0  0  0  0  0
   37.2600   27.7710   41.0460 N   0  0  0  0  0  0  0  0  0  0  0  0
   37.0940   29.0760   41.3440 C   0  0  0  0  0  0  0  0  0  0  0  0
   37.3290   29.5240   42.6000 N   0  0  0  0  0  0  0  0  0  0  0  0
   37.7820   25.5600   41.4860 N   0  0  0  0  0  0  0  0  0  0  0  0
   37.0870   24.5320   41.9290 C   0  0  0  0  0  0  0  0  0  0  0  0
   37.4670   23.4430   41.2130 N   0  0  0  0  0  0  0  0  0  0  0  0
   38.4170   23.8180   40.3130 C   0  0  0  0  0  0  0  0  0  0  0  0
   39.1610   23.1810   39.3410 C   0  0  0  0  0  0  0  0  0  0  0  0
   39.0000   21.9480   39.1590 O   0  0  0  0  0  0  0  0  0  0  0  0
   40.0410   23.9090   38.6160 N   0  0  0  0  0  0  0  0  0  0  0  0
   40.2210   25.2260   38.8040 C   0  0  0  0  0  0  0  0  0  0  0  0
   41.1530   25.9800   38.0290 N   0  0  0  0  0  0  0  0  0  0  0  0
   39.4980   25.8530   39.7490 N   0  0  0  0  0  0  0  0  0  0  0  0
   38.6180   25.1730   40.4890 C   0  0  0  0  0  0  0  0  0  0  0  0
   40.8080   23.2440   37.6120 C   0  0  0  0  0  0  0  0  0  0  0  0
   42.0320   22.6230   37.7750 C   0  0  0  0  0  0  0  0  0  0  0  0
   42.6500   22.0220   36.6960 C   0  0  0  0  0  0  0  0  0  0  0  0
   42.0500   22.0330   35.4310 C   0  0  0  0  0  0  0  0  0  0  0  0
   40.8170   22.6630   35.2820 C   0  0  0  0  0  0  0  0  0  0  0  0
   40.1750   23.2780   36.3630 C   0  0  0  0  0  0  0  0  0  0  0  0
   37.9085   29.0659   44.5678 H   0  0  0  0  0  0  0  0  0  0  0  0
   38.2421   26.6332   44.0789 H   0  0  0  0  0  0  0  0  0  0  0  0
   36.7665   29.7789   40.5638 H   0  0  0  0  0  0  0  0  0  0  0  0
   36.3359   24.5524   42.7324 H   0  0  0  0  0  0  0  0  0  0  0  0
   41.2666   26.9895   38.1991 H   0  0  0  0  0  0  0  0  0  0  0  0
   41.7119   25.5146   37.2997 H   0  0  0  0  0  0  0  0  0  0  0  0
   42.5137   22.6075   38.7638 H   0  0  0  0  0  0  0  0  0  0  0  0
   43.6241   21.5294   36.8319 H   0  0  0  0  0  0  0  0  0  0  0  0
   42.5426   21.5537   34.5722 H   0  0  0  0  0  0  0  0  0  0  0  0
   40.3368   22.6776   34.2924 H   0  0  0  0  0  0  0  0  0  0  0  0
   39.2014   23.7738   36.2354 H   0  0  0  0  0  0  0  0  0  0  0  0
  2  1  2  0
  3  2  1  0
  4  5  1  0
  4  3  2  0
  5  6  2  0
  6  1  1  0
  7  8  1  0
  7  3  1  0
  9  8  2  0
 10 17  2  0
 10  9  1  0
 11 10  1  0
 12 11  2  0
 13 14  1  0
 13 11  1  0
 14 16  2  0
 15 14  1  0
 16 17  1  0
 17  7  1  0
 18 19  2  0
 18 13  1  0
 20 19  1  0
 21 20  2  0
 22 21  1  0
 22 23  2  0
 23 18  1  0
  1 24  1  0
  2 25  1  0
  5 26  1  0
  8 27  1  0
 15 28  1  0
 15 29  1  0
 19 30  1  0
 20 31  1  0
 21 32  1  0
 22 33  1  0
 23 34  1  0
M  ISO  8  24  14  25  14  26  14  27  14  30  14  31  14  32  14  33  14
M  ISO  1  34  14
M  END
>  <minimizedAffinity>  (1) 
-4.22414637

>  <minimizedRMSD>  (1) 
0.149112567

$$$$
