
     RDKit          3D

 37 40  0  0  0  0  0  0  0  0999 V2000
   37.6580   28.7290   43.5500 C   0  0  0  0  0  0  0  0  0  0  0  0
   37.8220   27.3660   43.2890 C   0  0  0  0  0  0  0  0  0  0  0  0
   37.6320   26.9040   42.0010 C   0  0  0  0  0  0  0  0  0  0  0  0
   37.2890   27.8100   41.0340 N   0  0  0  0  0  0  0  0  0  0  0  0
   37.1340   29.1210   41.2970 C   0  0  0  0  0  0  0  0  0  0  0  0
   37.3210   29.5720   42.5600 N   0  0  0  0  0  0  0  0  0  0  0  0
   37.7370   25.5980   41.5000 N   0  0  0  0  0  0  0  0  0  0  0  0
   36.9810   24.5830   41.9180 C   0  0  0  0  0  0  0  0  0  0  0  0
   37.3640   23.4840   41.2090 N   0  0  0  0  0  0  0  0  0  0  0  0
   38.3590   23.8310   40.3560 C   0  0  0  0  0  0  0  0  0  0  0  0
   39.1090   23.1570   39.4250 C   0  0  0  0  0  0  0  0  0  0  0  0
   38.9100   21.9260   39.2370 O   0  0  0  0  0  0  0  0  0  0  0  0
   40.0540   23.8690   38.7340 N   0  0  0  0  0  0  0  0  0  0  0  0
   40.2660   25.1730   38.9320 C   0  0  0  0  0  0  0  0  0  0  0  0
   41.2580   25.8910   38.2200 N   0  0  0  0  0  0  0  0  0  0  0  0
   39.5310   25.8280   39.8420 N   0  0  0  0  0  0  0  0  0  0  0  0
   38.5960   25.1840   40.5440 C   0  0  0  0  0  0  0  0  0  0  0  0
   40.8250   23.1200   37.7600 C   0  0  0  0  0  0  0  0  0  0  0  0
   40.5280   23.4620   36.3360 C   0  0  0  0  0  0  0  0  0  0  0  0
   41.8950   23.6910   35.7080 C   0  0  0  0  0  0  0  0  0  0  0  0
   42.8280   22.8320   36.5690 C   0  0  0  0  0  0  0  0  0  0  0  0
   42.3080   23.2100   37.9580 C   0  0  0  0  0  0  0  0  0  0  0  0
   37.8055   29.1131   44.5702 H   0  0  0  0  0  0  0  0  0  0  0  0
   38.0980   26.6719   44.0964 H   0  0  0  0  0  0  0  0  0  0  0  0
   36.8580   29.8195   40.4933 H   0  0  0  0  0  0  0  0  0  0  0  0
   36.1971   24.6245   42.6886 H   0  0  0  0  0  0  0  0  0  0  0  0
   41.3939   26.8963   38.3985 H   0  0  0  0  0  0  0  0  0  0  0  0
   41.8434   25.4078   37.5238 H   0  0  0  0  0  0  0  0  0  0  0  0
   40.4932   22.0888   37.9513 H   0  0  0  0  0  0  0  0  0  0  0  0
   40.0048   22.6326   35.8376 H   0  0  0  0  0  0  0  0  0  0  0  0
   39.8722   24.3403   36.2440 H   0  0  0  0  0  0  0  0  0  0  0  0
   41.9079   23.3573   34.6599 H   0  0  0  0  0  0  0  0  0  0  0  0
   42.1857   24.7516   35.6854 H   0  0  0  0  0  0  0  0  0  0  0  0
   42.7046   21.7586   36.3626 H   0  0  0  0  0  0  0  0  0  0  0  0
   43.9028   23.0027   36.4087 H   0  0  0  0  0  0  0  0  0  0  0  0
   42.6144   24.2288   38.2377 H   0  0  0  0  0  0  0  0  0  0  0  0
   42.6907   22.5715   38.7679 H   0  0  0  0  0  0  0  0  0  0  0  0
  2  1  2  0
  3  2  1  0
  4  5  1  0
  4  3  2  0
  5  6  2  0
  6  1  1  0
  7  8  1  0
  7  3  1  0
  9  8  2  0
 10 17  2  0
 10  9  1  0
 11 10  1  0
 12 11  2  0
 13 14  1  0
 13 11  1  0
 14 16  2  0
 15 14  1  0
 16 17  1  0
 17  7  1  0
 18 22  1  0
 18 13  1  0
 19 18  1  0
 20 19  1  0
 20 21  1  0
 21 22  1  0
  1 23  1  0
  2 24  1  0
  5 25  1  0
  8 26  1  0
 15 27  1  0
 15 28  1  0
 18 29  1  0
 19 30  1  0
 19 31  1  0
 20 32  1  0
 20 33  1  0
 21 34  1  0
 21 35  1  0
 22 36  1  0
 22 37  1  0
M  ISO  8  23  14  24  14  25  14  26  14  29  13  30  13  31  13  32  13
M  ISO  5  33  13  34  13  35  13  36  13  37  13
M  END
>  <minimizedAffinity>  (1) 
-4.20585632

>  <minimizedRMSD>  (1) 
0.246684119

$$$$
