
     RDKit          3D

 31 34  0  0  0  0  0  0  0  0999 V2000
   37.7010   28.6460   43.5770 C   0  0  0  0  0  0  0  0  0  0  0  0
   37.9340   27.2860   43.3100 C   0  0  0  0  0  0  0  0  0  0  0  0
   37.6860   26.8440   42.0180 C   0  0  0  0  0  0  0  0  0  0  0  0
   37.2370   27.7430   41.0920 N   0  0  0  0  0  0  0  0  0  0  0  0
   37.0260   29.0400   41.3880 C   0  0  0  0  0  0  0  0  0  0  0  0
   37.2640   29.4720   42.6370 N   0  0  0  0  0  0  0  0  0  0  0  0
   37.8320   25.5530   41.4840 N   0  0  0  0  0  0  0  0  0  0  0  0
   37.1710   24.4890   41.9440 C   0  0  0  0  0  0  0  0  0  0  0  0
   37.5470   23.4190   41.2060 N   0  0  0  0  0  0  0  0  0  0  0  0
   38.4540   23.8300   40.2760 C   0  0  0  0  0  0  0  0  0  0  0  0
   39.1780   23.2210   39.2660 C   0  0  0  0  0  0  0  0  0  0  0  0
   39.0390   21.9910   39.0760 O   0  0  0  0  0  0  0  0  0  0  0  0
   40.0110   23.9890   38.5210 N   0  0  0  0  0  0  0  0  0  0  0  0
   40.1650   25.3120   38.7200 C   0  0  0  0  0  0  0  0  0  0  0  0
   41.0480   26.0920   37.9230 N   0  0  0  0  0  0  0  0  0  0  0  0
   39.4650   25.9000   39.6960 N   0  0  0  0  0  0  0  0  0  0  0  0
   38.6290   25.1910   40.4600 C   0  0  0  0  0  0  0  0  0  0  0  0
   40.7330   23.3150   37.4950 C   0  0  0  0  0  0  0  0  0  0  0  0
   41.8810   22.5720   37.7360 C   0  0  0  0  0  0  0  0  0  0  0  0
   42.3140   22.0600   36.5110 C   0  0  0  0  0  0  0  0  0  0  0  0
   41.3770   22.5430   35.6000 C   0  0  0  0  0  0  0  0  0  0  0  0
   40.4760   23.2660   36.2130 O   0  0  0  0  0  0  0  0  0  0  0  0
   37.8856   29.0340   44.5896 H   0  0  0  0  0  0  0  0  0  0  0  0
   38.2971   26.6017   44.0910 H   0  0  0  0  0  0  0  0  0  0  0  0
   36.6636   29.7359   40.6170 H   0  0  0  0  0  0  0  0  0  0  0  0
   36.4496   24.4828   42.7744 H   0  0  0  0  0  0  0  0  0  0  0  0
   41.1444   27.1022   38.0994 H   0  0  0  0  0  0  0  0  0  0  0  0
   41.5910   25.6466   37.1695 H   0  0  0  0  0  0  0  0  0  0  0  0
   42.3615   22.4153   38.7130 H   0  0  0  0  0  0  0  0  0  0  0  0
   43.1895   21.4244   36.3120 H   0  0  0  0  0  0  0  0  0  0  0  0
   41.3928   22.3443   34.5182 H   0  0  0  0  0  0  0  0  0  0  0  0
  2  1  2  0
  3  2  1  0
  4  5  1  0
  4  3  2  0
  5  6  2  0
  6  1  1  0
  7  8  1  0
  7  3  1  0
  9  8  2  0
 10 17  2  0
 10  9  1  0
 11 10  1  0
 12 11  2  0
 13 14  1  0
 13 11  1  0
 14 16  2  0
 15 14  1  0
 16 17  1  0
 17  7  1  0
 18 19  2  0
 18 13  1  0
 20 19  1  0
 21 22  1  0
 21 20  2  0
 22 18  1  0
  1 23  1  0
  2 24  1  0
  5 25  1  0
  8 26  1  0
 15 27  1  0
 15 28  1  0
 19 29  1  0
 20 30  1  0
 21 31  1  0
M  ISO  7  23  14  24  14  25  14  26  14  29  14  30  14  31  14
M  END
>  <minimizedAffinity>  (1) 
-4.14568663

>  <minimizedRMSD>  (1) 
0.582863092

$$$$
