
     RDKit          3D

 30 33  0  0  0  0  0  0  0  0999 V2000
   37.7850   28.7220   43.5080 C   0  0  0  0  0  0  0  0  0  0  0  0
   38.0160   27.3540   43.2650 C   0  0  0  0  0  0  0  0  0  0  0  0
   37.7040   26.8820   41.9930 C   0  0  0  0  0  0  0  0  0  0  0  0
   37.2010   27.7530   41.0660 N   0  0  0  0  0  0  0  0  0  0  0  0
   36.9970   29.0570   41.3480 C   0  0  0  0  0  0  0  0  0  0  0  0
   37.2950   29.5310   42.5810 N   0  0  0  0  0  0  0  0  0  0  0  0
   37.8390   25.5740   41.4940 N   0  0  0  0  0  0  0  0  0  0  0  0
   37.2080   24.5240   41.9980 C   0  0  0  0  0  0  0  0  0  0  0  0
   37.5810   23.4380   41.2660 N   0  0  0  0  0  0  0  0  0  0  0  0
   38.4410   23.8330   40.3140 C   0  0  0  0  0  0  0  0  0  0  0  0
   39.1510   23.2150   39.2910 C   0  0  0  0  0  0  0  0  0  0  0  0
   39.0050   21.9650   39.1510 O   0  0  0  0  0  0  0  0  0  0  0  0
   39.9510   23.9560   38.5010 N   0  0  0  0  0  0  0  0  0  0  0  0
   40.0890   25.2780   38.6670 C   0  0  0  0  0  0  0  0  0  0  0  0
   40.9390   26.0680   37.8210 N   0  0  0  0  0  0  0  0  0  0  0  0
   39.4100   25.8940   39.6540 N   0  0  0  0  0  0  0  0  0  0  0  0
   38.6160   25.1980   40.4460 C   0  0  0  0  0  0  0  0  0  0  0  0
   40.7120   23.3510   37.4180 C   0  0  0  0  0  0  0  0  0  0  0  0
   41.9510   22.6940   37.7690 C   0  0  0  0  0  0  0  0  0  0  0  0
   42.5020   22.1100   36.0610 S   0  0  0  0  0  0  0  0  0  0  0  0
   40.9680   22.8590   35.2270 C   0  0  0  0  0  0  0  0  0  0  0  0
   40.2820   23.4040   36.1830 N   0  0  0  0  0  0  0  0  0  0  0  0
   38.0195   29.1323   44.5013 H   0  0  0  0  0  0  0  0  0  0  0  0
   38.4231   26.6908   44.0425 H   0  0  0  0  0  0  0  0  0  0  0  0
   36.5906   29.7315   40.5800 H   0  0  0  0  0  0  0  0  0  0  0  0
   36.5119   24.5285   42.8497 H   0  0  0  0  0  0  0  0  0  0  0  0
   41.0215   27.0827   37.9773 H   0  0  0  0  0  0  0  0  0  0  0  0
   41.4661   25.6199   37.0580 H   0  0  0  0  0  0  0  0  0  0  0  0
   42.4338   22.5701   38.7496 H   0  0  0  0  0  0  0  0  0  0  0  0
   40.7147   22.8353   34.1568 H   0  0  0  0  0  0  0  0  0  0  0  0
  2  1  2  0
  3  2  1  0
  4  5  1  0
  4  3  2  0
  5  6  2  0
  6  1  1  0
  7  3  1  0
  7  8  1  0
  9  8  2  0
 10 17  2  0
 10  9  1  0
 11 10  1  0
 12 11  2  0
 13 14  1  0
 13 11  1  0
 14 16  2  0
 15 14  1  0
 16 17  1  0
 17  7  1  0
 18 19  2  0
 18 13  1  0
 20 19  1  0
 21 20  1  0
 21 22  2  0
 22 18  1  0
  1 23  1  0
  2 24  1  0
  5 25  1  0
  8 26  1  0
 15 27  1  0
 15 28  1  0
 19 29  1  0
 21 30  1  0
M  ISO  6  23  14  24  14  25  14  26  14  29  14  30  14
M  END
>  <minimizedAffinity>  (1) 
-4.12997293

>  <minimizedRMSD>  (1) 
0.541172504

$$$$
