
     RDKit          3D

 33 35  0  0  0  0  0  0  0  0999 V2000
   37.6870   28.7390   43.5450 C   0  0  0  0  0  0  0  0  0  0  0  0
   37.8520   27.3790   43.2840 C   0  0  0  0  0  0  0  0  0  0  0  0
   37.6410   26.9000   42.0050 C   0  0  0  0  0  0  0  0  0  0  0  0
   37.2750   27.7970   41.0400 N   0  0  0  0  0  0  0  0  0  0  0  0
   37.1180   29.1100   41.3010 C   0  0  0  0  0  0  0  0  0  0  0  0
   37.3300   29.5560   42.5620 N   0  0  0  0  0  0  0  0  0  0  0  0
   37.7470   25.5890   41.5200 N   0  0  0  0  0  0  0  0  0  0  0  0
   37.0300   24.5740   41.9660 C   0  0  0  0  0  0  0  0  0  0  0  0
   37.3970   23.4670   41.2710 N   0  0  0  0  0  0  0  0  0  0  0  0
   38.3560   23.8120   40.3850 C   0  0  0  0  0  0  0  0  0  0  0  0
   39.1060   23.1500   39.4240 C   0  0  0  0  0  0  0  0  0  0  0  0
   38.9100   21.9070   39.2700 O   0  0  0  0  0  0  0  0  0  0  0  0
   40.0020   23.8590   38.7070 N   0  0  0  0  0  0  0  0  0  0  0  0
   40.2050   25.1690   38.8730 C   0  0  0  0  0  0  0  0  0  0  0  0
   41.1560   25.8920   38.1040 N   0  0  0  0  0  0  0  0  0  0  0  0
   39.4880   25.8260   39.7990 N   0  0  0  0  0  0  0  0  0  0  0  0
   38.5870   25.1720   40.5380 C   0  0  0  0  0  0  0  0  0  0  0  0
   40.7780   23.1280   37.6980 C   0  0  0  0  0  0  0  0  0  0  0  0
   40.4690   23.6390   36.3230 C   0  0  0  0  0  0  0  0  0  0  0  0
   42.2510   23.1960   37.9870 C   0  0  0  0  0  0  0  0  0  0  0  0
   37.8517   29.1320   44.5591 H   0  0  0  0  0  0  0  0  0  0  0  0
   38.1481   26.6923   44.0907 H   0  0  0  0  0  0  0  0  0  0  0  0
   36.8227   29.8074   40.5033 H   0  0  0  0  0  0  0  0  0  0  0  0
   36.2700   24.6176   42.7600 H   0  0  0  0  0  0  0  0  0  0  0  0
   41.2844   26.9019   38.2608 H   0  0  0  0  0  0  0  0  0  0  0  0
   41.7171   25.4063   37.3897 H   0  0  0  0  0  0  0  0  0  0  0  0
   40.4839   22.0690   37.7429 H   0  0  0  0  0  0  0  0  0  0  0  0
   39.9012   24.5780   36.3998 H   0  0  0  0  0  0  0  0  0  0  0  0
   41.4081   23.8217   35.7801 H   0  0  0  0  0  0  0  0  0  0  0  0
   39.8710   22.8922   35.7801 H   0  0  0  0  0  0  0  0  0  0  0  0
   42.4112   23.2034   39.0752 H   0  0  0  0  0  0  0  0  0  0  0  0
   42.7515   22.3200   37.5487 H   0  0  0  0  0  0  0  0  0  0  0  0
   42.6686   24.1144   37.5487 H   0  0  0  0  0  0  0  0  0  0  0  0
  2  1  2  0
  3  2  1  0
  4  5  1  0
  4  3  2  0
  5  6  2  0
  6  1  1  0
  7  8  1  0
  7  3  1  0
  9  8  2  0
 10 17  2  0
 10  9  1  0
 11 10  1  0
 12 11  2  0
 13 14  1  0
 13 11  1  0
 14 16  2  0
 15 14  1  0
 16 17  1  0
 17  7  1  0
 18 20  1  0
 18 13  1  0
 19 18  1  0
  1 21  1  0
  2 22  1  0
  5 23  1  0
  8 24  1  0
 15 25  1  0
 15 26  1  0
 18 27  1  0
 19 28  1  0
 19 29  1  0
 19 30  1  0
 20 31  1  0
 20 32  1  0
 20 33  1  0
M  ISO  8  21  14  22  14  23  14  24  14  27   8  28   8  29   8  30   8
M  ISO  3  31   8  32   8  33   8
M  END
>  <minimizedAffinity>  (1) 
-4.07231045

>  <minimizedRMSD>  (1) 
0.512135863

$$$$
