
     RDKit          3D

 34 37  0  0  0  0  0  0  0  0999 V2000
   42.5890   31.5270   37.2500 C   0  0  0  0  0  0  0  0  0  0  0  0
   41.7800   31.6280   38.3860 C   0  0  0  0  0  0  0  0  0  0  0  0
   40.9040   30.5820   38.6430 C   0  0  0  0  0  0  0  0  0  0  0  0
   40.8910   29.5310   37.7720 N   0  0  0  0  0  0  0  0  0  0  0  0
   41.6810   29.4660   36.6910 C   0  0  0  0  0  0  0  0  0  0  0  0
   42.5260   30.4640   36.4350 N   0  0  0  0  0  0  0  0  0  0  0  0
   39.9890   30.4340   39.7060 N   0  0  0  0  0  0  0  0  0  0  0  0
   39.0040   31.2760   39.9420 C   0  0  0  0  0  0  0  0  0  0  0  0
   38.3370   30.8250   41.0280 N   0  0  0  0  0  0  0  0  0  0  0  0
   38.9220   29.6850   41.4690 C   0  0  0  0  0  0  0  0  0  0  0  0
   38.7000   28.7970   42.4990 C   0  0  0  0  0  0  0  0  0  0  0  0
   37.7400   29.0060   43.2850 O   0  0  0  0  0  0  0  0  0  0  0  0
   39.5400   27.7290   42.6160 N   0  0  0  0  0  0  0  0  0  0  0  0
   40.5650   27.5140   41.7700 C   0  0  0  0  0  0  0  0  0  0  0  0
   41.4170   26.3940   41.9230 N   0  0  0  0  0  0  0  0  0  0  0  0
   40.7880   28.3700   40.7670 N   0  0  0  0  0  0  0  0  0  0  0  0
   39.9960   29.4320   40.6080 C   0  0  0  0  0  0  0  0  0  0  0  0
   39.2510   26.8370   43.7210 C   0  0  0  0  0  0  0  0  0  0  0  0
   38.2440   27.2790   44.5210 F   0  0  0  0  0  0  0  0  0  0  0  0
   40.4090   26.8050   44.5240 F   0  0  0  0  0  0  0  0  0  0  0  0
   39.0100   25.5370   43.2750 F   0  0  0  0  0  0  0  0  0  0  0  0
   38.5680   32.5330   39.2440 C   0  0  0  0  0  0  0  0  0  0  0  0
   37.4470   32.3450   38.2250 C   0  0  0  0  0  0  0  0  0  0  0  0
   37.2330   33.0830   39.5130 C   0  0  0  0  0  0  0  0  0  0  0  0
   43.2941   32.3391   37.0193 H   0  0  0  0  0  0  0  0  0  0  0  0
   41.8355   32.5027   39.0506 H   0  0  0  0  0  0  0  0  0  0  0  0
   41.6321   28.5954   36.0204 H   0  0  0  0  0  0  0  0  0  0  0  0
   42.1962   26.2461   41.2658 H   0  0  0  0  0  0  0  0  0  0  0  0
   41.2578   25.7270   42.6915 H   0  0  0  0  0  0  0  0  0  0  0  0
   39.5775   32.9697   39.2588 H   0  0  0  0  0  0  0  0  0  0  0  0
   37.4678   32.8899   37.2696 H   0  0  0  0  0  0  0  0  0  0  0  0
   36.9766   31.4895   37.7182 H   0  0  0  0  0  0  0  0  0  0  0  0
   36.6079   32.6355   40.2998 H   0  0  0  0  0  0  0  0  0  0  0  0
   36.8533   34.0830   39.7695 H   0  0  0  0  0  0  0  0  0  0  0  0
  1  2  2  0
  2  3  1  0
  3  7  1  0
  4  3  2  0
  5  4  1  0
  6  5  2  0
  6  1  1  0
  7  8  1  0
  7 17  1  0
  8  9  2  0
  9 10  1  0
 10 11  1  0
 11 13  1  0
 11 12  2  0
 13 18  1  0
 14 15  1  0
 14 13  1  0
 16 14  2  0
 17 16  1  0
 17 10  2  0
 18 19  1  0
 18 20  1  0
 21 18  1  0
 22 24  1  0
 22  8  1  0
 23 22  1  0
 23 24  1  0
  1 25  1  0
  2 26  1  0
  5 27  1  0
 15 28  1  0
 15 29  1  0
 22 30  1  0
 23 31  1  0
 23 32  1  0
 24 33  1  0
 24 34  1  0
M  ISO  8  25  14  26  14  27  14  30  13  31  13  32  13  33  13  34  13
M  END
>  <minimizedAffinity>  (1) 
-5.41767883

>  <minimizedRMSD>  (1) 
7.01123571

$$$$
