
     RDKit          3D

 29 31  0  0  0  0  0  0  0  0999 V2000
   38.5820   31.2740   40.8580 C   0  0  0  0  0  0  0  0  0  0  0  0
   38.7710   29.9020   41.0280 C   0  0  0  0  0  0  0  0  0  0  0  0
   37.6670   29.0910   41.1240 C   0  0  0  0  0  0  0  0  0  0  0  0
   36.4330   29.6800   41.0470 N   0  0  0  0  0  0  0  0  0  0  0  0
   36.2710   31.0050   40.8820 C   0  0  0  0  0  0  0  0  0  0  0  0
   37.3620   31.7910   40.7890 N   0  0  0  0  0  0  0  0  0  0  0  0
   37.5950   27.6940   41.2970 N   0  0  0  0  0  0  0  0  0  0  0  0
   38.0950   27.0540   42.3310 C   0  0  0  0  0  0  0  0  0  0  0  0
   37.8470   25.7410   42.1670 N   0  0  0  0  0  0  0  0  0  0  0  0
   37.1780   25.5690   41.0060 C   0  0  0  0  0  0  0  0  0  0  0  0
   36.6630   24.4830   40.3180 C   0  0  0  0  0  0  0  0  0  0  0  0
   36.8000   23.3330   40.8110 O   0  0  0  0  0  0  0  0  0  0  0  0
   36.0270   24.7160   39.1320 N   0  0  0  0  0  0  0  0  0  0  0  0
   35.8870   25.9330   38.6200 C   0  0  0  0  0  0  0  0  0  0  0  0
   35.2220   26.1510   37.3830 N   0  0  0  0  0  0  0  0  0  0  0  0
   36.3880   27.0010   39.2860 N   0  0  0  0  0  0  0  0  0  0  0  0
   37.0100   26.8350   40.4350 C   0  0  0  0  0  0  0  0  0  0  0  0
   35.5130   23.5350   38.4660 C   0  0  0  0  0  0  0  0  0  0  0  0
   35.7670   22.3820   39.1470 F   0  0  0  0  0  0  0  0  0  0  0  0
   36.1820   23.4370   37.2410 F   0  0  0  0  0  0  0  0  0  0  0  0
   34.1350   23.6590   38.2140 F   0  0  0  0  0  0  0  0  0  0  0  0
   38.8170   27.5690   43.5110 C   0  0  0  0  0  0  0  0  0  0  0  0
   40.0830   27.6070   43.5820 O   0  0  0  0  0  0  0  0  0  0  0  0
   39.4568   31.9363   40.7801 H   0  0  0  0  0  0  0  0  0  0  0  0
   39.7846   29.4783   41.0840 H   0  0  0  0  0  0  0  0  0  0  0  0
   35.2627   31.4409   40.8238 H   0  0  0  0  0  0  0  0  0  0  0  0
   35.1283   27.1065   37.0101 H   0  0  0  0  0  0  0  0  0  0  0  0
   34.8337   25.3535   36.8595 H   0  0  0  0  0  0  0  0  0  0  0  0
   38.2313   27.9361   44.3667 H   0  0  0  0  0  0  0  0  0  0  0  0
  1  2  2  0
  2  3  1  0
  3  7  1  0
  4  3  2  0
  5  4  1  0
  6  1  1  0
  6  5  2  0
  7  8  1  0
  8 22  1  0
  9  8  2  0
 10  9  1  0
 11 12  2  0
 11 10  1  0
 13 11  1  0
 14 13  1  0
 14 16  2  0
 15 14  1  0
 16 17  1  0
 17 10  2  0
 17  7  1  0
 18 13  1  0
 18 19  1  0
 20 18  1  0
 21 18  1  0
 22 23  2  0
  1 24  1  0
  2 25  1  0
  5 26  1  0
 15 27  1  0
 15 28  1  0
 22 29  1  0
M  ISO  4  24  14  25  14  26  14  29   6
M  END
>  <minimizedAffinity>  (1) 
-4.78215694

>  <minimizedRMSD>  (1) 
3.98786068

$$$$
