
     RDKit          3D

 29 30  0  0  0  0  0  0  0  0999 V2000
   37.9230   30.7700   41.3230 C   0  0  0  0  0  0  0  0  0  0  0  0
   36.7390   30.2740   40.7920 C   0  0  0  0  0  0  0  0  0  0  0  0
   36.5180   29.1040   41.4830 C   0  0  0  0  0  0  0  0  0  0  0  0
   37.4990   28.9050   42.3720 N   0  0  0  0  0  0  0  0  0  0  0  0
   38.3560   29.9160   42.2780 N   0  0  0  0  0  0  0  0  0  0  0  0
   37.8370   33.0850   40.3470 C   0  0  0  0  0  0  0  0  0  0  0  0
   38.5480   32.0090   40.8880 C   0  0  0  0  0  0  0  0  0  0  0  0
   39.9290   32.1370   41.0140 C   0  0  0  0  0  0  0  0  0  0  0  0
   40.5270   33.2990   40.6080 N   0  0  0  0  0  0  0  0  0  0  0  0
   39.7880   34.3210   40.0860 C   0  0  0  0  0  0  0  0  0  0  0  0
   38.4340   34.2050   39.9580 N   0  0  0  0  0  0  0  0  0  0  0  0
   37.5370   27.7500   43.2470 C   0  0  0  0  0  0  0  0  0  0  0  0
   36.8360   28.0760   44.5350 C   0  0  0  0  0  0  0  0  0  0  0  0
   36.9260   26.5320   42.5850 C   0  0  0  0  0  0  0  0  0  0  0  0
   38.9660   27.3530   43.6030 C   0  0  0  0  0  0  0  0  0  0  0  0
   36.1184   30.7162   39.9987 H   0  0  0  0  0  0  0  0  0  0  0  0
   35.6614   28.4316   41.3276 H   0  0  0  0  0  0  0  0  0  0  0  0
   36.7455   33.0003   40.2402 H   0  0  0  0  0  0  0  0  0  0  0  0
   40.5299   31.3166   41.4334 H   0  0  0  0  0  0  0  0  0  0  0  0
   40.2883   35.2467   39.7655 H   0  0  0  0  0  0  0  0  0  0  0  0
   37.4712   27.7806   45.3831 H   0  0  0  0  0  0  0  0  0  0  0  0
   36.6405   29.1574   44.5825 H   0  0  0  0  0  0  0  0  0  0  0  0
   35.8830   27.5287   44.5825 H   0  0  0  0  0  0  0  0  0  0  0  0
   36.5749   25.8321   43.3576 H   0  0  0  0  0  0  0  0  0  0  0  0
   36.0769   26.8425   41.9584 H   0  0  0  0  0  0  0  0  0  0  0  0
   37.6825   26.0370   41.9584 H   0  0  0  0  0  0  0  0  0  0  0  0
   39.0763   27.3224   44.6970 H   0  0  0  0  0  0  0  0  0  0  0  0
   39.1857   26.3598   43.1844 H   0  0  0  0  0  0  0  0  0  0  0  0
   39.6666   28.0905   43.1844 H   0  0  0  0  0  0  0  0  0  0  0  0
  1  5  2  0
  2  1  1  0
  2  3  2  0
  3  4  1  0
  4 12  1  0
  5  4  1  0
  6  7  2  0
  7  8  1  0
  7  1  1  0
  9  8  2  0
 10  9  1  0
 11 10  2  0
 11  6  1  0
 12 15  1  0
 12 13  1  0
 14 12  1  0
  2 16  1  0
  3 17  1  0
  6 18  1  0
  8 19  1  0
 10 20  1  0
 13 21  1  0
 13 22  1  0
 13 23  1  0
 14 24  1  0
 14 25  1  0
 14 26  1  0
 15 27  1  0
 15 28  1  0
 15 29  1  0
M  ISO  8  16  14  17  14  18  14  19  14  20  14  21   8  22   8  23   8
M  ISO  6  24   8  25   8  26   8  27   8  28   8  29   8
M  END
>  <minimizedAffinity>  (1) 
-4.78331184

>  <minimizedRMSD>  (1) 
4.60409069

$$$$
