
     RDKit          3D

 42 46  0  0  1  0  0  0  0  0999 V2000
   42.7020   30.4760   37.9190 C   0  0  0  0  0  0  0  0  0  0  0  0
   41.6850   30.4930   38.8830 C   0  0  0  0  0  0  0  0  0  0  0  0
   40.5980   29.6680   38.6780 C   0  0  0  0  0  0  0  0  0  0  0  0
   40.5900   28.8920   37.5490 N   0  0  0  0  0  0  0  0  0  0  0  0
   41.5850   28.9010   36.6480 C   0  0  0  0  0  0  0  0  0  0  0  0
   42.6350   29.6970   36.8410 N   0  0  0  0  0  0  0  0  0  0  0  0
   39.4500   29.4870   39.4750 N   0  0  0  0  0  0  0  0  0  0  0  0
   38.6150   30.4600   39.7560 C   0  0  0  0  0  0  0  0  0  0  0  0
   37.6290   29.9340   40.5360 N   0  0  0  0  0  0  0  0  0  0  0  0
   37.8770   28.6160   40.7300 C   0  0  0  0  0  0  0  0  0  0  0  0
   37.2680   27.5800   41.4070 C   0  0  0  0  0  0  0  0  0  0  0  0
   36.2030   27.8160   42.0370 O   0  0  0  0  0  0  0  0  0  0  0  0
   37.8470   26.3530   41.3610 N   0  0  0  0  0  0  0  0  0  0  0  0
   38.9800   26.1140   40.6880 C   0  0  0  0  0  0  0  0  0  0  0  0
   39.5570   24.8140   40.6590 N   0  0  0  0  0  0  0  0  0  0  0  0
   39.5910   27.1000   40.0250 N   0  0  0  0  0  0  0  0  0  0  0  0
   39.0680   28.3280   40.0350 C   0  0  0  0  0  0  0  0  0  0  0  0
   38.5940   31.9280   39.4090 C   0  0  1  0  0  0  0  0  0  0  0  0
   37.4580   32.6980   40.1150 C   0  0  0  0  0  0  0  0  0  0  0  0
   38.9170   32.9170   40.4220 C   0  0  2  0  0  0  0  0  0  0  0  0
   39.5370   34.2160   40.1150 C   0  0  0  0  0  0  0  0  0  0  0  0
   40.8220   34.2430   39.5730 C   0  0  0  0  0  0  0  0  0  0  0  0
   41.3590   35.4960   39.3020 C   0  0  0  0  0  0  0  0  0  0  0  0
   40.6860   36.6330   39.5470 N   0  0  0  0  0  0  0  0  0  0  0  0
   39.4370   36.5730   40.0750 C   0  0  0  0  0  0  0  0  0  0  0  0
   38.8560   35.3720   40.3620 N   0  0  0  0  0  0  0  0  0  0  0  0
   37.1440   25.3160   42.0980 C   0  0  0  0  0  0  0  0  0  0  0  0
   36.3730   25.7970   43.1060 F   0  0  0  0  0  0  0  0  0  0  0  0
   38.1390   24.5250   42.7060 F   0  0  0  0  0  0  0  0  0  0  0  0
   36.4100   24.4950   41.2290 F   0  0  0  0  0  0  0  0  0  0  0  0
   43.5800   31.1241   38.0566 H   0  0  0  0  0  0  0  0  0  0  0  0
   41.7508   31.1400   39.7702 H   0  0  0  0  0  0  0  0  0  0  0  0
   41.5335   28.2565   35.7581 H   0  0  0  0  0  0  0  0  0  0  0  0
   40.4289   24.6491   40.1360 H   0  0  0  0  0  0  0  0  0  0  0  0
   39.1029   24.0377   41.1610 H   0  0  0  0  0  0  0  0  0  0  0  0
   38.9637   31.7749   38.3844 H   0  0  0  0  0  0  0  0  0  0  0  0
   36.8804   33.4617   39.5736 H   0  0  0  0  0  0  0  0  0  0  0  0
   36.5549   32.4371   40.6863 H   0  0  0  0  0  0  0  0  0  0  0  0
   39.5431   32.8713   41.3253 H   0  0  0  0  0  0  0  0  0  0  0  0
   41.3825   33.3185   39.3701 H   0  0  0  0  0  0  0  0  0  0  0  0
   42.3696   35.5591   38.8722 H   0  0  0  0  0  0  0  0  0  0  0  0
   38.8862   37.5041   40.2741 H   0  0  0  0  0  0  0  0  0  0  0  0
  1  2  2  0
  3  2  1  0
  3  7  1  0
  4  3  2  0
  5  6  2  0
  5  4  1  0
  6  1  1  0
  7  8  1  0
  7 17  1  0
  8  9  2  0
  9 10  1  0
 10 11  1  0
 11 12  2  0
 13 11  1  0
 13 27  1  0
 14 13  1  0
 15 14  1  0
 16 17  1  0
 16 14  2  0
 17 10  2  0
 18  8  1  0
 18 19  1  0
 18 20  1  0
 19 20  1  0
 21 26  1  0
 21 20  1  0
 22 21  2  0
 23 24  2  0
 23 22  1  0
 24 25  1  0
 25 26  2  0
 27 29  1  0
 27 28  1  0
 30 27  1  0
  1 31  1  0
  2 32  1  0
  5 33  1  0
 15 34  1  0
 15 35  1  0
 18 36  1  6
 19 37  1  0
 19 38  1  0
 20 39  1  1
 22 40  1  0
 23 41  1  0
 25 42  1  0
M  ISO  8  31  14  32  14  33  14  36  13  37  13  38  13  39  13  40  14
M  ISO  2  41  14  42  14
M  END
>  <minimizedAffinity>  (1) 
-6.73102951

>  <minimizedRMSD>  (1) 
2.45001078

$$$$
