
     RDKit          3D

 39 43  0  0  1  0  0  0  0  0999 V2000
   42.9280   31.2280   37.4790 C   0  0  0  0  0  0  0  0  0  0  0  0
   42.1910   31.3920   38.6600 C   0  0  0  0  0  0  0  0  0  0  0  0
   41.1010   30.5680   38.8490 C   0  0  0  0  0  0  0  0  0  0  0  0
   40.8180   29.6490   37.8720 N   0  0  0  0  0  0  0  0  0  0  0  0
   41.5480   29.5230   36.7550 C   0  0  0  0  0  0  0  0  0  0  0  0
   42.5970   30.3120   36.5650 N   0  0  0  0  0  0  0  0  0  0  0  0
   40.1970   30.5150   39.9320 N   0  0  0  0  0  0  0  0  0  0  0  0
   39.4470   31.5240   40.2900 C   0  0  0  0  0  0  0  0  0  0  0  0
   38.7070   31.1160   41.3570 N   0  0  0  0  0  0  0  0  0  0  0  0
   39.0190   29.8310   41.6470 C   0  0  0  0  0  0  0  0  0  0  0  0
   38.6100   28.9110   42.5900 C   0  0  0  0  0  0  0  0  0  0  0  0
   37.7420   29.2440   43.4340 O   0  0  0  0  0  0  0  0  0  0  0  0
   39.1830   27.6760   42.5480 N   0  0  0  0  0  0  0  0  0  0  0  0
   40.1100   27.3280   41.6460 C   0  0  0  0  0  0  0  0  0  0  0  0
   40.6740   26.0270   41.6400 N   0  0  0  0  0  0  0  0  0  0  0  0
   40.5100   28.2170   40.7320 N   0  0  0  0  0  0  0  0  0  0  0  0
   39.9850   29.4470   40.7200 C   0  0  0  0  0  0  0  0  0  0  0  0
   39.3150   32.9350   39.7710 C   0  0  1  0  0  0  0  0  0  0  0  0
   37.8570   33.4280   39.7220 C   0  0  0  0  0  0  0  0  0  0  0  0
   38.8860   33.9960   40.6660 C   0  0  2  0  0  0  0  0  0  0  0  0
   39.3910   35.3690   40.4940 C   0  0  0  0  0  0  0  0  0  0  0  0
   38.7680   36.4090   39.8690 N   0  0  0  0  0  0  0  0  0  0  0  0
   39.5400   37.4480   39.9320 O   0  0  0  0  0  0  0  0  0  0  0  0
   40.6420   37.1580   40.5640 C   0  0  0  0  0  0  0  0  0  0  0  0
   40.5820   35.8660   40.9300 N   0  0  0  0  0  0  0  0  0  0  0  0
   38.7100   26.7500   43.5640 C   0  0  0  0  0  0  0  0  0  0  0  0
   37.8310   27.3170   44.4430 F   0  0  0  0  0  0  0  0  0  0  0  0
   39.8250   26.3630   44.3130 F   0  0  0  0  0  0  0  0  0  0  0  0
   38.1510   25.6020   42.9770 F   0  0  0  0  0  0  0  0  0  0  0  0
   43.8024   31.8709   37.3001 H   0  0  0  0  0  0  0  0  0  0  0  0
   42.4711   32.1488   39.4075 H   0  0  0  0  0  0  0  0  0  0  0  0
   41.2786   28.7695   36.0002 H   0  0  0  0  0  0  0  0  0  0  0  0
   41.3858   25.7775   40.9386 H   0  0  0  0  0  0  0  0  0  0  0  0
   40.3719   25.3315   42.3371 H   0  0  0  0  0  0  0  0  0  0  0  0
   40.1698   32.8495   39.0839 H   0  0  0  0  0  0  0  0  0  0  0  0
   37.4961   34.0197   38.8678 H   0  0  0  0  0  0  0  0  0  0  0  0
   36.8599   32.9725   39.8128 H   0  0  0  0  0  0  0  0  0  0  0  0
   38.9217   34.1364   41.7564 H   0  0  0  0  0  0  0  0  0  0  0  0
   41.4746   37.8487   40.7629 H   0  0  0  0  0  0  0  0  0  0  0  0
  1  2  2  0
  2  3  1  0
  3  7  1  0
  4  3  2  0
  5  4  1  0
  6  5  2  0
  6  1  1  0
  7  8  1  0
  7 17  1  0
  8  9  2  0
  9 10  1  0
 10 11  1  0
 11 12  2  0
 13 11  1  0
 13 26  1  0
 14 13  1  0
 15 14  1  0
 16 14  2  0
 17 16  1  0
 17 10  2  0
 18  8  1  0
 18 20  1  0
 19 18  1  0
 19 20  1  0
 21 20  1  0
 21 25  1  0
 22 23  1  0
 22 21  2  0
 23 24  1  0
 24 25  2  0
 26 28  1  0
 26 27  1  0
 29 26  1  0
  1 30  1  0
  2 31  1  0
  5 32  1  0
 15 33  1  0
 15 34  1  0
 18 35  1  6
 19 36  1  0
 19 37  1  0
 20 38  1  1
 24 39  1  0
M  ISO  8  30  14  31  14  32  14  35  13  36  13  37  13  38  13  39  14
M  END
>  <minimizedAffinity>  (1) 
-6.72209883

>  <minimizedRMSD>  (1) 
1.50248671

$$$$
