
     RDKit          3D

 47 51  0  0  1  0  0  0  0  0999 V2000
   42.9400   31.3950   37.6230 C   0  0  0  0  0  0  0  0  0  0  0  0
   42.0740   31.5430   38.7090 C   0  0  0  0  0  0  0  0  0  0  0  0
   40.9850   30.7040   38.7950 C   0  0  0  0  0  0  0  0  0  0  0  0
   40.8370   29.7820   37.7950 N   0  0  0  0  0  0  0  0  0  0  0  0
   41.6780   29.6590   36.7660 C   0  0  0  0  0  0  0  0  0  0  0  0
   42.7260   30.4700   36.6870 N   0  0  0  0  0  0  0  0  0  0  0  0
   39.9720   30.6370   39.7690 N   0  0  0  0  0  0  0  0  0  0  0  0
   39.1680   31.6360   40.0370 C   0  0  0  0  0  0  0  0  0  0  0  0
   38.3200   31.2190   41.0130 N   0  0  0  0  0  0  0  0  0  0  0  0
   38.6190   29.9480   41.3400 C   0  0  0  0  0  0  0  0  0  0  0  0
   38.1220   29.0200   42.2400 C   0  0  0  0  0  0  0  0  0  0  0  0
   37.1580   29.3380   42.9780 O   0  0  0  0  0  0  0  0  0  0  0  0
   38.7200   27.7890   42.2750 N   0  0  0  0  0  0  0  0  0  0  0  0
   39.7500   27.4550   41.4850 C   0  0  0  0  0  0  0  0  0  0  0  0
   40.3340   26.1730   41.5560 N   0  0  0  0  0  0  0  0  0  0  0  0
   40.2340   28.3470   40.6150 N   0  0  0  0  0  0  0  0  0  0  0  0
   39.6910   29.5640   40.5360 C   0  0  0  0  0  0  0  0  0  0  0  0
   39.0770   33.0450   39.4960 C   0  0  1  0  0  0  0  0  0  0  0  0
   37.7080   33.7030   39.7320 C   0  0  0  0  0  0  0  0  0  0  0  0
   38.9480   34.1650   40.4170 C   0  0  2  0  0  0  0  0  0  0  0  0
   39.6620   35.4220   40.0340 C   0  0  0  0  0  0  0  0  0  0  0  0
   39.7820   36.4660   41.0740 C   0  0  0  0  0  0  0  0  0  0  0  0
   41.2720   36.5550   41.3680 C   0  0  0  0  0  0  0  0  0  0  0  0
   41.9200   35.3910   40.6510 C   0  0  0  0  0  0  0  0  0  0  0  0
   41.0250   35.0940   39.4920 C   0  0  0  0  0  0  0  0  0  0  0  0
   38.1480   26.8680   43.2410 C   0  0  0  0  0  0  0  0  0  0  0  0
   36.9640   27.2890   43.7600 F   0  0  0  0  0  0  0  0  0  0  0  0
   39.0460   26.8180   44.3170 F   0  0  0  0  0  0  0  0  0  0  0  0
   38.0400   25.5760   42.7000 F   0  0  0  0  0  0  0  0  0  0  0  0
   43.8160   32.0548   37.5384 H   0  0  0  0  0  0  0  0  0  0  0  0
   42.2571   32.3100   39.4759 H   0  0  0  0  0  0  0  0  0  0  0  0
   41.5050   28.8954   35.9933 H   0  0  0  0  0  0  0  0  0  0  0  0
   41.1250   25.9327   40.9416 H   0  0  0  0  0  0  0  0  0  0  0  0
   39.9694   25.4772   42.2222 H   0  0  0  0  0  0  0  0  0  0  0  0
   39.7549   32.8491   38.6522 H   0  0  0  0  0  0  0  0  0  0  0  0
   37.2431   34.3180   38.9474 H   0  0  0  0  0  0  0  0  0  0  0  0
   36.7093   33.3642   40.0447 H   0  0  0  0  0  0  0  0  0  0  0  0
   39.1578   34.3534   41.4802 H   0  0  0  0  0  0  0  0  0  0  0  0
   39.0108   35.8718   39.2701 H   0  0  0  0  0  0  0  0  0  0  0  0
   39.4027   37.4290   40.7015 H   0  0  0  0  0  0  0  0  0  0  0  0
   39.1959   36.2247   41.9730 H   0  0  0  0  0  0  0  0  0  0  0  0
   41.6775   37.5062   40.9927 H   0  0  0  0  0  0  0  0  0  0  0  0
   41.4677   36.5155   42.4497 H   0  0  0  0  0  0  0  0  0  0  0  0
   42.9258   35.6660   40.3005 H   0  0  0  0  0  0  0  0  0  0  0  0
   42.0401   34.5188   41.3104 H   0  0  0  0  0  0  0  0  0  0  0  0
   41.0917   34.0354   39.2005 H   0  0  0  0  0  0  0  0  0  0  0  0
   41.2822   35.6614   38.5854 H   0  0  0  0  0  0  0  0  0  0  0  0
  1  2  2  0
  2  3  1  0
  3  7  1  0
  4  3  2  0
  5  4  1  0
  6  5  2  0
  6  1  1  0
  7  8  1  0
  7 17  1  0
  8  9  2  0
  9 10  1  0
 10 11  1  0
 11 13  1  0
 11 12  2  0
 13 26  1  0
 14 15  1  0
 14 13  1  0
 16 14  2  0
 17 16  1  0
 17 10  2  0
 18 19  1  0
 18  8  1  0
 18 20  1  0
 19 20  1  0
 21 20  1  0
 21 22  1  0
 22 23  1  0
 24 23  1  0
 25 21  1  0
 25 24  1  0
 26 27  1  0
 26 28  1  0
 29 26  1  0
  1 30  1  0
  2 31  1  0
  5 32  1  0
 15 33  1  0
 15 34  1  0
 18 35  1  6
 19 36  1  0
 19 37  1  0
 20 38  1  1
 21 39  1  0
 22 40  1  0
 22 41  1  0
 23 42  1  0
 23 43  1  0
 24 44  1  0
 24 45  1  0
 25 46  1  0
 25 47  1  0
M  ISO  8  30  14  31  14  32  14  35  13  36  13  37  13  38  13  39  13
M  ISO  8  40  13  41  13  42  13  43  13  44  13  45  13  46  13  47  13
M  END
>  <minimizedAffinity>  (1) 
-6.71298695

>  <minimizedRMSD>  (1) 
1.60560787

$$$$
