
     RDKit          3D

 41 45  0  0  1  0  0  0  0  0999 V2000
   42.9380   31.2090   37.5210 C   0  0  0  0  0  0  0  0  0  0  0  0
   42.2080   31.3480   38.6940 C   0  0  0  0  0  0  0  0  0  0  0  0
   41.1050   30.5450   38.8790 C   0  0  0  0  0  0  0  0  0  0  0  0
   40.8050   29.6590   37.8860 N   0  0  0  0  0  0  0  0  0  0  0  0
   41.5180   29.5340   36.7600 C   0  0  0  0  0  0  0  0  0  0  0  0
   42.5920   30.3220   36.5900 N   0  0  0  0  0  0  0  0  0  0  0  0
   40.2060   30.4880   39.9550 N   0  0  0  0  0  0  0  0  0  0  0  0
   39.4690   31.5130   40.3320 C   0  0  0  0  0  0  0  0  0  0  0  0
   38.7190   31.1080   41.3930 N   0  0  0  0  0  0  0  0  0  0  0  0
   39.0050   29.8120   41.6660 C   0  0  0  0  0  0  0  0  0  0  0  0
   38.5850   28.8790   42.5880 C   0  0  0  0  0  0  0  0  0  0  0  0
   37.7200   29.2160   43.4400 O   0  0  0  0  0  0  0  0  0  0  0  0
   39.1190   27.6360   42.5420 N   0  0  0  0  0  0  0  0  0  0  0  0
   40.0450   27.2870   41.6250 C   0  0  0  0  0  0  0  0  0  0  0  0
   40.5840   25.9760   41.5940 N   0  0  0  0  0  0  0  0  0  0  0  0
   40.4670   28.1820   40.7200 N   0  0  0  0  0  0  0  0  0  0  0  0
   39.9630   29.4210   40.7330 C   0  0  0  0  0  0  0  0  0  0  0  0
   39.3630   32.9360   39.8350 C   0  0  1  0  0  0  0  0  0  0  0  0
   37.9100   33.4370   39.7220 C   0  0  0  0  0  0  0  0  0  0  0  0
   38.8950   33.9830   40.7250 C   0  0  2  0  0  0  0  0  0  0  0  0
   39.4600   35.2930   40.5540 N   0  0  0  0  0  0  0  0  0  0  0  0
   38.7730   36.2440   39.9220 N   0  0  0  0  0  0  0  0  0  0  0  0
   39.4990   37.3510   39.8940 C   0  0  0  0  0  0  0  0  0  0  0  0
   40.7020   37.1240   40.5260 C   0  0  0  0  0  0  0  0  0  0  0  0
   40.6370   35.8150   40.9280 C   0  0  0  0  0  0  0  0  0  0  0  0
   38.6290   26.7090   43.5410 C   0  0  0  0  0  0  0  0  0  0  0  0
   37.8500   27.2970   44.4810 F   0  0  0  0  0  0  0  0  0  0  0  0
   39.7720   26.2350   44.2270 F   0  0  0  0  0  0  0  0  0  0  0  0
   38.0040   25.6130   42.9440 F   0  0  0  0  0  0  0  0  0  0  0  0
   43.8205   31.8449   37.3574 H   0  0  0  0  0  0  0  0  0  0  0  0
   42.5040   32.0824   39.4575 H   0  0  0  0  0  0  0  0  0  0  0  0
   41.2305   28.8020   35.9909 H   0  0  0  0  0  0  0  0  0  0  0  0
   41.2903   25.7261   40.8872 H   0  0  0  0  0  0  0  0  0  0  0  0
   40.2693   25.2735   42.2783 H   0  0  0  0  0  0  0  0  0  0  0  0
   40.2506   32.8583   39.1899 H   0  0  0  0  0  0  0  0  0  0  0  0
   37.5942   34.0450   38.8614 H   0  0  0  0  0  0  0  0  0  0  0  0
   36.9075   32.9854   39.7557 H   0  0  0  0  0  0  0  0  0  0  0  0
   38.8462   34.1169   41.8157 H   0  0  0  0  0  0  0  0  0  0  0  0
   39.1900   38.3029   39.4376 H   0  0  0  0  0  0  0  0  0  0  0  0
   41.5291   37.8338   40.6747 H   0  0  0  0  0  0  0  0  0  0  0  0
   41.4271   35.2770   41.4724 H   0  0  0  0  0  0  0  0  0  0  0  0
  1  2  2  0
  2  3  1  0
  3  7  1  0
  4  3  2  0
  5  4  1  0
  6  5  2  0
  6  1  1  0
  7  8  1  0
  7 17  1  0
  8  9  2  0
  9 10  1  0
 10 11  1  0
 11 12  2  0
 13 11  1  0
 13 26  1  0
 14 13  1  0
 15 14  1  0
 16 17  1  0
 16 14  2  0
 17 10  2  0
 18  8  1  0
 18 20  1  0
 19 18  1  0
 19 20  1  0
 21 20  1  0
 21 25  1  0
 22 21  1  0
 23 22  2  0
 23 24  1  0
 24 25  2  0
 26 28  1  0
 26 27  1  0
 29 26  1  0
  1 30  1  0
  2 31  1  0
  5 32  1  0
 15 33  1  0
 15 34  1  0
 18 35  1  6
 19 36  1  0
 19 37  1  0
 20 38  1  1
 23 39  1  0
 24 40  1  0
 25 41  1  0
M  ISO  8  30  14  31  14  32  14  35  13  36  13  37  13  38  13  39  14
M  ISO  2  40  14  41  14
M  END
>  <minimizedAffinity>  (1) 
-6.5978179

>  <minimizedRMSD>  (1) 
1.51666844

$$$$
