
     RDKit          3D

 46 50  0  0  1  0  0  0  0  0999 V2000
   43.0670   31.2250   37.5110 C   0  0  0  0  0  0  0  0  0  0  0  0
   42.2530   31.4300   38.6270 C   0  0  0  0  0  0  0  0  0  0  0  0
   41.1560   30.5920   38.7830 C   0  0  0  0  0  0  0  0  0  0  0  0
   40.9530   29.6330   37.8390 N   0  0  0  0  0  0  0  0  0  0  0  0
   41.7580   29.4660   36.7790 C   0  0  0  0  0  0  0  0  0  0  0  0
   42.8120   30.2650   36.6230 N   0  0  0  0  0  0  0  0  0  0  0  0
   40.1870   30.5820   39.8060 N   0  0  0  0  0  0  0  0  0  0  0  0
   39.4080   31.6000   40.0700 C   0  0  0  0  0  0  0  0  0  0  0  0
   38.6070   31.2360   41.1100 N   0  0  0  0  0  0  0  0  0  0  0  0
   38.9120   29.9680   41.4800 C   0  0  0  0  0  0  0  0  0  0  0  0
   38.4590   29.0840   42.4350 C   0  0  0  0  0  0  0  0  0  0  0  0
   37.5360   29.4490   43.2110 O   0  0  0  0  0  0  0  0  0  0  0  0
   39.0390   27.8500   42.4910 N   0  0  0  0  0  0  0  0  0  0  0  0
   40.0200   27.4790   41.6610 C   0  0  0  0  0  0  0  0  0  0  0  0
   40.5900   26.1860   41.7470 N   0  0  0  0  0  0  0  0  0  0  0  0
   40.4670   28.3290   40.7320 N   0  0  0  0  0  0  0  0  0  0  0  0
   39.9420   29.5470   40.6260 C   0  0  0  0  0  0  0  0  0  0  0  0
   39.2940   32.9810   39.4760 C   0  0  1  0  0  0  0  0  0  0  0  0
   38.1970   33.8380   40.1420 C   0  0  0  0  0  0  0  0  0  0  0  0
   39.6710   34.1420   40.2640 C   0  0  2  0  0  0  0  0  0  0  0  0
   40.1610   35.3620   39.7030 N   0  0  0  0  0  0  0  0  0  0  0  0
   40.5220   36.2610   40.7830 C   0  0  0  0  0  0  0  0  0  0  0  0
   41.7330   35.6360   41.3960 C   0  0  0  0  0  0  0  0  0  0  0  0
   42.3690   34.8610   40.2750 C   0  0  0  0  0  0  0  0  0  0  0  0
   41.4450   35.1010   39.0800 C   0  0  0  0  0  0  0  0  0  0  0  0
   38.5070   26.9770   43.5230 C   0  0  0  0  0  0  0  0  0  0  0  0
   37.6340   27.5890   44.3570 F   0  0  0  0  0  0  0  0  0  0  0  0
   39.6010   26.5910   44.3140 F   0  0  0  0  0  0  0  0  0  0  0  0
   37.9460   25.8250   42.9530 F   0  0  0  0  0  0  0  0  0  0  0  0
   43.9426   31.8738   37.3610 H   0  0  0  0  0  0  0  0  0  0  0  0
   42.4721   32.2250   39.3550 H   0  0  0  0  0  0  0  0  0  0  0  0
   41.5490   28.6748   36.0439 H   0  0  0  0  0  0  0  0  0  0  0  0
   41.3450   25.9121   41.1021 H   0  0  0  0  0  0  0  0  0  0  0  0
   40.2497   25.5192   42.4544 H   0  0  0  0  0  0  0  0  0  0  0  0
   39.5724   32.6562   38.4626 H   0  0  0  0  0  0  0  0  0  0  0  0
   37.5428   34.4795   39.5333 H   0  0  0  0  0  0  0  0  0  0  0  0
   37.3605   33.6625   40.8344 H   0  0  0  0  0  0  0  0  0  0  0  0
   40.3930   34.2608   41.0853 H   0  0  0  0  0  0  0  0  0  0  0  0
   40.7555   37.2631   40.3940 H   0  0  0  0  0  0  0  0  0  0  0  0
   39.7059   36.3948   41.5083 H   0  0  0  0  0  0  0  0  0  0  0  0
   42.4199   36.4082   41.7728 H   0  0  0  0  0  0  0  0  0  0  0  0
   41.4826   34.9967   42.2554 H   0  0  0  0  0  0  0  0  0  0  0  0
   43.3816   35.2368   40.0666 H   0  0  0  0  0  0  0  0  0  0  0  0
   42.4812   33.7928   40.5125 H   0  0  0  0  0  0  0  0  0  0  0  0
   41.3967   34.2123   38.4336 H   0  0  0  0  0  0  0  0  0  0  0  0
   41.7841   35.9206   38.4294 H   0  0  0  0  0  0  0  0  0  0  0  0
  1  2  2  0
  2  3  1  0
  3  7  1  0
  4  3  2  0
  5  4  1  0
  6  5  2  0
  6  1  1  0
  7  8  1  0
  7 17  1  0
  8  9  2  0
  9 10  1  0
 10 11  1  0
 11 13  1  0
 11 12  2  0
 13 26  1  0
 14 15  1  0
 14 13  1  0
 16 14  2  0
 17 16  1  0
 17 10  2  0
 18  8  1  0
 18 19  1  0
 18 20  1  0
 19 20  1  0
 21 20  1  0
 21 22  1  0
 22 23  1  0
 24 23  1  0
 25 21  1  0
 25 24  1  0
 26 28  1  0
 26 27  1  0
 29 26  1  0
  1 30  1  0
  2 31  1  0
  5 32  1  0
 15 33  1  0
 15 34  1  0
 18 35  1  6
 19 36  1  0
 19 37  1  0
 20 38  1  1
 22 39  1  0
 22 40  1  0
 23 41  1  0
 23 42  1  0
 24 43  1  0
 24 44  1  0
 25 45  1  0
 25 46  1  0
M  ISO  8  30  14  31  14  32  14  35  13  36  13  37  13  38  13  39  13
M  ISO  7  40  13  41  13  42  13  43  13  44  13  45  13  46  13
M  END
>  <minimizedAffinity>  (1) 
-6.3839426

>  <minimizedRMSD>  (1) 
1.77455604

$$$$
