
     RDKit          3D

 48 52  0  0  1  0  0  0  0  0999 V2000
   43.6020   27.9730   37.4150 C   0  0  0  0  0  0  0  0  0  0  0  0
   42.9090   28.6700   38.4180 C   0  0  0  0  0  0  0  0  0  0  0  0
   41.5320   28.5110   38.4610 C   0  0  0  0  0  0  0  0  0  0  0  0
   40.9500   27.6910   37.5310 N   0  0  0  0  0  0  0  0  0  0  0  0
   41.6480   27.0420   36.5880 C   0  0  0  0  0  0  0  0  0  0  0  0
   42.9770   27.1910   36.5400 N   0  0  0  0  0  0  0  0  0  0  0  0
   40.5960   29.0800   39.3460 N   0  0  0  0  0  0  0  0  0  0  0  0
   40.4170   30.3780   39.4650 C   0  0  0  0  0  0  0  0  0  0  0  0
   39.4440   30.5580   40.4000 N   0  0  0  0  0  0  0  0  0  0  0  0
   39.0290   29.3550   40.8540 C   0  0  0  0  0  0  0  0  0  0  0  0
   38.1000   28.9150   41.7730 C   0  0  0  0  0  0  0  0  0  0  0  0
   37.4170   29.7640   42.4030 O   0  0  0  0  0  0  0  0  0  0  0  0
   37.9700   27.5660   41.9530 N   0  0  0  0  0  0  0  0  0  0  0  0
   38.7030   26.6770   41.2780 C   0  0  0  0  0  0  0  0  0  0  0  0
   38.5320   25.2880   41.4880 N   0  0  0  0  0  0  0  0  0  0  0  0
   39.6100   27.0940   40.3830 N   0  0  0  0  0  0  0  0  0  0  0  0
   39.7810   28.3970   40.1650 C   0  0  0  0  0  0  0  0  0  0  0  0
   41.0760   31.5640   38.8110 C   0  0  1  0  0  0  0  0  0  0  0  0
   40.3000   32.0800   37.5810 C   0  0  0  0  0  0  0  0  0  0  0  0
   40.4360   32.8650   38.8670 C   0  0  2  0  0  0  0  0  0  0  0  0
   41.1110   34.1070   38.7470 N   0  0  0  0  0  0  0  0  0  0  0  0
   42.3670   34.0730   38.0840 C   0  0  0  0  0  0  0  0  0  0  0  0
   43.5800   33.9930   38.9400 C   0  0  0  0  0  0  0  0  0  0  0  0
   43.4850   34.7000   40.1850 N   0  0  0  0  0  0  0  0  0  0  0  0
   42.2530   34.2370   40.8420 C   0  0  0  0  0  0  0  0  0  0  0  0
   41.1220   34.8100   40.0070 C   0  0  0  0  0  0  0  0  0  0  0  0
   36.9770   27.1820   42.9310 C   0  0  0  0  0  0  0  0  0  0  0  0
   35.8320   27.9040   42.8630 F   0  0  0  0  0  0  0  0  0  0  0  0
   37.5330   27.4600   44.1960 F   0  0  0  0  0  0  0  0  0  0  0  0
   36.7100   25.8120   42.8620 F   0  0  0  0  0  0  0  0  0  0  0  0
   44.6952   28.0772   37.3513 H   0  0  0  0  0  0  0  0  0  0  0  0
   43.4353   29.3139   39.1380 H   0  0  0  0  0  0  0  0  0  0  0  0
   41.1342   26.3946   35.8622 H   0  0  0  0  0  0  0  0  0  0  0  0
   39.1041   24.6131   40.9606 H   0  0  0  0  0  0  0  0  0  0  0  0
   37.8355   24.9519   42.1683 H   0  0  0  0  0  0  0  0  0  0  0  0
   42.0981   31.2358   39.0509 H   0  0  0  0  0  0  0  0  0  0  0  0
   40.8362   32.3959   36.6740 H   0  0  0  0  0  0  0  0  0  0  0  0
   39.4733   31.7190   36.9515 H   0  0  0  0  0  0  0  0  0  0  0  0
   39.7800   33.2934   39.6391 H   0  0  0  0  0  0  0  0  0  0  0  0
   42.3693   33.1943   37.4223 H   0  0  0  0  0  0  0  0  0  0  0  0
   42.4444   35.0417   37.5687 H   0  0  0  0  0  0  0  0  0  0  0  0
   43.7729   32.9331   39.1621 H   0  0  0  0  0  0  0  0  0  0  0  0
   44.3917   34.4720   38.3728 H   0  0  0  0  0  0  0  0  0  0  0  0
   44.3024   34.4902   40.7755 H   0  0  0  0  0  0  0  0  0  0  0  0
   42.2089   33.1379   40.8501 H   0  0  0  0  0  0  0  0  0  0  0  0
   42.1974   34.5626   41.8912 H   0  0  0  0  0  0  0  0  0  0  0  0
   41.2886   35.8838   39.8361 H   0  0  0  0  0  0  0  0  0  0  0  0
   40.1593   34.6892   40.5254 H   0  0  0  0  0  0  0  0  0  0  0  0
  1  2  2  0
  2  3  1  0
  3  7  1  0
  4  3  2  0
  5  4  1  0
  6  5  2  0
  6  1  1  0
  7  8  1  0
  7 17  1  0
  8  9  2  0
  9 10  1  0
 10 11  1  0
 11 13  1  0
 11 12  2  0
 13 27  1  0
 14 15  1  0
 14 13  1  0
 16 14  2  0
 17 16  1  0
 17 10  2  0
 18 20  1  0
 18  8  1  0
 19 18  1  0
 19 20  1  0
 21 20  1  0
 21 26  1  0
 22 21  1  0
 22 23  1  0
 23 24  1  0
 24 25  1  0
 26 25  1  0
 27 29  1  0
 28 27  1  0
 30 27  1  0
  1 31  1  0
  2 32  1  0
  5 33  1  0
 15 34  1  0
 15 35  1  0
 18 36  1  6
 19 37  1  0
 19 38  1  0
 20 39  1  1
 22 40  1  0
 22 41  1  0
 23 42  1  0
 23 43  1  0
 24 44  1  0
 25 45  1  0
 25 46  1  0
 26 47  1  0
 26 48  1  0
M  ISO  8  31  14  32  14  33  14  36  13  37  13  38  13  39  13  40  13
M  ISO  8  41  13  42  13  43  13  44   5  45  13  46  13  47  13  48  13
M  END
>  <minimizedAffinity>  (1) 
-6.14602423

>  <minimizedRMSD>  (1) 
3.85830116

$$$$
