
     RDKit          3D

 37 40  0  0  1  0  0  0  0  0999 V2000
   43.5290   31.7360   38.0290 C   0  0  0  0  0  0  0  0  0  0  0  0
   42.8030   31.7320   39.2190 C   0  0  0  0  0  0  0  0  0  0  0  0
   41.6390   30.9960   39.2690 C   0  0  0  0  0  0  0  0  0  0  0  0
   41.2840   30.3210   38.1370 N   0  0  0  0  0  0  0  0  0  0  0  0
   41.9990   30.3410   37.0060 C   0  0  0  0  0  0  0  0  0  0  0  0
   43.1180   31.0490   36.9560 N   0  0  0  0  0  0  0  0  0  0  0  0
   40.7320   30.8230   40.3240 N   0  0  0  0  0  0  0  0  0  0  0  0
   40.0770   31.8160   40.8810 C   0  0  0  0  0  0  0  0  0  0  0  0
   39.2910   31.2830   41.8550 N   0  0  0  0  0  0  0  0  0  0  0  0
   39.4750   29.9470   41.8890 C   0  0  0  0  0  0  0  0  0  0  0  0
   38.9720   28.9070   42.6370 C   0  0  0  0  0  0  0  0  0  0  0  0
   38.1250   29.1540   43.5420 O   0  0  0  0  0  0  0  0  0  0  0  0
   39.4080   27.6510   42.3710 N   0  0  0  0  0  0  0  0  0  0  0  0
   40.3110   27.3920   41.4050 C   0  0  0  0  0  0  0  0  0  0  0  0
   40.7510   26.0730   41.1420 N   0  0  0  0  0  0  0  0  0  0  0  0
   40.8110   28.4000   40.6680 N   0  0  0  0  0  0  0  0  0  0  0  0
   40.4090   29.6530   40.8960 C   0  0  0  0  0  0  0  0  0  0  0  0
   40.0810   33.3070   40.6400 C   0  0  1  0  0  0  0  0  0  0  0  0
   40.1220   33.6790   39.1450 C   0  0  0  0  0  0  0  0  0  0  0  0
   38.9380   33.9580   40.0410 C   0  0  1  0  0  0  0  0  0  0  0  0
   37.6650   33.3030   39.6600 C   0  0  0  0  0  0  0  0  0  0  0  0
   37.8150   32.4390   38.5640 F   0  0  0  0  0  0  0  0  0  0  0  0
   37.0470   32.6930   40.7130 F   0  0  0  0  0  0  0  0  0  0  0  0
   36.7910   34.2790   39.1860 F   0  0  0  0  0  0  0  0  0  0  0  0
   38.8470   26.5970   43.1810 C   0  0  0  0  0  0  0  0  0  0  0  0
   39.2640   26.6520   44.4800 F   0  0  0  0  0  0  0  0  0  0  0  0
   39.3200   25.3840   42.6710 F   0  0  0  0  0  0  0  0  0  0  0  0
   37.4440   26.5910   43.1080 F   0  0  0  0  0  0  0  0  0  0  0  0
   44.4611   32.3171   37.9703 H   0  0  0  0  0  0  0  0  0  0  0  0
   43.1498   32.3008   40.0943 H   0  0  0  0  0  0  0  0  0  0  0  0
   41.6608   29.7748   36.1257 H   0  0  0  0  0  0  0  0  0  0  0  0
   41.4422   25.8993   40.3983 H   0  0  0  0  0  0  0  0  0  0  0  0
   40.3801   25.2866   41.6942 H   0  0  0  0  0  0  0  0  0  0  0  0
   40.6529   33.5273   41.5535 H   0  0  0  0  0  0  0  0  0  0  0  0
   40.0671   32.8978   38.3725 H   0  0  0  0  0  0  0  0  0  0  0  0
   40.7798   34.2654   38.4867 H   0  0  0  0  0  0  0  0  0  0  0  0
   38.3614   34.8264   40.3923 H   0  0  0  0  0  0  0  0  0  0  0  0
  1  2  2  0
  2  3  1  0
  3  7  1  0
  4  3  2  0
  5  4  1  0
  6  5  2  0
  6  1  1  0
  7  8  1  0
  7 17  1  0
  8  9  2  0
  9 10  1  0
 10 11  1  0
 11 12  2  0
 13 11  1  0
 13 25  1  0
 14 13  1  0
 15 14  1  0
 16 17  1  0
 16 14  2  0
 17 10  2  0
 18  8  1  0
 19 20  1  0
 19 18  1  0
 20 18  1  0
 21 20  1  0
 21 23  1  0
 22 21  1  0
 24 21  1  0
 25 26  1  0
 27 25  1  0
 28 25  1  0
  1 29  1  0
  2 30  1  0
  5 31  1  0
 15 32  1  0
 15 33  1  0
 18 34  1  1
 19 35  1  0
 19 36  1  0
 20 37  1  1
M  ISO  7  29  14  30  14  31  14  34  13  35  13  36  13  37  13
M  END
>  <minimizedAffinity>  (1) 
-6.09051847

>  <minimizedRMSD>  (1) 
1.51839161

$$$$
