
     RDKit          3D

 37 40  0  0  1  0  0  0  0  0999 V2000
   43.0320   31.3000   37.5280 C   0  0  0  0  0  0  0  0  0  0  0  0
   42.3040   31.4780   38.7130 C   0  0  0  0  0  0  0  0  0  0  0  0
   41.1710   30.7100   38.8850 C   0  0  0  0  0  0  0  0  0  0  0  0
   40.8400   29.8300   37.8860 N   0  0  0  0  0  0  0  0  0  0  0  0
   41.5600   29.6890   36.7680 C   0  0  0  0  0  0  0  0  0  0  0  0
   42.6530   30.4260   36.5950 N   0  0  0  0  0  0  0  0  0  0  0  0
   40.2640   30.6820   39.9650 N   0  0  0  0  0  0  0  0  0  0  0  0
   39.5720   31.7240   40.3450 C   0  0  0  0  0  0  0  0  0  0  0  0
   38.8040   31.3360   41.4020 N   0  0  0  0  0  0  0  0  0  0  0  0
   39.0450   30.0270   41.6620 C   0  0  0  0  0  0  0  0  0  0  0  0
   38.5820   29.1110   42.5830 C   0  0  0  0  0  0  0  0  0  0  0  0
   37.7300   29.4720   43.4340 O   0  0  0  0  0  0  0  0  0  0  0  0
   39.0820   27.8450   42.5230 N   0  0  0  0  0  0  0  0  0  0  0  0
   39.9990   27.4670   41.6050 C   0  0  0  0  0  0  0  0  0  0  0  0
   40.4860   26.1430   41.5780 N   0  0  0  0  0  0  0  0  0  0  0  0
   40.4470   28.3510   40.7140 N   0  0  0  0  0  0  0  0  0  0  0  0
   39.9940   29.6020   40.7270 C   0  0  0  0  0  0  0  0  0  0  0  0
   39.5230   33.1530   39.8570 C   0  0  1  0  0  0  0  0  0  0  0  0
   38.1000   33.7410   39.8510 C   0  0  0  0  0  0  0  0  0  0  0  0
   39.1780   34.2190   40.7850 C   0  0  2  0  0  0  0  0  0  0  0  0
   39.8530   35.5160   40.5550 C   0  0  0  0  0  0  0  0  0  0  0  0
   40.1640   36.4020   41.4190 O   0  0  0  0  0  0  0  0  0  0  0  0
   40.2670   35.9810   39.3130 O   0  0  0  0  0  0  0  0  0  0  0  0
   38.5570   26.9320   43.5160 C   0  0  0  0  0  0  0  0  0  0  0  0
   37.6500   27.5050   44.3550 F   0  0  0  0  0  0  0  0  0  0  0  0
   39.6460   26.5640   44.3370 F   0  0  0  0  0  0  0  0  0  0  0  0
   38.0540   25.7750   42.9190 F   0  0  0  0  0  0  0  0  0  0  0  0
   43.9407   31.8977   37.3635 H   0  0  0  0  0  0  0  0  0  0  0  0
   42.6241   32.2024   39.4764 H   0  0  0  0  0  0  0  0  0  0  0  0
   41.2502   28.9683   35.9969 H   0  0  0  0  0  0  0  0  0  0  0  0
   41.1848   25.8656   40.8740 H   0  0  0  0  0  0  0  0  0  0  0  0
   40.1427   25.4539   42.2623 H   0  0  0  0  0  0  0  0  0  0  0  0
   40.3567   33.0284   39.1503 H   0  0  0  0  0  0  0  0  0  0  0  0
   37.7619   34.3751   39.0182 H   0  0  0  0  0  0  0  0  0  0  0  0
   37.0776   33.3482   39.9525 H   0  0  0  0  0  0  0  0  0  0  0  0
   39.1961   34.3535   41.8766 H   0  0  0  0  0  0  0  0  0  0  0  0
   40.7133   36.8615   39.2377 H   0  0  0  0  0  0  0  0  0  0  0  0
  1  2  2  0
  2  3  1  0
  3  7  1  0
  4  3  2  0
  5  4  1  0
  6  5  2  0
  6  1  1  0
  7  8  1  0
  7 17  1  0
  8  9  2  0
  9 10  1  0
 10 11  1  0
 11 12  2  0
 13 11  1  0
 13 24  1  0
 14 13  1  0
 15 14  1  0
 16 17  1  0
 16 14  2  0
 17 10  2  0
 18  8  1  0
 18 20  1  0
 19 18  1  0
 19 20  1  0
 21 20  1  0
 21 22  2  0
 23 21  1  0
 24 26  1  0
 24 25  1  0
 27 24  1  0
  1 28  1  0
  2 29  1  0
  5 30  1  0
 15 31  1  0
 15 32  1  0
 18 33  1  6
 19 34  1  0
 19 35  1  0
 20 36  1  1
 23 37  1  0
M  ISO  8  28  14  29  14  30  14  33  13  34  13  35  13  36  13  37   3
M  END
>  <minimizedAffinity>  (1) 
-6.00654268

>  <minimizedRMSD>  (1) 
1.40062332

$$$$
