
     RDKit          3D

 36 39  0  0  1  0  0  0  0  0999 V2000
   42.5640   31.3320   37.1430 C   0  0  0  0  0  0  0  0  0  0  0  0
   41.7990   31.4360   38.2940 C   0  0  0  0  0  0  0  0  0  0  0  0
   40.9510   30.4030   38.6180 C   0  0  0  0  0  0  0  0  0  0  0  0
   40.9310   29.3320   37.7630 N   0  0  0  0  0  0  0  0  0  0  0  0
   41.6800   29.2540   36.6580 C   0  0  0  0  0  0  0  0  0  0  0  0
   42.4970   30.2600   36.3510 N   0  0  0  0  0  0  0  0  0  0  0  0
   40.0810   30.2550   39.7060 N   0  0  0  0  0  0  0  0  0  0  0  0
   39.0850   31.0860   39.9440 C   0  0  0  0  0  0  0  0  0  0  0  0
   38.4510   30.6370   41.0620 N   0  0  0  0  0  0  0  0  0  0  0  0
   39.0710   29.5230   41.5070 C   0  0  0  0  0  0  0  0  0  0  0  0
   38.8910   28.6520   42.5600 C   0  0  0  0  0  0  0  0  0  0  0  0
   37.9440   28.8550   43.3680 O   0  0  0  0  0  0  0  0  0  0  0  0
   39.7550   27.6060   42.6730 N   0  0  0  0  0  0  0  0  0  0  0  0
   40.7600   27.3960   41.8120 C   0  0  0  0  0  0  0  0  0  0  0  0
   41.6350   26.2950   41.9660 N   0  0  0  0  0  0  0  0  0  0  0  0
   40.9400   28.2380   40.7880 N   0  0  0  0  0  0  0  0  0  0  0  0
   40.1290   29.2720   40.6280 C   0  0  0  0  0  0  0  0  0  0  0  0
   38.6060   32.3370   39.2580 C   0  0  1  0  0  0  0  0  0  0  0  0
   37.5220   32.0770   38.1960 C   0  0  0  0  0  0  0  0  0  0  0  0
   37.2550   32.8220   39.4820 C   0  0  2  0  0  0  0  0  0  0  0  0
   36.9150   34.2170   39.4400 N   0  0  0  0  0  0  0  0  0  0  0  0
   39.5100   26.7260   43.8010 C   0  0  0  0  0  0  0  0  0  0  0  0
   38.4710   27.1350   44.5870 F   0  0  0  0  0  0  0  0  0  0  0  0
   40.6500   26.7780   44.6120 F   0  0  0  0  0  0  0  0  0  0  0  0
   39.3260   25.3990   43.3780 F   0  0  0  0  0  0  0  0  0  0  0  0
   43.2439   32.1543   36.8754 H   0  0  0  0  0  0  0  0  0  0  0  0
   41.8687   32.3269   38.9355 H   0  0  0  0  0  0  0  0  0  0  0  0
   41.6219   28.3677   36.0090 H   0  0  0  0  0  0  0  0  0  0  0  0
   42.4023   26.1491   41.2945 H   0  0  0  0  0  0  0  0  0  0  0  0
   41.5048   25.6393   42.7496 H   0  0  0  0  0  0  0  0  0  0  0  0
   39.5859   32.8332   39.3174 H   0  0  0  0  0  0  0  0  0  0  0  0
   37.5423   32.6116   37.2348 H   0  0  0  0  0  0  0  0  0  0  0  0
   37.1040   31.1974   37.6846 H   0  0  0  0  0  0  0  0  0  0  0  0
   36.5512   32.7056   40.3193 H   0  0  0  0  0  0  0  0  0  0  0  0
   36.8270   34.5780   40.4006 H   0  0  0  0  0  0  0  0  0  0  0  0
   37.6542   34.7358   38.9446 H   0  0  0  0  0  0  0  0  0  0  0  0
  1  2  2  0
  2  3  1  0
  3  7  1  0
  4  3  2  0
  5  4  1  0
  6  5  2  0
  6  1  1  0
  7  8  1  0
  7 17  1  0
  8  9  2  0
  9 10  1  0
 10 11  1  0
 11 13  1  0
 11 12  2  0
 13 22  1  0
 14 15  1  0
 14 13  1  0
 16 14  2  0
 17 16  1  0
 17 10  2  0
 18 20  1  0
 18  8  1  0
 19 18  1  0
 19 20  1  0
 21 20  1  0
 22 23  1  0
 22 24  1  0
 25 22  1  0
  1 26  1  0
  2 27  1  0
  5 28  1  0
 15 29  1  0
 15 30  1  0
 18 31  1  6
 19 32  1  0
 19 33  1  0
 20 34  1  1
 21 35  1  0
 21 36  1  0
M  ISO  8  26  14  27  14  28  14  31  13  32  13  33  13  34  13  35   5
M  ISO  1  36   5
M  END
>  <minimizedAffinity>  (1) 
-5.96667957

>  <minimizedRMSD>  (1) 
0.243478686

$$$$
