
     RDKit          3D

 20 21  0  0  0  0  0  0  0  0999 V2000
   37.8750   30.0590   41.3200 C   0  0  0  0  0  0  0  0  0  0  0  0
   38.9710   30.3670   42.1400 C   0  0  0  0  0  0  0  0  0  0  0  0
   38.7780   29.5760   43.2860 C   0  0  0  0  0  0  0  0  0  0  0  0
   37.6160   28.8670   43.0880 C   0  0  0  0  0  0  0  0  0  0  0  0
   37.1170   29.1710   41.9360 O   0  0  0  0  0  0  0  0  0  0  0  0
   37.3050   32.0220   39.8460 C   0  0  0  0  0  0  0  0  0  0  0  0
   37.7140   30.6930   40.0120 C   0  0  0  0  0  0  0  0  0  0  0  0
   37.9840   29.9370   38.8610 C   0  0  0  0  0  0  0  0  0  0  0  0
   37.8360   30.5280   37.6300 N   0  0  0  0  0  0  0  0  0  0  0  0
   37.4380   31.8140   37.5180 C   0  0  0  0  0  0  0  0  0  0  0  0
   37.1800   32.5350   38.6170 N   0  0  0  0  0  0  0  0  0  0  0  0
   37.1210   27.9210   44.1330 C   0  0  0  0  0  0  0  0  0  0  0  0
   36.6300   28.5860   45.2360 F   0  0  0  0  0  0  0  0  0  0  0  0
   38.1650   27.0640   44.4940 F   0  0  0  0  0  0  0  0  0  0  0  0
   36.0770   27.1480   43.6420 F   0  0  0  0  0  0  0  0  0  0  0  0
   39.7935   31.0675   41.9333 H   0  0  0  0  0  0  0  0  0  0  0  0
   39.4304   29.5324   44.1705 H   0  0  0  0  0  0  0  0  0  0  0  0
   37.0865   32.6442   40.7264 H   0  0  0  0  0  0  0  0  0  0  0  0
   38.3086   28.8892   38.9432 H   0  0  0  0  0  0  0  0  0  0  0  0
   37.3256   32.2696   36.5231 H   0  0  0  0  0  0  0  0  0  0  0  0
  1  5  1  0
  1  2  2  0
  2  3  1  0
  4  3  2  0
  4 12  1  0
  5  4  1  0
  6  7  2  0
  7  1  1  0
  8  7  1  0
  9  8  2  0
 10  9  1  0
 10 11  2  0
 11  6  1  0
 12 14  1  0
 12 13  1  0
 15 12  1  0
  2 16  1  0
  3 17  1  0
  6 18  1  0
  8 19  1  0
 10 20  1  0
M  ISO  5  16  14  17  14  18  14  19  14  20  14
M  END
>  <minimizedAffinity>  (1) 
-4.78384686

>  <minimizedRMSD>  (1) 
3.49264669

$$$$
