
     RDKit          3D

 29 30  0  0  0  0  0  0  0  0999 V2000
   38.0340   29.0240   42.1180 C   0  0  0  0  0  0  0  0  0  0  0  0
   37.8620   28.8050   43.4920 C   0  0  0  0  0  0  0  0  0  0  0  0
   37.9550   27.4390   43.6800 C   0  0  0  0  0  0  0  0  0  0  0  0
   38.1730   26.9070   42.4430 C   0  0  0  0  0  0  0  0  0  0  0  0
   38.2180   27.8470   41.5390 O   0  0  0  0  0  0  0  0  0  0  0  0
   39.1330   31.1980   41.5640 C   0  0  0  0  0  0  0  0  0  0  0  0
   38.0030   30.3520   41.5030 C   0  0  0  0  0  0  0  0  0  0  0  0
   36.8520   30.7930   40.8560 C   0  0  0  0  0  0  0  0  0  0  0  0
   36.8600   32.0370   40.2980 N   0  0  0  0  0  0  0  0  0  0  0  0
   37.9560   32.8300   40.3700 C   0  0  0  0  0  0  0  0  0  0  0  0
   39.0830   32.4120   40.9980 N   0  0  0  0  0  0  0  0  0  0  0  0
   38.3490   25.4550   42.0950 C   0  0  0  0  0  0  0  0  0  0  0  0
   39.3800   24.8580   43.0200 C   0  0  0  0  0  0  0  0  0  0  0  0
   37.0250   24.7180   42.1490 C   0  0  0  0  0  0  0  0  0  0  0  0
   38.8460   25.3480   40.6490 C   0  0  0  0  0  0  0  0  0  0  0  0
   37.6879   29.5676   44.2654 H   0  0  0  0  0  0  0  0  0  0  0  0
   37.8706   26.8931   44.6313 H   0  0  0  0  0  0  0  0  0  0  0  0
   40.0485   30.8623   42.0731 H   0  0  0  0  0  0  0  0  0  0  0  0
   35.9586   30.1540   40.7964 H   0  0  0  0  0  0  0  0  0  0  0  0
   37.9314   33.8296   39.9115 H   0  0  0  0  0  0  0  0  0  0  0  0
   39.0802   25.0316   44.0640 H   0  0  0  0  0  0  0  0  0  0  0  0
   39.4558   23.7763   42.8353 H   0  0  0  0  0  0  0  0  0  0  0  0
   40.3559   25.3308   42.8353 H   0  0  0  0  0  0  0  0  0  0  0  0
   36.7371   24.5577   43.1985 H   0  0  0  0  0  0  0  0  0  0  0  0
   36.2519   25.3156   41.6438 H   0  0  0  0  0  0  0  0  0  0  0  0
   37.1255   23.7460   41.6438 H   0  0  0  0  0  0  0  0  0  0  0  0
   39.9214   25.1165   40.6471 H   0  0  0  0  0  0  0  0  0  0  0  0
   38.2976   24.5473   40.1311 H   0  0  0  0  0  0  0  0  0  0  0  0
   38.6757   26.3034   40.1311 H   0  0  0  0  0  0  0  0  0  0  0  0
  1  2  2  0
  2  3  1  0
  4  3  2  0
  5  1  1  0
  5  4  1  0
  7  6  2  0
  7  1  1  0
  8  7  1  0
  9 10  1  0
  9  8  2  0
 10 11  2  0
 11  6  1  0
 12 14  1  0
 12  4  1  0
 12 13  1  0
 15 12  1  0
  2 16  1  0
  3 17  1  0
  6 18  1  0
  8 19  1  0
 10 20  1  0
 13 21  1  0
 13 22  1  0
 13 23  1  0
 14 24  1  0
 14 25  1  0
 14 26  1  0
 15 27  1  0
 15 28  1  0
 15 29  1  0
M  ISO  8  16  14  17  14  18  14  19  14  20  14  21   8  22   8  23   8
M  ISO  6  24   8  25   8  26   8  27   8  28   8  29   8
M  END
>  <minimizedAffinity>  (1) 
-4.5407629

>  <minimizedRMSD>  (1) 
2.82262945

$$$$
