
     RDKit          3D

 23 24  0  0  0  0  0  0  0  0999 V2000
   38.2240   30.2300   41.9300 C   0  0  0  0  0  0  0  0  0  0  0  0
   39.2900   29.6520   42.6070 C   0  0  0  0  0  0  0  0  0  0  0  0
   38.8170   28.4740   43.1620 C   0  0  0  0  0  0  0  0  0  0  0  0
   37.5050   28.4030   42.7960 C   0  0  0  0  0  0  0  0  0  0  0  0
   37.1770   29.4450   42.0730 O   0  0  0  0  0  0  0  0  0  0  0  0
   39.5180   32.2710   41.2340 C   0  0  0  0  0  0  0  0  0  0  0  0
   38.3320   31.5010   41.2050 C   0  0  0  0  0  0  0  0  0  0  0  0
   37.2620   31.9790   40.4700 C   0  0  0  0  0  0  0  0  0  0  0  0
   37.3700   33.1610   39.8000 N   0  0  0  0  0  0  0  0  0  0  0  0
   38.5370   33.8730   39.8560 C   0  0  0  0  0  0  0  0  0  0  0  0
   39.5800   33.4220   40.5620 N   0  0  0  0  0  0  0  0  0  0  0  0
   36.5990   27.2720   43.1870 C   0  0  0  0  0  0  0  0  0  0  0  0
   37.0150   26.0140   42.4560 C   0  0  0  0  0  0  0  0  0  0  0  0
   40.3116   30.0519   42.6870 H   0  0  0  0  0  0  0  0  0  0  0  0
   39.3800   27.7497   43.7690 H   0  0  0  0  0  0  0  0  0  0  0  0
   40.3878   31.9215   41.8096 H   0  0  0  0  0  0  0  0  0  0  0  0
   36.3244   31.4054   40.4263 H   0  0  0  0  0  0  0  0  0  0  0  0
   38.6185   34.8270   39.3144 H   0  0  0  0  0  0  0  0  0  0  0  0
   36.6687   27.1052   44.2720 H   0  0  0  0  0  0  0  0  0  0  0  0
   35.5623   27.5246   42.9197 H   0  0  0  0  0  0  0  0  0  0  0  0
   37.2731   25.2335   43.1869 H   0  0  0  0  0  0  0  0  0  0  0  0
   36.1844   25.6650   41.8248 H   0  0  0  0  0  0  0  0  0  0  0  0
   37.8899   26.2290   41.8248 H   0  0  0  0  0  0  0  0  0  0  0  0
  1  5  1  0
  1  2  2  0
  2  3  1  0
  4  3  2  0
  4 12  1  0
  5  4  1  0
  7  6  2  0
  7  1  1  0
  8  7  1  0
  9 10  1  0
  9  8  2  0
 10 11  2  0
 11  6  1  0
 13 12  1  0
  2 14  1  0
  3 15  1  0
  6 16  1  0
  8 17  1  0
 10 18  1  0
 12 19  1  0
 12 20  1  0
 13 21  1  0
 13 22  1  0
 13 23  1  0
M  ISO  8  14  14  15  14  16  14  17  14  18  14  19   8  20   8  21   8
M  ISO  2  22   8  23   8
M  END
>  <minimizedAffinity>  (1) 
-4.094841

>  <minimizedRMSD>  (1) 
3.5471096

$$$$
