
     RDKit          3D

 20 21  0  0  0  0  0  0  0  0999 V2000
   37.5340   29.7660   41.9110 C   0  0  0  0  0  0  0  0  0  0  0  0
   37.3570   28.3880   41.8070 C   0  0  0  0  0  0  0  0  0  0  0  0
   36.2810   27.9350   41.0410 C   0  0  0  0  0  0  0  0  0  0  0  0
   35.4670   28.8520   40.4400 N   0  0  0  0  0  0  0  0  0  0  0  0
   35.6780   30.1790   40.5690 C   0  0  0  0  0  0  0  0  0  0  0  0
   36.7090   30.6170   41.3020 N   0  0  0  0  0  0  0  0  0  0  0  0
   38.2300   27.4230   42.4500 C   0  0  0  0  0  0  0  0  0  0  0  0
   39.0520   27.7720   43.5330 C   0  0  0  0  0  0  0  0  0  0  0  0
   39.7470   26.6350   43.9070 C   0  0  0  0  0  0  0  0  0  0  0  0
   39.3180   25.6700   43.0450 C   0  0  0  0  0  0  0  0  0  0  0  0
   38.4390   26.1580   42.2140 O   0  0  0  0  0  0  0  0  0  0  0  0
   39.7530   24.2470   43.0120 C   0  0  0  0  0  0  0  0  0  0  0  0
   38.3707   30.1590   42.5072 H   0  0  0  0  0  0  0  0  0  0  0  0
   36.0923   26.8577   40.9237 H   0  0  0  0  0  0  0  0  0  0  0  0
   35.0066   30.8964   40.0746 H   0  0  0  0  0  0  0  0  0  0  0  0
   39.1295   28.7656   43.9985 H   0  0  0  0  0  0  0  0  0  0  0  0
   40.4819   26.5328   44.7191 H   0  0  0  0  0  0  0  0  0  0  0  0
   39.8669   23.8745   44.0407 H   0  0  0  0  0  0  0  0  0  0  0  0
   38.9979   23.6449   42.4855 H   0  0  0  0  0  0  0  0  0  0  0  0
   40.7157   24.1700   42.4855 H   0  0  0  0  0  0  0  0  0  0  0  0
  2  1  2  0
  2  7  1  0
  3  2  1  0
  4  5  1  0
  4  3  2  0
  5  6  2  0
  6  1  1  0
  7  8  2  0
  8  9  1  0
 10  9  2  0
 11  7  1  0
 11 10  1  0
 12 10  1  0
  1 13  1  0
  3 14  1  0
  5 15  1  0
  8 16  1  0
  9 17  1  0
 12 18  1  0
 12 19  1  0
 12 20  1  0
M  ISO  8  13  14  14  14  15  14  16  14  17  14  18   8  19   8  20   8
M  END
>  <minimizedAffinity>  (1) 
-3.87005568

>  <minimizedRMSD>  (1) 
1.07621253

$$$$
