
     RDKit          3D

 18 19  0  0  0  0  0  0  0  0999 V2000
   37.9760   29.1810   39.9750 C   0  0  0  0  0  0  0  0  0  0  0  0
   37.2950   28.5280   41.0270 C   0  0  0  0  0  0  0  0  0  0  0  0
   35.9200   28.6960   41.1390 C   0  0  0  0  0  0  0  0  0  0  0  0
   35.2780   29.4900   40.2240 N   0  0  0  0  0  0  0  0  0  0  0  0
   35.9630   30.0990   39.2320 C   0  0  0  0  0  0  0  0  0  0  0  0
   37.3060   29.9480   39.1050 N   0  0  0  0  0  0  0  0  0  0  0  0
   38.0160   27.6940   41.9780 C   0  0  0  0  0  0  0  0  0  0  0  0
   38.3810   28.1190   43.2640 C   0  0  0  0  0  0  0  0  0  0  0  0
   39.0430   27.0580   43.8580 C   0  0  0  0  0  0  0  0  0  0  0  0
   39.0480   26.0640   42.9240 C   0  0  0  0  0  0  0  0  0  0  0  0
   38.4480   26.4510   41.8410 O   0  0  0  0  0  0  0  0  0  0  0  0
   39.7160   24.4030   42.9630 S   0  0  0  0  0  0  0  0  0  0  0  0
   39.0641   29.0585   39.8698 H   0  0  0  0  0  0  0  0  0  0  0  0
   35.3581   28.2020   41.9454 H   0  0  0  0  0  0  0  0  0  0  0  0
   35.4214   30.7303   38.5122 H   0  0  0  0  0  0  0  0  0  0  0  0
   38.1804   29.1030   43.7128 H   0  0  0  0  0  0  0  0  0  0  0  0
   39.4739   27.0239   44.8695 H   0  0  0  0  0  0  0  0  0  0  0  0
   39.8759   24.0055   44.2643 H   0  0  0  0  0  0  0  0  0  0  0  0
  1  2  2  0
  2  3  1  0
  2  7  1  0
  4  3  2  0
  5  4  1  0
  6  5  2  0
  6  1  1  0
  7  8  2  0
  8  9  1  0
 10 12  1  0
 10  9  2  0
 11  7  1  0
 11 10  1  0
  1 13  1  0
  3 14  1  0
  5 15  1  0
  8 16  1  0
  9 17  1  0
 12 18  1  0
M  ISO  6  13  14  14  14  15  14  16  14  17  14  18  11
M  END
>  <minimizedAffinity>  (1) 
-3.41335869

>  <minimizedRMSD>  (1) 
1.59333038

$$$$
