
     RDKit          3D

 34 36  0  0  0  0  0  0  0  0999 V2000
   38.1200   28.6330   39.1780 C   0  0  0  0  0  0  0  0  0  0  0  0
   36.9930   28.0620   39.7870 C   0  0  0  0  0  0  0  0  0  0  0  0
   36.2410   28.8690   40.6030 C   0  0  0  0  0  0  0  0  0  0  0  0
   36.5690   30.1650   40.8140 N   0  0  0  0  0  0  0  0  0  0  0  0
   37.6850   30.6890   40.1960 C   0  0  0  0  0  0  0  0  0  0  0  0
   38.4620   29.9200   39.3760 N   0  0  0  0  0  0  0  0  0  0  0  0
   38.1120   32.0310   40.3530 N   0  0  0  0  0  0  0  0  0  0  0  0
   37.4260   32.9210   39.6200 C   0  0  0  0  0  0  0  0  0  0  0  0
   37.7280   34.2710   39.6670 C   0  0  0  0  0  0  0  0  0  0  0  0
   38.7580   34.6650   40.4950 C   0  0  0  0  0  0  0  0  0  0  0  0
   39.0370   35.8890   40.5430 O   0  0  0  0  0  0  0  0  0  0  0  0
   39.4070   33.7330   41.2030 N   0  0  0  0  0  0  0  0  0  0  0  0
   39.1100   32.4170   41.1540 C   0  0  0  0  0  0  0  0  0  0  0  0
   39.7070   31.5420   41.8100 O   0  0  0  0  0  0  0  0  0  0  0  0
   36.6520   26.6710   39.5530 C   0  0  0  0  0  0  0  0  0  0  0  0
   35.9100   26.2250   38.4500 C   0  0  0  0  0  0  0  0  0  0  0  0
   35.7990   24.8540   38.5870 C   0  0  0  0  0  0  0  0  0  0  0  0
   36.4780   24.5390   39.7630 C   0  0  0  0  0  0  0  0  0  0  0  0
   36.9630   25.6160   40.3020 O   0  0  0  0  0  0  0  0  0  0  0  0
   36.5830   23.1990   40.2430 N   0  0  0  0  0  0  0  0  0  0  0  0
   37.8100   22.7530   40.7970 C   0  0  0  0  0  0  0  0  0  0  0  0
   38.5530   23.5430   41.4890 N   0  0  0  0  0  0  0  0  0  0  0  0
   38.2350   21.3890   40.5830 N   0  0  0  0  0  0  0  0  0  0  0  0
   38.2650   24.5170   41.6520 H   0  0  0  0  0  0  0  0  0  0  0  0
   38.7431   28.0107   38.5189 H   0  0  0  0  0  0  0  0  0  0  0  0
   35.3507   28.4529   41.0972 H   0  0  0  0  0  0  0  0  0  0  0  0
   36.6096   32.5719   38.9706 H   0  0  0  0  0  0  0  0  0  0  0  0
   37.1673   35.0023   39.0663 H   0  0  0  0  0  0  0  0  0  0  0  0
   40.1749   34.0363   41.8188 H   0  0  0  0  0  0  0  0  0  0  0  0
   35.4985   26.8426   37.6381 H   0  0  0  0  0  0  0  0  0  0  0  0
   35.2830   24.1574   37.9099 H   0  0  0  0  0  0  0  0  0  0  0  0
   35.7755   22.5620   40.1876 H   0  0  0  0  0  0  0  0  0  0  0  0
   39.1249   21.0582   40.9824 H   0  0  0  0  0  0  0  0  0  0  0  0
   37.6481   20.7473   40.0311 H   0  0  0  0  0  0  0  0  0  0  0  0
  1  6  2  0
  1  2  1  0
  2  3  2  0
  3  4  1  0
  5  7  1  0
  5  4  2  0
  6  5  1  0
  7 13  1  0
  8  9  2  0
  8  7  1  0
  9 10  1  0
 10 11  2  0
 10 12  1  0
 13 12  1  0
 13 14  2  0
 15  2  1  0
 15 19  1  0
 16 17  1  0
 16 15  2  0
 17 18  2  0
 18 20  1  0
 18 19  1  0
 20 21  1  0
 21 22  2  0
 22 24  1  0
 23 21  1  0
  1 25  1  0
  3 26  1  0
  8 27  1  0
  9 28  1  0
 12 29  1  0
 16 30  1  0
 17 31  1  0
 20 32  1  0
 23 33  1  0
 23 34  1  0
M  ISO  7  25  14  26  14  27  14  28  14  29   9  30  14  31  14
M  END
>  <minimizedAffinity>  (1) 
-5.95807505

>  <minimizedRMSD>  (1) 
9.12054253

$$$$
