
     RDKit          3D

 40 43  0  0  0  0  0  0  0  0999 V2000
   37.2230   26.0540   41.6260 C   0  0  0  0  0  0  0  0  0  0  0  0
   37.4160   27.1640   40.7940 C   0  0  0  0  0  0  0  0  0  0  0  0
   37.0950   27.0320   39.4680 C   0  0  0  0  0  0  0  0  0  0  0  0
   36.6090   25.8560   39.0060 N   0  0  0  0  0  0  0  0  0  0  0  0
   36.4260   24.8010   39.8040 C   0  0  0  0  0  0  0  0  0  0  0  0
   36.7340   24.9060   41.1070 N   0  0  0  0  0  0  0  0  0  0  0  0
   35.9210   23.4700   39.5060 C   0  0  0  0  0  0  0  0  0  0  0  0
   34.5750   23.1330   39.4330 C   0  0  0  0  0  0  0  0  0  0  0  0
   34.0760   21.8900   39.1540 C   0  0  0  0  0  0  0  0  0  0  0  0
   34.9490   20.8570   38.9200 C   0  0  0  0  0  0  0  0  0  0  0  0
   36.2980   21.1100   38.9730 C   0  0  0  0  0  0  0  0  0  0  0  0
   37.1150   20.0330   38.7280 C   0  0  0  0  0  0  0  0  0  0  0  0
   38.4810   20.1960   38.7620 C   0  0  0  0  0  0  0  0  0  0  0  0
   38.9720   21.4520   39.0440 C   0  0  0  0  0  0  0  0  0  0  0  0
   38.0940   22.4860   39.2790 C   0  0  0  0  0  0  0  0  0  0  0  0
   36.7270   22.3840   39.2590 C   0  0  0  0  0  0  0  0  0  0  0  0
   37.9350   28.4190   41.3390 C   0  0  0  0  0  0  0  0  0  0  0  0
   38.3860   28.5600   42.6550 C   0  0  0  0  0  0  0  0  0  0  0  0
   38.7890   29.8820   42.7750 C   0  0  0  0  0  0  0  0  0  0  0  0
   38.5630   30.4580   41.5360 C   0  0  0  0  0  0  0  0  0  0  0  0
   38.0660   29.5830   40.7250 O   0  0  0  0  0  0  0  0  0  0  0  0
   38.8630   31.8290   41.2800 N   0  0  0  0  0  0  0  0  0  0  0  0
   37.9920   32.5860   40.4390 C   0  0  0  0  0  0  0  0  0  0  0  0
   36.7250   32.3990   40.4570 N   0  0  0  0  0  0  0  0  0  0  0  0
   38.5320   33.5860   39.5450 N   0  0  0  0  0  0  0  0  0  0  0  0
   36.2960   31.6930   41.0860 H   0  0  0  0  0  0  0  0  0  0  0  0
   37.4682   26.1163   42.6965 H   0  0  0  0  0  0  0  0  0  0  0  0
   37.2320   27.8799   38.7807 H   0  0  0  0  0  0  0  0  0  0  0  0
   33.8463   23.9365   39.6156 H   0  0  0  0  0  0  0  0  0  0  0  0
   32.9897   21.7208   39.1177 H   0  0  0  0  0  0  0  0  0  0  0  0
   34.5759   19.8471   38.6946 H   0  0  0  0  0  0  0  0  0  0  0  0
   36.6802   19.0472   38.5062 H   0  0  0  0  0  0  0  0  0  0  0  0
   39.1588   19.3511   38.5703 H   0  0  0  0  0  0  0  0  0  0  0  0
   40.0573   21.6273   39.0811 H   0  0  0  0  0  0  0  0  0  0  0  0
   38.5241   23.4739   39.5007 H   0  0  0  0  0  0  0  0  0  0  0  0
   38.4152   27.7836   43.4337 H   0  0  0  0  0  0  0  0  0  0  0  0
   39.2025   30.3714   43.6692 H   0  0  0  0  0  0  0  0  0  0  0  0
   39.6970   32.2671   41.6964 H   0  0  0  0  0  0  0  0  0  0  0  0
   39.5477   33.7538   39.5133 H   0  0  0  0  0  0  0  0  0  0  0  0
   37.9009   34.1305   38.9399 H   0  0  0  0  0  0  0  0  0  0  0  0
  2 17  1  0
  2  1  2  0
  3  2  1  0
  4  3  2  0
  4  5  1  0
  5  6  2  0
  6  1  1  0
  7  5  1  0
  8  7  2  0
  9  8  1  0
 10 11  1  0
 10  9  2  0
 11 16  2  0
 12 13  2  0
 12 11  1  0
 13 14  1  0
 14 15  2  0
 16 15  1  0
 16  7  1  0
 17 18  2  0
 18 19  1  0
 20 19  2  0
 21 17  1  0
 21 20  1  0
 22 20  1  0
 23 24  2  0
 23 22  1  0
 24 26  1  0
 25 23  1  0
  1 27  1  0
  3 28  1  0
  8 29  1  0
  9 30  1  0
 10 31  1  0
 12 32  1  0
 13 33  1  0
 14 34  1  0
 15 35  1  0
 18 36  1  0
 19 37  1  0
 22 38  1  0
 25 39  1  0
 25 40  1  0
M  ISO  8  27  14  28  14  29  14  30  14  31  14  32  14  33  14  34  14
M  ISO  3  35  14  36  14  37  14
M  END
>  <minimizedAffinity>  (1) 
-5.7797451

>  <minimizedRMSD>  (1) 
1.40495324

$$$$
