
     RDKit          3D

 31 33  0  0  0  0  0  0  0  0999 V2000
   37.3970   29.8950   41.2350 C   0  0  0  0  0  0  0  0  0  0  0  0
   36.0700   29.5230   40.9470 C   0  0  0  0  0  0  0  0  0  0  0  0
   35.9430   28.2160   41.3870 C   0  0  0  0  0  0  0  0  0  0  0  0
   37.1800   27.8670   41.9100 C   0  0  0  0  0  0  0  0  0  0  0  0
   38.0050   28.8670   41.8080 O   0  0  0  0  0  0  0  0  0  0  0  0
   39.2620   31.5310   41.3050 C   0  0  0  0  0  0  0  0  0  0  0  0
   37.9500   31.2130   40.9280 C   0  0  0  0  0  0  0  0  0  0  0  0
   37.2070   32.1610   40.2700 C   0  0  0  0  0  0  0  0  0  0  0  0
   37.7470   33.3860   39.9950 N   0  0  0  0  0  0  0  0  0  0  0  0
   39.0400   33.6680   40.3800 C   0  0  0  0  0  0  0  0  0  0  0  0
   39.7820   32.7450   41.0280 N   0  0  0  0  0  0  0  0  0  0  0  0
   39.6550   34.9620   40.1060 C   0  0  0  0  0  0  0  0  0  0  0  0
   39.2010   36.2850   40.1330 C   0  0  0  0  0  0  0  0  0  0  0  0
   40.2880   37.0680   39.7650 C   0  0  0  0  0  0  0  0  0  0  0  0
   41.3080   36.2220   39.5410 N   0  0  0  0  0  0  0  0  0  0  0  0
   40.9500   34.9760   39.7390 N   0  0  0  0  0  0  0  0  0  0  0  0
   37.4270   26.5750   42.4650 N   0  0  0  0  0  0  0  0  0  0  0  0
   38.7020   26.2920   43.0080 C   0  0  0  0  0  0  0  0  0  0  0  0
   39.3880   27.1850   43.6290 N   0  0  0  0  0  0  0  0  0  0  0  0
   39.2620   24.9730   42.8710 N   0  0  0  0  0  0  0  0  0  0  0  0
   38.9940   28.1370   43.7550 H   0  0  0  0  0  0  0  0  0  0  0  0
   35.2950   30.1420   40.4713 H   0  0  0  0  0  0  0  0  0  0  0  0
   35.0447   27.5835   41.3329 H   0  0  0  0  0  0  0  0  0  0  0  0
   39.8737   30.7837   41.8318 H   0  0  0  0  0  0  0  0  0  0  0  0
   36.1752   31.9345   39.9635 H   0  0  0  0  0  0  0  0  0  0  0  0
   38.1905   36.6338   40.3924 H   0  0  0  0  0  0  0  0  0  0  0  0
   40.3096   38.1641   39.6748 H   0  0  0  0  0  0  0  0  0  0  0  0
   42.2517   36.5152   39.2505 H   0  0  0  0  0  0  0  0  0  0  0  0
   36.6868   25.8588   42.4699 H   0  0  0  0  0  0  0  0  0  0  0  0
   40.1903   24.7641   43.2654 H   0  0  0  0  0  0  0  0  0  0  0  0
   38.7344   24.2381   42.3785 H   0  0  0  0  0  0  0  0  0  0  0  0
  1  5  1  0
  2  1  2  0
  2  3  1  0
  3  4  2  0
  4 17  1  0
  5  4  1  0
  7  1  1  0
  7  6  2  0
  8  7  1  0
  9  8  2  0
  9 10  1  0
 10 11  2  0
 11  6  1  0
 12 13  1  0
 12 10  1  0
 14 13  2  0
 15 16  1  0
 15 14  1  0
 16 12  2  0
 17 18  1  0
 18 19  2  0
 19 21  1  0
 20 18  1  0
  2 22  1  0
  3 23  1  0
  6 24  1  0
  8 25  1  0
 13 26  1  0
 14 27  1  0
 15 28  1  0
 17 29  1  0
 20 30  1  0
 20 31  1  0
M  ISO  7  22  14  23  14  24  14  25  14  26  14  27  14  28   9
M  END
>  <minimizedAffinity>  (1) 
-5.70645094

>  <minimizedRMSD>  (1) 
9.05744171

$$$$
