
     RDKit          3D

 35 37  0  0  0  0  0  0  0  0999 V2000
   39.0540   27.0500   41.8940 C   0  0  0  0  0  0  0  0  0  0  0  0
   38.6570   28.1640   41.1390 C   0  0  0  0  0  0  0  0  0  0  0  0
   37.8770   27.9570   40.0310 C   0  0  0  0  0  0  0  0  0  0  0  0
   37.5070   26.6970   39.6820 N   0  0  0  0  0  0  0  0  0  0  0  0
   37.9130   25.6200   40.4430 C   0  0  0  0  0  0  0  0  0  0  0  0
   38.6790   25.8260   41.5320 N   0  0  0  0  0  0  0  0  0  0  0  0
   37.5020   24.3130   40.0420 N   0  0  0  0  0  0  0  0  0  0  0  0
   38.2170   23.2770   40.5610 C   0  0  0  0  0  0  0  0  0  0  0  0
   37.8460   21.9930   40.1940 C   0  0  0  0  0  0  0  0  0  0  0  0
   36.7790   21.8510   39.3290 C   0  0  0  0  0  0  0  0  0  0  0  0
   36.3570   20.5590   38.9210 N   0  0  0  0  0  0  0  0  0  0  0  0
   36.0950   22.9160   38.8370 N   0  0  0  0  0  0  0  0  0  0  0  0
   36.4640   24.1790   39.2010 C   0  0  0  0  0  0  0  0  0  0  0  0
   35.8440   25.1780   38.7560 O   0  0  0  0  0  0  0  0  0  0  0  0
   39.0660   29.5140   41.5270 C   0  0  0  0  0  0  0  0  0  0  0  0
   39.9120   29.7790   42.6110 C   0  0  0  0  0  0  0  0  0  0  0  0
   40.0600   31.1550   42.6530 C   0  0  0  0  0  0  0  0  0  0  0  0
   39.3010   31.6480   41.6000 C   0  0  0  0  0  0  0  0  0  0  0  0
   38.7420   30.6690   40.9730 O   0  0  0  0  0  0  0  0  0  0  0  0
   39.2140   33.0430   41.3290 N   0  0  0  0  0  0  0  0  0  0  0  0
   38.2310   33.5060   40.4190 C   0  0  0  0  0  0  0  0  0  0  0  0
   37.0690   32.9680   40.3520 N   0  0  0  0  0  0  0  0  0  0  0  0
   38.5400   34.6140   39.5390 N   0  0  0  0  0  0  0  0  0  0  0  0
   36.8310   32.1810   40.9840 H   0  0  0  0  0  0  0  0  0  0  0  0
   39.6780   27.1893   42.7891 H   0  0  0  0  0  0  0  0  0  0  0  0
   37.5497   28.8131   39.4228 H   0  0  0  0  0  0  0  0  0  0  0  0
   39.0588   23.4528   41.2469 H   0  0  0  0  0  0  0  0  0  0  0  0
   38.3845   21.1148   40.5796 H   0  0  0  0  0  0  0  0  0  0  0  0
   35.5607   20.4572   38.2757 H   0  0  0  0  0  0  0  0  0  0  0  0
   36.8470   19.7230   39.2702 H   0  0  0  0  0  0  0  0  0  0  0  0
   40.3666   29.0435   43.2909 H   0  0  0  0  0  0  0  0  0  0  0  0
   40.6555   31.7371   43.3717 H   0  0  0  0  0  0  0  0  0  0  0  0
   39.8557   33.7057   41.7873 H   0  0  0  0  0  0  0  0  0  0  0  0
   37.8316   34.9570   38.8746 H   0  0  0  0  0  0  0  0  0  0  0  0
   39.4681   35.0590   39.5776 H   0  0  0  0  0  0  0  0  0  0  0  0
  2 15  1  0
  2  1  2  0
  3  2  1  0
  4  3  2  0
  4  5  1  0
  5  6  2  0
  6  1  1  0
  7  5  1  0
  7  8  1  0
  9  8  2  0
 10  9  1  0
 11 10  1  0
 12 13  1  0
 12 10  2  0
 13  7  1  0
 14 13  2  0
 15 16  2  0
 16 17  1  0
 18 17  2  0
 19 15  1  0
 19 18  1  0
 20 18  1  0
 21 20  1  0
 22 21  2  0
 22 24  1  0
 23 21  1  0
  1 25  1  0
  3 26  1  0
  8 27  1  0
  9 28  1  0
 11 29  1  0
 11 30  1  0
 16 31  1  0
 17 32  1  0
 20 33  1  0
 23 34  1  0
 23 35  1  0
M  ISO  6  25  14  26  14  27  14  28  14  31  14  32  14
M  END
>  <minimizedAffinity>  (1) 
-5.6242013

>  <minimizedRMSD>  (1) 
1.78749061

$$$$
