
     RDKit          3D

 30 32  0  0  0  0  0  0  0  0999 V2000
   37.6210   29.5400   41.1030 C   0  0  0  0  0  0  0  0  0  0  0  0
   36.6750   28.9530   40.2600 C   0  0  0  0  0  0  0  0  0  0  0  0
   36.4850   27.6650   40.7260 C   0  0  0  0  0  0  0  0  0  0  0  0
   37.3270   27.5410   41.8270 C   0  0  0  0  0  0  0  0  0  0  0  0
   37.9670   28.6460   42.0130 O   0  0  0  0  0  0  0  0  0  0  0  0
   39.4400   31.2380   41.2380 C   0  0  0  0  0  0  0  0  0  0  0  0
   38.1020   30.9210   40.9470 C   0  0  0  0  0  0  0  0  0  0  0  0
   37.2550   31.9170   40.5170 C   0  0  0  0  0  0  0  0  0  0  0  0
   37.7430   33.1930   40.3840 N   0  0  0  0  0  0  0  0  0  0  0  0
   39.0420   33.4750   40.6720 C   0  0  0  0  0  0  0  0  0  0  0  0
   39.8660   32.4940   41.0940 N   0  0  0  0  0  0  0  0  0  0  0  0
   39.5360   34.7890   40.5330 N   0  0  0  0  0  0  0  0  0  0  0  0
   38.9150   35.8250   39.9650 C   0  0  0  0  0  0  0  0  0  0  0  0
   39.6920   36.9300   40.0120 N   0  0  0  0  0  0  0  0  0  0  0  0
   40.8240   36.5210   40.6400 C   0  0  0  0  0  0  0  0  0  0  0  0
   40.7140   35.2130   40.9510 N   0  0  0  0  0  0  0  0  0  0  0  0
   37.4090   26.3320   42.5840 N   0  0  0  0  0  0  0  0  0  0  0  0
   38.6130   25.5700   42.5270 C   0  0  0  0  0  0  0  0  0  0  0  0
   39.7630   26.1260   42.4370 N   0  0  0  0  0  0  0  0  0  0  0  0
   38.5260   24.1210   42.5710 N   0  0  0  0  0  0  0  0  0  0  0  0
   39.8440   27.1500   42.4060 H   0  0  0  0  0  0  0  0  0  0  0  0
   36.1796   29.4219   39.3970 H   0  0  0  0  0  0  0  0  0  0  0  0
   35.8107   26.9000   40.3135 H   0  0  0  0  0  0  0  0  0  0  0  0
   40.1318   30.4552   41.5824 H   0  0  0  0  0  0  0  0  0  0  0  0
   36.2035   31.6939   40.2836 H   0  0  0  0  0  0  0  0  0  0  0  0
   37.9098   35.7850   39.5201 H   0  0  0  0  0  0  0  0  0  0  0  0
   41.6943   37.1565   40.8606 H   0  0  0  0  0  0  0  0  0  0  0  0
   36.6146   26.0172   43.1592 H   0  0  0  0  0  0  0  0  0  0  0  0
   39.3837   23.5521   42.5311 H   0  0  0  0  0  0  0  0  0  0  0  0
   37.6066   23.6622   42.6421 H   0  0  0  0  0  0  0  0  0  0  0  0
  1  5  1  0
  2  3  1  0
  2  1  2  0
  3  4  2  0
  4  5  1  0
  4 17  1  0
  7  1  1  0
  7  6  2  0
  8  7  1  0
  9  8  2  0
  9 10  1  0
 10 11  2  0
 11  6  1  0
 12 10  1  0
 12 16  1  0
 13 14  2  0
 13 12  1  0
 14 15  1  0
 15 16  2  0
 18 20  1  0
 18 17  1  0
 19 18  2  0
 21 19  1  0
  2 22  1  0
  3 23  1  0
  6 24  1  0
  8 25  1  0
 13 26  1  0
 15 27  1  0
 17 28  1  0
 20 29  1  0
 20 30  1  0
M  ISO  6  22  14  23  14  24  14  25  14  26  14  27  14
M  END
>  <minimizedAffinity>  (1) 
-5.5796566

>  <minimizedRMSD>  (1) 
8.9972887

$$$$
