
     RDKit          3D

 20 21  0  0  0  0  0  0  0  0999 V2000
   37.4830   28.7430   41.5990 C   0  0  0  0  0  0  0  0  0  0  0  0
   36.6840   28.0330   40.7060 C   0  0  0  0  0  0  0  0  0  0  0  0
   35.6690   28.7390   40.0460 C   0  0  0  0  0  0  0  0  0  0  0  0
   35.5100   30.0770   40.3060 N   0  0  0  0  0  0  0  0  0  0  0  0
   36.3330   30.7160   41.2000 C   0  0  0  0  0  0  0  0  0  0  0  0
   37.3280   30.0360   41.8500 N   0  0  0  0  0  0  0  0  0  0  0  0
   36.8430   26.6220   40.4300 C   0  0  0  0  0  0  0  0  0  0  0  0
   36.3870   26.0140   39.2680 C   0  0  0  0  0  0  0  0  0  0  0  0
   36.7360   24.6960   39.4150 C   0  0  0  0  0  0  0  0  0  0  0  0
   37.3710   24.5040   40.6030 N   0  0  0  0  0  0  0  0  0  0  0  0
   37.4320   25.6900   41.2160 N   0  0  0  0  0  0  0  0  0  0  0  0
   37.8490   23.2030   41.0140 C   0  0  0  0  0  0  0  0  0  0  0  0
   38.2848   28.2028   42.1237 H   0  0  0  0  0  0  0  0  0  0  0  0
   35.0091   28.2278   39.3296 H   0  0  0  0  0  0  0  0  0  0  0  0
   36.1911   31.7889   41.3968 H   0  0  0  0  0  0  0  0  0  0  0  0
   35.8643   26.4832   38.4214 H   0  0  0  0  0  0  0  0  0  0  0  0
   36.5316   23.9061   38.6772 H   0  0  0  0  0  0  0  0  0  0  0  0
   37.8686   23.1498   42.1125 H   0  0  0  0  0  0  0  0  0  0  0  0
   37.1780   22.4249   40.6211 H   0  0  0  0  0  0  0  0  0  0  0  0
   38.8641   23.0444   40.6211 H   0  0  0  0  0  0  0  0  0  0  0  0
  1  6  2  0
  2  1  1  0
  3  4  1  0
  3  2  2  0
  4  5  2  0
  5  6  1  0
  7  2  1  0
  7 11  2  0
  8  9  2  0
  8  7  1  0
  9 10  1  0
 10 12  1  0
 10 11  1  0
  1 13  1  0
  3 14  1  0
  5 15  1  0
  8 16  1  0
  9 17  1  0
 12 18  1  0
 12 19  1  0
 12 20  1  0
M  ISO  8  13  14  14  14  15  14  16  14  17  14  18   8  19   8  20   8
M  END
>  <minimizedAffinity>  (1) 
-3.14508033

>  <minimizedRMSD>  (1) 
1.0573647

$$$$
