
     RDKit          3D

 38 41  0  0  0  0  0  0  0  0999 V2000
   38.0610   26.1180   41.9050 C   0  0  0  0  0  0  0  0  0  0  0  0
   38.3550   27.1600   41.0140 C   0  0  0  0  0  0  0  0  0  0  0  0
   38.4040   26.8450   39.6810 C   0  0  0  0  0  0  0  0  0  0  0  0
   38.1750   25.5790   39.2620 N   0  0  0  0  0  0  0  0  0  0  0  0
   37.8950   24.5970   40.1260 C   0  0  0  0  0  0  0  0  0  0  0  0
   37.8390   24.8670   41.4430 N   0  0  0  0  0  0  0  0  0  0  0  0
   37.6130   23.1710   39.9100 C   0  0  0  0  0  0  0  0  0  0  0  0
   38.4790   22.1650   40.1440 N   0  0  0  0  0  0  0  0  0  0  0  0
   38.2170   20.8750   39.9450 C   0  0  0  0  0  0  0  0  0  0  0  0
   37.0290   20.4550   39.4810 N   0  0  0  0  0  0  0  0  0  0  0  0
   36.0990   21.3900   39.2180 C   0  0  0  0  0  0  0  0  0  0  0  0
   34.8910   20.9300   38.7440 C   0  0  0  0  0  0  0  0  0  0  0  0
   33.8860   21.8250   38.4510 C   0  0  0  0  0  0  0  0  0  0  0  0
   34.1550   23.1780   38.6570 C   0  0  0  0  0  0  0  0  0  0  0  0
   35.3790   23.5500   39.1300 C   0  0  0  0  0  0  0  0  0  0  0  0
   36.4060   22.7090   39.4350 C   0  0  0  0  0  0  0  0  0  0  0  0
   38.5900   28.5170   41.4860 C   0  0  0  0  0  0  0  0  0  0  0  0
   38.8990   28.8160   42.8220 C   0  0  0  0  0  0  0  0  0  0  0  0
   39.0460   30.1930   42.8720 C   0  0  0  0  0  0  0  0  0  0  0  0
   38.8190   30.6460   41.5740 C   0  0  0  0  0  0  0  0  0  0  0  0
   38.5590   29.6450   40.8000 O   0  0  0  0  0  0  0  0  0  0  0  0
   38.8860   32.0280   41.2360 N   0  0  0  0  0  0  0  0  0  0  0  0
   37.8560   32.5900   40.4200 C   0  0  0  0  0  0  0  0  0  0  0  0
   36.6380   32.2080   40.5240 N   0  0  0  0  0  0  0  0  0  0  0  0
   38.1820   33.6110   39.4570 N   0  0  0  0  0  0  0  0  0  0  0  0
   36.3670   31.4780   41.1970 H   0  0  0  0  0  0  0  0  0  0  0  0
   38.0107   26.3194   42.9852 H   0  0  0  0  0  0  0  0  0  0  0  0
   38.6318   27.6294   38.9443 H   0  0  0  0  0  0  0  0  0  0  0  0
   38.9966   20.1314   40.1672 H   0  0  0  0  0  0  0  0  0  0  0  0
   34.7291   19.8516   38.5998 H   0  0  0  0  0  0  0  0  0  0  0  0
   32.9111   21.4866   38.0701 H   0  0  0  0  0  0  0  0  0  0  0  0
   33.3885   23.9366   38.4404 H   0  0  0  0  0  0  0  0  0  0  0  0
   35.5523   24.6261   39.2785 H   0  0  0  0  0  0  0  0  0  0  0  0
   39.0028   28.1056   43.6554 H   0  0  0  0  0  0  0  0  0  0  0  0
   39.2912   30.8026   43.7542 H   0  0  0  0  0  0  0  0  0  0  0  0
   39.6638   32.6126   41.5740 H   0  0  0  0  0  0  0  0  0  0  0  0
   39.1553   33.9328   39.3571 H   0  0  0  0  0  0  0  0  0  0  0  0
   37.4417   34.0191   38.8685 H   0  0  0  0  0  0  0  0  0  0  0  0
  2 17  1  0
  2  1  2  0
  3  2  1  0
  4  3  2  0
  4  5  1  0
  5  6  2  0
  6  1  1  0
  7  5  1  0
  7  8  2  0
  9  8  1  0
 10  9  2  0
 11 16  2  0
 11 10  1  0
 12 11  1  0
 13 14  1  0
 13 12  2  0
 14 15  2  0
 15 16  1  0
 16  7  1  0
 17 18  2  0
 18 19  1  0
 20 19  2  0
 21 17  1  0
 21 20  1  0
 22 20  1  0
 23 24  2  0
 23 22  1  0
 24 26  1  0
 25 23  1  0
  1 27  1  0
  3 28  1  0
  9 29  1  0
 12 30  1  0
 13 31  1  0
 14 32  1  0
 15 33  1  0
 18 34  1  0
 19 35  1  0
 22 36  1  0
 25 37  1  0
 25 38  1  0
M  ISO  8  27  14  28  14  29  14  30  14  31  14  32  14  33  14  34  14
M  ISO  1  35  14
M  END
>  <minimizedAffinity>  (1) 
-5.48813391

>  <minimizedRMSD>  (1) 
1.52194107

$$$$
