
     RDKit          3D

 31 33  0  0  0  0  0  0  0  0999 V2000
   39.2220   29.9380   41.7320 C   0  0  0  0  0  0  0  0  0  0  0  0
   40.5880   30.1960   41.9150 C   0  0  0  0  0  0  0  0  0  0  0  0
   40.7470   31.5630   41.7780 C   0  0  0  0  0  0  0  0  0  0  0  0
   39.4880   32.0590   41.5220 C   0  0  0  0  0  0  0  0  0  0  0  0
   38.6300   31.0870   41.5030 O   0  0  0  0  0  0  0  0  0  0  0  0
   38.9870   27.7240   42.8560 C   0  0  0  0  0  0  0  0  0  0  0  0
   38.6310   28.6020   41.7980 C   0  0  0  0  0  0  0  0  0  0  0  0
   37.7250   28.1730   40.8460 C   0  0  0  0  0  0  0  0  0  0  0  0
   37.1950   26.9160   40.9440 N   0  0  0  0  0  0  0  0  0  0  0  0
   37.5590   26.0900   41.9790 C   0  0  0  0  0  0  0  0  0  0  0  0
   38.4440   26.5010   42.9160 N   0  0  0  0  0  0  0  0  0  0  0  0
   36.9540   24.7250   42.0460 C   0  0  0  0  0  0  0  0  0  0  0  0
   37.7190   23.5950   41.3560 C   0  0  0  0  0  0  0  0  0  0  0  0
   36.3830   24.0610   40.8730 C   0  0  0  0  0  0  0  0  0  0  0  0
   39.2650   33.4520   41.3210 N   0  0  0  0  0  0  0  0  0  0  0  0
   38.2570   33.8640   40.3890 C   0  0  0  0  0  0  0  0  0  0  0  0
   37.1650   33.2030   40.2620 N   0  0  0  0  0  0  0  0  0  0  0  0
   38.4600   35.0380   39.5750 N   0  0  0  0  0  0  0  0  0  0  0  0
   36.9810   32.3610   40.8390 H   0  0  0  0  0  0  0  0  0  0  0  0
   41.3762   29.4581   42.1256 H   0  0  0  0  0  0  0  0  0  0  0  0
   41.6835   32.1347   41.8570 H   0  0  0  0  0  0  0  0  0  0  0  0
   39.7059   28.0471   43.6233 H   0  0  0  0  0  0  0  0  0  0  0  0
   37.4333   28.8359   40.0181 H   0  0  0  0  0  0  0  0  0  0  0  0
   36.5560   24.9408   43.0485 H   0  0  0  0  0  0  0  0  0  0  0  0
   38.6271   23.8127   40.7746 H   0  0  0  0  0  0  0  0  0  0  0  0
   38.1565   22.6339   41.6642 H   0  0  0  0  0  0  0  0  0  0  0  0
   36.3092   24.6073   39.9211 H   0  0  0  0  0  0  0  0  0  0  0  0
   35.4259   23.5586   40.6692 H   0  0  0  0  0  0  0  0  0  0  0  0
   39.8187   34.1509   41.8366 H   0  0  0  0  0  0  0  0  0  0  0  0
   37.7345   35.3325   38.9058 H   0  0  0  0  0  0  0  0  0  0  0  0
   39.3304   35.5816   39.6631 H   0  0  0  0  0  0  0  0  0  0  0  0
  1  7  1  0
  1  2  2  0
  3  2  1  0
  4  3  2  0
  5  4  1  0
  5  1  1  0
  6 11  2  0
  7  6  1  0
  8  9  1  0
  8  7  2  0
  9 10  2  0
 10 12  1  0
 10 11  1  0
 13 12  1  0
 14 13  1  0
 14 12  1  0
 15  4  1  0
 16 15  1  0
 17 16  2  0
 17 19  1  0
 18 16  1  0
  2 20  1  0
  3 21  1  0
  6 22  1  0
  8 23  1  0
 12 24  1  0
 13 25  1  0
 13 26  1  0
 14 27  1  0
 14 28  1  0
 15 29  1  0
 18 30  1  0
 18 31  1  0
M  ISO  8  20  14  21  14  22  14  23  14  24  13  25  13  26  13  27  13
M  ISO  1  28  13
M  END
>  <minimizedAffinity>  (1) 
-5.46965361

>  <minimizedRMSD>  (1) 
2.1101563

$$$$
