
     RDKit          3D

 38 40  0  0  0  0  0  0  0  0999 V2000
   38.8970   29.2260   41.6970 C   0  0  0  0  0  0  0  0  0  0  0  0
   39.7450   29.5350   42.7650 C   0  0  0  0  0  0  0  0  0  0  0  0
   39.9330   30.9030   42.7230 C   0  0  0  0  0  0  0  0  0  0  0  0
   39.1980   31.3510   41.6410 C   0  0  0  0  0  0  0  0  0  0  0  0
   38.6110   30.3510   41.0680 O   0  0  0  0  0  0  0  0  0  0  0  0
   37.8370   27.0760   42.3860 C   0  0  0  0  0  0  0  0  0  0  0  0
   38.4490   27.8710   41.3900 C   0  0  0  0  0  0  0  0  0  0  0  0
   38.6140   27.3390   40.1260 C   0  0  0  0  0  0  0  0  0  0  0  0
   38.1900   26.0770   39.8640 N   0  0  0  0  0  0  0  0  0  0  0  0
   37.5950   25.3190   40.8470 C   0  0  0  0  0  0  0  0  0  0  0  0
   37.4280   25.8260   42.0850 N   0  0  0  0  0  0  0  0  0  0  0  0
   37.1440   23.9950   40.5910 N   0  0  0  0  0  0  0  0  0  0  0  0
   35.7940   23.7140   40.1230 C   0  0  0  0  0  0  0  0  0  0  0  0
   35.8840   22.8970   38.8470 C   0  0  0  0  0  0  0  0  0  0  0  0
   36.7480   21.7560   39.0310 N   0  0  0  0  0  0  0  0  0  0  0  0
   38.0680   22.1100   39.4600 C   0  0  0  0  0  0  0  0  0  0  0  0
   38.0140   22.8520   40.7850 C   0  0  0  0  0  0  0  0  0  0  0  0
   39.1450   32.7330   41.2710 N   0  0  0  0  0  0  0  0  0  0  0  0
   38.1280   33.1780   40.3840 C   0  0  0  0  0  0  0  0  0  0  0  0
   36.9470   32.6750   40.4190 N   0  0  0  0  0  0  0  0  0  0  0  0
   38.4200   34.2170   39.4220 N   0  0  0  0  0  0  0  0  0  0  0  0
   36.7040   31.9350   41.1000 H   0  0  0  0  0  0  0  0  0  0  0  0
   40.1756   28.8308   43.4921 H   0  0  0  0  0  0  0  0  0  0  0  0
   40.5418   31.5105   43.4088 H   0  0  0  0  0  0  0  0  0  0  0  0
   37.6950   27.4746   43.4014 H   0  0  0  0  0  0  0  0  0  0  0  0
   39.0880   27.9370   39.3337 H   0  0  0  0  0  0  0  0  0  0  0  0
   35.2470   23.1453   40.8894 H   0  0  0  0  0  0  0  0  0  0  0  0
   35.2598   24.6559   39.9292 H   0  0  0  0  0  0  0  0  0  0  0  0
   36.2869   23.5287   38.0416 H   0  0  0  0  0  0  0  0  0  0  0  0
   34.8774   22.5393   38.5847 H   0  0  0  0  0  0  0  0  0  0  0  0
   36.3280   21.1386   39.7404 H   0  0  0  0  0  0  0  0  0  0  0  0
   38.6671   21.1954   39.5811 H   0  0  0  0  0  0  0  0  0  0  0  0
   38.5253   22.7644   38.7033 H   0  0  0  0  0  0  0  0  0  0  0  0
   39.0214   23.1876   41.0722 H   0  0  0  0  0  0  0  0  0  0  0  0
   37.6360   22.2004   41.5866 H   0  0  0  0  0  0  0  0  0  0  0  0
   39.8373   33.3982   41.6441 H   0  0  0  0  0  0  0  0  0  0  0  0
   39.3623   34.6309   39.3810 H   0  0  0  0  0  0  0  0  0  0  0  0
   37.6857   34.5434   38.7776 H   0  0  0  0  0  0  0  0  0  0  0  0
  1  2  2  0
  3  2  1  0
  4  3  2  0
  5  4  1  0
  5  1  1  0
  7  1  1  0
  7  6  2  0
  8  7  1  0
  9  8  2  0
  9 10  1  0
 10 11  2  0
 11  6  1  0
 12 17  1  0
 12 10  1  0
 13 12  1  0
 14 15  1  0
 14 13  1  0
 15 16  1  0
 16 17  1  0
 18  4  1  0
 19 20  2  0
 19 18  1  0
 20 22  1  0
 21 19  1  0
  2 23  1  0
  3 24  1  0
  6 25  1  0
  8 26  1  0
 13 27  1  0
 13 28  1  0
 14 29  1  0
 14 30  1  0
 15 31  1  0
 16 32  1  0
 16 33  1  0
 17 34  1  0
 17 35  1  0
 18 36  1  0
 21 37  1  0
 21 38  1  0
M  ISO  8  23  14  24  14  25  14  26  14  27  13  28  13  29  13  30  13
M  ISO  5  31   5  32  13  33  13  34  13  35  13
M  END
>  <minimizedAffinity>  (1) 
-5.39541531

>  <minimizedRMSD>  (1) 
1.44305837

$$$$
