
     RDKit          3D

 34 36  0  0  0  0  0  0  0  0999 V2000
   37.3510   25.8460   41.7350 C   0  0  0  0  0  0  0  0  0  0  0  0
   37.3030   26.9940   40.9310 C   0  0  0  0  0  0  0  0  0  0  0  0
   36.7610   26.8830   39.6750 C   0  0  0  0  0  0  0  0  0  0  0  0
   36.2820   25.6830   39.2230 N   0  0  0  0  0  0  0  0  0  0  0  0
   36.3460   24.5910   40.0330 C   0  0  0  0  0  0  0  0  0  0  0  0
   36.8760   24.6710   41.2790 N   0  0  0  0  0  0  0  0  0  0  0  0
   35.8500   23.2780   39.6100 C   0  0  0  0  0  0  0  0  0  0  0  0
   36.7590   22.2500   39.3510 C   0  0  0  0  0  0  0  0  0  0  0  0
   36.3320   20.9850   38.9460 C   0  0  0  0  0  0  0  0  0  0  0  0
   34.9870   20.7240   38.7930 C   0  0  0  0  0  0  0  0  0  0  0  0
   34.1020   21.7380   39.0500 C   0  0  0  0  0  0  0  0  0  0  0  0
   34.4870   23.0110   39.4540 C   0  0  0  0  0  0  0  0  0  0  0  0
   37.8180   28.2730   41.4190 C   0  0  0  0  0  0  0  0  0  0  0  0
   38.2360   28.4730   42.7430 C   0  0  0  0  0  0  0  0  0  0  0  0
   38.6490   29.7930   42.8150 C   0  0  0  0  0  0  0  0  0  0  0  0
   38.4600   30.3170   41.5380 C   0  0  0  0  0  0  0  0  0  0  0  0
   37.9800   29.4080   40.7660 O   0  0  0  0  0  0  0  0  0  0  0  0
   38.7840   31.6720   41.2400 N   0  0  0  0  0  0  0  0  0  0  0  0
   37.8960   32.4220   40.4170 C   0  0  0  0  0  0  0  0  0  0  0  0
   36.6250   32.2660   40.4910 N   0  0  0  0  0  0  0  0  0  0  0  0
   38.4300   33.3800   39.4780 N   0  0  0  0  0  0  0  0  0  0  0  0
   36.2210   31.5910   41.1480 H   0  0  0  0  0  0  0  0  0  0  0  0
   37.7800   25.9056   42.7461 H   0  0  0  0  0  0  0  0  0  0  0  0
   36.7109   27.7684   39.0242 H   0  0  0  0  0  0  0  0  0  0  0  0
   37.8357   22.4419   39.4689 H   0  0  0  0  0  0  0  0  0  0  0  0
   37.0703   20.1940   38.7483 H   0  0  0  0  0  0  0  0  0  0  0  0
   34.6350   19.7318   38.4743 H   0  0  0  0  0  0  0  0  0  0  0  0
   33.0279   21.5334   38.9300 H   0  0  0  0  0  0  0  0  0  0  0  0
   33.7356   23.7910   39.6467 H   0  0  0  0  0  0  0  0  0  0  0  0
   38.2358   27.7332   43.5571 H   0  0  0  0  0  0  0  0  0  0  0  0
   39.0441   30.3184   43.6970 H   0  0  0  0  0  0  0  0  0  0  0  0
   39.6434   32.1007   41.6124 H   0  0  0  0  0  0  0  0  0  0  0  0
   39.4482   33.5178   39.4057 H   0  0  0  0  0  0  0  0  0  0  0  0
   37.7928   33.9257   38.8804 H   0  0  0  0  0  0  0  0  0  0  0  0
  2 13  1  0
  2  1  2  0
  3  2  1  0
  4  3  2  0
  4  5  1  0
  5  6  2  0
  6  1  1  0
  7  5  1  0
  8  7  2  0
  9  8  1  0
 10  9  2  0
 10 11  1  0
 11 12  2  0
 12  7  1  0
 13 14  2  0
 14 15  1  0
 16 15  2  0
 17 13  1  0
 17 16  1  0
 18 16  1  0
 19 20  2  0
 19 18  1  0
 20 22  1  0
 21 19  1  0
  1 23  1  0
  3 24  1  0
  8 25  1  0
  9 26  1  0
 10 27  1  0
 11 28  1  0
 12 29  1  0
 14 30  1  0
 15 31  1  0
 18 32  1  0
 21 33  1  0
 21 34  1  0
M  ISO  8  23  14  24  14  25  14  26  14  27  14  28  14  29  14  30  14
M  ISO  1  31  14
M  END
>  <minimizedAffinity>  (1) 
-5.33986712

>  <minimizedRMSD>  (1) 
0.835303724

$$$$
