
     RDKit          3D

 33 34  0  0  0  0  0  0  0  0999 V2000
   38.8780   29.5530   41.7800 C   0  0  0  0  0  0  0  0  0  0  0  0
   39.9730   29.7920   42.6320 C   0  0  0  0  0  0  0  0  0  0  0  0
   40.2090   31.1550   42.5620 C   0  0  0  0  0  0  0  0  0  0  0  0
   39.2620   31.6620   41.6880 C   0  0  0  0  0  0  0  0  0  0  0  0
   38.5150   30.7070   41.2600 O   0  0  0  0  0  0  0  0  0  0  0  0
   37.6190   27.5530   42.6060 C   0  0  0  0  0  0  0  0  0  0  0  0
   38.3120   28.2130   41.5760 C   0  0  0  0  0  0  0  0  0  0  0  0
   38.4500   27.5760   40.3650 C   0  0  0  0  0  0  0  0  0  0  0  0
   37.9300   26.3390   40.1700 N   0  0  0  0  0  0  0  0  0  0  0  0
   37.2590   25.7190   41.1960 C   0  0  0  0  0  0  0  0  0  0  0  0
   37.1220   26.3410   42.3830 N   0  0  0  0  0  0  0  0  0  0  0  0
   36.6980   24.3590   40.9500 C   0  0  0  0  0  0  0  0  0  0  0  0
   37.7180   23.2690   41.0400 C   0  0  0  0  0  0  0  0  0  0  0  0
   36.0590   24.4350   39.5580 C   0  0  0  0  0  0  0  0  0  0  0  0
   39.1930   33.0500   41.3620 N   0  0  0  0  0  0  0  0  0  0  0  0
   38.2130   33.4920   40.4210 C   0  0  0  0  0  0  0  0  0  0  0  0
   37.0580   32.9520   40.3610 N   0  0  0  0  0  0  0  0  0  0  0  0
   38.5380   34.5720   39.5180 N   0  0  0  0  0  0  0  0  0  0  0  0
   36.7940   32.1760   40.9950 H   0  0  0  0  0  0  0  0  0  0  0  0
   40.5256   29.0512   43.2285 H   0  0  0  0  0  0  0  0  0  0  0  0
   40.9897   31.7198   43.0926 H   0  0  0  0  0  0  0  0  0  0  0  0
   37.4896   28.0350   43.5863 H   0  0  0  0  0  0  0  0  0  0  0  0
   38.9880   28.0754   39.5458 H   0  0  0  0  0  0  0  0  0  0  0  0
   35.9669   24.0940   41.7280 H   0  0  0  0  0  0  0  0  0  0  0  0
   37.9254   23.0473   42.0973 H   0  0  0  0  0  0  0  0  0  0  0  0
   37.3336   22.3653   40.5445 H   0  0  0  0  0  0  0  0  0  0  0  0
   38.6452   23.5926   40.5445 H   0  0  0  0  0  0  0  0  0  0  0  0
   34.9714   24.5644   39.6604 H   0  0  0  0  0  0  0  0  0  0  0  0
   36.4797   25.2894   39.0076 H   0  0  0  0  0  0  0  0  0  0  0  0
   36.2675   23.5057   39.0076 H   0  0  0  0  0  0  0  0  0  0  0  0
   39.8397   33.7225   41.7984 H   0  0  0  0  0  0  0  0  0  0  0  0
   37.8402   34.8998   38.8350 H   0  0  0  0  0  0  0  0  0  0  0  0
   39.4675   35.0141   39.5573 H   0  0  0  0  0  0  0  0  0  0  0  0
  1  2  2  0
  3  2  1  0
  4  3  2  0
  5  4  1  0
  5  1  1  0
  7  1  1  0
  7  6  2  0
  8  7  1  0
  9  8  2  0
  9 10  1  0
 10 11  2  0
 11  6  1  0
 12 13  1  0
 12 10  1  0
 14 12  1  0
 15  4  1  0
 16 15  1  0
 17 16  2  0
 17 19  1  0
 18 16  1  0
  2 20  1  0
  3 21  1  0
  6 22  1  0
  8 23  1  0
 12 24  1  0
 13 25  1  0
 13 26  1  0
 13 27  1  0
 14 28  1  0
 14 29  1  0
 14 30  1  0
 15 31  1  0
 18 32  1  0
 18 33  1  0
M  ISO  8  20  14  21  14  22  14  23  14  24   8  25   8  26   8  27   8
M  ISO  3  28   8  29   8  30   8
M  END
>  <minimizedAffinity>  (1) 
-5.23682117

>  <minimizedRMSD>  (1) 
1.7224201

$$$$
