
     RDKit          3D

 27 28  0  0  0  0  0  0  0  0999 V2000
   38.7740   29.5420   41.6190 C   0  0  0  0  0  0  0  0  0  0  0  0
   39.7240   29.7290   42.6430 C   0  0  0  0  0  0  0  0  0  0  0  0
   40.0160   31.0820   42.6490 C   0  0  0  0  0  0  0  0  0  0  0  0
   39.2370   31.6400   41.6380 C   0  0  0  0  0  0  0  0  0  0  0  0
   38.5270   30.7160   41.0600 O   0  0  0  0  0  0  0  0  0  0  0  0
   38.4570   27.1250   42.0860 C   0  0  0  0  0  0  0  0  0  0  0  0
   38.1980   28.2440   41.2800 C   0  0  0  0  0  0  0  0  0  0  0  0
   37.3960   28.0770   40.1770 C   0  0  0  0  0  0  0  0  0  0  0  0
   36.8790   26.8600   39.8890 N   0  0  0  0  0  0  0  0  0  0  0  0
   37.1540   25.7810   40.7000 C   0  0  0  0  0  0  0  0  0  0  0  0
   37.9470   25.9160   41.8050 N   0  0  0  0  0  0  0  0  0  0  0  0
   36.5820   24.4370   40.3800 C   0  0  0  0  0  0  0  0  0  0  0  0
   35.6710   24.5800   39.3470 F   0  0  0  0  0  0  0  0  0  0  0  0
   37.6220   23.6030   40.0430 F   0  0  0  0  0  0  0  0  0  0  0  0
   35.9090   23.9460   41.4650 F   0  0  0  0  0  0  0  0  0  0  0  0
   39.2660   33.0340   41.3380 N   0  0  0  0  0  0  0  0  0  0  0  0
   38.3360   33.5650   40.4100 C   0  0  0  0  0  0  0  0  0  0  0  0
   37.1420   33.1110   40.3400 N   0  0  0  0  0  0  0  0  0  0  0  0
   38.7440   34.6360   39.5270 N   0  0  0  0  0  0  0  0  0  0  0  0
   36.8300   32.3510   40.9530 H   0  0  0  0  0  0  0  0  0  0  0  0
   40.1471   28.9572   43.3028 H   0  0  0  0  0  0  0  0  0  0  0  0
   40.7174   31.6073   43.3139 H   0  0  0  0  0  0  0  0  0  0  0  0
   39.0963   27.2421   42.9735 H   0  0  0  0  0  0  0  0  0  0  0  0
   37.1734   28.9353   39.5260 H   0  0  0  0  0  0  0  0  0  0  0  0
   39.9565   33.6491   41.7917 H   0  0  0  0  0  0  0  0  0  0  0  0
   38.0746   35.0280   38.8494 H   0  0  0  0  0  0  0  0  0  0  0  0
   39.7038   35.0065   39.5760 H   0  0  0  0  0  0  0  0  0  0  0  0
  1  2  2  0
  2  3  1  0
  4  3  2  0
  5  1  1  0
  5  4  1  0
  7  1  1  0
  7  6  2  0
  8  7  1  0
  9  8  2  0
  9 10  1  0
 10 11  2  0
 11  6  1  0
 12 10  1  0
 12 15  1  0
 13 12  1  0
 14 12  1  0
 16  4  1  0
 17 16  1  0
 18 17  2  0
 18 20  1  0
 19 17  1  0
  2 21  1  0
  3 22  1  0
  6 23  1  0
  8 24  1  0
 16 25  1  0
 19 26  1  0
 19 27  1  0
M  ISO  4  21  14  22  14  23  14  24  14
M  END
>  <minimizedAffinity>  (1) 
-5.2306428

>  <minimizedRMSD>  (1) 
1.51063049

$$$$
