
     RDKit          3D

 30 31  0  0  0  0  0  0  0  0999 V2000
   39.2080   29.7730   41.8930 C   0  0  0  0  0  0  0  0  0  0  0  0
   40.5510   30.0340   42.1360 C   0  0  0  0  0  0  0  0  0  0  0  0
   40.7130   31.3930   41.9540 C   0  0  0  0  0  0  0  0  0  0  0  0
   39.4610   31.8780   41.6110 C   0  0  0  0  0  0  0  0  0  0  0  0
   38.6170   30.9120   41.5870 O   0  0  0  0  0  0  0  0  0  0  0  0
   39.1570   27.4720   42.8650 C   0  0  0  0  0  0  0  0  0  0  0  0
   38.6080   28.4370   41.9790 C   0  0  0  0  0  0  0  0  0  0  0  0
   37.5190   28.0870   41.2220 C   0  0  0  0  0  0  0  0  0  0  0  0
   36.9890   26.8400   41.3280 N   0  0  0  0  0  0  0  0  0  0  0  0
   37.5360   25.9350   42.1840 C   0  0  0  0  0  0  0  0  0  0  0  0
   38.6050   26.2480   42.9420 N   0  0  0  0  0  0  0  0  0  0  0  0
   36.8370   24.6060   42.1850 C   0  0  0  0  0  0  0  0  0  0  0  0
   36.5800   24.2320   40.7370 C   0  0  0  0  0  0  0  0  0  0  0  0
   39.2430   33.2700   41.3440 N   0  0  0  0  0  0  0  0  0  0  0  0
   38.2100   33.6330   40.4270 C   0  0  0  0  0  0  0  0  0  0  0  0
   37.1120   32.9820   40.3640 N   0  0  0  0  0  0  0  0  0  0  0  0
   38.4140   34.7710   39.5470 N   0  0  0  0  0  0  0  0  0  0  0  0
   36.9470   32.1760   40.9800 H   0  0  0  0  0  0  0  0  0  0  0  0
   41.3268   29.3063   42.4162 H   0  0  0  0  0  0  0  0  0  0  0  0
   41.6430   31.9709   42.0594 H   0  0  0  0  0  0  0  0  0  0  0  0
   40.0296   27.7246   43.4853 H   0  0  0  0  0  0  0  0  0  0  0  0
   37.0743   28.8161   40.5287 H   0  0  0  0  0  0  0  0  0  0  0  0
   37.4728   23.8463   42.6631 H   0  0  0  0  0  0  0  0  0  0  0  0
   35.8930   24.6622   42.7468 H   0  0  0  0  0  0  0  0  0  0  0  0
   35.9574   23.3260   40.6973 H   0  0  0  0  0  0  0  0  0  0  0  0
   36.0579   25.0581   40.2320 H   0  0  0  0  0  0  0  0  0  0  0  0
   37.5384   24.0408   40.2320 H   0  0  0  0  0  0  0  0  0  0  0  0
   39.8179   33.9911   41.8028 H   0  0  0  0  0  0  0  0  0  0  0  0
   37.6782   35.0449   38.8803 H   0  0  0  0  0  0  0  0  0  0  0  0
   39.2944   35.3038   39.5898 H   0  0  0  0  0  0  0  0  0  0  0  0
  1  7  1  0
  1  2  2  0
  3  2  1  0
  4  3  2  0
  5  4  1  0
  5  1  1  0
  6 11  2  0
  7  6  1  0
  8  9  1  0
  8  7  2  0
  9 10  2  0
 10 12  1  0
 10 11  1  0
 13 12  1  0
 14  4  1  0
 15 14  1  0
 16 15  2  0
 16 18  1  0
 17 15  1  0
  2 19  1  0
  3 20  1  0
  6 21  1  0
  8 22  1  0
 12 23  1  0
 12 24  1  0
 13 25  1  0
 13 26  1  0
 13 27  1  0
 14 28  1  0
 17 29  1  0
 17 30  1  0
M  ISO  8  19  14  20  14  21  14  22  14  23   8  24   8  25   8  26   8
M  ISO  1  27   8
M  END
>  <minimizedAffinity>  (1) 
-5.15848637

>  <minimizedRMSD>  (1) 
2.023031

$$$$
