
     RDKit          3D

 32 34  0  0  0  0  0  0  0  0999 V2000
   37.8260   28.2420   41.4780 C   0  0  0  0  0  0  0  0  0  0  0  0
   38.2270   28.4710   42.7960 C   0  0  0  0  0  0  0  0  0  0  0  0
   38.6310   29.7940   42.8480 C   0  0  0  0  0  0  0  0  0  0  0  0
   38.4570   30.2960   41.5740 C   0  0  0  0  0  0  0  0  0  0  0  0
   37.9900   29.3730   40.8070 O   0  0  0  0  0  0  0  0  0  0  0  0
   37.3540   25.8270   41.8250 C   0  0  0  0  0  0  0  0  0  0  0  0
   37.3220   26.9620   40.9780 C   0  0  0  0  0  0  0  0  0  0  0  0
   36.8160   26.8220   39.7100 C   0  0  0  0  0  0  0  0  0  0  0  0
   36.3610   25.6160   39.2910 N   0  0  0  0  0  0  0  0  0  0  0  0
   36.3970   24.5280   40.1180 C   0  0  0  0  0  0  0  0  0  0  0  0
   36.8900   24.6460   41.3670 N   0  0  0  0  0  0  0  0  0  0  0  0
   35.9060   23.2280   39.6670 C   0  0  0  0  0  0  0  0  0  0  0  0
   34.5260   23.0630   39.5130 C   0  0  0  0  0  0  0  0  0  0  0  0
   34.0630   21.8150   39.0790 C   0  0  0  0  0  0  0  0  0  0  0  0
   34.9210   20.7960   38.8160 N   0  0  0  0  0  0  0  0  0  0  0  0
   36.2540   21.0300   38.9880 C   0  0  0  0  0  0  0  0  0  0  0  0
   36.7520   22.2100   39.4020 N   0  0  0  0  0  0  0  0  0  0  0  0
   38.7740   31.6440   41.2540 N   0  0  0  0  0  0  0  0  0  0  0  0
   37.8710   32.3800   40.4210 C   0  0  0  0  0  0  0  0  0  0  0  0
   36.5980   32.2250   40.5100 N   0  0  0  0  0  0  0  0  0  0  0  0
   38.3880   33.3260   39.4520 N   0  0  0  0  0  0  0  0  0  0  0  0
   36.1970   31.5520   41.1750 H   0  0  0  0  0  0  0  0  0  0  0  0
   38.2227   27.7473   43.6244 H   0  0  0  0  0  0  0  0  0  0  0  0
   39.0130   30.3353   43.7261 H   0  0  0  0  0  0  0  0  0  0  0  0
   37.7535   25.9079   42.8467 H   0  0  0  0  0  0  0  0  0  0  0  0
   36.7797   27.6887   39.0336 H   0  0  0  0  0  0  0  0  0  0  0  0
   33.8278   23.8859   39.7257 H   0  0  0  0  0  0  0  0  0  0  0  0
   32.9823   21.6568   38.9484 H   0  0  0  0  0  0  0  0  0  0  0  0
   36.9584   20.2118   38.7774 H   0  0  0  0  0  0  0  0  0  0  0  0
   39.6342   32.0819   41.6133 H   0  0  0  0  0  0  0  0  0  0  0  0
   39.4042   33.4676   39.3621 H   0  0  0  0  0  0  0  0  0  0  0  0
   37.7391   33.8566   38.8534 H   0  0  0  0  0  0  0  0  0  0  0  0
  1  2  2  0
  2  3  1  0
  4  3  2  0
  5  1  1  0
  5  4  1  0
  7  1  1  0
  7  6  2  0
  8  7  1  0
  9  8  2  0
  9 10  1  0
 10 11  2  0
 11  6  1  0
 12 10  1  0
 13 12  2  0
 14 13  1  0
 15 16  1  0
 15 14  2  0
 16 17  2  0
 17 12  1  0
 18  4  1  0
 19 20  2  0
 19 18  1  0
 20 22  1  0
 21 19  1  0
  2 23  1  0
  3 24  1  0
  6 25  1  0
  8 26  1  0
 13 27  1  0
 14 28  1  0
 16 29  1  0
 18 30  1  0
 21 31  1  0
 21 32  1  0
M  ISO  7  23  14  24  14  25  14  26  14  27  14  28  14  29  14
M  END
>  <minimizedAffinity>  (1) 
-5.11617947

>  <minimizedRMSD>  (1) 
0.800298631

$$$$
