
     RDKit          3D

 31 33  0  0  0  0  0  0  0  0999 V2000
   38.6510   29.7370   41.3780 C   0  0  0  0  0  0  0  0  0  0  0  0
   39.4880   29.8010   42.5040 C   0  0  0  0  0  0  0  0  0  0  0  0
   39.8570   31.1270   42.6250 C   0  0  0  0  0  0  0  0  0  0  0  0
   39.2360   31.7960   41.5830 C   0  0  0  0  0  0  0  0  0  0  0  0
   38.5520   30.9560   40.8910 O   0  0  0  0  0  0  0  0  0  0  0  0
   37.5910   27.5140   41.8170 C   0  0  0  0  0  0  0  0  0  0  0  0
   38.0360   28.4960   40.8950 C   0  0  0  0  0  0  0  0  0  0  0  0
   37.8840   28.2730   39.5320 C   0  0  0  0  0  0  0  0  0  0  0  0
   37.3020   27.0990   39.1370 N   0  0  0  0  0  0  0  0  0  0  0  0
   36.8870   26.1780   40.0470 C   0  0  0  0  0  0  0  0  0  0  0  0
   37.0340   26.3930   41.3680 N   0  0  0  0  0  0  0  0  0  0  0  0
   36.2790   24.9510   39.5850 C   0  0  0  0  0  0  0  0  0  0  0  0
   36.2000   23.7570   40.2630 C   0  0  0  0  0  0  0  0  0  0  0  0
   35.5550   22.8920   39.4620 N   0  0  0  0  0  0  0  0  0  0  0  0
   35.2110   23.4610   38.2990 C   0  0  0  0  0  0  0  0  0  0  0  0
   35.6690   24.7220   38.4090 N   0  0  0  0  0  0  0  0  0  0  0  0
   39.3910   33.1970   41.3920 N   0  0  0  0  0  0  0  0  0  0  0  0
   38.5540   33.8610   40.4480 C   0  0  0  0  0  0  0  0  0  0  0  0
   37.3340   33.5150   40.2740 N   0  0  0  0  0  0  0  0  0  0  0  0
   39.0810   34.9470   39.6660 N   0  0  0  0  0  0  0  0  0  0  0  0
   36.9210   32.7430   40.8250 H   0  0  0  0  0  0  0  0  0  0  0  0
   39.7880   28.9670   43.1555 H   0  0  0  0  0  0  0  0  0  0  0  0
   40.5118   31.5634   43.3937 H   0  0  0  0  0  0  0  0  0  0  0  0
   37.7062   27.6790   42.8984 H   0  0  0  0  0  0  0  0  0  0  0  0
   38.2206   29.0162   38.7942 H   0  0  0  0  0  0  0  0  0  0  0  0
   36.5907   23.5494   41.2701 H   0  0  0  0  0  0  0  0  0  0  0  0
   34.6785   23.0043   37.4518 H   0  0  0  0  0  0  0  0  0  0  0  0
   35.5636   25.4341   37.6723 H   0  0  0  0  0  0  0  0  0  0  0  0
   40.0965   33.7232   41.9270 H   0  0  0  0  0  0  0  0  0  0  0  0
   38.4794   35.4292   38.9830 H   0  0  0  0  0  0  0  0  0  0  0  0
   40.0600   35.2425   39.7890 H   0  0  0  0  0  0  0  0  0  0  0  0
  1  2  2  0
  2  3  1  0
  4  3  2  0
  5  1  1  0
  5  4  1  0
  7  1  1  0
  7  6  2  0
  8  7  1  0
  9  8  2  0
  9 10  1  0
 10 11  2  0
 11  6  1  0
 12 10  1  0
 12 13  2  0
 14 13  1  0
 15 16  1  0
 15 14  2  0
 16 12  1  0
 17  4  1  0
 18 17  1  0
 19 18  2  0
 19 21  1  0
 20 18  1  0
  2 22  1  0
  3 23  1  0
  6 24  1  0
  8 25  1  0
 13 26  1  0
 15 27  1  0
 16 28  1  0
 17 29  1  0
 20 30  1  0
 20 31  1  0
M  ISO  7  22  14  23  14  24  14  25  14  26  14  27  14  28   9
M  END
>  <minimizedAffinity>  (1) 
-5.0447073

>  <minimizedRMSD>  (1) 
2.01994419

$$$$
