
     RDKit          3D

 30 32  0  0  0  0  0  0  0  0999 V2000
   38.6130   29.7090   41.3840 C   0  0  0  0  0  0  0  0  0  0  0  0
   39.4510   29.7580   42.5020 C   0  0  0  0  0  0  0  0  0  0  0  0
   39.8310   31.0850   42.6220 C   0  0  0  0  0  0  0  0  0  0  0  0
   39.2110   31.7580   41.5840 C   0  0  0  0  0  0  0  0  0  0  0  0
   38.5200   30.9260   40.8970 O   0  0  0  0  0  0  0  0  0  0  0  0
   37.6670   27.4330   41.7970 C   0  0  0  0  0  0  0  0  0  0  0  0
   37.9870   28.4700   40.9070 C   0  0  0  0  0  0  0  0  0  0  0  0
   37.7030   28.3010   39.5630 C   0  0  0  0  0  0  0  0  0  0  0  0
   37.1200   27.1390   39.1290 N   0  0  0  0  0  0  0  0  0  0  0  0
   36.8270   26.1630   40.0340 C   0  0  0  0  0  0  0  0  0  0  0  0
   37.0990   26.3090   41.3650 N   0  0  0  0  0  0  0  0  0  0  0  0
   36.2030   24.9760   39.4100 C   0  0  0  0  0  0  0  0  0  0  0  0
   36.2260   23.8520   40.2170 C   0  0  0  0  0  0  0  0  0  0  0  0
   35.3910   22.5640   39.1810 S   0  0  0  0  0  0  0  0  0  0  0  0
   35.1590   23.8490   37.7890 C   0  0  0  0  0  0  0  0  0  0  0  0
   35.6280   24.7670   38.2390 N   0  0  0  0  0  0  0  0  0  0  0  0
   39.3780   33.1630   41.3940 N   0  0  0  0  0  0  0  0  0  0  0  0
   38.5440   33.8290   40.4510 C   0  0  0  0  0  0  0  0  0  0  0  0
   37.3230   33.4940   40.2840 N   0  0  0  0  0  0  0  0  0  0  0  0
   39.0940   34.9150   39.6600 N   0  0  0  0  0  0  0  0  0  0  0  0
   36.9100   32.7250   40.8240 H   0  0  0  0  0  0  0  0  0  0  0  0
   39.7464   28.9196   43.1499 H   0  0  0  0  0  0  0  0  0  0  0  0
   40.4922   31.5165   43.3879 H   0  0  0  0  0  0  0  0  0  0  0  0
   37.8889   27.5507   42.8679 H   0  0  0  0  0  0  0  0  0  0  0  0
   37.9448   29.0979   38.8444 H   0  0  0  0  0  0  0  0  0  0  0  0
   36.6407   23.7485   41.2306 H   0  0  0  0  0  0  0  0  0  0  0  0
   34.6886   23.7242   36.8025 H   0  0  0  0  0  0  0  0  0  0  0  0
   40.0875   33.6846   41.9282 H   0  0  0  0  0  0  0  0  0  0  0  0
   38.5011   35.4046   38.9747 H   0  0  0  0  0  0  0  0  0  0  0  0
   40.0771   35.1959   39.7841 H   0  0  0  0  0  0  0  0  0  0  0  0
  1  2  2  0
  2  3  1  0
  4  3  2  0
  5  1  1  0
  5  4  1  0
  7  1  1  0
  7  6  2  0
  8  7  1  0
  9  8  2  0
  9 10  1  0
 10 11  2  0
 11  6  1  0
 12 10  1  0
 12 13  2  0
 14 13  1  0
 15 16  2  0
 15 14  1  0
 16 12  1  0
 17  4  1  0
 18 17  1  0
 19 18  2  0
 19 21  1  0
 20 18  1  0
  2 22  1  0
  3 23  1  0
  6 24  1  0
  8 25  1  0
 13 26  1  0
 15 27  1  0
 17 28  1  0
 20 29  1  0
 20 30  1  0
M  ISO  6  22  14  23  14  24  14  25  14  26  14  27  14
M  END
>  <minimizedAffinity>  (1) 
-4.99419212

>  <minimizedRMSD>  (1) 
1.89439702

$$$$
