
     RDKit          3D

 46 49  0  0  0  0  0  0  0  0999 V2000
   38.5200   27.2930   41.2880 C   0  0  0  0  0  0  0  0  0  0  0  0
   37.9950   28.5650   40.9600 C   0  0  0  0  0  0  0  0  0  0  0  0
   36.8730   28.5940   40.1910 C   0  0  0  0  0  0  0  0  0  0  0  0
   36.2860   27.4360   39.7570 N   0  0  0  0  0  0  0  0  0  0  0  0
   36.8310   26.2250   40.0980 C   0  0  0  0  0  0  0  0  0  0  0  0
   37.9360   26.1600   40.8550 N   0  0  0  0  0  0  0  0  0  0  0  0
   36.2420   25.0100   39.6560 N   0  0  0  0  0  0  0  0  0  0  0  0
   36.1100   23.7890   40.1890 N   0  0  0  0  0  0  0  0  0  0  0  0
   35.4430   23.0180   39.3090 C   0  0  0  0  0  0  0  0  0  0  0  0
   35.1400   23.7550   38.1910 C   0  0  0  0  0  0  0  0  0  0  0  0
   35.6490   25.0080   38.4220 C   0  0  0  0  0  0  0  0  0  0  0  0
   38.6420   29.7730   41.4260 C   0  0  0  0  0  0  0  0  0  0  0  0
   39.5170   29.8210   42.5240 C   0  0  0  0  0  0  0  0  0  0  0  0
   39.9130   31.1300   42.6410 C   0  0  0  0  0  0  0  0  0  0  0  0
   39.2680   31.8210   41.6210 C   0  0  0  0  0  0  0  0  0  0  0  0
   38.5410   31.0020   40.9380 O   0  0  0  0  0  0  0  0  0  0  0  0
   39.4300   33.2280   41.4150 N   0  0  0  0  0  0  0  0  0  0  0  0
   38.6010   33.8990   40.4790 C   0  0  0  0  0  0  0  0  0  0  0  0
   37.3800   33.5700   40.3200 N   0  0  0  0  0  0  0  0  0  0  0  0
   39.1770   34.9750   39.6900 N   0  0  0  0  0  0  0  0  0  0  0  0
   36.9710   32.8030   40.8680 H   0  0  0  0  0  0  0  0  0  0  0  0
   35.5370   26.0770   37.4530 N   0  0  0  0  0  0  0  0  0  0  0  0
   34.1760   26.5800   37.2130 C   0  0  0  0  0  0  0  0  0  0  0  0
   34.1930   28.0520   37.6470 C   0  0  0  0  0  0  0  0  0  0  0  0
   35.0100   28.7590   36.5630 C   0  0  0  0  0  0  0  0  0  0  0  0
   36.4490   28.2920   36.8220 C   0  0  0  0  0  0  0  0  0  0  0  0
   36.4900   26.7840   36.6330 C   0  0  0  0  0  0  0  0  0  0  0  0
   39.4248   27.2283   41.9102 H   0  0  0  0  0  0  0  0  0  0  0  0
   36.4310   29.5624   39.9139 H   0  0  0  0  0  0  0  0  0  0  0  0
   35.1813   21.9607   39.4624 H   0  0  0  0  0  0  0  0  0  0  0  0
   34.6009   23.4120   37.2956 H   0  0  0  0  0  0  0  0  0  0  0  0
   39.8233   28.9788   43.1618 H   0  0  0  0  0  0  0  0  0  0  0  0
   40.6014   31.5480   43.3902 H   0  0  0  0  0  0  0  0  0  0  0  0
   40.1438   33.7502   41.9428 H   0  0  0  0  0  0  0  0  0  0  0  0
   38.5966   35.4780   39.0037 H   0  0  0  0  0  0  0  0  0  0  0  0
   40.1656   35.2346   39.8171 H   0  0  0  0  0  0  0  0  0  0  0  0
   33.9196   26.4978   36.1465 H   0  0  0  0  0  0  0  0  0  0  0  0
   33.4256   26.0013   37.7716 H   0  0  0  0  0  0  0  0  0  0  0  0
   33.1711   28.4568   37.6904 H   0  0  0  0  0  0  0  0  0  0  0  0
   34.6216   28.1882   38.6509 H   0  0  0  0  0  0  0  0  0  0  0  0
   34.9293   29.8515   36.6621 H   0  0  0  0  0  0  0  0  0  0  0  0
   34.6629   28.5205   35.5468 H   0  0  0  0  0  0  0  0  0  0  0  0
   37.1335   28.7769   36.1104 H   0  0  0  0  0  0  0  0  0  0  0  0
   36.7619   28.5598   37.8420 H   0  0  0  0  0  0  0  0  0  0  0  0
   36.2763   26.5591   35.5777 H   0  0  0  0  0  0  0  0  0  0  0  0
   37.4921   26.4463   36.9359 H   0  0  0  0  0  0  0  0  0  0  0  0
  2  1  2  0
  2 12  1  0
  3  2  1  0
  4  5  1  0
  4  3  2  0
  5  6  2  0
  6  1  1  0
  7  5  1  0
  7  8  1  0
  9  8  2  0
 10 11  2  0
 10  9  1  0
 11  7  1  0
 12 13  2  0
 13 14  1  0
 15 14  2  0
 16 12  1  0
 16 15  1  0
 17 15  1  0
 18 17  1  0
 19 18  2  0
 19 21  1  0
 20 18  1  0
 22 11  1  0
 23 22  1  0
 23 24  1  0
 25 26  1  0
 25 24  1  0
 27 26  1  0
 27 22  1  0
  1 28  1  0
  3 29  1  0
  9 30  1  0
 10 31  1  0
 13 32  1  0
 14 33  1  0
 17 34  1  0
 20 35  1  0
 20 36  1  0
 23 37  1  0
 23 38  1  0
 24 39  1  0
 24 40  1  0
 25 41  1  0
 25 42  1  0
 26 43  1  0
 26 44  1  0
 27 45  1  0
 27 46  1  0
M  ISO  8  28  14  29  14  30  14  31  14  32  14  33  14  37  13  38  13
M  ISO  8  39  13  40  13  41  13  42  13  43  13  44  13  45  13  46  13
M  END
>  <minimizedAffinity>  (1) 
-6.05020046

>  <minimizedRMSD>  (1) 
0.515619218

$$$$
