
     RDKit          3D

 47 50  0  0  0  0  0  0  0  0999 V2000
   38.5290   27.3010   41.2910 C   0  0  0  0  0  0  0  0  0  0  0  0
   38.0150   28.5620   40.9230 C   0  0  0  0  0  0  0  0  0  0  0  0
   36.9020   28.6130   40.1150 C   0  0  0  0  0  0  0  0  0  0  0  0
   36.3350   27.4470   39.6990 N   0  0  0  0  0  0  0  0  0  0  0  0
   36.8390   26.2320   40.0610 C   0  0  0  0  0  0  0  0  0  0  0  0
   37.9370   26.1770   40.8580 N   0  0  0  0  0  0  0  0  0  0  0  0
   36.2370   25.0290   39.6250 N   0  0  0  0  0  0  0  0  0  0  0  0
   36.1050   23.8160   40.2000 N   0  0  0  0  0  0  0  0  0  0  0  0
   35.4410   23.0020   39.3840 C   0  0  0  0  0  0  0  0  0  0  0  0
   35.1400   23.7290   38.2470 C   0  0  0  0  0  0  0  0  0  0  0  0
   35.6500   25.0040   38.4170 C   0  0  0  0  0  0  0  0  0  0  0  0
   38.6430   29.7950   41.3910 C   0  0  0  0  0  0  0  0  0  0  0  0
   39.5060   29.8270   42.5070 C   0  0  0  0  0  0  0  0  0  0  0  0
   39.8980   31.1400   42.6470 C   0  0  0  0  0  0  0  0  0  0  0  0
   39.2560   31.8350   41.6130 C   0  0  0  0  0  0  0  0  0  0  0  0
   38.5340   31.0210   40.9040 O   0  0  0  0  0  0  0  0  0  0  0  0
   39.4140   33.2470   41.4190 N   0  0  0  0  0  0  0  0  0  0  0  0
   38.5810   33.9160   40.4910 C   0  0  0  0  0  0  0  0  0  0  0  0
   37.3600   33.5630   40.3120 N   0  0  0  0  0  0  0  0  0  0  0  0
   39.1220   35.0080   39.7400 N   0  0  0  0  0  0  0  0  0  0  0  0
   36.9580   32.7810   40.8260 H   0  0  0  0  0  0  0  0  0  0  0  0
   35.4140   25.9350   37.2510 C   0  0  0  0  0  0  0  0  0  0  0  0
   34.5260   27.0630   37.6210 C   0  0  0  0  0  0  0  0  0  0  0  0
   35.1420   28.4060   37.7700 C   0  0  0  0  0  0  0  0  0  0  0  0
   36.1060   28.6310   36.6260 C   0  0  0  0  0  0  0  0  0  0  0  0
   37.2490   27.6430   36.8930 C   0  0  0  0  0  0  0  0  0  0  0  0
   36.7160   26.2780   36.6210 C   0  0  0  0  0  0  0  0  0  0  0  0
   39.4184   27.2386   41.9353 H   0  0  0  0  0  0  0  0  0  0  0  0
   36.4771   29.5807   39.8100 H   0  0  0  0  0  0  0  0  0  0  0  0
   35.1809   21.9508   39.5770 H   0  0  0  0  0  0  0  0  0  0  0  0
   34.5937   23.3603   37.3663 H   0  0  0  0  0  0  0  0  0  0  0  0
   39.8049   28.9763   43.1371 H   0  0  0  0  0  0  0  0  0  0  0  0
   40.5729   31.5556   43.4098 H   0  0  0  0  0  0  0  0  0  0  0  0
   40.1262   33.7687   41.9495 H   0  0  0  0  0  0  0  0  0  0  0  0
   38.5317   35.5077   39.0597 H   0  0  0  0  0  0  0  0  0  0  0  0
   40.1015   35.2941   39.8799 H   0  0  0  0  0  0  0  0  0  0  0  0
   34.8386   25.4364   36.4571 H   0  0  0  0  0  0  0  0  0  0  0  0
   33.7523   27.1409   36.8430 H   0  0  0  0  0  0  0  0  0  0  0  0
   34.1612   26.8111   38.6277 H   0  0  0  0  0  0  0  0  0  0  0  0
   34.3575   29.1768   37.7491 H   0  0  0  0  0  0  0  0  0  0  0  0
   35.6791   28.4661   38.7281 H   0  0  0  0  0  0  0  0  0  0  0  0
   36.4776   29.6663   36.6276 H   0  0  0  0  0  0  0  0  0  0  0  0
   35.6362   28.4744   35.6438 H   0  0  0  0  0  0  0  0  0  0  0  0
   38.0973   27.8573   36.2263 H   0  0  0  0  0  0  0  0  0  0  0  0
   37.6061   27.7260   37.9301 H   0  0  0  0  0  0  0  0  0  0  0  0
   36.5970   26.1769   35.5321 H   0  0  0  0  0  0  0  0  0  0  0  0
   37.4458   25.5869   37.0679 H   0  0  0  0  0  0  0  0  0  0  0  0
  2  1  2  0
  2 12  1  0
  3  2  1  0
  4  5  1  0
  4  3  2  0
  5  6  2  0
  6  1  1  0
  7  5  1  0
  7  8  1  0
  9  8  2  0
 10 11  2  0
 10  9  1  0
 11  7  1  0
 12 13  2  0
 13 14  1  0
 15 14  2  0
 16 12  1  0
 16 15  1  0
 17 15  1  0
 18 17  1  0
 19 18  2  0
 19 21  1  0
 20 18  1  0
 22 23  1  0
 22 11  1  0
 23 24  1  0
 25 26  1  0
 25 24  1  0
 27 26  1  0
 27 22  1  0
  1 28  1  0
  3 29  1  0
  9 30  1  0
 10 31  1  0
 13 32  1  0
 14 33  1  0
 17 34  1  0
 20 35  1  0
 20 36  1  0
 22 37  1  0
 23 38  1  0
 23 39  1  0
 24 40  1  0
 24 41  1  0
 25 42  1  0
 25 43  1  0
 26 44  1  0
 26 45  1  0
 27 46  1  0
 27 47  1  0
M  ISO  8  28  14  29  14  30  14  31  14  32  14  33  14  37  13  38  13
M  ISO  8  39  13  40  13  41  13  42  13  43  13  44  13  45  13  46  13
M  ISO  1  47  13
M  END
>  <minimizedAffinity>  (1) 
-5.95891953

>  <minimizedRMSD>  (1) 
0.510362566

$$$$
