
     RDKit          3D

 41 44  0  0  0  0  0  0  0  0999 V2000
   38.5400   27.2600   41.2770 C   0  0  0  0  0  0  0  0  0  0  0  0
   37.9970   28.5170   40.9300 C   0  0  0  0  0  0  0  0  0  0  0  0
   36.8750   28.5510   40.1580 C   0  0  0  0  0  0  0  0  0  0  0  0
   36.2930   27.3810   39.7330 N   0  0  0  0  0  0  0  0  0  0  0  0
   36.8580   26.1690   40.0960 C   0  0  0  0  0  0  0  0  0  0  0  0
   37.9630   26.1180   40.8570 N   0  0  0  0  0  0  0  0  0  0  0  0
   36.2570   24.9500   39.6620 N   0  0  0  0  0  0  0  0  0  0  0  0
   36.1300   23.7440   40.2120 N   0  0  0  0  0  0  0  0  0  0  0  0
   35.4600   22.9320   39.3780 C   0  0  0  0  0  0  0  0  0  0  0  0
   35.1530   23.6780   38.2440 C   0  0  0  0  0  0  0  0  0  0  0  0
   35.6570   24.9350   38.4340 C   0  0  0  0  0  0  0  0  0  0  0  0
   35.4440   25.8910   37.3520 C   0  0  0  0  0  0  0  0  0  0  0  0
   36.4630   26.1700   36.4580 C   0  0  0  0  0  0  0  0  0  0  0  0
   36.3330   27.0640   35.4120 C   0  0  0  0  0  0  0  0  0  0  0  0
   35.1320   27.7220   35.2390 C   0  0  0  0  0  0  0  0  0  0  0  0
   34.0880   27.4770   36.1070 C   0  0  0  0  0  0  0  0  0  0  0  0
   34.2640   26.5740   37.1360 C   0  0  0  0  0  0  0  0  0  0  0  0
   38.6230   29.7510   41.3890 C   0  0  0  0  0  0  0  0  0  0  0  0
   39.4880   29.8010   42.5100 C   0  0  0  0  0  0  0  0  0  0  0  0
   39.8740   31.1150   42.6310 C   0  0  0  0  0  0  0  0  0  0  0  0
   39.2330   31.7970   41.5880 C   0  0  0  0  0  0  0  0  0  0  0  0
   38.5240   30.9730   40.8990 O   0  0  0  0  0  0  0  0  0  0  0  0
   39.3930   33.2070   41.3820 N   0  0  0  0  0  0  0  0  0  0  0  0
   38.5650   33.8680   40.4430 C   0  0  0  0  0  0  0  0  0  0  0  0
   37.3340   33.5070   40.2740 N   0  0  0  0  0  0  0  0  0  0  0  0
   39.1160   34.9470   39.6780 N   0  0  0  0  0  0  0  0  0  0  0  0
   36.9300   32.7390   40.8100 H   0  0  0  0  0  0  0  0  0  0  0  0
   39.4463   27.2133   41.8986 H   0  0  0  0  0  0  0  0  0  0  0  0
   36.4337   29.5178   39.8741 H   0  0  0  0  0  0  0  0  0  0  0  0
   35.2028   21.8776   39.5572 H   0  0  0  0  0  0  0  0  0  0  0  0
   34.6060   23.3223   37.3584 H   0  0  0  0  0  0  0  0  0  0  0  0
   37.4258   25.6537   36.5865 H   0  0  0  0  0  0  0  0  0  0  0  0
   37.1741   27.2484   34.7275 H   0  0  0  0  0  0  0  0  0  0  0  0
   35.0079   28.4381   34.4133 H   0  0  0  0  0  0  0  0  0  0  0  0
   33.1261   27.9955   35.9804 H   0  0  0  0  0  0  0  0  0  0  0  0
   33.4213   26.3893   37.8185 H   0  0  0  0  0  0  0  0  0  0  0  0
   39.7892   28.9603   43.1523 H   0  0  0  0  0  0  0  0  0  0  0  0
   40.5466   31.5424   43.3893 H   0  0  0  0  0  0  0  0  0  0  0  0
   40.1027   33.7332   41.9115 H   0  0  0  0  0  0  0  0  0  0  0  0
   38.5310   35.4415   38.9894 H   0  0  0  0  0  0  0  0  0  0  0  0
   40.0971   35.2282   39.8166 H   0  0  0  0  0  0  0  0  0  0  0  0
  2  1  2  0
  2 18  1  0
  3  2  1  0
  4  5  1  0
  4  3  2  0
  5  6  2  0
  6  1  1  0
  7  5  1  0
  7  8  1  0
  9  8  2  0
 10 11  2  0
 10  9  1  0
 11  7  1  0
 12 11  1  0
 13 12  2  0
 14 13  1  0
 15 14  2  0
 15 16  1  0
 16 17  2  0
 17 12  1  0
 18 19  2  0
 19 20  1  0
 21 20  2  0
 22 18  1  0
 22 21  1  0
 23 21  1  0
 24 23  1  0
 25 24  2  0
 25 27  1  0
 26 24  1  0
  1 28  1  0
  3 29  1  0
  9 30  1  0
 10 31  1  0
 13 32  1  0
 14 33  1  0
 15 34  1  0
 16 35  1  0
 17 36  1  0
 19 37  1  0
 20 38  1  0
 23 39  1  0
 26 40  1  0
 26 41  1  0
M  ISO  8  28  14  29  14  30  14  31  14  32  14  33  14  34  14  35  14
M  ISO  3  36  14  37  14  38  14
M  END
>  <minimizedAffinity>  (1) 
-5.89639854

>  <minimizedRMSD>  (1) 
0.454433262

$$$$
