
     RDKit          3D

 41 44  0  0  0  0  0  0  0  0999 V2000
   38.5580   27.2610   41.2200 C   0  0  0  0  0  0  0  0  0  0  0  0
   37.9960   28.5010   40.9250 C   0  0  0  0  0  0  0  0  0  0  0  0
   36.8330   28.5330   40.1890 C   0  0  0  0  0  0  0  0  0  0  0  0
   36.2710   27.3610   39.7780 N   0  0  0  0  0  0  0  0  0  0  0  0
   36.8310   26.1600   40.0730 C   0  0  0  0  0  0  0  0  0  0  0  0
   37.9790   26.1200   40.7980 N   0  0  0  0  0  0  0  0  0  0  0  0
   36.2440   24.9430   39.6470 N   0  0  0  0  0  0  0  0  0  0  0  0
   36.1840   23.7030   40.1880 N   0  0  0  0  0  0  0  0  0  0  0  0
   35.5170   22.9060   39.3630 C   0  0  0  0  0  0  0  0  0  0  0  0
   35.1400   23.6480   38.2700 C   0  0  0  0  0  0  0  0  0  0  0  0
   35.6010   24.9400   38.4510 C   0  0  0  0  0  0  0  0  0  0  0  0
   35.2680   25.8040   37.3240 C   0  0  0  0  0  0  0  0  0  0  0  0
   34.0990   26.4750   37.0580 C   0  0  0  0  0  0  0  0  0  0  0  0
   33.8960   27.3110   35.9890 C   0  0  0  0  0  0  0  0  0  0  0  0
   34.9460   27.4870   35.1160 C   0  0  0  0  0  0  0  0  0  0  0  0
   36.1670   26.8800   35.2570 C   0  0  0  0  0  0  0  0  0  0  0  0
   36.2500   26.0690   36.3630 C   0  0  0  0  0  0  0  0  0  0  0  0
   38.6240   29.7350   41.3900 C   0  0  0  0  0  0  0  0  0  0  0  0
   39.4790   29.7880   42.5090 C   0  0  0  0  0  0  0  0  0  0  0  0
   39.8630   31.1120   42.6240 C   0  0  0  0  0  0  0  0  0  0  0  0
   39.2250   31.7870   41.5750 C   0  0  0  0  0  0  0  0  0  0  0  0
   38.5090   30.9630   40.8710 O   0  0  0  0  0  0  0  0  0  0  0  0
   39.3850   33.1930   41.3680 N   0  0  0  0  0  0  0  0  0  0  0  0
   38.5450   33.8560   40.4360 C   0  0  0  0  0  0  0  0  0  0  0  0
   37.3140   33.4990   40.2580 N   0  0  0  0  0  0  0  0  0  0  0  0
   39.0760   34.9470   39.6750 N   0  0  0  0  0  0  0  0  0  0  0  0
   36.9180   32.7280   40.7940 H   0  0  0  0  0  0  0  0  0  0  0  0
   39.4878   27.2127   41.8058 H   0  0  0  0  0  0  0  0  0  0  0  0
   36.3622   29.4942   39.9352 H   0  0  0  0  0  0  0  0  0  0  0  0
   35.3036   21.8392   39.5256 H   0  0  0  0  0  0  0  0  0  0  0  0
   34.5715   23.2797   37.4033 H   0  0  0  0  0  0  0  0  0  0  0  0
   33.2610   26.3309   37.7559 H   0  0  0  0  0  0  0  0  0  0  0  0
   32.9330   27.8201   35.8357 H   0  0  0  0  0  0  0  0  0  0  0  0
   34.7963   28.1542   34.2544 H   0  0  0  0  0  0  0  0  0  0  0  0
   36.9993   27.0278   34.5532 H   0  0  0  0  0  0  0  0  0  0  0  0
   37.2145   25.5617   36.5126 H   0  0  0  0  0  0  0  0  0  0  0  0
   39.7787   28.9507   43.1564 H   0  0  0  0  0  0  0  0  0  0  0  0
   40.5314   31.5455   43.3825 H   0  0  0  0  0  0  0  0  0  0  0  0
   40.1015   33.7182   41.8892 H   0  0  0  0  0  0  0  0  0  0  0  0
   38.4794   35.4387   38.9944 H   0  0  0  0  0  0  0  0  0  0  0  0
   40.0545   35.2399   39.8083 H   0  0  0  0  0  0  0  0  0  0  0  0
  2  1  2  0
  2 18  1  0
  3  2  1  0
  4  5  1  0
  4  3  2  0
  5  6  2  0
  6  1  1  0
  7  5  1  0
  7  8  1  0
  9  8  2  0
 10 11  2  0
 10  9  1  0
 11  7  1  0
 12 11  1  0
 13 12  2  0
 14 13  1  0
 15 16  1  0
 15 14  2  0
 16 17  2  0
 17 12  1  0
 18 19  2  0
 19 20  1  0
 21 20  2  0
 22 18  1  0
 22 21  1  0
 23 21  1  0
 24 23  1  0
 25 24  2  0
 25 27  1  0
 26 24  1  0
  1 28  1  0
  3 29  1  0
  9 30  1  0
 10 31  1  0
 13 32  1  0
 14 33  1  0
 15 34  1  0
 16 35  1  0
 17 36  1  0
 19 37  1  0
 20 38  1  0
 23 39  1  0
 26 40  1  0
 26 41  1  0
M  ISO  8  28  14  29  14  30  14  31  14  32  14  33  14  34  14  35  14
M  ISO  3  36  14  37  14  38  14
M  END
>  <minimizedAffinity>  (1) 
-5.8537693

>  <minimizedRMSD>  (1) 
0.353461236

$$$$
