
     RDKit          3D

 40 43  0  0  0  0  0  0  0  0999 V2000
   38.5690   27.2630   41.1740 C   0  0  0  0  0  0  0  0  0  0  0  0
   37.9960   28.5090   40.9000 C   0  0  0  0  0  0  0  0  0  0  0  0
   36.8190   28.5520   40.1750 C   0  0  0  0  0  0  0  0  0  0  0  0
   36.2560   27.3840   39.7520 N   0  0  0  0  0  0  0  0  0  0  0  0
   36.8580   26.1700   40.0450 C   0  0  0  0  0  0  0  0  0  0  0  0
   37.9990   26.1200   40.7480 N   0  0  0  0  0  0  0  0  0  0  0  0
   36.2370   24.9650   39.5940 N   0  0  0  0  0  0  0  0  0  0  0  0
   36.1330   23.7400   40.1830 N   0  0  0  0  0  0  0  0  0  0  0  0
   35.4310   22.9400   39.3990 C   0  0  0  0  0  0  0  0  0  0  0  0
   35.0830   23.6650   38.2920 C   0  0  0  0  0  0  0  0  0  0  0  0
   35.5950   24.9500   38.4150 C   0  0  0  0  0  0  0  0  0  0  0  0
   38.6170   29.7470   41.3680 C   0  0  0  0  0  0  0  0  0  0  0  0
   39.4670   29.7850   42.5000 C   0  0  0  0  0  0  0  0  0  0  0  0
   39.8540   31.1090   42.6240 C   0  0  0  0  0  0  0  0  0  0  0  0
   39.2220   31.7900   41.5730 C   0  0  0  0  0  0  0  0  0  0  0  0
   38.5120   30.9680   40.8620 O   0  0  0  0  0  0  0  0  0  0  0  0
   39.3860   33.1940   41.3760 N   0  0  0  0  0  0  0  0  0  0  0  0
   38.5510   33.8650   40.4510 C   0  0  0  0  0  0  0  0  0  0  0  0
   37.3280   33.5180   40.2630 N   0  0  0  0  0  0  0  0  0  0  0  0
   39.0680   34.9630   39.6960 N   0  0  0  0  0  0  0  0  0  0  0  0
   36.9170   32.7420   40.8120 H   0  0  0  0  0  0  0  0  0  0  0  0
   35.3520   25.8870   37.3260 C   0  0  0  0  0  0  0  0  0  0  0  0
   34.1250   26.4650   37.0960 C   0  0  0  0  0  0  0  0  0  0  0  0
   33.8130   27.3450   36.1050 C   0  0  0  0  0  0  0  0  0  0  0  0
   34.8030   27.7160   35.2280 C   0  0  0  0  0  0  0  0  0  0  0  0
   36.0320   27.1490   35.4440 C   0  0  0  0  0  0  0  0  0  0  0  0
   36.2530   26.2960   36.4360 N   0  0  0  0  0  0  0  0  0  0  0  0
   39.5051   27.2158   41.7497 H   0  0  0  0  0  0  0  0  0  0  0  0
   36.3430   29.5160   39.9425 H   0  0  0  0  0  0  0  0  0  0  0  0
   35.1748   21.8891   39.5990 H   0  0  0  0  0  0  0  0  0  0  0  0
   34.4932   23.2906   37.4423 H   0  0  0  0  0  0  0  0  0  0  0  0
   39.7580   28.9420   43.1440 H   0  0  0  0  0  0  0  0  0  0  0  0
   40.5190   31.5377   43.3882 H   0  0  0  0  0  0  0  0  0  0  0  0
   40.1040   33.7131   41.9012 H   0  0  0  0  0  0  0  0  0  0  0  0
   38.4639   35.4542   39.0217 H   0  0  0  0  0  0  0  0  0  0  0  0
   40.0447   35.2630   39.8262 H   0  0  0  0  0  0  0  0  0  0  0  0
   33.3123   26.1877   37.7835 H   0  0  0  0  0  0  0  0  0  0  0  0
   32.7942   27.7485   36.0091 H   0  0  0  0  0  0  0  0  0  0  0  0
   34.6211   28.4229   34.4051 H   0  0  0  0  0  0  0  0  0  0  0  0
   36.8631   27.4099   34.7723 H   0  0  0  0  0  0  0  0  0  0  0  0
  2  1  2  0
  2 12  1  0
  3  2  1  0
  4  5  1  0
  4  3  2  0
  5  6  2  0
  6  1  1  0
  7  5  1  0
  7  8  1  0
  9  8  2  0
 10 11  2  0
 10  9  1  0
 11  7  1  0
 12 13  2  0
 13 14  1  0
 15 14  2  0
 16 12  1  0
 16 15  1  0
 17 15  1  0
 18 17  1  0
 19 18  2  0
 19 21  1  0
 20 18  1  0
 22 11  1  0
 23 22  2  0
 24 23  1  0
 25 26  1  0
 25 24  2  0
 26 27  2  0
 27 22  1  0
  1 28  1  0
  3 29  1  0
  9 30  1  0
 10 31  1  0
 13 32  1  0
 14 33  1  0
 17 34  1  0
 20 35  1  0
 20 36  1  0
 23 37  1  0
 24 38  1  0
 25 39  1  0
 26 40  1  0
M  ISO  8  28  14  29  14  30  14  31  14  32  14  33  14  37  14  38  14
M  ISO  2  39  14  40  14
M  END
>  <minimizedAffinity>  (1) 
-5.81870604

>  <minimizedRMSD>  (1) 
0.679498792

$$$$
