
     RDKit          3D

 39 42  0  0  0  0  0  0  0  0999 V2000
   38.5480   27.2730   41.2310 C   0  0  0  0  0  0  0  0  0  0  0  0
   37.9700   28.5300   40.9410 C   0  0  0  0  0  0  0  0  0  0  0  0
   36.8170   28.5650   40.2120 C   0  0  0  0  0  0  0  0  0  0  0  0
   36.2480   27.4000   39.7790 N   0  0  0  0  0  0  0  0  0  0  0  0
   36.8420   26.1850   40.0800 C   0  0  0  0  0  0  0  0  0  0  0  0
   37.9780   26.1330   40.7990 N   0  0  0  0  0  0  0  0  0  0  0  0
   36.2390   24.9760   39.6100 N   0  0  0  0  0  0  0  0  0  0  0  0
   36.1390   23.7490   40.1900 N   0  0  0  0  0  0  0  0  0  0  0  0
   35.4680   22.9440   39.3770 C   0  0  0  0  0  0  0  0  0  0  0  0
   35.1390   23.6730   38.2680 C   0  0  0  0  0  0  0  0  0  0  0  0
   35.6300   24.9690   38.4120 C   0  0  0  0  0  0  0  0  0  0  0  0
   38.6180   29.7460   41.4080 C   0  0  0  0  0  0  0  0  0  0  0  0
   39.4950   29.7930   42.5140 C   0  0  0  0  0  0  0  0  0  0  0  0
   39.8900   31.1120   42.6270 C   0  0  0  0  0  0  0  0  0  0  0  0
   39.2380   31.7950   41.5870 C   0  0  0  0  0  0  0  0  0  0  0  0
   38.5120   30.9720   40.9060 O   0  0  0  0  0  0  0  0  0  0  0  0
   39.4060   33.1990   41.3830 N   0  0  0  0  0  0  0  0  0  0  0  0
   38.5690   33.8690   40.4500 C   0  0  0  0  0  0  0  0  0  0  0  0
   37.3410   33.5200   40.2820 N   0  0  0  0  0  0  0  0  0  0  0  0
   39.0890   34.9550   39.6740 N   0  0  0  0  0  0  0  0  0  0  0  0
   36.9440   32.7470   40.8340 H   0  0  0  0  0  0  0  0  0  0  0  0
   35.3980   25.9080   37.3240 C   0  0  0  0  0  0  0  0  0  0  0  0
   34.1710   26.4750   37.0690 C   0  0  0  0  0  0  0  0  0  0  0  0
   33.8710   27.3630   36.0710 C   0  0  0  0  0  0  0  0  0  0  0  0
   34.8910   27.7090   35.2590 N   0  0  0  0  0  0  0  0  0  0  0  0
   36.1140   27.1890   35.4560 C   0  0  0  0  0  0  0  0  0  0  0  0
   36.2970   26.3440   36.4460 N   0  0  0  0  0  0  0  0  0  0  0  0
   39.4770   27.2260   41.8182 H   0  0  0  0  0  0  0  0  0  0  0  0
   36.3459   29.5298   39.9730 H   0  0  0  0  0  0  0  0  0  0  0  0
   35.2222   21.8876   39.5606 H   0  0  0  0  0  0  0  0  0  0  0  0
   34.5766   23.2965   37.4008 H   0  0  0  0  0  0  0  0  0  0  0  0
   39.8007   28.9522   43.1539 H   0  0  0  0  0  0  0  0  0  0  0  0
   40.5733   31.5388   43.3760 H   0  0  0  0  0  0  0  0  0  0  0  0
   40.1250   33.7193   41.9057 H   0  0  0  0  0  0  0  0  0  0  0  0
   38.4831   35.4411   38.9976 H   0  0  0  0  0  0  0  0  0  0  0  0
   40.0688   35.2498   39.7924 H   0  0  0  0  0  0  0  0  0  0  0  0
   33.3455   26.1850   37.7358 H   0  0  0  0  0  0  0  0  0  0  0  0
   32.8577   27.7703   35.9391 H   0  0  0  0  0  0  0  0  0  0  0  0
   36.9506   27.4666   34.7979 H   0  0  0  0  0  0  0  0  0  0  0  0
  2  1  2  0
  2 12  1  0
  3  2  1  0
  4  5  1  0
  4  3  2  0
  5  6  2  0
  6  1  1  0
  7  5  1  0
  7  8  1  0
  9  8  2  0
 10 11  2  0
 10  9  1  0
 11  7  1  0
 12 13  2  0
 13 14  1  0
 15 14  2  0
 16 12  1  0
 16 15  1  0
 17 15  1  0
 18 17  1  0
 19 18  2  0
 19 21  1  0
 20 18  1  0
 22 11  1  0
 23 22  2  0
 24 23  1  0
 25 26  1  0
 25 24  2  0
 26 27  2  0
 27 22  1  0
  1 28  1  0
  3 29  1  0
  9 30  1  0
 10 31  1  0
 13 32  1  0
 14 33  1  0
 17 34  1  0
 20 35  1  0
 20 36  1  0
 23 37  1  0
 24 38  1  0
 26 39  1  0
M  ISO  8  28  14  29  14  30  14  31  14  32  14  33  14  37  14  38  14
M  ISO  1  39  14
M  END
>  <minimizedAffinity>  (1) 
-5.80175114

>  <minimizedRMSD>  (1) 
0.218670428

$$$$
