
     RDKit          3D

 38 41  0  0  0  0  0  0  0  0999 V2000
   38.4820   27.2610   41.3330 C   0  0  0  0  0  0  0  0  0  0  0  0
   37.9820   28.5170   40.9370 C   0  0  0  0  0  0  0  0  0  0  0  0
   36.8960   28.5400   40.1150 C   0  0  0  0  0  0  0  0  0  0  0  0
   36.3150   27.3740   39.6910 N   0  0  0  0  0  0  0  0  0  0  0  0
   36.8230   26.1720   40.0920 C   0  0  0  0  0  0  0  0  0  0  0  0
   37.9040   26.1190   40.9100 N   0  0  0  0  0  0  0  0  0  0  0  0
   36.2660   24.9320   39.6850 N   0  0  0  0  0  0  0  0  0  0  0  0
   36.1670   23.7130   40.2040 N   0  0  0  0  0  0  0  0  0  0  0  0
   35.5250   22.8950   39.3780 C   0  0  0  0  0  0  0  0  0  0  0  0
   35.1900   23.6230   38.2650 C   0  0  0  0  0  0  0  0  0  0  0  0
   35.6600   24.9160   38.4610 C   0  0  0  0  0  0  0  0  0  0  0  0
   38.6240   29.7390   41.4070 C   0  0  0  0  0  0  0  0  0  0  0  0
   39.4870   29.7910   42.5160 C   0  0  0  0  0  0  0  0  0  0  0  0
   39.8730   31.1050   42.6250 C   0  0  0  0  0  0  0  0  0  0  0  0
   39.2300   31.7880   41.5810 C   0  0  0  0  0  0  0  0  0  0  0  0
   38.5120   30.9650   40.8920 O   0  0  0  0  0  0  0  0  0  0  0  0
   39.3920   33.1870   41.3730 N   0  0  0  0  0  0  0  0  0  0  0  0
   38.5500   33.8510   40.4380 C   0  0  0  0  0  0  0  0  0  0  0  0
   37.3200   33.4940   40.2590 N   0  0  0  0  0  0  0  0  0  0  0  0
   39.0790   34.9430   39.6740 N   0  0  0  0  0  0  0  0  0  0  0  0
   36.9260   32.7270   40.8050 H   0  0  0  0  0  0  0  0  0  0  0  0
   35.4460   25.8950   37.4460 N   0  0  0  0  0  0  0  0  0  0  0  0
   36.3630   26.2050   36.4830 C   0  0  0  0  0  0  0  0  0  0  0  0
   35.8270   27.1800   35.6830 C   0  0  0  0  0  0  0  0  0  0  0  0
   34.5960   27.4680   36.1450 N   0  0  0  0  0  0  0  0  0  0  0  0
   34.3710   26.6900   37.2090 C   0  0  0  0  0  0  0  0  0  0  0  0
   39.3573   27.2113   41.9974 H   0  0  0  0  0  0  0  0  0  0  0  0
   36.4812   29.5049   39.7882 H   0  0  0  0  0  0  0  0  0  0  0  0
   35.3033   21.8320   39.5537 H   0  0  0  0  0  0  0  0  0  0  0  0
   34.6497   23.2523   37.3814 H   0  0  0  0  0  0  0  0  0  0  0  0
   39.7900   28.9537   43.1619 H   0  0  0  0  0  0  0  0  0  0  0  0
   40.5494   31.5350   43.3784 H   0  0  0  0  0  0  0  0  0  0  0  0
   40.1097   33.7119   41.8929 H   0  0  0  0  0  0  0  0  0  0  0  0
   38.4808   35.4329   38.9935 H   0  0  0  0  0  0  0  0  0  0  0  0
   40.0572   35.2375   39.8057 H   0  0  0  0  0  0  0  0  0  0  0  0
   37.3585   25.7512   36.3692 H   0  0  0  0  0  0  0  0  0  0  0  0
   36.3170   27.6457   34.8152 H   0  0  0  0  0  0  0  0  0  0  0  0
   33.4475   26.6935   37.8066 H   0  0  0  0  0  0  0  0  0  0  0  0
  2  1  2  0
  2 12  1  0
  3  2  1  0
  4  5  1  0
  4  3  2  0
  5  6  2  0
  6  1  1  0
  7  5  1  0
  7  8  1  0
  9  8  2  0
 10 11  2  0
 10  9  1  0
 11  7  1  0
 12 13  2  0
 13 14  1  0
 15 14  2  0
 16 12  1  0
 16 15  1  0
 17 15  1  0
 18 17  1  0
 19 18  2  0
 19 21  1  0
 20 18  1  0
 22 11  1  0
 23 22  1  0
 24 25  1  0
 24 23  2  0
 25 26  2  0
 26 22  1  0
  1 27  1  0
  3 28  1  0
  9 29  1  0
 10 30  1  0
 13 31  1  0
 14 32  1  0
 17 33  1  0
 20 34  1  0
 20 35  1  0
 23 36  1  0
 24 37  1  0
 26 38  1  0
M  ISO  8  27  14  28  14  29  14  30  14  31  14  32  14  36  14  37  14
M  ISO  1  38  14
M  END
>  <minimizedAffinity>  (1) 
-5.65646887

>  <minimizedRMSD>  (1) 
0.485208184

$$$$
