
     RDKit          3D

 37 40  0  0  0  0  0  0  0  0999 V2000
   38.5230   27.2500   41.2900 C   0  0  0  0  0  0  0  0  0  0  0  0
   37.9990   28.5040   40.9330 C   0  0  0  0  0  0  0  0  0  0  0  0
   36.8700   28.5410   40.1370 C   0  0  0  0  0  0  0  0  0  0  0  0
   36.2870   27.3770   39.7160 N   0  0  0  0  0  0  0  0  0  0  0  0
   36.8250   26.1770   40.0830 C   0  0  0  0  0  0  0  0  0  0  0  0
   37.9360   26.1220   40.8650 N   0  0  0  0  0  0  0  0  0  0  0  0
   36.2590   24.9380   39.6720 N   0  0  0  0  0  0  0  0  0  0  0  0
   36.1970   23.7060   40.2040 N   0  0  0  0  0  0  0  0  0  0  0  0
   35.5340   22.8910   39.3900 C   0  0  0  0  0  0  0  0  0  0  0  0
   35.1540   23.6250   38.2930 C   0  0  0  0  0  0  0  0  0  0  0  0
   35.6140   24.9230   38.4730 C   0  0  0  0  0  0  0  0  0  0  0  0
   38.6170   29.7430   41.3800 C   0  0  0  0  0  0  0  0  0  0  0  0
   39.4780   29.7960   42.5040 C   0  0  0  0  0  0  0  0  0  0  0  0
   39.8650   31.1070   42.6260 C   0  0  0  0  0  0  0  0  0  0  0  0
   39.2270   31.7890   41.5790 C   0  0  0  0  0  0  0  0  0  0  0  0
   38.5140   30.9640   40.8810 O   0  0  0  0  0  0  0  0  0  0  0  0
   39.3840   33.1990   41.3660 N   0  0  0  0  0  0  0  0  0  0  0  0
   38.5410   33.8540   40.4370 C   0  0  0  0  0  0  0  0  0  0  0  0
   37.3150   33.4920   40.2530 N   0  0  0  0  0  0  0  0  0  0  0  0
   39.0740   34.9510   39.6840 N   0  0  0  0  0  0  0  0  0  0  0  0
   36.9230   32.7210   40.7920 H   0  0  0  0  0  0  0  0  0  0  0  0
   35.3870   25.9480   37.5100 N   0  0  0  0  0  0  0  0  0  0  0  0
   36.3000   26.1490   36.5210 C   0  0  0  0  0  0  0  0  0  0  0  0
   35.8870   27.1610   35.7270 N   0  0  0  0  0  0  0  0  0  0  0  0
   34.7070   27.5890   36.2310 C   0  0  0  0  0  0  0  0  0  0  0  0
   34.4280   26.8310   37.3180 N   0  0  0  0  0  0  0  0  0  0  0  0
   39.4211   27.1934   41.9226 H   0  0  0  0  0  0  0  0  0  0  0  0
   36.4389   29.5088   39.8411 H   0  0  0  0  0  0  0  0  0  0  0  0
   35.3275   21.8245   39.5631 H   0  0  0  0  0  0  0  0  0  0  0  0
   34.5871   23.2518   37.4273 H   0  0  0  0  0  0  0  0  0  0  0  0
   39.7761   28.9560   43.1486 H   0  0  0  0  0  0  0  0  0  0  0  0
   40.5356   31.5341   43.3862 H   0  0  0  0  0  0  0  0  0  0  0  0
   40.1011   33.7279   41.8826 H   0  0  0  0  0  0  0  0  0  0  0  0
   38.4804   35.4440   39.0017 H   0  0  0  0  0  0  0  0  0  0  0  0
   40.0506   35.2463   39.8252 H   0  0  0  0  0  0  0  0  0  0  0  0
   37.2298   25.5764   36.3887 H   0  0  0  0  0  0  0  0  0  0  0  0
   34.0868   28.4045   35.8307 H   0  0  0  0  0  0  0  0  0  0  0  0
  2  1  2  0
  2 12  1  0
  3  2  1  0
  4  5  1  0
  4  3  2  0
  5  6  2  0
  6  1  1  0
  7  5  1  0
  7  8  1  0
  9  8  2  0
 10 11  2  0
 10  9  1  0
 11  7  1  0
 12 13  2  0
 13 14  1  0
 15 14  2  0
 16 12  1  0
 16 15  1  0
 17 15  1  0
 18 17  1  0
 19 18  2  0
 19 21  1  0
 20 18  1  0
 22 11  1  0
 23 22  1  0
 24 25  1  0
 24 23  2  0
 25 26  2  0
 26 22  1  0
  1 27  1  0
  3 28  1  0
  9 29  1  0
 10 30  1  0
 13 31  1  0
 14 32  1  0
 17 33  1  0
 20 34  1  0
 20 35  1  0
 23 36  1  0
 25 37  1  0
M  ISO  8  27  14  28  14  29  14  30  14  31  14  32  14  36  14  37  14
M  END
>  <minimizedAffinity>  (1) 
-5.65593243

>  <minimizedRMSD>  (1) 
0.491300344

$$$$
