
     RDKit          3D

 43 45  0  0  0  0  0  0  0  0999 V2000
   38.4140   27.2380   41.3580 C   0  0  0  0  0  0  0  0  0  0  0  0
   37.9780   28.4900   40.9140 C   0  0  0  0  0  0  0  0  0  0  0  0
   36.9230   28.5260   40.0240 C   0  0  0  0  0  0  0  0  0  0  0  0
   36.3620   27.3520   39.6250 N   0  0  0  0  0  0  0  0  0  0  0  0
   36.8050   26.1460   40.0720 C   0  0  0  0  0  0  0  0  0  0  0  0
   37.8280   26.1000   40.9360 N   0  0  0  0  0  0  0  0  0  0  0  0
   36.1880   24.9440   39.6400 N   0  0  0  0  0  0  0  0  0  0  0  0
   35.9870   23.7540   40.2590 N   0  0  0  0  0  0  0  0  0  0  0  0
   35.3330   22.9650   39.3960 C   0  0  0  0  0  0  0  0  0  0  0  0
   35.1230   23.6560   38.2310 C   0  0  0  0  0  0  0  0  0  0  0  0
   35.6590   24.8960   38.3840 C   0  0  0  0  0  0  0  0  0  0  0  0
   38.6080   29.7230   41.3770 C   0  0  0  0  0  0  0  0  0  0  0  0
   39.4640   29.7660   42.4910 C   0  0  0  0  0  0  0  0  0  0  0  0
   39.8500   31.0910   42.6070 C   0  0  0  0  0  0  0  0  0  0  0  0
   39.2140   31.7730   41.5680 C   0  0  0  0  0  0  0  0  0  0  0  0
   38.4960   30.9490   40.8680 O   0  0  0  0  0  0  0  0  0  0  0  0
   39.3750   33.1750   41.3680 N   0  0  0  0  0  0  0  0  0  0  0  0
   38.5390   33.8420   40.4290 C   0  0  0  0  0  0  0  0  0  0  0  0
   37.3060   33.4910   40.2520 N   0  0  0  0  0  0  0  0  0  0  0  0
   39.0740   34.9270   39.6640 N   0  0  0  0  0  0  0  0  0  0  0  0
   36.9100   32.7170   40.7810 H   0  0  0  0  0  0  0  0  0  0  0  0
   35.5350   25.8540   37.2420 C   0  0  0  0  0  0  0  0  0  0  0  0
   36.8960   26.4460   36.8350 C   0  0  0  0  0  0  0  0  0  0  0  0
   35.1330   25.0370   36.0060 C   0  0  0  0  0  0  0  0  0  0  0  0
   34.6440   27.0170   37.4940 C   0  0  0  0  0  0  0  0  0  0  0  0
   39.2532   27.1805   42.0669 H   0  0  0  0  0  0  0  0  0  0  0  0
   36.5429   29.4859   39.6444 H   0  0  0  0  0  0  0  0  0  0  0  0
   35.0158   21.9299   39.5909 H   0  0  0  0  0  0  0  0  0  0  0  0
   34.6127   23.2757   37.3338 H   0  0  0  0  0  0  0  0  0  0  0  0
   39.7638   28.9255   43.1343 H   0  0  0  0  0  0  0  0  0  0  0  0
   40.5222   31.5196   43.3649 H   0  0  0  0  0  0  0  0  0  0  0  0
   40.0873   33.6988   41.8963 H   0  0  0  0  0  0  0  0  0  0  0  0
   38.4795   35.4181   38.9811 H   0  0  0  0  0  0  0  0  0  0  0  0
   40.0535   35.2167   39.7964 H   0  0  0  0  0  0  0  0  0  0  0  0
   37.4718   26.6964   37.7382 H   0  0  0  0  0  0  0  0  0  0  0  0
   37.4528   25.7087   36.2379 H   0  0  0  0  0  0  0  0  0  0  0  0
   36.7363   27.3560   36.2379 H   0  0  0  0  0  0  0  0  0  0  0  0
   34.6683   24.0927   36.3259 H   0  0  0  0  0  0  0  0  0  0  0  0
   34.4154   25.6130   35.4032 H   0  0  0  0  0  0  0  0  0  0  0  0
   36.0272   24.8199   35.4032 H   0  0  0  0  0  0  0  0  0  0  0  0
   34.5312   27.1643   38.5782 H   0  0  0  0  0  0  0  0  0  0  0  0
   35.0837   27.9198   37.0451 H   0  0  0  0  0  0  0  0  0  0  0  0
   33.6578   26.8274   37.0451 H   0  0  0  0  0  0  0  0  0  0  0  0
  2  1  2  0
  2 12  1  0
  3  2  1  0
  4  3  2  0
  4  5  1  0
  5  6  2  0
  6  1  1  0
  7  5  1  0
  7  8  1  0
  9  8  2  0
 10 11  2  0
 10  9  1  0
 11  7  1  0
 12 13  2  0
 13 14  1  0
 15 14  2  0
 16 12  1  0
 16 15  1  0
 17 15  1  0
 18 17  1  0
 19 18  2  0
 19 21  1  0
 20 18  1  0
 22 25  1  0
 22 11  1  0
 23 22  1  0
 24 22  1  0
  1 26  1  0
  3 27  1  0
  9 28  1  0
 10 29  1  0
 13 30  1  0
 14 31  1  0
 17 32  1  0
 20 33  1  0
 20 34  1  0
 23 35  1  0
 23 36  1  0
 23 37  1  0
 24 38  1  0
 24 39  1  0
 24 40  1  0
 25 41  1  0
 25 42  1  0
 25 43  1  0
M  ISO  8  26  14  27  14  28  14  29  14  30  14  31  14  35   8  36   8
M  ISO  7  37   8  38   8  39   8  40   8  41   8  42   8  43   8
M  END
>  <minimizedAffinity>  (1) 
-5.58157778

>  <minimizedRMSD>  (1) 
0.106588811

$$$$
