
     RDKit          3D

 38 41  0  0  0  0  0  0  0  0999 V2000
   38.5330   27.2540   41.2450 C   0  0  0  0  0  0  0  0  0  0  0  0
   37.9900   28.5000   40.9140 C   0  0  0  0  0  0  0  0  0  0  0  0
   36.8580   28.5320   40.1520 C   0  0  0  0  0  0  0  0  0  0  0  0
   36.2790   27.3650   39.7280 N   0  0  0  0  0  0  0  0  0  0  0  0
   36.8500   26.1510   40.0770 C   0  0  0  0  0  0  0  0  0  0  0  0
   37.9620   26.1040   40.8270 N   0  0  0  0  0  0  0  0  0  0  0  0
   36.2450   24.9350   39.6410 N   0  0  0  0  0  0  0  0  0  0  0  0
   36.1360   23.7170   40.2180 N   0  0  0  0  0  0  0  0  0  0  0  0
   35.4570   22.9220   39.3910 C   0  0  0  0  0  0  0  0  0  0  0  0
   35.1300   23.6420   38.2700 C   0  0  0  0  0  0  0  0  0  0  0  0
   35.6320   24.9090   38.4390 C   0  0  0  0  0  0  0  0  0  0  0  0
   38.6120   29.7370   41.3710 C   0  0  0  0  0  0  0  0  0  0  0  0
   39.4680   29.7850   42.4980 C   0  0  0  0  0  0  0  0  0  0  0  0
   39.8540   31.1050   42.6140 C   0  0  0  0  0  0  0  0  0  0  0  0
   39.2230   31.7790   41.5700 C   0  0  0  0  0  0  0  0  0  0  0  0
   38.5150   30.9580   40.8730 O   0  0  0  0  0  0  0  0  0  0  0  0
   39.3850   33.1880   41.3610 N   0  0  0  0  0  0  0  0  0  0  0  0
   38.5410   33.8520   40.4330 C   0  0  0  0  0  0  0  0  0  0  0  0
   37.3140   33.4980   40.2540 N   0  0  0  0  0  0  0  0  0  0  0  0
   39.0800   34.9440   39.6790 N   0  0  0  0  0  0  0  0  0  0  0  0
   36.9210   32.7250   40.7900 H   0  0  0  0  0  0  0  0  0  0  0  0
   35.4110   25.8900   37.3430 C   0  0  0  0  0  0  0  0  0  0  0  0
   34.0440   26.3800   37.0400 C   0  0  0  0  0  0  0  0  0  0  0  0
   34.6080   25.3800   36.1020 C   0  0  0  0  0  0  0  0  0  0  0  0
   39.4447   27.2101   41.8589 H   0  0  0  0  0  0  0  0  0  0  0  0
   36.4091   29.4980   39.8774 H   0  0  0  0  0  0  0  0  0  0  0  0
   35.2023   21.8680   39.5760 H   0  0  0  0  0  0  0  0  0  0  0  0
   34.5699   23.2731   37.3981 H   0  0  0  0  0  0  0  0  0  0  0  0
   39.7634   28.9461   43.1453 H   0  0  0  0  0  0  0  0  0  0  0  0
   40.5221   31.5363   43.3740 H   0  0  0  0  0  0  0  0  0  0  0  0
   40.1053   33.7122   41.8781 H   0  0  0  0  0  0  0  0  0  0  0  0
   38.4880   35.4423   38.9992 H   0  0  0  0  0  0  0  0  0  0  0  0
   40.0596   35.2310   39.8166 H   0  0  0  0  0  0  0  0  0  0  0  0
   36.3755   26.3814   37.5387 H   0  0  0  0  0  0  0  0  0  0  0  0
   33.2099   26.0931   37.6972 H   0  0  0  0  0  0  0  0  0  0  0  0
   33.6131   27.3832   36.9060 H   0  0  0  0  0  0  0  0  0  0  0  0
   34.2120   24.3540   36.0807 H   0  0  0  0  0  0  0  0  0  0  0  0
   34.7829   25.3276   35.0173 H   0  0  0  0  0  0  0  0  0  0  0  0
  2  1  2  0
  2 12  1  0
  3  2  1  0
  4  5  1  0
  4  3  2  0
  5  6  2  0
  6  1  1  0
  7  5  1  0
  7  8  1  0
  9  8  2  0
 10 11  2  0
 10  9  1  0
 11  7  1  0
 12 13  2  0
 13 14  1  0
 15 14  2  0
 16 12  1  0
 16 15  1  0
 17 15  1  0
 18 17  1  0
 19 18  2  0
 19 21  1  0
 20 18  1  0
 22 11  1  0
 23 22  1  0
 24 23  1  0
 24 22  1  0
  1 25  1  0
  3 26  1  0
  9 27  1  0
 10 28  1  0
 13 29  1  0
 14 30  1  0
 17 31  1  0
 20 32  1  0
 20 33  1  0
 22 34  1  0
 23 35  1  0
 23 36  1  0
 24 37  1  0
 24 38  1  0
M  ISO  8  25  14  26  14  27  14  28  14  29  14  30  14  34  13  35  13
M  ISO  3  36  13  37  13  38  13
M  END
>  <minimizedAffinity>  (1) 
-5.55603361

>  <minimizedRMSD>  (1) 
0.135890454

$$$$
