
     RDKit          3D

 32 34  0  0  0  0  0  0  0  0999 V2000
   38.4760   27.2360   41.3580 C   0  0  0  0  0  0  0  0  0  0  0  0
   38.0030   28.4850   40.9440 C   0  0  0  0  0  0  0  0  0  0  0  0
   36.9180   28.5180   40.0880 C   0  0  0  0  0  0  0  0  0  0  0  0
   36.3430   27.3470   39.6750 N   0  0  0  0  0  0  0  0  0  0  0  0
   36.8300   26.1450   40.0990 C   0  0  0  0  0  0  0  0  0  0  0  0
   37.8910   26.1080   40.9350 N   0  0  0  0  0  0  0  0  0  0  0  0
   36.2670   24.9120   39.6980 N   0  0  0  0  0  0  0  0  0  0  0  0
   36.2040   23.6790   40.2370 N   0  0  0  0  0  0  0  0  0  0  0  0
   35.5470   22.8610   39.4290 C   0  0  0  0  0  0  0  0  0  0  0  0
   35.1620   23.5960   38.3080 C   0  0  0  0  0  0  0  0  0  0  0  0
   35.6250   24.8920   38.4930 C   0  0  0  0  0  0  0  0  0  0  0  0
   38.6150   29.7290   41.3850 C   0  0  0  0  0  0  0  0  0  0  0  0
   39.4740   29.7850   42.5090 C   0  0  0  0  0  0  0  0  0  0  0  0
   39.8590   31.1020   42.6290 C   0  0  0  0  0  0  0  0  0  0  0  0
   39.2190   31.7760   41.5780 C   0  0  0  0  0  0  0  0  0  0  0  0
   38.5100   30.9490   40.8840 O   0  0  0  0  0  0  0  0  0  0  0  0
   39.3720   33.1850   41.3620 N   0  0  0  0  0  0  0  0  0  0  0  0
   38.5300   33.8390   40.4320 C   0  0  0  0  0  0  0  0  0  0  0  0
   37.3070   33.4760   40.2630 N   0  0  0  0  0  0  0  0  0  0  0  0
   39.0620   34.9260   39.6660 N   0  0  0  0  0  0  0  0  0  0  0  0
   36.9110   32.7020   40.7940 H   0  0  0  0  0  0  0  0  0  0  0  0
   35.4040   25.8830   37.5460 O   0  0  0  0  0  0  0  0  0  0  0  0
   39.3382   27.1793   42.0387 H   0  0  0  0  0  0  0  0  0  0  0  0
   36.5184   29.4820   39.7402 H   0  0  0  0  0  0  0  0  0  0  0  0
   35.3421   21.7954   39.6092 H   0  0  0  0  0  0  0  0  0  0  0  0
   34.5983   23.2202   37.4414 H   0  0  0  0  0  0  0  0  0  0  0  0
   39.7732   28.9467   43.1554 H   0  0  0  0  0  0  0  0  0  0  0  0
   40.5272   31.5341   43.3885 H   0  0  0  0  0  0  0  0  0  0  0  0
   40.0877   33.7158   41.8787 H   0  0  0  0  0  0  0  0  0  0  0  0
   38.4657   35.4155   38.9836 H   0  0  0  0  0  0  0  0  0  0  0  0
   40.0409   35.2182   39.7975 H   0  0  0  0  0  0  0  0  0  0  0  0
   35.7440   26.7999   37.7004 H   0  0  0  0  0  0  0  0  0  0  0  0
  2  1  2  0
  2 12  1  0
  3  2  1  0
  4  3  2  0
  4  5  1  0
  5  6  2  0
  6  1  1  0
  7  5  1  0
  7  8  1  0
  9  8  2  0
 10 11  2  0
 10  9  1  0
 11  7  1  0
 12 13  2  0
 13 14  1  0
 15 14  2  0
 16 12  1  0
 16 15  1  0
 17 15  1  0
 18 17  1  0
 19 18  2  0
 19 21  1  0
 20 18  1  0
 22 11  1  0
  1 23  1  0
  3 24  1  0
  9 25  1  0
 10 26  1  0
 13 27  1  0
 14 28  1  0
 17 29  1  0
 20 30  1  0
 20 31  1  0
 22 32  1  0
M  ISO  7  23  14  24  14  25  14  26  14  27  14  28  14  32   3
M  END
>  <minimizedAffinity>  (1) 
-5.4887805

>  <minimizedRMSD>  (1) 
0.0292557664

$$$$
