
     RDKit          3D

 33 35  0  0  0  0  0  0  0  0999 V2000
   38.5630   27.2540   41.2730 C   0  0  0  0  0  0  0  0  0  0  0  0
   38.0010   28.4980   40.9540 C   0  0  0  0  0  0  0  0  0  0  0  0
   36.8540   28.5210   40.2140 C   0  0  0  0  0  0  0  0  0  0  0  0
   36.2740   27.3510   39.7980 N   0  0  0  0  0  0  0  0  0  0  0  0
   36.8600   26.1410   40.1330 C   0  0  0  0  0  0  0  0  0  0  0  0
   37.9870   26.1070   40.8600 N   0  0  0  0  0  0  0  0  0  0  0  0
   36.2730   24.9240   39.7140 N   0  0  0  0  0  0  0  0  0  0  0  0
   36.2220   23.6870   40.2330 N   0  0  0  0  0  0  0  0  0  0  0  0
   35.5220   22.8980   39.4140 C   0  0  0  0  0  0  0  0  0  0  0  0
   35.1040   23.6340   38.3340 C   0  0  0  0  0  0  0  0  0  0  0  0
   35.5890   24.8970   38.5500 C   0  0  0  0  0  0  0  0  0  0  0  0
   38.6230   29.7400   41.4000 C   0  0  0  0  0  0  0  0  0  0  0  0
   39.4920   29.7980   42.5180 C   0  0  0  0  0  0  0  0  0  0  0  0
   39.8670   31.1220   42.6180 C   0  0  0  0  0  0  0  0  0  0  0  0
   39.2250   31.7900   41.5830 C   0  0  0  0  0  0  0  0  0  0  0  0
   38.5130   30.9600   40.8970 O   0  0  0  0  0  0  0  0  0  0  0  0
   39.3720   33.1930   41.3620 N   0  0  0  0  0  0  0  0  0  0  0  0
   38.5290   33.8500   40.4220 C   0  0  0  0  0  0  0  0  0  0  0  0
   37.3010   33.4780   40.2550 N   0  0  0  0  0  0  0  0  0  0  0  0
   39.0740   34.9370   39.6620 N   0  0  0  0  0  0  0  0  0  0  0  0
   36.9120   32.7020   40.7900 H   0  0  0  0  0  0  0  0  0  0  0  0
   35.2940   25.9310   37.5330 C   0  0  0  0  0  0  0  0  0  0  0  0
   34.1680   26.4040   37.2300 O   0  0  0  0  0  0  0  0  0  0  0  0
   39.4869   27.2130   41.8686 H   0  0  0  0  0  0  0  0  0  0  0  0
   36.3927   29.4841   39.9501 H   0  0  0  0  0  0  0  0  0  0  0  0
   35.3141   21.8304   39.5786 H   0  0  0  0  0  0  0  0  0  0  0  0
   34.5074   23.2849   37.4783 H   0  0  0  0  0  0  0  0  0  0  0  0
   39.8013   28.9656   43.1671 H   0  0  0  0  0  0  0  0  0  0  0  0
   40.5407   31.5614   43.3684 H   0  0  0  0  0  0  0  0  0  0  0  0
   40.0844   33.7268   41.8801 H   0  0  0  0  0  0  0  0  0  0  0  0
   38.4865   35.4304   38.9748 H   0  0  0  0  0  0  0  0  0  0  0  0
   40.0529   35.2244   39.8033 H   0  0  0  0  0  0  0  0  0  0  0  0
   36.1563   26.3312   36.9796 H   0  0  0  0  0  0  0  0  0  0  0  0
  2  1  2  0
  2 12  1  0
  3  2  1  0
  4  5  1  0
  4  3  2  0
  5  6  2  0
  6  1  1  0
  7  5  1  0
  7  8  1  0
  9  8  2  0
 10 11  2  0
 10  9  1  0
 11  7  1  0
 12 13  2  0
 13 14  1  0
 15 14  2  0
 16 12  1  0
 16 15  1  0
 17 15  1  0
 18 17  1  0
 19 18  2  0
 19 21  1  0
 20 18  1  0
 22 11  1  0
 23 22  2  0
  1 24  1  0
  3 25  1  0
  9 26  1  0
 10 27  1  0
 13 28  1  0
 14 29  1  0
 17 30  1  0
 20 31  1  0
 20 32  1  0
 22 33  1  0
M  ISO  7  24  14  25  14  26  14  27  14  28  14  29  14  33   6
M  END
>  <minimizedAffinity>  (1) 
-5.38180161

>  <minimizedRMSD>  (1) 
0.283527792

$$$$
