
     RDKit          3D

 30 32  0  0  0  0  0  0  0  0999 V2000
   37.2670   30.6540   40.4050 C   0  0  0  0  0  0  0  0  0  0  0  0
   36.1350   30.4470   39.6980 N   0  0  0  0  0  0  0  0  0  0  0  0
   35.2420   29.4930   39.9150 C   0  0  0  0  0  0  0  0  0  0  0  0
   35.4130   28.6280   40.9020 N   0  0  0  0  0  0  0  0  0  0  0  0
   36.5020   28.7220   41.6860 C   0  0  0  0  0  0  0  0  0  0  0  0
   36.6760   27.8130   42.7170 C   0  0  0  0  0  0  0  0  0  0  0  0
   37.7750   27.8840   43.5310 C   0  0  0  0  0  0  0  0  0  0  0  0
   38.7080   28.8940   43.2930 C   0  0  0  0  0  0  0  0  0  0  0  0
   38.4770   29.7630   42.2540 C   0  0  0  0  0  0  0  0  0  0  0  0
   37.3930   29.7330   41.4110 C   0  0  0  0  0  0  0  0  0  0  0  0
   40.1570   32.1210   38.8810 C   0  0  0  0  0  0  0  0  0  0  0  0
   40.2630   33.4530   39.3170 C   0  0  0  0  0  0  0  0  0  0  0  0
   39.2740   33.8620   40.1880 C   0  0  0  0  0  0  0  0  0  0  0  0
   38.3310   32.9740   40.5290 N   0  0  0  0  0  0  0  0  0  0  0  0
   38.2170   31.7180   40.1270 C   0  0  0  0  0  0  0  0  0  0  0  0
   39.1700   31.3420   39.2950 N   0  0  0  0  0  0  0  0  0  0  0  0
   39.1410   35.2110   40.8030 C   0  0  0  0  0  0  0  0  0  0  0  0
   39.8380   36.2740   40.0050 C   0  0  0  0  0  0  0  0  0  0  0  0
   34.3532   29.4193   39.2711 H   0  0  0  0  0  0  0  0  0  0  0  0
   35.9245   27.0271   42.8833 H   0  0  0  0  0  0  0  0  0  0  0  0
   37.9184   27.1642   44.3504 H   0  0  0  0  0  0  0  0  0  0  0  0
   39.6056   28.9920   43.9212 H   0  0  0  0  0  0  0  0  0  0  0  0
   39.2251   30.5510   42.0825 H   0  0  0  0  0  0  0  0  0  0  0  0
   40.9070   31.7190   38.1839 H   0  0  0  0  0  0  0  0  0  0  0  0
   41.0739   34.1197   38.9884 H   0  0  0  0  0  0  0  0  0  0  0  0
   38.0728   35.4642   40.8719 H   0  0  0  0  0  0  0  0  0  0  0  0
   39.6112   35.1747   41.7968 H   0  0  0  0  0  0  0  0  0  0  0  0
   40.3106   36.9948   40.6884 H   0  0  0  0  0  0  0  0  0  0  0  0
   40.6082   35.8107   39.3709 H   0  0  0  0  0  0  0  0  0  0  0  0
   39.1060   36.7956   39.3709 H   0  0  0  0  0  0  0  0  0  0  0  0
  1 10  2  0
  2  3  2  0
  2  1  1  0
  3  4  1  0
  4  5  2  0
  5  6  1  0
  6  7  2  0
  8  7  1  0
  9  8  2  0
 10  5  1  0
 10  9  1  0
 11 16  2  0
 11 12  1  0
 12 13  2  0
 13 14  1  0
 13 17  1  0
 15  1  1  0
 15 14  2  0
 16 15  1  0
 18 17  1  0
  3 19  1  0
  6 20  1  0
  7 21  1  0
  8 22  1  0
  9 23  1  0
 11 24  1  0
 12 25  1  0
 17 26  1  0
 17 27  1  0
 18 28  1  0
 18 29  1  0
 18 30  1  0
M  ISO  8  19  14  20  14  21  14  22  14  23  14  24  14  25  14  26   8
M  ISO  4  27   8  28   8  29   8  30   8
M  END
>  <minimizedAffinity>  (1) 
-5.45016098

>  <minimizedRMSD>  (1) 
5.89599609

$$$$
