
     RDKit          3D

 26 28  0  0  0  0  0  0  0  0999 V2000
   37.2520   30.6420   40.4240 C   0  0  0  0  0  0  0  0  0  0  0  0
   36.1150   30.4330   39.7110 N   0  0  0  0  0  0  0  0  0  0  0  0
   35.2310   29.4760   39.9310 C   0  0  0  0  0  0  0  0  0  0  0  0
   35.4020   28.6090   40.9140 N   0  0  0  0  0  0  0  0  0  0  0  0
   36.4960   28.7040   41.7010 C   0  0  0  0  0  0  0  0  0  0  0  0
   36.6740   27.7940   42.7310 C   0  0  0  0  0  0  0  0  0  0  0  0
   37.7740   27.8700   43.5420 C   0  0  0  0  0  0  0  0  0  0  0  0
   38.7050   28.8880   43.3010 C   0  0  0  0  0  0  0  0  0  0  0  0
   38.4600   29.7580   42.2570 C   0  0  0  0  0  0  0  0  0  0  0  0
   37.3880   29.7240   41.4270 C   0  0  0  0  0  0  0  0  0  0  0  0
   40.1470   32.1150   38.9030 C   0  0  0  0  0  0  0  0  0  0  0  0
   40.2400   33.4510   39.3330 C   0  0  0  0  0  0  0  0  0  0  0  0
   39.2450   33.8530   40.1940 C   0  0  0  0  0  0  0  0  0  0  0  0
   38.3110   32.9560   40.5270 N   0  0  0  0  0  0  0  0  0  0  0  0
   38.1930   31.7060   40.1460 C   0  0  0  0  0  0  0  0  0  0  0  0
   39.1650   31.3220   39.3080 N   0  0  0  0  0  0  0  0  0  0  0  0
   39.1860   35.1850   40.7320 C   0  0  0  0  0  0  0  0  0  0  0  0
   38.8930   36.1420   39.9510 O   0  0  0  0  0  0  0  0  0  0  0  0
   34.3417   29.3998   39.2881 H   0  0  0  0  0  0  0  0  0  0  0  0
   35.9259   27.0050   42.8980 H   0  0  0  0  0  0  0  0  0  0  0  0
   37.9227   27.1509   44.3610 H   0  0  0  0  0  0  0  0  0  0  0  0
   39.6050   28.9915   43.9250 H   0  0  0  0  0  0  0  0  0  0  0  0
   39.2021   30.5510   42.0827 H   0  0  0  0  0  0  0  0  0  0  0  0
   40.9075   31.7187   38.2141 H   0  0  0  0  0  0  0  0  0  0  0  0
   41.0469   34.1233   39.0058 H   0  0  0  0  0  0  0  0  0  0  0  0
   39.3902   35.3708   41.7968 H   0  0  0  0  0  0  0  0  0  0  0  0
  1 10  2  0
  2  3  2  0
  2  1  1  0
  3  4  1  0
  4  5  2  0
  5  6  1  0
  6  7  2  0
  8  7  1  0
  9  8  2  0
 10  5  1  0
 10  9  1  0
 11 16  2  0
 11 12  1  0
 12 13  2  0
 13 14  1  0
 13 17  1  0
 15  1  1  0
 15 14  2  0
 16 15  1  0
 18 17  2  0
  3 19  1  0
  6 20  1  0
  7 21  1  0
  8 22  1  0
  9 23  1  0
 11 24  1  0
 12 25  1  0
 17 26  1  0
M  ISO  8  19  14  20  14  21  14  22  14  23  14  24  14  25  14  26   6
M  END
>  <minimizedAffinity>  (1) 
-5.38728952

>  <minimizedRMSD>  (1) 
5.85414124

$$$$
