
     RDKit          3D

 33 35  0  0  0  0  0  0  0  0999 V2000
   38.5020   31.5020   40.6390 C   0  0  0  0  0  0  0  0  0  0  0  0
   37.1710   31.6320   40.4800 N   0  0  0  0  0  0  0  0  0  0  0  0
   36.2450   30.8620   41.0170 C   0  0  0  0  0  0  0  0  0  0  0  0
   36.5880   29.8470   41.7950 N   0  0  0  0  0  0  0  0  0  0  0  0
   37.8870   29.5990   42.0410 C   0  0  0  0  0  0  0  0  0  0  0  0
   38.2380   28.5400   42.8530 C   0  0  0  0  0  0  0  0  0  0  0  0
   39.5600   28.2690   43.1180 C   0  0  0  0  0  0  0  0  0  0  0  0
   40.5240   29.0900   42.5440 C   0  0  0  0  0  0  0  0  0  0  0  0
   40.1080   30.1280   41.7460 C   0  0  0  0  0  0  0  0  0  0  0  0
   38.8070   30.4460   41.4470 C   0  0  0  0  0  0  0  0  0  0  0  0
   40.7520   32.6110   38.0640 C   0  0  0  0  0  0  0  0  0  0  0  0
   41.3760   33.7780   38.4880 C   0  0  0  0  0  0  0  0  0  0  0  0
   41.0010   34.2230   39.7510 C   0  0  0  0  0  0  0  0  0  0  0  0
   40.0930   33.5000   40.4260 N   0  0  0  0  0  0  0  0  0  0  0  0
   39.4900   32.3790   40.0260 C   0  0  0  0  0  0  0  0  0  0  0  0
   39.8660   31.9850   38.8260 N   0  0  0  0  0  0  0  0  0  0  0  0
   41.5130   35.4210   40.4190 C   0  0  0  0  0  0  0  0  0  0  0  0
   40.4210   36.3290   40.9390 C   0  0  0  0  0  0  0  0  0  0  0  0
   42.5520   35.0920   41.4580 C   0  0  0  0  0  0  0  0  0  0  0  0
   35.1822   31.0639   40.8176 H   0  0  0  0  0  0  0  0  0  0  0  0
   37.4532   27.9067   43.2924 H   0  0  0  0  0  0  0  0  0  0  0  0
   39.8464   27.4270   43.7654 H   0  0  0  0  0  0  0  0  0  0  0  0
   41.5945   28.9127   42.7245 H   0  0  0  0  0  0  0  0  0  0  0  0
   40.8906   30.7634   41.3057 H   0  0  0  0  0  0  0  0  0  0  0  0
   40.9985   32.1978   37.0748 H   0  0  0  0  0  0  0  0  0  0  0  0
   42.1131   34.3111   37.8695 H   0  0  0  0  0  0  0  0  0  0  0  0
   42.0261   36.0075   39.6426 H   0  0  0  0  0  0  0  0  0  0  0  0
   40.4304   36.3212   42.0389 H   0  0  0  0  0  0  0  0  0  0  0  0
   40.5934   37.3537   40.5781 H   0  0  0  0  0  0  0  0  0  0  0  0
   39.4449   35.9725   40.5781 H   0  0  0  0  0  0  0  0  0  0  0  0
   42.1228   35.2279   42.4616 H   0  0  0  0  0  0  0  0  0  0  0  0
   42.8750   34.0476   41.3357 H   0  0  0  0  0  0  0  0  0  0  0  0
   43.4173   35.7601   41.3357 H   0  0  0  0  0  0  0  0  0  0  0  0
  1 10  1  0
  2  1  2  0
  2  3  1  0
  3  4  2  0
  4  5  1  0
  5  6  2  0
  6  7  1  0
  8  7  2  0
  9  8  1  0
 10  9  2  0
 10  5  1  0
 11 12  2  0
 11 16  1  0
 12 13  1  0
 13 17  1  0
 13 14  2  0
 15 14  1  0
 15  1  1  0
 16 15  2  0
 17 18  1  0
 17 19  1  0
  3 20  1  0
  6 21  1  0
  7 22  1  0
  8 23  1  0
  9 24  1  0
 11 25  1  0
 12 26  1  0
 17 27  1  0
 18 28  1  0
 18 29  1  0
 18 30  1  0
 19 31  1  0
 19 32  1  0
 19 33  1  0
M  ISO  8  20  14  21  14  22  14  23  14  24  14  25  14  26  14  27   8
M  ISO  6  28   8  29   8  30   8  31   8  32   8  33   8
M  END
>  <minimizedAffinity>  (1) 
-5.20761919

>  <minimizedRMSD>  (1) 
6.79588413

$$$$
