
     RDKit          3D

 26 28  0  0  0  0  0  0  0  0999 V2000
   37.6540   30.6440   40.6280 C   0  0  0  0  0  0  0  0  0  0  0  0
   37.6810   31.9840   40.8360 N   0  0  0  0  0  0  0  0  0  0  0  0
   37.5520   32.9060   39.9080 C   0  0  0  0  0  0  0  0  0  0  0  0
   37.3790   32.5770   38.6350 N   0  0  0  0  0  0  0  0  0  0  0  0
   37.3340   31.2770   38.2930 C   0  0  0  0  0  0  0  0  0  0  0  0
   37.1540   30.9290   36.9680 C   0  0  0  0  0  0  0  0  0  0  0  0
   37.1040   29.6140   36.5920 C   0  0  0  0  0  0  0  0  0  0  0  0
   37.2400   28.6470   37.5750 C   0  0  0  0  0  0  0  0  0  0  0  0
   37.4180   29.0540   38.8810 C   0  0  0  0  0  0  0  0  0  0  0  0
   37.4740   30.3470   39.3030 C   0  0  0  0  0  0  0  0  0  0  0  0
   39.4500   28.4670   42.8380 C   0  0  0  0  0  0  0  0  0  0  0  0
   38.5140   27.8010   43.6500 C   0  0  0  0  0  0  0  0  0  0  0  0
   37.1920   28.1200   43.4220 C   0  0  0  0  0  0  0  0  0  0  0  0
   36.9390   29.0200   42.4640 N   0  0  0  0  0  0  0  0  0  0  0  0
   37.8000   29.6590   41.6890 C   0  0  0  0  0  0  0  0  0  0  0  0
   39.0650   29.3400   41.9210 N   0  0  0  0  0  0  0  0  0  0  0  0
   36.0830   27.5980   44.0920 N   0  0  0  0  0  0  0  0  0  0  0  0
   37.5881   33.9681   40.1921 H   0  0  0  0  0  0  0  0  0  0  0  0
   37.0498   31.7169   36.2075 H   0  0  0  0  0  0  0  0  0  0  0  0
   36.9598   29.3325   35.5384 H   0  0  0  0  0  0  0  0  0  0  0  0
   37.2067   27.5776   37.3194 H   0  0  0  0  0  0  0  0  0  0  0  0
   37.5234   28.2690   39.6443 H   0  0  0  0  0  0  0  0  0  0  0  0
   40.5222   28.2582   42.9678 H   0  0  0  0  0  0  0  0  0  0  0  0
   38.8170   27.0730   44.4170 H   0  0  0  0  0  0  0  0  0  0  0  0
   35.1345   27.9094   43.8384 H   0  0  0  0  0  0  0  0  0  0  0  0
   36.2137   26.9017   44.8396 H   0  0  0  0  0  0  0  0  0  0  0  0
  1  2  2  0
  1 15  1  0
  3  2  1  0
  4  3  2  0
  5  4  1  0
  5 10  2  0
  6  5  1  0
  7  6  2  0
  7  8  1  0
  8  9  2  0
  9 10  1  0
 10  1  1  0
 11 12  2  0
 13 12  1  0
 13 17  1  0
 14 13  2  0
 15 16  2  0
 15 14  1  0
 16 11  1  0
  3 18  1  0
  6 19  1  0
  7 20  1  0
  8 21  1  0
  9 22  1  0
 11 23  1  0
 12 24  1  0
 17 25  1  0
 17 26  1  0
M  ISO  7  18  14  19  14  20  14  21  14  22  14  23  14  24  14
M  END
>  <minimizedAffinity>  (1) 
-4.94849825

>  <minimizedRMSD>  (1) 
0.61014694

$$$$
