
     RDKit          3D

 25 27  0  0  0  0  0  0  0  0999 V2000
   37.7950   30.7220   40.5980 C   0  0  0  0  0  0  0  0  0  0  0  0
   37.7690   32.0620   40.7820 N   0  0  0  0  0  0  0  0  0  0  0  0
   37.5530   32.9680   39.8490 C   0  0  0  0  0  0  0  0  0  0  0  0
   37.3330   32.6130   38.5970 N   0  0  0  0  0  0  0  0  0  0  0  0
   37.3300   31.3020   38.2640 C   0  0  0  0  0  0  0  0  0  0  0  0
   37.1010   30.9330   36.9560 C   0  0  0  0  0  0  0  0  0  0  0  0
   37.0930   29.6100   36.5980 C   0  0  0  0  0  0  0  0  0  0  0  0
   37.3210   28.6630   37.5850 C   0  0  0  0  0  0  0  0  0  0  0  0
   37.5450   29.0920   38.8760 C   0  0  0  0  0  0  0  0  0  0  0  0
   37.5620   30.4020   39.2890 C   0  0  0  0  0  0  0  0  0  0  0  0
   39.7240   28.3200   42.4270 C   0  0  0  0  0  0  0  0  0  0  0  0
   38.9410   27.8350   43.4780 C   0  0  0  0  0  0  0  0  0  0  0  0
   37.6650   28.3680   43.5640 C   0  0  0  0  0  0  0  0  0  0  0  0
   37.3190   29.2770   42.6490 N   0  0  0  0  0  0  0  0  0  0  0  0
   38.0360   29.7500   41.6520 C   0  0  0  0  0  0  0  0  0  0  0  0
   39.2470   29.2260   41.5920 N   0  0  0  0  0  0  0  0  0  0  0  0
   36.4420   27.9380   44.8020 S   0  0  0  0  0  0  0  0  0  0  0  0
   37.5562   34.0347   40.1177 H   0  0  0  0  0  0  0  0  0  0  0  0
   36.9233   31.7059   36.1938 H   0  0  0  0  0  0  0  0  0  0  0  0
   36.9107   29.3077   35.5562 H   0  0  0  0  0  0  0  0  0  0  0  0
   37.3231   27.5901   37.3426 H   0  0  0  0  0  0  0  0  0  0  0  0
   37.7252   28.3206   39.6392 H   0  0  0  0  0  0  0  0  0  0  0  0
   40.7488   27.9433   42.2934 H   0  0  0  0  0  0  0  0  0  0  0  0
   39.3123   27.0817   44.1884 H   0  0  0  0  0  0  0  0  0  0  0  0
   36.9720   28.1243   46.0515 H   0  0  0  0  0  0  0  0  0  0  0  0
  1  2  2  0
  1 15  1  0
  3  2  1  0
  4  3  2  0
  5  4  1  0
  5 10  2  0
  6  5  1  0
  7  6  2  0
  7  8  1  0
  8  9  2  0
  9 10  1  0
 10  1  1  0
 11 12  2  0
 12 13  1  0
 13 17  1  0
 14 13  2  0
 15 14  1  0
 16 15  2  0
 16 11  1  0
  3 18  1  0
  6 19  1  0
  7 20  1  0
  8 21  1  0
  9 22  1  0
 11 23  1  0
 12 24  1  0
 17 25  1  0
M  ISO  8  18  14  19  14  20  14  21  14  22  14  23  14  24  14  25  11
M  END
>  <minimizedAffinity>  (1) 
-4.47629404

>  <minimizedRMSD>  (1) 
0.966362238

$$$$
