
     RDKit          3D

 31 33  0  0  0  0  0  0  0  0999 V2000
   38.7100   30.4720   41.6970 C   0  0  0  0  0  0  0  0  0  0  0  0
   40.0110   30.0250   41.8040 C   0  0  0  0  0  0  0  0  0  0  0  0
   39.9290   28.9090   42.5910 C   0  0  0  0  0  0  0  0  0  0  0  0
   38.6460   28.6830   42.9500 N   0  0  0  0  0  0  0  0  0  0  0  0
   37.8930   29.6470   42.3990 N   0  0  0  0  0  0  0  0  0  0  0  0
   37.2690   31.6840   40.0190 C   0  0  0  0  0  0  0  0  0  0  0  0
   38.3050   31.6510   40.9440 C   0  0  0  0  0  0  0  0  0  0  0  0
   39.0230   32.8440   41.1710 C   0  0  0  0  0  0  0  0  0  0  0  0
   38.6550   33.9620   40.4690 N   0  0  0  0  0  0  0  0  0  0  0  0
   37.6220   33.9210   39.5720 C   0  0  0  0  0  0  0  0  0  0  0  0
   36.9280   32.7710   39.3500 N   0  0  0  0  0  0  0  0  0  0  0  0
   38.2630   27.5740   43.7800 C   0  0  0  0  0  0  0  0  0  0  0  0
   38.3120   26.2990   43.0970 N   0  0  0  0  0  0  0  0  0  0  0  0
   37.2210   26.0510   42.3150 C   0  0  0  0  0  0  0  0  0  0  0  0
   37.1440   24.8550   41.6020 C   0  0  0  0  0  0  0  0  0  0  0  0
   38.1780   23.9520   41.7080 C   0  0  0  0  0  0  0  0  0  0  0  0
   38.0850   22.7370   40.9760 N   0  0  0  0  0  0  0  0  0  0  0  0
   39.2520   24.2280   42.4970 N   0  0  0  0  0  0  0  0  0  0  0  0
   39.3120   25.3970   43.1840 C   0  0  0  0  0  0  0  0  0  0  0  0
   40.2660   25.7120   43.9240 O   0  0  0  0  0  0  0  0  0  0  0  0
   40.9131   30.4674   41.3563 H   0  0  0  0  0  0  0  0  0  0  0  0
   40.7846   28.2852   42.8888 H   0  0  0  0  0  0  0  0  0  0  0  0
   36.7041   30.7584   39.8343 H   0  0  0  0  0  0  0  0  0  0  0  0
   39.8543   32.8759   41.8907 H   0  0  0  0  0  0  0  0  0  0  0  0
   37.3479   34.8328   39.0211 H   0  0  0  0  0  0  0  0  0  0  0  0
   38.9439   27.5333   44.6430 H   0  0  0  0  0  0  0  0  0  0  0  0
   37.2182   27.7403   44.0811 H   0  0  0  0  0  0  0  0  0  0  0  0
   36.4084   26.7893   42.2477 H   0  0  0  0  0  0  0  0  0  0  0  0
   36.2730   24.6370   40.9665 H   0  0  0  0  0  0  0  0  0  0  0  0
   38.8423   22.0413   41.0345 H   0  0  0  0  0  0  0  0  0  0  0  0
   37.2603   22.5524   40.3871 H   0  0  0  0  0  0  0  0  0  0  0  0
  1  2  1  0
  1  5  2  0
  2  3  2  0
  3  4  1  0
  4 12  1  0
  5  4  1  0
  6  7  2  0
  7  8  1  0
  7  1  1  0
  9  8  2  0
 10  9  1  0
 11 10  2  0
 11  6  1  0
 13 19  1  0
 13 12  1  0
 14 13  1  0
 15 16  1  0
 15 14  2  0
 16 18  2  0
 17 16  1  0
 18 19  1  0
 19 20  2  0
  2 21  1  0
  3 22  1  0
  6 23  1  0
  8 24  1  0
 10 25  1  0
 12 26  1  0
 12 27  1  0
 14 28  1  0
 15 29  1  0
 17 30  1  0
 17 31  1  0
M  ISO  8  21  14  22  14  23  14  24  14  25  14  26   8  27   8  28  14
M  ISO  1  29  14
M  END
>  <minimizedAffinity>  (1) 
-5.2287178

>  <minimizedRMSD>  (1) 
4.62580633

$$$$
