
     RDKit          3D

 36 38  0  0  0  0  0  0  0  0999 V2000
   39.1360   31.4140   40.7890 C   0  0  0  0  0  0  0  0  0  0  0  0
   39.0540   32.7030   41.2060 N   0  0  0  0  0  0  0  0  0  0  0  0
   38.4900   33.6980   40.5460 C   0  0  0  0  0  0  0  0  0  0  0  0
   37.9350   33.4950   39.3630 N   0  0  0  0  0  0  0  0  0  0  0  0
   37.9450   32.2570   38.8300 C   0  0  0  0  0  0  0  0  0  0  0  0
   37.3620   32.0430   37.5910 C   0  0  0  0  0  0  0  0  0  0  0  0
   37.3580   30.7970   37.0260 C   0  0  0  0  0  0  0  0  0  0  0  0
   37.9540   29.7610   37.7320 C   0  0  0  0  0  0  0  0  0  0  0  0
   38.5190   30.0320   38.9610 C   0  0  0  0  0  0  0  0  0  0  0  0
   38.5440   31.2600   39.5600 C   0  0  0  0  0  0  0  0  0  0  0  0
   41.8340   29.7840   42.4890 C   0  0  0  0  0  0  0  0  0  0  0  0
   41.3610   28.5720   42.9990 C   0  0  0  0  0  0  0  0  0  0  0  0
   40.0210   28.2930   42.7430 C   0  0  0  0  0  0  0  0  0  0  0  0
   39.3450   29.2090   42.0430 N   0  0  0  0  0  0  0  0  0  0  0  0
   39.7680   30.3520   41.5540 C   0  0  0  0  0  0  0  0  0  0  0  0
   41.0440   30.5990   41.8100 N   0  0  0  0  0  0  0  0  0  0  0  0
   39.2920   27.0720   43.1800 C   0  0  0  0  0  0  0  0  0  0  0  0
   38.8650   26.2340   42.0130 C   0  0  0  0  0  0  0  0  0  0  0  0
   38.0100   27.4970   43.9070 C   0  0  0  0  0  0  0  0  0  0  0  0
   40.0970   26.2650   44.1700 C   0  0  0  0  0  0  0  0  0  0  0  0
   38.4818   34.7066   40.9850 H   0  0  0  0  0  0  0  0  0  0  0  0
   36.8973   32.8843   37.0559 H   0  0  0  0  0  0  0  0  0  0  0  0
   36.8968   30.6216   36.0429 H   0  0  0  0  0  0  0  0  0  0  0  0
   37.9754   28.7418   37.3187 H   0  0  0  0  0  0  0  0  0  0  0  0
   38.9856   29.1947   39.5006 H   0  0  0  0  0  0  0  0  0  0  0  0
   42.8842   30.0658   42.6556 H   0  0  0  0  0  0  0  0  0  0  0  0
   42.0051   27.8834   43.5656 H   0  0  0  0  0  0  0  0  0  0  0  0
   38.3939   25.3095   42.3783 H   0  0  0  0  0  0  0  0  0  0  0  0
   38.1436   26.7965   41.4021 H   0  0  0  0  0  0  0  0  0  0  0  0
   39.7441   25.9810   41.4021 H   0  0  0  0  0  0  0  0  0  0  0  0
   38.1701   27.4439   44.9940 H   0  0  0  0  0  0  0  0  0  0  0  0
   37.7529   28.5285   43.6242 H   0  0  0  0  0  0  0  0  0  0  0  0
   37.1876   26.8234   43.6242 H   0  0  0  0  0  0  0  0  0  0  0  0
   39.8122   26.5505   45.1934 H   0  0  0  0  0  0  0  0  0  0  0  0
   39.8968   25.1940   44.0189 H   0  0  0  0  0  0  0  0  0  0  0  0
   41.1685   26.4626   44.0189 H   0  0  0  0  0  0  0  0  0  0  0  0
  1  2  2  0
  1 15  1  0
  3  2  1  0
  4  3  2  0
  5  4  1  0
  5 10  2  0
  6  5  1  0
  7  6  2  0
  7  8  1  0
  8  9  2  0
  9 10  1  0
 10  1  1  0
 11 12  2  0
 13 12  1  0
 13 17  1  0
 14 13  2  0
 15 16  2  0
 15 14  1  0
 16 11  1  0
 17 19  1  0
 17 20  1  0
 18 17  1  0
  3 21  1  0
  6 22  1  0
  7 23  1  0
  8 24  1  0
  9 25  1  0
 11 26  1  0
 12 27  1  0
 18 28  1  0
 18 29  1  0
 18 30  1  0
 19 31  1  0
 19 32  1  0
 19 33  1  0
 20 34  1  0
 20 35  1  0
 20 36  1  0
M  ISO  8  21  14  22  14  23  14  24  14  25  14  26  14  27  14  28   8
M  ISO  8  29   8  30   8  31   8  32   8  33   8  34   8  35   8  36   8
M  END
>  <minimizedAffinity>  (1) 
-4.70864296

>  <minimizedRMSD>  (1) 
2.80779433

$$$$
