
     RDKit          3D

 33 36  0  0  0  0  0  0  0  0999 V2000
   38.9100   31.3420   40.3750 C   0  0  0  0  0  0  0  0  0  0  0  0
   37.5410   31.2720   40.1950 C   0  0  0  0  0  0  0  0  0  0  0  0
   37.1040   30.5000   41.2380 C   0  0  0  0  0  0  0  0  0  0  0  0
   38.1410   30.1180   42.0170 N   0  0  0  0  0  0  0  0  0  0  0  0
   39.2480   30.6390   41.4810 N   0  0  0  0  0  0  0  0  0  0  0  0
   40.5660   33.1650   39.8690 C   0  0  0  0  0  0  0  0  0  0  0  0
   39.8080   32.0630   39.5030 C   0  0  0  0  0  0  0  0  0  0  0  0
   39.9350   31.6250   38.1750 C   0  0  0  0  0  0  0  0  0  0  0  0
   40.7750   32.2780   37.3170 N   0  0  0  0  0  0  0  0  0  0  0  0
   41.4920   33.3660   37.7620 C   0  0  0  0  0  0  0  0  0  0  0  0
   41.3780   33.8040   39.0520 N   0  0  0  0  0  0  0  0  0  0  0  0
   37.9600   29.2960   43.1880 C   0  0  0  0  0  0  0  0  0  0  0  0
   37.8270   27.8810   42.8770 N   0  0  0  0  0  0  0  0  0  0  0  0
   36.6610   27.1920   42.9150 C   0  0  0  0  0  0  0  0  0  0  0  0
   36.8160   25.8960   42.5810 N   0  0  0  0  0  0  0  0  0  0  0  0
   38.1390   25.7350   42.3140 C   0  0  0  0  0  0  0  0  0  0  0  0
   38.8930   24.6300   41.9210 C   0  0  0  0  0  0  0  0  0  0  0  0
   40.2150   24.8300   41.7390 N   0  0  0  0  0  0  0  0  0  0  0  0
   40.8020   26.0320   41.9220 C   0  0  0  0  0  0  0  0  0  0  0  0
   40.0590   27.1090   42.3060 N   0  0  0  0  0  0  0  0  0  0  0  0
   38.7260   26.9530   42.5010 C   0  0  0  0  0  0  0  0  0  0  0  0
   38.2490   23.3770   41.7350 N   0  0  0  0  0  0  0  0  0  0  0  0
   36.9401   31.7315   39.3964 H   0  0  0  0  0  0  0  0  0  0  0  0
   36.0534   30.2279   41.4175 H   0  0  0  0  0  0  0  0  0  0  0  0
   40.4843   33.5275   40.9043 H   0  0  0  0  0  0  0  0  0  0  0  0
   39.3583   30.7561   37.8251 H   0  0  0  0  0  0  0  0  0  0  0  0
   42.1665   33.8905   37.0693 H   0  0  0  0  0  0  0  0  0  0  0  0
   38.8305   29.4292   43.8472 H   0  0  0  0  0  0  0  0  0  0  0  0
   37.0247   29.6149   43.6713 H   0  0  0  0  0  0  0  0  0  0  0  0
   35.6947   27.6410   43.1883 H   0  0  0  0  0  0  0  0  0  0  0  0
   41.8844   26.1430   41.7606 H   0  0  0  0  0  0  0  0  0  0  0  0
   38.7968   22.5545   41.4448 H   0  0  0  0  0  0  0  0  0  0  0  0
   37.2344   23.2913   41.8904 H   0  0  0  0  0  0  0  0  0  0  0  0
  1  5  2  0
  2  1  1  0
  2  3  2  0
  3  4  1  0
  4 12  1  0
  5  4  1  0
  7  6  2  0
  7  1  1  0
  8  7  1  0
  9 10  1  0
  9  8  2  0
 10 11  2  0
 11  6  1  0
 13 14  1  0
 13 12  1  0
 15 14  2  0
 16 21  2  0
 16 15  1  0
 17 16  1  0
 18 17  2  0
 18 19  1  0
 19 20  2  0
 20 21  1  0
 21 13  1  0
 22 17  1  0
  2 23  1  0
  3 24  1  0
  6 25  1  0
  8 26  1  0
 10 27  1  0
 12 28  1  0
 12 29  1  0
 14 30  1  0
 19 31  1  0
 22 32  1  0
 22 33  1  0
M  ISO  8  23  14  24  14  25  14  26  14  27  14  28   8  29   8  30  14
M  ISO  1  31  14
M  END
>  <minimizedAffinity>  (1) 
-5.09585142

>  <minimizedRMSD>  (1) 
5.45040512

$$$$
