
     RDKit          3D

 46 49  0  0  0  0  0  0  0  0999 V2000
   41.9990   28.8280   43.0220 C   0  0  0  0  0  0  0  0  0  0  0  0
   40.9290   27.9440   43.1810 C   0  0  0  0  0  0  0  0  0  0  0  0
   39.6920   28.4090   42.7260 C   0  0  0  0  0  0  0  0  0  0  0  0
   39.6720   29.6420   42.1910 N   0  0  0  0  0  0  0  0  0  0  0  0
   40.6680   30.4810   42.0360 C   0  0  0  0  0  0  0  0  0  0  0  0
   41.8370   30.0220   42.4750 N   0  0  0  0  0  0  0  0  0  0  0  0
   40.7760   31.8190   41.4830 C   0  0  0  0  0  0  0  0  0  0  0  0
   41.9240   32.5500   41.4790 N   0  0  0  0  0  0  0  0  0  0  0  0
   42.0670   33.7660   40.9880 C   0  0  0  0  0  0  0  0  0  0  0  0
   41.0390   34.3940   40.4340 N   0  0  0  0  0  0  0  0  0  0  0  0
   39.8500   33.7850   40.3730 C   0  0  0  0  0  0  0  0  0  0  0  0
   38.7650   34.4390   39.7920 C   0  0  0  0  0  0  0  0  0  0  0  0
   37.5440   33.8480   39.7160 C   0  0  0  0  0  0  0  0  0  0  0  0
   37.4040   32.5590   40.2380 C   0  0  0  0  0  0  0  0  0  0  0  0
   38.5060   31.9500   40.8050 C   0  0  0  0  0  0  0  0  0  0  0  0
   39.7360   32.5160   40.8950 C   0  0  0  0  0  0  0  0  0  0  0  0
   38.4110   27.6620   42.7830 C   0  0  0  0  0  0  0  0  0  0  0  0
   37.6830   27.7140   41.4840 C   0  0  0  0  0  0  0  0  0  0  0  0
   37.5080   28.3150   43.8360 C   0  0  0  0  0  0  0  0  0  0  0  0
   38.6290   26.2320   43.2220 C   0  0  0  0  0  0  0  0  0  0  0  0
   38.1480   25.2380   42.2270 C   0  0  0  0  0  0  0  0  0  0  0  0
   39.1290   24.6710   41.4150 C   0  0  0  0  0  0  0  0  0  0  0  0
   38.8820   23.7360   40.4390 C   0  0  0  0  0  0  0  0  0  0  0  0
   37.5710   23.3210   40.2410 C   0  0  0  0  0  0  0  0  0  0  0  0
   36.5970   23.8750   41.0370 C   0  0  0  0  0  0  0  0  0  0  0  0
   36.8330   24.8140   42.0200 C   0  0  0  0  0  0  0  0  0  0  0  0
   43.0008   28.5241   43.3598 H   0  0  0  0  0  0  0  0  0  0  0  0
   41.0518   26.9491   43.6338 H   0  0  0  0  0  0  0  0  0  0  0  0
   43.0470   34.2630   41.0386 H   0  0  0  0  0  0  0  0  0  0  0  0
   38.8998   35.4529   39.3873 H   0  0  0  0  0  0  0  0  0  0  0  0
   36.6906   34.3687   39.2571 H   0  0  0  0  0  0  0  0  0  0  0  0
   36.4350   32.0399   40.1979 H   0  0  0  0  0  0  0  0  0  0  0  0
   38.3779   30.9360   41.2118 H   0  0  0  0  0  0  0  0  0  0  0  0
   36.6020   27.7912   41.6723 H   0  0  0  0  0  0  0  0  0  0  0  0
   38.0188   28.5905   40.9103 H   0  0  0  0  0  0  0  0  0  0  0  0
   37.8908   26.7987   40.9103 H   0  0  0  0  0  0  0  0  0  0  0  0
   37.8692   28.0538   44.8416 H   0  0  0  0  0  0  0  0  0  0  0  0
   37.5297   29.4077   43.7109 H   0  0  0  0  0  0  0  0  0  0  0  0
   36.4772   27.9521   43.7109 H   0  0  0  0  0  0  0  0  0  0  0  0
   39.7060   26.0749   43.3816 H   0  0  0  0  0  0  0  0  0  0  0  0
   38.0499   26.0797   44.1448 H   0  0  0  0  0  0  0  0  0  0  0  0
   40.1698   24.9935   41.5656 H   0  0  0  0  0  0  0  0  0  0  0  0
   39.7013   23.3265   39.8299 H   0  0  0  0  0  0  0  0  0  0  0  0
   37.3209   22.5742   39.4731 H   0  0  0  0  0  0  0  0  0  0  0  0
   35.5587   23.5475   40.8796 H   0  0  0  0  0  0  0  0  0  0  0  0
   36.0077   25.2180   42.6247 H   0  0  0  0  0  0  0  0  0  0  0  0
  1  2  2  0
  3 17  1  0
  3  2  1  0
  4  3  2  0
  5  4  1  0
  5  6  2  0
  6  1  1  0
  7  5  1  0
  8  7  2  0
  9  8  1  0
 10  9  2  0
 11 10  1  0
 11 16  2  0
 12 11  1  0
 13 12  2  0
 13 14  1  0
 14 15  2  0
 15 16  1  0
 16  7  1  0
 17 20  1  0
 17 19  1  0
 18 17  1  0
 21 20  1  0
 22 21  2  0
 23 22  1  0
 24 23  2  0
 24 25  1  0
 25 26  2  0
 26 21  1  0
  1 27  1  0
  2 28  1  0
  9 29  1  0
 12 30  1  0
 13 31  1  0
 14 32  1  0
 15 33  1  0
 18 34  1  0
 18 35  1  0
 18 36  1  0
 19 37  1  0
 19 38  1  0
 19 39  1  0
 20 40  1  0
 20 41  1  0
 22 42  1  0
 23 43  1  0
 24 44  1  0
 25 45  1  0
 26 46  1  0
M  ISO  8  27  14  28  14  29  14  30  14  31  14  32  14  33  14  34   8
M  ISO  8  35   8  36   8  37   8  38   8  39   8  40   8  41   8  42  14
M  ISO  4  43  14  44  14  45  14  46  14
M  END
>  <minimizedAffinity>  (1) 
-6.2939682

>  <minimizedRMSD>  (1) 
2.86156082

$$$$
