
     RDKit          3D

 46 49  0  0  0  0  0  0  0  0999 V2000
   41.5730   28.3460   43.1770 C   0  0  0  0  0  0  0  0  0  0  0  0
   40.4420   27.5360   43.3470 C   0  0  0  0  0  0  0  0  0  0  0  0
   39.2340   28.0750   42.8840 C   0  0  0  0  0  0  0  0  0  0  0  0
   39.2950   29.2890   42.3360 N   0  0  0  0  0  0  0  0  0  0  0  0
   40.3550   30.0580   42.1720 C   0  0  0  0  0  0  0  0  0  0  0  0
   41.4820   29.5350   42.6140 N   0  0  0  0  0  0  0  0  0  0  0  0
   40.5390   31.3830   41.5960 C   0  0  0  0  0  0  0  0  0  0  0  0
   41.7200   32.0510   41.6050 N   0  0  0  0  0  0  0  0  0  0  0  0
   41.9450   33.2480   41.1010 C   0  0  0  0  0  0  0  0  0  0  0  0
   40.9690   33.9190   40.5140 N   0  0  0  0  0  0  0  0  0  0  0  0
   39.7490   33.3750   40.4350 C   0  0  0  0  0  0  0  0  0  0  0  0
   38.7140   34.0740   39.8200 C   0  0  0  0  0  0  0  0  0  0  0  0
   37.4540   33.5410   39.7240 C   0  0  0  0  0  0  0  0  0  0  0  0
   37.2520   32.2840   40.2630 C   0  0  0  0  0  0  0  0  0  0  0  0
   38.3020   31.6280   40.8630 C   0  0  0  0  0  0  0  0  0  0  0  0
   39.5700   32.1260   40.9770 C   0  0  0  0  0  0  0  0  0  0  0  0
   37.9290   27.3950   42.9650 C   0  0  0  0  0  0  0  0  0  0  0  0
   37.1060   27.6550   41.7250 C   0  0  0  0  0  0  0  0  0  0  0  0
   37.1390   28.0080   44.1410 C   0  0  0  0  0  0  0  0  0  0  0  0
   38.0500   25.9280   43.2150 C   0  0  0  0  0  0  0  0  0  0  0  0
   37.9480   25.0950   41.9890 C   0  0  0  0  0  0  0  0  0  0  0  0
   36.7710   24.4590   41.6230 C   0  0  0  0  0  0  0  0  0  0  0  0
   36.6580   23.6770   40.4790 C   0  0  0  0  0  0  0  0  0  0  0  0
   37.7520   23.5160   39.6650 C   0  0  0  0  0  0  0  0  0  0  0  0
   38.9460   24.1240   39.9800 C   0  0  0  0  0  0  0  0  0  0  0  0
   38.9990   24.8820   41.1160 C   0  0  0  0  0  0  0  0  0  0  0  0
   42.5536   27.9837   43.5191 H   0  0  0  0  0  0  0  0  0  0  0  0
   40.4988   26.5415   43.8137 H   0  0  0  0  0  0  0  0  0  0  0  0
   42.9497   33.6906   41.1692 H   0  0  0  0  0  0  0  0  0  0  0  0
   38.9105   35.0728   39.4031 H   0  0  0  0  0  0  0  0  0  0  0  0
   36.6360   34.0922   39.2371 H   0  0  0  0  0  0  0  0  0  0  0  0
   36.2596   31.8121   40.2125 H   0  0  0  0  0  0  0  0  0  0  0  0
   38.1069   30.6297   41.2817 H   0  0  0  0  0  0  0  0  0  0  0  0
   36.0946   27.9745   42.0165 H   0  0  0  0  0  0  0  0  0  0  0  0
   37.5826   28.4463   41.1278 H   0  0  0  0  0  0  0  0  0  0  0  0
   37.0415   26.7335   41.1278 H   0  0  0  0  0  0  0  0  0  0  0  0
   37.5756   27.6692   45.0921 H   0  0  0  0  0  0  0  0  0  0  0  0
   37.1898   29.1054   44.0844 H   0  0  0  0  0  0  0  0  0  0  0  0
   36.0886   27.6862   44.0844 H   0  0  0  0  0  0  0  0  0  0  0  0
   39.0269   25.7364   43.6829 H   0  0  0  0  0  0  0  0  0  0  0  0
   37.2070   25.6452   43.8626 H   0  0  0  0  0  0  0  0  0  0  0  0
   35.8872   24.5787   42.2668 H   0  0  0  0  0  0  0  0  0  0  0  0
   35.7026   23.1926   40.2287 H   0  0  0  0  0  0  0  0  0  0  0  0
   37.6739   22.8988   38.7578 H   0  0  0  0  0  0  0  0  0  0  0  0
   39.8304   24.0035   39.3371 H   0  0  0  0  0  0  0  0  0  0  0  0
   39.9586   25.3632   41.3561 H   0  0  0  0  0  0  0  0  0  0  0  0
  1  2  2  0
  3 17  1  0
  3  2  1  0
  4  3  2  0
  5  4  1  0
  5  6  2  0
  6  1  1  0
  7  8  2  0
  7  5  1  0
  9  8  1  0
 10  9  2  0
 11 10  1  0
 11 16  2  0
 12 11  1  0
 13 12  2  0
 13 14  1  0
 14 15  2  0
 15 16  1  0
 16  7  1  0
 17 20  1  0
 17 19  1  0
 18 17  1  0
 21 20  1  0
 22 21  2  0
 23 22  1  0
 24 25  1  0
 24 23  2  0
 25 26  2  0
 26 21  1  0
  1 27  1  0
  2 28  1  0
  9 29  1  0
 12 30  1  0
 13 31  1  0
 14 32  1  0
 15 33  1  0
 18 34  1  0
 18 35  1  0
 18 36  1  0
 19 37  1  0
 19 38  1  0
 19 39  1  0
 20 40  1  0
 20 41  1  0
 22 42  1  0
 23 43  1  0
 24 44  1  0
 25 45  1  0
 26 46  1  0
M  ISO  8  27  14  28  14  29  14  30  14  31  14  32  14  33  14  34   8
M  ISO  8  35   8  36   8  37   8  38   8  39   8  40   8  41   8  42  14
M  ISO  4  43  14  44  14  45  14  46  14
M  END
>  <minimizedAffinity>  (1) 
-6.25653362

>  <minimizedRMSD>  (1) 
3.0710175

$$$$
