
     RDKit          3D

 50 53  0  0  1  0  0  0  0  0999 V2000
   42.5700   29.0200   42.1760 C   0  0  0  0  0  0  0  0  0  0  0  0
   41.6360   28.0830   42.5910 C   0  0  0  0  0  0  0  0  0  0  0  0
   40.3120   28.4810   42.5480 C   0  0  0  0  0  0  0  0  0  0  0  0
   40.0910   29.7280   42.1090 N   0  0  0  0  0  0  0  0  0  0  0  0
   40.9480   30.6310   41.7130 C   0  0  0  0  0  0  0  0  0  0  0  0
   42.2050   30.2190   41.7660 N   0  0  0  0  0  0  0  0  0  0  0  0
   40.8250   31.9960   41.2250 C   0  0  0  0  0  0  0  0  0  0  0  0
   41.8360   32.8960   41.2060 N   0  0  0  0  0  0  0  0  0  0  0  0
   41.7720   34.1430   40.7750 C   0  0  0  0  0  0  0  0  0  0  0  0
   40.6410   34.6210   40.3030 N   0  0  0  0  0  0  0  0  0  0  0  0
   39.5550   33.8420   40.2600 C   0  0  0  0  0  0  0  0  0  0  0  0
   38.3630   34.3550   39.7580 C   0  0  0  0  0  0  0  0  0  0  0  0
   37.2360   33.5770   39.7030 C   0  0  0  0  0  0  0  0  0  0  0  0
   37.3250   32.2750   40.1600 C   0  0  0  0  0  0  0  0  0  0  0  0
   38.5310   31.8190   40.6480 C   0  0  0  0  0  0  0  0  0  0  0  0
   39.6810   32.5530   40.7230 C   0  0  0  0  0  0  0  0  0  0  0  0
   39.1290   27.6540   42.9540 C   0  0  0  0  0  0  0  0  0  0  0  0
   38.0470   28.5230   43.5050 C   0  0  0  0  0  0  0  0  0  0  0  0
   39.5710   26.7130   44.0930 C   0  0  0  0  0  0  0  0  0  0  0  0
   38.6730   26.7760   41.8380 C   0  0  0  0  0  0  0  0  0  0  0  0
   37.2520   26.5660   41.6010 C   0  0  2  0  0  0  0  0  0  0  0  0
   36.8950   25.2000   42.2020 C   0  0  0  0  0  0  0  0  0  0  0  0
   37.4590   24.0720   41.4080 C   0  0  0  0  0  0  0  0  0  0  0  0
   37.7020   24.3210   39.9720 C   0  0  0  0  0  0  0  0  0  0  0  0
   36.9620   25.4540   39.3480 C   0  0  0  0  0  0  0  0  0  0  0  0
   36.6680   26.6010   40.2460 C   0  0  0  0  0  0  0  0  0  0  0  0
   43.6382   28.7576   42.1891 H   0  0  0  0  0  0  0  0  0  0  0  0
   41.9310   27.0806   42.9347 H   0  0  0  0  0  0  0  0  0  0  0  0
   42.6660   34.7829   40.8108 H   0  0  0  0  0  0  0  0  0  0  0  0
   38.3248   35.3950   39.4018 H   0  0  0  0  0  0  0  0  0  0  0  0
   36.2902   33.9759   39.3076 H   0  0  0  0  0  0  0  0  0  0  0  0
   36.4468   31.6131   40.1346 H   0  0  0  0  0  0  0  0  0  0  0  0
   38.5707   30.7797   41.0061 H   0  0  0  0  0  0  0  0  0  0  0  0
   38.0797   28.4967   44.6042 H   0  0  0  0  0  0  0  0  0  0  0  0
   38.1945   29.5565   43.1584 H   0  0  0  0  0  0  0  0  0  0  0  0
   37.0697   28.1560   43.1584 H   0  0  0  0  0  0  0  0  0  0  0  0
   39.3504   27.1826   45.0630 H   0  0  0  0  0  0  0  0  0  0  0  0
   39.0260   25.7608   44.0142 H   0  0  0  0  0  0  0  0  0  0  0  0
   40.6519   26.5245   44.0142 H   0  0  0  0  0  0  0  0  0  0  0  0
   39.0883   27.2006   40.9121 H   0  0  0  0  0  0  0  0  0  0  0  0
   39.0241   25.7799   42.1453 H   0  0  0  0  0  0  0  0  0  0  0  0
   36.8175   27.4686   42.0554 H   0  0  0  0  0  0  0  0  0  0  0  0
   37.2947   25.1477   43.2255 H   0  0  0  0  0  0  0  0  0  0  0  0
   35.7993   25.1036   42.1953 H   0  0  0  0  0  0  0  0  0  0  0  0
   38.4202   23.7925   41.8641 H   0  0  0  0  0  0  0  0  0  0  0  0
   36.6882   23.2877   41.4366 H   0  0  0  0  0  0  0  0  0  0  0  0
   38.7770   24.5173   39.8463 H   0  0  0  0  0  0  0  0  0  0  0  0
   37.3324   23.4209   39.4590 H   0  0  0  0  0  0  0  0  0  0  0  0
   36.6537   25.4421   38.2922 H   0  0  0  0  0  0  0  0  0  0  0  0
   36.0408   27.4416   39.9144 H   0  0  0  0  0  0  0  0  0  0  0  0
  1  2  2  0
  3  2  1  0
  3 17  1  0
  4  3  2  0
  5  6  2  0
  5  4  1  0
  6  1  1  0
  7  5  1  0
  8  7  2  0
  9  8  1  0
 10  9  2  0
 11 10  1  0
 11 16  2  0
 12 11  1  0
 13 12  2  0
 13 14  1  0
 14 15  2  0
 15 16  1  0
 16  7  1  0
 17 18  1  0
 17 19  1  0
 20 17  1  0
 21 20  1  0
 21 22  1  0
 23 22  1  0
 24 23  1  0
 25 24  1  0
 25 26  2  0
 26 21  1  0
  1 27  1  0
  2 28  1  0
  9 29  1  0
 12 30  1  0
 13 31  1  0
 14 32  1  0
 15 33  1  0
 18 34  1  0
 18 35  1  0
 18 36  1  0
 19 37  1  0
 19 38  1  0
 19 39  1  0
 20 40  1  0
 20 41  1  0
 21 42  1  1
 22 43  1  0
 22 44  1  0
 23 45  1  0
 23 46  1  0
 24 47  1  0
 24 48  1  0
 25 49  1  0
 26 50  1  0
M  ISO  8  27  14  28  14  29  14  30  14  31  14  32  14  33  14  34   8
M  ISO  8  35   8  36   8  37   8  38   8  39   8  40   8  41   8  42  13
M  ISO  8  43  13  44  13  45  13  46  13  47  13  48  13  49  13  50  13
M  END
>  <minimizedAffinity>  (1) 
-6.189785

>  <minimizedRMSD>  (1) 
2.84899616

$$$$
