
     RDKit          3D

 36 39  0  0  0  0  0  0  0  0999 V2000
   36.5460   25.7050   38.1780 C   0  0  0  0  0  0  0  0  0  0  0  0
   37.6450   24.8820   37.9630 C   0  0  0  0  0  0  0  0  0  0  0  0
   37.9450   24.3710   39.1970 C   0  0  0  0  0  0  0  0  0  0  0  0
   37.0760   24.8550   40.1180 N   0  0  0  0  0  0  0  0  0  0  0  0
   36.2130   25.6780   39.4920 N   0  0  0  0  0  0  0  0  0  0  0  0
   34.6130   26.9710   37.2230 C   0  0  0  0  0  0  0  0  0  0  0  0
   35.8980   26.4500   37.1310 C   0  0  0  0  0  0  0  0  0  0  0  0
   36.5980   26.6760   35.9330 C   0  0  0  0  0  0  0  0  0  0  0  0
   36.0100   27.3800   34.9180 N   0  0  0  0  0  0  0  0  0  0  0  0
   34.7280   27.8670   35.0810 C   0  0  0  0  0  0  0  0  0  0  0  0
   34.0410   27.6560   36.2350 N   0  0  0  0  0  0  0  0  0  0  0  0
   37.1290   24.5010   41.5280 C   0  0  0  0  0  0  0  0  0  0  0  0
   37.4940   25.6550   42.3560 C   0  0  0  0  0  0  0  0  0  0  0  0
   36.6170   26.6670   42.7500 C   0  0  0  0  0  0  0  0  0  0  0  0
   36.9770   27.7350   43.5200 C   0  0  0  0  0  0  0  0  0  0  0  0
   38.2960   27.8320   43.9470 C   0  0  0  0  0  0  0  0  0  0  0  0
   39.2070   26.8650   43.5890 C   0  0  0  0  0  0  0  0  0  0  0  0
   40.5140   26.9510   44.0040 C   0  0  0  0  0  0  0  0  0  0  0  0
   41.4290   25.9760   43.6430 C   0  0  0  0  0  0  0  0  0  0  0  0
   41.0440   24.9060   42.8640 C   0  0  0  0  0  0  0  0  0  0  0  0
   39.7280   24.8480   42.4640 C   0  0  0  0  0  0  0  0  0  0  0  0
   38.7700   25.8100   42.8050 C   0  0  0  0  0  0  0  0  0  0  0  0
   38.1601   24.6847   37.0113 H   0  0  0  0  0  0  0  0  0  0  0  0
   38.7678   23.6725   39.4094 H   0  0  0  0  0  0  0  0  0  0  0  0
   34.0446   26.8107   38.1510 H   0  0  0  0  0  0  0  0  0  0  0  0
   37.6195   26.2864   35.8116 H   0  0  0  0  0  0  0  0  0  0  0  0
   34.2558   28.4339   34.2651 H   0  0  0  0  0  0  0  0  0  0  0  0
   36.1410   24.1333   41.8421 H   0  0  0  0  0  0  0  0  0  0  0  0
   37.8953   23.7232   41.6611 H   0  0  0  0  0  0  0  0  0  0  0  0
   35.5701   26.5996   42.4192 H   0  0  0  0  0  0  0  0  0  0  0  0
   36.2390   28.5024   43.7966 H   0  0  0  0  0  0  0  0  0  0  0  0
   38.6115   28.6813   44.5708 H   0  0  0  0  0  0  0  0  0  0  0  0
   40.8355   27.7990   44.6265 H   0  0  0  0  0  0  0  0  0  0  0  0
   42.4727   26.0563   43.9811 H   0  0  0  0  0  0  0  0  0  0  0  0
   41.7628   24.1261   42.5723 H   0  0  0  0  0  0  0  0  0  0  0  0
   39.4116   23.9981   41.8415 H   0  0  0  0  0  0  0  0  0  0  0  0
  1  5  2  0
  2  1  1  0
  2  3  2  0
  3  4  1  0
  4 12  1  0
  5  4  1  0
  7  6  2  0
  7  1  1  0
  8  7  1  0
  9 10  1  0
  9  8  2  0
 10 11  2  0
 11  6  1  0
 12 13  1  0
 13 14  2  0
 13 22  1  0
 14 15  1  0
 15 16  2  0
 17 16  1  0
 17 18  2  0
 19 18  1  0
 20 19  2  0
 21 22  2  0
 21 20  1  0
 22 17  1  0
  2 23  1  0
  3 24  1  0
  6 25  1  0
  8 26  1  0
 10 27  1  0
 12 28  1  0
 12 29  1  0
 14 30  1  0
 15 31  1  0
 16 32  1  0
 18 33  1  0
 19 34  1  0
 20 35  1  0
 21 36  1  0
M  ISO  8  23  14  24  14  25  14  26  14  27  14  28   8  29   8  30  14
M  ISO  6  31  14  32  14  33  14  34  14  35  14  36  14
M  END
>  <minimizedAffinity>  (1) 
-4.97374296

>  <minimizedRMSD>  (1) 
5.34256601

$$$$
