
     RDKit          3D

 43 46  0  0  0  0  0  0  0  0999 V2000
   40.8270   27.9320   43.3380 C   0  0  0  0  0  0  0  0  0  0  0  0
   39.6110   27.2470   43.3670 C   0  0  0  0  0  0  0  0  0  0  0  0
   38.5400   27.9000   42.7830 C   0  0  0  0  0  0  0  0  0  0  0  0
   38.7750   29.1100   42.2550 N   0  0  0  0  0  0  0  0  0  0  0  0
   39.9130   29.7760   42.2150 C   0  0  0  0  0  0  0  0  0  0  0  0
   40.9310   29.1290   42.7830 N   0  0  0  0  0  0  0  0  0  0  0  0
   40.3010   31.0750   41.6820 C   0  0  0  0  0  0  0  0  0  0  0  0
   41.5520   31.5780   41.7650 N   0  0  0  0  0  0  0  0  0  0  0  0
   41.9550   32.7470   41.2980 C   0  0  0  0  0  0  0  0  0  0  0  0
   41.1040   33.5510   40.6820 N   0  0  0  0  0  0  0  0  0  0  0  0
   39.8280   33.1700   40.5340 C   0  0  0  0  0  0  0  0  0  0  0  0
   38.9150   34.0030   39.8870 C   0  0  0  0  0  0  0  0  0  0  0  0
   37.6160   33.6460   39.7210 C   0  0  0  0  0  0  0  0  0  0  0  0
   37.2160   32.4130   40.2190 C   0  0  0  0  0  0  0  0  0  0  0  0
   38.1460   31.6160   40.8520 C   0  0  0  0  0  0  0  0  0  0  0  0
   39.4650   31.9410   41.0400 C   0  0  0  0  0  0  0  0  0  0  0  0
   37.1450   27.3780   42.6870 C   0  0  0  0  0  0  0  0  0  0  0  0
   36.3210   28.1890   41.7370 C   0  0  0  0  0  0  0  0  0  0  0  0
   36.4760   27.4830   44.0540 C   0  0  0  0  0  0  0  0  0  0  0  0
   37.1270   25.9190   42.2870 C   0  0  0  0  0  0  0  0  0  0  0  0
   37.3490   25.8540   40.8570 N   0  0  0  0  0  0  0  0  0  0  0  0
   36.5710   26.0420   39.7760 C   0  0  0  0  0  0  0  0  0  0  0  0
   37.2960   25.8520   38.6180 C   0  0  0  0  0  0  0  0  0  0  0  0
   38.5630   25.5360   39.0180 N   0  0  0  0  0  0  0  0  0  0  0  0
   38.5820   25.5410   40.3710 C   0  0  0  0  0  0  0  0  0  0  0  0
   41.7176   27.4671   43.7859 H   0  0  0  0  0  0  0  0  0  0  0  0
   39.5107   26.2518   43.8248 H   0  0  0  0  0  0  0  0  0  0  0  0
   43.0042   33.0531   41.4223 H   0  0  0  0  0  0  0  0  0  0  0  0
   39.2568   34.9748   39.5012 H   0  0  0  0  0  0  0  0  0  0  0  0
   36.9044   34.3108   39.2094 H   0  0  0  0  0  0  0  0  0  0  0  0
   36.1740   32.0776   40.1102 H   0  0  0  0  0  0  0  0  0  0  0  0
   37.8034   30.6438   41.2361 H   0  0  0  0  0  0  0  0  0  0  0  0
   35.6498   28.8496   42.3055 H   0  0  0  0  0  0  0  0  0  0  0  0
   36.9837   28.7969   41.1036 H   0  0  0  0  0  0  0  0  0  0  0  0
   35.7237   27.5167   41.1036 H   0  0  0  0  0  0  0  0  0  0  0  0
   37.2333   27.3641   44.8429 H   0  0  0  0  0  0  0  0  0  0  0  0
   35.9954   28.4676   44.1524 H   0  0  0  0  0  0  0  0  0  0  0  0
   35.7169   26.6930   44.1524 H   0  0  0  0  0  0  0  0  0  0  0  0
   37.9240   25.3754   42.8154 H   0  0  0  0  0  0  0  0  0  0  0  0
   36.1632   25.4584   42.5496 H   0  0  0  0  0  0  0  0  0  0  0  0
   35.5047   26.3100   39.8106 H   0  0  0  0  0  0  0  0  0  0  0  0
   36.9290   25.9375   37.5846 H   0  0  0  0  0  0  0  0  0  0  0  0
   39.4657   25.3237   40.9890 H   0  0  0  0  0  0  0  0  0  0  0  0
  1  2  2  0
  3  2  1  0
  4  3  2  0
  5  4  1  0
  5  6  2  0
  6  1  1  0
  7  8  2  0
  7  5  1  0
  9  8  1  0
 10  9  2  0
 11 10  1  0
 11 16  2  0
 12 11  1  0
 13 12  2  0
 13 14  1  0
 14 15  2  0
 15 16  1  0
 16  7  1  0
 17  3  1  0
 17 19  1  0
 18 17  1  0
 20 17  1  0
 21 20  1  0
 22 21  1  0
 23 24  1  0
 23 22  2  0
 24 25  2  0
 25 21  1  0
  1 26  1  0
  2 27  1  0
  9 28  1  0
 12 29  1  0
 13 30  1  0
 14 31  1  0
 15 32  1  0
 18 33  1  0
 18 34  1  0
 18 35  1  0
 19 36  1  0
 19 37  1  0
 19 38  1  0
 20 39  1  0
 20 40  1  0
 22 41  1  0
 23 42  1  0
 25 43  1  0
M  ISO  8  26  14  27  14  28  14  29  14  30  14  31  14  32  14  33   8
M  ISO  8  34   8  35   8  36   8  37   8  38   8  39   8  40   8  41  14
M  ISO  2  42  14  43  14
M  END
>  <minimizedAffinity>  (1) 
-5.83950996

>  <minimizedRMSD>  (1) 
3.470752

$$$$
