
     RDKit          3D

 42 45  0  0  0  0  0  0  0  0999 V2000
   40.6580   29.7320   37.6140 C   0  0  0  0  0  0  0  0  0  0  0  0
   41.4610   30.8360   37.8750 C   0  0  0  0  0  0  0  0  0  0  0  0
   41.0620   31.6250   38.9500 C   0  0  0  0  0  0  0  0  0  0  0  0
   39.9620   31.2350   39.6030 N   0  0  0  0  0  0  0  0  0  0  0  0
   39.1920   30.1940   39.3670 C   0  0  0  0  0  0  0  0  0  0  0  0
   39.5900   29.4660   38.3480 N   0  0  0  0  0  0  0  0  0  0  0  0
   37.9890   29.6870   40.0050 C   0  0  0  0  0  0  0  0  0  0  0  0
   36.7410   29.8340   39.4740 N   0  0  0  0  0  0  0  0  0  0  0  0
   35.6110   29.4020   39.9980 C   0  0  0  0  0  0  0  0  0  0  0  0
   35.6340   28.7510   41.1600 N   0  0  0  0  0  0  0  0  0  0  0  0
   36.7940   28.5360   41.7910 C   0  0  0  0  0  0  0  0  0  0  0  0
   36.8090   27.8580   42.9960 C   0  0  0  0  0  0  0  0  0  0  0  0
   37.9780   27.6260   43.6580 C   0  0  0  0  0  0  0  0  0  0  0  0
   39.1520   28.0900   43.0870 C   0  0  0  0  0  0  0  0  0  0  0  0
   39.0860   28.7610   41.8820 C   0  0  0  0  0  0  0  0  0  0  0  0
   37.9320   29.0140   41.1890 C   0  0  0  0  0  0  0  0  0  0  0  0
   41.7670   32.8380   39.4020 C   0  0  0  0  0  0  0  0  0  0  0  0
   41.7030   33.9350   38.3610 C   0  0  0  0  0  0  0  0  0  0  0  0
   43.2530   32.5200   39.5420 C   0  0  0  0  0  0  0  0  0  0  0  0
   41.2900   33.3740   40.7100 C   0  0  0  0  0  0  0  0  0  0  0  0
   40.5810   34.6310   40.4860 N   0  0  0  0  0  0  0  0  0  0  0  0
   41.0500   35.8840   40.5770 C   0  0  0  0  0  0  0  0  0  0  0  0
   40.0410   36.7520   40.2830 N   0  0  0  0  0  0  0  0  0  0  0  0
   38.9400   36.0110   40.0080 C   0  0  0  0  0  0  0  0  0  0  0  0
   39.2870   34.7240   40.1370 N   0  0  0  0  0  0  0  0  0  0  0  0
   40.9162   29.0646   36.7786 H   0  0  0  0  0  0  0  0  0  0  0  0
   42.3513   31.0703   37.2729 H   0  0  0  0  0  0  0  0  0  0  0  0
   34.6567   29.5777   39.4798 H   0  0  0  0  0  0  0  0  0  0  0  0
   35.8625   27.5001   43.4274 H   0  0  0  0  0  0  0  0  0  0  0  0
   37.9888   27.0866   44.6166 H   0  0  0  0  0  0  0  0  0  0  0  0
   40.1193   27.9268   43.5847 H   0  0  0  0  0  0  0  0  0  0  0  0
   40.0304   29.1190   41.4462 H   0  0  0  0  0  0  0  0  0  0  0  0
   41.6460   34.9128   38.8617 H   0  0  0  0  0  0  0  0  0  0  0  0
   42.6049   33.8970   37.7324 H   0  0  0  0  0  0  0  0  0  0  0  0
   40.8116   33.7924   37.7324 H   0  0  0  0  0  0  0  0  0  0  0  0
   43.5170   32.4635   40.6084 H   0  0  0  0  0  0  0  0  0  0  0  0
   43.4686   31.5554   39.0593 H   0  0  0  0  0  0  0  0  0  0  0  0
   43.8445   33.3119   39.0593 H   0  0  0  0  0  0  0  0  0  0  0  0
   40.6105   32.6473   41.1793 H   0  0  0  0  0  0  0  0  0  0  0  0
   42.1503   33.5489   41.3728 H   0  0  0  0  0  0  0  0  0  0  0  0
   42.0792   36.1650   40.8448 H   0  0  0  0  0  0  0  0  0  0  0  0
   37.9472   36.3949   39.7307 H   0  0  0  0  0  0  0  0  0  0  0  0
  1  2  2  0
  1  6  1  0
  2  3  1  0
  3 17  1  0
  3  4  2  0
  5  4  1  0
  5  7  1  0
  6  5  2  0
  7 16  2  0
  8  9  2  0
  8  7  1  0
  9 10  1  0
 10 11  2  0
 11 12  1  0
 12 13  2  0
 14 13  1  0
 15 14  2  0
 16 11  1  0
 16 15  1  0
 17 19  1  0
 17 20  1  0
 18 17  1  0
 21 22  1  0
 21 20  1  0
 23 22  2  0
 24 25  2  0
 24 23  1  0
 25 21  1  0
  1 26  1  0
  2 27  1  0
  9 28  1  0
 12 29  1  0
 13 30  1  0
 14 31  1  0
 15 32  1  0
 18 33  1  0
 18 34  1  0
 18 35  1  0
 19 36  1  0
 19 37  1  0
 19 38  1  0
 20 39  1  0
 20 40  1  0
 22 41  1  0
 24 42  1  0
M  ISO  8  26  14  27  14  28  14  29  14  30  14  31  14  32  14  33   8
M  ISO  8  34   8  35   8  36   8  37   8  38   8  39   8  40   8  41  14
M  ISO  1  42  14
M  END
>  <minimizedAffinity>  (1) 
-5.74202967

>  <minimizedRMSD>  (1) 
7.53629827

$$$$
