
     RDKit          3D

 30 32  0  0  0  0  0  0  0  0999 V2000
   38.0810   27.9840   41.9040 C   0  0  0  0  0  0  0  0  0  0  0  0
   37.5440   28.9210   42.7670 C   0  0  0  0  0  0  0  0  0  0  0  0
   37.1420   29.9350   41.9320 C   0  0  0  0  0  0  0  0  0  0  0  0
   37.4160   29.6390   40.6420 N   0  0  0  0  0  0  0  0  0  0  0  0
   37.9970   28.4340   40.6200 N   0  0  0  0  0  0  0  0  0  0  0  0
   38.3140   25.4920   41.7780 C   0  0  0  0  0  0  0  0  0  0  0  0
   38.6420   26.7190   42.3540 C   0  0  0  0  0  0  0  0  0  0  0  0
   39.5590   26.7330   43.4190 C   0  0  0  0  0  0  0  0  0  0  0  0
   40.0850   25.5350   43.8410 N   0  0  0  0  0  0  0  0  0  0  0  0
   39.7240   24.3630   43.2360 C   0  0  0  0  0  0  0  0  0  0  0  0
   38.8310   24.3380   42.1940 N   0  0  0  0  0  0  0  0  0  0  0  0
   37.0950   30.5390   39.5670 C   0  0  0  0  0  0  0  0  0  0  0  0
   36.0660   29.8610   38.7150 C   0  0  0  0  0  0  0  0  0  0  0  0
   36.4020   29.8030   37.3590 C   0  0  0  0  0  0  0  0  0  0  0  0
   35.5380   29.2060   36.4770 C   0  0  0  0  0  0  0  0  0  0  0  0
   34.3380   28.6530   36.8820 C   0  0  0  0  0  0  0  0  0  0  0  0
   34.0380   28.7260   38.2260 C   0  0  0  0  0  0  0  0  0  0  0  0
   34.8910   29.3250   39.1440 C   0  0  0  0  0  0  0  0  0  0  0  0
   37.4588   28.8673   43.8624 H   0  0  0  0  0  0  0  0  0  0  0  0
   36.6607   30.8650   42.2688 H   0  0  0  0  0  0  0  0  0  0  0  0
   37.5971   25.4771   40.9439 H   0  0  0  0  0  0  0  0  0  0  0  0
   39.8483   27.6779   43.9023 H   0  0  0  0  0  0  0  0  0  0  0  0
   40.1595   23.4180   43.5928 H   0  0  0  0  0  0  0  0  0  0  0  0
   36.6905   31.4791   39.9704 H   0  0  0  0  0  0  0  0  0  0  0  0
   37.9923   30.7805   38.9783 H   0  0  0  0  0  0  0  0  0  0  0  0
   37.3502   30.2321   37.0031 H   0  0  0  0  0  0  0  0  0  0  0  0
   35.8092   29.1660   35.4117 H   0  0  0  0  0  0  0  0  0  0  0  0
   33.6534   28.1763   36.1650 H   0  0  0  0  0  0  0  0  0  0  0  0
   33.0910   28.2952   38.5832 H   0  0  0  0  0  0  0  0  0  0  0  0
   34.6190   29.3658   40.2091 H   0  0  0  0  0  0  0  0  0  0  0  0
  1  7  1  0
  1  2  1  0
  3  2  2  0
  4  3  1  0
  5  4  1  0
  5  1  2  0
  6 11  2  0
  6  7  1  0
  7  8  2  0
  8  9  1  0
 10  9  2  0
 11 10  1  0
 12  4  1  0
 13 18  1  0
 13 12  1  0
 14 13  2  0
 15 16  2  0
 15 14  1  0
 16 17  1  0
 17 18  2  0
  2 19  1  0
  3 20  1  0
  6 21  1  0
  8 22  1  0
 10 23  1  0
 12 24  1  0
 12 25  1  0
 14 26  1  0
 15 27  1  0
 16 28  1  0
 17 29  1  0
 18 30  1  0
M  ISO  8  19  14  20  14  21  14  22  14  23  14  24   8  25   8  26  14
M  ISO  4  27  14  28  14  29  14  30  14
M  END
>  <minimizedAffinity>  (1) 
-4.68150806

>  <minimizedRMSD>  (1) 
6.79306793

$$$$
