
     RDKit          3D

 51 54  0  0  0  0  0  0  0  0999 V2000
   40.3660   30.0930   43.0280 C   0  0  0  0  0  0  0  0  0  0  0  0
   39.5770   28.9990   42.6710 C   0  0  0  0  0  0  0  0  0  0  0  0
   38.7410   29.1970   41.5590 C   0  0  0  0  0  0  0  0  0  0  0  0
   38.8010   30.3980   40.9880 N   0  0  0  0  0  0  0  0  0  0  0  0
   39.5390   31.4360   41.3150 C   0  0  0  0  0  0  0  0  0  0  0  0
   40.3170   31.2300   42.3590 N   0  0  0  0  0  0  0  0  0  0  0  0
   39.6790   32.7750   40.7660 C   0  0  0  0  0  0  0  0  0  0  0  0
   38.8140   33.7980   41.0310 N   0  0  0  0  0  0  0  0  0  0  0  0
   38.9040   35.0260   40.5540 C   0  0  0  0  0  0  0  0  0  0  0  0
   39.8920   35.3710   39.7430 N   0  0  0  0  0  0  0  0  0  0  0  0
   40.8200   34.4470   39.4000 C   0  0  0  0  0  0  0  0  0  0  0  0
   41.8550   34.8110   38.5470 C   0  0  0  0  0  0  0  0  0  0  0  0
   42.8080   33.8860   38.1860 C   0  0  0  0  0  0  0  0  0  0  0  0
   42.7030   32.6030   38.6910 C   0  0  0  0  0  0  0  0  0  0  0  0
   41.6450   32.3080   39.5370 C   0  0  0  0  0  0  0  0  0  0  0  0
   40.6720   33.1880   39.9280 C   0  0  0  0  0  0  0  0  0  0  0  0
   37.8420   28.1650   41.0120 C   0  0  0  0  0  0  0  0  0  0  0  0
   37.2440   28.5720   39.7180 C   0  0  0  0  0  0  0  0  0  0  0  0
   36.6100   28.0920   41.9830 C   0  0  0  0  0  0  0  0  0  0  0  0
   38.4110   26.7920   41.0370 C   0  0  0  0  0  0  0  0  0  0  0  0
   37.5110   25.8430   40.4220 N   0  0  0  0  0  0  0  0  0  0  0  0
   37.3490   24.6660   41.3090 C   0  0  0  0  0  0  0  0  0  0  0  0
   36.1780   23.9100   40.7210 C   0  0  0  0  0  0  0  0  0  0  0  0
   35.9490   24.2810   39.2780 C   0  0  0  0  0  0  0  0  0  0  0  0
   37.2020   24.4290   38.4810 C   0  0  0  0  0  0  0  0  0  0  0  0
   38.1920   25.2440   39.2370 C   0  0  0  0  0  0  0  0  0  0  0  0
   41.0458   30.0059   43.8884 H   0  0  0  0  0  0  0  0  0  0  0  0
   39.6073   28.0474   43.2219 H   0  0  0  0  0  0  0  0  0  0  0  0
   38.1471   35.7732   40.8345 H   0  0  0  0  0  0  0  0  0  0  0  0
   41.9126   35.8391   38.1601 H   0  0  0  0  0  0  0  0  0  0  0  0
   43.6330   34.1606   37.5122 H   0  0  0  0  0  0  0  0  0  0  0  0
   43.4430   31.8330   38.4272 H   0  0  0  0  0  0  0  0  0  0  0  0
   41.5822   31.2812   39.9265 H   0  0  0  0  0  0  0  0  0  0  0  0
   36.3477   29.1820   39.9040 H   0  0  0  0  0  0  0  0  0  0  0  0
   37.9756   29.1605   39.1449 H   0  0  0  0  0  0  0  0  0  0  0  0
   36.9649   27.6755   39.1449 H   0  0  0  0  0  0  0  0  0  0  0  0
   36.9625   28.1129   43.0248 H   0  0  0  0  0  0  0  0  0  0  0  0
   35.9491   28.9526   41.8022 H   0  0  0  0  0  0  0  0  0  0  0  0
   36.0554   27.1594   41.8022 H   0  0  0  0  0  0  0  0  0  0  0  0
   39.3650   26.7888   40.4895 H   0  0  0  0  0  0  0  0  0  0  0  0
   38.5651   26.4974   42.0856 H   0  0  0  0  0  0  0  0  0  0  0  0
   38.2568   24.0448   41.3012 H   0  0  0  0  0  0  0  0  0  0  0  0
   37.1797   24.9515   42.3577 H   0  0  0  0  0  0  0  0  0  0  0  0
   36.3811   22.8308   40.7846 H   0  0  0  0  0  0  0  0  0  0  0  0
   35.2756   24.1731   41.2923 H   0  0  0  0  0  0  0  0  0  0  0  0
   35.3343   23.4963   38.8129 H   0  0  0  0  0  0  0  0  0  0  0  0
   35.4547   25.2637   39.2776 H   0  0  0  0  0  0  0  0  0  0  0  0
   36.9711   24.9278   37.5282 H   0  0  0  0  0  0  0  0  0  0  0  0
   37.6267   23.4330   38.2869 H   0  0  0  0  0  0  0  0  0  0  0  0
   39.0214   24.6033   39.5710 H   0  0  0  0  0  0  0  0  0  0  0  0
   38.5934   26.0400   38.5925 H   0  0  0  0  0  0  0  0  0  0  0  0
  2  1  2  0
  3  2  1  0
  4  5  1  0
  4  3  2  0
  5  6  2  0
  6  1  1  0
  7  8  2  0
  7  5  1  0
  9  8  1  0
 10  9  2  0
 11 10  1  0
 11 16  2  0
 12 11  1  0
 13 12  2  0
 13 14  1  0
 14 15  2  0
 15 16  1  0
 16  7  1  0
 17 20  1  0
 17  3  1  0
 17 19  1  0
 18 17  1  0
 21 20  1  0
 21 22  1  0
 23 22  1  0
 24 23  1  0
 25 26  1  0
 25 24  1  0
 26 21  1  0
  1 27  1  0
  2 28  1  0
  9 29  1  0
 12 30  1  0
 13 31  1  0
 14 32  1  0
 15 33  1  0
 18 34  1  0
 18 35  1  0
 18 36  1  0
 19 37  1  0
 19 38  1  0
 19 39  1  0
 20 40  1  0
 20 41  1  0
 22 42  1  0
 22 43  1  0
 23 44  1  0
 23 45  1  0
 24 46  1  0
 24 47  1  0
 25 48  1  0
 25 49  1  0
 26 50  1  0
 26 51  1  0
M  ISO  8  27  14  28  14  29  14  30  14  31  14  32  14  33  14  34   8
M  ISO  8  35   8  36   8  37   8  38   8  39   8  40   8  41   8  42  13
M  ISO  8  43  13  44  13  45  13  46  13  47  13  48  13  49  13  50  13
M  ISO  1  51  13
M  END
>  <minimizedAffinity>  (1) 
-5.30487776

>  <minimizedRMSD>  (1) 
3.7610507

$$$$
