
     RDKit          3D

 43 46  0  0  0  0  0  0  0  0999 V2000
   42.2210   30.1630   42.6220 C   0  0  0  0  0  0  0  0  0  0  0  0
   41.8990   28.8860   43.0790 C   0  0  0  0  0  0  0  0  0  0  0  0
   40.6230   28.4240   42.7750 C   0  0  0  0  0  0  0  0  0  0  0  0
   39.8390   29.2640   42.0710 N   0  0  0  0  0  0  0  0  0  0  0  0
   40.1300   30.4720   41.6330 C   0  0  0  0  0  0  0  0  0  0  0  0
   41.3430   30.8800   41.9370 N   0  0  0  0  0  0  0  0  0  0  0  0
   39.3710   31.4510   40.8760 C   0  0  0  0  0  0  0  0  0  0  0  0
   39.1890   32.7400   41.2880 N   0  0  0  0  0  0  0  0  0  0  0  0
   38.5060   33.6610   40.6320 C   0  0  0  0  0  0  0  0  0  0  0  0
   37.9200   33.3870   39.4730 N   0  0  0  0  0  0  0  0  0  0  0  0
   38.0260   32.1550   38.9630 C   0  0  0  0  0  0  0  0  0  0  0  0
   37.4180   31.8540   37.7500 C   0  0  0  0  0  0  0  0  0  0  0  0
   37.5060   30.6130   37.2040 C   0  0  0  0  0  0  0  0  0  0  0  0
   38.2240   29.6470   37.8970 C   0  0  0  0  0  0  0  0  0  0  0  0
   38.8110   29.9890   39.0970 C   0  0  0  0  0  0  0  0  0  0  0  0
   38.7460   31.2170   39.6730 C   0  0  0  0  0  0  0  0  0  0  0  0
   40.0580   27.1010   43.1530 C   0  0  0  0  0  0  0  0  0  0  0  0
   38.6570   27.2450   43.6880 C   0  0  0  0  0  0  0  0  0  0  0  0
   40.9140   26.5030   44.2620 C   0  0  0  0  0  0  0  0  0  0  0  0
   40.0760   26.1380   41.9890 C   0  0  0  0  0  0  0  0  0  0  0  0
   38.7680   25.5150   41.7680 C   0  0  0  0  0  0  0  0  0  0  0  0
   38.0040   26.0060   40.7030 C   0  0  0  0  0  0  0  0  0  0  0  0
   36.8500   25.3130   40.6640 N   0  0  0  0  0  0  0  0  0  0  0  0
   36.8490   24.4040   41.6560 C   0  0  0  0  0  0  0  0  0  0  0  0
   38.0180   24.5570   42.2970 N   0  0  0  0  0  0  0  0  0  0  0  0
   43.2167   30.5804   42.8329 H   0  0  0  0  0  0  0  0  0  0  0  0
   42.6155   28.2766   43.6493 H   0  0  0  0  0  0  0  0  0  0  0  0
   38.4214   34.6733   41.0539 H   0  0  0  0  0  0  0  0  0  0  0  0
   36.8540   32.6365   37.2212 H   0  0  0  0  0  0  0  0  0  0  0  0
   37.0236   30.3806   36.2431 H   0  0  0  0  0  0  0  0  0  0  0  0
   38.3226   28.6275   37.4959 H   0  0  0  0  0  0  0  0  0  0  0  0
   39.3747   29.2078   39.6280 H   0  0  0  0  0  0  0  0  0  0  0  0
   38.6824   27.2424   44.7877 H   0  0  0  0  0  0  0  0  0  0  0  0
   38.2247   28.1923   43.3335 H   0  0  0  0  0  0  0  0  0  0  0  0
   38.0410   26.4054   43.3335 H   0  0  0  0  0  0  0  0  0  0  0  0
   40.5011   26.7915   45.2399 H   0  0  0  0  0  0  0  0  0  0  0  0
   40.9152   25.4066   44.1735 H   0  0  0  0  0  0  0  0  0  0  0  0
   41.9439   26.8791   44.1735 H   0  0  0  0  0  0  0  0  0  0  0  0
   40.3660   26.6856   41.0802 H   0  0  0  0  0  0  0  0  0  0  0  0
   40.7963   25.3397   42.2212 H   0  0  0  0  0  0  0  0  0  0  0  0
   38.2951   26.8159   40.0180 H   0  0  0  0  0  0  0  0  0  0  0  0
   36.0528   23.6829   41.8931 H   0  0  0  0  0  0  0  0  0  0  0  0
   38.3018   23.9926   43.1105 H   0  0  0  0  0  0  0  0  0  0  0  0
  1  2  2  0
  3  2  1  0
  3 17  1  0
  4  3  2  0
  5  6  2  0
  5  4  1  0
  6  1  1  0
  7  8  2  0
  7  5  1  0
  9  8  1  0
 10  9  2  0
 11 10  1  0
 11 16  2  0
 12 11  1  0
 13 12  2  0
 13 14  1  0
 14 15  2  0
 15 16  1  0
 16  7  1  0
 17 18  1  0
 17 19  1  0
 20 17  1  0
 21 20  1  0
 21 25  1  0
 22 21  2  0
 23 22  1  0
 23 24  2  0
 24 25  1  0
  1 26  1  0
  2 27  1  0
  9 28  1  0
 12 29  1  0
 13 30  1  0
 14 31  1  0
 15 32  1  0
 18 33  1  0
 18 34  1  0
 18 35  1  0
 19 36  1  0
 19 37  1  0
 19 38  1  0
 20 39  1  0
 20 40  1  0
 22 41  1  0
 24 42  1  0
 25 43  1  0
M  ISO  8  26  14  27  14  28  14  29  14  30  14  31  14  32  14  33   8
M  ISO  8  34   8  35   8  36   8  37   8  38   8  39   8  40   8  41  14
M  ISO  2  42  14  43   9
M  END
>  <minimizedAffinity>  (1) 
-5.24667406

>  <minimizedRMSD>  (1) 
1.9200511

$$$$
