
     RDKit          3D

 34 37  0  0  0  0  0  0  0  0999 V2000
   37.1510   25.3830   41.1650 C   0  0  0  0  0  0  0  0  0  0  0  0
   37.6430   24.1800   41.6490 C   0  0  0  0  0  0  0  0  0  0  0  0
   37.2680   23.2530   40.7200 C   0  0  0  0  0  0  0  0  0  0  0  0
   36.5830   23.8470   39.7190 N   0  0  0  0  0  0  0  0  0  0  0  0
   36.5080   25.1660   39.9910 N   0  0  0  0  0  0  0  0  0  0  0  0
   38.0860   26.8320   42.9940 C   0  0  0  0  0  0  0  0  0  0  0  0
   37.3270   26.6450   41.8410 C   0  0  0  0  0  0  0  0  0  0  0  0
   36.7030   27.7810   41.3300 C   0  0  0  0  0  0  0  0  0  0  0  0
   36.8610   28.9800   41.9650 N   0  0  0  0  0  0  0  0  0  0  0  0
   37.6200   29.0890   43.0920 C   0  0  0  0  0  0  0  0  0  0  0  0
   38.2400   27.9930   43.6100 N   0  0  0  0  0  0  0  0  0  0  0  0
   36.0600   23.1490   38.5850 C   0  0  0  0  0  0  0  0  0  0  0  0
   34.9630   22.2120   38.8700 C   0  0  0  0  0  0  0  0  0  0  0  0
   33.6940   22.5770   39.2890 C   0  0  0  0  0  0  0  0  0  0  0  0
   32.9030   21.4830   39.4730 N   0  0  0  0  0  0  0  0  0  0  0  0
   33.6300   20.3890   39.1810 C   0  0  0  0  0  0  0  0  0  0  0  0
   33.3710   19.0330   39.1810 C   0  0  0  0  0  0  0  0  0  0  0  0
   34.3190   18.0930   38.8270 C   0  0  0  0  0  0  0  0  0  0  0  0
   35.5780   18.5490   38.4600 C   0  0  0  0  0  0  0  0  0  0  0  0
   35.8460   19.9070   38.4570 C   0  0  0  0  0  0  0  0  0  0  0  0
   34.8960   20.8390   38.8110 C   0  0  0  0  0  0  0  0  0  0  0  0
   38.2099   24.0105   42.5763 H   0  0  0  0  0  0  0  0  0  0  0  0
   37.4914   22.1775   40.7782 H   0  0  0  0  0  0  0  0  0  0  0  0
   38.5922   25.9541   43.4219 H   0  0  0  0  0  0  0  0  0  0  0  0
   36.0871   27.7128   40.4211 H   0  0  0  0  0  0  0  0  0  0  0  0
   37.7320   30.0660   43.5848 H   0  0  0  0  0  0  0  0  0  0  0  0
   36.8827   22.5791   38.1286 H   0  0  0  0  0  0  0  0  0  0  0  0
   35.6355   23.9198   37.9249 H   0  0  0  0  0  0  0  0  0  0  0  0
   33.3676   23.6147   39.4519 H   0  0  0  0  0  0  0  0  0  0  0  0
   31.9204   21.4918   39.7816 H   0  0  0  0  0  0  0  0  0  0  0  0
   32.3690   18.6872   39.4749 H   0  0  0  0  0  0  0  0  0  0  0  0
   34.0843   17.0184   38.8355 H   0  0  0  0  0  0  0  0  0  0  0  0
   36.3612   17.8323   38.1721 H   0  0  0  0  0  0  0  0  0  0  0  0
   36.8482   20.2522   38.1629 H   0  0  0  0  0  0  0  0  0  0  0  0
  1  2  1  0
  1  7  1  0
  3  2  2  0
  4  5  1  0
  4  3  1  0
  5  1  2  0
  6 11  2  0
  7  6  1  0
  8  7  2  0
  8  9  1  0
  9 10  2  0
 10 11  1  0
 12 13  1  0
 12  4  1  0
 13 14  2  0
 14 15  1  0
 16 15  1  0
 17 16  2  0
 18 17  1  0
 19 18  2  0
 20 19  1  0
 20 21  2  0
 21 13  1  0
 21 16  1  0
  2 22  1  0
  3 23  1  0
  6 24  1  0
  8 25  1  0
 10 26  1  0
 12 27  1  0
 12 28  1  0
 14 29  1  0
 15 30  1  0
 17 31  1  0
 18 32  1  0
 19 33  1  0
 20 34  1  0
M  ISO  8  22  14  23  14  24  14  25  14  26  14  27   8  28   8  29  14
M  ISO  5  30   9  31  14  32  14  33  14  34  14
M  END
>  <minimizedAffinity>  (1) 
-4.38660955

>  <minimizedRMSD>  (1) 
4.6716094

$$$$
