
     RDKit          3D

 40 42  0  0  0  0  0  0  0  0999 V2000
   41.9920   29.9500   42.5490 C   0  0  0  0  0  0  0  0  0  0  0  0
   41.5810   28.6850   42.9970 C   0  0  0  0  0  0  0  0  0  0  0  0
   40.2770   28.3300   42.6850 C   0  0  0  0  0  0  0  0  0  0  0  0
   39.5620   29.2180   41.9990 N   0  0  0  0  0  0  0  0  0  0  0  0
   39.9290   30.4170   41.5660 C   0  0  0  0  0  0  0  0  0  0  0  0
   41.1600   30.7310   41.8720 N   0  0  0  0  0  0  0  0  0  0  0  0
   39.2320   31.4470   40.8130 C   0  0  0  0  0  0  0  0  0  0  0  0
   39.1180   32.7320   41.2380 N   0  0  0  0  0  0  0  0  0  0  0  0
   38.4990   33.7070   40.5900 C   0  0  0  0  0  0  0  0  0  0  0  0
   37.9190   33.4880   39.4280 N   0  0  0  0  0  0  0  0  0  0  0  0
   37.9590   32.2590   38.8980 C   0  0  0  0  0  0  0  0  0  0  0  0
   37.3580   31.9860   37.6670 C   0  0  0  0  0  0  0  0  0  0  0  0
   37.3840   30.7470   37.1020 C   0  0  0  0  0  0  0  0  0  0  0  0
   38.0350   29.7450   37.7910 C   0  0  0  0  0  0  0  0  0  0  0  0
   38.6250   30.0380   39.0110 C   0  0  0  0  0  0  0  0  0  0  0  0
   38.6140   31.2610   39.5990 C   0  0  0  0  0  0  0  0  0  0  0  0
   39.6420   27.0380   43.0730 C   0  0  0  0  0  0  0  0  0  0  0  0
   38.3030   27.3050   43.7000 C   0  0  0  0  0  0  0  0  0  0  0  0
   40.4990   26.3850   44.1540 C   0  0  0  0  0  0  0  0  0  0  0  0
   39.5260   26.0980   41.9170 C   0  0  0  0  0  0  0  0  0  0  0  0
   37.9250   26.0510   41.1900 S   0  0  0  0  0  0  0  0  0  0  0  0
   36.9360   24.5930   41.5690 C   0  0  0  0  0  0  0  0  0  0  0  0
   36.0800   24.2040   40.5910 F   0  0  0  0  0  0  0  0  0  0  0  0
   37.8810   23.5430   41.8130 F   0  0  0  0  0  0  0  0  0  0  0  0
   36.3340   24.7460   42.7930 F   0  0  0  0  0  0  0  0  0  0  0  0
   43.0139   30.2974   42.7612 H   0  0  0  0  0  0  0  0  0  0  0  0
   42.2504   28.0177   43.5597 H   0  0  0  0  0  0  0  0  0  0  0  0
   38.4688   34.7152   41.0289 H   0  0  0  0  0  0  0  0  0  0  0  0
   36.8454   32.8009   37.1348 H   0  0  0  0  0  0  0  0  0  0  0  0
   36.9035   30.5526   36.1318 H   0  0  0  0  0  0  0  0  0  0  0  0
   38.0854   28.7267   37.3780 H   0  0  0  0  0  0  0  0  0  0  0  0
   39.1383   29.2213   39.5397 H   0  0  0  0  0  0  0  0  0  0  0  0
   38.4007   27.2855   44.7955 H   0  0  0  0  0  0  0  0  0  0  0  0
   37.9396   28.2933   43.3818 H   0  0  0  0  0  0  0  0  0  0  0  0
   37.5884   26.5317   43.3818 H   0  0  0  0  0  0  0  0  0  0  0  0
   40.1206   26.6733   45.1458 H   0  0  0  0  0  0  0  0  0  0  0  0
   40.4527   25.2911   44.0476 H   0  0  0  0  0  0  0  0  0  0  0  0
   41.5414   26.7199   44.0476 H   0  0  0  0  0  0  0  0  0  0  0  0
   40.2469   26.4075   41.1460 H   0  0  0  0  0  0  0  0  0  0  0  0
   39.7283   25.0892   42.3060 H   0  0  0  0  0  0  0  0  0  0  0  0
  1  2  2  0
  3  2  1  0
  3 17  1  0
  4  3  2  0
  5  6  2  0
  5  4  1  0
  6  1  1  0
  7  8  2  0
  7  5  1  0
  9  8  1  0
 10  9  2  0
 11 10  1  0
 11 16  2  0
 12 11  1  0
 13 12  2  0
 13 14  1  0
 14 15  2  0
 15 16  1  0
 16  7  1  0
 17 18  1  0
 17 19  1  0
 20 17  1  0
 21 22  1  0
 21 20  1  0
 22 24  1  0
 22 25  1  0
 23 22  1  0
  1 26  1  0
  2 27  1  0
  9 28  1  0
 12 29  1  0
 13 30  1  0
 14 31  1  0
 15 32  1  0
 18 33  1  0
 18 34  1  0
 18 35  1  0
 19 36  1  0
 19 37  1  0
 19 38  1  0
 20 39  1  0
 20 40  1  0
M  ISO  8  26  14  27  14  28  14  29  14  30  14  31  14  32  14  33   8
M  ISO  7  34   8  35   8  36   8  37   8  38   8  39   8  40   8
M  END
>  <minimizedAffinity>  (1) 
-5.41930008

>  <minimizedRMSD>  (1) 
1.53279793

$$$$
