
     RDKit          3D

 31 34  0  0  0  0  0  0  0  0999 V2000
   35.9110   28.0780   39.4790 C   0  0  0  0  0  0  0  0  0  0  0  0
   36.9940   27.2170   39.6580 C   0  0  0  0  0  0  0  0  0  0  0  0
   37.6140   27.6780   40.7800 C   0  0  0  0  0  0  0  0  0  0  0  0
   36.9580   28.7580   41.2720 N   0  0  0  0  0  0  0  0  0  0  0  0
   35.9030   29.0120   40.4710 N   0  0  0  0  0  0  0  0  0  0  0  0
   33.9230   28.8720   38.1610 C   0  0  0  0  0  0  0  0  0  0  0  0
   34.9570   27.9580   38.3880 C   0  0  0  0  0  0  0  0  0  0  0  0
   35.0920   26.8560   37.5210 C   0  0  0  0  0  0  0  0  0  0  0  0
   34.1910   26.7400   36.4930 N   0  0  0  0  0  0  0  0  0  0  0  0
   33.1910   27.6820   36.3270 C   0  0  0  0  0  0  0  0  0  0  0  0
   33.0660   28.7430   37.1660 N   0  0  0  0  0  0  0  0  0  0  0  0
   37.3670   29.4670   42.4500 C   0  0  0  0  0  0  0  0  0  0  0  0
   38.4800   30.3370   42.0610 N   0  0  0  0  0  0  0  0  0  0  0  0
   39.7710   30.1490   42.4600 C   0  0  0  0  0  0  0  0  0  0  0  0
   40.5820   31.1020   41.9500 N   0  0  0  0  0  0  0  0  0  0  0  0
   39.8030   31.9150   41.2110 C   0  0  0  0  0  0  0  0  0  0  0  0
   39.9520   33.0410   40.4430 C   0  0  0  0  0  0  0  0  0  0  0  0
   38.9130   33.6010   39.8310 N   0  0  0  0  0  0  0  0  0  0  0  0
   37.6380   33.1180   39.9110 C   0  0  0  0  0  0  0  0  0  0  0  0
   37.4700   32.0140   40.6620 N   0  0  0  0  0  0  0  0  0  0  0  0
   38.5000   31.4480   41.2750 C   0  0  0  0  0  0  0  0  0  0  0  0
   37.2825   26.3587   39.0335 H   0  0  0  0  0  0  0  0  0  0  0  0
   38.5185   27.2367   41.2239 H   0  0  0  0  0  0  0  0  0  0  0  0
   33.8201   29.7323   38.8387 H   0  0  0  0  0  0  0  0  0  0  0  0
   35.8919   26.1144   37.6633 H   0  0  0  0  0  0  0  0  0  0  0  0
   32.4800   27.5689   35.4954 H   0  0  0  0  0  0  0  0  0  0  0  0
   36.5326   30.0708   42.8364 H   0  0  0  0  0  0  0  0  0  0  0  0
   37.6731   28.7683   43.2425 H   0  0  0  0  0  0  0  0  0  0  0  0
   40.1076   29.3291   43.1115 H   0  0  0  0  0  0  0  0  0  0  0  0
   40.9501   33.4896   40.3311 H   0  0  0  0  0  0  0  0  0  0  0  0
   36.7979   33.6028   39.3921 H   0  0  0  0  0  0  0  0  0  0  0  0
  1  2  1  0
  1  5  2  0
  2  3  2  0
  3  4  1  0
  4 12  1  0
  5  4  1  0
  6  7  2  0
  7  1  1  0
  8  7  1  0
  9  8  2  0
 10  9  1  0
 10 11  2  0
 11  6  1  0
 13 12  1  0
 13 14  1  0
 15 14  2  0
 16 21  2  0
 16 15  1  0
 17 16  1  0
 18 19  1  0
 18 17  2  0
 19 20  2  0
 20 21  1  0
 21 13  1  0
  2 22  1  0
  3 23  1  0
  6 24  1  0
  8 25  1  0
 10 26  1  0
 12 27  1  0
 12 28  1  0
 14 29  1  0
 17 30  1  0
 19 31  1  0
M  ISO  8  22  14  23  14  24  14  25  14  26  14  27   8  28   8  29  14
M  ISO  2  30  14  31  14
M  END
>  <minimizedAffinity>  (1) 
-4.33084059

>  <minimizedRMSD>  (1) 
7.68118048

$$$$
