
     RDKit          3D

 49 51  0  0  0  0  0  0  0  0999 V2000
   42.1990   30.1790   42.6180 C   0  0  0  0  0  0  0  0  0  0  0  0
   41.8870   28.8970   43.0640 C   0  0  0  0  0  0  0  0  0  0  0  0
   40.6130   28.4450   42.7310 C   0  0  0  0  0  0  0  0  0  0  0  0
   39.8350   29.2750   42.0310 N   0  0  0  0  0  0  0  0  0  0  0  0
   40.1250   30.4930   41.6030 C   0  0  0  0  0  0  0  0  0  0  0  0
   41.3260   30.8950   41.9260 N   0  0  0  0  0  0  0  0  0  0  0  0
   39.3640   31.4770   40.8540 C   0  0  0  0  0  0  0  0  0  0  0  0
   39.1900   32.7670   41.2710 N   0  0  0  0  0  0  0  0  0  0  0  0
   38.5140   33.7010   40.6400 C   0  0  0  0  0  0  0  0  0  0  0  0
   37.9270   33.4550   39.5010 N   0  0  0  0  0  0  0  0  0  0  0  0
   38.0180   32.2170   38.9680 C   0  0  0  0  0  0  0  0  0  0  0  0
   37.4010   31.9170   37.7530 C   0  0  0  0  0  0  0  0  0  0  0  0
   37.4800   30.6800   37.2000 C   0  0  0  0  0  0  0  0  0  0  0  0
   38.1970   29.7120   37.8830 C   0  0  0  0  0  0  0  0  0  0  0  0
   38.7940   30.0400   39.0830 C   0  0  0  0  0  0  0  0  0  0  0  0
   38.7370   31.2650   39.6670 C   0  0  0  0  0  0  0  0  0  0  0  0
   40.0800   27.1130   43.1140 C   0  0  0  0  0  0  0  0  0  0  0  0
   38.6820   27.2510   43.6620 C   0  0  0  0  0  0  0  0  0  0  0  0
   40.9270   26.5670   44.2530 C   0  0  0  0  0  0  0  0  0  0  0  0
   40.0690   26.1390   41.9840 C   0  0  0  0  0  0  0  0  0  0  0  0
   38.6140   26.1120   41.0010 S   0  0  0  0  0  0  0  0  0  0  0  0
   37.6300   24.6430   40.9610 C   0  0  0  0  0  0  0  0  0  0  0  0
   36.7180   24.5890   42.1640 C   0  0  0  0  0  0  0  0  0  0  0  0
   38.3260   23.3440   40.7820 C   0  0  0  0  0  0  0  0  0  0  0  0
   36.6460   24.8240   39.7510 C   0  0  0  0  0  0  0  0  0  0  0  0
   43.1879   30.6042   42.8445 H   0  0  0  0  0  0  0  0  0  0  0  0
   42.5973   28.2846   43.6389 H   0  0  0  0  0  0  0  0  0  0  0  0
   38.4419   34.7068   41.0795 H   0  0  0  0  0  0  0  0  0  0  0  0
   36.8363   32.7029   37.2301 H   0  0  0  0  0  0  0  0  0  0  0  0
   36.9907   30.4539   36.2411 H   0  0  0  0  0  0  0  0  0  0  0  0
   38.2894   28.6949   37.4743 H   0  0  0  0  0  0  0  0  0  0  0  0
   39.3571   29.2521   39.6046 H   0  0  0  0  0  0  0  0  0  0  0  0
   38.7171   27.2475   44.7614 H   0  0  0  0  0  0  0  0  0  0  0  0
   38.2427   28.1969   43.3122 H   0  0  0  0  0  0  0  0  0  0  0  0
   38.0663   26.4093   43.3122 H   0  0  0  0  0  0  0  0  0  0  0  0
   40.4784   26.8562   45.2148 H   0  0  0  0  0  0  0  0  0  0  0  0
   40.9710   25.4700   44.1840 H   0  0  0  0  0  0  0  0  0  0  0  0
   41.9443   26.9798   44.1840 H   0  0  0  0  0  0  0  0  0  0  0  0
   40.9157   26.3800   41.3244 H   0  0  0  0  0  0  0  0  0  0  0  0
   40.1287   25.1446   42.4506 H   0  0  0  0  0  0  0  0  0  0  0  0
   37.3211   24.6247   43.0832 H   0  0  0  0  0  0  0  0  0  0  0  0
   36.0313   25.4481   42.1424 H   0  0  0  0  0  0  0  0  0  0  0  0
   36.1375   23.6549   42.1424 H   0  0  0  0  0  0  0  0  0  0  0  0
   38.5570   22.9129   41.7673 H   0  0  0  0  0  0  0  0  0  0  0  0
   37.6767   22.6541   40.2230 H   0  0  0  0  0  0  0  0  0  0  0  0
   39.2600   23.5024   40.2230 H   0  0  0  0  0  0  0  0  0  0  0  0
   35.6301   25.0109   40.1293 H   0  0  0  0  0  0  0  0  0  0  0  0
   36.9717   25.6773   39.1380 H   0  0  0  0  0  0  0  0  0  0  0  0
   36.6468   23.9106   39.1380 H   0  0  0  0  0  0  0  0  0  0  0  0
  1  2  2  0
  3  2  1  0
  3 17  1  0
  4  3  2  0
  5  6  2  0
  5  4  1  0
  6  1  1  0
  7  8  2  0
  7  5  1  0
  9  8  1  0
 10  9  2  0
 11 10  1  0
 11 16  2  0
 12 11  1  0
 13 12  2  0
 13 14  1  0
 14 15  2  0
 15 16  1  0
 16  7  1  0
 17 18  1  0
 17 19  1  0
 20 17  1  0
 21 20  1  0
 22 21  1  0
 22 23  1  0
 24 22  1  0
 25 22  1  0
  1 26  1  0
  2 27  1  0
  9 28  1  0
 12 29  1  0
 13 30  1  0
 14 31  1  0
 15 32  1  0
 18 33  1  0
 18 34  1  0
 18 35  1  0
 19 36  1  0
 19 37  1  0
 19 38  1  0
 20 39  1  0
 20 40  1  0
 23 41  1  0
 23 42  1  0
 23 43  1  0
 24 44  1  0
 24 45  1  0
 24 46  1  0
 25 47  1  0
 25 48  1  0
 25 49  1  0
M  ISO  8  26  14  27  14  28  14  29  14  30  14  31  14  32  14  33   8
M  ISO  8  34   8  35   8  36   8  37   8  38   8  39   8  40   8  41   8
M  ISO  8  42   8  43   8  44   8  45   8  46   8  47   8  48   8  49   8
M  END
>  <minimizedAffinity>  (1) 
-5.17227554

>  <minimizedRMSD>  (1) 
1.6813277

$$$$
