
     RDKit          3D

 27 29  0  0  0  0  0  0  0  0999 V2000
   35.9590   29.9510   40.1390 N   0  0  0  0  0  0  0  0  0  0  0  0
   34.8630   29.2390   39.8060 C   0  0  0  0  0  0  0  0  0  0  0  0
   34.8660   29.0280   38.4720 N   0  0  0  0  0  0  0  0  0  0  0  0
   35.9580   29.5990   37.9400 C   0  0  0  0  0  0  0  0  0  0  0  0
   36.4730   29.7000   36.6420 C   0  0  0  0  0  0  0  0  0  0  0  0
   35.8030   29.1530   35.7340 O   0  0  0  0  0  0  0  0  0  0  0  0
   37.6390   30.3700   36.4440 N   0  0  0  0  0  0  0  0  0  0  0  0
   38.2810   30.9230   37.4890 C   0  0  0  0  0  0  0  0  0  0  0  0
   39.5040   31.6200   37.2470 N   0  0  0  0  0  0  0  0  0  0  0  0
   37.7870   30.8300   38.7550 N   0  0  0  0  0  0  0  0  0  0  0  0
   36.6360   30.1750   38.9950 C   0  0  0  0  0  0  0  0  0  0  0  0
   36.2960   30.3710   41.4970 C   0  0  0  0  0  0  0  0  0  0  0  0
   37.1910   29.3680   42.1000 C   0  0  0  0  0  0  0  0  0  0  0  0
   38.5530   29.5830   42.3380 C   0  0  0  0  0  0  0  0  0  0  0  0
   39.2950   28.5590   42.9130 C   0  0  0  0  0  0  0  0  0  0  0  0
   38.6500   27.3710   43.2220 N   0  0  0  0  0  0  0  0  0  0  0  0
   37.3380   27.2220   42.9690 C   0  0  0  0  0  0  0  0  0  0  0  0
   36.6000   28.1820   42.4210 N   0  0  0  0  0  0  0  0  0  0  0  0
   34.0918   28.8872   40.5071 H   0  0  0  0  0  0  0  0  0  0  0  0
   38.0306   30.4542   35.4951 H   0  0  0  0  0  0  0  0  0  0  0  0
   40.0143   32.0520   38.0305 H   0  0  0  0  0  0  0  0  0  0  0  0
   39.8757   31.6906   36.2890 H   0  0  0  0  0  0  0  0  0  0  0  0
   36.8028   31.3468   41.4664 H   0  0  0  0  0  0  0  0  0  0  0  0
   35.3786   30.4599   42.0974 H   0  0  0  0  0  0  0  0  0  0  0  0
   39.0254   30.5411   42.0757 H   0  0  0  0  0  0  0  0  0  0  0  0
   40.3680   28.6874   43.1182 H   0  0  0  0  0  0  0  0  0  0  0  0
   36.8560   26.2672   43.2259 H   0  0  0  0  0  0  0  0  0  0  0  0
  1 12  1  0
  2  1  1  0
  3  2  2  0
  4  3  1  0
  4 11  2  0
  5  4  1  0
  6  5  2  0
  7  5  1  0
  7  8  1  0
  8 10  2  0
  9  8  1  0
 10 11  1  0
 11  1  1  0
 12 13  1  0
 13 14  2  0
 13 18  1  0
 14 15  1  0
 15 16  2  0
 17 16  1  0
 18 17  2  0
  2 19  1  0
  7 20  1  0
  9 21  1  0
  9 22  1  0
 12 23  1  0
 12 24  1  0
 14 25  1  0
 15 26  1  0
 17 27  1  0
M  ISO  7  19  14  20   9  23   8  24   8  25  14  26  14  27  14
M  END
>  <minimizedAffinity>  (1) 
-4.77717495

>  <minimizedRMSD>  (1) 
2.9912982

$$$$
