
     RDKit          3D

 42 45  0  0  0  0  0  0  0  0999 V2000
   36.3090   30.6970   41.1970 C   0  0  0  0  0  0  0  0  0  0  0  0
   35.9870   30.1380   39.8830 N   0  0  0  0  0  0  0  0  0  0  0  0
   35.0280   29.2160   39.6530 C   0  0  0  0  0  0  0  0  0  0  0  0
   35.0020   28.9260   38.3330 N   0  0  0  0  0  0  0  0  0  0  0  0
   35.9420   29.6600   37.7130 C   0  0  0  0  0  0  0  0  0  0  0  0
   36.3600   29.7740   36.3860 C   0  0  0  0  0  0  0  0  0  0  0  0
   35.7670   29.0620   35.5400 O   0  0  0  0  0  0  0  0  0  0  0  0
   37.3710   30.6380   36.0870 N   0  0  0  0  0  0  0  0  0  0  0  0
   37.9480   31.3590   37.0540 C   0  0  0  0  0  0  0  0  0  0  0  0
   39.0080   32.2580   36.7100 N   0  0  0  0  0  0  0  0  0  0  0  0
   37.5410   31.2480   38.3490 N   0  0  0  0  0  0  0  0  0  0  0  0
   36.5470   30.4090   38.6910 C   0  0  0  0  0  0  0  0  0  0  0  0
   37.5220   30.0310   41.7110 C   0  0  0  0  0  0  0  0  0  0  0  0
   38.7410   30.6820   41.9150 C   0  0  0  0  0  0  0  0  0  0  0  0
   39.8220   29.9560   42.4030 C   0  0  0  0  0  0  0  0  0  0  0  0
   39.6290   28.6040   42.6660 N   0  0  0  0  0  0  0  0  0  0  0  0
   38.4380   28.0430   42.4490 C   0  0  0  0  0  0  0  0  0  0  0  0
   37.3920   28.6990   41.9870 N   0  0  0  0  0  0  0  0  0  0  0  0
   38.3130   26.6540   42.7390 N   0  0  0  0  0  0  0  0  0  0  0  0
   37.0580   25.9260   42.5430 C   0  0  0  0  0  0  0  0  0  0  0  0
   37.4170   24.5320   42.1060 C   0  0  0  0  0  0  0  0  0  0  0  0
   38.7160   24.4960   41.3280 C   0  0  0  0  0  0  0  0  0  0  0  0
   39.8960   25.0150   42.0780 C   0  0  0  0  0  0  0  0  0  0  0  0
   39.3990   25.8350   43.2520 C   0  0  0  0  0  0  0  0  0  0  0  0
   35.4709   30.5241   41.8882 H   0  0  0  0  0  0  0  0  0  0  0  0
   36.4841   31.7795   41.1108 H   0  0  0  0  0  0  0  0  0  0  0  0
   34.3730   28.7721   40.4171 H   0  0  0  0  0  0  0  0  0  0  0  0
   37.6915   30.7358   35.1130 H   0  0  0  0  0  0  0  0  0  0  0  0
   39.4637   32.8211   37.4422 H   0  0  0  0  0  0  0  0  0  0  0  0
   39.3148   32.3416   35.7303 H   0  0  0  0  0  0  0  0  0  0  0  0
   38.8444   31.7543   41.6926 H   0  0  0  0  0  0  0  0  0  0  0  0
   40.7971   30.4350   42.5752 H   0  0  0  0  0  0  0  0  0  0  0  0
   36.4910   25.8916   43.4850 H   0  0  0  0  0  0  0  0  0  0  0  0
   36.4316   26.4232   41.7878 H   0  0  0  0  0  0  0  0  0  0  0  0
   37.5198   23.8961   42.9977 H   0  0  0  0  0  0  0  0  0  0  0  0
   36.6164   24.1670   41.4459 H   0  0  0  0  0  0  0  0  0  0  0  0
   38.5905   25.1040   40.4199 H   0  0  0  0  0  0  0  0  0  0  0  0
   38.9226   23.4379   41.1094 H   0  0  0  0  0  0  0  0  0  0  0  0
   40.5023   24.1733   42.4439 H   0  0  0  0  0  0  0  0  0  0  0  0
   40.5160   25.6398   41.4183 H   0  0  0  0  0  0  0  0  0  0  0  0
   40.2065   26.4720   43.6421 H   0  0  0  0  0  0  0  0  0  0  0  0
   39.0623   25.1917   44.0783 H   0  0  0  0  0  0  0  0  0  0  0  0
  1 13  1  0
  2  1  1  0
  3  2  1  0
  4  3  2  0
  5  4  1  0
  5 12  2  0
  6  5  1  0
  7  6  2  0
  8  6  1  0
  8  9  1  0
  9 11  2  0
 10  9  1  0
 11 12  1  0
 12  2  1  0
 13 14  2  0
 13 18  1  0
 14 15  1  0
 15 16  2  0
 17 16  1  0
 17 19  1  0
 18 17  2  0
 19 24  1  0
 20 19  1  0
 21 20  1  0
 22 23  1  0
 22 21  1  0
 23 24  1  0
  1 25  1  0
  1 26  1  0
  3 27  1  0
  8 28  1  0
 10 29  1  0
 10 30  1  0
 14 31  1  0
 15 32  1  0
 20 33  1  0
 20 34  1  0
 21 35  1  0
 21 36  1  0
 22 37  1  0
 22 38  1  0
 23 39  1  0
 23 40  1  0
 24 41  1  0
 24 42  1  0
M  ISO  8  25   8  26   8  27  14  28   9  31  14  32  14  33  13  34  13
M  ISO  8  35  13  36  13  37  13  38  13  39  13  40  13  41  13  42  13
M  END
>  <minimizedAffinity>  (1) 
-6.54134417

>  <minimizedRMSD>  (1) 
1.349594

$$$$
