
     RDKit          3D

 38 42  0  0  0  0  0  0  0  0999 V2000
   36.2220   30.4630   41.2060 C   0  0  0  0  0  0  0  0  0  0  0  0
   37.0340   29.4580   41.8960 C   0  0  0  0  0  0  0  0  0  0  0  0
   36.5280   28.2680   42.4170 C   0  0  0  0  0  0  0  0  0  0  0  0
   37.3760   27.3830   43.0520 C   0  0  0  0  0  0  0  0  0  0  0  0
   38.7230   27.7290   43.1440 N   0  0  0  0  0  0  0  0  0  0  0  0
   39.1570   28.8890   42.6240 C   0  0  0  0  0  0  0  0  0  0  0  0
   38.3540   29.7630   42.0040 N   0  0  0  0  0  0  0  0  0  0  0  0
   40.5470   29.0420   42.8250 N   0  0  0  0  0  0  0  0  0  0  0  0
   41.3530   30.1070   42.5980 C   0  0  0  0  0  0  0  0  0  0  0  0
   42.6280   29.8510   42.9230 N   0  0  0  0  0  0  0  0  0  0  0  0
   42.6990   28.5880   43.3800 C   0  0  0  0  0  0  0  0  0  0  0  0
   43.7310   27.8040   43.8450 C   0  0  0  0  0  0  0  0  0  0  0  0
   43.4390   26.5500   44.2310 N   0  0  0  0  0  0  0  0  0  0  0  0
   42.1630   26.1040   44.1540 C   0  0  0  0  0  0  0  0  0  0  0  0
   41.1300   26.8370   43.7070 N   0  0  0  0  0  0  0  0  0  0  0  0
   41.3950   28.1090   43.3080 C   0  0  0  0  0  0  0  0  0  0  0  0
   35.9440   30.0040   39.8500 N   0  0  0  0  0  0  0  0  0  0  0  0
   34.9740   29.1240   39.5220 C   0  0  0  0  0  0  0  0  0  0  0  0
   34.9960   28.9260   38.1930 N   0  0  0  0  0  0  0  0  0  0  0  0
   35.9690   29.6650   37.6540 C   0  0  0  0  0  0  0  0  0  0  0  0
   36.4510   29.8600   36.3500 C   0  0  0  0  0  0  0  0  0  0  0  0
   35.8720   29.2210   35.4490 O   0  0  0  0  0  0  0  0  0  0  0  0
   37.4940   30.7150   36.1460 N   0  0  0  0  0  0  0  0  0  0  0  0
   38.0540   31.3620   37.1850 C   0  0  0  0  0  0  0  0  0  0  0  0
   39.1380   32.2420   36.9320 N   0  0  0  0  0  0  0  0  0  0  0  0
   37.5930   31.1770   38.4470 N   0  0  0  0  0  0  0  0  0  0  0  0
   36.5730   30.3500   38.6980 C   0  0  0  0  0  0  0  0  0  0  0  0
   35.2753   30.6065   41.7475 H   0  0  0  0  0  0  0  0  0  0  0  0
   36.7670   31.4178   41.1693 H   0  0  0  0  0  0  0  0  0  0  0  0
   35.4571   28.0352   42.3224 H   0  0  0  0  0  0  0  0  0  0  0  0
   37.0016   26.4373   43.4709 H   0  0  0  0  0  0  0  0  0  0  0  0
   41.0025   31.0684   42.1946 H   0  0  0  0  0  0  0  0  0  0  0  0
   44.7594   28.1907   43.8988 H   0  0  0  0  0  0  0  0  0  0  0  0
   41.9587   25.0732   44.4790 H   0  0  0  0  0  0  0  0  0  0  0  0
   34.2786   28.6466   40.2280 H   0  0  0  0  0  0  0  0  0  0  0  0
   37.8545   30.8661   35.1931 H   0  0  0  0  0  0  0  0  0  0  0  0
   39.5829   32.7483   37.7109 H   0  0  0  0  0  0  0  0  0  0  0  0
   39.4800   32.3744   35.9695 H   0  0  0  0  0  0  0  0  0  0  0  0
  1  2  1  0
  2  7  1  0
  2  3  2  0
  3  4  1  0
  4  5  2  0
  6  8  1  0
  6  5  1  0
  7  6  2  0
  8 16  1  0
  9  8  1  0
  9 10  2  0
 10 11  1  0
 11 12  2  0
 12 13  1  0
 14 13  2  0
 15 14  1  0
 16 11  1  0
 16 15  2  0
 17  1  1  0
 18 17  1  0
 19 18  2  0
 20 19  1  0
 20 27  2  0
 21 20  1  0
 22 21  2  0
 23 21  1  0
 23 24  1  0
 24 26  2  0
 25 24  1  0
 26 27  1  0
 27 17  1  0
  1 28  1  0
  1 29  1  0
  3 30  1  0
  4 31  1  0
  9 32  1  0
 12 33  1  0
 14 34  1  0
 18 35  1  0
 23 36  1  0
 25 37  1  0
 25 38  1  0
M  ISO  8  28   8  29   8  30  14  31  14  32  14  33  14  34  14  35  14
M  ISO  1  36   9
M  END
>  <minimizedAffinity>  (1) 
-6.48301411

>  <minimizedRMSD>  (1) 
3.81854892

$$$$
