
     RDKit          3D

 33 36  0  0  0  0  0  0  0  0999 V2000
   36.2840   30.5810   41.2200 C   0  0  0  0  0  0  0  0  0  0  0  0
   35.9570   30.0590   39.8870 N   0  0  0  0  0  0  0  0  0  0  0  0
   34.9920   29.1570   39.6380 C   0  0  0  0  0  0  0  0  0  0  0  0
   34.9680   28.9060   38.3060 N   0  0  0  0  0  0  0  0  0  0  0  0
   35.9110   29.6440   37.6990 C   0  0  0  0  0  0  0  0  0  0  0  0
   36.3350   29.7940   36.3720 C   0  0  0  0  0  0  0  0  0  0  0  0
   35.7320   29.1100   35.5220 O   0  0  0  0  0  0  0  0  0  0  0  0
   37.3470   30.6500   36.1010 N   0  0  0  0  0  0  0  0  0  0  0  0
   37.9350   31.3450   37.0900 C   0  0  0  0  0  0  0  0  0  0  0  0
   38.9990   32.2410   36.7810 N   0  0  0  0  0  0  0  0  0  0  0  0
   37.5320   31.2090   38.3920 N   0  0  0  0  0  0  0  0  0  0  0  0
   36.5320   30.3700   38.7070 C   0  0  0  0  0  0  0  0  0  0  0  0
   37.4640   29.8500   41.7380 C   0  0  0  0  0  0  0  0  0  0  0  0
   38.6390   30.4740   42.1510 C   0  0  0  0  0  0  0  0  0  0  0  0
   39.6870   29.7000   42.6200 C   0  0  0  0  0  0  0  0  0  0  0  0
   39.5050   28.3350   42.6530 N   0  0  0  0  0  0  0  0  0  0  0  0
   38.3540   27.7670   42.2450 C   0  0  0  0  0  0  0  0  0  0  0  0
   37.3410   28.5050   41.7900 N   0  0  0  0  0  0  0  0  0  0  0  0
   38.2610   26.3450   42.3160 N   0  0  0  0  0  0  0  0  0  0  0  0
   37.3330   25.4100   42.0410 C   0  0  0  0  0  0  0  0  0  0  0  0
   37.8270   24.1900   42.3150 N   0  0  0  0  0  0  0  0  0  0  0  0
   39.0880   24.3680   42.7690 C   0  0  0  0  0  0  0  0  0  0  0  0
   39.3290   25.6980   42.7600 N   0  0  0  0  0  0  0  0  0  0  0  0
   35.4294   30.4316   41.8963 H   0  0  0  0  0  0  0  0  0  0  0  0
   36.5059   31.6566   41.1581 H   0  0  0  0  0  0  0  0  0  0  0  0
   34.3320   28.6990   40.3895 H   0  0  0  0  0  0  0  0  0  0  0  0
   37.6692   30.7700   35.1301 H   0  0  0  0  0  0  0  0  0  0  0  0
   39.4552   32.7775   37.5326 H   0  0  0  0  0  0  0  0  0  0  0  0
   39.3119   32.3522   35.8060 H   0  0  0  0  0  0  0  0  0  0  0  0
   38.7332   31.5690   42.1051 H   0  0  0  0  0  0  0  0  0  0  0  0
   40.6297   30.1581   42.9538 H   0  0  0  0  0  0  0  0  0  0  0  0
   36.3245   25.6129   41.6516 H   0  0  0  0  0  0  0  0  0  0  0  0
   39.7862   23.5792   43.0859 H   0  0  0  0  0  0  0  0  0  0  0  0
  1 13  1  0
  2  1  1  0
  3  2  1  0
  4  3  2  0
  5  4  1  0
  5 12  2  0
  6  5  1  0
  7  6  2  0
  8  6  1  0
  8  9  1  0
  9 11  2  0
 10  9  1  0
 11 12  1  0
 12  2  1  0
 13 18  1  0
 13 14  2  0
 14 15  1  0
 15 16  2  0
 17 19  1  0
 17 16  1  0
 18 17  2  0
 19 23  1  0
 20 21  2  0
 20 19  1  0
 21 22  1  0
 23 22  2  0
  1 24  1  0
  1 25  1  0
  3 26  1  0
  8 27  1  0
 10 28  1  0
 10 29  1  0
 14 30  1  0
 15 31  1  0
 20 32  1  0
 22 33  1  0
M  ISO  8  24   8  25   8  26  14  27   9  30  14  31  14  32  14  33  14
M  END
>  <minimizedAffinity>  (1) 
-6.1670022

>  <minimizedRMSD>  (1) 
1.27263212

$$$$
