
     RDKit          3D

 34 37  0  0  0  0  0  0  0  0999 V2000
   36.2810   30.5620   41.2080 C   0  0  0  0  0  0  0  0  0  0  0  0
   35.9590   30.0580   39.8770 N   0  0  0  0  0  0  0  0  0  0  0  0
   34.9980   29.1610   39.6290 C   0  0  0  0  0  0  0  0  0  0  0  0
   34.9680   28.9130   38.2910 N   0  0  0  0  0  0  0  0  0  0  0  0
   35.9140   29.6540   37.6910 C   0  0  0  0  0  0  0  0  0  0  0  0
   36.3300   29.8050   36.3700 C   0  0  0  0  0  0  0  0  0  0  0  0
   35.7240   29.1260   35.5120 O   0  0  0  0  0  0  0  0  0  0  0  0
   37.3440   30.6610   36.0930 N   0  0  0  0  0  0  0  0  0  0  0  0
   37.9350   31.3500   37.0870 C   0  0  0  0  0  0  0  0  0  0  0  0
   38.9980   32.2420   36.7660 N   0  0  0  0  0  0  0  0  0  0  0  0
   37.5330   31.2060   38.3770 N   0  0  0  0  0  0  0  0  0  0  0  0
   36.5290   30.3670   38.6940 C   0  0  0  0  0  0  0  0  0  0  0  0
   37.4750   29.8600   41.7220 C   0  0  0  0  0  0  0  0  0  0  0  0
   38.6430   30.4810   42.1530 C   0  0  0  0  0  0  0  0  0  0  0  0
   39.6940   29.7140   42.6150 C   0  0  0  0  0  0  0  0  0  0  0  0
   39.5230   28.3430   42.6240 N   0  0  0  0  0  0  0  0  0  0  0  0
   38.3840   27.7880   42.2020 C   0  0  0  0  0  0  0  0  0  0  0  0
   37.3520   28.5010   41.7500 N   0  0  0  0  0  0  0  0  0  0  0  0
   38.3650   26.3640   42.2740 N   0  0  0  0  0  0  0  0  0  0  0  0
   39.3780   25.5050   42.4760 C   0  0  0  0  0  0  0  0  0  0  0  0
   38.8570   24.2270   42.4640 C   0  0  0  0  0  0  0  0  0  0  0  0
   37.5130   24.3380   42.2510 N   0  0  0  0  0  0  0  0  0  0  0  0
   37.2210   25.6500   42.1360 C   0  0  0  0  0  0  0  0  0  0  0  0
   35.4313   30.3840   41.8835 H   0  0  0  0  0  0  0  0  0  0  0  0
   36.4843   31.6417   41.1532 H   0  0  0  0  0  0  0  0  0  0  0  0
   34.3411   28.7003   40.3815 H   0  0  0  0  0  0  0  0  0  0  0  0
   37.6625   30.7843   35.1213 H   0  0  0  0  0  0  0  0  0  0  0  0
   39.4632   32.7784   37.5121 H   0  0  0  0  0  0  0  0  0  0  0  0
   39.3015   32.3506   35.7877 H   0  0  0  0  0  0  0  0  0  0  0  0
   38.7287   31.5773   42.1258 H   0  0  0  0  0  0  0  0  0  0  0  0
   40.6300   30.1760   42.9620 H   0  0  0  0  0  0  0  0  0  0  0  0
   40.4346   25.7726   42.6245 H   0  0  0  0  0  0  0  0  0  0  0  0
   39.4203   23.2921   42.6007 H   0  0  0  0  0  0  0  0  0  0  0  0
   36.2201   26.0708   41.9594 H   0  0  0  0  0  0  0  0  0  0  0  0
  1 13  1  0
  2  1  1  0
  3  2  1  0
  4  3  2  0
  5  4  1  0
  5 12  2  0
  6  5  1  0
  7  6  2  0
  8  6  1  0
  8  9  1  0
  9 11  2  0
 10  9  1  0
 11 12  1  0
 12  2  1  0
 13 18  1  0
 13 14  2  0
 14 15  1  0
 15 16  2  0
 17 19  1  0
 17 16  1  0
 18 17  2  0
 19 20  1  0
 21 20  2  0
 22 21  1  0
 23 22  2  0
 23 19  1  0
  1 24  1  0
  1 25  1  0
  3 26  1  0
  8 27  1  0
 10 28  1  0
 10 29  1  0
 14 30  1  0
 15 31  1  0
 20 32  1  0
 21 33  1  0
 23 34  1  0
M  ISO  8  24   8  25   8  26  14  27   9  30  14  31  14  32  14  33  14
M  ISO  1  34  14
M  END
>  <minimizedAffinity>  (1) 
-6.11758423

>  <minimizedRMSD>  (1) 
1.32192254

$$$$
