
     RDKit          3D

 35 38  0  0  0  0  0  0  0  0999 V2000
   36.2770   30.7530   41.1810 C   0  0  0  0  0  0  0  0  0  0  0  0
   35.9550   30.1790   39.8760 N   0  0  0  0  0  0  0  0  0  0  0  0
   34.9960   29.2630   39.6400 C   0  0  0  0  0  0  0  0  0  0  0  0
   34.9770   28.9640   38.3300 N   0  0  0  0  0  0  0  0  0  0  0  0
   35.9240   29.6840   37.7020 C   0  0  0  0  0  0  0  0  0  0  0  0
   36.3480   29.7810   36.3730 C   0  0  0  0  0  0  0  0  0  0  0  0
   35.7590   29.0680   35.5390 O   0  0  0  0  0  0  0  0  0  0  0  0
   37.3670   30.6380   36.0780 N   0  0  0  0  0  0  0  0  0  0  0  0
   37.9460   31.3690   37.0460 C   0  0  0  0  0  0  0  0  0  0  0  0
   39.0080   32.2550   36.6970 N   0  0  0  0  0  0  0  0  0  0  0  0
   37.5360   31.2770   38.3370 N   0  0  0  0  0  0  0  0  0  0  0  0
   36.5360   30.4470   38.6800 C   0  0  0  0  0  0  0  0  0  0  0  0
   37.4780   30.0880   41.7000 C   0  0  0  0  0  0  0  0  0  0  0  0
   38.6440   30.7680   42.1010 C   0  0  0  0  0  0  0  0  0  0  0  0
   39.7220   30.0490   42.5770 C   0  0  0  0  0  0  0  0  0  0  0  0
   39.6050   28.6600   42.6390 N   0  0  0  0  0  0  0  0  0  0  0  0
   38.4730   28.0680   42.2440 C   0  0  0  0  0  0  0  0  0  0  0  0
   37.4270   28.7360   41.7840 N   0  0  0  0  0  0  0  0  0  0  0  0
   38.4020   26.6030   42.3300 C   0  0  0  0  0  0  0  0  0  0  0  0
   37.2490   25.9270   41.9800 C   0  0  0  0  0  0  0  0  0  0  0  0
   37.1150   24.5450   42.0380 C   0  0  0  0  0  0  0  0  0  0  0  0
   38.2020   23.8460   42.4670 N   0  0  0  0  0  0  0  0  0  0  0  0
   39.3130   24.5270   42.8020 C   0  0  0  0  0  0  0  0  0  0  0  0
   39.4740   25.8810   42.7550 N   0  0  0  0  0  0  0  0  0  0  0  0
   35.4370   30.5946   41.8733 H   0  0  0  0  0  0  0  0  0  0  0  0
   36.4579   31.8336   41.0826 H   0  0  0  0  0  0  0  0  0  0  0  0
   34.3318   28.8275   40.4011 H   0  0  0  0  0  0  0  0  0  0  0  0
   37.6955   30.7258   35.1057 H   0  0  0  0  0  0  0  0  0  0  0  0
   39.4644   32.8236   37.4245 H   0  0  0  0  0  0  0  0  0  0  0  0
   39.3185   32.3262   35.7175 H   0  0  0  0  0  0  0  0  0  0  0  0
   38.6955   31.8648   42.0354 H   0  0  0  0  0  0  0  0  0  0  0  0
   40.6445   30.5553   42.8974 H   0  0  0  0  0  0  0  0  0  0  0  0
   36.3870   26.5170   41.6354 H   0  0  0  0  0  0  0  0  0  0  0  0
   36.1795   24.0419   41.7522 H   0  0  0  0  0  0  0  0  0  0  0  0
   40.1739   23.9355   43.1468 H   0  0  0  0  0  0  0  0  0  0  0  0
  1 13  1  0
  2  1  1  0
  3  2  1  0
  4  3  2  0
  5  4  1  0
  5 12  2  0
  6  5  1  0
  7  6  2  0
  8  6  1  0
  8  9  1  0
  9 11  2  0
 10  9  1  0
 11 12  1  0
 12  2  1  0
 13 18  1  0
 13 14  2  0
 14 15  1  0
 15 16  2  0
 17 19  1  0
 17 16  1  0
 18 17  2  0
 19 24  2  0
 20 21  2  0
 20 19  1  0
 21 22  1  0
 22 23  2  0
 24 23  1  0
  1 25  1  0
  1 26  1  0
  3 27  1  0
  8 28  1  0
 10 29  1  0
 10 30  1  0
 14 31  1  0
 15 32  1  0
 20 33  1  0
 21 34  1  0
 23 35  1  0
M  ISO  8  25   8  26   8  27  14  28   9  31  14  32  14  33  14  34  14
M  ISO  1  35  14
M  END
>  <minimizedAffinity>  (1) 
-6.04591942

>  <minimizedRMSD>  (1) 
1.54721224

$$$$
