
     RDKit          3D

 33 36  0  0  0  0  0  0  0  0999 V2000
   36.3230   30.5890   41.1850 C   0  0  0  0  0  0  0  0  0  0  0  0
   35.9680   30.0950   39.8580 N   0  0  0  0  0  0  0  0  0  0  0  0
   34.9750   29.2130   39.6050 C   0  0  0  0  0  0  0  0  0  0  0  0
   34.9240   28.9760   38.2700 N   0  0  0  0  0  0  0  0  0  0  0  0
   35.8730   29.6970   37.6680 C   0  0  0  0  0  0  0  0  0  0  0  0
   36.2850   29.8540   36.3460 C   0  0  0  0  0  0  0  0  0  0  0  0
   35.6470   29.1880   35.4840 O   0  0  0  0  0  0  0  0  0  0  0  0
   37.3160   30.6910   36.0640 N   0  0  0  0  0  0  0  0  0  0  0  0
   37.9280   31.3550   37.0550 C   0  0  0  0  0  0  0  0  0  0  0  0
   39.0110   32.2270   36.7210 N   0  0  0  0  0  0  0  0  0  0  0  0
   37.5360   31.2090   38.3510 N   0  0  0  0  0  0  0  0  0  0  0  0
   36.5250   30.3960   38.6730 C   0  0  0  0  0  0  0  0  0  0  0  0
   37.4840   29.8260   41.6840 C   0  0  0  0  0  0  0  0  0  0  0  0
   38.6060   30.3990   42.2650 C   0  0  0  0  0  0  0  0  0  0  0  0
   39.6360   29.5910   42.6980 C   0  0  0  0  0  0  0  0  0  0  0  0
   39.5070   28.2200   42.5340 N   0  0  0  0  0  0  0  0  0  0  0  0
   38.4030   27.7080   41.9660 C   0  0  0  0  0  0  0  0  0  0  0  0
   37.3970   28.4800   41.5410 N   0  0  0  0  0  0  0  0  0  0  0  0
   38.3170   26.2370   41.8120 C   0  0  0  0  0  0  0  0  0  0  0  0
   39.3410   25.4260   41.3450 C   0  0  0  0  0  0  0  0  0  0  0  0
   38.5730   23.7550   41.4090 S   0  0  0  0  0  0  0  0  0  0  0  0
   36.9520   24.4920   42.0800 C   0  0  0  0  0  0  0  0  0  0  0  0
   37.1860   25.6230   42.1380 N   0  0  0  0  0  0  0  0  0  0  0  0
   35.4717   30.4554   41.8687 H   0  0  0  0  0  0  0  0  0  0  0  0
   36.5754   31.6582   41.1296 H   0  0  0  0  0  0  0  0  0  0  0  0
   34.3149   28.7605   40.3597 H   0  0  0  0  0  0  0  0  0  0  0  0
   37.6276   30.8157   35.0902 H   0  0  0  0  0  0  0  0  0  0  0  0
   39.4990   32.7494   37.4625 H   0  0  0  0  0  0  0  0  0  0  0  0
   39.3030   32.3327   35.7389 H   0  0  0  0  0  0  0  0  0  0  0  0
   38.6735   31.4909   42.3795 H   0  0  0  0  0  0  0  0  0  0  0  0
   40.5358   30.0223   43.1610 H   0  0  0  0  0  0  0  0  0  0  0  0
   40.3529   25.7093   41.0197 H   0  0  0  0  0  0  0  0  0  0  0  0
   36.0211   23.9704   42.3471 H   0  0  0  0  0  0  0  0  0  0  0  0
  1 13  1  0
  2  1  1  0
  3  2  1  0
  4  3  2  0
  5  4  1  0
  5 12  2  0
  6  5  1  0
  7  6  2  0
  8  6  1  0
  8  9  1  0
  9 11  2  0
 10  9  1  0
 11 12  1  0
 12  2  1  0
 13 14  2  0
 14 15  1  0
 16 15  2  0
 17 16  1  0
 18 13  1  0
 18 17  2  0
 19 17  1  0
 19 23  1  0
 20 21  1  0
 20 19  2  0
 21 22  1  0
 22 23  2  0
  1 24  1  0
  1 25  1  0
  3 26  1  0
  8 27  1  0
 10 28  1  0
 10 29  1  0
 14 30  1  0
 15 31  1  0
 20 32  1  0
 22 33  1  0
M  ISO  8  24   8  25   8  26  14  27   9  30  14  31  14  32  14  33  14
M  END
>  <minimizedAffinity>  (1) 
-5.69360304

>  <minimizedRMSD>  (1) 
1.53704691

$$$$
