
     RDKit          3D

 30 32  0  0  0  0  0  0  0  0999 V2000
   36.8190   30.8670   39.4100 N   0  0  0  0  0  0  0  0  0  0  0  0
   36.6170   30.1960   38.2630 C   0  0  0  0  0  0  0  0  0  0  0  0
   36.5610   28.8690   38.5420 N   0  0  0  0  0  0  0  0  0  0  0  0
   36.7260   28.6900   39.8540 C   0  0  0  0  0  0  0  0  0  0  0  0
   36.7600   27.5670   40.6920 C   0  0  0  0  0  0  0  0  0  0  0  0
   36.6080   26.4610   40.1380 O   0  0  0  0  0  0  0  0  0  0  0  0
   36.9500   27.7310   42.0190 N   0  0  0  0  0  0  0  0  0  0  0  0
   37.1070   28.9750   42.5270 C   0  0  0  0  0  0  0  0  0  0  0  0
   37.3100   29.1460   43.9320 N   0  0  0  0  0  0  0  0  0  0  0  0
   37.0760   30.0750   41.7210 N   0  0  0  0  0  0  0  0  0  0  0  0
   36.8880   29.9520   40.3930 C   0  0  0  0  0  0  0  0  0  0  0  0
   36.9340   32.3180   39.5010 C   0  0  0  0  0  0  0  0  0  0  0  0
   38.3510   32.6950   39.3680 C   0  0  0  0  0  0  0  0  0  0  0  0
   39.3060   31.9240   38.7030 C   0  0  0  0  0  0  0  0  0  0  0  0
   40.6150   32.3950   38.6490 C   0  0  0  0  0  0  0  0  0  0  0  0
   40.9010   33.5980   39.2540 N   0  0  0  0  0  0  0  0  0  0  0  0
   39.9450   34.2950   39.8780 C   0  0  0  0  0  0  0  0  0  0  0  0
   38.6930   33.8820   39.9510 N   0  0  0  0  0  0  0  0  0  0  0  0
   40.3270   35.5620   40.4960 C   0  0  0  0  0  0  0  0  0  0  0  0
   39.8430   36.6710   40.1590 O   0  0  0  0  0  0  0  0  0  0  0  0
   41.2470   35.7070   41.5060 O   0  0  0  0  0  0  0  0  0  0  0  0
   36.5142   30.6470   37.2650 H   0  0  0  0  0  0  0  0  0  0  0  0
   36.9753   26.9115   42.6424 H   0  0  0  0  0  0  0  0  0  0  0  0
   37.4301   30.0910   44.3237 H   0  0  0  0  0  0  0  0  0  0  0  0
   37.3362   28.3242   44.5523 H   0  0  0  0  0  0  0  0  0  0  0  0
   36.3505   32.7857   38.6943 H   0  0  0  0  0  0  0  0  0  0  0  0
   36.5472   32.6617   40.4717 H   0  0  0  0  0  0  0  0  0  0  0  0
   39.0311   30.9681   38.2333 H   0  0  0  0  0  0  0  0  0  0  0  0
   41.4005   31.8206   38.1361 H   0  0  0  0  0  0  0  0  0  0  0  0
   41.4468   36.6064   41.8682 H   0  0  0  0  0  0  0  0  0  0  0  0
  1 12  1  0
  1 11  1  0
  2  3  2  0
  2  1  1  0
  3  4  1  0
  4 11  2  0
  4  5  1  0
  5  7  1  0
  6  5  2  0
  7  8  1  0
  8  9  1  0
 10  8  2  0
 11 10  1  0
 13 12  1  0
 13 18  1  0
 14 13  2  0
 15 14  1  0
 15 16  2  0
 16 17  1  0
 17 18  2  0
 17 19  1  0
 19 21  1  0
 20 19  2  0
  2 22  1  0
  7 23  1  0
  9 24  1  0
  9 25  1  0
 12 26  1  0
 12 27  1  0
 14 28  1  0
 15 29  1  0
 21 30  1  0
M  ISO  7  22  14  23   9  26   8  27   8  28  14  29  14  30   3
M  END
>  <minimizedAffinity>  (1) 
-5.64619541

>  <minimizedRMSD>  (1) 
6.39833784

$$$$
