
     RDKit          3D

 28 30  0  0  0  0  0  0  0  0999 V2000
   35.9730   30.1920   39.9130 N   0  0  0  0  0  0  0  0  0  0  0  0
   35.0610   29.2120   39.7720 C   0  0  0  0  0  0  0  0  0  0  0  0
   35.0140   28.8350   38.4770 N   0  0  0  0  0  0  0  0  0  0  0  0
   35.8950   29.5700   37.7750 C   0  0  0  0  0  0  0  0  0  0  0  0
   36.2660   29.6140   36.4370 C   0  0  0  0  0  0  0  0  0  0  0  0
   35.6910   28.8220   35.6640 O   0  0  0  0  0  0  0  0  0  0  0  0
   37.2210   30.5020   36.0450 N   0  0  0  0  0  0  0  0  0  0  0  0
   37.7900   31.3200   36.9460 C   0  0  0  0  0  0  0  0  0  0  0  0
   38.7870   32.2460   36.5230 N   0  0  0  0  0  0  0  0  0  0  0  0
   37.4360   31.2860   38.2540 N   0  0  0  0  0  0  0  0  0  0  0  0
   36.4910   30.4170   38.6870 C   0  0  0  0  0  0  0  0  0  0  0  0
   36.2970   30.8470   41.1740 C   0  0  0  0  0  0  0  0  0  0  0  0
   37.4900   30.2210   41.7460 C   0  0  0  0  0  0  0  0  0  0  0  0
   38.8030   30.6660   41.5200 C   0  0  0  0  0  0  0  0  0  0  0  0
   39.8580   29.9990   42.1130 C   0  0  0  0  0  0  0  0  0  0  0  0
   39.5660   28.9020   42.9160 N   0  0  0  0  0  0  0  0  0  0  0  0
   38.2840   28.5140   43.1010 C   0  0  0  0  0  0  0  0  0  0  0  0
   37.2590   29.1450   42.5400 N   0  0  0  0  0  0  0  0  0  0  0  0
   38.1040   27.3940   43.9310 O   0  0  0  0  0  0  0  0  0  0  0  0
   34.4514   28.7864   40.5828 H   0  0  0  0  0  0  0  0  0  0  0  0
   37.5074   30.5466   35.0566 H   0  0  0  0  0  0  0  0  0  0  0  0
   39.2280   32.8765   37.2078 H   0  0  0  0  0  0  0  0  0  0  0  0
   39.0667   32.2848   35.5325 H   0  0  0  0  0  0  0  0  0  0  0  0
   36.4911   31.9149   40.9952 H   0  0  0  0  0  0  0  0  0  0  0  0
   35.4535   30.7443   41.8725 H   0  0  0  0  0  0  0  0  0  0  0  0
   38.9899   31.5382   40.8763 H   0  0  0  0  0  0  0  0  0  0  0  0
   40.8964   30.3257   41.9547 H   0  0  0  0  0  0  0  0  0  0  0  0
   37.1922   27.0531   44.1116 H   0  0  0  0  0  0  0  0  0  0  0  0
  1 12  1  0
  2  1  1  0
  3  2  2  0
  4  3  1  0
  4 11  2  0
  5  4  1  0
  6  5  2  0
  7  5  1  0
  7  8  1  0
  8 10  2  0
  9  8  1  0
 10 11  1  0
 11  1  1  0
 12 13  1  0
 13 18  1  0
 14 13  2  0
 14 15  1  0
 15 16  2  0
 16 17  1  0
 17 19  1  0
 18 17  2  0
  2 20  1  0
  7 21  1  0
  9 22  1  0
  9 23  1  0
 12 24  1  0
 12 25  1  0
 14 26  1  0
 15 27  1  0
 19 28  1  0
M  ISO  7  20  14  21   9  24   8  25   8  26  14  27  14  28   3
M  END
>  <minimizedAffinity>  (1) 
-5.36208677

>  <minimizedRMSD>  (1) 
1.05734086

$$$$
