
     RDKit          3D

 28 30  0  0  0  0  0  0  0  0999 V2000
   35.9680   30.0680   39.8950 N   0  0  0  0  0  0  0  0  0  0  0  0
   34.9990   29.1670   39.6380 C   0  0  0  0  0  0  0  0  0  0  0  0
   34.9810   28.9240   38.3140 N   0  0  0  0  0  0  0  0  0  0  0  0
   35.9210   29.6560   37.7100 C   0  0  0  0  0  0  0  0  0  0  0  0
   36.3390   29.7990   36.3820 C   0  0  0  0  0  0  0  0  0  0  0  0
   35.7330   29.1170   35.5280 O   0  0  0  0  0  0  0  0  0  0  0  0
   37.3630   30.6600   36.0980 N   0  0  0  0  0  0  0  0  0  0  0  0
   37.9460   31.3440   37.0930 C   0  0  0  0  0  0  0  0  0  0  0  0
   39.0210   32.2430   36.7760 N   0  0  0  0  0  0  0  0  0  0  0  0
   37.5490   31.2110   38.3820 N   0  0  0  0  0  0  0  0  0  0  0  0
   36.5390   30.3730   38.7140 C   0  0  0  0  0  0  0  0  0  0  0  0
   36.3000   30.5890   41.2220 C   0  0  0  0  0  0  0  0  0  0  0  0
   37.4560   29.8450   41.7530 C   0  0  0  0  0  0  0  0  0  0  0  0
   38.6540   30.4320   42.1480 C   0  0  0  0  0  0  0  0  0  0  0  0
   39.6590   29.6140   42.6290 C   0  0  0  0  0  0  0  0  0  0  0  0
   39.4360   28.2460   42.7000 N   0  0  0  0  0  0  0  0  0  0  0  0
   38.2620   27.7330   42.3060 C   0  0  0  0  0  0  0  0  0  0  0  0
   37.2830   28.4960   41.8420 N   0  0  0  0  0  0  0  0  0  0  0  0
   38.0810   25.9620   42.4380 S   0  0  0  0  0  0  0  0  0  0  0  0
   34.3346   28.7075   40.3846 H   0  0  0  0  0  0  0  0  0  0  0  0
   37.6840   30.7821   35.1269 H   0  0  0  0  0  0  0  0  0  0  0  0
   39.4827   32.7782   37.5252 H   0  0  0  0  0  0  0  0  0  0  0  0
   39.3299   32.3523   35.7995 H   0  0  0  0  0  0  0  0  0  0  0  0
   36.5517   31.6572   41.1467 H   0  0  0  0  0  0  0  0  0  0  0  0
   35.4386   30.4682   41.8954 H   0  0  0  0  0  0  0  0  0  0  0  0
   38.7978   31.5204   42.0792 H   0  0  0  0  0  0  0  0  0  0  0  0
   40.6206   30.0406   42.9505 H   0  0  0  0  0  0  0  0  0  0  0  0
   38.0444   25.6040   43.7599 H   0  0  0  0  0  0  0  0  0  0  0  0
  1 12  1  0
  2  1  1  0
  3  2  2  0
  4  3  1  0
  4 11  2  0
  5  4  1  0
  6  5  2  0
  7  5  1  0
  7  8  1  0
  8 10  2  0
  9  8  1  0
 10 11  1  0
 11  1  1  0
 12 13  1  0
 13 18  1  0
 13 14  2  0
 14 15  1  0
 15 16  2  0
 17 19  1  0
 17 16  1  0
 18 17  2  0
  2 20  1  0
  7 21  1  0
  9 22  1  0
  9 23  1  0
 12 24  1  0
 12 25  1  0
 14 26  1  0
 15 27  1  0
 19 28  1  0
M  ISO  7  20  14  21   9  24   8  25   8  26  14  27  14  28  11
M  END
>  <minimizedAffinity>  (1) 
-5.13686562

>  <minimizedRMSD>  (1) 
0.806746721

$$$$
