
     RDKit          3D

 28 30  0  0  0  0  0  0  0  0999 V2000
   36.3380   28.0810   40.6940 C   0  0  0  0  0  0  0  0  0  0  0  0
   35.5410   29.2050   40.7540 C   0  0  0  0  0  0  0  0  0  0  0  0
   34.7930   29.1670   39.6130 C   0  0  0  0  0  0  0  0  0  0  0  0
   35.1120   28.0720   38.8860 N   0  0  0  0  0  0  0  0  0  0  0  0
   36.0710   27.3910   39.5480 N   0  0  0  0  0  0  0  0  0  0  0  0
   38.5190   27.0910   41.4460 C   0  0  0  0  0  0  0  0  0  0  0  0
   37.3050   27.7050   41.7020 C   0  0  0  0  0  0  0  0  0  0  0  0
   36.9840   27.9830   43.0490 C   0  0  0  0  0  0  0  0  0  0  0  0
   37.9000   27.6240   44.0030 N   0  0  0  0  0  0  0  0  0  0  0  0
   39.0800   27.0210   43.6840 C   0  0  0  0  0  0  0  0  0  0  0  0
   39.3930   26.7500   42.3680 N   0  0  0  0  0  0  0  0  0  0  0  0
   34.4950   27.7340   37.6110 C   0  0  0  0  0  0  0  0  0  0  0  0
   35.1950   28.3140   36.4560 C   0  0  0  0  0  0  0  0  0  0  0  0
   36.5400   28.0230   36.2320 C   0  0  0  0  0  0  0  0  0  0  0  0
   37.1850   28.5660   35.1560 C   0  0  0  0  0  0  0  0  0  0  0  0
   36.5330   29.3710   34.3180 N   0  0  0  0  0  0  0  0  0  0  0  0
   35.2320   29.6520   34.5330 C   0  0  0  0  0  0  0  0  0  0  0  0
   34.5650   29.1350   35.5840 N   0  0  0  0  0  0  0  0  0  0  0  0
   35.5141   29.9659   41.5480 H   0  0  0  0  0  0  0  0  0  0  0  0
   34.0410   29.9170   39.3267 H   0  0  0  0  0  0  0  0  0  0  0  0
   38.7705   26.8729   40.3976 H   0  0  0  0  0  0  0  0  0  0  0  0
   36.0355   28.4688   43.3218 H   0  0  0  0  0  0  0  0  0  0  0  0
   39.7874   26.7486   44.4811 H   0  0  0  0  0  0  0  0  0  0  0  0
   34.4916   26.6392   37.5038 H   0  0  0  0  0  0  0  0  0  0  0  0
   33.4776   28.1521   37.6197 H   0  0  0  0  0  0  0  0  0  0  0  0
   37.0814   27.3573   36.9202 H   0  0  0  0  0  0  0  0  0  0  0  0
   38.2467   28.3374   34.9812 H   0  0  0  0  0  0  0  0  0  0  0  0
   34.7032   30.3179   33.8352 H   0  0  0  0  0  0  0  0  0  0  0  0
  1  2  1  0
  1  7  1  0
  3  2  2  0
  4  5  1  0
  4  3  1  0
  5  1  2  0
  6  7  2  0
  6 11  1  0
  7  8  1  0
  8  9  2  0
 10  9  1  0
 11 10  2  0
 12  4  1  0
 13 12  1  0
 14 13  2  0
 15 14  1  0
 16 17  1  0
 16 15  2  0
 17 18  2  0
 18 13  1  0
  2 19  1  0
  3 20  1  0
  6 21  1  0
  8 22  1  0
 10 23  1  0
 12 24  1  0
 12 25  1  0
 14 26  1  0
 15 27  1  0
 17 28  1  0
M  ISO  8  19  14  20  14  21  14  22  14  23  14  24   8  25   8  26  14
M  ISO  2  27  14  28  14
M  END
>  <minimizedAffinity>  (1) 
-3.88786101

>  <minimizedRMSD>  (1) 
6.28637505

$$$$
