
     RDKit          3D

 38 41  0  0  0  0  0  0  0  0999 V2000
   36.3040   30.7900   41.1830 C   0  0  0  0  0  0  0  0  0  0  0  0
   35.9740   30.1740   39.9090 N   0  0  0  0  0  0  0  0  0  0  0  0
   35.0360   29.2140   39.7420 C   0  0  0  0  0  0  0  0  0  0  0  0
   34.9940   28.8730   38.4400 N   0  0  0  0  0  0  0  0  0  0  0  0
   35.8900   29.5970   37.7600 C   0  0  0  0  0  0  0  0  0  0  0  0
   36.2730   29.6660   36.4240 C   0  0  0  0  0  0  0  0  0  0  0  0
   35.6790   28.9020   35.6380 O   0  0  0  0  0  0  0  0  0  0  0  0
   37.2470   30.5360   36.0510 N   0  0  0  0  0  0  0  0  0  0  0  0
   37.8270   31.3180   36.9710 C   0  0  0  0  0  0  0  0  0  0  0  0
   38.8520   32.2350   36.5820 N   0  0  0  0  0  0  0  0  0  0  0  0
   37.4670   31.2660   38.2790 N   0  0  0  0  0  0  0  0  0  0  0  0
   36.5040   30.4150   38.6960 C   0  0  0  0  0  0  0  0  0  0  0  0
   37.5190   30.1800   41.7150 C   0  0  0  0  0  0  0  0  0  0  0  0
   38.7830   30.7870   41.6820 C   0  0  0  0  0  0  0  0  0  0  0  0
   39.8700   30.1220   42.2150 C   0  0  0  0  0  0  0  0  0  0  0  0
   39.6530   28.8690   42.7640 N   0  0  0  0  0  0  0  0  0  0  0  0
   38.4230   28.3320   42.7710 C   0  0  0  0  0  0  0  0  0  0  0  0
   37.3670   28.9420   42.2710 N   0  0  0  0  0  0  0  0  0  0  0  0
   38.2990   27.0480   43.3530 O   0  0  0  0  0  0  0  0  0  0  0  0
   38.1730   25.9150   42.5830 C   0  0  0  0  0  0  0  0  0  0  0  0
   39.3020   25.2980   42.1000 C   0  0  0  0  0  0  0  0  0  0  0  0
   39.1280   24.1630   41.3320 C   0  0  0  0  0  0  0  0  0  0  0  0
   37.8630   23.6620   41.0580 C   0  0  0  0  0  0  0  0  0  0  0  0
   36.7390   24.2960   41.5540 C   0  0  0  0  0  0  0  0  0  0  0  0
   36.9140   25.4240   42.3170 C   0  0  0  0  0  0  0  0  0  0  0  0
   35.4759   30.6365   41.8906 H   0  0  0  0  0  0  0  0  0  0  0  0
   36.4663   31.8684   41.0392 H   0  0  0  0  0  0  0  0  0  0  0  0
   34.4109   28.7831   40.5380 H   0  0  0  0  0  0  0  0  0  0  0  0
   37.5385   30.5942   35.0648 H   0  0  0  0  0  0  0  0  0  0  0  0
   39.2993   32.8372   37.2878 H   0  0  0  0  0  0  0  0  0  0  0  0
   39.1434   32.2936   35.5958 H   0  0  0  0  0  0  0  0  0  0  0  0
   38.9076   31.7845   41.2353 H   0  0  0  0  0  0  0  0  0  0  0  0
   40.8736   30.5721   42.2039 H   0  0  0  0  0  0  0  0  0  0  0  0
   40.3056   25.6927   42.3166 H   0  0  0  0  0  0  0  0  0  0  0  0
   40.0109   23.6452   40.9290 H   0  0  0  0  0  0  0  0  0  0  0  0
   37.7542   22.7563   40.4433 H   0  0  0  0  0  0  0  0  0  0  0  0
   35.7318   23.9073   41.3431 H   0  0  0  0  0  0  0  0  0  0  0  0
   36.0338   25.9443   42.7227 H   0  0  0  0  0  0  0  0  0  0  0  0
  1 13  1  0
  2  1  1  0
  3  2  1  0
  4  3  2  0
  5  4  1  0
  5 12  2  0
  6  5  1  0
  7  6  2  0
  8  6  1  0
  8  9  1  0
  9 11  2  0
 10  9  1  0
 11 12  1  0
 12  2  1  0
 13 18  1  0
 14 13  2  0
 14 15  1  0
 15 16  2  0
 16 17  1  0
 17 19  1  0
 18 17  2  0
 20 19  1  0
 21 20  2  0
 22 21  1  0
 23 22  2  0
 23 24  1  0
 24 25  2  0
 25 20  1  0
  1 26  1  0
  1 27  1  0
  3 28  1  0
  8 29  1  0
 10 30  1  0
 10 31  1  0
 14 32  1  0
 15 33  1  0
 21 34  1  0
 22 35  1  0
 23 36  1  0
 24 37  1  0
 25 38  1  0
M  ISO  8  26   8  27   8  28  14  29   9  32  14  33  14  34  14  35  14
M  ISO  3  36  14  37  14  38  14
M  END
>  <minimizedAffinity>  (1) 
-6.48016453

>  <minimizedRMSD>  (1) 
2.17692256

$$$$
