
     RDKit          3D

 42 46  0  0  0  0  0  0  0  0999 V2000
   37.3890   30.5880   41.5470 C   0  0  0  0  0  0  0  0  0  0  0  0
   38.5350   31.3650   41.3440 C   0  0  0  0  0  0  0  0  0  0  0  0
   39.7310   30.9800   41.9090 C   0  0  0  0  0  0  0  0  0  0  0  0
   39.7360   29.8150   42.6690 N   0  0  0  0  0  0  0  0  0  0  0  0
   38.6130   29.0990   42.8390 C   0  0  0  0  0  0  0  0  0  0  0  0
   37.4550   29.4540   42.3040 N   0  0  0  0  0  0  0  0  0  0  0  0
   36.0610   30.9000   40.9950 C   0  0  0  0  0  0  0  0  0  0  0  0
   35.8550   30.1260   39.7840 N   0  0  0  0  0  0  0  0  0  0  0  0
   35.0760   29.0280   39.6990 C   0  0  0  0  0  0  0  0  0  0  0  0
   35.1080   28.5600   38.4400 N   0  0  0  0  0  0  0  0  0  0  0  0
   35.9070   29.3520   37.7010 C   0  0  0  0  0  0  0  0  0  0  0  0
   36.3000   29.3440   36.3590 C   0  0  0  0  0  0  0  0  0  0  0  0
   35.8490   28.4380   35.6470 O   0  0  0  0  0  0  0  0  0  0  0  0
   37.1480   30.3230   35.9170 N   0  0  0  0  0  0  0  0  0  0  0  0
   37.5870   31.2650   36.7600 C   0  0  0  0  0  0  0  0  0  0  0  0
   38.4650   32.2790   36.3000 N   0  0  0  0  0  0  0  0  0  0  0  0
   37.2060   31.2740   38.0620 N   0  0  0  0  0  0  0  0  0  0  0  0
   36.3700   30.3290   38.5480 C   0  0  0  0  0  0  0  0  0  0  0  0
   38.7200   27.9420   43.6210 O   0  0  0  0  0  0  0  0  0  0  0  0
   39.5660   26.9140   43.2990 C   0  0  0  0  0  0  0  0  0  0  0  0
   39.0870   25.8390   42.5630 C   0  0  0  0  0  0  0  0  0  0  0  0
   40.0970   24.9640   42.3740 N   0  0  0  0  0  0  0  0  0  0  0  0
   41.1880   25.4790   42.9810 C   0  0  0  0  0  0  0  0  0  0  0  0
   42.4910   24.9870   43.0890 C   0  0  0  0  0  0  0  0  0  0  0  0
   43.4050   25.7530   43.7830 C   0  0  0  0  0  0  0  0  0  0  0  0
   43.0900   26.9680   44.3650 C   0  0  0  0  0  0  0  0  0  0  0  0
   41.7900   27.4620   44.2570 C   0  0  0  0  0  0  0  0  0  0  0  0
   40.9010   26.6790   43.5620 C   0  0  0  0  0  0  0  0  0  0  0  0
   38.4811   32.2798   40.7355 H   0  0  0  0  0  0  0  0  0  0  0  0
   40.6472   31.5714   41.7646 H   0  0  0  0  0  0  0  0  0  0  0  0
   35.2862   30.6432   41.7324 H   0  0  0  0  0  0  0  0  0  0  0  0
   35.9994   31.9735   40.7631 H   0  0  0  0  0  0  0  0  0  0  0  0
   34.5051   28.5859   40.5288 H   0  0  0  0  0  0  0  0  0  0  0  0
   37.4494   30.3348   34.9321 H   0  0  0  0  0  0  0  0  0  0  0  0
   38.8015   33.0030   36.9508 H   0  0  0  0  0  0  0  0  0  0  0  0
   38.7662   32.2916   35.3151 H   0  0  0  0  0  0  0  0  0  0  0  0
   38.0570   25.7202   42.1955 H   0  0  0  0  0  0  0  0  0  0  0  0
   40.0454   24.0712   41.8629 H   0  0  0  0  0  0  0  0  0  0  0  0
   42.7774   24.0255   42.6379 H   0  0  0  0  0  0  0  0  0  0  0  0
   44.4351   25.3792   43.8783 H   0  0  0  0  0  0  0  0  0  0  0  0
   43.8576   27.5391   44.9078 H   0  0  0  0  0  0  0  0  0  0  0  0
   41.4939   28.4231   44.7027 H   0  0  0  0  0  0  0  0  0  0  0  0
  1  6  1  0
  2  1  2  0
  2  3  1  0
  3  4  2  0
  4  5  1  0
  5 19  1  0
  6  5  2  0
  7  1  1  0
  8  7  1  0
  9  8  1  0
 10  9  2  0
 11 10  1  0
 11 18  2  0
 12 11  1  0
 13 12  2  0
 14 12  1  0
 14 15  1  0
 15 17  2  0
 16 15  1  0
 17 18  1  0
 18  8  1  0
 20 28  1  0
 20 19  1  0
 21 20  2  0
 22 21  1  0
 22 23  1  0
 23 24  2  0
 23 28  1  0
 24 25  1  0
 25 26  2  0
 27 26  1  0
 28 27  2  0
  2 29  1  0
  3 30  1  0
  7 31  1  0
  7 32  1  0
  9 33  1  0
 14 34  1  0
 16 35  1  0
 16 36  1  0
 21 37  1  0
 22 38  1  0
 24 39  1  0
 25 40  1  0
 26 41  1  0
 27 42  1  0
M  ISO  8  29  14  30  14  31   8  32   8  33  14  34   9  37  14  38   9
M  ISO  4  39  14  40  14  41  14  42  14
M  END
>  <minimizedAffinity>  (1) 
-6.33232069

>  <minimizedRMSD>  (1) 
1.49318981

$$$$
