
     RDKit          3D

 35 38  0  0  0  0  0  0  0  0999 V2000
   36.2700   30.8770   41.1590 C   0  0  0  0  0  0  0  0  0  0  0  0
   35.9450   30.1890   39.9170 N   0  0  0  0  0  0  0  0  0  0  0  0
   35.0560   29.1810   39.8200 C   0  0  0  0  0  0  0  0  0  0  0  0
   34.9950   28.7750   38.5410 N   0  0  0  0  0  0  0  0  0  0  0  0
   35.8450   29.5150   37.8020 C   0  0  0  0  0  0  0  0  0  0  0  0
   36.1880   29.5370   36.4520 C   0  0  0  0  0  0  0  0  0  0  0  0
   35.6190   28.7140   35.7160 O   0  0  0  0  0  0  0  0  0  0  0  0
   37.1110   30.4420   36.0240 N   0  0  0  0  0  0  0  0  0  0  0  0
   37.6760   31.2960   36.8970 C   0  0  0  0  0  0  0  0  0  0  0  0
   38.6330   32.2290   36.4340 N   0  0  0  0  0  0  0  0  0  0  0  0
   37.3470   31.2810   38.2060 N   0  0  0  0  0  0  0  0  0  0  0  0
   36.4310   30.3970   38.6830 C   0  0  0  0  0  0  0  0  0  0  0  0
   37.5100   30.3250   41.7070 C   0  0  0  0  0  0  0  0  0  0  0  0
   38.7790   30.8620   41.4590 C   0  0  0  0  0  0  0  0  0  0  0  0
   39.8890   30.2680   42.0210 C   0  0  0  0  0  0  0  0  0  0  0  0
   39.6870   29.1410   42.8240 N   0  0  0  0  0  0  0  0  0  0  0  0
   38.4380   28.6630   43.0320 C   0  0  0  0  0  0  0  0  0  0  0  0
   37.3660   29.2280   42.4940 N   0  0  0  0  0  0  0  0  0  0  0  0
   38.3460   27.5290   43.8520 O   0  0  0  0  0  0  0  0  0  0  0  0
   38.8300   26.3330   43.3390 C   0  0  0  0  0  0  0  0  0  0  0  0
   39.9700   25.6530   43.7150 C   0  0  0  0  0  0  0  0  0  0  0  0
   40.0040   24.5180   42.8980 C   0  0  0  0  0  0  0  0  0  0  0  0
   38.9210   24.5430   42.0820 N   0  0  0  0  0  0  0  0  0  0  0  0
   38.2300   25.6460   42.3650 N   0  0  0  0  0  0  0  0  0  0  0  0
   35.4534   30.7353   41.8822 H   0  0  0  0  0  0  0  0  0  0  0  0
   36.4000   31.9514   40.9622 H   0  0  0  0  0  0  0  0  0  0  0  0
   34.4746   28.7591   40.6530 H   0  0  0  0  0  0  0  0  0  0  0  0
   37.3774   30.4729   35.0295 H   0  0  0  0  0  0  0  0  0  0  0  0
   39.0716   32.8872   37.0937 H   0  0  0  0  0  0  0  0  0  0  0  0
   38.8912   32.2502   35.4371 H   0  0  0  0  0  0  0  0  0  0  0  0
   38.8895   31.7510   40.8207 H   0  0  0  0  0  0  0  0  0  0  0  0
   40.8987   30.6668   41.8439 H   0  0  0  0  0  0  0  0  0  0  0  0
   40.6956   25.9411   44.4899 H   0  0  0  0  0  0  0  0  0  0  0  0
   40.7784   23.7370   42.9146 H   0  0  0  0  0  0  0  0  0  0  0  0
   38.6772   23.8373   41.3724 H   0  0  0  0  0  0  0  0  0  0  0  0
  1 13  1  0
  2  1  1  0
  3  2  1  0
  4  3  2  0
  5  4  1  0
  5 12  2  0
  6  5  1  0
  7  6  2  0
  8  6  1  0
  8  9  1  0
  9 11  2  0
 10  9  1  0
 11 12  1  0
 12  2  1  0
 13 18  1  0
 14 13  2  0
 14 15  1  0
 15 16  2  0
 16 17  1  0
 17 19  1  0
 18 17  2  0
 20 21  1  0
 20 19  1  0
 22 21  2  0
 23 24  1  0
 23 22  1  0
 24 20  2  0
  1 25  1  0
  1 26  1  0
  3 27  1  0
  8 28  1  0
 10 29  1  0
 10 30  1  0
 14 31  1  0
 15 32  1  0
 21 33  1  0
 22 34  1  0
 23 35  1  0
M  ISO  8  25   8  26   8  27  14  28   9  31  14  32  14  33  14  34  14
M  ISO  1  35   9
M  END
>  <minimizedAffinity>  (1) 
-6.09245634

>  <minimizedRMSD>  (1) 
1.24586082

$$$$
