
     RDKit          3D

 33 35  0  0  0  0  0  0  0  0999 V2000
   36.8110   25.9340   40.5910 C   0  0  0  0  0  0  0  0  0  0  0  0
   36.5180   26.2320   39.2690 C   0  0  0  0  0  0  0  0  0  0  0  0
   36.2280   25.0220   38.7020 C   0  0  0  0  0  0  0  0  0  0  0  0
   36.3370   24.0340   39.6240 N   0  0  0  0  0  0  0  0  0  0  0  0
   36.6970   24.5900   40.7970 N   0  0  0  0  0  0  0  0  0  0  0  0
   37.8970   26.6430   42.7540 C   0  0  0  0  0  0  0  0  0  0  0  0
   37.1770   26.9340   41.5850 C   0  0  0  0  0  0  0  0  0  0  0  0
   36.7730   28.2660   41.3490 C   0  0  0  0  0  0  0  0  0  0  0  0
   37.1110   29.2030   42.2830 N   0  0  0  0  0  0  0  0  0  0  0  0
   37.8240   28.8520   43.4160 C   0  0  0  0  0  0  0  0  0  0  0  0
   38.2100   27.5680   43.6370 N   0  0  0  0  0  0  0  0  0  0  0  0
   36.0840   22.6620   39.2990 C   0  0  0  0  0  0  0  0  0  0  0  0
   34.6630   22.5310   38.8020 C   0  0  0  0  0  0  0  0  0  0  0  0
   33.6410   22.7930   39.8630 C   0  0  0  0  0  0  0  0  0  0  0  0
   32.4130   22.0940   39.3290 C   0  0  0  0  0  0  0  0  0  0  0  0
   33.0110   20.7510   38.9120 C   0  0  0  0  0  0  0  0  0  0  0  0
   34.3730   21.1190   38.3730 C   0  0  0  0  0  0  0  0  0  0  0  0
   36.5187   27.2198   38.7851 H   0  0  0  0  0  0  0  0  0  0  0  0
   35.9467   24.8718   37.6492 H   0  0  0  0  0  0  0  0  0  0  0  0
   38.2110   25.6051   42.9391 H   0  0  0  0  0  0  0  0  0  0  0  0
   36.2069   28.5389   40.4462 H   0  0  0  0  0  0  0  0  0  0  0  0
   38.0833   29.6274   44.1519 H   0  0  0  0  0  0  0  0  0  0  0  0
   36.7814   22.3337   38.5143 H   0  0  0  0  0  0  0  0  0  0  0  0
   36.2260   22.0351   40.1917 H   0  0  0  0  0  0  0  0  0  0  0  0
   34.5930   23.2651   37.9858 H   0  0  0  0  0  0  0  0  0  0  0  0
   33.9525   22.3644   40.8270 H   0  0  0  0  0  0  0  0  0  0  0  0
   33.4812   23.8639   40.0571 H   0  0  0  0  0  0  0  0  0  0  0  0
   31.6454   21.9718   40.1074 H   0  0  0  0  0  0  0  0  0  0  0  0
   31.8948   22.6334   38.5225 H   0  0  0  0  0  0  0  0  0  0  0  0
   33.1001   20.0758   39.7759 H   0  0  0  0  0  0  0  0  0  0  0  0
   32.3908   20.2175   38.1766 H   0  0  0  0  0  0  0  0  0  0  0  0
   34.3728   21.0527   37.2750 H   0  0  0  0  0  0  0  0  0  0  0  0
   35.1406   20.4318   38.7584 H   0  0  0  0  0  0  0  0  0  0  0  0
  1  5  2  0
  1  7  1  0
  2  1  1  0
  3  2  2  0
  3  4  1  0
  4  5  1  0
  6 11  2  0
  7  6  1  0
  8  7  2  0
  8  9  1  0
  9 10  2  0
 10 11  1  0
 12  4  1  0
 13 12  1  0
 13 14  1  0
 15 14  1  0
 16 15  1  0
 17 13  1  0
 17 16  1  0
  2 18  1  0
  3 19  1  0
  6 20  1  0
  8 21  1  0
 10 22  1  0
 12 23  1  0
 12 24  1  0
 13 25  1  0
 14 26  1  0
 14 27  1  0
 15 28  1  0
 15 29  1  0
 16 30  1  0
 16 31  1  0
 17 32  1  0
 17 33  1  0
M  ISO  8  18  14  19  14  20  14  21  14  22  14  23   8  24   8  25  13
M  ISO  8  26  13  27  13  28  13  29  13  30  13  31  13  32  13  33  13
M  END
>  <minimizedAffinity>  (1) 
-3.83344698

>  <minimizedRMSD>  (1) 
4.02698231

$$$$
