
     RDKit          3D

 31 33  0  0  0  0  0  0  0  0999 V2000
   36.3480   30.7590   41.2120 C   0  0  0  0  0  0  0  0  0  0  0  0
   35.9860   30.1670   39.9270 N   0  0  0  0  0  0  0  0  0  0  0  0
   35.0280   29.2380   39.7440 C   0  0  0  0  0  0  0  0  0  0  0  0
   34.9600   28.9150   38.4360 N   0  0  0  0  0  0  0  0  0  0  0  0
   35.8800   29.6410   37.7590 C   0  0  0  0  0  0  0  0  0  0  0  0
   36.2440   29.7160   36.4280 C   0  0  0  0  0  0  0  0  0  0  0  0
   35.6330   28.9880   35.6260 O   0  0  0  0  0  0  0  0  0  0  0  0
   37.2420   30.5780   36.0790 N   0  0  0  0  0  0  0  0  0  0  0  0
   37.8500   31.3300   37.0140 C   0  0  0  0  0  0  0  0  0  0  0  0
   38.8940   32.2260   36.6270 N   0  0  0  0  0  0  0  0  0  0  0  0
   37.5000   31.2620   38.3190 N   0  0  0  0  0  0  0  0  0  0  0  0
   36.5080   30.4130   38.7020 C   0  0  0  0  0  0  0  0  0  0  0  0
   37.5410   30.0940   41.7200 C   0  0  0  0  0  0  0  0  0  0  0  0
   38.7930   30.7250   41.8980 C   0  0  0  0  0  0  0  0  0  0  0  0
   39.8600   29.9940   42.3880 C   0  0  0  0  0  0  0  0  0  0  0  0
   39.6550   28.6560   42.6890 N   0  0  0  0  0  0  0  0  0  0  0  0
   38.4300   28.1000   42.4980 C   0  0  0  0  0  0  0  0  0  0  0  0
   37.3970   28.7760   42.0330 N   0  0  0  0  0  0  0  0  0  0  0  0
   38.3380   26.7400   42.8360 O   0  0  0  0  0  0  0  0  0  0  0  0
   37.1740   25.9830   42.4780 C   0  0  0  0  0  0  0  0  0  0  0  0
   36.8120   26.2630   41.1590 F   0  0  0  0  0  0  0  0  0  0  0  0
   36.1620   26.3260   43.3180 F   0  0  0  0  0  0  0  0  0  0  0  0
   37.3910   24.6240   42.5770 F   0  0  0  0  0  0  0  0  0  0  0  0
   35.5206   30.6279   41.9249 H   0  0  0  0  0  0  0  0  0  0  0  0
   36.5467   31.8333   41.0841 H   0  0  0  0  0  0  0  0  0  0  0  0
   34.3988   28.8093   40.5379 H   0  0  0  0  0  0  0  0  0  0  0  0
   37.5318   30.6535   35.0935 H   0  0  0  0  0  0  0  0  0  0  0  0
   39.3648   32.8054   37.3366 H   0  0  0  0  0  0  0  0  0  0  0  0
   39.1756   32.2923   35.6385 H   0  0  0  0  0  0  0  0  0  0  0  0
   38.9179   31.7891   41.6488 H   0  0  0  0  0  0  0  0  0  0  0  0
   40.8448   30.4615   42.5350 H   0  0  0  0  0  0  0  0  0  0  0  0
  1 13  1  0
  2  1  1  0
  3  2  1  0
  4  3  2  0
  5  4  1  0
  5 12  2  0
  6  5  1  0
  7  6  2  0
  8  6  1  0
  8  9  1  0
  9 11  2  0
 10  9  1  0
 11 12  1  0
 12  2  1  0
 13 14  2  0
 13 18  1  0
 14 15  1  0
 15 16  2  0
 17 16  1  0
 17 19  1  0
 18 17  2  0
 20 23  1  0
 20 19  1  0
 20 22  1  0
 21 20  1  0
  1 24  1  0
  1 25  1  0
  3 26  1  0
  8 27  1  0
 10 28  1  0
 10 29  1  0
 14 30  1  0
 15 31  1  0
M  ISO  6  24   8  25   8  26  14  27   9  30  14  31  14
M  END
>  <minimizedAffinity>  (1) 
-5.87296486

>  <minimizedRMSD>  (1) 
0.997417867

$$$$
