
     RDKit          3D

 40 43  0  0  1  0  0  0  0  0999 V2000
   36.2850   30.6130   41.2190 C   0  0  0  0  0  0  0  0  0  0  0  0
   35.9750   30.0950   39.8950 N   0  0  0  0  0  0  0  0  0  0  0  0
   35.0080   29.1810   39.6520 C   0  0  0  0  0  0  0  0  0  0  0  0
   34.9800   28.9160   38.3260 N   0  0  0  0  0  0  0  0  0  0  0  0
   35.9260   29.6530   37.7090 C   0  0  0  0  0  0  0  0  0  0  0  0
   36.3390   29.7840   36.3890 C   0  0  0  0  0  0  0  0  0  0  0  0
   35.7450   29.0960   35.5350 O   0  0  0  0  0  0  0  0  0  0  0  0
   37.3620   30.6520   36.1080 N   0  0  0  0  0  0  0  0  0  0  0  0
   37.9450   31.3550   37.0870 C   0  0  0  0  0  0  0  0  0  0  0  0
   39.0030   32.2470   36.7710 N   0  0  0  0  0  0  0  0  0  0  0  0
   37.5420   31.2270   38.3770 N   0  0  0  0  0  0  0  0  0  0  0  0
   36.5420   30.3890   38.7050 C   0  0  0  0  0  0  0  0  0  0  0  0
   37.4490   29.8980   41.7520 C   0  0  0  0  0  0  0  0  0  0  0  0
   38.6510   30.5090   42.1180 C   0  0  0  0  0  0  0  0  0  0  0  0
   39.6860   29.7380   42.6110 C   0  0  0  0  0  0  0  0  0  0  0  0
   39.4740   28.3710   42.7210 N   0  0  0  0  0  0  0  0  0  0  0  0
   38.2960   27.8240   42.3570 C   0  0  0  0  0  0  0  0  0  0  0  0
   37.3020   28.5560   41.8830 N   0  0  0  0  0  0  0  0  0  0  0  0
   38.2060   26.4380   42.5140 O   0  0  0  0  0  0  0  0  0  0  0  0
   37.2080   25.7350   40.5450 N   0  0  0  0  0  0  0  0  0  0  0  0
   38.5280   25.2010   40.2590 C   0  0  0  0  0  0  0  0  0  0  0  0
   38.8070   24.1700   41.3300 C   0  0  0  0  0  0  0  0  0  0  0  0
   37.5610   24.2050   42.2170 C   0  0  0  0  0  0  0  0  0  0  0  0
   37.1660   25.6700   41.9920 C   0  0  1  0  0  0  0  0  0  0  0  0
   35.4228   30.4619   41.8851 H   0  0  0  0  0  0  0  0  0  0  0  0
   36.5076   31.6883   41.1541 H   0  0  0  0  0  0  0  0  0  0  0  0
   34.3516   28.7273   40.4092 H   0  0  0  0  0  0  0  0  0  0  0  0
   37.6846   30.7643   35.1363 H   0  0  0  0  0  0  0  0  0  0  0  0
   39.4575   32.7920   37.5176 H   0  0  0  0  0  0  0  0  0  0  0  0
   39.3162   32.3493   35.7951 H   0  0  0  0  0  0  0  0  0  0  0  0
   38.7725   31.5973   42.0143 H   0  0  0  0  0  0  0  0  0  0  0  0
   40.6438   30.1915   42.9058 H   0  0  0  0  0  0  0  0  0  0  0  0
   36.4695   25.1546   40.1224 H   0  0  0  0  0  0  0  0  0  0  0  0
   38.5421   24.7312   39.2645 H   0  0  0  0  0  0  0  0  0  0  0  0
   39.2899   25.9944   40.2581 H   0  0  0  0  0  0  0  0  0  0  0  0
   38.9421   23.1727   40.8860 H   0  0  0  0  0  0  0  0  0  0  0  0
   39.7295   24.3828   41.8901 H   0  0  0  0  0  0  0  0  0  0  0  0
   36.7845   23.5078   41.8692 H   0  0  0  0  0  0  0  0  0  0  0  0
   37.7107   23.9051   43.2647 H   0  0  0  0  0  0  0  0  0  0  0  0
   36.2140   26.0014   42.4323 H   0  0  0  0  0  0  0  0  0  0  0  0
  1 13  1  0
  2  1  1  0
  3  2  1  0
  4  3  2  0
  5  4  1  0
  5 12  2  0
  6  5  1  0
  7  6  2  0
  8  6  1  0
  8  9  1  0
  9 11  2  0
 10  9  1  0
 11 12  1  0
 12  2  1  0
 13 18  1  0
 13 14  2  0
 14 15  1  0
 15 16  2  0
 17 19  1  0
 17 16  1  0
 18 17  2  0
 20 24  1  0
 21 20  1  0
 21 22  1  0
 22 23  1  0
 24 23  1  0
 24 19  1  0
  1 25  1  0
  1 26  1  0
  3 27  1  0
  8 28  1  0
 10 29  1  0
 10 30  1  0
 14 31  1  0
 15 32  1  0
 20 33  1  0
 21 34  1  0
 21 35  1  0
 22 36  1  0
 22 37  1  0
 23 38  1  0
 23 39  1  0
 24 40  1  1
M  ISO  8  25   8  26   8  27  14  28   9  31  14  32  14  33   5  34  13
M  ISO  6  35  13  36  13  37  13  38  13  39  13  40  13
M  END
>  <minimizedAffinity>  (1) 
-5.82986689

>  <minimizedRMSD>  (1) 
1.29786849

$$$$
