
     RDKit          3D

 37 39  0  0  0  0  0  0  0  0999 V2000
   35.9520   30.1170   39.8830 N   0  0  0  0  0  0  0  0  0  0  0  0
   35.0060   29.1920   39.6280 C   0  0  0  0  0  0  0  0  0  0  0  0
   35.0030   28.9060   38.3160 N   0  0  0  0  0  0  0  0  0  0  0  0
   35.9490   29.6450   37.7050 C   0  0  0  0  0  0  0  0  0  0  0  0
   36.3840   29.7600   36.3880 C   0  0  0  0  0  0  0  0  0  0  0  0
   35.8050   29.0450   35.5440 O   0  0  0  0  0  0  0  0  0  0  0  0
   37.3960   30.6300   36.1010 N   0  0  0  0  0  0  0  0  0  0  0  0
   37.9460   31.3470   37.0800 C   0  0  0  0  0  0  0  0  0  0  0  0
   39.0090   32.2580   36.7600 N   0  0  0  0  0  0  0  0  0  0  0  0
   37.5310   31.2430   38.3620 N   0  0  0  0  0  0  0  0  0  0  0  0
   36.5330   30.3970   38.6970 C   0  0  0  0  0  0  0  0  0  0  0  0
   36.2460   30.6730   41.2010 C   0  0  0  0  0  0  0  0  0  0  0  0
   37.3930   29.9590   41.7720 C   0  0  0  0  0  0  0  0  0  0  0  0
   38.6930   30.4900   41.8710 C   0  0  0  0  0  0  0  0  0  0  0  0
   39.6950   29.7240   42.4280 C   0  0  0  0  0  0  0  0  0  0  0  0
   39.3660   28.4470   42.8730 N   0  0  0  0  0  0  0  0  0  0  0  0
   38.0920   27.9860   42.7520 C   0  0  0  0  0  0  0  0  0  0  0  0
   37.1250   28.7120   42.2190 N   0  0  0  0  0  0  0  0  0  0  0  0
   37.9040   26.6860   43.2410 O   0  0  0  0  0  0  0  0  0  0  0  0
   38.2110   25.6270   42.3520 C   0  0  0  0  0  0  0  0  0  0  0  0
   39.3480   24.7740   42.8660 C   0  0  0  0  0  0  0  0  0  0  0  0
   36.9660   24.8140   42.0960 C   0  0  0  0  0  0  0  0  0  0  0  0
   34.3396   28.7411   40.3781 H   0  0  0  0  0  0  0  0  0  0  0  0
   37.7326   30.7316   35.1329 H   0  0  0  0  0  0  0  0  0  0  0  0
   39.4464   32.8207   37.5036 H   0  0  0  0  0  0  0  0  0  0  0  0
   39.3340   32.3487   35.7869 H   0  0  0  0  0  0  0  0  0  0  0  0
   36.4866   31.7421   41.1056 H   0  0  0  0  0  0  0  0  0  0  0  0
   35.3710   30.5587   41.8577 H   0  0  0  0  0  0  0  0  0  0  0  0
   38.9073   31.5059   41.5076 H   0  0  0  0  0  0  0  0  0  0  0  0
   40.7212   30.1097   42.5178 H   0  0  0  0  0  0  0  0  0  0  0  0
   38.5572   26.0518   41.3982 H   0  0  0  0  0  0  0  0  0  0  0  0
   39.3417   24.7787   43.9660 H   0  0  0  0  0  0  0  0  0  0  0  0
   39.2259   23.7428   42.5030 H   0  0  0  0  0  0  0  0  0  0  0  0
   40.3039   25.1797   42.5030 H   0  0  0  0  0  0  0  0  0  0  0  0
   36.5161   24.5202   43.0558 H   0  0  0  0  0  0  0  0  0  0  0  0
   36.2460   25.4165   41.5228 H   0  0  0  0  0  0  0  0  0  0  0  0
   37.2282   23.9125   41.5228 H   0  0  0  0  0  0  0  0  0  0  0  0
  1 12  1  0
  2  1  1  0
  3  2  2  0
  4  3  1  0
  4 11  2  0
  5  4  1  0
  6  5  2  0
  7  5  1  0
  7  8  1  0
  8 10  2  0
  9  8  1  0
 10 11  1  0
 11  1  1  0
 12 13  1  0
 13 14  2  0
 13 18  1  0
 14 15  1  0
 15 16  2  0
 17 16  1  0
 17 19  1  0
 18 17  2  0
 20 21  1  0
 20 19  1  0
 22 20  1  0
  2 23  1  0
  7 24  1  0
  9 25  1  0
  9 26  1  0
 12 27  1  0
 12 28  1  0
 14 29  1  0
 15 30  1  0
 20 31  1  0
 21 32  1  0
 21 33  1  0
 21 34  1  0
 22 35  1  0
 22 36  1  0
 22 37  1  0
M  ISO  8  23  14  24   9  27   8  28   8  29  14  30  14  31   8  32   8
M  ISO  5  33   8  34   8  35   8  36   8  37   8
M  END
>  <minimizedAffinity>  (1) 
-5.73802614

>  <minimizedRMSD>  (1) 
1.25900412

$$$$
