
     RDKit          3D

 35 38  0  0  0  0  0  0  0  0999 V2000
   35.9400   30.1330   39.8800 N   0  0  0  0  0  0  0  0  0  0  0  0
   34.9850   29.2140   39.6410 C   0  0  0  0  0  0  0  0  0  0  0  0
   34.9820   28.9290   38.3210 N   0  0  0  0  0  0  0  0  0  0  0  0
   35.9260   29.6540   37.7080 C   0  0  0  0  0  0  0  0  0  0  0  0
   36.3620   29.7660   36.3900 C   0  0  0  0  0  0  0  0  0  0  0  0
   35.7840   29.0600   35.5500 O   0  0  0  0  0  0  0  0  0  0  0  0
   37.3760   30.6230   36.0930 N   0  0  0  0  0  0  0  0  0  0  0  0
   37.9450   31.3510   37.0720 C   0  0  0  0  0  0  0  0  0  0  0  0
   39.0110   32.2530   36.7620 N   0  0  0  0  0  0  0  0  0  0  0  0
   37.5350   31.2570   38.3620 N   0  0  0  0  0  0  0  0  0  0  0  0
   36.5320   30.4170   38.6990 C   0  0  0  0  0  0  0  0  0  0  0  0
   36.2490   30.6950   41.1910 C   0  0  0  0  0  0  0  0  0  0  0  0
   37.3900   29.9780   41.7620 C   0  0  0  0  0  0  0  0  0  0  0  0
   38.6360   30.5830   42.0310 C   0  0  0  0  0  0  0  0  0  0  0  0
   39.6480   29.8270   42.5690 C   0  0  0  0  0  0  0  0  0  0  0  0
   39.3940   28.4810   42.8260 N   0  0  0  0  0  0  0  0  0  0  0  0
   38.1870   27.9480   42.5510 C   0  0  0  0  0  0  0  0  0  0  0  0
   37.2020   28.6660   42.0330 N   0  0  0  0  0  0  0  0  0  0  0  0
   38.0550   26.5900   42.8530 O   0  0  0  0  0  0  0  0  0  0  0  0
   37.9600   25.5850   41.8870 C   0  0  0  0  0  0  0  0  0  0  0  0
   38.2230   24.1760   42.2800 C   0  0  0  0  0  0  0  0  0  0  0  0
   36.8190   24.5790   41.9920 C   0  0  0  0  0  0  0  0  0  0  0  0
   34.3187   28.7697   40.3951 H   0  0  0  0  0  0  0  0  0  0  0  0
   37.7073   30.7145   35.1220 H   0  0  0  0  0  0  0  0  0  0  0  0
   39.4475   32.8108   37.5098 H   0  0  0  0  0  0  0  0  0  0  0  0
   39.3421   32.3447   35.7910 H   0  0  0  0  0  0  0  0  0  0  0  0
   36.4992   31.7609   41.0853 H   0  0  0  0  0  0  0  0  0  0  0  0
   35.3770   30.5919   41.8535 H   0  0  0  0  0  0  0  0  0  0  0  0
   38.7949   31.6492   41.8120 H   0  0  0  0  0  0  0  0  0  0  0  0
   40.6300   30.2705   42.7906 H   0  0  0  0  0  0  0  0  0  0  0  0
   38.3427   26.2606   41.1079 H   0  0  0  0  0  0  0  0  0  0  0  0
   38.7513   23.5058   41.5859 H   0  0  0  0  0  0  0  0  0  0  0  0
   38.7249   23.6979   43.1342 H   0  0  0  0  0  0  0  0  0  0  0  0
   36.0876   24.6565   42.8099 H   0  0  0  0  0  0  0  0  0  0  0  0
   36.0243   24.2232   41.3198 H   0  0  0  0  0  0  0  0  0  0  0  0
  1 12  1  0
  2  1  1  0
  3  2  2  0
  4  3  1  0
  4 11  2  0
  5  4  1  0
  6  5  2  0
  7  5  1  0
  7  8  1  0
  8 10  2  0
  9  8  1  0
 10 11  1  0
 11  1  1  0
 12 13  1  0
 13 14  2  0
 13 18  1  0
 14 15  1  0
 15 16  2  0
 17 16  1  0
 17 19  1  0
 18 17  2  0
 20 22  1  0
 20 21  1  0
 20 19  1  0
 22 21  1  0
  2 23  1  0
  7 24  1  0
  9 25  1  0
  9 26  1  0
 12 27  1  0
 12 28  1  0
 14 29  1  0
 15 30  1  0
 20 31  1  0
 21 32  1  0
 21 33  1  0
 22 34  1  0
 22 35  1  0
M  ISO  8  23  14  24   9  27   8  28   8  29  14  30  14  31  13  32  13
M  ISO  3  33  13  34  13  35  13
M  END
>  <minimizedAffinity>  (1) 
-5.70497656

>  <minimizedRMSD>  (1) 
1.28583682

$$$$
