
     RDKit          3D

 27 29  0  0  0  0  0  0  0  0999 V2000
   36.8270   27.6520   40.2980 C   0  0  0  0  0  0  0  0  0  0  0  0
   36.4720   26.7400   39.3070 C   0  0  0  0  0  0  0  0  0  0  0  0
   36.6320   25.5220   39.8950 C   0  0  0  0  0  0  0  0  0  0  0  0
   37.0650   25.6680   41.1880 N   0  0  0  0  0  0  0  0  0  0  0  0
   37.1840   26.9870   41.4330 N   0  0  0  0  0  0  0  0  0  0  0  0
   36.6250   30.0060   41.1360 C   0  0  0  0  0  0  0  0  0  0  0  0
   36.8050   29.0930   40.1100 C   0  0  0  0  0  0  0  0  0  0  0  0
   36.9790   29.5810   38.8010 C   0  0  0  0  0  0  0  0  0  0  0  0
   36.9620   30.9330   38.5970 N   0  0  0  0  0  0  0  0  0  0  0  0
   36.7780   31.7960   39.6610 C   0  0  0  0  0  0  0  0  0  0  0  0
   36.6080   31.3190   40.9450 N   0  0  0  0  0  0  0  0  0  0  0  0
   37.3250   24.5640   42.0700 C   0  0  0  0  0  0  0  0  0  0  0  0
   38.7070   23.9960   41.9200 C   0  0  0  0  0  0  0  0  0  0  0  0
   39.6220   24.3320   43.0860 C   0  0  0  0  0  0  0  0  0  0  0  0
   39.8820   24.8610   41.6960 C   0  0  0  0  0  0  0  0  0  0  0  0
   36.1379   26.9549   38.2812 H   0  0  0  0  0  0  0  0  0  0  0  0
   36.4409   24.5573   39.4023 H   0  0  0  0  0  0  0  0  0  0  0  0
   36.4896   29.6241   42.1587 H   0  0  0  0  0  0  0  0  0  0  0  0
   37.1257   28.8885   37.9590 H   0  0  0  0  0  0  0  0  0  0  0  0
   36.7669   32.8812   39.4814 H   0  0  0  0  0  0  0  0  0  0  0  0
   37.2000   24.9088   43.1071 H   0  0  0  0  0  0  0  0  0  0  0  0
   36.6147   23.7653   41.8100 H   0  0  0  0  0  0  0  0  0  0  0  0
   38.3482   23.1057   41.3827 H   0  0  0  0  0  0  0  0  0  0  0  0
   39.2798   25.0094   43.8822 H   0  0  0  0  0  0  0  0  0  0  0  0
   40.1936   23.7572   43.8296 H   0  0  0  0  0  0  0  0  0  0  0  0
   40.7377   24.4819   41.1180 H   0  0  0  0  0  0  0  0  0  0  0  0
   40.0309   25.8633   41.2681 H   0  0  0  0  0  0  0  0  0  0  0  0
  1  5  2  0
  2  3  2  0
  2  1  1  0
  3  4  1  0
  4  5  1  0
  4 12  1  0
  7  1  1  0
  7  6  2  0
  8  7  1  0
  9  8  2  0
  9 10  1  0
 10 11  2  0
 11  6  1  0
 13 12  1  0
 13 14  1  0
 15 13  1  0
 15 14  1  0
  2 16  1  0
  3 17  1  0
  6 18  1  0
  8 19  1  0
 10 20  1  0
 12 21  1  0
 12 22  1  0
 13 23  1  0
 14 24  1  0
 14 25  1  0
 15 26  1  0
 15 27  1  0
M  ISO  8  16  14  17  14  18  14  19  14  20  14  21   8  22   8  23  13
M  ISO  4  24  13  25  13  26  13  27  13
M  END
>  <minimizedAffinity>  (1) 
-3.72845054

>  <minimizedRMSD>  (1) 
1.85540771

$$$$
