
     RDKit          3D

 34 37  0  0  0  0  0  0  0  0999 V2000
   37.4420   31.6560   39.7940 C   0  0  0  0  0  0  0  0  0  0  0  0
   37.2000   32.9910   39.5700 C   0  0  0  0  0  0  0  0  0  0  0  0
   38.0480   33.9710   40.0380 C   0  0  0  0  0  0  0  0  0  0  0  0
   39.1660   33.5640   40.7510 C   0  0  0  0  0  0  0  0  0  0  0  0
   39.4230   32.2370   40.9850 C   0  0  0  0  0  0  0  0  0  0  0  0
   38.5540   31.2930   40.5010 C   0  0  0  0  0  0  0  0  0  0  0  0
   38.9100   29.9430   40.7970 N   0  0  0  0  0  0  0  0  0  0  0  0
   39.7600   29.1640   40.0710 C   0  0  0  0  0  0  0  0  0  0  0  0
   39.8740   27.9300   40.6390 N   0  0  0  0  0  0  0  0  0  0  0  0
   39.0910   27.9230   41.7330 C   0  0  0  0  0  0  0  0  0  0  0  0
   38.8620   26.9090   42.6460 C   0  0  0  0  0  0  0  0  0  0  0  0
   39.4510   25.7870   42.4850 O   0  0  0  0  0  0  0  0  0  0  0  0
   38.0190   27.1920   43.6540 N   0  0  0  0  0  0  0  0  0  0  0  0
   37.4420   28.4060   43.7430 C   0  0  0  0  0  0  0  0  0  0  0  0
   36.5650   28.5880   44.8580 N   0  0  0  0  0  0  0  0  0  0  0  0
   37.6790   29.3940   42.8330 N   0  0  0  0  0  0  0  0  0  0  0  0
   38.5070   29.1780   41.8090 C   0  0  0  0  0  0  0  0  0  0  0  0
   35.7670   29.1760   37.6480 C   0  0  0  0  0  0  0  0  0  0  0  0
   34.7820   28.6710   38.5220 C   0  0  0  0  0  0  0  0  0  0  0  0
   34.7200   29.1930   39.8190 C   0  0  0  0  0  0  0  0  0  0  0  0
   35.6150   30.1530   40.1480 N   0  0  0  0  0  0  0  0  0  0  0  0
   36.5470   30.6220   39.2990 C   0  0  0  0  0  0  0  0  0  0  0  0
   36.6080   30.1270   38.0680 N   0  0  0  0  0  0  0  0  0  0  0  0
   36.3051   33.2845   39.0017 H   0  0  0  0  0  0  0  0  0  0  0  0
   37.8459   35.0363   39.8531 H   0  0  0  0  0  0  0  0  0  0  0  0
   39.8624   34.3226   41.1376 H   0  0  0  0  0  0  0  0  0  0  0  0
   40.3146   31.9340   41.5535 H   0  0  0  0  0  0  0  0  0  0  0  0
   40.2803   29.4851   39.1566 H   0  0  0  0  0  0  0  0  0  0  0  0
   37.8126   26.4749   44.3640 H   0  0  0  0  0  0  0  0  0  0  0  0
   36.0859   29.4895   44.9946 H   0  0  0  0  0  0  0  0  0  0  0  0
   36.4125   27.8176   45.5244 H   0  0  0  0  0  0  0  0  0  0  0  0
   35.8434   28.7878   36.6216 H   0  0  0  0  0  0  0  0  0  0  0  0
   34.0820   27.8887   38.1934 H   0  0  0  0  0  0  0  0  0  0  0  0
   33.9725   28.8366   40.5431 H   0  0  0  0  0  0  0  0  0  0  0  0
  1  6  1  0
  2  1  2  0
  2  3  1  0
  3  4  2  0
  4  5  1  0
  6  7  1  0
  6  5  2  0
  7 17  1  0
  8  9  2  0
  8  7  1  0
  9 10  1  0
 10 17  2  0
 10 11  1  0
 11 13  1  0
 12 11  2  0
 13 14  1  0
 14 15  1  0
 16 14  2  0
 17 16  1  0
 18 23  2  0
 18 19  1  0
 19 20  2  0
 20 21  1  0
 22  1  1  0
 22 21  2  0
 23 22  1  0
  2 24  1  0
  3 25  1  0
  4 26  1  0
  5 27  1  0
  8 28  1  0
 13 29  1  0
 15 30  1  0
 15 31  1  0
 18 32  1  0
 19 33  1  0
 20 34  1  0
M  ISO  8  24  14  25  14  26  14  27  14  28  14  29   9  32  14  33  14
M  ISO  1  34  14
M  END
>  <minimizedAffinity>  (1) 
-6.56867456

>  <minimizedRMSD>  (1) 
3.34622097

$$$$
