
     RDKit          3D

 34 37  0  0  0  0  0  0  0  0999 V2000
   37.5590   30.5000   40.4220 C   0  0  0  0  0  0  0  0  0  0  0  0
   37.5330   31.8330   40.8370 C   0  0  0  0  0  0  0  0  0  0  0  0
   37.4220   32.8720   39.9460 C   0  0  0  0  0  0  0  0  0  0  0  0
   37.3380   32.5590   38.6080 C   0  0  0  0  0  0  0  0  0  0  0  0
   37.3610   31.2420   38.1630 C   0  0  0  0  0  0  0  0  0  0  0  0
   37.4720   30.2140   39.0770 C   0  0  0  0  0  0  0  0  0  0  0  0
   37.4750   28.8700   38.5180 C   0  0  0  0  0  0  0  0  0  0  0  0
   38.5990   28.1440   38.4030 N   0  0  0  0  0  0  0  0  0  0  0  0
   38.6180   26.9120   37.9000 C   0  0  0  0  0  0  0  0  0  0  0  0
   37.4430   26.4070   37.5010 N   0  0  0  0  0  0  0  0  0  0  0  0
   36.2730   27.0740   37.5850 C   0  0  0  0  0  0  0  0  0  0  0  0
   35.1310   26.4350   37.1340 C   0  0  0  0  0  0  0  0  0  0  0  0
   33.9160   27.0770   37.1970 C   0  0  0  0  0  0  0  0  0  0  0  0
   33.9020   28.3660   37.7230 C   0  0  0  0  0  0  0  0  0  0  0  0
   35.0330   28.9950   38.1680 C   0  0  0  0  0  0  0  0  0  0  0  0
   36.2560   28.3460   38.1050 C   0  0  0  0  0  0  0  0  0  0  0  0
   38.9430   28.0120   42.7330 C   0  0  0  0  0  0  0  0  0  0  0  0
   37.7760   27.3470   43.1640 C   0  0  0  0  0  0  0  0  0  0  0  0
   36.5480   27.7710   42.6490 C   0  0  0  0  0  0  0  0  0  0  0  0
   36.5300   28.8030   41.7580 N   0  0  0  0  0  0  0  0  0  0  0  0
   37.6860   29.4150   41.3720 C   0  0  0  0  0  0  0  0  0  0  0  0
   38.8780   29.0200   41.8570 N   0  0  0  0  0  0  0  0  0  0  0  0
   37.6037   32.0579   41.9114 H   0  0  0  0  0  0  0  0  0  0  0  0
   37.4010   33.9169   40.2891 H   0  0  0  0  0  0  0  0  0  0  0  0
   37.2504   33.3718   37.8720 H   0  0  0  0  0  0  0  0  0  0  0  0
   37.2911   31.0205   37.0878 H   0  0  0  0  0  0  0  0  0  0  0  0
   39.5520   26.3370   37.8160 H   0  0  0  0  0  0  0  0  0  0  0  0
   35.1949   25.4155   36.7259 H   0  0  0  0  0  0  0  0  0  0  0  0
   32.9932   26.5918   36.8461 H   0  0  0  0  0  0  0  0  0  0  0  0
   32.9426   28.9007   37.7834 H   0  0  0  0  0  0  0  0  0  0  0  0
   34.9715   30.0149   38.5754 H   0  0  0  0  0  0  0  0  0  0  0  0
   39.9217   27.6964   43.1237 H   0  0  0  0  0  0  0  0  0  0  0  0
   37.8310   26.5181   43.8851 H   0  0  0  0  0  0  0  0  0  0  0  0
   35.6126   27.2809   42.9569 H   0  0  0  0  0  0  0  0  0  0  0  0
  1  2  2  0
  1 21  1  0
  3  2  1  0
  4  3  2  0
  5  4  1  0
  5  6  2  0
  6  1  1  0
  7  6  1  0
  8  7  2  0
  9  8  1  0
 10 11  1  0
 10  9  2  0
 11 16  2  0
 12 13  2  0
 12 11  1  0
 13 14  1  0
 14 15  2  0
 16 15  1  0
 16  7  1  0
 17 18  2  0
 19 18  1  0
 20 19  2  0
 21 20  1  0
 21 22  2  0
 22 17  1  0
  2 23  1  0
  3 24  1  0
  4 25  1  0
  5 26  1  0
  9 27  1  0
 12 28  1  0
 13 29  1  0
 14 30  1  0
 15 31  1  0
 17 32  1  0
 18 33  1  0
 19 34  1  0
M  ISO  8  23  14  24  14  25  14  26  14  27  14  28  14  29  14  30  14
M  ISO  4  31  14  32  14  33  14  34  14
M  END
>  <minimizedAffinity>  (1) 
-5.20358229

>  <minimizedRMSD>  (1) 
5.34669924

$$$$
