
     RDKit          3D

 36 38  0  0  0  0  0  0  0  0999 V2000
   37.0040   28.2420   41.3310 C   0  0  0  0  0  0  0  0  0  0  0  0
   37.2140   29.2370   42.2910 C   0  0  0  0  0  0  0  0  0  0  0  0
   37.6750   28.9330   43.5520 C   0  0  0  0  0  0  0  0  0  0  0  0
   37.9240   27.5980   43.8370 C   0  0  0  0  0  0  0  0  0  0  0  0
   37.7180   26.6180   42.8960 C   0  0  0  0  0  0  0  0  0  0  0  0
   37.2580   26.9120   41.6310 C   0  0  0  0  0  0  0  0  0  0  0  0
   34.7600   28.9520   38.5160 C   0  0  0  0  0  0  0  0  0  0  0  0
   35.6780   29.2720   37.5000 C   0  0  0  0  0  0  0  0  0  0  0  0
   37.0480   29.2360   37.7920 C   0  0  0  0  0  0  0  0  0  0  0  0
   37.4190   28.8940   39.0470 N   0  0  0  0  0  0  0  0  0  0  0  0
   36.5090   28.5890   40.0150 C   0  0  0  0  0  0  0  0  0  0  0  0
   35.2130   28.6230   39.7350 N   0  0  0  0  0  0  0  0  0  0  0  0
   37.0800   25.7820   40.7150 C   0  0  0  0  0  0  0  0  0  0  0  0
   36.6230   24.5210   41.4460 C   0  0  0  0  0  0  0  0  0  0  0  0
   36.5230   23.4450   40.3750 C   0  0  0  0  0  0  0  0  0  0  0  0
   37.9340   22.9540   40.0520 C   0  0  0  0  0  0  0  0  0  0  0  0
   38.8900   24.0520   40.3960 C   0  0  0  0  0  0  0  0  0  0  0  0
   38.2920   25.3890   39.9270 C   0  0  0  0  0  0  0  0  0  0  0  0
   37.0062   30.2859   42.0328 H   0  0  0  0  0  0  0  0  0  0  0  0
   37.8396   29.7181   44.3047 H   0  0  0  0  0  0  0  0  0  0  0  0
   38.2932   27.3189   44.8349 H   0  0  0  0  0  0  0  0  0  0  0  0
   37.9260   25.5706   43.1598 H   0  0  0  0  0  0  0  0  0  0  0  0
   33.6791   28.9713   38.3128 H   0  0  0  0  0  0  0  0  0  0  0  0
   35.3269   29.5457   36.4941 H   0  0  0  0  0  0  0  0  0  0  0  0
   37.7981   29.4782   37.0248 H   0  0  0  0  0  0  0  0  0  0  0  0
   36.3189   26.1639   40.0186 H   0  0  0  0  0  0  0  0  0  0  0  0
   37.3575   24.2334   42.2127 H   0  0  0  0  0  0  0  0  0  0  0  0
   35.6639   24.6734   41.9627 H   0  0  0  0  0  0  0  0  0  0  0  0
   35.9138   22.6074   40.7455 H   0  0  0  0  0  0  0  0  0  0  0  0
   36.0488   23.8543   39.4708 H   0  0  0  0  0  0  0  0  0  0  0  0
   38.1637   22.0577   40.6469 H   0  0  0  0  0  0  0  0  0  0  0  0
   38.0156   22.6932   38.9865 H   0  0  0  0  0  0  0  0  0  0  0  0
   39.0479   24.0783   41.4843 H   0  0  0  0  0  0  0  0  0  0  0  0
   39.8561   23.8780   39.8996 H   0  0  0  0  0  0  0  0  0  0  0  0
   39.0543   26.1744   40.0367 H   0  0  0  0  0  0  0  0  0  0  0  0
   37.9844   25.2684   38.8778 H   0  0  0  0  0  0  0  0  0  0  0  0
  1  6  1  0
  1  2  2  0
  2  3  1  0
  3  4  2  0
  5  4  1  0
  6  5  2  0
  7 12  2  0
  8  9  2  0
  8  7  1  0
  9 10  1  0
 10 11  2  0
 11  1  1  0
 12 11  1  0
 13 14  1  0
 13  6  1  0
 15 14  1  0
 16 15  1  0
 16 17  1  0
 18 17  1  0
 18 13  1  0
  2 19  1  0
  3 20  1  0
  4 21  1  0
  5 22  1  0
  7 23  1  0
  8 24  1  0
  9 25  1  0
 13 26  1  0
 14 27  1  0
 14 28  1  0
 15 29  1  0
 15 30  1  0
 16 31  1  0
 16 32  1  0
 17 33  1  0
 17 34  1  0
 18 35  1  0
 18 36  1  0
M  ISO  8  19  14  20  14  21  14  22  14  23  14  24  14  25  14  26  13
M  ISO  8  27  13  28  13  29  13  30  13  31  13  32  13  33  13  34  13
M  ISO  2  35  13  36  13
M  END
>  <minimizedAffinity>  (1) 
-4.97919559

>  <minimizedRMSD>  (1) 
5.82547474

$$$$
