
     RDKit          3D

 27 29  0  0  0  0  0  0  0  0999 V2000
   38.2720   31.1520   40.9760 C   0  0  0  0  0  0  0  0  0  0  0  0
   39.1120   32.2020   41.3540 C   0  0  0  0  0  0  0  0  0  0  0  0
   38.9710   33.4640   40.7960 C   0  0  0  0  0  0  0  0  0  0  0  0
   37.9830   33.6390   39.8660 C   0  0  0  0  0  0  0  0  0  0  0  0
   37.1410   32.6010   39.4790 C   0  0  0  0  0  0  0  0  0  0  0  0
   37.3020   31.3700   40.0440 C   0  0  0  0  0  0  0  0  0  0  0  0
   39.2470   27.6660   41.5590 C   0  0  0  0  0  0  0  0  0  0  0  0
   38.6290   27.3930   42.8000 C   0  0  0  0  0  0  0  0  0  0  0  0
   37.8900   28.4200   43.4030 C   0  0  0  0  0  0  0  0  0  0  0  0
   37.8130   29.6120   42.7620 N   0  0  0  0  0  0  0  0  0  0  0  0
   38.4240   29.8380   41.5640 C   0  0  0  0  0  0  0  0  0  0  0  0
   39.1230   28.8730   40.9890 N   0  0  0  0  0  0  0  0  0  0  0  0
   36.3290   30.3460   39.5340 C   0  0  0  0  0  0  0  0  0  0  0  0
   36.3670   30.1310   38.1760 C   0  0  0  0  0  0  0  0  0  0  0  0
   35.5450   29.2180   37.5740 C   0  0  0  0  0  0  0  0  0  0  0  0
   34.6760   28.5450   38.5170 C   0  0  0  0  0  0  0  0  0  0  0  0
   35.1480   29.3150   40.1910 S   0  0  0  0  0  0  0  0  0  0  0  0
   39.8964   32.0256   42.1048 H   0  0  0  0  0  0  0  0  0  0  0  0
   39.6298   34.2942   41.0906 H   0  0  0  0  0  0  0  0  0  0  0  0
   37.8501   34.6312   39.4100 H   0  0  0  0  0  0  0  0  0  0  0  0
   36.3560   32.7709   38.7274 H   0  0  0  0  0  0  0  0  0  0  0  0
   39.8339   26.8827   41.0571 H   0  0  0  0  0  0  0  0  0  0  0  0
   38.7248   26.4066   43.2773 H   0  0  0  0  0  0  0  0  0  0  0  0
   37.3870   28.2633   44.3686 H   0  0  0  0  0  0  0  0  0  0  0  0
   37.0742   30.7060   37.5602 H   0  0  0  0  0  0  0  0  0  0  0  0
   35.5442   29.0171   36.4925 H   0  0  0  0  0  0  0  0  0  0  0  0
   33.9212   27.7712   38.3133 H   0  0  0  0  0  0  0  0  0  0  0  0
  1  2  2  0
  1 11  1  0
  3  2  1  0
  4  3  2  0
  5  4  1  0
  5  6  2  0
  6  1  1  0
  7  8  2  0
  8  9  1  0
 10  9  2  0
 11 10  1  0
 12  7  1  0
 12 11  2  0
 13  6  1  0
 13 17  1  0
 14 13  2  0
 15 14  1  0
 15 16  2  0
 16 17  1  0
  2 18  1  0
  3 19  1  0
  4 20  1  0
  5 21  1  0
  7 22  1  0
  8 23  1  0
  9 24  1  0
 14 25  1  0
 15 26  1  0
 16 27  1  0
M  ISO  8  18  14  19  14  20  14  21  14  22  14  23  14  24  14  25  14
M  ISO  2  26  14  27  14
M  END
>  <minimizedAffinity>  (1) 
-4.89250183

>  <minimizedRMSD>  (1) 
4.41894531

$$$$
