
     RDKit          3D

 28 30  0  0  0  0  0  0  0  0999 V2000
   36.7730   28.7140   39.8370 C   0  0  0  0  0  0  0  0  0  0  0  0
   35.9400   27.7870   39.2220 C   0  0  0  0  0  0  0  0  0  0  0  0
   35.3620   28.0800   38.0010 C   0  0  0  0  0  0  0  0  0  0  0  0
   35.6410   29.3020   37.4320 C   0  0  0  0  0  0  0  0  0  0  0  0
   36.4610   30.2230   38.0300 C   0  0  0  0  0  0  0  0  0  0  0  0
   37.0230   29.9190   39.2370 C   0  0  0  0  0  0  0  0  0  0  0  0
   37.5010   28.5870   43.4330 C   0  0  0  0  0  0  0  0  0  0  0  0
   38.6380   27.7840   43.4840 C   0  0  0  0  0  0  0  0  0  0  0  0
   39.1310   27.3100   42.2850 C   0  0  0  0  0  0  0  0  0  0  0  0
   38.4900   27.6440   41.1440 N   0  0  0  0  0  0  0  0  0  0  0  0
   37.3810   28.4290   41.1270 C   0  0  0  0  0  0  0  0  0  0  0  0
   36.9020   28.8900   42.2670 N   0  0  0  0  0  0  0  0  0  0  0  0
   37.8750   31.0060   39.7530 C   0  0  0  0  0  0  0  0  0  0  0  0
   37.2200   32.2190   39.6540 C   0  0  0  0  0  0  0  0  0  0  0  0
   37.7480   33.4430   40.0650 C   0  0  0  0  0  0  0  0  0  0  0  0
   39.0020   33.3860   40.5960 N   0  0  0  0  0  0  0  0  0  0  0  0
   39.6120   32.1850   40.6780 C   0  0  0  0  0  0  0  0  0  0  0  0
   39.1140   30.9940   40.2840 N   0  0  0  0  0  0  0  0  0  0  0  0
   35.7406   26.8200   39.7069 H   0  0  0  0  0  0  0  0  0  0  0  0
   34.6996   27.3590   37.4996 H   0  0  0  0  0  0  0  0  0  0  0  0
   35.1885   29.5487   36.4602 H   0  0  0  0  0  0  0  0  0  0  0  0
   36.6629   31.1901   37.5463 H   0  0  0  0  0  0  0  0  0  0  0  0
   37.0822   28.9834   44.3697 H   0  0  0  0  0  0  0  0  0  0  0  0
   39.1229   27.5378   44.4401 H   0  0  0  0  0  0  0  0  0  0  0  0
   40.0276   26.6733   42.2593 H   0  0  0  0  0  0  0  0  0  0  0  0
   36.2093   32.2192   39.2197 H   0  0  0  0  0  0  0  0  0  0  0  0
   37.1919   34.3870   39.9675 H   0  0  0  0  0  0  0  0  0  0  0  0
   40.6227   32.1757   41.1122 H   0  0  0  0  0  0  0  0  0  0  0  0
  1 11  1  0
  2  1  2  0
  3  2  1  0
  4  3  2  0
  4  5  1  0
  5  6  2  0
  6 13  1  0
  6  1  1  0
  7  8  2  0
  9  8  1  0
 10  9  2  0
 11 10  1  0
 11 12  2  0
 12  7  1  0
 13 18  1  0
 14 13  2  0
 14 15  1  0
 15 16  2  0
 16 17  1  0
 18 17  2  0
  2 19  1  0
  3 20  1  0
  4 21  1  0
  5 22  1  0
  7 23  1  0
  8 24  1  0
  9 25  1  0
 14 26  1  0
 15 27  1  0
 17 28  1  0
M  ISO  8  19  14  20  14  21  14  22  14  23  14  24  14  25  14  26  14
M  ISO  2  27  14  28  14
M  END
>  <minimizedAffinity>  (1) 
-4.84188271

>  <minimizedRMSD>  (1) 
3.87088847

$$$$
