
     RDKit          3D

 33 35  0  0  0  0  0  0  0  0999 V2000
   36.1010   28.4950   40.2280 C   0  0  0  0  0  0  0  0  0  0  0  0
   34.8240   29.0430   40.2280 C   0  0  0  0  0  0  0  0  0  0  0  0
   34.5280   29.2110   38.9020 C   0  0  0  0  0  0  0  0  0  0  0  0
   35.5640   28.7890   38.1280 N   0  0  0  0  0  0  0  0  0  0  0  0
   36.5390   28.3450   38.9460 N   0  0  0  0  0  0  0  0  0  0  0  0
   37.1720   26.8540   41.7940 C   0  0  0  0  0  0  0  0  0  0  0  0
   36.8340   28.1410   41.4270 C   0  0  0  0  0  0  0  0  0  0  0  0
   37.2320   29.1890   42.2830 C   0  0  0  0  0  0  0  0  0  0  0  0
   37.9260   28.9080   43.4280 N   0  0  0  0  0  0  0  0  0  0  0  0
   38.2290   27.5940   43.7320 C   0  0  0  0  0  0  0  0  0  0  0  0
   37.8490   26.5770   42.9120 N   0  0  0  0  0  0  0  0  0  0  0  0
   35.5780   28.8240   36.6950 C   0  0  0  0  0  0  0  0  0  0  0  0
   34.7260   27.9110   36.0410 N   0  0  0  0  0  0  0  0  0  0  0  0
   33.5700   28.4190   35.4030 C   0  0  0  0  0  0  0  0  0  0  0  0
   32.3450   27.8390   36.0650 C   0  0  0  0  0  0  0  0  0  0  0  0
   32.4090   26.4580   35.8460 O   0  0  0  0  0  0  0  0  0  0  0  0
   33.4000   25.9230   36.6380 C   0  0  0  0  0  0  0  0  0  0  0  0
   34.7470   26.5580   36.4310 C   0  0  0  0  0  0  0  0  0  0  0  0
   34.1941   29.2865   41.0963 H   0  0  0  0  0  0  0  0  0  0  0  0
   33.5858   29.6282   38.5169 H   0  0  0  0  0  0  0  0  0  0  0  0
   36.8717   26.0226   41.1393 H   0  0  0  0  0  0  0  0  0  0  0  0
   36.9848   30.2306   42.0303 H   0  0  0  0  0  0  0  0  0  0  0  0
   38.7868   27.3668   44.6525 H   0  0  0  0  0  0  0  0  0  0  0  0
   35.2876   29.8376   36.3814 H   0  0  0  0  0  0  0  0  0  0  0  0
   36.5984   28.5343   36.4038 H   0  0  0  0  0  0  0  0  0  0  0  0
   33.5522   29.5153   35.4916 H   0  0  0  0  0  0  0  0  0  0  0  0
   33.5822   28.1415   34.3387 H   0  0  0  0  0  0  0  0  0  0  0  0
   32.3535   28.0563   37.1433 H   0  0  0  0  0  0  0  0  0  0  0  0
   31.4207   28.2710   35.6539 H   0  0  0  0  0  0  0  0  0  0  0  0
   33.1120   26.0549   37.6914 H   0  0  0  0  0  0  0  0  0  0  0  0
   33.4976   24.8633   36.3594 H   0  0  0  0  0  0  0  0  0  0  0  0
   35.2738   25.9886   35.6511 H   0  0  0  0  0  0  0  0  0  0  0  0
   35.2460   26.5339   37.4110 H   0  0  0  0  0  0  0  0  0  0  0  0
  1  7  1  0
  2  1  1  0
  3  2  2  0
  4  3  1  0
  4  5  1  0
  5  1  2  0
  6 11  2  0
  7  6  1  0
  7  8  2  0
  8  9  1  0
  9 10  2  0
 11 10  1  0
 12  4  1  0
 13 18  1  0
 13 12  1  0
 14 13  1  0
 14 15  1  0
 16 15  1  0
 16 17  1  0
 18 17  1  0
  2 19  1  0
  3 20  1  0
  6 21  1  0
  8 22  1  0
 10 23  1  0
 12 24  1  0
 12 25  1  0
 14 26  1  0
 14 27  1  0
 15 28  1  0
 15 29  1  0
 17 30  1  0
 17 31  1  0
 18 32  1  0
 18 33  1  0
M  ISO  8  19  14  20  14  21  14  22  14  23  14  24   8  25   8  26  13
M  ISO  7  27  13  28  13  29  13  30  13  31  13  32  13  33  13
M  END
>  <minimizedAffinity>  (1) 
-3.58424282

>  <minimizedRMSD>  (1) 
6.23354626

$$$$
