
     RDKit          3D

 33 36  0  0  0  0  0  0  0  0999 V2000
   37.7500   30.6670   41.0790 C   0  0  0  0  0  0  0  0  0  0  0  0
   36.7460   31.3990   40.4870 C   0  0  0  0  0  0  0  0  0  0  0  0
   36.9490   32.5820   39.8330 C   0  0  0  0  0  0  0  0  0  0  0  0
   38.2390   33.0320   39.7830 C   0  0  0  0  0  0  0  0  0  0  0  0
   39.2700   32.3360   40.3600 C   0  0  0  0  0  0  0  0  0  0  0  0
   39.0380   31.1490   41.0120 C   0  0  0  0  0  0  0  0  0  0  0  0
   37.2620   28.1190   43.6890 C   0  0  0  0  0  0  0  0  0  0  0  0
   37.0090   26.9840   42.9200 C   0  0  0  0  0  0  0  0  0  0  0  0
   37.0110   27.1110   41.5230 C   0  0  0  0  0  0  0  0  0  0  0  0
   37.2570   28.3320   40.9830 N   0  0  0  0  0  0  0  0  0  0  0  0
   37.4980   29.4100   41.7700 C   0  0  0  0  0  0  0  0  0  0  0  0
   37.4980   29.2960   43.1000 N   0  0  0  0  0  0  0  0  0  0  0  0
   40.1610   30.4890   41.5830 N   0  0  0  0  0  0  0  0  0  0  0  0
   40.8090   30.7190   42.7610 C   0  0  0  0  0  0  0  0  0  0  0  0
   41.8120   29.8340   42.8640 N   0  0  0  0  0  0  0  0  0  0  0  0
   41.8340   29.0290   41.7800 C   0  0  0  0  0  0  0  0  0  0  0  0
   42.6660   27.9850   41.4380 C   0  0  0  0  0  0  0  0  0  0  0  0
   42.4160   27.3690   40.2560 N   0  0  0  0  0  0  0  0  0  0  0  0
   41.3930   27.7700   39.4570 C   0  0  0  0  0  0  0  0  0  0  0  0
   40.5920   28.7970   39.8170 N   0  0  0  0  0  0  0  0  0  0  0  0
   40.7890   29.4500   40.9810 C   0  0  0  0  0  0  0  0  0  0  0  0
   43.7270   27.5700   42.2710 N   0  0  0  0  0  0  0  0  0  0  0  0
   35.7191   31.0088   40.5435 H   0  0  0  0  0  0  0  0  0  0  0  0
   36.1208   33.1407   39.3727 H   0  0  0  0  0  0  0  0  0  0  0  0
   38.4558   33.9783   39.2658 H   0  0  0  0  0  0  0  0  0  0  0  0
   40.2943   32.7324   40.3002 H   0  0  0  0  0  0  0  0  0  0  0  0
   37.2675   28.0459   44.7866 H   0  0  0  0  0  0  0  0  0  0  0  0
   36.8126   26.0125   43.3971 H   0  0  0  0  0  0  0  0  0  0  0  0
   36.8175   26.2403   40.8792 H   0  0  0  0  0  0  0  0  0  0  0  0
   40.5537   31.4947   43.4979 H   0  0  0  0  0  0  0  0  0  0  0  0
   41.2142   27.2513   38.5036 H   0  0  0  0  0  0  0  0  0  0  0  0
   44.3300   26.7856   41.9847 H   0  0  0  0  0  0  0  0  0  0  0  0
   43.8983   28.0515   43.1652 H   0  0  0  0  0  0  0  0  0  0  0  0
  1 11  1  0
  2  1  2  0
  3  2  1  0
  4  3  2  0
  4  5  1  0
  5  6  2  0
  6  1  1  0
  6 13  1  0
  8  7  2  0
  9  8  1  0
 10  9  2  0
 10 11  1  0
 11 12  2  0
 12  7  1  0
 13 14  1  0
 14 15  2  0
 16 15  1  0
 17 16  2  0
 17 22  1  0
 18 17  1  0
 19 20  1  0
 19 18  2  0
 20 21  2  0
 21 13  1  0
 21 16  1  0
  2 23  1  0
  3 24  1  0
  4 25  1  0
  5 26  1  0
  7 27  1  0
  8 28  1  0
  9 29  1  0
 14 30  1  0
 19 31  1  0
 22 32  1  0
 22 33  1  0
M  ISO  8  23  14  24  14  25  14  26  14  27  14  28  14  29  14  30  14
M  ISO  1  31  14
M  END
>  <minimizedAffinity>  (1) 
-4.67725563

>  <minimizedRMSD>  (1) 
1.27250624

$$$$
