
     RDKit          3D

 27 29  0  0  0  0  0  0  0  0999 V2000
   38.7850   30.1160   40.8900 C   0  0  0  0  0  0  0  0  0  0  0  0
   39.0010   30.9940   39.8360 C   0  0  0  0  0  0  0  0  0  0  0  0
   37.9810   31.7900   39.3660 C   0  0  0  0  0  0  0  0  0  0  0  0
   36.7500   31.6950   39.9630 C   0  0  0  0  0  0  0  0  0  0  0  0
   36.5170   30.8290   41.0100 C   0  0  0  0  0  0  0  0  0  0  0  0
   37.5360   30.0380   41.4750 C   0  0  0  0  0  0  0  0  0  0  0  0
   41.4650   28.6930   42.9640 C   0  0  0  0  0  0  0  0  0  0  0  0
   41.8280   27.5580   42.2220 C   0  0  0  0  0  0  0  0  0  0  0  0
   41.1540   27.3090   41.0400 C   0  0  0  0  0  0  0  0  0  0  0  0
   40.1860   28.1720   40.6680 N   0  0  0  0  0  0  0  0  0  0  0  0
   39.8510   29.2660   41.4090 C   0  0  0  0  0  0  0  0  0  0  0  0
   40.4880   29.5240   42.5470 N   0  0  0  0  0  0  0  0  0  0  0  0
   37.2040   29.1440   42.5810 C   0  0  0  0  0  0  0  0  0  0  0  0
   36.5810   27.9460   42.2550 C   0  0  0  0  0  0  0  0  0  0  0  0
   36.3790   27.2920   43.4210 N   0  0  0  0  0  0  0  0  0  0  0  0
   36.8500   28.0340   44.4400 C   0  0  0  0  0  0  0  0  0  0  0  0
   37.3640   29.1860   43.9230 N   0  0  0  0  0  0  0  0  0  0  0  0
   39.9967   31.0540   39.3723 H   0  0  0  0  0  0  0  0  0  0  0  0
   38.1494   32.4861   38.5310 H   0  0  0  0  0  0  0  0  0  0  0  0
   35.9270   32.3263   39.5968 H   0  0  0  0  0  0  0  0  0  0  0  0
   35.5193   30.7729   41.4698 H   0  0  0  0  0  0  0  0  0  0  0  0
   41.9891   28.9095   43.9066 H   0  0  0  0  0  0  0  0  0  0  0  0
   42.6258   26.8857   42.5706 H   0  0  0  0  0  0  0  0  0  0  0  0
   41.4000   26.4332   40.4216 H   0  0  0  0  0  0  0  0  0  0  0  0
   36.3065   27.5984   41.2481 H   0  0  0  0  0  0  0  0  0  0  0  0
   36.8247   27.7589   45.5048 H   0  0  0  0  0  0  0  0  0  0  0  0
   37.7969   29.9516   44.4590 H   0  0  0  0  0  0  0  0  0  0  0  0
  1 11  1  0
  1  6  1  0
  2  1  2  0
  3  2  1  0
  3  4  2  0
  4  5  1  0
  5  6  2  0
  6 13  1  0
  8  7  2  0
  9  8  1  0
 10  9  2  0
 10 11  1  0
 11 12  2  0
 12  7  1  0
 13 17  1  0
 14 13  2  0
 14 15  1  0
 15 16  2  0
 17 16  1  0
  2 18  1  0
  3 19  1  0
  4 20  1  0
  5 21  1  0
  7 22  1  0
  8 23  1  0
  9 24  1  0
 14 25  1  0
 16 26  1  0
 17 27  1  0
M  ISO  8  18  14  19  14  20  14  21  14  22  14  23  14  24  14  25  14
M  ISO  2  26  14  27   9
M  END
>  <minimizedAffinity>  (1) 
-4.6277895

>  <minimizedRMSD>  (1) 
3.74730372

$$$$
