
     RDKit          3D

 25 27  0  0  0  0  0  0  0  0999 V2000
   37.8880   30.6020   41.2860 C   0  0  0  0  0  0  0  0  0  0  0  0
   36.8720   31.3250   40.6360 C   0  0  0  0  0  0  0  0  0  0  0  0
   37.1260   32.5450   40.0720 C   0  0  0  0  0  0  0  0  0  0  0  0
   38.3910   33.0530   40.1520 C   0  0  0  0  0  0  0  0  0  0  0  0
   39.4010   32.3340   40.7970 C   0  0  0  0  0  0  0  0  0  0  0  0
   39.1640   31.0890   41.3760 C   0  0  0  0  0  0  0  0  0  0  0  0
   37.1970   27.9920   43.7930 C   0  0  0  0  0  0  0  0  0  0  0  0
   36.9720   26.8690   42.9640 C   0  0  0  0  0  0  0  0  0  0  0  0
   37.0650   27.0230   41.5700 C   0  0  0  0  0  0  0  0  0  0  0  0
   37.3710   28.2550   41.0760 N   0  0  0  0  0  0  0  0  0  0  0  0
   37.5830   29.3190   41.9140 C   0  0  0  0  0  0  0  0  0  0  0  0
   37.4910   29.1580   43.2270 N   0  0  0  0  0  0  0  0  0  0  0  0
   40.3390   30.4730   41.9740 C   0  0  0  0  0  0  0  0  0  0  0  0
   41.1150   31.1320   42.8430 N   0  0  0  0  0  0  0  0  0  0  0  0
   42.1150   30.4200   43.2410 O   0  0  0  0  0  0  0  0  0  0  0  0
   42.0610   29.2550   42.6610 C   0  0  0  0  0  0  0  0  0  0  0  0
   40.9800   29.3170   41.9030 N   0  0  0  0  0  0  0  0  0  0  0  0
   35.8577   30.9031   40.5803 H   0  0  0  0  0  0  0  0  0  0  0  0
   36.3273   33.1056   39.5642 H   0  0  0  0  0  0  0  0  0  0  0  0
   38.6162   34.0332   39.7065 H   0  0  0  0  0  0  0  0  0  0  0  0
   40.4124   32.7634   40.8491 H   0  0  0  0  0  0  0  0  0  0  0  0
   37.1299   27.9022   44.8873 H   0  0  0  0  0  0  0  0  0  0  0  0
   36.7280   25.8903   43.4030 H   0  0  0  0  0  0  0  0  0  0  0  0
   36.8951   26.1708   40.8955 H   0  0  0  0  0  0  0  0  0  0  0  0
   42.7571   28.4111   42.7759 H   0  0  0  0  0  0  0  0  0  0  0  0
  1  6  1  0
  1 11  1  0
  2  1  2  0
  3  4  2  0
  3  2  1  0
  4  5  1  0
  5  6  2  0
  6 13  1  0
  8  7  2  0
  9  8  1  0
 10  9  2  0
 10 11  1  0
 11 12  2  0
 12  7  1  0
 13 14  2  0
 14 15  1  0
 16 15  1  0
 17 13  1  0
 17 16  2  0
  2 18  1  0
  3 19  1  0
  4 20  1  0
  5 21  1  0
  7 22  1  0
  8 23  1  0
  9 24  1  0
 16 25  1  0
M  ISO  8  18  14  19  14  20  14  21  14  22  14  23  14  24  14  25  14
M  END
>  <minimizedAffinity>  (1) 
-4.46377707

>  <minimizedRMSD>  (1) 
1.10499036

$$$$
