
     RDKit          3D

 27 29  0  0  0  0  0  0  0  0999 V2000
   37.8830   30.5790   41.3440 C   0  0  0  0  0  0  0  0  0  0  0  0
   36.9510   31.2460   40.5550 C   0  0  0  0  0  0  0  0  0  0  0  0
   37.2080   32.5010   40.0430 C   0  0  0  0  0  0  0  0  0  0  0  0
   38.4350   33.0740   40.3460 C   0  0  0  0  0  0  0  0  0  0  0  0
   39.3610   32.4250   41.1240 C   0  0  0  0  0  0  0  0  0  0  0  0
   39.0940   31.1800   41.6260 C   0  0  0  0  0  0  0  0  0  0  0  0
   37.0630   27.8230   43.6130 C   0  0  0  0  0  0  0  0  0  0  0  0
   37.0380   26.7260   42.7460 C   0  0  0  0  0  0  0  0  0  0  0  0
   37.3020   26.9500   41.4080 C   0  0  0  0  0  0  0  0  0  0  0  0
   37.5670   28.2170   41.0180 N   0  0  0  0  0  0  0  0  0  0  0  0
   37.5850   29.2540   41.8720 C   0  0  0  0  0  0  0  0  0  0  0  0
   37.3320   29.0670   43.1830 N   0  0  0  0  0  0  0  0  0  0  0  0
   40.1010   30.4860   42.4650 C   0  0  0  0  0  0  0  0  0  0  0  0
   41.4350   31.1170   42.7140 C   0  0  0  0  0  0  0  0  0  0  0  0
   41.3160   29.8990   41.8370 C   0  0  0  0  0  0  0  0  0  0  0  0
   35.9881   30.7620   40.3346 H   0  0  0  0  0  0  0  0  0  0  0  0
   36.4697   33.0265   39.4194 H   0  0  0  0  0  0  0  0  0  0  0  0
   38.6715   34.0737   39.9527 H   0  0  0  0  0  0  0  0  0  0  0  0
   40.3239   32.9086   41.3455 H   0  0  0  0  0  0  0  0  0  0  0  0
   36.8558   27.6621   44.6813 H   0  0  0  0  0  0  0  0  0  0  0  0
   36.8149   25.7151   43.1178 H   0  0  0  0  0  0  0  0  0  0  0  0
   37.2967   26.1229   40.6828 H   0  0  0  0  0  0  0  0  0  0  0  0
   39.2964   30.0987   43.1073 H   0  0  0  0  0  0  0  0  0  0  0  0
   41.6740   32.0948   42.2704 H   0  0  0  0  0  0  0  0  0  0  0  0
   42.0191   31.3820   43.6076 H   0  0  0  0  0  0  0  0  0  0  0  0
   41.7021   28.9300   42.1861 H   0  0  0  0  0  0  0  0  0  0  0  0
   41.6164   29.6482   40.8090 H   0  0  0  0  0  0  0  0  0  0  0  0
  1  6  1  0
  1 11  1  0
  2  1  2  0
  3  4  2  0
  3  2  1  0
  4  5  1  0
  5  6  2  0
  6 13  1  0
  8  7  2  0
  9  8  1  0
 10  9  2  0
 10 11  1  0
 11 12  2  0
 12  7  1  0
 13 14  1  0
 15 13  1  0
 15 14  1  0
  2 16  1  0
  3 17  1  0
  4 18  1  0
  5 19  1  0
  7 20  1  0
  8 21  1  0
  9 22  1  0
 13 23  1  0
 14 24  1  0
 14 25  1  0
 15 26  1  0
 15 27  1  0
M  ISO  8  16  14  17  14  18  14  19  14  20  14  21  14  22  14  23  13
M  ISO  4  24  13  25  13  26  13  27  13
M  END
>  <minimizedAffinity>  (1) 
-4.37661076

>  <minimizedRMSD>  (1) 
1.23730981

$$$$
