
     RDKit          3D

 21 22  0  0  0  0  0  0  0  0999 V2000
   37.8790   31.2940   41.0450 C   0  0  0  0  0  0  0  0  0  0  0  0
   37.0100   31.8160   40.1140 C   0  0  0  0  0  0  0  0  0  0  0  0
   37.2110   33.0300   39.5090 C   0  0  0  0  0  0  0  0  0  0  0  0
   38.3360   33.7360   39.8640 C   0  0  0  0  0  0  0  0  0  0  0  0
   39.2210   33.2440   40.7900 C   0  0  0  0  0  0  0  0  0  0  0  0
   39.0020   32.0150   41.3910 C   0  0  0  0  0  0  0  0  0  0  0  0
   37.8770   28.4940   43.4300 C   0  0  0  0  0  0  0  0  0  0  0  0
   37.1420   27.5330   42.7400 C   0  0  0  0  0  0  0  0  0  0  0  0
   36.6690   27.8690   41.4840 C   0  0  0  0  0  0  0  0  0  0  0  0
   36.9340   29.0970   40.9790 N   0  0  0  0  0  0  0  0  0  0  0  0
   37.6520   30.0060   41.6760 C   0  0  0  0  0  0  0  0  0  0  0  0
   38.1240   29.7070   42.9010 N   0  0  0  0  0  0  0  0  0  0  0  0
   39.8710   31.4780   42.3330 O   0  0  0  0  0  0  0  0  0  0  0  0
   36.1162   31.2345   39.8438 H   0  0  0  0  0  0  0  0  0  0  0  0
   36.4996   33.4238   38.7682 H   0  0  0  0  0  0  0  0  0  0  0  0
   38.5302   34.7130   39.3973 H   0  0  0  0  0  0  0  0  0  0  0  0
   40.1123   33.8305   41.0576 H   0  0  0  0  0  0  0  0  0  0  0  0
   38.2650   28.2561   44.4314 H   0  0  0  0  0  0  0  0  0  0  0  0
   36.9448   26.5432   43.1776 H   0  0  0  0  0  0  0  0  0  0  0  0
   36.0823   27.1443   40.9004 H   0  0  0  0  0  0  0  0  0  0  0  0
   40.6840   31.9770   42.5976 H   0  0  0  0  0  0  0  0  0  0  0  0
  1  6  1  0
  1 11  1  0
  2  1  2  0
  3  4  2  0
  3  2  1  0
  4  5  1  0
  5  6  2  0
  6 13  1  0
  8  7  2  0
  9  8  1  0
 10  9  2  0
 10 11  1  0
 11 12  2  0
 12  7  1  0
  2 14  1  0
  3 15  1  0
  4 16  1  0
  5 17  1  0
  7 18  1  0
  8 19  1  0
  9 20  1  0
 13 21  1  0
M  ISO  8  14  14  15  14  16  14  17  14  18  14  19  14  20  14  21   3
M  END
>  <minimizedAffinity>  (1) 
-4.31690264

>  <minimizedRMSD>  (1) 
0.22578758

$$$$
