
     RDKit          3D

 22 23  0  0  0  0  0  0  0  0999 V2000
   37.7340   30.6450   41.2340 C   0  0  0  0  0  0  0  0  0  0  0  0
   36.7750   31.3380   40.5340 C   0  0  0  0  0  0  0  0  0  0  0  0
   37.0460   32.5630   39.9730 C   0  0  0  0  0  0  0  0  0  0  0  0
   38.2880   33.1120   40.1060 C   0  0  0  0  0  0  0  0  0  0  0  0
   39.2610   32.4390   40.8010 C   0  0  0  0  0  0  0  0  0  0  0  0
   38.9640   31.2220   41.3480 C   0  0  0  0  0  0  0  0  0  0  0  0
   37.2030   27.9300   43.6430 C   0  0  0  0  0  0  0  0  0  0  0  0
   37.0190   26.8280   42.7960 C   0  0  0  0  0  0  0  0  0  0  0  0
   37.0840   27.0520   41.4290 C   0  0  0  0  0  0  0  0  0  0  0  0
   37.3180   28.3080   40.9780 N   0  0  0  0  0  0  0  0  0  0  0  0
   37.4920   29.3540   41.8420 C   0  0  0  0  0  0  0  0  0  0  0  0
   37.4320   29.1520   43.1520 N   0  0  0  0  0  0  0  0  0  0  0  0
   40.1050   30.6490   42.0420 C   0  0  0  0  0  0  0  0  0  0  0  0
   40.7740   31.1180   42.9930 O   0  0  0  0  0  0  0  0  0  0  0  0
   35.7709   30.9034   40.4207 H   0  0  0  0  0  0  0  0  0  0  0  0
   36.2629   33.1000   39.4177 H   0  0  0  0  0  0  0  0  0  0  0  0
   38.5087   34.0917   39.6572 H   0  0  0  0  0  0  0  0  0  0  0  0
   40.2654   32.8725   40.9163 H   0  0  0  0  0  0  0  0  0  0  0  0
   37.1580   27.7862   44.7326 H   0  0  0  0  0  0  0  0  0  0  0  0
   36.8301   25.8228   43.2008 H   0  0  0  0  0  0  0  0  0  0  0  0
   36.9475   26.2215   40.7207 H   0  0  0  0  0  0  0  0  0  0  0  0
   40.4283   29.6615   41.6809 H   0  0  0  0  0  0  0  0  0  0  0  0
  1  6  1  0
  1 11  1  0
  2  1  2  0
  3  4  2  0
  3  2  1  0
  4  5  1  0
  5  6  2  0
  6 13  1  0
  8  7  2  0
  9  8  1  0
 10  9  2  0
 10 11  1  0
 11 12  2  0
 12  7  1  0
 13 14  2  0
  2 15  1  0
  3 16  1  0
  4 17  1  0
  5 18  1  0
  7 19  1  0
  8 20  1  0
  9 21  1  0
 13 22  1  0
M  ISO  8  15  14  16  14  17  14  18  14  19  14  20  14  21  14  22   6
M  END
>  <minimizedAffinity>  (1) 
-4.11112642

>  <minimizedRMSD>  (1) 
0.888228834

$$$$
