
     RDKit          3D

 36 38  0  0  0  0  0  0  0  0999 V2000
   37.2870   28.2360   43.8010 C   0  0  0  0  0  0  0  0  0  0  0  0
   37.2000   27.0570   43.0860 C   0  0  0  0  0  0  0  0  0  0  0  0
   37.3080   27.1370   41.7090 C   0  0  0  0  0  0  0  0  0  0  0  0
   37.4920   28.3380   41.1260 N   0  0  0  0  0  0  0  0  0  0  0  0
   37.5730   29.4880   41.8640 C   0  0  0  0  0  0  0  0  0  0  0  0
   37.4700   29.4030   43.1710 N   0  0  0  0  0  0  0  0  0  0  0  0
   37.2480   26.0500   40.7640 N   0  0  0  0  0  0  0  0  0  0  0  0
   37.5120   24.7610   41.0280 C   0  0  0  0  0  0  0  0  0  0  0  0
   37.4140   23.8260   40.0270 C   0  0  0  0  0  0  0  0  0  0  0  0
   37.7040   22.4190   40.3160 C   0  0  0  0  0  0  0  0  0  0  0  0
   37.0410   24.2400   38.7540 C   0  0  0  0  0  0  0  0  0  0  0  0
   36.9510   23.3730   37.8330 O   0  0  0  0  0  0  0  0  0  0  0  0
   36.7820   25.5600   38.5360 N   0  0  0  0  0  0  0  0  0  0  0  0
   36.8870   26.4640   39.5450 C   0  0  0  0  0  0  0  0  0  0  0  0
   36.6100   27.6110   39.1400 O   0  0  0  0  0  0  0  0  0  0  0  0
   37.7730   30.7490   41.1500 C   0  0  0  0  0  0  0  0  0  0  0  0
   36.7600   31.2670   40.3500 C   0  0  0  0  0  0  0  0  0  0  0  0
   36.9530   32.4570   39.6770 C   0  0  0  0  0  0  0  0  0  0  0  0
   38.1440   33.0960   39.8180 C   0  0  0  0  0  0  0  0  0  0  0  0
   39.1360   32.5780   40.6080 C   0  0  0  0  0  0  0  0  0  0  0  0
   38.9610   31.3960   41.2840 C   0  0  0  0  0  0  0  0  0  0  0  0
   40.1260   30.9550   42.1050 C   0  0  0  0  0  0  0  0  0  0  0  0
   41.2710   31.6950   41.8640 F   0  0  0  0  0  0  0  0  0  0  0  0
   40.3560   29.6050   42.0360 F   0  0  0  0  0  0  0  0  0  0  0  0
   39.8670   31.1870   43.4670 F   0  0  0  0  0  0  0  0  0  0  0  0
   37.2052   28.2156   44.8978 H   0  0  0  0  0  0  0  0  0  0  0  0
   37.0506   26.0918   43.5921 H   0  0  0  0  0  0  0  0  0  0  0  0
   37.8059   24.4544   42.0427 H   0  0  0  0  0  0  0  0  0  0  0  0
   37.7353   22.2673   41.4050 H   0  0  0  0  0  0  0  0  0  0  0  0
   36.9176   21.7855   39.8800 H   0  0  0  0  0  0  0  0  0  0  0  0
   38.6769   22.1481   39.8800 H   0  0  0  0  0  0  0  0  0  0  0  0
   36.5036   25.8759   37.5960 H   0  0  0  0  0  0  0  0  0  0  0  0
   35.8055   30.7288   40.2535 H   0  0  0  0  0  0  0  0  0  0  0  0
   36.1605   32.8783   39.0410 H   0  0  0  0  0  0  0  0  0  0  0  0
   38.3144   34.0452   39.2888 H   0  0  0  0  0  0  0  0  0  0  0  0
   40.0894   33.1185   40.7024 H   0  0  0  0  0  0  0  0  0  0  0  0
  2  1  2  0
  3  2  1  0
  4  3  2  0
  4  5  1  0
  5  6  2  0
  6  1  1  0
  7  8  1  0
  7  3  1  0
  9 10  1  0
  9  8  2  0
 11  9  1  0
 12 11  2  0
 13 11  1  0
 13 14  1  0
 14  7  1  0
 15 14  2  0
 16 21  1  0
 16  5  1  0
 17 16  2  0
 18 19  2  0
 18 17  1  0
 19 20  1  0
 20 21  2  0
 21 22  1  0
 22 25  1  0
 23 22  1  0
 24 22  1  0
  1 26  1  0
  2 27  1  0
  8 28  1  0
 10 29  1  0
 10 30  1  0
 10 31  1  0
 13 32  1  0
 17 33  1  0
 18 34  1  0
 19 35  1  0
 20 36  1  0
M  ISO  8  26  14  27  14  28  14  29   8  30   8  31   8  32   9  33  14
M  ISO  3  34  14  35  14  36  14
M  END
>  <minimizedAffinity>  (1) 
-5.97063494

>  <minimizedRMSD>  (1) 
1.16558063

$$$$
