
     RDKit          3D

 22 23  0  0  0  0  0  0  0  0999 V2000
   37.1120   26.6620   40.2340 C   0  0  0  0  0  0  0  0  0  0  0  0
   36.3700   25.9370   39.3260 C   0  0  0  0  0  0  0  0  0  0  0  0
   36.9710   24.7040   39.3080 C   0  0  0  0  0  0  0  0  0  0  0  0
   38.0220   24.6710   40.1550 N   0  0  0  0  0  0  0  0  0  0  0  0
   38.1120   25.8780   40.7280 N   0  0  0  0  0  0  0  0  0  0  0  0
   37.5550   28.7660   41.5300 C   0  0  0  0  0  0  0  0  0  0  0  0
   36.8470   28.0450   40.5890 C   0  0  0  0  0  0  0  0  0  0  0  0
   35.7860   28.6930   39.9210 C   0  0  0  0  0  0  0  0  0  0  0  0
   35.5320   30.0060   40.2560 N   0  0  0  0  0  0  0  0  0  0  0  0
   36.2710   30.6580   41.1960 C   0  0  0  0  0  0  0  0  0  0  0  0
   37.2960   30.0290   41.8400 N   0  0  0  0  0  0  0  0  0  0  0  0
   38.8430   23.5130   40.3500 C   0  0  0  0  0  0  0  0  0  0  0  0
   38.0920   22.5800   41.1770 N   0  0  0  0  0  0  0  0  0  0  0  0
   35.4957   26.2710   38.7480 H   0  0  0  0  0  0  0  0  0  0  0  0
   36.6415   23.8573   38.6879 H   0  0  0  0  0  0  0  0  0  0  0  0
   38.3820   28.2634   42.0529 H   0  0  0  0  0  0  0  0  0  0  0  0
   35.1848   28.1706   39.1623 H   0  0  0  0  0  0  0  0  0  0  0  0
   36.0384   31.7053   41.4391 H   0  0  0  0  0  0  0  0  0  0  0  0
   39.0772   23.0507   39.3797 H   0  0  0  0  0  0  0  0  0  0  0  0
   39.7907   23.7868   40.8367 H   0  0  0  0  0  0  0  0  0  0  0  0
   38.2608   22.7897   42.1712 H   0  0  0  0  0  0  0  0  0  0  0  0
   37.0867   22.6723   40.9725 H   0  0  0  0  0  0  0  0  0  0  0  0
  1  7  1  0
  1  5  2  0
  2  1  1  0
  3  2  2  0
  3  4  1  0
  4 12  1  0
  4  5  1  0
  6 11  2  0
  7  6  1  0
  8  9  1  0
  8  7  2  0
  9 10  2  0
 10 11  1  0
 12 13  1  0
  2 14  1  0
  3 15  1  0
  6 16  1  0
  8 17  1  0
 10 18  1  0
 12 19  1  0
 12 20  1  0
 13 21  1  0
 13 22  1  0
M  ISO  8  14  14  15  14  16  14  17  14  18  14  19   8  20   8  21   5
M  ISO  1  22   5
M  END
>  <minimizedAffinity>  (1) 
-3.24117041

>  <minimizedRMSD>  (1) 
0.656189084

$$$$
