
     RDKit          3D

 36 38  0  0  0  0  0  0  0  0999 V2000
   37.3440   28.3540   43.8920 C   0  0  0  0  0  0  0  0  0  0  0  0
   37.1450   27.1690   43.1960 C   0  0  0  0  0  0  0  0  0  0  0  0
   37.1690   27.2130   41.8270 C   0  0  0  0  0  0  0  0  0  0  0  0
   37.3830   28.3860   41.2050 N   0  0  0  0  0  0  0  0  0  0  0  0
   37.5770   29.5420   41.9090 C   0  0  0  0  0  0  0  0  0  0  0  0
   37.5520   29.4890   43.2190 N   0  0  0  0  0  0  0  0  0  0  0  0
   37.8020   30.7690   41.1550 C   0  0  0  0  0  0  0  0  0  0  0  0
   36.7950   31.2890   40.3390 C   0  0  0  0  0  0  0  0  0  0  0  0
   37.0030   32.4470   39.6250 C   0  0  0  0  0  0  0  0  0  0  0  0
   38.2100   33.0670   39.7350 C   0  0  0  0  0  0  0  0  0  0  0  0
   39.1930   32.5560   40.5340 C   0  0  0  0  0  0  0  0  0  0  0  0
   39.0130   31.4010   41.2580 C   0  0  0  0  0  0  0  0  0  0  0  0
   40.1530   30.9550   42.0810 C   0  0  0  0  0  0  0  0  0  0  0  0
   41.3080   31.6920   41.8450 F   0  0  0  0  0  0  0  0  0  0  0  0
   40.3820   29.6090   42.0400 F   0  0  0  0  0  0  0  0  0  0  0  0
   39.8870   31.2200   43.4450 F   0  0  0  0  0  0  0  0  0  0  0  0
   36.6480   23.6260   39.5610 C   0  0  0  0  0  0  0  0  0  0  0  0
   37.0330   23.5900   40.8820 C   0  0  0  0  0  0  0  0  0  0  0  0
   37.1800   24.7880   41.5440 C   0  0  0  0  0  0  0  0  0  0  0  0
   36.9730   26.0390   41.0000 C   0  0  0  0  0  0  0  0  0  0  0  0
   36.5910   26.0580   39.6850 C   0  0  0  0  0  0  0  0  0  0  0  0
   36.4300   24.8720   38.9730 C   0  0  0  0  0  0  0  0  0  0  0  0
   36.4440   22.1390   38.6620 S   0  0  0  0  0  0  0  0  0  0  0  0
   35.0120   21.8250   38.3800 O   0  0  0  0  0  0  0  0  0  0  0  0
   37.1380   21.0180   39.3880 O   0  0  0  0  0  0  0  0  0  0  0  0
   37.3304   28.3581   44.9919 H   0  0  0  0  0  0  0  0  0  0  0  0
   36.9730   26.2221   43.7287 H   0  0  0  0  0  0  0  0  0  0  0  0
   35.8283   30.7691   40.2664 H   0  0  0  0  0  0  0  0  0  0  0  0
   36.2133   32.8615   38.9812 H   0  0  0  0  0  0  0  0  0  0  0  0
   38.3965   33.9934   39.1720 H   0  0  0  0  0  0  0  0  0  0  0  0
   40.1560   33.0835   40.6001 H   0  0  0  0  0  0  0  0  0  0  0  0
   37.2175   22.6335   41.3929 H   0  0  0  0  0  0  0  0  0  0  0  0
   37.4895   24.7441   42.5987 H   0  0  0  0  0  0  0  0  0  0  0  0
   36.4093   27.0210   39.1855 H   0  0  0  0  0  0  0  0  0  0  0  0
   36.1225   24.9191   37.9179 H   0  0  0  0  0  0  0  0  0  0  0  0
   37.0253   22.2993   37.4319 H   0  0  0  0  0  0  0  0  0  0  0  0
  2  1  2  0
  3  2  1  0
  4  3  2  0
  4  5  1  0
  5  6  2  0
  6  1  1  0
  7 12  1  0
  7  5  1  0
  8  7  2  0
  9 10  2  0
  9  8  1  0
 10 11  1  0
 11 12  2  0
 12 13  1  0
 13 16  1  0
 14 13  1  0
 15 13  1  0
 17 18  2  0
 18 19  1  0
 20 19  2  0
 20  3  1  0
 21 20  1  0
 22 17  1  0
 22 21  2  0
 23 25  2  0
 23 17  1  0
 24 23  2  0
  1 26  1  0
  2 27  1  0
  8 28  1  0
  9 29  1  0
 10 30  1  0
 11 31  1  0
 18 32  1  0
 19 33  1  0
 21 34  1  0
 22 35  1  0
 23 36  1  0
M  ISO  8  26  14  27  14  28  14  29  14  30  14  31  14  32  14  33  14
M  ISO  3  34  14  35  14  36  11
M  END
>  <minimizedAffinity>  (1) 
-5.7608223

>  <minimizedRMSD>  (1) 
1.55969775

$$$$
