
     RDKit          3D

 27 28  0  0  0  0  0  0  0  0999 V2000
   36.1920   27.7530   39.1650 C   0  0  0  0  0  0  0  0  0  0  0  0
   35.6800   27.3380   37.9400 C   0  0  0  0  0  0  0  0  0  0  0  0
   35.6810   25.9690   38.0400 C   0  0  0  0  0  0  0  0  0  0  0  0
   36.1580   25.5680   39.2410 N   0  0  0  0  0  0  0  0  0  0  0  0
   36.4650   26.6700   39.9150 N   0  0  0  0  0  0  0  0  0  0  0  0
   36.1360   29.6630   40.7930 C   0  0  0  0  0  0  0  0  0  0  0  0
   36.3840   29.1420   39.5360 C   0  0  0  0  0  0  0  0  0  0  0  0
   36.8500   30.0220   38.5670 C   0  0  0  0  0  0  0  0  0  0  0  0
   37.0440   31.3410   38.8790 N   0  0  0  0  0  0  0  0  0  0  0  0
   36.7760   31.7890   40.1520 C   0  0  0  0  0  0  0  0  0  0  0  0
   36.3170   30.9350   41.1140 N   0  0  0  0  0  0  0  0  0  0  0  0
   36.2560   24.1760   39.5800 C   0  0  0  0  0  0  0  0  0  0  0  0
   36.7190   24.0270   40.9440 N   0  0  0  0  0  0  0  0  0  0  0  0
   38.0710   23.7460   41.2370 C   0  0  0  0  0  0  0  0  0  0  0  0
   38.8790   23.5080   40.2840 N   0  0  0  0  0  0  0  0  0  0  0  0
   38.4810   23.7380   42.5940 N   0  0  0  0  0  0  0  0  0  0  0  0
   39.8800   23.2990   40.4750 H   0  0  0  0  0  0  0  0  0  0  0  0
   35.3524   27.9589   37.0931 H   0  0  0  0  0  0  0  0  0  0  0  0
   35.3388   25.2872   37.2475 H   0  0  0  0  0  0  0  0  0  0  0  0
   35.7665   28.9803   41.5723 H   0  0  0  0  0  0  0  0  0  0  0  0
   37.0628   29.6595   37.5505 H   0  0  0  0  0  0  0  0  0  0  0  0
   36.9336   32.8494   40.3983 H   0  0  0  0  0  0  0  0  0  0  0  0
   35.2665   23.7063   39.4784 H   0  0  0  0  0  0  0  0  0  0  0  0
   36.9726   23.6900   38.9016 H   0  0  0  0  0  0  0  0  0  0  0  0
   36.0467   24.1283   41.7178 H   0  0  0  0  0  0  0  0  0  0  0  0
   39.4619   23.5358   42.8344 H   0  0  0  0  0  0  0  0  0  0  0  0
   37.7980   23.9344   43.3395 H   0  0  0  0  0  0  0  0  0  0  0  0
  1  7  1  0
  1  5  2  0
  2  3  2  0
  2  1  1  0
  3  4  1  0
  4 12  1  0
  4  5  1  0
  6 11  2  0
  7  6  1  0
  8  9  1  0
  8  7  2  0
  9 10  2  0
 10 11  1  0
 12 13  1  0
 13 14  1  0
 14 16  1  0
 15 17  1  0
 15 14  2  0
  2 18  1  0
  3 19  1  0
  6 20  1  0
  8 21  1  0
 10 22  1  0
 12 23  1  0
 12 24  1  0
 13 25  1  0
 16 26  1  0
 16 27  1  0
M  ISO  7  18  14  19  14  20  14  21  14  22  14  23   8  24   8
M  END
>  <minimizedAffinity>  (1) 
-3.73293543

>  <minimizedRMSD>  (1) 
2.24708366

$$$$
