
     RDKit          3D

 31 33  0  0  0  0  0  0  0  0999 V2000
   37.3160   28.2860   43.8130 C   0  0  0  0  0  0  0  0  0  0  0  0
   37.1290   27.1160   43.0750 C   0  0  0  0  0  0  0  0  0  0  0  0
   37.1730   27.2160   41.7100 C   0  0  0  0  0  0  0  0  0  0  0  0
   37.3870   28.3980   41.1120 N   0  0  0  0  0  0  0  0  0  0  0  0
   37.5670   29.5290   41.8580 C   0  0  0  0  0  0  0  0  0  0  0  0
   37.5280   29.4490   43.1790 N   0  0  0  0  0  0  0  0  0  0  0  0
   37.7960   30.7830   41.1530 C   0  0  0  0  0  0  0  0  0  0  0  0
   36.7940   31.3320   40.3460 C   0  0  0  0  0  0  0  0  0  0  0  0
   36.9880   32.5120   39.6740 C   0  0  0  0  0  0  0  0  0  0  0  0
   38.2020   33.1380   39.8180 C   0  0  0  0  0  0  0  0  0  0  0  0
   39.1770   32.6010   40.6050 C   0  0  0  0  0  0  0  0  0  0  0  0
   38.9850   31.4240   41.2760 C   0  0  0  0  0  0  0  0  0  0  0  0
   40.1330   30.9480   42.1030 C   0  0  0  0  0  0  0  0  0  0  0  0
   41.2950   31.6720   41.8750 F   0  0  0  0  0  0  0  0  0  0  0  0
   40.3540   29.5920   42.0190 F   0  0  0  0  0  0  0  0  0  0  0  0
   39.8780   31.1770   43.4650 F   0  0  0  0  0  0  0  0  0  0  0  0
   36.9780   25.9980   40.9350 C   0  0  0  0  0  0  0  0  0  0  0  0
   37.1000   24.7260   41.4570 C   0  0  0  0  0  0  0  0  0  0  0  0
   36.9020   23.6180   40.6580 C   0  0  0  0  0  0  0  0  0  0  0  0
   36.5890   23.8260   39.3670 N   0  0  0  0  0  0  0  0  0  0  0  0
   36.4600   25.0510   38.8140 C   0  0  0  0  0  0  0  0  0  0  0  0
   36.6640   26.0960   39.6340 N   0  0  0  0  0  0  0  0  0  0  0  0
   37.2896   28.2544   44.9122 H   0  0  0  0  0  0  0  0  0  0  0  0
   36.9529   26.1502   43.5712 H   0  0  0  0  0  0  0  0  0  0  0  0
   35.8321   30.8074   40.2484 H   0  0  0  0  0  0  0  0  0  0  0  0
   36.1979   32.9424   39.0411 H   0  0  0  0  0  0  0  0  0  0  0  0
   38.3900   34.0852   39.2913 H   0  0  0  0  0  0  0  0  0  0  0  0
   40.1391   33.1253   40.7028 H   0  0  0  0  0  0  0  0  0  0  0  0
   37.3571   24.5943   42.5184 H   0  0  0  0  0  0  0  0  0  0  0  0
   36.9970   22.5999   41.0635 H   0  0  0  0  0  0  0  0  0  0  0  0
   36.2027   25.1859   37.7531 H   0  0  0  0  0  0  0  0  0  0  0  0
  2  1  2  0
  3  2  1  0
  4  3  2  0
  4  5  1  0
  5  6  2  0
  6  1  1  0
  7 12  1  0
  7  5  1  0
  8  7  2  0
  9 10  2  0
  9  8  1  0
 10 11  1  0
 11 12  2  0
 12 13  1  0
 13 16  1  0
 14 13  1  0
 15 13  1  0
 17 18  2  0
 17  3  1  0
 19 18  1  0
 20 19  2  0
 21 20  1  0
 21 22  2  0
 22 17  1  0
  1 23  1  0
  2 24  1  0
  8 25  1  0
  9 26  1  0
 10 27  1  0
 11 28  1  0
 18 29  1  0
 19 30  1  0
 21 31  1  0
M  ISO  8  23  14  24  14  25  14  26  14  27  14  28  14  29  14  30  14
M  ISO  1  31  14
M  END
>  <minimizedAffinity>  (1) 
-5.42828512

>  <minimizedRMSD>  (1) 
1.23919952

$$$$
