
     RDKit          3D

 30 32  0  0  0  0  0  0  0  0999 V2000
   37.7800   30.6480   41.1190 C   0  0  0  0  0  0  0  0  0  0  0  0
   36.7700   31.1220   40.2710 C   0  0  0  0  0  0  0  0  0  0  0  0
   36.9660   32.2620   39.5290 C   0  0  0  0  0  0  0  0  0  0  0  0
   38.1650   32.9110   39.6480 C   0  0  0  0  0  0  0  0  0  0  0  0
   39.1420   32.4380   40.4790 C   0  0  0  0  0  0  0  0  0  0  0  0
   38.9590   31.3020   41.2220 C   0  0  0  0  0  0  0  0  0  0  0  0
   37.2780   28.2890   43.9020 C   0  0  0  0  0  0  0  0  0  0  0  0
   37.1350   27.0780   43.2520 C   0  0  0  0  0  0  0  0  0  0  0  0
   37.2130   27.0900   41.8840 C   0  0  0  0  0  0  0  0  0  0  0  0
   37.4210   28.2520   41.2290 N   0  0  0  0  0  0  0  0  0  0  0  0
   37.5570   29.4330   41.9020 C   0  0  0  0  0  0  0  0  0  0  0  0
   37.4840   29.4330   43.2200 N   0  0  0  0  0  0  0  0  0  0  0  0
   37.0890   25.9240   41.0140 C   0  0  0  0  0  0  0  0  0  0  0  0
   36.9270   24.6550   41.5660 C   0  0  0  0  0  0  0  0  0  0  0  0
   36.8360   23.7340   40.5440 C   0  0  0  0  0  0  0  0  0  0  0  0
   36.9490   24.5090   39.3950 C   0  0  0  0  0  0  0  0  0  0  0  0
   37.0960   25.7860   39.7200 O   0  0  0  0  0  0  0  0  0  0  0  0
   40.1020   30.9020   42.0830 C   0  0  0  0  0  0  0  0  0  0  0  0
   41.2520   31.6380   41.8430 F   0  0  0  0  0  0  0  0  0  0  0  0
   40.3450   29.5420   42.0800 F   0  0  0  0  0  0  0  0  0  0  0  0
   39.8160   31.1900   43.4270 F   0  0  0  0  0  0  0  0  0  0  0  0
   35.8160   30.5791   40.1990 H   0  0  0  0  0  0  0  0  0  0  0  0
   36.1813   32.6421   38.8584 H   0  0  0  0  0  0  0  0  0  0  0  0
   38.3453   33.8270   39.0662 H   0  0  0  0  0  0  0  0  0  0  0  0
   40.0956   32.9814   40.5525 H   0  0  0  0  0  0  0  0  0  0  0  0
   37.2225   28.3199   45.0002 H   0  0  0  0  0  0  0  0  0  0  0  0
   36.9658   26.1445   43.8088 H   0  0  0  0  0  0  0  0  0  0  0  0
   36.8795   24.4256   42.6408 H   0  0  0  0  0  0  0  0  0  0  0  0
   36.7051   22.6444   40.6196 H   0  0  0  0  0  0  0  0  0  0  0  0
   36.9206   24.1195   38.3667 H   0  0  0  0  0  0  0  0  0  0  0  0
  1  6  1  0
  1 11  1  0
  2  1  2  0
  3  4  2  0
  3  2  1  0
  4  5  1  0
  5  6  2  0
  6 18  1  0
  8  7  2  0
  9  8  1  0
 10  9  2  0
 10 11  1  0
 11 12  2  0
 12  7  1  0
 13 14  2  0
 13  9  1  0
 15 14  1  0
 16 17  1  0
 16 15  2  0
 17 13  1  0
 18 21  1  0
 19 18  1  0
 20 18  1  0
  2 22  1  0
  3 23  1  0
  4 24  1  0
  5 25  1  0
  7 26  1  0
  8 27  1  0
 14 28  1  0
 15 29  1  0
 16 30  1  0
M  ISO  8  22  14  23  14  24  14  25  14  26  14  27  14  28  14  29  14
M  ISO  1  30  14
M  END
>  <minimizedAffinity>  (1) 
-5.31812716

>  <minimizedRMSD>  (1) 
1.16591692

$$$$
