
     RDKit          3D

 30 32  0  0  0  0  0  0  0  0999 V2000
   37.2810   28.2700   43.9280 C   0  0  0  0  0  0  0  0  0  0  0  0
   37.2540   27.0420   43.2840 C   0  0  0  0  0  0  0  0  0  0  0  0
   37.4160   27.0360   41.9220 C   0  0  0  0  0  0  0  0  0  0  0  0
   37.5940   28.1970   41.2450 N   0  0  0  0  0  0  0  0  0  0  0  0
   37.6140   29.3930   41.9200 C   0  0  0  0  0  0  0  0  0  0  0  0
   37.4590   29.3990   43.2280 N   0  0  0  0  0  0  0  0  0  0  0  0
   37.8080   30.6040   41.1410 C   0  0  0  0  0  0  0  0  0  0  0  0
   36.7940   31.0600   40.2840 C   0  0  0  0  0  0  0  0  0  0  0  0
   36.9680   32.2120   39.5390 C   0  0  0  0  0  0  0  0  0  0  0  0
   38.1620   32.8870   39.6670 C   0  0  0  0  0  0  0  0  0  0  0  0
   39.1380   32.4310   40.5030 C   0  0  0  0  0  0  0  0  0  0  0  0
   38.9760   31.2950   41.2440 C   0  0  0  0  0  0  0  0  0  0  0  0
   40.1290   30.9180   42.1150 C   0  0  0  0  0  0  0  0  0  0  0  0
   41.2670   31.6770   41.8740 F   0  0  0  0  0  0  0  0  0  0  0  0
   40.4040   29.5660   42.1180 F   0  0  0  0  0  0  0  0  0  0  0  0
   39.8350   31.2070   43.4530 F   0  0  0  0  0  0  0  0  0  0  0  0
   37.3960   25.7670   41.1980 C   0  0  0  0  0  0  0  0  0  0  0  0
   36.9420   24.5420   41.5900 C   0  0  0  0  0  0  0  0  0  0  0  0
   37.1330   23.6460   40.5630 C   0  0  0  0  0  0  0  0  0  0  0  0
   37.7120   24.3510   39.5480 N   0  0  0  0  0  0  0  0  0  0  0  0
   37.8580   25.6040   39.9450 N   0  0  0  0  0  0  0  0  0  0  0  0
   37.1556   28.3177   45.0198 H   0  0  0  0  0  0  0  0  0  0  0  0
   37.1080   26.1071   43.8449 H   0  0  0  0  0  0  0  0  0  0  0  0
   35.8529   30.4961   40.2044 H   0  0  0  0  0  0  0  0  0  0  0  0
   36.1785   32.5775   38.8659 H   0  0  0  0  0  0  0  0  0  0  0  0
   38.3304   33.8063   39.0869 H   0  0  0  0  0  0  0  0  0  0  0  0
   40.0804   32.9927   40.5827 H   0  0  0  0  0  0  0  0  0  0  0  0
   36.4958   24.3083   42.5679 H   0  0  0  0  0  0  0  0  0  0  0  0
   36.8718   22.5775   40.5607 H   0  0  0  0  0  0  0  0  0  0  0  0
   37.9878   23.9724   38.6307 H   0  0  0  0  0  0  0  0  0  0  0  0
  2  1  2  0
  3  2  1  0
  4  5  1  0
  4  3  2  0
  5  6  2  0
  6  1  1  0
  7 12  1  0
  7  5  1  0
  8  7  2  0
  9 10  2  0
  9  8  1  0
 10 11  1  0
 11 12  2  0
 12 13  1  0
 13 15  1  0
 13 16  1  0
 14 13  1  0
 17 18  1  0
 17  3  1  0
 19 18  2  0
 20 21  1  0
 20 19  1  0
 21 17  2  0
  1 22  1  0
  2 23  1  0
  8 24  1  0
  9 25  1  0
 10 26  1  0
 11 27  1  0
 18 28  1  0
 19 29  1  0
 20 30  1  0
M  ISO  8  22  14  23  14  24  14  25  14  26  14  27  14  28  14  29  14
M  ISO  1  30   9
M  END
>  <minimizedAffinity>  (1) 
-5.20941925

>  <minimizedRMSD>  (1) 
1.10694301

$$$$
