
     RDKit          3D

 30 32  0  0  0  0  0  0  0  0999 V2000
   37.7740   30.7130   41.1040 C   0  0  0  0  0  0  0  0  0  0  0  0
   36.7770   31.2350   40.2770 C   0  0  0  0  0  0  0  0  0  0  0  0
   36.9830   32.4090   39.5870 C   0  0  0  0  0  0  0  0  0  0  0  0
   38.1820   33.0370   39.7390 C   0  0  0  0  0  0  0  0  0  0  0  0
   39.1660   32.5290   40.5530 C   0  0  0  0  0  0  0  0  0  0  0  0
   38.9660   31.3610   41.2410 C   0  0  0  0  0  0  0  0  0  0  0  0
   37.2360   28.2700   43.8150 C   0  0  0  0  0  0  0  0  0  0  0  0
   37.1200   27.0740   43.1000 C   0  0  0  0  0  0  0  0  0  0  0  0
   37.2280   27.1330   41.7220 C   0  0  0  0  0  0  0  0  0  0  0  0
   37.4380   28.3180   41.1170 N   0  0  0  0  0  0  0  0  0  0  0  0
   37.5470   29.4680   41.8310 C   0  0  0  0  0  0  0  0  0  0  0  0
   37.4450   29.4100   43.1370 N   0  0  0  0  0  0  0  0  0  0  0  0
   37.1040   25.8530   40.9520 C   0  0  0  0  0  0  0  0  0  0  0  0
   36.9990   24.5530   41.6170 C   0  0  0  0  0  0  0  0  0  0  0  0
   38.3510   24.9760   41.0860 C   0  0  0  0  0  0  0  0  0  0  0  0
   40.1080   30.9130   42.0890 C   0  0  0  0  0  0  0  0  0  0  0  0
   41.2690   31.6370   41.8750 F   0  0  0  0  0  0  0  0  0  0  0  0
   40.3310   29.5500   42.0460 F   0  0  0  0  0  0  0  0  0  0  0  0
   39.8210   31.1620   43.4510 F   0  0  0  0  0  0  0  0  0  0  0  0
   35.8190   30.7039   40.1759 H   0  0  0  0  0  0  0  0  0  0  0  0
   36.2032   32.8266   38.9332 H   0  0  0  0  0  0  0  0  0  0  0  0
   38.3677   33.9754   39.1960 H   0  0  0  0  0  0  0  0  0  0  0  0
   40.1217   33.0643   40.6530 H   0  0  0  0  0  0  0  0  0  0  0  0
   37.1575   28.2769   44.9122 H   0  0  0  0  0  0  0  0  0  0  0  0
   36.9485   26.1178   43.6161 H   0  0  0  0  0  0  0  0  0  0  0  0
   36.4866   26.3069   40.1628 H   0  0  0  0  0  0  0  0  0  0  0  0
   36.8298   24.5087   42.7030 H   0  0  0  0  0  0  0  0  0  0  0  0
   36.3618   23.6678   41.4741 H   0  0  0  0  0  0  0  0  0  0  0  0
   38.7817   24.4818   40.2027 H   0  0  0  0  0  0  0  0  0  0  0  0
   39.3628   25.0957   41.5006 H   0  0  0  0  0  0  0  0  0  0  0  0
  1  6  1  0
  1 11  1  0
  2  1  2  0
  3  4  2  0
  3  2  1  0
  4  5  1  0
  5  6  2  0
  6 16  1  0
  8  7  2  0
  9  8  1  0
 10  9  2  0
 10 11  1  0
 11 12  2  0
 12  7  1  0
 13 15  1  0
 13 14  1  0
 13  9  1  0
 15 14  1  0
 16 19  1  0
 17 16  1  0
 18 16  1  0
  2 20  1  0
  3 21  1  0
  4 22  1  0
  5 23  1  0
  7 24  1  0
  8 25  1  0
 13 26  1  0
 14 27  1  0
 14 28  1  0
 15 29  1  0
 15 30  1  0
M  ISO  8  20  14  21  14  22  14  23  14  24  14  25  14  26  13  27  13
M  ISO  3  28  13  29  13  30  13
M  END
>  <minimizedAffinity>  (1) 
-5.10291433

>  <minimizedRMSD>  (1) 
0.835648119

$$$$
