
     RDKit          3D

 29 30  0  0  0  0  0  0  0  0999 V2000
   37.7900   30.7030   41.1090 C   0  0  0  0  0  0  0  0  0  0  0  0
   36.7820   31.2330   40.2880 C   0  0  0  0  0  0  0  0  0  0  0  0
   36.9730   32.4340   39.6270 C   0  0  0  0  0  0  0  0  0  0  0  0
   38.1560   33.0810   39.7950 C   0  0  0  0  0  0  0  0  0  0  0  0
   39.1320   32.5560   40.5970 C   0  0  0  0  0  0  0  0  0  0  0  0
   38.9590   31.3700   41.2580 C   0  0  0  0  0  0  0  0  0  0  0  0
   37.2250   28.1830   43.7170 C   0  0  0  0  0  0  0  0  0  0  0  0
   37.1860   27.0030   42.9870 C   0  0  0  0  0  0  0  0  0  0  0  0
   37.3540   27.1010   41.6160 C   0  0  0  0  0  0  0  0  0  0  0  0
   37.5470   28.3030   41.0380 N   0  0  0  0  0  0  0  0  0  0  0  0
   37.5790   29.4420   41.7970 C   0  0  0  0  0  0  0  0  0  0  0  0
   37.4190   29.3560   43.0970 N   0  0  0  0  0  0  0  0  0  0  0  0
   37.3210   25.8750   40.7840 C   0  0  0  0  0  0  0  0  0  0  0  0
   36.9510   24.6940   41.6540 C   0  0  0  0  0  0  0  0  0  0  0  0
   40.1030   30.9240   42.0920 C   0  0  0  0  0  0  0  0  0  0  0  0
   41.2600   31.6580   41.8900 F   0  0  0  0  0  0  0  0  0  0  0  0
   40.3380   29.5770   42.0520 F   0  0  0  0  0  0  0  0  0  0  0  0
   39.8100   31.1690   43.4590 F   0  0  0  0  0  0  0  0  0  0  0  0
   35.8330   30.6896   40.1691 H   0  0  0  0  0  0  0  0  0  0  0  0
   36.1871   32.8540   38.9821 H   0  0  0  0  0  0  0  0  0  0  0  0
   38.3308   34.0374   39.2805 H   0  0  0  0  0  0  0  0  0  0  0  0
   40.0803   33.1011   40.7137 H   0  0  0  0  0  0  0  0  0  0  0  0
   37.0962   28.1557   44.8091 H   0  0  0  0  0  0  0  0  0  0  0  0
   37.0283   26.0309   43.4770 H   0  0  0  0  0  0  0  0  0  0  0  0
   36.5737   25.9922   39.9854 H   0  0  0  0  0  0  0  0  0  0  0  0
   38.3104   25.7070   40.3336 H   0  0  0  0  0  0  0  0  0  0  0  0
   37.0396   24.9769   42.7133 H   0  0  0  0  0  0  0  0  0  0  0  0
   35.9151   24.3917   41.4407 H   0  0  0  0  0  0  0  0  0  0  0  0
   37.6292   23.8547   41.4407 H   0  0  0  0  0  0  0  0  0  0  0  0
  1  6  1  0
  1 11  1  0
  2  1  2  0
  3  4  2  0
  3  2  1  0
  4  5  1  0
  5  6  2  0
  6 15  1  0
  8  7  2  0
  9  8  1  0
 10  9  2  0
 10 11  1  0
 11 12  2  0
 12  7  1  0
 13  9  1  0
 13 14  1  0
 15 18  1  0
 16 15  1  0
 17 15  1  0
  2 19  1  0
  3 20  1  0
  4 21  1  0
  5 22  1  0
  7 23  1  0
  8 24  1  0
 13 25  1  0
 13 26  1  0
 14 27  1  0
 14 28  1  0
 14 29  1  0
M  ISO  8  19  14  20  14  21  14  22  14  23  14  24  14  25   8  26   8
M  ISO  3  27   8  28   8  29   8
M  END
>  <minimizedAffinity>  (1) 
-4.88447046

>  <minimizedRMSD>  (1) 
0.773550093

$$$$
