
     RDKit          3D

 26 27  0  0  0  0  0  0  0  0999 V2000
   37.8430   30.8570   41.0450 C   0  0  0  0  0  0  0  0  0  0  0  0
   36.8350   31.3950   40.2450 C   0  0  0  0  0  0  0  0  0  0  0  0
   36.9980   32.6290   39.6500 C   0  0  0  0  0  0  0  0  0  0  0  0
   38.1680   33.3050   39.8630 C   0  0  0  0  0  0  0  0  0  0  0  0
   39.1570   32.7740   40.6480 C   0  0  0  0  0  0  0  0  0  0  0  0
   39.0080   31.5500   41.2460 C   0  0  0  0  0  0  0  0  0  0  0  0
   37.2730   28.1930   43.5150 C   0  0  0  0  0  0  0  0  0  0  0  0
   37.3480   27.0490   42.7220 C   0  0  0  0  0  0  0  0  0  0  0  0
   37.5870   27.2100   41.3810 C   0  0  0  0  0  0  0  0  0  0  0  0
   37.7410   28.4450   40.8810 N   0  0  0  0  0  0  0  0  0  0  0  0
   37.6650   29.5530   41.6700 C   0  0  0  0  0  0  0  0  0  0  0  0
   37.4350   29.4060   42.9580 N   0  0  0  0  0  0  0  0  0  0  0  0
   37.6740   26.0440   40.5080 C   0  0  0  0  0  0  0  0  0  0  0  0
   38.7260   25.4100   40.3510 O   0  0  0  0  0  0  0  0  0  0  0  0
   36.5860   25.5780   39.8030 O   0  0  0  0  0  0  0  0  0  0  0  0
   40.1490   31.0820   42.0720 C   0  0  0  0  0  0  0  0  0  0  0  0
   41.2780   31.8830   41.9460 F   0  0  0  0  0  0  0  0  0  0  0  0
   40.4520   29.7490   41.9130 F   0  0  0  0  0  0  0  0  0  0  0  0
   39.8240   31.2050   43.4440 F   0  0  0  0  0  0  0  0  0  0  0  0
   35.9036   30.8314   40.0874 H   0  0  0  0  0  0  0  0  0  0  0  0
   36.2060   33.0591   39.0193 H   0  0  0  0  0  0  0  0  0  0  0  0
   38.3169   34.2901   39.3967 H   0  0  0  0  0  0  0  0  0  0  0  0
   40.0875   33.3403   40.8011 H   0  0  0  0  0  0  0  0  0  0  0  0
   37.0816   28.1035   44.5945 H   0  0  0  0  0  0  0  0  0  0  0  0
   37.2194   26.0475   43.1585 H   0  0  0  0  0  0  0  0  0  0  0  0
   36.6778   24.7840   39.2188 H   0  0  0  0  0  0  0  0  0  0  0  0
  1  6  1  0
  1 11  1  0
  2  1  2  0
  3  4  2  0
  3  2  1  0
  4  5  1  0
  5  6  2  0
  6 16  1  0
  8  7  2  0
  9  8  1  0
 10  9  2  0
 10 11  1  0
 11 12  2  0
 12  7  1  0
 13  9  1  0
 14 13  2  0
 15 13  1  0
 16 19  1  0
 17 16  1  0
 18 16  1  0
  2 20  1  0
  3 21  1  0
  4 22  1  0
  5 23  1  0
  7 24  1  0
  8 25  1  0
 15 26  1  0
M  ISO  7  20  14  21  14  22  14  23  14  24  14  25  14  26   3
M  END
>  <minimizedAffinity>  (1) 
-4.71238184

>  <minimizedRMSD>  (1) 
0.487973839

$$$$
