
     RDKit          3D

 26 27  0  0  0  0  0  0  0  0999 V2000
   37.9210   31.1280   40.8590 C   0  0  0  0  0  0  0  0  0  0  0  0
   36.9440   31.7410   40.0760 C   0  0  0  0  0  0  0  0  0  0  0  0
   37.1330   33.0170   39.5970 C   0  0  0  0  0  0  0  0  0  0  0  0
   38.3080   33.6620   39.9130 C   0  0  0  0  0  0  0  0  0  0  0  0
   39.2500   33.0450   40.6800 C   0  0  0  0  0  0  0  0  0  0  0  0
   39.0730   31.7710   41.1630 C   0  0  0  0  0  0  0  0  0  0  0  0
   37.1510   28.2610   43.0400 C   0  0  0  0  0  0  0  0  0  0  0  0
   37.3340   27.1860   42.1820 C   0  0  0  0  0  0  0  0  0  0  0  0
   37.7100   27.4610   40.8950 C   0  0  0  0  0  0  0  0  0  0  0  0
   37.8920   28.7350   40.4960 N   0  0  0  0  0  0  0  0  0  0  0  0
   37.7080   29.7760   41.3580 C   0  0  0  0  0  0  0  0  0  0  0  0
   37.3430   29.5180   42.6040 N   0  0  0  0  0  0  0  0  0  0  0  0
   37.9460   26.4180   39.8520 C   0  0  0  0  0  0  0  0  0  0  0  0
   40.1900   31.2280   41.9860 C   0  0  0  0  0  0  0  0  0  0  0  0
   41.3140   32.0290   41.9790 F   0  0  0  0  0  0  0  0  0  0  0  0
   40.4760   29.9110   41.7290 F   0  0  0  0  0  0  0  0  0  0  0  0
   39.8200   31.2350   43.3520 F   0  0  0  0  0  0  0  0  0  0  0  0
   36.0154   31.2008   39.8394 H   0  0  0  0  0  0  0  0  0  0  0  0
   36.3670   33.5081   38.9789 H   0  0  0  0  0  0  0  0  0  0  0  0
   38.4873   34.6825   39.5436 H   0  0  0  0  0  0  0  0  0  0  0  0
   40.1793   33.5825   40.9195 H   0  0  0  0  0  0  0  0  0  0  0  0
   36.8473   28.0837   44.0823 H   0  0  0  0  0  0  0  0  0  0  0  0
   37.1825   26.1513   42.5234 H   0  0  0  0  0  0  0  0  0  0  0  0
   38.1637   25.4557   40.3384 H   0  0  0  0  0  0  0  0  0  0  0  0
   37.0480   26.3169   39.2248 H   0  0  0  0  0  0  0  0  0  0  0  0
   38.8000   26.7133   39.2248 H   0  0  0  0  0  0  0  0  0  0  0  0
  1  6  1  0
  1 11  1  0
  2  1  2  0
  3  4  2  0
  3  2  1  0
  4  5  1  0
  5  6  2  0
  6 14  1  0
  8  7  2  0
  9  8  1  0
 10  9  2  0
 10 11  1  0
 11 12  2  0
 12  7  1  0
 13  9  1  0
 14 17  1  0
 15 14  1  0
 16 14  1  0
  2 18  1  0
  3 19  1  0
  4 20  1  0
  5 21  1  0
  7 22  1  0
  8 23  1  0
 13 24  1  0
 13 25  1  0
 13 26  1  0
M  ISO  8  18  14  19  14  20  14  21  14  22  14  23  14  24   8  25   8
M  ISO  1  26   8
M  END
>  <minimizedAffinity>  (1) 
-4.58013678

>  <minimizedRMSD>  (1) 
0.0343630612

$$$$
