
     RDKit          3D

 25 26  0  0  0  0  0  0  0  0999 V2000
   37.9210   31.1350   40.8560 C   0  0  0  0  0  0  0  0  0  0  0  0
   36.9430   31.7480   40.0740 C   0  0  0  0  0  0  0  0  0  0  0  0
   37.1390   33.0280   39.6030 C   0  0  0  0  0  0  0  0  0  0  0  0
   38.2960   33.6690   39.9150 C   0  0  0  0  0  0  0  0  0  0  0  0
   39.2550   33.0540   40.6880 C   0  0  0  0  0  0  0  0  0  0  0  0
   39.0800   31.7770   41.1690 C   0  0  0  0  0  0  0  0  0  0  0  0
   37.1520   28.2600   43.0260 C   0  0  0  0  0  0  0  0  0  0  0  0
   37.3580   27.1820   42.1720 C   0  0  0  0  0  0  0  0  0  0  0  0
   37.7540   27.4570   40.8780 C   0  0  0  0  0  0  0  0  0  0  0  0
   37.9270   28.7380   40.4820 N   0  0  0  0  0  0  0  0  0  0  0  0
   37.7130   29.7760   41.3570 C   0  0  0  0  0  0  0  0  0  0  0  0
   37.3380   29.5130   42.5860 N   0  0  0  0  0  0  0  0  0  0  0  0
   38.0160   26.4920   39.8490 N   0  0  0  0  0  0  0  0  0  0  0  0
   40.1920   31.2370   41.9900 C   0  0  0  0  0  0  0  0  0  0  0  0
   41.3170   32.0500   41.9810 F   0  0  0  0  0  0  0  0  0  0  0  0
   40.4870   29.9290   41.7260 F   0  0  0  0  0  0  0  0  0  0  0  0
   39.8050   31.2450   43.3520 F   0  0  0  0  0  0  0  0  0  0  0  0
   36.0145   31.2096   39.8329 H   0  0  0  0  0  0  0  0  0  0  0  0
   36.3735   33.5216   38.9862 H   0  0  0  0  0  0  0  0  0  0  0  0
   38.4682   34.6908   39.5458 H   0  0  0  0  0  0  0  0  0  0  0  0
   40.1821   33.5959   40.9264 H   0  0  0  0  0  0  0  0  0  0  0  0
   36.8358   28.0845   44.0648 H   0  0  0  0  0  0  0  0  0  0  0  0
   37.2108   26.1473   42.5150 H   0  0  0  0  0  0  0  0  0  0  0  0
   38.3078   26.8047   38.9120 H   0  0  0  0  0  0  0  0  0  0  0  0
   37.9123   25.4866   40.0473 H   0  0  0  0  0  0  0  0  0  0  0  0
  1  6  1  0
  1 11  1  0
  2  1  2  0
  3  4  2  0
  3  2  1  0
  4  5  1  0
  5  6  2  0
  6 14  1  0
  8  7  2  0
  9  8  1  0
 10  9  2  0
 10 11  1  0
 11 12  2  0
 12  7  1  0
 13  9  1  0
 14 17  1  0
 15 14  1  0
 16 14  1  0
  2 18  1  0
  3 19  1  0
  4 20  1  0
  5 21  1  0
  7 22  1  0
  8 23  1  0
 13 24  1  0
 13 25  1  0
M  ISO  6  18  14  19  14  20  14  21  14  22  14  23  14
M  END
>  <minimizedAffinity>  (1) 
-4.57071543

>  <minimizedRMSD>  (1) 
0.0140927713

$$$$
