
     RDKit          3D

 24 25  0  0  0  0  0  0  0  0999 V2000
   37.9260   31.1340   40.8580 C   0  0  0  0  0  0  0  0  0  0  0  0
   36.9440   31.7420   40.0750 C   0  0  0  0  0  0  0  0  0  0  0  0
   37.1410   33.0220   39.5990 C   0  0  0  0  0  0  0  0  0  0  0  0
   38.3050   33.6670   39.9130 C   0  0  0  0  0  0  0  0  0  0  0  0
   39.2560   33.0520   40.6830 C   0  0  0  0  0  0  0  0  0  0  0  0
   39.0810   31.7880   41.1620 C   0  0  0  0  0  0  0  0  0  0  0  0
   37.1560   28.2650   43.0340 C   0  0  0  0  0  0  0  0  0  0  0  0
   37.3750   27.1780   42.1780 C   0  0  0  0  0  0  0  0  0  0  0  0
   37.7790   27.4600   40.8890 C   0  0  0  0  0  0  0  0  0  0  0  0
   37.9470   28.7380   40.4970 N   0  0  0  0  0  0  0  0  0  0  0  0
   37.7210   29.7750   41.3640 C   0  0  0  0  0  0  0  0  0  0  0  0
   37.3380   29.5180   42.5920 N   0  0  0  0  0  0  0  0  0  0  0  0
   38.1090   26.2020   39.6540 S   0  0  0  0  0  0  0  0  0  0  0  0
   40.1970   31.2450   41.9860 C   0  0  0  0  0  0  0  0  0  0  0  0
   41.3170   32.0640   41.9920 F   0  0  0  0  0  0  0  0  0  0  0  0
   40.5030   29.9350   41.7140 F   0  0  0  0  0  0  0  0  0  0  0  0
   39.8240   31.2470   43.3520 F   0  0  0  0  0  0  0  0  0  0  0  0
   36.0153   31.2023   39.8379 H   0  0  0  0  0  0  0  0  0  0  0  0
   36.3768   33.5138   38.9792 H   0  0  0  0  0  0  0  0  0  0  0  0
   38.4791   34.6885   39.5440 H   0  0  0  0  0  0  0  0  0  0  0  0
   40.1845   33.5917   40.9209 H   0  0  0  0  0  0  0  0  0  0  0  0
   36.8340   28.0904   44.0712 H   0  0  0  0  0  0  0  0  0  0  0  0
   37.2309   26.1423   42.5193 H   0  0  0  0  0  0  0  0  0  0  0  0
   38.4187   25.0214   40.2762 H   0  0  0  0  0  0  0  0  0  0  0  0
  1  6  1  0
  1 11  1  0
  2  1  2  0
  3  4  2  0
  3  2  1  0
  4  5  1  0
  5  6  2  0
  6 14  1  0
  8  7  2  0
  9  8  1  0
 10  9  2  0
 10 11  1  0
 11 12  2  0
 12  7  1  0
 13  9  1  0
 14 15  1  0
 14 17  1  0
 16 14  1  0
  2 18  1  0
  3 19  1  0
  4 20  1  0
  5 21  1  0
  7 22  1  0
  8 23  1  0
 13 24  1  0
M  ISO  7  18  14  19  14  20  14  21  14  22  14  23  14  24  11
M  END
>  <minimizedAffinity>  (1) 
-4.54899931

>  <minimizedRMSD>  (1) 
0.0231023226

$$$$
