
     RDKit          3D

 46 49  0  0  0  0  0  0  0  0999 V2000
   37.5790   28.2470   43.6800 C   0  0  0  0  0  0  0  0  0  0  0  0
   38.0460   27.1200   43.0380 C   0  0  0  0  0  0  0  0  0  0  0  0
   38.5220   27.2610   41.7480 C   0  0  0  0  0  0  0  0  0  0  0  0
   38.5130   28.4700   41.1810 N   0  0  0  0  0  0  0  0  0  0  0  0
   38.0550   29.5730   41.8150 C   0  0  0  0  0  0  0  0  0  0  0  0
   37.6050   29.4240   43.0400 N   0  0  0  0  0  0  0  0  0  0  0  0
   38.0810   30.8520   41.1240 C   0  0  0  0  0  0  0  0  0  0  0  0
   36.9480   31.2540   40.3920 C   0  0  0  0  0  0  0  0  0  0  0  0
   36.9560   32.4680   39.7290 C   0  0  0  0  0  0  0  0  0  0  0  0
   38.0850   33.2470   39.8110 C   0  0  0  0  0  0  0  0  0  0  0  0
   39.1740   32.8300   40.5310 C   0  0  0  0  0  0  0  0  0  0  0  0
   39.1830   31.6340   41.1920 C   0  0  0  0  0  0  0  0  0  0  0  0
   40.4230   31.3060   41.9320 C   0  0  0  0  0  0  0  0  0  0  0  0
   41.3890   32.2990   41.8310 F   0  0  0  0  0  0  0  0  0  0  0  0
   40.9420   30.0660   41.6440 F   0  0  0  0  0  0  0  0  0  0  0  0
   40.1510   31.2550   43.3270 F   0  0  0  0  0  0  0  0  0  0  0  0
   39.0380   26.1340   40.9790 C   0  0  0  0  0  0  0  0  0  0  0  0
   40.3410   25.7550   40.7600 C   0  0  0  0  0  0  0  0  0  0  0  0
   40.3020   24.6440   39.9830 N   0  0  0  0  0  0  0  0  0  0  0  0
   39.0120   24.3330   39.7230 C   0  0  0  0  0  0  0  0  0  0  0  0
   38.2570   25.2560   40.3400 N   0  0  0  0  0  0  0  0  0  0  0  0
   36.7890   25.1700   40.2300 C   0  0  0  0  0  0  0  0  0  0  0  0
   36.2680   23.8050   40.4680 C   0  0  0  0  0  0  0  0  0  0  0  0
   35.6560   23.1110   39.3100 C   0  0  0  0  0  0  0  0  0  0  0  0
   34.9410   24.0100   38.3480 C   0  0  0  0  0  0  0  0  0  0  0  0
   35.9350   25.0230   37.8500 C   0  0  0  0  0  0  0  0  0  0  0  0
   36.3780   25.8610   38.9950 C   0  0  0  0  0  0  0  0  0  0  0  0
   37.1892   28.1808   44.7065 H   0  0  0  0  0  0  0  0  0  0  0  0
   38.0400   26.1395   43.5366 H   0  0  0  0  0  0  0  0  0  0  0  0
   36.0604   30.6058   40.3474 H   0  0  0  0  0  0  0  0  0  0  0  0
   36.0813   32.8011   39.1511 H   0  0  0  0  0  0  0  0  0  0  0  0
   38.1151   34.2167   39.2926 H   0  0  0  0  0  0  0  0  0  0  0  0
   40.0640   33.4748   40.5780 H   0  0  0  0  0  0  0  0  0  0  0  0
   41.2425   26.2566   41.1417 H   0  0  0  0  0  0  0  0  0  0  0  0
   38.6504   23.4861   39.1213 H   0  0  0  0  0  0  0  0  0  0  0  0
   36.2923   25.7079   41.0509 H   0  0  0  0  0  0  0  0  0  0  0  0
   37.1058   23.1862   40.8218 H   0  0  0  0  0  0  0  0  0  0  0  0
   35.4499   23.9318   41.1923 H   0  0  0  0  0  0  0  0  0  0  0  0
   36.4544   22.5888   38.7624 H   0  0  0  0  0  0  0  0  0  0  0  0
   34.8968   22.4298   39.7217 H   0  0  0  0  0  0  0  0  0  0  0  0
   34.5497   23.4220   37.5047 H   0  0  0  0  0  0  0  0  0  0  0  0
   34.0940   24.5091   38.8413 H   0  0  0  0  0  0  0  0  0  0  0  0
   36.8020   24.5064   37.4125 H   0  0  0  0  0  0  0  0  0  0  0  0
   35.4699   25.6566   37.0805 H   0  0  0  0  0  0  0  0  0  0  0  0
   37.2351   26.4592   38.6523 H   0  0  0  0  0  0  0  0  0  0  0  0
   35.4848   26.4355   39.2815 H   0  0  0  0  0  0  0  0  0  0  0  0
  2  1  2  0
  3  2  1  0
  4  3  2  0
  4  5  1  0
  5  6  2  0
  6  1  1  0
  7 12  1  0
  7  5  1  0
  8  7  2  0
  9 10  2  0
  9  8  1  0
 10 11  1  0
 11 12  2  0
 12 13  1  0
 13 16  1  0
 14 13  1  0
 15 13  1  0
 17  3  1  0
 18 17  2  0
 19 18  1  0
 20 19  2  0
 20 21  1  0
 21 17  1  0
 22 21  1  0
 22 23  1  0
 24 23  1  0
 25 24  1  0
 26 25  1  0
 26 27  1  0
 27 22  1  0
  1 28  1  0
  2 29  1  0
  8 30  1  0
  9 31  1  0
 10 32  1  0
 11 33  1  0
 18 34  1  0
 20 35  1  0
 22 36  1  0
 23 37  1  0
 23 38  1  0
 24 39  1  0
 24 40  1  0
 25 41  1  0
 25 42  1  0
 26 43  1  0
 26 44  1  0
 27 45  1  0
 27 46  1  0
M  ISO  8  28  14  29  14  30  14  31  14  32  14  33  14  34  14  35  14
M  ISO  8  36  13  37  13  38  13  39  13  40  13  41  13  42  13  43  13
M  ISO  3  44  13  45  13  46  13
M  END
>  <minimizedAffinity>  (1) 
-5.83415222

>  <minimizedRMSD>  (1) 
2.31585455

$$$$
