
     RDKit          3D

 37 40  0  0  0  0  0  0  0  0999 V2000
   36.9920   28.2430   43.4100 C   0  0  0  0  0  0  0  0  0  0  0  0
   36.9840   27.1180   42.6050 C   0  0  0  0  0  0  0  0  0  0  0  0
   37.2400   27.2810   41.2760 C   0  0  0  0  0  0  0  0  0  0  0  0
   37.4920   28.5020   40.7820 N   0  0  0  0  0  0  0  0  0  0  0  0
   37.4980   29.6060   41.5820 C   0  0  0  0  0  0  0  0  0  0  0  0
   37.2490   29.4390   42.8620 N   0  0  0  0  0  0  0  0  0  0  0  0
   37.7790   30.9030   40.9790 C   0  0  0  0  0  0  0  0  0  0  0  0
   36.8120   31.5170   40.1710 C   0  0  0  0  0  0  0  0  0  0  0  0
   37.0830   32.7510   39.6000 C   0  0  0  0  0  0  0  0  0  0  0  0
   38.2900   33.3290   39.8450 C   0  0  0  0  0  0  0  0  0  0  0  0
   39.2280   32.7190   40.6370 C   0  0  0  0  0  0  0  0  0  0  0  0
   38.9760   31.5080   41.2050 C   0  0  0  0  0  0  0  0  0  0  0  0
   40.0760   30.9540   42.0430 C   0  0  0  0  0  0  0  0  0  0  0  0
   41.2600   31.6580   41.9370 F   0  0  0  0  0  0  0  0  0  0  0  0
   40.2660   29.5980   41.9030 F   0  0  0  0  0  0  0  0  0  0  0  0
   39.7490   31.0920   43.4190 F   0  0  0  0  0  0  0  0  0  0  0  0
   37.2570   26.1600   40.3320 C   0  0  0  0  0  0  0  0  0  0  0  0
   36.4220   25.9130   39.2670 C   0  0  0  0  0  0  0  0  0  0  0  0
   36.8370   24.7560   38.6980 N   0  0  0  0  0  0  0  0  0  0  0  0
   37.9060   24.2810   39.3810 C   0  0  0  0  0  0  0  0  0  0  0  0
   38.1440   25.1600   40.3790 N   0  0  0  0  0  0  0  0  0  0  0  0
   39.2010   25.0410   41.3560 C   0  0  0  0  0  0  0  0  0  0  0  0
   40.5070   25.4750   41.4880 C   0  0  0  0  0  0  0  0  0  0  0  0
   40.9350   24.9810   42.7080 C   0  0  0  0  0  0  0  0  0  0  0  0
   39.8860   24.2760   43.2600 C   0  0  0  0  0  0  0  0  0  0  0  0
   38.8800   24.3340   42.4330 O   0  0  0  0  0  0  0  0  0  0  0  0
   36.7897   28.1570   44.4878 H   0  0  0  0  0  0  0  0  0  0  0  0
   36.7774   26.1223   43.0245 H   0  0  0  0  0  0  0  0  0  0  0  0
   35.8455   31.0235   39.9913 H   0  0  0  0  0  0  0  0  0  0  0  0
   36.3388   33.2515   38.9631 H   0  0  0  0  0  0  0  0  0  0  0  0
   38.5183   34.3076   39.3976 H   0  0  0  0  0  0  0  0  0  0  0  0
   40.1944   33.2133   40.8153 H   0  0  0  0  0  0  0  0  0  0  0  0
   35.5773   26.5369   38.9395 H   0  0  0  0  0  0  0  0  0  0  0  0
   38.4692   23.3610   39.1656 H   0  0  0  0  0  0  0  0  0  0  0  0
   41.0832   26.0833   40.7753 H   0  0  0  0  0  0  0  0  0  0  0  0
   41.9296   25.1244   43.1554 H   0  0  0  0  0  0  0  0  0  0  0  0
   39.8964   23.7556   44.2290 H   0  0  0  0  0  0  0  0  0  0  0  0
  2  1  2  0
  3  2  1  0
  4  3  2  0
  4  5  1  0
  5  6  2  0
  6  1  1  0
  7 12  1  0
  7  5  1  0
  8  7  2  0
  9 10  2  0
  9  8  1  0
 10 11  1  0
 11 12  2  0
 12 13  1  0
 13 16  1  0
 14 13  1  0
 15 13  1  0
 17 21  1  0
 17  3  1  0
 18 17  2  0
 19 18  1  0
 19 20  2  0
 20 21  1  0
 21 22  1  0
 22 23  2  0
 22 26  1  0
 23 24  1  0
 24 25  2  0
 26 25  1  0
  1 27  1  0
  2 28  1  0
  8 29  1  0
  9 30  1  0
 10 31  1  0
 11 32  1  0
 18 33  1  0
 20 34  1  0
 23 35  1  0
 24 36  1  0
 25 37  1  0
M  ISO  8  27  14  28  14  29  14  30  14  31  14  32  14  33  14  34  14
M  ISO  3  35  14  36  14  37  14
M  END
>  <minimizedAffinity>  (1) 
-5.74814701

>  <minimizedRMSD>  (1) 
3.14539719

$$$$
