
     RDKit          3D

 43 46  0  0  0  0  0  0  0  0999 V2000
   37.3150   28.1890   43.7270 C   0  0  0  0  0  0  0  0  0  0  0  0
   37.6700   27.0190   43.0720 C   0  0  0  0  0  0  0  0  0  0  0  0
   38.1080   27.0980   41.7680 C   0  0  0  0  0  0  0  0  0  0  0  0
   38.1720   28.3000   41.1890 N   0  0  0  0  0  0  0  0  0  0  0  0
   37.8310   29.4500   41.8140 C   0  0  0  0  0  0  0  0  0  0  0  0
   37.4110   29.3450   43.0710 N   0  0  0  0  0  0  0  0  0  0  0  0
   37.9320   30.7050   41.1090 C   0  0  0  0  0  0  0  0  0  0  0  0
   36.8910   31.1310   40.2750 C   0  0  0  0  0  0  0  0  0  0  0  0
   36.9820   32.3230   39.6030 C   0  0  0  0  0  0  0  0  0  0  0  0
   38.1070   33.0830   39.7650 C   0  0  0  0  0  0  0  0  0  0  0  0
   39.1220   32.6630   40.5800 C   0  0  0  0  0  0  0  0  0  0  0  0
   39.0590   31.4730   41.2660 C   0  0  0  0  0  0  0  0  0  0  0  0
   40.2260   31.1390   42.1130 C   0  0  0  0  0  0  0  0  0  0  0  0
   41.2600   32.0510   41.9720 F   0  0  0  0  0  0  0  0  0  0  0  0
   40.6560   29.8410   41.9830 F   0  0  0  0  0  0  0  0  0  0  0  0
   39.8640   31.2520   43.4790 F   0  0  0  0  0  0  0  0  0  0  0  0
   38.5020   25.9340   40.9950 C   0  0  0  0  0  0  0  0  0  0  0  0
   39.2400   24.8300   41.4160 C   0  0  0  0  0  0  0  0  0  0  0  0
   39.3420   24.0120   40.3230 N   0  0  0  0  0  0  0  0  0  0  0  0
   38.7020   24.5770   39.2840 C   0  0  0  0  0  0  0  0  0  0  0  0
   38.1980   25.7510   39.7220 N   0  0  0  0  0  0  0  0  0  0  0  0
   36.0370   28.1330   36.9630 C   0  0  0  0  0  0  0  0  0  0  0  0
   35.3790   27.3050   37.8700 C   0  0  0  0  0  0  0  0  0  0  0  0
   36.0750   26.5270   38.7700 C   0  0  0  0  0  0  0  0  0  0  0  0
   37.4650   26.5520   38.7940 C   0  0  0  0  0  0  0  0  0  0  0  0
   38.1650   27.3640   37.9070 C   0  0  0  0  0  0  0  0  0  0  0  0
   37.4340   28.1290   37.0210 C   0  0  0  0  0  0  0  0  0  0  0  0
   35.1550   29.1190   35.8240 S   0  0  0  0  0  0  0  0  0  0  0  0
   34.3920   28.2330   34.8560 O   0  0  0  0  0  0  0  0  0  0  0  0
   36.1380   29.9560   35.0670 O   0  0  0  0  0  0  0  0  0  0  0  0
   36.9610   28.1631   44.7681 H   0  0  0  0  0  0  0  0  0  0  0  0
   37.6032   26.0474   43.5834 H   0  0  0  0  0  0  0  0  0  0  0  0
   35.9940   30.5052   40.1580 H   0  0  0  0  0  0  0  0  0  0  0  0
   36.1663   32.6609   38.9469 H   0  0  0  0  0  0  0  0  0  0  0  0
   38.1967   34.0423   39.2343 H   0  0  0  0  0  0  0  0  0  0  0  0
   40.0150   33.2959   40.6899 H   0  0  0  0  0  0  0  0  0  0  0  0
   39.6549   24.6523   42.4191 H   0  0  0  0  0  0  0  0  0  0  0  0
   38.6070   24.1618   38.2698 H   0  0  0  0  0  0  0  0  0  0  0  0
   34.2795   27.2714   37.8678 H   0  0  0  0  0  0  0  0  0  0  0  0
   35.5276   25.8825   39.4735 H   0  0  0  0  0  0  0  0  0  0  0  0
   39.2645   27.3951   37.9118 H   0  0  0  0  0  0  0  0  0  0  0  0
   37.9829   28.7738   36.3189 H   0  0  0  0  0  0  0  0  0  0  0  0
   34.2619   29.9171   36.4891 H   0  0  0  0  0  0  0  0  0  0  0  0
  2  1  2  0
  3  2  1  0
  4  3  2  0
  4  5  1  0
  5  6  2  0
  6  1  1  0
  7 12  1  0
  7  5  1  0
  8  7  2  0
  9 10  2  0
  9  8  1  0
 10 11  1  0
 11 12  2  0
 12 13  1  0
 13 16  1  0
 14 13  1  0
 15 13  1  0
 17 18  2  0
 17  3  1  0
 19 18  1  0
 20 21  1  0
 20 19  2  0
 21 17  1  0
 22 27  2  0
 22 23  1  0
 23 24  2  0
 24 25  1  0
 25 21  1  0
 26 25  2  0
 27 26  1  0
 28 22  1  0
 29 28  2  0
 30 28  2  0
  1 31  1  0
  2 32  1  0
  8 33  1  0
  9 34  1  0
 10 35  1  0
 11 36  1  0
 18 37  1  0
 20 38  1  0
 23 39  1  0
 24 40  1  0
 26 41  1  0
 27 42  1  0
 28 43  1  0
M  ISO  8  31  14  32  14  33  14  34  14  35  14  36  14  37  14  38  14
M  ISO  5  39  14  40  14  41  14  42  14  43  11
M  END
>  <minimizedAffinity>  (1) 
-5.63365507

>  <minimizedRMSD>  (1) 
1.72174942

$$$$
