
     RDKit          3D

 45 48  0  0  0  0  0  0  0  0999 V2000
   37.5180   28.1390   43.6840 C   0  0  0  0  0  0  0  0  0  0  0  0
   38.0520   27.0280   43.0470 C   0  0  0  0  0  0  0  0  0  0  0  0
   38.5430   27.2010   41.7880 C   0  0  0  0  0  0  0  0  0  0  0  0
   38.5130   28.4120   41.1820 N   0  0  0  0  0  0  0  0  0  0  0  0
   37.9820   29.4930   41.8280 C   0  0  0  0  0  0  0  0  0  0  0  0
   37.5030   29.3200   43.0550 N   0  0  0  0  0  0  0  0  0  0  0  0
   37.9680   30.7670   41.1480 C   0  0  0  0  0  0  0  0  0  0  0  0
   36.8490   31.1540   40.4100 C   0  0  0  0  0  0  0  0  0  0  0  0
   36.8400   32.3750   39.7610 C   0  0  0  0  0  0  0  0  0  0  0  0
   37.9400   33.1870   39.8530 C   0  0  0  0  0  0  0  0  0  0  0  0
   39.0400   32.7920   40.5860 C   0  0  0  0  0  0  0  0  0  0  0  0
   39.0640   31.5870   41.2350 C   0  0  0  0  0  0  0  0  0  0  0  0
   40.3120   31.2900   41.9860 C   0  0  0  0  0  0  0  0  0  0  0  0
   41.2610   32.2960   41.8530 F   0  0  0  0  0  0  0  0  0  0  0  0
   40.8410   30.0520   41.7120 F   0  0  0  0  0  0  0  0  0  0  0  0
   40.0320   31.2590   43.3680 F   0  0  0  0  0  0  0  0  0  0  0  0
   39.1330   26.1070   41.0090 C   0  0  0  0  0  0  0  0  0  0  0  0
   40.4680   25.8370   40.7710 C   0  0  0  0  0  0  0  0  0  0  0  0
   40.5130   24.7200   39.9980 N   0  0  0  0  0  0  0  0  0  0  0  0
   39.2290   24.3040   39.7590 C   0  0  0  0  0  0  0  0  0  0  0  0
   38.4240   25.1670   40.3870 N   0  0  0  0  0  0  0  0  0  0  0  0
   35.1710   23.9340   38.2850 N   0  0  0  0  0  0  0  0  0  0  0  0
   36.0110   25.0620   38.0300 C   0  0  0  0  0  0  0  0  0  0  0  0
   36.3720   25.8560   39.2670 C   0  0  0  0  0  0  0  0  0  0  0  0
   36.9820   25.0170   40.3380 C   0  0  0  0  0  0  0  0  0  0  0  0
   36.5730   23.5640   40.2350 C   0  0  0  0  0  0  0  0  0  0  0  0
   35.1790   23.4670   39.6500 C   0  0  0  0  0  0  0  0  0  0  0  0
   37.1090   28.0494   44.7012 H   0  0  0  0  0  0  0  0  0  0  0  0
   38.0779   26.0449   43.5398 H   0  0  0  0  0  0  0  0  0  0  0  0
   35.9753   30.4889   40.3445 H   0  0  0  0  0  0  0  0  0  0  0  0
   35.9616   32.6902   39.1787 H   0  0  0  0  0  0  0  0  0  0  0  0
   37.9460   34.1597   39.3393 H   0  0  0  0  0  0  0  0  0  0  0  0
   39.9136   33.4574   40.6501 H   0  0  0  0  0  0  0  0  0  0  0  0
   41.3289   26.4155   41.1372 H   0  0  0  0  0  0  0  0  0  0  0  0
   38.9210   23.4303   39.1660 H   0  0  0  0  0  0  0  0  0  0  0  0
   35.4819   23.1603   37.6803 H   0  0  0  0  0  0  0  0  0  0  0  0
   36.9415   24.7020   37.5668 H   0  0  0  0  0  0  0  0  0  0  0  0
   35.4435   25.7381   37.3736 H   0  0  0  0  0  0  0  0  0  0  0  0
   37.0898   26.6399   38.9837 H   0  0  0  0  0  0  0  0  0  0  0  0
   35.4406   26.2799   39.6704 H   0  0  0  0  0  0  0  0  0  0  0  0
   36.5829   25.3902   41.2927 H   0  0  0  0  0  0  0  0  0  0  0  0
   37.2809   23.0300   39.5840 H   0  0  0  0  0  0  0  0  0  0  0  0
   36.5800   23.1113   41.2375 H   0  0  0  0  0  0  0  0  0  0  0  0
   34.4917   24.0837   40.2478 H   0  0  0  0  0  0  0  0  0  0  0  0
   34.8575   22.4152   39.6684 H   0  0  0  0  0  0  0  0  0  0  0  0
  2  1  2  0
  3  2  1  0
  4  3  2  0
  4  5  1  0
  5  6  2  0
  6  1  1  0
  7 12  1  0
  7  5  1  0
  8  7  2  0
  9 10  2  0
  9  8  1  0
 10 11  1  0
 11 12  2  0
 12 13  1  0
 13 16  1  0
 14 13  1  0
 15 13  1  0
 17  3  1  0
 18 17  2  0
 19 18  1  0
 20 19  2  0
 20 21  1  0
 21 17  1  0
 22 27  1  0
 23 22  1  0
 23 24  1  0
 24 25  1  0
 25 21  1  0
 26 25  1  0
 27 26  1  0
  1 28  1  0
  2 29  1  0
  8 30  1  0
  9 31  1  0
 10 32  1  0
 11 33  1  0
 18 34  1  0
 20 35  1  0
 22 36  1  0
 23 37  1  0
 23 38  1  0
 24 39  1  0
 24 40  1  0
 25 41  1  0
 26 42  1  0
 26 43  1  0
 27 44  1  0
 27 45  1  0
M  ISO  8  28  14  29  14  30  14  31  14  32  14  33  14  34  14  35  14
M  ISO  8  36   5  37  13  38  13  39  13  40  13  41  13  42  13  43  13
M  ISO  2  44  13  45  13
M  END
>  <minimizedAffinity>  (1) 
-5.6268487

>  <minimizedRMSD>  (1) 
2.19725466

$$$$
