
     RDKit          3D

 36 39  0  0  0  0  0  0  0  0999 V2000
   37.2490   28.2490   43.4710 C   0  0  0  0  0  0  0  0  0  0  0  0
   37.2050   27.1320   42.6540 C   0  0  0  0  0  0  0  0  0  0  0  0
   37.3760   27.3150   41.2950 C   0  0  0  0  0  0  0  0  0  0  0  0
   37.5780   28.5530   40.8190 N   0  0  0  0  0  0  0  0  0  0  0  0
   37.6200   29.6440   41.6290 C   0  0  0  0  0  0  0  0  0  0  0  0
   37.4550   29.4530   42.9200 N   0  0  0  0  0  0  0  0  0  0  0  0
   37.8430   30.9490   41.0340 C   0  0  0  0  0  0  0  0  0  0  0  0
   36.8390   31.5290   40.2410 C   0  0  0  0  0  0  0  0  0  0  0  0
   37.0570   32.7660   39.6780 C   0  0  0  0  0  0  0  0  0  0  0  0
   38.2490   33.4090   39.9030 C   0  0  0  0  0  0  0  0  0  0  0  0
   39.2090   32.8210   40.6790 C   0  0  0  0  0  0  0  0  0  0  0  0
   39.0210   31.5940   41.2510 C   0  0  0  0  0  0  0  0  0  0  0  0
   40.1510   31.0760   42.0720 C   0  0  0  0  0  0  0  0  0  0  0  0
   41.3010   31.8510   41.9410 F   0  0  0  0  0  0  0  0  0  0  0  0
   40.4130   29.7470   41.8820 F   0  0  0  0  0  0  0  0  0  0  0  0
   39.8300   31.1770   43.4420 F   0  0  0  0  0  0  0  0  0  0  0  0
   37.3480   26.2090   40.3490 C   0  0  0  0  0  0  0  0  0  0  0  0
   37.8670   24.9450   40.4860 C   0  0  0  0  0  0  0  0  0  0  0  0
   37.5960   24.2680   39.3480 N   0  0  0  0  0  0  0  0  0  0  0  0
   36.9160   25.0970   38.5060 C   0  0  0  0  0  0  0  0  0  0  0  0
   36.7800   26.2800   39.1490 N   0  0  0  0  0  0  0  0  0  0  0  0
   36.1010   27.3520   38.5000 C   0  0  0  0  0  0  0  0  0  0  0  0
   36.8950   27.7980   37.3670 C   0  0  0  0  0  0  0  0  0  0  0  0
   35.9080   29.1870   36.6120 S   0  0  0  0  0  0  0  0  0  0  0  0
   34.5880   28.9240   37.9590 C   0  0  0  0  0  0  0  0  0  0  0  0
   35.0110   28.0800   38.5600 N   0  0  0  0  0  0  0  0  0  0  0  0
   37.1166   28.1493   44.5584 H   0  0  0  0  0  0  0  0  0  0  0  0
   37.0389   26.1290   43.0741 H   0  0  0  0  0  0  0  0  0  0  0  0
   35.8892   31.0005   40.0718 H   0  0  0  0  0  0  0  0  0  0  0  0
   36.2828   33.2353   39.0532 H   0  0  0  0  0  0  0  0  0  0  0  0
   38.4319   34.3984   39.4584 H   0  0  0  0  0  0  0  0  0  0  0  0
   40.1586   33.3499   40.8476 H   0  0  0  0  0  0  0  0  0  0  0  0
   38.4052   24.5546   41.3623 H   0  0  0  0  0  0  0  0  0  0  0  0
   36.5488   24.8517   37.4985 H   0  0  0  0  0  0  0  0  0  0  0  0
   37.8646   27.4028   37.0296 H   0  0  0  0  0  0  0  0  0  0  0  0
   33.6434   29.4673   38.1092 H   0  0  0  0  0  0  0  0  0  0  0  0
  2  1  2  0
  3  2  1  0
  4  3  2  0
  4  5  1  0
  5  6  2  0
  6  1  1  0
  7 12  1  0
  7  5  1  0
  8  7  2  0
  9 10  2  0
  9  8  1  0
 10 11  1  0
 11 12  2  0
 12 13  1  0
 13 16  1  0
 14 13  1  0
 15 13  1  0
 17 18  2  0
 17  3  1  0
 19 18  1  0
 20 21  1  0
 20 19  2  0
 21 17  1  0
 22 26  1  0
 22 21  1  0
 23 22  2  0
 24 23  1  0
 24 25  1  0
 25 26  2  0
  1 27  1  0
  2 28  1  0
  8 29  1  0
  9 30  1  0
 10 31  1  0
 11 32  1  0
 18 33  1  0
 20 34  1  0
 23 35  1  0
 25 36  1  0
M  ISO  8  27  14  28  14  29  14  30  14  31  14  32  14  33  14  34  14
M  ISO  2  35  14  36  14
M  END
>  <minimizedAffinity>  (1) 
-5.47357082

>  <minimizedRMSD>  (1) 
0.646863103

$$$$
