
     RDKit          3D

 42 44  0  0  0  0  0  0  0  0999 V2000
   37.5850   28.2540   43.7370 C   0  0  0  0  0  0  0  0  0  0  0  0
   38.1810   27.1470   43.1540 C   0  0  0  0  0  0  0  0  0  0  0  0
   38.7420   27.2930   41.9130 C   0  0  0  0  0  0  0  0  0  0  0  0
   38.6900   28.4910   41.3200 N   0  0  0  0  0  0  0  0  0  0  0  0
   38.1080   29.5740   41.8840 C   0  0  0  0  0  0  0  0  0  0  0  0
   37.5760   29.4170   43.0720 N   0  0  0  0  0  0  0  0  0  0  0  0
   38.0950   30.8300   41.1640 C   0  0  0  0  0  0  0  0  0  0  0  0
   36.9560   31.2050   40.4370 C   0  0  0  0  0  0  0  0  0  0  0  0
   36.9430   32.4010   39.7460 C   0  0  0  0  0  0  0  0  0  0  0  0
   38.0580   33.2070   39.7860 C   0  0  0  0  0  0  0  0  0  0  0  0
   39.1590   32.8170   40.5050 C   0  0  0  0  0  0  0  0  0  0  0  0
   39.1850   31.6400   41.1910 C   0  0  0  0  0  0  0  0  0  0  0  0
   40.4380   31.3560   41.9260 C   0  0  0  0  0  0  0  0  0  0  0  0
   41.3560   32.3870   41.8490 F   0  0  0  0  0  0  0  0  0  0  0  0
   40.9970   30.1400   41.6310 F   0  0  0  0  0  0  0  0  0  0  0  0
   40.1730   31.2690   43.3190 F   0  0  0  0  0  0  0  0  0  0  0  0
   39.3900   26.1940   41.2080 C   0  0  0  0  0  0  0  0  0  0  0  0
   40.7500   25.9220   41.1030 C   0  0  0  0  0  0  0  0  0  0  0  0
   40.8510   24.8250   40.3240 N   0  0  0  0  0  0  0  0  0  0  0  0
   39.6040   24.4210   39.9560 C   0  0  0  0  0  0  0  0  0  0  0  0
   38.7340   25.2660   40.5050 N   0  0  0  0  0  0  0  0  0  0  0  0
   37.3750   24.9180   40.1890 C   0  0  0  0  0  0  0  0  0  0  0  0
   37.0860   23.9410   39.1520 C   0  0  0  0  0  0  0  0  0  0  0  0
   36.7460   24.4170   41.5010 C   0  0  0  0  0  0  0  0  0  0  0  0
   36.5290   26.1720   39.8710 C   0  0  0  0  0  0  0  0  0  0  0  0
   37.1250   28.1787   44.7334 H   0  0  0  0  0  0  0  0  0  0  0  0
   38.2029   26.1777   43.6736 H   0  0  0  0  0  0  0  0  0  0  0  0
   36.0742   30.5477   40.4170 H   0  0  0  0  0  0  0  0  0  0  0  0
   36.0549   32.7047   39.1724 H   0  0  0  0  0  0  0  0  0  0  0  0
   38.0661   34.1630   39.2419 H   0  0  0  0  0  0  0  0  0  0  0  0
   40.0433   33.4709   40.5284 H   0  0  0  0  0  0  0  0  0  0  0  0
   41.5753   26.4864   41.5617 H   0  0  0  0  0  0  0  0  0  0  0  0
   39.3603   23.5558   39.3219 H   0  0  0  0  0  0  0  0  0  0  0  0
   36.8033   22.9852   39.6173 H   0  0  0  0  0  0  0  0  0  0  0  0
   36.2568   24.3040   38.5270 H   0  0  0  0  0  0  0  0  0  0  0  0
   37.9793   23.7945   38.5270 H   0  0  0  0  0  0  0  0  0  0  0  0
   37.2878   24.8485   42.3556 H   0  0  0  0  0  0  0  0  0  0  0  0
   35.6907   24.7247   41.5426 H   0  0  0  0  0  0  0  0  0  0  0  0
   36.8099   23.3196   41.5426 H   0  0  0  0  0  0  0  0  0  0  0  0
   36.2090   26.6463   40.8105 H   0  0  0  0  0  0  0  0  0  0  0  0
   37.1325   26.8833   39.2881 H   0  0  0  0  0  0  0  0  0  0  0  0
   35.6434   25.8787   39.2881 H   0  0  0  0  0  0  0  0  0  0  0  0
  2  1  2  0
  3  2  1  0
  4  5  1  0
  4  3  2  0
  5  6  2  0
  6  1  1  0
  7 12  1  0
  7  5  1  0
  8  7  2  0
  9 10  2  0
  9  8  1  0
 10 11  1  0
 11 12  2  0
 12 13  1  0
 13 16  1  0
 14 13  1  0
 15 13  1  0
 17  3  1  0
 18 17  2  0
 19 18  1  0
 20 19  2  0
 20 21  1  0
 21 17  1  0
 22 21  1  0
 22 24  1  0
 23 22  1  0
 25 22  1  0
  1 26  1  0
  2 27  1  0
  8 28  1  0
  9 29  1  0
 10 30  1  0
 11 31  1  0
 18 32  1  0
 20 33  1  0
 23 34  1  0
 23 35  1  0
 23 36  1  0
 24 37  1  0
 24 38  1  0
 24 39  1  0
 25 40  1  0
 25 41  1  0
 25 42  1  0
M  ISO  8  26  14  27  14  28  14  29  14  30  14  31  14  32  14  33  14
M  ISO  8  34   8  35   8  36   8  37   8  38   8  39   8  40   8  41   8
M  ISO  1  42   8
M  END
>  <minimizedAffinity>  (1) 
-5.43342781

>  <minimizedRMSD>  (1) 
1.8435576

$$$$
