
     RDKit          3D

 37 40  0  0  0  0  0  0  0  0999 V2000
   37.8080   28.2040   43.7410 C   0  0  0  0  0  0  0  0  0  0  0  0
   38.3280   27.1030   43.0840 C   0  0  0  0  0  0  0  0  0  0  0  0
   38.7640   27.2790   41.7970 C   0  0  0  0  0  0  0  0  0  0  0  0
   38.6890   28.4800   41.1980 N   0  0  0  0  0  0  0  0  0  0  0  0
   38.1710   29.5520   41.8710 C   0  0  0  0  0  0  0  0  0  0  0  0
   37.7520   29.3890   43.1040 N   0  0  0  0  0  0  0  0  0  0  0  0
   38.1130   30.8320   41.1730 C   0  0  0  0  0  0  0  0  0  0  0  0
   36.9380   31.2010   40.5020 C   0  0  0  0  0  0  0  0  0  0  0  0
   36.8840   32.4190   39.8390 C   0  0  0  0  0  0  0  0  0  0  0  0
   37.9870   33.2280   39.8600 C   0  0  0  0  0  0  0  0  0  0  0  0
   39.1350   32.8490   40.5250 C   0  0  0  0  0  0  0  0  0  0  0  0
   39.2130   31.6500   41.1880 C   0  0  0  0  0  0  0  0  0  0  0  0
   40.4930   31.3640   41.8580 C   0  0  0  0  0  0  0  0  0  0  0  0
   41.4060   32.4040   41.7450 F   0  0  0  0  0  0  0  0  0  0  0  0
   41.0500   30.1570   41.5160 F   0  0  0  0  0  0  0  0  0  0  0  0
   40.2820   31.2640   43.2650 F   0  0  0  0  0  0  0  0  0  0  0  0
   39.3320   26.1760   41.0110 C   0  0  0  0  0  0  0  0  0  0  0  0
   40.6540   25.8960   40.7390 C   0  0  0  0  0  0  0  0  0  0  0  0
   40.6530   24.7690   39.9730 N   0  0  0  0  0  0  0  0  0  0  0  0
   39.3840   24.3570   39.7720 C   0  0  0  0  0  0  0  0  0  0  0  0
   38.6070   25.2340   40.4160 N   0  0  0  0  0  0  0  0  0  0  0  0
   37.1380   25.1540   40.4530 C   0  0  0  0  0  0  0  0  0  0  0  0
   36.5650   23.7550   40.1700 C   0  0  0  0  0  0  0  0  0  0  0  0
   36.4800   24.3480   41.5370 C   0  0  0  0  0  0  0  0  0  0  0  0
   37.4435   28.1121   44.7748 H   0  0  0  0  0  0  0  0  0  0  0  0
   38.3892   26.1216   43.5771 H   0  0  0  0  0  0  0  0  0  0  0  0
   36.0661   30.5303   40.5012 H   0  0  0  0  0  0  0  0  0  0  0  0
   35.9721   32.7279   39.3070 H   0  0  0  0  0  0  0  0  0  0  0  0
   37.9582   34.1961   39.3384 H   0  0  0  0  0  0  0  0  0  0  0  0
   40.0054   33.5216   40.5237 H   0  0  0  0  0  0  0  0  0  0  0  0
   41.5327   26.4672   41.0730 H   0  0  0  0  0  0  0  0  0  0  0  0
   39.0558   23.4791   39.1961 H   0  0  0  0  0  0  0  0  0  0  0  0
   36.9998   26.1781   40.0760 H   0  0  0  0  0  0  0  0  0  0  0  0
   35.6568   23.6441   39.5594 H   0  0  0  0  0  0  0  0  0  0  0  0
   36.9606   22.8196   39.7475 H   0  0  0  0  0  0  0  0  0  0  0  0
   37.0897   23.9296   42.3514 H   0  0  0  0  0  0  0  0  0  0  0  0
   35.6564   24.5374   42.2412 H   0  0  0  0  0  0  0  0  0  0  0  0
  2  1  2  0
  3  2  1  0
  4  3  2  0
  4  5  1  0
  5  6  2  0
  6  1  1  0
  7 12  1  0
  7  5  1  0
  8  7  2  0
  9 10  2  0
  9  8  1  0
 10 11  1  0
 11 12  2  0
 12 13  1  0
 13 16  1  0
 14 13  1  0
 15 13  1  0
 17  3  1  0
 18 17  2  0
 19 18  1  0
 20 19  2  0
 20 21  1  0
 21 22  1  0
 21 17  1  0
 22 24  1  0
 23 22  1  0
 23 24  1  0
  1 25  1  0
  2 26  1  0
  8 27  1  0
  9 28  1  0
 10 29  1  0
 11 30  1  0
 18 31  1  0
 20 32  1  0
 22 33  1  0
 23 34  1  0
 23 35  1  0
 24 36  1  0
 24 37  1  0
M  ISO  8  25  14  26  14  27  14  28  14  29  14  30  14  31  14  32  14
M  ISO  5  33  13  34  13  35  13  36  13  37  13
M  END
>  <minimizedAffinity>  (1) 
-5.27426958

>  <minimizedRMSD>  (1) 
1.88980186

$$$$
