
     RDKit          3D

 21 23  0  0  0  0  0  0  0  0999 V2000
   39.2780   32.2520   40.9520 C   0  0  0  0  0  0  0  0  0  0  0  0
   39.1510   31.0260   41.6360 C   0  0  0  0  0  0  0  0  0  0  0  0
   37.9110   30.3940   41.5880 C   0  0  0  0  0  0  0  0  0  0  0  0
   36.9040   30.9810   40.8940 N   0  0  0  0  0  0  0  0  0  0  0  0
   37.0630   32.1520   40.2530 C   0  0  0  0  0  0  0  0  0  0  0  0
   38.2470   32.8030   40.2710 N   0  0  0  0  0  0  0  0  0  0  0  0
   37.7010   29.1630   42.2470 N   0  0  0  0  0  0  0  0  0  0  0  0
   37.6790   28.9210   43.5520 C   0  0  0  0  0  0  0  0  0  0  0  0
   37.4470   27.5990   43.8010 N   0  0  0  0  0  0  0  0  0  0  0  0
   37.3170   26.9820   42.6140 C   0  0  0  0  0  0  0  0  0  0  0  0
   37.0790   25.6970   42.1840 C   0  0  0  0  0  0  0  0  0  0  0  0
   37.0090   25.4240   40.8620 N   0  0  0  0  0  0  0  0  0  0  0  0
   37.1730   26.4260   39.9880 C   0  0  0  0  0  0  0  0  0  0  0  0
   37.4050   27.6880   40.3260 N   0  0  0  0  0  0  0  0  0  0  0  0
   37.4810   27.9850   41.6550 C   0  0  0  0  0  0  0  0  0  0  0  0
   40.2446   32.7766   40.9726 H   0  0  0  0  0  0  0  0  0  0  0  0
   39.9967   30.5865   42.1852 H   0  0  0  0  0  0  0  0  0  0  0  0
   36.2148   32.5876   39.7045 H   0  0  0  0  0  0  0  0  0  0  0  0
   37.8280   29.6845   44.3297 H   0  0  0  0  0  0  0  0  0  0  0  0
   36.9452   24.8891   42.9184 H   0  0  0  0  0  0  0  0  0  0  0  0
   37.1111   26.1860   38.9163 H   0  0  0  0  0  0  0  0  0  0  0  0
  1  2  2  0
  3  2  1  0
  3  7  1  0
  4  3  2  0
  5  6  2  0
  5  4  1  0
  6  1  1  0
  7  8  1  0
  8  9  2  0
 10  9  1  0
 11 10  2  0
 12 11  1  0
 13 14  1  0
 13 12  2  0
 14 15  2  0
 15  7  1  0
 15 10  1  0
  1 16  1  0
  2 17  1  0
  5 18  1  0
  8 19  1  0
 11 20  1  0
 13 21  1  0
M  ISO  6  16  14  17  14  18  14  19  14  20  14  21  14
M  END
>  <minimizedAffinity>  (1) 
-4.36048365

>  <minimizedRMSD>  (1) 
3.5455265

$$$$
