
     RDKit          3D

 34 37  0  0  0  0  0  0  0  0999 V2000
   39.0780   32.1270   41.0240 C   0  0  0  0  0  0  0  0  0  0  0  0
   39.0100   30.8950   41.7090 C   0  0  0  0  0  0  0  0  0  0  0  0
   37.7750   30.2450   41.6770 C   0  0  0  0  0  0  0  0  0  0  0  0
   36.7350   30.8040   41.0140 N   0  0  0  0  0  0  0  0  0  0  0  0
   36.8590   31.9840   40.3770 C   0  0  0  0  0  0  0  0  0  0  0  0
   38.0330   32.6650   40.3710 N   0  0  0  0  0  0  0  0  0  0  0  0
   37.6070   29.0000   42.3380 N   0  0  0  0  0  0  0  0  0  0  0  0
   37.6090   28.7470   43.6380 C   0  0  0  0  0  0  0  0  0  0  0  0
   37.4160   27.4100   43.8720 N   0  0  0  0  0  0  0  0  0  0  0  0
   37.2890   26.8000   42.6750 C   0  0  0  0  0  0  0  0  0  0  0  0
   37.0870   25.5180   42.2390 C   0  0  0  0  0  0  0  0  0  0  0  0
   37.0100   25.2550   40.9240 N   0  0  0  0  0  0  0  0  0  0  0  0
   37.1370   26.2720   40.0630 C   0  0  0  0  0  0  0  0  0  0  0  0
   37.3340   27.5370   40.3940 N   0  0  0  0  0  0  0  0  0  0  0  0
   37.4130   27.8170   41.7320 C   0  0  0  0  0  0  0  0  0  0  0  0
   37.0620   26.0360   38.6410 N   0  0  0  0  0  0  0  0  0  0  0  0
   36.9850   27.0550   37.7640 C   0  0  0  0  0  0  0  0  0  0  0  0
   36.9180   26.6990   36.4340 C   0  0  0  0  0  0  0  0  0  0  0  0
   36.8310   27.7380   35.3920 C   0  0  0  0  0  0  0  0  0  0  0  0
   36.9300   25.3640   36.0200 C   0  0  0  0  0  0  0  0  0  0  0  0
   36.8690   25.0500   34.7980 O   0  0  0  0  0  0  0  0  0  0  0  0
   37.0100   24.3730   36.9550 N   0  0  0  0  0  0  0  0  0  0  0  0
   37.0760   24.7330   38.2650 C   0  0  0  0  0  0  0  0  0  0  0  0
   37.1490   23.7980   39.1060 O   0  0  0  0  0  0  0  0  0  0  0  0
   40.0325   32.6738   41.0243 H   0  0  0  0  0  0  0  0  0  0  0  0
   39.8779   30.4724   42.2364 H   0  0  0  0  0  0  0  0  0  0  0  0
   35.9900   32.4050   39.8502 H   0  0  0  0  0  0  0  0  0  0  0  0
   37.7467   29.5057   44.4225 H   0  0  0  0  0  0  0  0  0  0  0  0
   36.9874   24.7004   42.9682 H   0  0  0  0  0  0  0  0  0  0  0  0
   36.9761   28.1059   38.0887 H   0  0  0  0  0  0  0  0  0  0  0  0
   36.7482   28.7270   35.8664 H   0  0  0  0  0  0  0  0  0  0  0  0
   37.7350   27.7061   34.7660 H   0  0  0  0  0  0  0  0  0  0  0  0
   35.9449   27.5562   34.7660 H   0  0  0  0  0  0  0  0  0  0  0  0
   37.0201   23.3814   36.6767 H   0  0  0  0  0  0  0  0  0  0  0  0
  1  2  2  0
  3  2  1  0
  3  7  1  0
  4  3  2  0
  5  4  1  0
  6  5  2  0
  6  1  1  0
  7  8  1  0
  8  9  2  0
 10  9  1  0
 11 10  2  0
 12 11  1  0
 13 14  1  0
 13 12  2  0
 14 15  2  0
 15  7  1  0
 15 10  1  0
 16 13  1  0
 17 16  1  0
 18 17  2  0
 19 18  1  0
 20 18  1  0
 20 22  1  0
 21 20  2  0
 22 23  1  0
 23 16  1  0
 23 24  2  0
  1 25  1  0
  2 26  1  0
  5 27  1  0
  8 28  1  0
 11 29  1  0
 17 30  1  0
 19 31  1  0
 19 32  1  0
 19 33  1  0
 22 34  1  0
M  ISO  8  25  14  26  14  27  14  28  14  29  14  30  14  31   8  32   8
M  ISO  2  33   8  34   9
M  END
>  <minimizedAffinity>  (1) 
-5.44270611

>  <minimizedRMSD>  (1) 
0.203543022

$$$$
