
     RDKit          3D

 35 38  0  0  0  0  0  0  0  0999 V2000
   39.3270   32.2840   41.1400 C   0  0  0  0  0  0  0  0  0  0  0  0
   39.1660   31.0300   41.7400 C   0  0  0  0  0  0  0  0  0  0  0  0
   37.9400   30.3870   41.5870 C   0  0  0  0  0  0  0  0  0  0  0  0
   36.9770   31.0030   40.8710 N   0  0  0  0  0  0  0  0  0  0  0  0
   37.1590   32.2100   40.3040 C   0  0  0  0  0  0  0  0  0  0  0  0
   38.3300   32.8710   40.4260 N   0  0  0  0  0  0  0  0  0  0  0  0
   37.7060   29.1260   42.1610 N   0  0  0  0  0  0  0  0  0  0  0  0
   37.6010   28.8070   43.4500 C   0  0  0  0  0  0  0  0  0  0  0  0
   37.3700   27.4660   43.6090 N   0  0  0  0  0  0  0  0  0  0  0  0
   37.3270   26.9200   42.3700 C   0  0  0  0  0  0  0  0  0  0  0  0
   37.1370   25.6610   41.8710 C   0  0  0  0  0  0  0  0  0  0  0  0
   37.1560   25.4590   40.5430 N   0  0  0  0  0  0  0  0  0  0  0  0
   37.3640   26.5100   39.7240 C   0  0  0  0  0  0  0  0  0  0  0  0
   37.5550   27.7510   40.1600 N   0  0  0  0  0  0  0  0  0  0  0  0
   37.5410   27.9800   41.4950 C   0  0  0  0  0  0  0  0  0  0  0  0
   37.3800   26.2670   38.3120 N   0  0  0  0  0  0  0  0  0  0  0  0
   36.1710   26.3430   37.5260 C   0  0  0  0  0  0  0  0  0  0  0  0
   36.3760   26.7410   36.1050 C   0  0  0  0  0  0  0  0  0  0  0  0
   37.4660   26.0910   35.4450 N   0  0  0  0  0  0  0  0  0  0  0  0
   38.2820   25.2880   36.3110 C   0  0  0  0  0  0  0  0  0  0  0  0
   38.6060   25.9340   37.6140 C   0  0  0  0  0  0  0  0  0  0  0  0
   40.2872   32.8095   41.2491 H   0  0  0  0  0  0  0  0  0  0  0  0
   39.9819   30.5668   42.3143 H   0  0  0  0  0  0  0  0  0  0  0  0
   36.3386   32.6664   39.7306 H   0  0  0  0  0  0  0  0  0  0  0  0
   37.6883   29.5258   44.2780 H   0  0  0  0  0  0  0  0  0  0  0  0
   36.9691   24.8161   42.5551 H   0  0  0  0  0  0  0  0  0  0  0  0
   35.6913   25.3532   37.5388 H   0  0  0  0  0  0  0  0  0  0  0  0
   35.5526   27.1297   37.9827 H   0  0  0  0  0  0  0  0  0  0  0  0
   35.4548   26.5101   35.5500 H   0  0  0  0  0  0  0  0  0  0  0  0
   36.6213   27.8132   36.1190 H   0  0  0  0  0  0  0  0  0  0  0  0
   37.0814   25.4831   34.7079 H   0  0  0  0  0  0  0  0  0  0  0  0
   37.7482   24.3481   36.5148 H   0  0  0  0  0  0  0  0  0  0  0  0
   39.2375   25.1298   35.7894 H   0  0  0  0  0  0  0  0  0  0  0  0
   39.1998   25.2410   38.2281 H   0  0  0  0  0  0  0  0  0  0  0  0
   39.1827   26.8528   37.4318 H   0  0  0  0  0  0  0  0  0  0  0  0
  1  2  2  0
  3  2  1  0
  3  7  1  0
  4  3  2  0
  5  6  2  0
  5  4  1  0
  6  1  1  0
  7  8  1  0
  8  9  2  0
 10  9  1  0
 11 10  2  0
 12 11  1  0
 13 14  1  0
 13 12  2  0
 14 15  2  0
 15  7  1  0
 15 10  1  0
 16 13  1  0
 17 16  1  0
 18 17  1  0
 19 18  1  0
 19 20  1  0
 20 21  1  0
 21 16  1  0
  1 22  1  0
  2 23  1  0
  5 24  1  0
  8 25  1  0
 11 26  1  0
 17 27  1  0
 17 28  1  0
 18 29  1  0
 18 30  1  0
 19 31  1  0
 20 32  1  0
 20 33  1  0
 21 34  1  0
 21 35  1  0
M  ISO  8  22  14  23  14  24  14  25  14  26  14  27  13  28  13  29  13
M  ISO  6  30  13  31   5  32  13  33  13  34  13  35  13
M  END
>  <minimizedAffinity>  (1) 
-5.16531563

>  <minimizedRMSD>  (1) 
0.340383142

$$$$
