
     RDKit          3D

 28 31  0  0  0  0  0  0  0  0999 V2000
   39.0190   32.1230   40.7430 C   0  0  0  0  0  0  0  0  0  0  0  0
   39.0210   30.8990   41.4400 C   0  0  0  0  0  0  0  0  0  0  0  0
   37.8110   30.2440   41.5780 C   0  0  0  0  0  0  0  0  0  0  0  0
   36.6900   30.8070   41.0400 N   0  0  0  0  0  0  0  0  0  0  0  0
   36.7220   31.9750   40.3810 C   0  0  0  0  0  0  0  0  0  0  0  0
   37.8840   32.6530   40.2210 N   0  0  0  0  0  0  0  0  0  0  0  0
   37.7190   29.0170   42.2590 N   0  0  0  0  0  0  0  0  0  0  0  0
   37.9040   28.7850   43.5620 C   0  0  0  0  0  0  0  0  0  0  0  0
   37.7280   27.4610   43.8490 N   0  0  0  0  0  0  0  0  0  0  0  0
   37.4250   26.8340   42.7020 C   0  0  0  0  0  0  0  0  0  0  0  0
   37.1410   25.5450   42.3310 C   0  0  0  0  0  0  0  0  0  0  0  0
   36.8700   25.2620   41.0350 N   0  0  0  0  0  0  0  0  0  0  0  0
   36.8850   26.2550   40.1370 C   0  0  0  0  0  0  0  0  0  0  0  0
   37.1500   27.5220   40.4250 N   0  0  0  0  0  0  0  0  0  0  0  0
   37.4270   27.8390   41.7210 C   0  0  0  0  0  0  0  0  0  0  0  0
   36.5820   25.8250   38.8010 N   0  0  0  0  0  0  0  0  0  0  0  0
   37.0460   24.7860   38.1270 N   0  0  0  0  0  0  0  0  0  0  0  0
   36.5230   24.7190   36.9020 C   0  0  0  0  0  0  0  0  0  0  0  0
   35.6760   25.8060   36.8360 C   0  0  0  0  0  0  0  0  0  0  0  0
   35.7020   26.5110   38.0220 C   0  0  0  0  0  0  0  0  0  0  0  0
   39.9672   32.6663   40.6179 H   0  0  0  0  0  0  0  0  0  0  0  0
   39.9485   30.4807   41.8580 H   0  0  0  0  0  0  0  0  0  0  0  0
   35.7915   32.3882   39.9646 H   0  0  0  0  0  0  0  0  0  0  0  0
   38.1629   29.5556   44.3030 H   0  0  0  0  0  0  0  0  0  0  0  0
   37.1333   24.7432   43.0840 H   0  0  0  0  0  0  0  0  0  0  0  0
   36.7216   23.9687   36.1225 H   0  0  0  0  0  0  0  0  0  0  0  0
   35.0656   26.0732   35.9608 H   0  0  0  0  0  0  0  0  0  0  0  0
   35.1394   27.4206   38.2792 H   0  0  0  0  0  0  0  0  0  0  0  0
  1  2  2  0
  2  3  1  0
  3  7  1  0
  4  3  2  0
  5  4  1  0
  6  5  2  0
  6  1  1  0
  7  8  1  0
  8  9  2  0
 10  9  1  0
 11 10  2  0
 12 11  1  0
 13 14  1  0
 13 12  2  0
 14 15  2  0
 15  7  1  0
 15 10  1  0
 16 13  1  0
 17 16  1  0
 18 17  2  0
 19 18  1  0
 19 20  2  0
 20 16  1  0
  1 21  1  0
  2 22  1  0
  5 23  1  0
  8 24  1  0
 11 25  1  0
 18 26  1  0
 19 27  1  0
 20 28  1  0
M  ISO  8  21  14  22  14  23  14  24  14  25  14  26  14  27  14  28  14
M  END
>  <minimizedAffinity>  (1) 
-4.95833302

>  <minimizedRMSD>  (1) 
0.442535907

$$$$
