
     RDKit          3D

 28 31  0  0  0  0  0  0  0  0999 V2000
   39.0680   32.1350   40.8990 C   0  0  0  0  0  0  0  0  0  0  0  0
   39.0000   30.9080   41.5910 C   0  0  0  0  0  0  0  0  0  0  0  0
   37.7740   30.2550   41.6240 C   0  0  0  0  0  0  0  0  0  0  0  0
   36.7260   30.8290   40.9960 N   0  0  0  0  0  0  0  0  0  0  0  0
   36.8230   32.0010   40.3430 C   0  0  0  0  0  0  0  0  0  0  0  0
   37.9990   32.6710   40.2870 N   0  0  0  0  0  0  0  0  0  0  0  0
   37.6240   29.0210   42.2960 N   0  0  0  0  0  0  0  0  0  0  0  0
   37.6810   28.7680   43.5880 C   0  0  0  0  0  0  0  0  0  0  0  0
   37.4830   27.4370   43.8320 N   0  0  0  0  0  0  0  0  0  0  0  0
   37.2930   26.8230   42.6520 C   0  0  0  0  0  0  0  0  0  0  0  0
   37.0520   25.5420   42.2410 C   0  0  0  0  0  0  0  0  0  0  0  0
   36.9100   25.2810   40.9160 N   0  0  0  0  0  0  0  0  0  0  0  0
   37.0070   26.2870   40.0430 C   0  0  0  0  0  0  0  0  0  0  0  0
   37.2380   27.5460   40.3730 N   0  0  0  0  0  0  0  0  0  0  0  0
   37.3860   27.8370   41.7060 C   0  0  0  0  0  0  0  0  0  0  0  0
   36.8650   26.0740   38.6240 N   0  0  0  0  0  0  0  0  0  0  0  0
   35.8260   25.2950   38.2720 C   0  0  0  0  0  0  0  0  0  0  0  0
   35.8590   25.2120   36.8820 C   0  0  0  0  0  0  0  0  0  0  0  0
   36.9000   25.9320   36.4560 N   0  0  0  0  0  0  0  0  0  0  0  0
   37.5220   26.4620   37.5160 C   0  0  0  0  0  0  0  0  0  0  0  0
   40.0279   32.6707   40.8591 H   0  0  0  0  0  0  0  0  0  0  0  0
   39.8855   30.4834   42.0866 H   0  0  0  0  0  0  0  0  0  0  0  0
   35.9352   32.4211   39.8477 H   0  0  0  0  0  0  0  0  0  0  0  0
   37.8632   29.5249   44.3651 H   0  0  0  0  0  0  0  0  0  0  0  0
   36.9737   24.7289   42.9777 H   0  0  0  0  0  0  0  0  0  0  0  0
   35.0978   24.8198   38.9457 H   0  0  0  0  0  0  0  0  0  0  0  0
   35.1540   24.6535   36.2487 H   0  0  0  0  0  0  0  0  0  0  0  0
   38.4152   27.1034   37.4864 H   0  0  0  0  0  0  0  0  0  0  0  0
  1  2  2  0
  2  3  1  0
  3  7  1  0
  4  3  2  0
  5  4  1  0
  6  5  2  0
  6  1  1  0
  7  8  1  0
  8  9  2  0
 10  9  1  0
 11 10  2  0
 12 11  1  0
 13 14  1  0
 13 12  2  0
 14 15  2  0
 15  7  1  0
 15 10  1  0
 16 13  1  0
 17 16  1  0
 18 17  2  0
 19 18  1  0
 19 20  2  0
 20 16  1  0
  1 21  1  0
  2 22  1  0
  5 23  1  0
  8 24  1  0
 11 25  1  0
 17 26  1  0
 18 27  1  0
 20 28  1  0
M  ISO  8  21  14  22  14  23  14  24  14  25  14  26  14  27  14  28  14
M  END
>  <minimizedAffinity>  (1) 
-4.93238735

>  <minimizedRMSD>  (1) 
0.254443109

$$$$
