
     RDKit          3D

 27 30  0  0  0  0  0  0  0  0999 V2000
   39.0200   32.1070   40.9270 C   0  0  0  0  0  0  0  0  0  0  0  0
   38.9720   30.8780   41.6240 C   0  0  0  0  0  0  0  0  0  0  0  0
   37.7410   30.2210   41.6510 C   0  0  0  0  0  0  0  0  0  0  0  0
   36.6780   30.7930   41.0180 N   0  0  0  0  0  0  0  0  0  0  0  0
   36.7770   31.9680   40.3670 C   0  0  0  0  0  0  0  0  0  0  0  0
   37.9470   32.6380   40.3140 N   0  0  0  0  0  0  0  0  0  0  0  0
   37.5940   28.9890   42.3210 N   0  0  0  0  0  0  0  0  0  0  0  0
   37.6490   28.7410   43.6140 C   0  0  0  0  0  0  0  0  0  0  0  0
   37.4560   27.4140   43.8650 N   0  0  0  0  0  0  0  0  0  0  0  0
   37.2690   26.7930   42.6790 C   0  0  0  0  0  0  0  0  0  0  0  0
   37.0340   25.5090   42.2610 C   0  0  0  0  0  0  0  0  0  0  0  0
   36.8950   25.2410   40.9510 N   0  0  0  0  0  0  0  0  0  0  0  0
   36.9910   26.2540   40.0630 C   0  0  0  0  0  0  0  0  0  0  0  0
   37.2180   27.5120   40.3980 N   0  0  0  0  0  0  0  0  0  0  0  0
   37.3610   27.8030   41.7290 C   0  0  0  0  0  0  0  0  0  0  0  0
   36.8520   26.0170   38.6640 N   0  0  0  0  0  0  0  0  0  0  0  0
   35.7210   26.4530   38.0560 C   0  0  0  0  0  0  0  0  0  0  0  0
   35.8090   26.1190   36.7340 N   0  0  0  0  0  0  0  0  0  0  0  0
   36.9950   25.4800   36.5470 C   0  0  0  0  0  0  0  0  0  0  0  0
   37.6240   25.4280   37.7520 N   0  0  0  0  0  0  0  0  0  0  0  0
   39.9747   32.6517   40.8842 H   0  0  0  0  0  0  0  0  0  0  0  0
   39.8605   30.4604   42.1202 H   0  0  0  0  0  0  0  0  0  0  0  0
   35.8898   32.3881   39.8706 H   0  0  0  0  0  0  0  0  0  0  0  0
   37.8268   29.5024   44.3878 H   0  0  0  0  0  0  0  0  0  0  0  0
   36.9590   24.6965   42.9987 H   0  0  0  0  0  0  0  0  0  0  0  0
   34.8849   26.9797   38.5392 H   0  0  0  0  0  0  0  0  0  0  0  0
   37.3756   25.0789   35.5961 H   0  0  0  0  0  0  0  0  0  0  0  0
  1  2  2  0
  2  3  1  0
  3  7  1  0
  4  3  2  0
  5  4  1  0
  6  5  2  0
  6  1  1  0
  7  8  1  0
  8  9  2  0
 10  9  1  0
 11 10  2  0
 12 11  1  0
 13 14  1  0
 13 12  2  0
 14 15  2  0
 15  7  1  0
 15 10  1  0
 16 13  1  0
 17 16  1  0
 18 17  2  0
 19 18  1  0
 19 20  2  0
 20 16  1  0
  1 21  1  0
  2 22  1  0
  5 23  1  0
  8 24  1  0
 11 25  1  0
 17 26  1  0
 19 27  1  0
M  ISO  7  21  14  22  14  23  14  24  14  25  14  26  14  27  14
M  END
>  <minimizedAffinity>  (1) 
-4.93218803

>  <minimizedRMSD>  (1) 
0.296662927

$$$$
