
     RDKit          3D

 33 35  0  0  0  0  0  0  0  0999 V2000
   39.0690   32.1530   40.7630 C   0  0  0  0  0  0  0  0  0  0  0  0
   39.0440   30.9290   41.4600 C   0  0  0  0  0  0  0  0  0  0  0  0
   37.8370   30.2680   41.5870 C   0  0  0  0  0  0  0  0  0  0  0  0
   36.7490   30.8490   41.0260 N   0  0  0  0  0  0  0  0  0  0  0  0
   36.7860   32.0100   40.3670 C   0  0  0  0  0  0  0  0  0  0  0  0
   37.9580   32.6840   40.2260 N   0  0  0  0  0  0  0  0  0  0  0  0
   37.7240   29.0410   42.2680 N   0  0  0  0  0  0  0  0  0  0  0  0
   37.8760   28.8120   43.5660 C   0  0  0  0  0  0  0  0  0  0  0  0
   37.6870   27.4860   43.8490 N   0  0  0  0  0  0  0  0  0  0  0  0
   37.4050   26.8640   42.6900 C   0  0  0  0  0  0  0  0  0  0  0  0
   37.1220   25.5730   42.2990 C   0  0  0  0  0  0  0  0  0  0  0  0
   36.8820   25.2990   41.0060 N   0  0  0  0  0  0  0  0  0  0  0  0
   36.9240   26.2950   40.1160 C   0  0  0  0  0  0  0  0  0  0  0  0
   37.1890   27.5600   40.4130 N   0  0  0  0  0  0  0  0  0  0  0  0
   37.4360   27.8640   41.7170 C   0  0  0  0  0  0  0  0  0  0  0  0
   36.6510   25.9650   38.6750 C   0  0  0  0  0  0  0  0  0  0  0  0
   35.7270   26.9810   38.0320 C   0  0  0  0  0  0  0  0  0  0  0  0
   37.9130   25.8560   37.8850 C   0  0  0  0  0  0  0  0  0  0  0  0
   35.9200   24.6240   38.5810 C   0  0  0  0  0  0  0  0  0  0  0  0
   40.0239   32.6883   40.6556 H   0  0  0  0  0  0  0  0  0  0  0  0
   39.9639   30.5091   41.8931 H   0  0  0  0  0  0  0  0  0  0  0  0
   35.8624   32.4234   39.9357 H   0  0  0  0  0  0  0  0  0  0  0  0
   38.1204   29.5821   44.3125 H   0  0  0  0  0  0  0  0  0  0  0  0
   37.0926   24.7664   43.0463 H   0  0  0  0  0  0  0  0  0  0  0  0
   35.2077   27.5520   38.8158 H   0  0  0  0  0  0  0  0  0  0  0  0
   36.3160   27.6683   37.4069 H   0  0  0  0  0  0  0  0  0  0  0  0
   34.9871   26.4597   37.4069 H   0  0  0  0  0  0  0  0  0  0  0  0
   38.7697   25.7820   38.5709 H   0  0  0  0  0  0  0  0  0  0  0  0
   37.8723   24.9580   37.2510 H   0  0  0  0  0  0  0  0  0  0  0  0
   38.0269   26.7477   37.2510 H   0  0  0  0  0  0  0  0  0  0  0  0
   35.7143   24.2467   39.5936 H   0  0  0  0  0  0  0  0  0  0  0  0
   34.9715   24.7605   38.0409 H   0  0  0  0  0  0  0  0  0  0  0  0
   36.5487   23.9008   38.0409 H   0  0  0  0  0  0  0  0  0  0  0  0
  1  2  2  0
  2  3  1  0
  3  7  1  0
  4  3  2  0
  5  4  1  0
  6  5  2  0
  6  1  1  0
  7  8  1  0
  8  9  2  0
 10  9  1  0
 11 10  2  0
 12 11  1  0
 13 14  1  0
 13 12  2  0
 14 15  2  0
 15  7  1  0
 15 10  1  0
 16 13  1  0
 17 16  1  0
 18 16  1  0
 19 16  1  0
  1 20  1  0
  2 21  1  0
  5 22  1  0
  8 23  1  0
 11 24  1  0
 17 25  1  0
 17 26  1  0
 17 27  1  0
 18 28  1  0
 18 29  1  0
 18 30  1  0
 19 31  1  0
 19 32  1  0
 19 33  1  0
M  ISO  8  20  14  21  14  22  14  23  14  24  14  25   8  26   8  27   8
M  ISO  6  28   8  29   8  30   8  31   8  32   8  33   8
M  END
>  <minimizedAffinity>  (1) 
-4.82325792

>  <minimizedRMSD>  (1) 
0.433420926

$$$$
