
     RDKit          3D

 28 31  0  0  0  0  0  0  0  0999 V2000
   39.0660   32.1150   40.7360 C   0  0  0  0  0  0  0  0  0  0  0  0
   39.0400   30.9020   41.4470 C   0  0  0  0  0  0  0  0  0  0  0  0
   37.8120   30.2640   41.5790 C   0  0  0  0  0  0  0  0  0  0  0  0
   36.7020   30.8300   41.0240 N   0  0  0  0  0  0  0  0  0  0  0  0
   36.7820   31.9920   40.3530 C   0  0  0  0  0  0  0  0  0  0  0  0
   37.9450   32.6560   40.1920 N   0  0  0  0  0  0  0  0  0  0  0  0
   37.7020   29.0400   42.2800 N   0  0  0  0  0  0  0  0  0  0  0  0
   37.8470   28.8180   43.5730 C   0  0  0  0  0  0  0  0  0  0  0  0
   37.6630   27.4970   43.8710 N   0  0  0  0  0  0  0  0  0  0  0  0
   37.3890   26.8560   42.7190 C   0  0  0  0  0  0  0  0  0  0  0  0
   37.1150   25.5660   42.3410 C   0  0  0  0  0  0  0  0  0  0  0  0
   36.8800   25.2690   41.0440 N   0  0  0  0  0  0  0  0  0  0  0  0
   36.9210   26.2550   40.1400 C   0  0  0  0  0  0  0  0  0  0  0  0
   37.1810   27.5260   40.4390 N   0  0  0  0  0  0  0  0  0  0  0  0
   37.4200   27.8510   41.7320 C   0  0  0  0  0  0  0  0  0  0  0  0
   36.6550   25.8500   38.7620 C   0  0  0  0  0  0  0  0  0  0  0  0
   35.8200   24.7580   38.5010 C   0  0  0  0  0  0  0  0  0  0  0  0
   35.7420   24.5930   37.1260 C   0  0  0  0  0  0  0  0  0  0  0  0
   36.5380   25.6000   36.6220 C   0  0  0  0  0  0  0  0  0  0  0  0
   37.0490   26.3060   37.5990 O   0  0  0  0  0  0  0  0  0  0  0  0
   40.0240   32.6422   40.6166 H   0  0  0  0  0  0  0  0  0  0  0  0
   39.9556   30.4747   41.8817 H   0  0  0  0  0  0  0  0  0  0  0  0
   35.8650   32.4172   39.9191 H   0  0  0  0  0  0  0  0  0  0  0  0
   38.0850   29.5951   44.3143 H   0  0  0  0  0  0  0  0  0  0  0  0
   37.0864   24.7687   43.0983 H   0  0  0  0  0  0  0  0  0  0  0  0
   35.3134   24.1380   39.2553 H   0  0  0  0  0  0  0  0  0  0  0  0
   35.1757   23.8339   36.5665 H   0  0  0  0  0  0  0  0  0  0  0  0
   36.7178   25.7837   35.5525 H   0  0  0  0  0  0  0  0  0  0  0  0
  1  2  2  0
  2  3  1  0
  3  7  1  0
  4  3  2  0
  5  4  1  0
  6  5  2  0
  6  1  1  0
  7  8  1  0
  8  9  2  0
 10  9  1  0
 11 10  2  0
 12 11  1  0
 13 14  1  0
 13 12  2  0
 14 15  2  0
 15  7  1  0
 15 10  1  0
 16 13  1  0
 17 16  2  0
 18 17  1  0
 19 18  2  0
 19 20  1  0
 20 16  1  0
  1 21  1  0
  2 22  1  0
  5 23  1  0
  8 24  1  0
 11 25  1  0
 17 26  1  0
 18 27  1  0
 19 28  1  0
M  ISO  8  21  14  22  14  23  14  24  14  25  14  26  14  27  14  28  14
M  END
>  <minimizedAffinity>  (1) 
-4.75454283

>  <minimizedRMSD>  (1) 
0.553210616

$$$$
