
     RDKit          3D

 30 32  0  0  0  0  0  0  0  0999 V2000
   38.9960   32.1000   40.7090 C   0  0  0  0  0  0  0  0  0  0  0  0
   38.9990   30.8840   41.4220 C   0  0  0  0  0  0  0  0  0  0  0  0
   37.7800   30.2250   41.5930 C   0  0  0  0  0  0  0  0  0  0  0  0
   36.6730   30.7910   41.0640 N   0  0  0  0  0  0  0  0  0  0  0  0
   36.7050   31.9560   40.3870 C   0  0  0  0  0  0  0  0  0  0  0  0
   37.8630   32.6220   40.2020 N   0  0  0  0  0  0  0  0  0  0  0  0
   37.7010   29.0040   42.2940 N   0  0  0  0  0  0  0  0  0  0  0  0
   37.8880   28.7840   43.5790 C   0  0  0  0  0  0  0  0  0  0  0  0
   37.7220   27.4540   43.8760 N   0  0  0  0  0  0  0  0  0  0  0  0
   37.4180   26.8250   42.7240 C   0  0  0  0  0  0  0  0  0  0  0  0
   37.1390   25.5300   42.3490 C   0  0  0  0  0  0  0  0  0  0  0  0
   36.8690   25.2400   41.0680 N   0  0  0  0  0  0  0  0  0  0  0  0
   36.8730   26.2260   40.1610 C   0  0  0  0  0  0  0  0  0  0  0  0
   37.1310   27.4900   40.4480 N   0  0  0  0  0  0  0  0  0  0  0  0
   37.4100   27.8160   41.7460 C   0  0  0  0  0  0  0  0  0  0  0  0
   36.5710   25.8980   38.7370 C   0  0  0  0  0  0  0  0  0  0  0  0
   35.9480   24.5090   38.7410 C   0  0  0  0  0  0  0  0  0  0  0  0
   35.7060   26.9100   38.0580 C   0  0  0  0  0  0  0  0  0  0  0  0
   39.9448   32.6370   40.5628 H   0  0  0  0  0  0  0  0  0  0  0  0
   39.9316   30.4677   41.8305 H   0  0  0  0  0  0  0  0  0  0  0  0
   35.7714   32.3703   39.9787 H   0  0  0  0  0  0  0  0  0  0  0  0
   38.1428   29.5609   44.3148 H   0  0  0  0  0  0  0  0  0  0  0  0
   37.1376   24.7297   43.1036 H   0  0  0  0  0  0  0  0  0  0  0  0
   37.4975   25.9162   38.1443 H   0  0  0  0  0  0  0  0  0  0  0  0
   35.7991   24.1769   39.7791 H   0  0  0  0  0  0  0  0  0  0  0  0
   34.9779   24.5408   38.2234 H   0  0  0  0  0  0  0  0  0  0  0  0
   36.6169   23.8056   38.2234 H   0  0  0  0  0  0  0  0  0  0  0  0
   35.1876   27.5165   38.8153 H   0  0  0  0  0  0  0  0  0  0  0  0
   36.3296   27.5628   37.4295 H   0  0  0  0  0  0  0  0  0  0  0  0
   34.9641   26.3956   37.4295 H   0  0  0  0  0  0  0  0  0  0  0  0
  1  2  2  0
  2  3  1  0
  3  7  1  0
  4  3  2  0
  5  4  1  0
  6  5  2  0
  6  1  1  0
  7  8  1  0
  8  9  2  0
 10  9  1  0
 11 10  2  0
 12 11  1  0
 13 14  1  0
 13 12  2  0
 14 15  2  0
 15  7  1  0
 15 10  1  0
 16 17  1  0
 16 13  1  0
 18 16  1  0
  1 19  1  0
  2 20  1  0
  5 21  1  0
  8 22  1  0
 11 23  1  0
 16 24  1  0
 17 25  1  0
 17 26  1  0
 17 27  1  0
 18 28  1  0
 18 29  1  0
 18 30  1  0
M  ISO  8  19  14  20  14  21  14  22  14  23  14  24   8  25   8  26   8
M  ISO  4  27   8  28   8  29   8  30   8
M  END
>  <minimizedAffinity>  (1) 
-4.73757315

>  <minimizedRMSD>  (1) 
0.423559368

$$$$
