
     RDKit          3D

 27 30  0  0  0  0  0  0  0  0999 V2000
   39.0550   32.1170   40.7490 C   0  0  0  0  0  0  0  0  0  0  0  0
   39.0340   30.9050   41.4640 C   0  0  0  0  0  0  0  0  0  0  0  0
   37.7980   30.2570   41.5850 C   0  0  0  0  0  0  0  0  0  0  0  0
   36.7100   30.8160   41.0230 N   0  0  0  0  0  0  0  0  0  0  0  0
   36.7820   31.9800   40.3480 C   0  0  0  0  0  0  0  0  0  0  0  0
   37.9480   32.6440   40.2010 N   0  0  0  0  0  0  0  0  0  0  0  0
   37.7000   29.0370   42.2890 N   0  0  0  0  0  0  0  0  0  0  0  0
   37.8560   28.8090   43.5770 C   0  0  0  0  0  0  0  0  0  0  0  0
   37.6790   27.4830   43.8610 N   0  0  0  0  0  0  0  0  0  0  0  0
   37.4010   26.8550   42.7060 C   0  0  0  0  0  0  0  0  0  0  0  0
   37.1320   25.5630   42.3520 C   0  0  0  0  0  0  0  0  0  0  0  0
   36.8860   25.2630   41.0460 N   0  0  0  0  0  0  0  0  0  0  0  0
   36.9150   26.2610   40.1420 C   0  0  0  0  0  0  0  0  0  0  0  0
   37.1700   27.5260   40.4350 N   0  0  0  0  0  0  0  0  0  0  0  0
   37.4190   27.8460   41.7360 C   0  0  0  0  0  0  0  0  0  0  0  0
   36.6300   25.7960   38.7610 C   0  0  0  0  0  0  0  0  0  0  0  0
   37.2370   24.6130   37.9790 C   0  0  0  0  0  0  0  0  0  0  0  0
   36.3420   24.7950   36.4580 S   0  0  0  0  0  0  0  0  0  0  0  0
   35.3470   26.3140   37.0180 C   0  0  0  0  0  0  0  0  0  0  0  0
   35.7050   26.6060   38.2530 N   0  0  0  0  0  0  0  0  0  0  0  0
   40.0102   32.6505   40.6352 H   0  0  0  0  0  0  0  0  0  0  0  0
   39.9483   30.4849   41.9085 H   0  0  0  0  0  0  0  0  0  0  0  0
   35.8668   32.4000   39.9053 H   0  0  0  0  0  0  0  0  0  0  0  0
   38.0961   29.5807   44.3231 H   0  0  0  0  0  0  0  0  0  0  0  0
   37.1142   24.7713   43.1155 H   0  0  0  0  0  0  0  0  0  0  0  0
   37.9979   23.8762   38.2759 H   0  0  0  0  0  0  0  0  0  0  0  0
   34.6020   26.8555   36.4165 H   0  0  0  0  0  0  0  0  0  0  0  0
  1  2  2  0
  2  3  1  0
  3  7  1  0
  4  3  2  0
  5  4  1  0
  6  5  2  0
  6  1  1  0
  7  8  1  0
  8  9  2  0
 10  9  1  0
 11 10  2  0
 12 11  1  0
 13 14  1  0
 13 12  2  0
 14 15  2  0
 15  7  1  0
 15 10  1  0
 16 13  1  0
 17 16  2  0
 18 19  1  0
 18 17  1  0
 19 20  2  0
 20 16  1  0
  1 21  1  0
  2 22  1  0
  5 23  1  0
  8 24  1  0
 11 25  1  0
 17 26  1  0
 19 27  1  0
M  ISO  7  21  14  22  14  23  14  24  14  25  14  26  14  27  14
M  END
>  <minimizedAffinity>  (1) 
-4.70774412

>  <minimizedRMSD>  (1) 
0.634691715

$$$$
