
     RDKit          3D

 26 29  0  0  0  0  0  0  0  0999 V2000
   39.1070   32.1590   40.7930 C   0  0  0  0  0  0  0  0  0  0  0  0
   39.0530   30.9390   41.4790 C   0  0  0  0  0  0  0  0  0  0  0  0
   37.8330   30.2940   41.5840 C   0  0  0  0  0  0  0  0  0  0  0  0
   36.7440   30.8740   41.0180 N   0  0  0  0  0  0  0  0  0  0  0  0
   36.8170   32.0440   40.3640 C   0  0  0  0  0  0  0  0  0  0  0  0
   37.9990   32.7050   40.2420 N   0  0  0  0  0  0  0  0  0  0  0  0
   37.7180   29.0560   42.2670 N   0  0  0  0  0  0  0  0  0  0  0  0
   37.8610   28.8030   43.5550 C   0  0  0  0  0  0  0  0  0  0  0  0
   37.6690   27.4750   43.8200 N   0  0  0  0  0  0  0  0  0  0  0  0
   37.3960   26.8700   42.6540 C   0  0  0  0  0  0  0  0  0  0  0  0
   37.1150   25.5890   42.2470 C   0  0  0  0  0  0  0  0  0  0  0  0
   36.8790   25.3240   40.9390 N   0  0  0  0  0  0  0  0  0  0  0  0
   36.9260   26.3360   40.0530 C   0  0  0  0  0  0  0  0  0  0  0  0
   37.1900   27.5930   40.3760 N   0  0  0  0  0  0  0  0  0  0  0  0
   37.4300   27.8760   41.6960 C   0  0  0  0  0  0  0  0  0  0  0  0
   36.6670   26.0160   38.6520 C   0  0  0  0  0  0  0  0  0  0  0  0
   37.3090   26.5490   37.5780 N   0  0  0  0  0  0  0  0  0  0  0  0
   36.8200   26.0320   36.4710 O   0  0  0  0  0  0  0  0  0  0  0  0
   35.8660   25.1670   36.7780 C   0  0  0  0  0  0  0  0  0  0  0  0
   35.7600   25.1460   38.1320 N   0  0  0  0  0  0  0  0  0  0  0  0
   40.0695   32.6834   40.7006 H   0  0  0  0  0  0  0  0  0  0  0  0
   39.9597   30.5034   41.9242 H   0  0  0  0  0  0  0  0  0  0  0  0
   35.9072   32.4744   39.9202 H   0  0  0  0  0  0  0  0  0  0  0  0
   38.1028   29.5606   44.3150 H   0  0  0  0  0  0  0  0  0  0  0  0
   37.0813   24.7746   42.9856 H   0  0  0  0  0  0  0  0  0  0  0  0
   35.2697   24.5750   36.0681 H   0  0  0  0  0  0  0  0  0  0  0  0
  1  2  2  0
  2  3  1  0
  3  7  1  0
  4  3  2  0
  5  4  1  0
  6  5  2  0
  6  1  1  0
  7  8  1  0
  8  9  2  0
 10  9  1  0
 11 10  2  0
 12 11  1  0
 13 14  1  0
 13 12  2  0
 14 15  2  0
 15  7  1  0
 15 10  1  0
 16 13  1  0
 17 16  2  0
 18 19  1  0
 18 17  1  0
 19 20  2  0
 20 16  1  0
  1 21  1  0
  2 22  1  0
  5 23  1  0
  8 24  1  0
 11 25  1  0
 19 26  1  0
M  ISO  6  21  14  22  14  23  14  24  14  25  14  26  14
M  END
>  <minimizedAffinity>  (1) 
-4.65549994

>  <minimizedRMSD>  (1) 
0.347598225

$$$$
