
     RDKit          3D

 44 48  0  0  1  0  0  0  0  0999 V2000
   39.0670   32.1740   40.8300 C   0  0  0  0  0  0  0  0  0  0  0  0
   39.0340   30.9330   41.5020 C   0  0  0  0  0  0  0  0  0  0  0  0
   37.7890   30.2910   41.5690 C   0  0  0  0  0  0  0  0  0  0  0  0
   36.7250   30.8700   41.0100 N   0  0  0  0  0  0  0  0  0  0  0  0
   36.7930   32.0530   40.3780 C   0  0  0  0  0  0  0  0  0  0  0  0
   37.9590   32.7060   40.2870 N   0  0  0  0  0  0  0  0  0  0  0  0
   37.6900   29.0290   42.2260 N   0  0  0  0  0  0  0  0  0  0  0  0
   37.8550   28.7460   43.5020 C   0  0  0  0  0  0  0  0  0  0  0  0
   37.6830   27.4060   43.7290 N   0  0  0  0  0  0  0  0  0  0  0  0
   37.4000   26.8330   42.5570 C   0  0  0  0  0  0  0  0  0  0  0  0
   37.1330   25.5550   42.1150 C   0  0  0  0  0  0  0  0  0  0  0  0
   36.8860   25.3190   40.8120 N   0  0  0  0  0  0  0  0  0  0  0  0
   36.9050   26.3470   39.9510 C   0  0  0  0  0  0  0  0  0  0  0  0
   37.1560   27.6050   40.3150 N   0  0  0  0  0  0  0  0  0  0  0  0
   37.4080   27.8640   41.6200 C   0  0  0  0  0  0  0  0  0  0  0  0
   36.6500   26.0300   38.5120 C   0  0  1  0  0  0  0  0  0  0  0  0
   35.5230   25.0280   38.2110 C   0  0  0  0  0  0  0  0  0  0  0  0
   35.4310   26.4500   37.8390 C   0  0  2  0  0  0  0  0  0  0  0  0
   35.4350   26.9920   36.4570 C   0  0  0  0  0  0  0  0  0  0  0  0
   34.8750   28.4190   36.5780 C   0  0  0  0  0  0  0  0  0  0  0  0
   35.0580   29.1260   35.2770 C   0  0  0  0  0  0  0  0  0  0  0  0
   36.5300   29.4880   35.1780 C   0  0  0  0  0  0  0  0  0  0  0  0
   37.3980   28.4030   35.7180 C   0  0  0  0  0  0  0  0  0  0  0  0
   36.7390   27.0450   35.7540 C   0  0  0  0  0  0  0  0  0  0  0  0
   40.0201   32.7171   40.7491 H   0  0  0  0  0  0  0  0  0  0  0  0
   39.9373   30.4927   41.9495 H   0  0  0  0  0  0  0  0  0  0  0  0
   35.8862   32.4881   39.9326 H   0  0  0  0  0  0  0  0  0  0  0  0
   38.0979   29.4852   44.2795 H   0  0  0  0  0  0  0  0  0  0  0  0
   37.1215   24.7210   42.8322 H   0  0  0  0  0  0  0  0  0  0  0  0
   37.7191   26.1451   38.2801 H   0  0  0  0  0  0  0  0  0  0  0  0
   35.6555   24.2580   37.4367 H   0  0  0  0  0  0  0  0  0  0  0  0
   34.9147   24.3226   38.7961 H   0  0  0  0  0  0  0  0  0  0  0  0
   34.6582   27.2108   38.0235 H   0  0  0  0  0  0  0  0  0  0  0  0
   34.8430   26.3009   35.8389 H   0  0  0  0  0  0  0  0  0  0  0  0
   33.8042   28.3749   36.8261 H   0  0  0  0  0  0  0  0  0  0  0  0
   35.4084   28.9608   37.3730 H   0  0  0  0  0  0  0  0  0  0  0  0
   34.7733   28.4663   34.4441 H   0  0  0  0  0  0  0  0  0  0  0  0
   34.4259   30.0247   35.2236 H   0  0  0  0  0  0  0  0  0  0  0  0
   36.7859   29.6578   34.1217 H   0  0  0  0  0  0  0  0  0  0  0  0
   36.7024   30.3962   35.7742 H   0  0  0  0  0  0  0  0  0  0  0  0
   38.2968   28.3340   35.0875 H   0  0  0  0  0  0  0  0  0  0  0  0
   37.6285   28.6708   36.7597 H   0  0  0  0  0  0  0  0  0  0  0  0
   36.5791   26.7172   34.7162 H   0  0  0  0  0  0  0  0  0  0  0  0
   37.4178   26.3925   36.3227 H   0  0  0  0  0  0  0  0  0  0  0  0
  1  2  2  0
  2  3  1  0
  3  7  1  0
  4  3  2  0
  5  4  1  0
  6  5  2  0
  6  1  1  0
  7  8  1  0
  8  9  2  0
 10  9  1  0
 11 10  2  0
 12 11  1  0
 13 14  1  0
 13 12  2  0
 14 15  2  0
 15  7  1  0
 15 10  1  0
 16 13  1  0
 17 16  1  0
 18 17  1  0
 18 16  1  0
 19 20  1  0
 19 18  1  0
 21 20  1  0
 22 21  1  0
 22 23  1  0
 23 24  1  0
 24 19  1  0
  1 25  1  0
  2 26  1  0
  5 27  1  0
  8 28  1  0
 11 29  1  0
 16 30  1  6
 17 31  1  0
 17 32  1  0
 18 33  1  1
 19 34  1  0
 20 35  1  0
 20 36  1  0
 21 37  1  0
 21 38  1  0
 22 39  1  0
 22 40  1  0
 23 41  1  0
 23 42  1  0
 24 43  1  0
 24 44  1  0
M  ISO  8  25  14  26  14  27  14  28  14  29  14  30  13  31  13  32  13
M  ISO  8  33  13  34  13  35  13  36  13  37  13  38  13  39  13  40  13
M  ISO  4  41  13  42  13  43  13  44  13
M  END
>  <minimizedAffinity>  (1) 
-5.65492058

>  <minimizedRMSD>  (1) 
1.38115633

$$$$
