
     RDKit          3D

 42 46  0  0  1  0  0  0  0  0999 V2000
   38.9770   32.0800   40.9560 C   0  0  0  0  0  0  0  0  0  0  0  0
   38.9130   30.8660   41.6690 C   0  0  0  0  0  0  0  0  0  0  0  0
   37.6800   30.2050   41.6600 C   0  0  0  0  0  0  0  0  0  0  0  0
   36.6520   30.7400   40.9950 N   0  0  0  0  0  0  0  0  0  0  0  0
   36.7580   31.9040   40.3250 C   0  0  0  0  0  0  0  0  0  0  0  0
   37.9180   32.5840   40.3000 N   0  0  0  0  0  0  0  0  0  0  0  0
   37.5440   28.9650   42.3580 N   0  0  0  0  0  0  0  0  0  0  0  0
   37.6040   28.7360   43.6480 C   0  0  0  0  0  0  0  0  0  0  0  0
   37.4330   27.4020   43.9140 N   0  0  0  0  0  0  0  0  0  0  0  0
   37.2610   26.7750   42.7420 C   0  0  0  0  0  0  0  0  0  0  0  0
   37.0520   25.4770   42.3430 C   0  0  0  0  0  0  0  0  0  0  0  0
   36.9210   25.1970   41.0180 N   0  0  0  0  0  0  0  0  0  0  0  0
   36.9970   26.1890   40.1230 C   0  0  0  0  0  0  0  0  0  0  0  0
   37.1990   27.4620   40.4670 N   0  0  0  0  0  0  0  0  0  0  0  0
   37.3330   27.7740   41.7780 C   0  0  0  0  0  0  0  0  0  0  0  0
   36.8700   25.8130   38.6820 C   0  0  1  0  0  0  0  0  0  0  0  0
   35.5340   25.1700   38.2660 C   0  0  0  0  0  0  0  0  0  0  0  0
   35.9620   26.5210   37.7980 C   0  0  2  0  0  0  0  0  0  0  0  0
   36.1910   26.7920   36.4080 N   0  0  0  0  0  0  0  0  0  0  0  0
   35.3580   27.8570   35.9520 C   0  0  0  0  0  0  0  0  0  0  0  0
   35.7350   28.5290   34.6910 C   0  0  0  0  0  0  0  0  0  0  0  0
   37.1130   28.8520   34.5170 N   0  0  0  0  0  0  0  0  0  0  0  0
   37.9150   28.3650   35.5970 C   0  0  0  0  0  0  0  0  0  0  0  0
   37.5480   26.9590   36.0190 C   0  0  0  0  0  0  0  0  0  0  0  0
   39.9269   32.6343   40.9358 H   0  0  0  0  0  0  0  0  0  0  0  0
   39.7848   30.4604   42.2033 H   0  0  0  0  0  0  0  0  0  0  0  0
   35.8834   32.3038   39.7909 H   0  0  0  0  0  0  0  0  0  0  0  0
   37.7691   29.5093   44.4127 H   0  0  0  0  0  0  0  0  0  0  0  0
   36.9911   24.6707   43.0888 H   0  0  0  0  0  0  0  0  0  0  0  0
   37.9405   25.5684   38.6174 H   0  0  0  0  0  0  0  0  0  0  0  0
   35.5179   24.3181   37.5703 H   0  0  0  0  0  0  0  0  0  0  0  0
   34.6598   24.7494   38.7845 H   0  0  0  0  0  0  0  0  0  0  0  0
   35.5416   27.5367   37.8371 H   0  0  0  0  0  0  0  0  0  0  0  0
   34.3457   27.4483   35.8171 H   0  0  0  0  0  0  0  0  0  0  0  0
   35.4536   28.6359   36.7228 H   0  0  0  0  0  0  0  0  0  0  0  0
   35.4418   27.8680   33.8621 H   0  0  0  0  0  0  0  0  0  0  0  0
   35.2153   29.4981   34.7170 H   0  0  0  0  0  0  0  0  0  0  0  0
   37.4457   28.4299   33.6383 H   0  0  0  0  0  0  0  0  0  0  0  0
   38.9689   28.3726   35.2821 H   0  0  0  0  0  0  0  0  0  0  0  0
   37.7395   29.0239   36.4602 H   0  0  0  0  0  0  0  0  0  0  0  0
   37.7479   26.2841   35.1737 H   0  0  0  0  0  0  0  0  0  0  0  0
   38.1565   26.7316   36.9067 H   0  0  0  0  0  0  0  0  0  0  0  0
  1  2  2  0
  3  2  1  0
  3  7  1  0
  4  3  2  0
  5  4  1  0
  6  5  2  0
  6  1  1  0
  7  8  1  0
  8  9  2  0
 10  9  1  0
 11 10  2  0
 12 11  1  0
 13 14  1  0
 13 12  2  0
 14 15  2  0
 15  7  1  0
 15 10  1  0
 16 13  1  0
 17 16  1  0
 18 17  1  0
 18 16  1  0
 19 18  1  0
 20 19  1  0
 21 20  1  0
 22 21  1  0
 22 23  1  0
 23 24  1  0
 24 19  1  0
  1 25  1  0
  2 26  1  0
  5 27  1  0
  8 28  1  0
 11 29  1  0
 16 30  1  6
 17 31  1  0
 17 32  1  0
 18 33  1  1
 20 34  1  0
 20 35  1  0
 21 36  1  0
 21 37  1  0
 22 38  1  0
 23 39  1  0
 23 40  1  0
 24 41  1  0
 24 42  1  0
M  ISO  8  25  14  26  14  27  14  28  14  29  14  30  13  31  13  32  13
M  ISO  8  33  13  34  13  35  13  36  13  37  13  38   5  39  13  40  13
M  ISO  2  41  13  42  13
M  END
>  <minimizedAffinity>  (1) 
-5.61615562

>  <minimizedRMSD>  (1) 
0.995720387

$$$$
