
     RDKit          3D

 37 39  0  0  1  0  0  0  0  0999 V2000
   36.6650   24.2020   41.0250 C   0  0  1  0  0  0  0  0  0  0  0  0
   36.4250   23.0880   40.1190 C   0  0  0  0  0  0  0  0  0  0  0  0
   37.2360   22.0990   39.6090 C   0  0  0  0  0  0  0  0  0  0  0  0
   36.7820   21.1400   38.7460 C   0  0  0  0  0  0  0  0  0  0  0  0
   35.4680   21.1060   38.3290 C   0  0  0  0  0  0  0  0  0  0  0  0
   34.6390   22.0800   38.8220 C   0  0  0  0  0  0  0  0  0  0  0  0
   35.0860   23.0610   39.6990 C   0  0  0  0  0  0  0  0  0  0  0  0
   37.5650   23.9290   42.1180 N   0  0  0  0  0  0  0  0  0  0  0  0
   38.9660   24.1640   42.0200 C   0  0  0  0  0  0  0  0  0  0  0  0
   39.4590   24.4720   40.8780 N   0  0  0  0  0  0  0  0  0  0  0  0
   39.7890   24.0440   43.1560 N   0  0  0  0  0  0  0  0  0  0  0  0
   40.4730   24.6210   40.7520 H   0  0  0  0  0  0  0  0  0  0  0  0
   37.0990   27.6540   40.1340 C   0  0  0  0  0  0  0  0  0  0  0  0
   37.1820   27.0450   38.8760 C   0  0  0  0  0  0  0  0  0  0  0  0
   37.0310   25.7010   39.1580 C   0  0  0  0  0  0  0  0  0  0  0  0
   36.8690   25.4960   40.4740 N   0  0  0  0  0  0  0  0  0  0  0  0
   36.9130   26.6950   41.0540 N   0  0  0  0  0  0  0  0  0  0  0  0
   36.1950   29.8730   40.8770 C   0  0  0  0  0  0  0  0  0  0  0  0
   37.1950   29.0820   40.3520 C   0  0  0  0  0  0  0  0  0  0  0  0
   38.3930   29.7060   40.0000 C   0  0  0  0  0  0  0  0  0  0  0  0
   38.5290   31.0560   40.1870 N   0  0  0  0  0  0  0  0  0  0  0  0
   37.4750   31.7790   40.7220 C   0  0  0  0  0  0  0  0  0  0  0  0
   36.2960   31.1760   41.0690 N   0  0  0  0  0  0  0  0  0  0  0  0
   35.6524   24.2759   41.4483 H   0  0  0  0  0  0  0  0  0  0  0  0
   38.2943   22.0794   39.9085 H   0  0  0  0  0  0  0  0  0  0  0  0
   37.4823   20.3770   38.3754 H   0  0  0  0  0  0  0  0  0  0  0  0
   35.1029   20.3349   37.6346 H   0  0  0  0  0  0  0  0  0  0  0  0
   33.5834   22.0853   38.5127 H   0  0  0  0  0  0  0  0  0  0  0  0
   34.3839   23.8234   40.0674 H   0  0  0  0  0  0  0  0  0  0  0  0
   37.1826   23.5523   42.9970 H   0  0  0  0  0  0  0  0  0  0  0  0
   40.8017   24.2153   43.0787 H   0  0  0  0  0  0  0  0  0  0  0  0
   39.3784   23.7849   44.0644 H   0  0  0  0  0  0  0  0  0  0  0  0
   37.3317   27.5228   37.8966 H   0  0  0  0  0  0  0  0  0  0  0  0
   37.0421   24.9024   38.4016 H   0  0  0  0  0  0  0  0  0  0  0  0
   35.2487   29.3858   41.1548 H   0  0  0  0  0  0  0  0  0  0  0  0
   39.2208   29.1185   39.5761 H   0  0  0  0  0  0  0  0  0  0  0  0
   37.5883   32.8629   40.8714 H   0  0  0  0  0  0  0  0  0  0  0  0
  1  8  1  0
  2  1  1  0
  3  2  2  0
  4  3  1  0
  5  4  2  0
  5  6  1  0
  6  7  2  0
  7  2  1  0
  9  8  1  0
  9 11  1  0
 10  9  2  0
 12 10  1  0
 13 19  1  0
 13 17  2  0
 14 15  2  0
 14 13  1  0
 15 16  1  0
 16  1  1  0
 16 17  1  0
 18 23  2  0
 19 18  1  0
 20 21  1  0
 20 19  2  0
 21 22  2  0
 22 23  1  0
  1 24  1  1
  3 25  1  0
  4 26  1  0
  5 27  1  0
  6 28  1  0
  7 29  1  0
  8 30  1  0
 11 31  1  0
 11 32  1  0
 14 33  1  0
 15 34  1  0
 18 35  1  0
 20 36  1  0
 22 37  1  0
M  ISO  8  24   8  25  14  26  14  27  14  28  14  29  14  33  14  34  14
M  ISO  3  35  14  36  14  37  14
M  END
>  <minimizedAffinity>  (1) 
-4.69225502

>  <minimizedRMSD>  (1) 
1.6346252

$$$$
