
     RDKit          3D

 42 47  0  0  1  0  0  0  0  0999 V2000
   38.9560   32.1300   40.8700 C   0  0  0  0  0  0  0  0  0  0  0  0
   38.9490   30.9140   41.5800 C   0  0  0  0  0  0  0  0  0  0  0  0
   37.7270   30.2370   41.6400 C   0  0  0  0  0  0  0  0  0  0  0  0
   36.6570   30.7590   41.0410 N   0  0  0  0  0  0  0  0  0  0  0  0
   36.7060   31.9270   40.3710 C   0  0  0  0  0  0  0  0  0  0  0  0
   37.8590   32.6240   40.2790 N   0  0  0  0  0  0  0  0  0  0  0  0
   37.6440   28.9940   42.3390 N   0  0  0  0  0  0  0  0  0  0  0  0
   37.7800   28.7580   43.6210 C   0  0  0  0  0  0  0  0  0  0  0  0
   37.6390   27.4300   43.9030 N   0  0  0  0  0  0  0  0  0  0  0  0
   37.4040   26.8070   42.7370 C   0  0  0  0  0  0  0  0  0  0  0  0
   37.1830   25.5090   42.3440 C   0  0  0  0  0  0  0  0  0  0  0  0
   36.9770   25.2250   41.0310 N   0  0  0  0  0  0  0  0  0  0  0  0
   36.9920   26.2270   40.1400 C   0  0  0  0  0  0  0  0  0  0  0  0
   37.2010   27.4950   40.4670 N   0  0  0  0  0  0  0  0  0  0  0  0
   37.4120   27.8100   41.7710 C   0  0  0  0  0  0  0  0  0  0  0  0
   36.7860   25.8410   38.7060 C   0  0  1  0  0  0  0  0  0  0  0  0
   35.5890   24.9110   38.4280 C   0  0  0  0  0  0  0  0  0  0  0  0
   35.6530   26.3250   37.9420 C   0  0  2  0  0  0  0  0  0  0  0  0
   35.6130   26.4760   36.4880 C   0  0  0  0  0  0  0  0  0  0  0  0
   36.7920   26.9010   35.8560 C   0  0  0  0  0  0  0  0  0  0  0  0
   36.5800   27.0000   34.5440 N   0  0  0  0  0  0  0  0  0  0  0  0
   35.3150   26.6640   34.2370 C   0  0  0  0  0  0  0  0  0  0  0  0
   34.4950   26.5560   33.1260 C   0  0  0  0  0  0  0  0  0  0  0  0
   33.1650   26.1440   33.2490 C   0  0  0  0  0  0  0  0  0  0  0  0
   32.6170   25.8300   34.4800 C   0  0  0  0  0  0  0  0  0  0  0  0
   33.4290   25.9380   35.5840 C   0  0  0  0  0  0  0  0  0  0  0  0
   34.7240   26.3410   35.4410 C   0  0  0  0  0  0  0  0  0  0  0  0
   39.8967   32.6956   40.7977 H   0  0  0  0  0  0  0  0  0  0  0  0
   39.8555   30.5182   42.0612 H   0  0  0  0  0  0  0  0  0  0  0  0
   35.7955   32.3176   39.8930 H   0  0  0  0  0  0  0  0  0  0  0  0
   37.9824   29.5329   44.3750 H   0  0  0  0  0  0  0  0  0  0  0  0
   37.1728   24.7013   43.0907 H   0  0  0  0  0  0  0  0  0  0  0  0
   37.8694   25.8503   38.5161 H   0  0  0  0  0  0  0  0  0  0  0  0
   35.6854   24.0732   37.7218 H   0  0  0  0  0  0  0  0  0  0  0  0
   34.8938   24.3081   39.0307 H   0  0  0  0  0  0  0  0  0  0  0  0
   35.0865   27.2610   38.0555 H   0  0  0  0  0  0  0  0  0  0  0  0
   37.7429   27.1185   36.3644 H   0  0  0  0  0  0  0  0  0  0  0  0
   37.2896   27.2942   33.8578 H   0  0  0  0  0  0  0  0  0  0  0  0
   34.8968   26.7983   32.1311 H   0  0  0  0  0  0  0  0  0  0  0  0
   32.5401   26.0677   32.3470 H   0  0  0  0  0  0  0  0  0  0  0  0
   31.5699   25.5058   34.5719 H   0  0  0  0  0  0  0  0  0  0  0  0
   33.0343   25.6994   36.5826 H   0  0  0  0  0  0  0  0  0  0  0  0
  1  2  2  0
  2  3  1  0
  3  7  1  0
  4  3  2  0
  5  4  1  0
  6  5  2  0
  6  1  1  0
  7  8  1  0
  8  9  2  0
 10  9  1  0
 11 10  2  0
 12 11  1  0
 13 14  1  0
 13 12  2  0
 14 15  2  0
 15  7  1  0
 15 10  1  0
 16 13  1  0
 17 16  1  0
 18 17  1  0
 18 16  1  0
 19 18  1  0
 20 19  2  0
 21 20  1  0
 22 21  1  0
 22 27  2  0
 23 24  2  0
 23 22  1  0
 24 25  1  0
 25 26  2  0
 27 26  1  0
 27 19  1  0
  1 28  1  0
  2 29  1  0
  5 30  1  0
  8 31  1  0
 11 32  1  0
 16 33  1  6
 17 34  1  0
 17 35  1  0
 18 36  1  1
 20 37  1  0
 21 38  1  0
 23 39  1  0
 24 40  1  0
 25 41  1  0
 26 42  1  0
M  ISO  8  28  14  29  14  30  14  31  14  32  14  33  13  34  13  35  13
M  ISO  7  36  13  37  14  38   9  39  14  40  14  41  14  42  14
M  END
>  <minimizedAffinity>  (1) 
-5.47763014

>  <minimizedRMSD>  (1) 
1.2184689

$$$$
