
     RDKit          3D

 39 44  0  0  1  0  0  0  0  0999 V2000
   38.4370   31.5780   40.8520 C   0  0  0  0  0  0  0  0  0  0  0  0
   38.8650   30.3640   41.4200 C   0  0  0  0  0  0  0  0  0  0  0  0
   37.8710   29.4380   41.7650 C   0  0  0  0  0  0  0  0  0  0  0  0
   36.5950   29.7480   41.5400 N   0  0  0  0  0  0  0  0  0  0  0  0
   36.2210   30.9200   40.9930 C   0  0  0  0  0  0  0  0  0  0  0  0
   37.1410   31.8420   40.6460 N   0  0  0  0  0  0  0  0  0  0  0  0
   38.2340   28.1870   42.3370 N   0  0  0  0  0  0  0  0  0  0  0  0
   38.7860   27.9430   43.5010 C   0  0  0  0  0  0  0  0  0  0  0  0
   38.9900   26.6080   43.6800 N   0  0  0  0  0  0  0  0  0  0  0  0
   38.5480   25.9800   42.5810 C   0  0  0  0  0  0  0  0  0  0  0  0
   38.4680   24.6730   42.1360 C   0  0  0  0  0  0  0  0  0  0  0  0
   37.9430   24.3990   40.9220 N   0  0  0  0  0  0  0  0  0  0  0  0
   37.5030   25.4120   40.1630 C   0  0  0  0  0  0  0  0  0  0  0  0
   37.5550   26.6850   40.5390 N   0  0  0  0  0  0  0  0  0  0  0  0
   38.0720   27.0010   41.7440 C   0  0  0  0  0  0  0  0  0  0  0  0
   36.9540   25.0480   38.8180 C   0  0  1  0  0  0  0  0  0  0  0  0
   35.6110   24.2920   38.8160 C   0  0  0  0  0  0  0  0  0  0  0  0
   35.7630   25.6790   38.2810 C   0  0  2  0  0  0  0  0  0  0  0  0
   35.5130   25.8400   36.8800 N   0  0  0  0  0  0  0  0  0  0  0  0
   35.0010   24.9090   36.0260 C   0  0  0  0  0  0  0  0  0  0  0  0
   34.9240   25.4550   34.7980 N   0  0  0  0  0  0  0  0  0  0  0  0
   35.3740   26.7140   34.8430 C   0  0  0  0  0  0  0  0  0  0  0  0
   35.4970   27.6760   33.8690 C   0  0  0  0  0  0  0  0  0  0  0  0
   35.9870   28.8710   34.1900 N   0  0  0  0  0  0  0  0  0  0  0  0
   36.3510   29.1180   35.4630 C   0  0  0  0  0  0  0  0  0  0  0  0
   36.2380   28.1840   36.4400 N   0  0  0  0  0  0  0  0  0  0  0  0
   35.7490   26.9610   36.1630 C   0  0  0  0  0  0  0  0  0  0  0  0
   39.1878   32.3306   40.5695 H   0  0  0  0  0  0  0  0  0  0  0  0
   39.9314   30.1512   41.5858 H   0  0  0  0  0  0  0  0  0  0  0  0
   35.1535   31.1273   40.8275 H   0  0  0  0  0  0  0  0  0  0  0  0
   39.0502   28.7161   44.2376 H   0  0  0  0  0  0  0  0  0  0  0  0
   38.8332   23.8538   42.7729 H   0  0  0  0  0  0  0  0  0  0  0  0
   37.9676   24.9047   38.4153 H   0  0  0  0  0  0  0  0  0  0  0  0
   35.4484   23.4452   38.1329 H   0  0  0  0  0  0  0  0  0  0  0  0
   34.9782   23.7944   39.5656 H   0  0  0  0  0  0  0  0  0  0  0  0
   35.3310   26.6710   38.4794 H   0  0  0  0  0  0  0  0  0  0  0  0
   34.7016   23.8852   36.2948 H   0  0  0  0  0  0  0  0  0  0  0  0
   35.1933   27.4602   32.8340 H   0  0  0  0  0  0  0  0  0  0  0  0
   36.7530   30.1095   35.7186 H   0  0  0  0  0  0  0  0  0  0  0  0
  1  2  2  0
  2  3  1  0
  3  7  1  0
  4  3  2  0
  5  4  1  0
  6  1  1  0
  6  5  2  0
  7  8  1  0
  8  9  2  0
 10  9  1  0
 11 10  2  0
 12 11  1  0
 13 14  1  0
 13 12  2  0
 14 15  2  0
 15  7  1  0
 15 10  1  0
 16 13  1  0
 17 16  1  0
 18 17  1  0
 18 16  1  0
 19 18  1  0
 20 19  1  0
 21 22  1  0
 21 20  2  0
 22 27  2  0
 23 24  2  0
 23 22  1  0
 24 25  1  0
 25 26  2  0
 27 26  1  0
 27 19  1  0
  1 28  1  0
  2 29  1  0
  5 30  1  0
  8 31  1  0
 11 32  1  0
 16 33  1  6
 17 34  1  0
 17 35  1  0
 18 36  1  1
 20 37  1  0
 23 38  1  0
 25 39  1  0
M  ISO  8  28  14  29  14  30  14  31  14  32  14  33  13  34  13  35  13
M  ISO  4  36  13  37  14  38  14  39  14
M  END
>  <minimizedAffinity>  (1) 
-5.25063944

>  <minimizedRMSD>  (1) 
1.61340904

$$$$
