
     RDKit          3D

 31 34  0  0  1  0  0  0  0  0999 V2000
   39.9180   32.8250   40.4330 C   0  0  0  0  0  0  0  0  0  0  0  0
   39.7530   31.5890   41.0880 C   0  0  0  0  0  0  0  0  0  0  0  0
   38.4360   31.1130   41.1900 C   0  0  0  0  0  0  0  0  0  0  0  0
   37.4310   31.8310   40.6770 N   0  0  0  0  0  0  0  0  0  0  0  0
   37.6420   33.0100   40.0600 C   0  0  0  0  0  0  0  0  0  0  0  0
   38.8950   33.5260   39.9290 N   0  0  0  0  0  0  0  0  0  0  0  0
   38.1910   29.8720   41.8310 N   0  0  0  0  0  0  0  0  0  0  0  0
   38.3460   29.5430   43.0940 C   0  0  0  0  0  0  0  0  0  0  0  0
   38.0040   28.2380   43.3150 N   0  0  0  0  0  0  0  0  0  0  0  0
   37.6130   27.7210   42.1240 C   0  0  0  0  0  0  0  0  0  0  0  0
   37.1710   26.5000   41.6940 C   0  0  0  0  0  0  0  0  0  0  0  0
   36.8600   26.3190   40.3940 N   0  0  0  0  0  0  0  0  0  0  0  0
   36.9950   27.3520   39.5510 C   0  0  0  0  0  0  0  0  0  0  0  0
   37.4210   28.5550   39.9250 N   0  0  0  0  0  0  0  0  0  0  0  0
   37.7430   28.7680   41.2250 C   0  0  0  0  0  0  0  0  0  0  0  0
   36.6640   27.1080   38.1090 C   0  0  1  0  0  0  0  0  0  0  0  0
   35.2460   26.5800   37.8150 C   0  0  0  0  0  0  0  0  0  0  0  0
   35.7280   27.9250   37.3690 C   0  0  1  0  0  0  0  0  0  0  0  0
   34.9800   29.0880   37.9490 C   0  0  0  0  0  0  0  0  0  0  0  0
   34.2580   28.7100   39.0910 F   0  0  0  0  0  0  0  0  0  0  0  0
   33.9610   29.4030   37.0370 F   0  0  0  0  0  0  0  0  0  0  0  0
   35.7460   30.2070   38.1610 F   0  0  0  0  0  0  0  0  0  0  0  0
   40.9344   33.2331   40.3309 H   0  0  0  0  0  0  0  0  0  0  0  0
   40.6070   31.0287   41.4963 H   0  0  0  0  0  0  0  0  0  0  0  0
   36.7846   33.5668   39.6540 H   0  0  0  0  0  0  0  0  0  0  0  0
   38.7052   30.2303   43.8741 H   0  0  0  0  0  0  0  0  0  0  0  0
   37.0695   25.6680   42.4064 H   0  0  0  0  0  0  0  0  0  0  0  0
   37.7039   26.8105   37.9088 H   0  0  0  0  0  0  0  0  0  0  0  0
   35.0911   25.7718   37.0850 H   0  0  0  0  0  0  0  0  0  0  0  0
   34.4028   26.1921   38.4053 H   0  0  0  0  0  0  0  0  0  0  0  0
   35.8653   28.4690   36.4229 H   0  0  0  0  0  0  0  0  0  0  0  0
  1  2  2  0
  2  3  1  0
  3  7  1  0
  4  3  2  0
  5  4  1  0
  6  5  2  0
  6  1  1  0
  7  8  1  0
  8  9  2  0
 10  9  1  0
 11 10  2  0
 12 11  1  0
 13 14  1  0
 13 12  2  0
 14 15  2  0
 15  7  1  0
 15 10  1  0
 16 13  1  0
 17 16  1  0
 18 17  1  0
 18 19  1  0
 18 16  1  0
 19 22  1  0
 19 20  1  0
 21 19  1  0
  1 23  1  0
  2 24  1  0
  5 25  1  0
  8 26  1  0
 11 27  1  0
 16 28  1  6
 17 29  1  0
 17 30  1  0
 18 31  1  6
M  ISO  8  23  14  24  14  25  14  26  14  27  14  28  13  29  13  30  13
M  ISO  1  31  13
M  END
>  <minimizedAffinity>  (1) 
-5.23806953

>  <minimizedRMSD>  (1) 
1.34612799

$$$$
