
     RDKit          3D

 34 38  0  0  1  0  0  0  0  0999 V2000
   39.0720   32.1810   40.8240 C   0  0  0  0  0  0  0  0  0  0  0  0
   39.0390   30.9520   41.5020 C   0  0  0  0  0  0  0  0  0  0  0  0
   37.8100   30.2950   41.5910 C   0  0  0  0  0  0  0  0  0  0  0  0
   36.7380   30.8630   41.0330 N   0  0  0  0  0  0  0  0  0  0  0  0
   36.8030   32.0450   40.3890 C   0  0  0  0  0  0  0  0  0  0  0  0
   37.9670   32.7070   40.2830 N   0  0  0  0  0  0  0  0  0  0  0  0
   37.7170   29.0440   42.2590 N   0  0  0  0  0  0  0  0  0  0  0  0
   37.8880   28.7750   43.5380 C   0  0  0  0  0  0  0  0  0  0  0  0
   37.7230   27.4350   43.7860 N   0  0  0  0  0  0  0  0  0  0  0  0
   37.4330   26.8490   42.6020 C   0  0  0  0  0  0  0  0  0  0  0  0
   37.1720   25.5710   42.1960 C   0  0  0  0  0  0  0  0  0  0  0  0
   36.9180   25.3130   40.8860 N   0  0  0  0  0  0  0  0  0  0  0  0
   36.9310   26.3350   40.0220 C   0  0  0  0  0  0  0  0  0  0  0  0
   37.1800   27.5960   40.3690 N   0  0  0  0  0  0  0  0  0  0  0  0
   37.4360   27.8840   41.6610 C   0  0  0  0  0  0  0  0  0  0  0  0
   36.6710   25.9980   38.5850 C   0  0  1  0  0  0  0  0  0  0  0  0
   35.5870   24.9380   38.3110 C   0  0  0  0  0  0  0  0  0  0  0  0
   35.4300   26.3710   37.9210 C   0  0  2  0  0  0  0  0  0  0  0  0
   35.4750   26.7150   36.4540 C   0  0  0  0  0  0  0  0  0  0  0  0
   34.7630   25.8440   35.3570 C   0  0  0  0  0  0  0  0  0  0  0  0
   35.2210   26.8110   33.9000 S   0  0  0  0  0  0  0  0  0  0  0  0
   36.2020   28.1120   34.8760 C   0  0  0  0  0  0  0  0  0  0  0  0
   36.1350   27.7820   36.0900 N   0  0  0  0  0  0  0  0  0  0  0  0
   40.0255   32.7224   40.7358 H   0  0  0  0  0  0  0  0  0  0  0  0
   39.9485   30.5221   41.9470 H   0  0  0  0  0  0  0  0  0  0  0  0
   35.8921   32.4728   39.9449 H   0  0  0  0  0  0  0  0  0  0  0  0
   38.1308   29.5251   44.3051 H   0  0  0  0  0  0  0  0  0  0  0  0
   37.1674   24.7510   42.9292 H   0  0  0  0  0  0  0  0  0  0  0  0
   37.7306   26.1566   38.3359 H   0  0  0  0  0  0  0  0  0  0  0  0
   35.7442   24.1657   37.5437 H   0  0  0  0  0  0  0  0  0  0  0  0
   35.0179   24.2122   38.9105 H   0  0  0  0  0  0  0  0  0  0  0  0
   34.6650   27.1362   38.1193 H   0  0  0  0  0  0  0  0  0  0  0  0
   34.1665   24.9243   35.4481 H   0  0  0  0  0  0  0  0  0  0  0  0
   36.7272   28.9850   34.4613 H   0  0  0  0  0  0  0  0  0  0  0  0
  1  2  2  0
  2  3  1  0
  3  7  1  0
  4  3  2  0
  5  4  1  0
  6  5  2  0
  6  1  1  0
  7  8  1  0
  8  9  2  0
 10  9  1  0
 11 10  2  0
 12 11  1  0
 13 14  1  0
 13 12  2  0
 14 15  2  0
 15  7  1  0
 15 10  1  0
 16 13  1  0
 17 16  1  0
 18 17  1  0
 18 16  1  0
 19 18  1  0
 20 19  2  0
 21 22  1  0
 21 20  1  0
 22 23  2  0
 23 19  1  0
  1 24  1  0
  2 25  1  0
  5 26  1  0
  8 27  1  0
 11 28  1  0
 16 29  1  6
 17 30  1  0
 17 31  1  0
 18 32  1  1
 20 33  1  0
 22 34  1  0
M  ISO  8  24  14  25  14  26  14  27  14  28  14  29  13  30  13  31  13
M  ISO  3  32  13  33  14  34  14
M  END
>  <minimizedAffinity>  (1) 
-5.05301046

>  <minimizedRMSD>  (1) 
1.15495074

$$$$
