
     RDKit          3D

 36 40  0  0  1  0  0  0  0  0999 V2000
   38.3120   31.5350   40.6680 C   0  0  0  0  0  0  0  0  0  0  0  0
   38.8390   30.3640   41.2640 C   0  0  0  0  0  0  0  0  0  0  0  0
   37.8990   29.4180   41.7000 C   0  0  0  0  0  0  0  0  0  0  0  0
   36.5960   29.6620   41.5350 N   0  0  0  0  0  0  0  0  0  0  0  0
   36.1410   30.7900   40.9630 C   0  0  0  0  0  0  0  0  0  0  0  0
   36.9980   31.7440   40.5210 N   0  0  0  0  0  0  0  0  0  0  0  0
   38.3430   28.2110   42.3040 N   0  0  0  0  0  0  0  0  0  0  0  0
   38.9640   28.0450   43.4510 C   0  0  0  0  0  0  0  0  0  0  0  0
   39.2320   26.7240   43.6800 N   0  0  0  0  0  0  0  0  0  0  0  0
   38.7560   26.0330   42.6280 C   0  0  0  0  0  0  0  0  0  0  0  0
   38.7080   24.7080   42.2420 C   0  0  0  0  0  0  0  0  0  0  0  0
   38.1400   24.3570   41.0730 N   0  0  0  0  0  0  0  0  0  0  0  0
   37.6210   25.3110   40.2900 C   0  0  0  0  0  0  0  0  0  0  0  0
   37.6380   26.6030   40.6090 N   0  0  0  0  0  0  0  0  0  0  0  0
   38.2020   26.9900   41.7750 C   0  0  0  0  0  0  0  0  0  0  0  0
   37.0320   24.8690   38.9920 C   0  0  1  0  0  0  0  0  0  0  0  0
   35.6890   24.1190   39.0640 C   0  0  0  0  0  0  0  0  0  0  0  0
   35.8290   25.4630   38.4390 C   0  0  2  0  0  0  0  0  0  0  0  0
   35.7990   25.6440   36.9640 C   0  0  0  0  0  0  0  0  0  0  0  0
   34.9780   26.6370   36.4370 C   0  0  0  0  0  0  0  0  0  0  0  0
   35.0020   26.7450   35.0540 C   0  0  0  0  0  0  0  0  0  0  0  0
   35.7440   25.9800   34.2230 N   0  0  0  0  0  0  0  0  0  0  0  0
   36.5220   25.0330   34.7940 C   0  0  0  0  0  0  0  0  0  0  0  0
   36.5320   24.8880   36.1200 N   0  0  0  0  0  0  0  0  0  0  0  0
   39.0114   32.3052   40.3108 H   0  0  0  0  0  0  0  0  0  0  0  0
   39.9214   30.2052   41.3785 H   0  0  0  0  0  0  0  0  0  0  0  0
   35.0572   30.9418   40.8516 H   0  0  0  0  0  0  0  0  0  0  0  0
   39.2328   28.8621   44.1367 H   0  0  0  0  0  0  0  0  0  0  0  0
   39.1371   23.9335   42.8946 H   0  0  0  0  0  0  0  0  0  0  0  0
   38.0379   24.7008   38.5797 H   0  0  0  0  0  0  0  0  0  0  0  0
   35.5128   23.2299   38.4407 H   0  0  0  0  0  0  0  0  0  0  0  0
   35.0706   23.6728   39.8567 H   0  0  0  0  0  0  0  0  0  0  0  0
   35.2680   26.3972   38.5893 H   0  0  0  0  0  0  0  0  0  0  0  0
   34.3565   27.2876   37.0699 H   0  0  0  0  0  0  0  0  0  0  0  0
   34.3650   27.5163   34.5965 H   0  0  0  0  0  0  0  0  0  0  0  0
   37.1469   24.3820   34.1649 H   0  0  0  0  0  0  0  0  0  0  0  0
  1  2  2  0
  2  3  1  0
  3  7  1  0
  4  3  2  0
  5  4  1  0
  6  1  1  0
  6  5  2  0
  7  8  1  0
  8  9  2  0
 10  9  1  0
 11 10  2  0
 12 11  1  0
 13 14  1  0
 13 12  2  0
 14 15  2  0
 15  7  1  0
 15 10  1  0
 16 17  1  0
 16 13  1  0
 18 16  1  0
 18 17  1  0
 19 18  1  0
 20 19  2  0
 21 20  1  0
 22 23  1  0
 22 21  2  0
 23 24  2  0
 24 19  1  0
  1 25  1  0
  2 26  1  0
  5 27  1  0
  8 28  1  0
 11 29  1  0
 16 30  1  6
 17 31  1  0
 17 32  1  0
 18 33  1  1
 20 34  1  0
 21 35  1  0
 23 36  1  0
M  ISO  8  25  14  26  14  27  14  28  14  29  14  30  13  31  13  32  13
M  ISO  4  33  13  34  14  35  14  36  14
M  END
>  <minimizedAffinity>  (1) 
-4.83364725

>  <minimizedRMSD>  (1) 
1.76389968

$$$$
