
     RDKit          3D

 29 32  0  0  1  0  0  0  0  0999 V2000
   39.0010   32.1100   40.9500 C   0  0  0  0  0  0  0  0  0  0  0  0
   38.9240   30.8970   41.6570 C   0  0  0  0  0  0  0  0  0  0  0  0
   37.6990   30.2140   41.6300 C   0  0  0  0  0  0  0  0  0  0  0  0
   36.6840   30.7420   40.9440 N   0  0  0  0  0  0  0  0  0  0  0  0
   36.7980   31.9090   40.2780 C   0  0  0  0  0  0  0  0  0  0  0  0
   37.9490   32.5920   40.2770 N   0  0  0  0  0  0  0  0  0  0  0  0
   37.5630   28.9780   42.3220 N   0  0  0  0  0  0  0  0  0  0  0  0
   37.6030   28.7510   43.6140 C   0  0  0  0  0  0  0  0  0  0  0  0
   37.4400   27.4160   43.8740 N   0  0  0  0  0  0  0  0  0  0  0  0
   37.2920   26.7860   42.7010 C   0  0  0  0  0  0  0  0  0  0  0  0
   37.1030   25.4930   42.2950 C   0  0  0  0  0  0  0  0  0  0  0  0
   36.9960   25.2000   40.9740 N   0  0  0  0  0  0  0  0  0  0  0  0
   37.0790   26.1980   40.0860 C   0  0  0  0  0  0  0  0  0  0  0  0
   37.2640   27.4740   40.4240 N   0  0  0  0  0  0  0  0  0  0  0  0
   37.3740   27.7930   41.7350 C   0  0  0  0  0  0  0  0  0  0  0  0
   36.9810   25.8150   38.6420 C   0  0  1  0  0  0  0  0  0  0  0  0
   35.5960   25.3580   38.1470 C   0  0  0  0  0  0  0  0  0  0  0  0
   36.2580   26.6170   37.6740 C   0  0  1  0  0  0  0  0  0  0  0  0
   35.7940   27.8650   38.0270 O   0  0  0  0  0  0  0  0  0  0  0  0
   39.9451   32.6745   40.9499 H   0  0  0  0  0  0  0  0  0  0  0  0
   39.7889   30.4999   42.2086 H   0  0  0  0  0  0  0  0  0  0  0  0
   35.9322   32.3055   39.7274 H   0  0  0  0  0  0  0  0  0  0  0  0
   37.7474   29.5254   44.3817 H   0  0  0  0  0  0  0  0  0  0  0  0
   37.0375   24.6881   43.0419 H   0  0  0  0  0  0  0  0  0  0  0  0
   38.0076   25.4204   38.6608 H   0  0  0  0  0  0  0  0  0  0  0  0
   35.5010   24.4914   37.4762 H   0  0  0  0  0  0  0  0  0  0  0  0
   34.6346   25.0907   38.6098 H   0  0  0  0  0  0  0  0  0  0  0  0
   36.4843   27.0106   36.6721 H   0  0  0  0  0  0  0  0  0  0  0  0
   35.7662   27.9398   39.0138 H   0  0  0  0  0  0  0  0  0  0  0  0
  1  2  2  0
  3  2  1  0
  3  7  1  0
  4  3  2  0
  5  4  1  0
  6  5  2  0
  6  1  1  0
  7  8  1  0
  8  9  2  0
 10  9  1  0
 11 10  2  0
 12 11  1  0
 13 14  1  0
 13 12  2  0
 14 15  2  0
 15  7  1  0
 15 10  1  0
 16 13  1  0
 17 16  1  0
 18 19  1  0
 18 17  1  0
 18 16  1  0
  1 20  1  0
  2 21  1  0
  5 22  1  0
  8 23  1  0
 11 24  1  0
 16 25  1  6
 17 26  1  0
 17 27  1  0
 18 28  1  6
 19 29  1  0
M  ISO  8  20  14  21  14  22  14  23  14  24  14  25  13  26  13  27  13
M  ISO  2  28  13  29   3
M  END
>  <minimizedAffinity>  (1) 
-4.79585409

>  <minimizedRMSD>  (1) 
0.278098881

$$$$
