
     RDKit          3D

 31 34  0  0  0  0  0  0  0  0999 V2000
   37.7530   29.1010   42.4410 N   0  0  0  0  0  0  0  0  0  0  0  0
   37.7140   29.0860   43.7430 N   0  0  0  0  0  0  0  0  0  0  0  0
   37.0660   28.0210   44.2240 C   0  0  0  0  0  0  0  0  0  0  0  0
   36.6590   27.3020   43.1300 C   0  0  0  0  0  0  0  0  0  0  0  0
   37.0970   27.9880   41.9920 C   0  0  0  0  0  0  0  0  0  0  0  0
   36.8960   27.5780   40.6090 C   0  0  0  0  0  0  0  0  0  0  0  0
   37.8500   26.6850   40.2170 N   0  0  0  0  0  0  0  0  0  0  0  0
   37.8320   26.1830   38.9590 C   0  0  0  0  0  0  0  0  0  0  0  0
   36.8800   26.5450   38.0570 N   0  0  0  0  0  0  0  0  0  0  0  0
   35.9340   27.4230   38.4260 C   0  0  0  0  0  0  0  0  0  0  0  0
   34.9040   27.8720   37.6150 C   0  0  0  0  0  0  0  0  0  0  0  0
   33.9600   28.7780   38.0790 C   0  0  0  0  0  0  0  0  0  0  0  0
   34.0000   29.2730   39.3650 C   0  0  0  0  0  0  0  0  0  0  0  0
   35.0200   28.8330   40.1820 C   0  0  0  0  0  0  0  0  0  0  0  0
   35.9390   27.9360   39.6900 C   0  0  0  0  0  0  0  0  0  0  0  0
   38.3170   30.0040   41.4840 C   0  0  0  0  0  0  0  0  0  0  0  0
   39.6050   29.8390   40.9020 C   0  0  0  0  0  0  0  0  0  0  0  0
   39.9960   30.8200   39.9790 C   0  0  0  0  0  0  0  0  0  0  0  0
   39.1350   31.8490   39.7040 N   0  0  0  0  0  0  0  0  0  0  0  0
   37.9360   31.9490   40.2860 C   0  0  0  0  0  0  0  0  0  0  0  0
   37.5310   31.0320   41.1710 N   0  0  0  0  0  0  0  0  0  0  0  0
   36.8942   27.7721   45.2816 H   0  0  0  0  0  0  0  0  0  0  0  0
   36.0924   26.3593   43.1443 H   0  0  0  0  0  0  0  0  0  0  0  0
   38.6079   25.4634   38.6587 H   0  0  0  0  0  0  0  0  0  0  0  0
   34.8328   27.5026   36.5813 H   0  0  0  0  0  0  0  0  0  0  0  0
   33.1587   29.1098   37.4024 H   0  0  0  0  0  0  0  0  0  0  0  0
   33.2480   29.9905   39.7251 H   0  0  0  0  0  0  0  0  0  0  0  0
   35.0978   29.1960   41.2174 H   0  0  0  0  0  0  0  0  0  0  0  0
   40.2563   28.9912   41.1610 H   0  0  0  0  0  0  0  0  0  0  0  0
   40.9770   30.7639   39.4846 H   0  0  0  0  0  0  0  0  0  0  0  0
   37.2767   32.7929   40.0348 H   0  0  0  0  0  0  0  0  0  0  0  0
  1  2  1  0
  2  3  2  0
  4  3  1  0
  5  1  1  0
  5  4  2  0
  6  5  1  0
  7  6  2  0
  8  7  1  0
  9 10  1  0
  9  8  2  0
 10 15  2  0
 11 12  2  0
 11 10  1  0
 12 13  1  0
 13 14  2  0
 15 14  1  0
 15  6  1  0
 16  1  1  0
 17 16  2  0
 18 17  1  0
 19 18  2  0
 19 20  1  0
 20 21  2  0
 21 16  1  0
  3 22  1  0
  4 23  1  0
  8 24  1  0
 11 25  1  0
 12 26  1  0
 13 27  1  0
 14 28  1  0
 17 29  1  0
 18 30  1  0
 20 31  1  0
M  ISO  8  22  14  23  14  24  14  25  14  26  14  27  14  28  14  29  14
M  ISO  2  30  14  31  14
M  END
>  <minimizedAffinity>  (1) 
-5.25895309

>  <minimizedRMSD>  (1) 
5.21226549

$$$$
