
     RDKit          3D

 27 29  0  0  0  0  0  0  0  0999 V2000
   37.6490   29.6220   41.8490 N   0  0  0  0  0  0  0  0  0  0  0  0
   38.0030   29.3350   43.0900 N   0  0  0  0  0  0  0  0  0  0  0  0
   37.3330   28.2670   43.5400 C   0  0  0  0  0  0  0  0  0  0  0  0
   36.4950   27.8480   42.5110 C   0  0  0  0  0  0  0  0  0  0  0  0
   36.7150   28.7280   41.4460 C   0  0  0  0  0  0  0  0  0  0  0  0
   38.0630   30.6430   40.9430 C   0  0  0  0  0  0  0  0  0  0  0  0
   39.2150   30.6010   40.1400 C   0  0  0  0  0  0  0  0  0  0  0  0
   39.4850   31.6750   39.3020 C   0  0  0  0  0  0  0  0  0  0  0  0
   38.6080   32.7130   39.3100 N   0  0  0  0  0  0  0  0  0  0  0  0
   37.5140   32.7290   40.0860 C   0  0  0  0  0  0  0  0  0  0  0  0
   37.2520   31.6960   40.8940 N   0  0  0  0  0  0  0  0  0  0  0  0
   35.9420   28.4850   40.2340 C   0  0  0  0  0  0  0  0  0  0  0  0
   36.3410   27.4580   39.3760 C   0  0  0  0  0  0  0  0  0  0  0  0
   35.7090   27.1110   38.1960 C   0  0  0  0  0  0  0  0  0  0  0  0
   34.5930   27.8460   37.8480 C   0  0  0  0  0  0  0  0  0  0  0  0
   34.1580   28.8640   38.6520 C   0  0  0  0  0  0  0  0  0  0  0  0
   34.8200   29.1750   39.8220 C   0  0  0  0  0  0  0  0  0  0  0  0
   37.4271   27.8075   44.5350 H   0  0  0  0  0  0  0  0  0  0  0  0
   35.7994   26.9961   42.5310 H   0  0  0  0  0  0  0  0  0  0  0  0
   39.8906   29.7336   40.1744 H   0  0  0  0  0  0  0  0  0  0  0  0
   40.3753   31.6851   38.6560 H   0  0  0  0  0  0  0  0  0  0  0  0
   36.8323   33.5918   40.0578 H   0  0  0  0  0  0  0  0  0  0  0  0
   37.2306   26.8777   39.6621 H   0  0  0  0  0  0  0  0  0  0  0  0
   36.0776   26.2889   37.5649 H   0  0  0  0  0  0  0  0  0  0  0  0
   34.0511   27.6119   36.9198 H   0  0  0  0  0  0  0  0  0  0  0  0
   33.2685   29.4423   38.3617 H   0  0  0  0  0  0  0  0  0  0  0  0
   34.4418   29.9984   40.4457 H   0  0  0  0  0  0  0  0  0  0  0  0
  1  2  1  0
  2  3  2  0
  4  3  1  0
  5  1  1  0
  5  4  2  0
  6  1  1  0
  7  6  2  0
  8  9  2  0
  8  7  1  0
  9 10  1  0
 10 11  2  0
 11  6  1  0
 12  5  1  0
 13 12  2  0
 14 13  1  0
 15 14  2  0
 15 16  1  0
 16 17  2  0
 17 12  1  0
  3 18  1  0
  4 19  1  0
  7 20  1  0
  8 21  1  0
 10 22  1  0
 13 23  1  0
 14 24  1  0
 15 25  1  0
 16 26  1  0
 17 27  1  0
M  ISO  8  18  14  19  14  20  14  21  14  22  14  23  14  24  14  25  14
M  ISO  2  26  14  27  14
M  END
>  <minimizedAffinity>  (1) 
-4.91436148

>  <minimizedRMSD>  (1) 
4.33966017

$$$$
