
     RDKit          3D

 12 12  0  0  0  0  0  0  0  0999 V2000
   38.6490   28.8360   43.1620 C   0  0  0  0  0  0  0  0  0  0  0  0
   38.1150   27.5620   43.4090 C   0  0  0  0  0  0  0  0  0  0  0  0
   36.9150   27.2130   42.7960 C   0  0  0  0  0  0  0  0  0  0  0  0
   36.3070   28.1360   41.9770 N   0  0  0  0  0  0  0  0  0  0  0  0
   36.8500   29.3570   41.7610 C   0  0  0  0  0  0  0  0  0  0  0  0
   38.0130   29.6900   42.3560 N   0  0  0  0  0  0  0  0  0  0  0  0
   36.1220   30.2800   40.8650 C   0  0  0  0  0  0  0  0  0  0  0  0
   36.5530   31.4580   40.8290 O   0  0  0  0  0  0  0  0  0  0  0  0
   39.5967   29.1329   43.6349 H   0  0  0  0  0  0  0  0  0  0  0  0
   38.6335   26.8544   44.0727 H   0  0  0  0  0  0  0  0  0  0  0  0
   36.4640   26.2236   42.9624 H   0  0  0  0  0  0  0  0  0  0  0  0
   35.2574   29.9550   40.2677 H   0  0  0  0  0  0  0  0  0  0  0  0
  1  2  2  0
  3  2  1  0
  4  3  2  0
  5  4  1  0
  5  6  2  0
  6  1  1  0
  7  5  1  0
  8  7  2  0
  1  9  1  0
  2 10  1  0
  3 11  1  0
  7 12  1  0
M  ISO  4   9  14  10  14  11  14  12   6
M  END
>  <minimizedAffinity>  (1) 
-2.85745668

>  <minimizedRMSD>  (1) 
0.52344954

$$$$
