
     RDKit          3D

 24 26  0  0  0  0  0  0  0  0999 V2000
   37.6590   29.5760   41.8900 N   0  0  0  0  0  0  0  0  0  0  0  0
   38.0730   29.3230   43.1210 N   0  0  0  0  0  0  0  0  0  0  0  0
   37.4290   28.2730   43.6470 C   0  0  0  0  0  0  0  0  0  0  0  0
   36.5500   27.8300   42.6900 C   0  0  0  0  0  0  0  0  0  0  0  0
   36.7120   28.6690   41.5840 C   0  0  0  0  0  0  0  0  0  0  0  0
   38.0340   30.5680   40.9290 C   0  0  0  0  0  0  0  0  0  0  0  0
   39.1220   30.4130   40.0280 C   0  0  0  0  0  0  0  0  0  0  0  0
   39.3580   31.4750   39.1510 C   0  0  0  0  0  0  0  0  0  0  0  0
   38.5350   32.5770   39.2210 N   0  0  0  0  0  0  0  0  0  0  0  0
   37.5270   32.6650   40.0910 C   0  0  0  0  0  0  0  0  0  0  0  0
   37.2700   31.6520   40.9550 N   0  0  0  0  0  0  0  0  0  0  0  0
   35.9570   28.5430   40.3330 C   0  0  0  0  0  0  0  0  0  0  0  0
   34.7820   29.1920   40.0200 C   0  0  0  0  0  0  0  0  0  0  0  0
   34.4120   28.7890   38.7470 C   0  0  0  0  0  0  0  0  0  0  0  0
   35.3980   27.8990   38.3440 C   0  0  0  0  0  0  0  0  0  0  0  0
   36.2760   27.7910   39.3080 O   0  0  0  0  0  0  0  0  0  0  0  0
   37.5759   27.8481   44.6509 H   0  0  0  0  0  0  0  0  0  0  0  0
   35.8550   26.9817   42.7766 H   0  0  0  0  0  0  0  0  0  0  0  0
   39.7446   29.5062   40.0213 H   0  0  0  0  0  0  0  0  0  0  0  0
   40.1811   31.4318   38.4225 H   0  0  0  0  0  0  0  0  0  0  0  0
   36.8987   33.5677   40.1074 H   0  0  0  0  0  0  0  0  0  0  0  0
   34.2380   29.8998   40.6627 H   0  0  0  0  0  0  0  0  0  0  0  0
   33.5261   29.1065   38.1774 H   0  0  0  0  0  0  0  0  0  0  0  0
   35.4349   27.3737   37.3782 H   0  0  0  0  0  0  0  0  0  0  0  0
  1  2  1  0
  2  3  2  0
  4  3  1  0
  5  1  1  0
  5  4  2  0
  6 11  1  0
  6  1  1  0
  7  6  2  0
  8  9  2  0
  8  7  1  0
  9 10  1  0
 10 11  2  0
 12  5  1  0
 13 12  2  0
 14 13  1  0
 15 14  2  0
 15 16  1  0
 16 12  1  0
  3 17  1  0
  4 18  1  0
  7 19  1  0
  8 20  1  0
 10 21  1  0
 13 22  1  0
 14 23  1  0
 15 24  1  0
M  ISO  8  17  14  18  14  19  14  20  14  21  14  22  14  23  14  24  14
M  END
>  <minimizedAffinity>  (1) 
-4.46351147

>  <minimizedRMSD>  (1) 
4.17495632

$$$$
