
     RDKit          3D

 32 34  0  0  0  0  0  0  0  0999 V2000
   37.5850   30.3200   41.0110 N   0  0  0  0  0  0  0  0  0  0  0  0
   37.2570   29.7510   42.1410 N   0  0  0  0  0  0  0  0  0  0  0  0
   36.7470   28.5230   41.9320 C   0  0  0  0  0  0  0  0  0  0  0  0
   36.7530   28.3010   40.5660 C   0  0  0  0  0  0  0  0  0  0  0  0
   37.2850   29.4490   40.0220 C   0  0  0  0  0  0  0  0  0  0  0  0
   38.1490   31.5810   40.6720 C   0  0  0  0  0  0  0  0  0  0  0  0
   39.5230   31.9150   40.7700 C   0  0  0  0  0  0  0  0  0  0  0  0
   39.9110   33.2030   40.3990 C   0  0  0  0  0  0  0  0  0  0  0  0
   38.9500   34.0670   39.9630 N   0  0  0  0  0  0  0  0  0  0  0  0
   37.6550   33.7160   39.8830 C   0  0  0  0  0  0  0  0  0  0  0  0
   37.2600   32.4800   40.2360 N   0  0  0  0  0  0  0  0  0  0  0  0
   37.4460   29.5760   38.5880 N   0  0  0  0  0  0  0  0  0  0  0  0
   36.2610   29.9260   37.8540 C   0  0  0  0  0  0  0  0  0  0  0  0
   35.9430   28.9890   36.7100 C   0  0  0  0  0  0  0  0  0  0  0  0
   37.1310   28.8280   35.7920 C   0  0  0  0  0  0  0  0  0  0  0  0
   38.2750   28.3490   36.6940 C   0  0  0  0  0  0  0  0  0  0  0  0
   38.5830   29.4160   37.7040 C   0  0  0  0  0  0  0  0  0  0  0  0
   36.3912   27.8250   42.7041 H   0  0  0  0  0  0  0  0  0  0  0  0
   36.4082   27.4036   40.0314 H   0  0  0  0  0  0  0  0  0  0  0  0
   40.2607   31.1815   41.1275 H   0  0  0  0  0  0  0  0  0  0  0  0
   40.9647   33.5135   40.4567 H   0  0  0  0  0  0  0  0  0  0  0  0
   36.9128   34.4452   39.5261 H   0  0  0  0  0  0  0  0  0  0  0  0
   35.4096   29.9220   38.5505 H   0  0  0  0  0  0  0  0  0  0  0  0
   36.4435   30.9163   37.4112 H   0  0  0  0  0  0  0  0  0  0  0  0
   35.6681   28.0050   37.1176 H   0  0  0  0  0  0  0  0  0  0  0  0
   35.1099   29.4147   36.1314 H   0  0  0  0  0  0  0  0  0  0  0  0
   37.3875   29.7885   35.3212 H   0  0  0  0  0  0  0  0  0  0  0  0
   36.9267   28.1190   34.9761 H   0  0  0  0  0  0  0  0  0  0  0  0
   37.9740   27.4267   37.2125 H   0  0  0  0  0  0  0  0  0  0  0  0
   39.1680   28.1465   36.0844 H   0  0  0  0  0  0  0  0  0  0  0  0
   39.4668   29.1240   38.2902 H   0  0  0  0  0  0  0  0  0  0  0  0
   38.7874   30.3659   37.1883 H   0  0  0  0  0  0  0  0  0  0  0  0
  1  2  1  0
  3  2  2  0
  4  3  1  0
  5  4  2  0
  5  1  1  0
  6  7  2  0
  6  1  1  0
  8  7  1  0
  9  8  2  0
 10  9  1  0
 10 11  2  0
 11  6  1  0
 12  5  1  0
 13 12  1  0
 14 13  1  0
 15 16  1  0
 15 14  1  0
 16 17  1  0
 17 12  1  0
  3 18  1  0
  4 19  1  0
  7 20  1  0
  8 21  1  0
 10 22  1  0
 13 23  1  0
 13 24  1  0
 14 25  1  0
 14 26  1  0
 15 27  1  0
 15 28  1  0
 16 29  1  0
 16 30  1  0
 17 31  1  0
 17 32  1  0
M  ISO  8  18  14  19  14  20  14  21  14  22  14  23  13  24  13  25  13
M  ISO  7  26  13  27  13  28  13  29  13  30  13  31  13  32  13
M  END
>  <minimizedAffinity>  (1) 
-4.13671541

>  <minimizedRMSD>  (1) 
2.61468101

$$$$
