
     RDKit          3D

 29 30  0  0  0  0  0  0  0  0999 V2000
   37.1010   31.2910   40.2230 N   0  0  0  0  0  0  0  0  0  0  0  0
   36.2300   30.8570   41.1050 N   0  0  0  0  0  0  0  0  0  0  0  0
   35.4930   29.8690   40.5910 C   0  0  0  0  0  0  0  0  0  0  0  0
   35.9230   29.6670   39.3060 C   0  0  0  0  0  0  0  0  0  0  0  0
   36.9650   30.5860   39.0660 C   0  0  0  0  0  0  0  0  0  0  0  0
   38.0960   32.3280   40.2940 C   0  0  0  0  0  0  0  0  0  0  0  0
   39.4570   32.1240   40.5630 C   0  0  0  0  0  0  0  0  0  0  0  0
   40.2710   33.2480   40.5760 C   0  0  0  0  0  0  0  0  0  0  0  0
   39.7230   34.4680   40.3330 N   0  0  0  0  0  0  0  0  0  0  0  0
   38.4150   34.6320   40.0770 C   0  0  0  0  0  0  0  0  0  0  0  0
   37.5960   33.5580   40.0570 N   0  0  0  0  0  0  0  0  0  0  0  0
   37.6140   30.5910   37.7420 C   0  0  0  0  0  0  0  0  0  0  0  0
   36.7880   29.7800   36.7620 C   0  0  0  0  0  0  0  0  0  0  0  0
   37.8370   31.9330   37.1260 C   0  0  0  0  0  0  0  0  0  0  0  0
   38.9730   29.9240   37.8090 C   0  0  0  0  0  0  0  0  0  0  0  0
   34.6900   29.3195   41.1040 H   0  0  0  0  0  0  0  0  0  0  0  0
   35.5290   28.9263   38.5945 H   0  0  0  0  0  0  0  0  0  0  0  0
   39.8610   31.1190   40.7549 H   0  0  0  0  0  0  0  0  0  0  0  0
   41.3476   33.1527   40.7807 H   0  0  0  0  0  0  0  0  0  0  0  0
   38.0120   35.6372   39.8843 H   0  0  0  0  0  0  0  0  0  0  0  0
   36.1102   29.1145   37.3166 H   0  0  0  0  0  0  0  0  0  0  0  0
   36.1982   30.4596   36.1293 H   0  0  0  0  0  0  0  0  0  0  0  0
   37.4566   29.1778   36.1293 H   0  0  0  0  0  0  0  0  0  0  0  0
   37.9619   32.6845   37.9195 H   0  0  0  0  0  0  0  0  0  0  0  0
   38.7427   31.9043   36.5024 H   0  0  0  0  0  0  0  0  0  0  0  0
   36.9707   32.1987   36.5024 H   0  0  0  0  0  0  0  0  0  0  0  0
   39.2607   29.7828   38.8613 H   0  0  0  0  0  0  0  0  0  0  0  0
   38.9267   28.9462   37.3072 H   0  0  0  0  0  0  0  0  0  0  0  0
   39.7181   30.5588   37.3072 H   0  0  0  0  0  0  0  0  0  0  0  0
  1  6  1  0
  1  2  1  0
  3  2  2  0
  4  3  1  0
  5  4  2  0
  5  1  1  0
  6  7  2  0
  7  8  1  0
  9  8  2  0
 10  9  1  0
 11 10  2  0
 11  6  1  0
 12 15  1  0
 12  5  1  0
 13 12  1  0
 14 12  1  0
  3 16  1  0
  4 17  1  0
  7 18  1  0
  8 19  1  0
 10 20  1  0
 13 21  1  0
 13 22  1  0
 13 23  1  0
 14 24  1  0
 14 25  1  0
 14 26  1  0
 15 27  1  0
 15 28  1  0
 15 29  1  0
M  ISO  8  16  14  17  14  18  14  19  14  20  14  21   8  22   8  23   8
M  ISO  6  24   8  25   8  26   8  27   8  28   8  29   8
M  END
>  <minimizedAffinity>  (1) 
-4.10361052

>  <minimizedRMSD>  (1) 
1.19806027

$$$$
