
     RDKit          3D

 22 24  0  0  0  0  0  0  0  0999 V2000
   39.3560   31.4910   41.5320 N   0  0  0  0  0  0  0  0  0  0  0  0
   39.6340   31.0010   42.7080 N   0  0  0  0  0  0  0  0  0  0  0  0
   39.0730   29.7920   42.8730 C   0  0  0  0  0  0  0  0  0  0  0  0
   38.3840   29.4920   41.7080 C   0  0  0  0  0  0  0  0  0  0  0  0
   38.5780   30.5870   40.8680 C   0  0  0  0  0  0  0  0  0  0  0  0
   39.6970   32.7050   40.8750 C   0  0  0  0  0  0  0  0  0  0  0  0
   40.8650   32.9390   40.1350 C   0  0  0  0  0  0  0  0  0  0  0  0
   41.0510   34.1860   39.5510 C   0  0  0  0  0  0  0  0  0  0  0  0
   40.0760   35.1240   39.7290 N   0  0  0  0  0  0  0  0  0  0  0  0
   38.9660   34.8810   40.4390 C   0  0  0  0  0  0  0  0  0  0  0  0
   38.7810   33.6730   41.0080 N   0  0  0  0  0  0  0  0  0  0  0  0
   37.9540   30.5550   39.5320 C   0  0  0  0  0  0  0  0  0  0  0  0
   36.6380   30.6590   39.2620 N   0  0  0  0  0  0  0  0  0  0  0  0
   36.4150   30.5950   37.9990 O   0  0  0  0  0  0  0  0  0  0  0  0
   37.5880   30.4460   37.4000 C   0  0  0  0  0  0  0  0  0  0  0  0
   38.5570   30.4180   38.3240 N   0  0  0  0  0  0  0  0  0  0  0  0
   39.1466   29.1566   43.7679 H   0  0  0  0  0  0  0  0  0  0  0  0
   37.8059   28.5814   41.4921 H   0  0  0  0  0  0  0  0  0  0  0  0
   41.6212   32.1486   40.0188 H   0  0  0  0  0  0  0  0  0  0  0  0
   41.9544   34.4097   38.9646 H   0  0  0  0  0  0  0  0  0  0  0  0
   38.2058   35.6671   40.5576 H   0  0  0  0  0  0  0  0  0  0  0  0
   37.7415   30.3590   36.3142 H   0  0  0  0  0  0  0  0  0  0  0  0
  1  2  1  0
  2  3  2  0
  4  3  1  0
  5  1  1  0
  5  4  2  0
  6 11  1  0
  6  1  1  0
  7  6  2  0
  8  9  2  0
  8  7  1  0
  9 10  1  0
 10 11  2  0
 12  5  1  0
 13 12  2  0
 14 13  1  0
 15 14  1  0
 15 16  2  0
 16 12  1  0
  3 17  1  0
  4 18  1  0
  7 19  1  0
  8 20  1  0
 10 21  1  0
 15 22  1  0
M  ISO  6  17  14  18  14  19  14  20  14  21  14  22  14
M  END
>  <minimizedAffinity>  (1) 
-4.02105522

>  <minimizedRMSD>  (1) 
2.53641796

$$$$
