
     RDKit          3D

 19 20  0  0  0  0  0  0  0  0999 V2000
   37.8340   32.2550   39.9270 N   0  0  0  0  0  0  0  0  0  0  0  0
   37.1770   31.4890   40.7840 N   0  0  0  0  0  0  0  0  0  0  0  0
   36.3860   30.6150   40.1060 C   0  0  0  0  0  0  0  0  0  0  0  0
   36.5620   30.8490   38.7650 C   0  0  0  0  0  0  0  0  0  0  0  0
   37.4770   31.8850   38.6820 C   0  0  0  0  0  0  0  0  0  0  0  0
   38.7730   33.3100   40.1120 C   0  0  0  0  0  0  0  0  0  0  0  0
   40.1560   33.1160   40.3790 C   0  0  0  0  0  0  0  0  0  0  0  0
   40.9350   34.2750   40.5350 C   0  0  0  0  0  0  0  0  0  0  0  0
   40.3240   35.4920   40.4220 N   0  0  0  0  0  0  0  0  0  0  0  0
   39.0180   35.6200   40.1700 C   0  0  0  0  0  0  0  0  0  0  0  0
   38.2440   34.5260   40.0150 N   0  0  0  0  0  0  0  0  0  0  0  0
   37.8860   32.3810   37.4150 N   0  0  0  0  0  0  0  0  0  0  0  0
   35.7246   29.8574   40.5517 H   0  0  0  0  0  0  0  0  0  0  0  0
   36.0769   30.3228   37.9297 H   0  0  0  0  0  0  0  0  0  0  0  0
   40.5937   32.1101   40.4593 H   0  0  0  0  0  0  0  0  0  0  0  0
   42.0127   34.2042   40.7435 H   0  0  0  0  0  0  0  0  0  0  0  0
   38.5719   36.6222   40.0885 H   0  0  0  0  0  0  0  0  0  0  0  0
   38.5669   33.1518   37.3591 H   0  0  0  0  0  0  0  0  0  0  0  0
   37.5016   31.9698   36.5524 H   0  0  0  0  0  0  0  0  0  0  0  0
  1  6  1  0
  1  2  1  0
  3  2  2  0
  4  3  1  0
  5  4  2  0
  5  1  1  0
  6  7  2  0
  7  8  1  0
  9  8  2  0
 10  9  1  0
 11  6  1  0
 11 10  2  0
 12  5  1  0
  3 13  1  0
  4 14  1  0
  7 15  1  0
  8 16  1  0
 10 17  1  0
 12 18  1  0
 12 19  1  0
M  ISO  5  13  14  14  14  15  14  16  14  17  14
M  END
>  <minimizedAffinity>  (1) 
-3.88821101

>  <minimizedRMSD>  (1) 
0.453235209

$$$$
