
     RDKit          3D

 30 32  0  0  0  0  0  0  0  0999 V2000
   38.9370   29.5260   40.6290 C   0  0  0  0  0  0  0  0  0  0  0  0
   39.5470   28.9170   39.5230 C   0  0  0  0  0  0  0  0  0  0  0  0
   40.1660   29.7360   38.5970 C   0  0  0  0  0  0  0  0  0  0  0  0
   40.1490   31.0720   38.8060 N   0  0  0  0  0  0  0  0  0  0  0  0
   39.5550   31.6400   39.8800 C   0  0  0  0  0  0  0  0  0  0  0  0
   38.9470   30.8570   40.7930 N   0  0  0  0  0  0  0  0  0  0  0  0
   39.5740   33.0580   40.0400 N   0  0  0  0  0  0  0  0  0  0  0  0
   38.8740   33.8440   40.8590 C   0  0  0  0  0  0  0  0  0  0  0  0
   39.0770   35.2090   40.8240 C   0  0  0  0  0  0  0  0  0  0  0  0
   39.9860   35.7850   39.9630 C   0  0  0  0  0  0  0  0  0  0  0  0
   40.1490   37.0380   39.9550 O   0  0  0  0  0  0  0  0  0  0  0  0
   40.6800   34.9510   39.1460 N   0  0  0  0  0  0  0  0  0  0  0  0
   40.4790   33.6130   39.1820 C   0  0  0  0  0  0  0  0  0  0  0  0
   41.2100   32.9980   38.3540 O   0  0  0  0  0  0  0  0  0  0  0  0
   38.2540   28.8310   41.6820 N   0  0  0  0  0  0  0  0  0  0  0  0
   38.6530   28.2050   42.7560 N   0  0  0  0  0  0  0  0  0  0  0  0
   37.6220   27.7020   43.4520 C   0  0  0  0  0  0  0  0  0  0  0  0
   36.4700   28.0310   42.7660 C   0  0  0  0  0  0  0  0  0  0  0  0
   36.8970   28.7420   41.6570 C   0  0  0  0  0  0  0  0  0  0  0  0
   35.9450   29.2860   40.6460 C   0  0  0  0  0  0  0  0  0  0  0  0
   34.6600   28.8510   40.8150 F   0  0  0  0  0  0  0  0  0  0  0  0
   36.3700   29.0370   39.3470 F   0  0  0  0  0  0  0  0  0  0  0  0
   35.8920   30.6830   40.7700 F   0  0  0  0  0  0  0  0  0  0  0  0
   39.5335   27.8244   39.3964 H   0  0  0  0  0  0  0  0  0  0  0  0
   40.6606   29.3110   37.7112 H   0  0  0  0  0  0  0  0  0  0  0  0
   38.1421   33.4089   41.5555 H   0  0  0  0  0  0  0  0  0  0  0  0
   38.4979   35.8540   41.5012 H   0  0  0  0  0  0  0  0  0  0  0  0
   41.3698   35.3427   38.4890 H   0  0  0  0  0  0  0  0  0  0  0  0
   37.6832   27.1343   44.3922 H   0  0  0  0  0  0  0  0  0  0  0  0
   35.4346   27.7817   43.0414 H   0  0  0  0  0  0  0  0  0  0  0  0
  1  6  1  0
  1 15  1  0
  2  1  2  0
  3  4  2  0
  3  2  1  0
  4  5  1  0
  5  7  1  0
  5  6  2  0
  7  8  1  0
  9  8  2  0
 10  9  1  0
 11 10  2  0
 12 13  1  0
 12 10  1  0
 13  7  1  0
 14 13  2  0
 15 16  1  0
 16 17  2  0
 18 17  1  0
 19 15  1  0
 19 18  2  0
 20 23  1  0
 20 21  1  0
 20 19  1  0
 22 20  1  0
  2 24  1  0
  3 25  1  0
  8 26  1  0
  9 27  1  0
 12 28  1  0
 17 29  1  0
 18 30  1  0
M  ISO  7  24  14  25  14  26  14  27  14  28   9  29  14  30  14
M  END
>  <minimizedAffinity>  (1) 
-6.16030598

>  <minimizedRMSD>  (1) 
3.78617001

$$$$
