
     RDKit          3D

 34 37  0  0  0  0  0  0  0  0999 V2000
   38.2460   30.0650   40.1860 C   0  0  0  0  0  0  0  0  0  0  0  0
   38.5070   31.3970   40.4890 C   0  0  0  0  0  0  0  0  0  0  0  0
   39.2280   31.6840   41.6380 C   0  0  0  0  0  0  0  0  0  0  0  0
   39.6360   30.6440   42.3980 N   0  0  0  0  0  0  0  0  0  0  0  0
   39.3710   29.3450   42.0850 C   0  0  0  0  0  0  0  0  0  0  0  0
   38.6730   29.0470   40.9730 N   0  0  0  0  0  0  0  0  0  0  0  0
   39.8440   28.2640   42.9520 C   0  0  0  0  0  0  0  0  0  0  0  0
   39.1090   27.2420   43.5180 C   0  0  0  0  0  0  0  0  0  0  0  0
   39.9530   26.4820   44.2390 N   0  0  0  0  0  0  0  0  0  0  0  0
   41.2090   26.9500   44.1780 C   0  0  0  0  0  0  0  0  0  0  0  0
   42.3930   26.5070   44.7480 C   0  0  0  0  0  0  0  0  0  0  0  0
   43.5200   27.2240   44.4830 C   0  0  0  0  0  0  0  0  0  0  0  0
   43.5410   28.3530   43.6870 C   0  0  0  0  0  0  0  0  0  0  0  0
   42.3250   28.7620   43.1350 C   0  0  0  0  0  0  0  0  0  0  0  0
   41.1490   28.0840   43.3620 C   0  0  0  0  0  0  0  0  0  0  0  0
   37.5190   29.6070   39.0420 N   0  0  0  0  0  0  0  0  0  0  0  0
   37.8460   29.3700   37.7970 N   0  0  0  0  0  0  0  0  0  0  0  0
   36.7930   28.9440   37.0800 C   0  0  0  0  0  0  0  0  0  0  0  0
   35.7110   28.9060   37.9320 C   0  0  0  0  0  0  0  0  0  0  0  0
   36.1960   29.3300   39.1640 C   0  0  0  0  0  0  0  0  0  0  0  0
   35.3200   29.4260   40.3610 C   0  0  0  0  0  0  0  0  0  0  0  0
   34.0010   29.1930   40.1080 F   0  0  0  0  0  0  0  0  0  0  0  0
   35.4800   30.6190   41.0230 F   0  0  0  0  0  0  0  0  0  0  0  0
   35.6990   28.4350   41.2810 F   0  0  0  0  0  0  0  0  0  0  0  0
   38.1498   32.2040   39.8324 H   0  0  0  0  0  0  0  0  0  0  0  0
   39.4596   32.7215   41.9208 H   0  0  0  0  0  0  0  0  0  0  0  0
   38.0276   27.0784   43.4006 H   0  0  0  0  0  0  0  0  0  0  0  0
   39.6706   25.6463   44.7708 H   0  0  0  0  0  0  0  0  0  0  0  0
   42.4207   25.6129   45.3881 H   0  0  0  0  0  0  0  0  0  0  0  0
   44.4672   26.8851   44.9279 H   0  0  0  0  0  0  0  0  0  0  0  0
   44.4733   28.9049   43.4966 H   0  0  0  0  0  0  0  0  0  0  0  0
   42.3065   29.6575   42.4964 H   0  0  0  0  0  0  0  0  0  0  0  0
   36.7943   28.6759   36.0132 H   0  0  0  0  0  0  0  0  0  0  0  0
   34.6815   28.6041   37.6890 H   0  0  0  0  0  0  0  0  0  0  0  0
  1  2  2  0
  1  6  1  0
  2  3  1  0
  3  4  2  0
  5  4  1  0
  5  7  1  0
  6  5  2  0
  7 15  1  0
  7  8  2  0
  8  9  1  0
 10  9  1  0
 10 11  2  0
 12 11  1  0
 13 12  2  0
 14 15  2  0
 14 13  1  0
 15 10  1  0
 16 20  1  0
 16  1  1  0
 17 16  1  0
 18 17  2  0
 18 19  1  0
 19 20  2  0
 20 21  1  0
 21 23  1  0
 21 24  1  0
 22 21  1  0
  2 25  1  0
  3 26  1  0
  8 27  1  0
  9 28  1  0
 11 29  1  0
 12 30  1  0
 13 31  1  0
 14 32  1  0
 18 33  1  0
 19 34  1  0
M  ISO  8  25  14  26  14  27  14  28   9  29  14  30  14  31  14  32  14
M  ISO  2  33  14  34  14
M  END
>  <minimizedAffinity>  (1) 
-5.76751995

>  <minimizedRMSD>  (1) 
7.75455141

$$$$
