
     RDKit          3D

 30 32  0  0  0  0  0  0  0  0999 V2000
   38.2870   32.4360   40.6750 C   0  0  0  0  0  0  0  0  0  0  0  0
   36.9980   32.2050   40.1700 C   0  0  0  0  0  0  0  0  0  0  0  0
   36.4070   30.9720   40.3970 C   0  0  0  0  0  0  0  0  0  0  0  0
   37.1210   30.0520   41.1020 N   0  0  0  0  0  0  0  0  0  0  0  0
   38.3560   30.2990   41.5740 C   0  0  0  0  0  0  0  0  0  0  0  0
   38.9550   31.4820   41.3730 N   0  0  0  0  0  0  0  0  0  0  0  0
   39.0220   29.2320   42.3170 C   0  0  0  0  0  0  0  0  0  0  0  0
   40.3970   29.1490   42.4120 C   0  0  0  0  0  0  0  0  0  0  0  0
   40.9480   28.0940   43.1430 C   0  0  0  0  0  0  0  0  0  0  0  0
   40.1330   27.1630   43.7520 C   0  0  0  0  0  0  0  0  0  0  0  0
   38.7570   27.2210   43.6740 C   0  0  0  0  0  0  0  0  0  0  0  0
   38.2470   28.2770   42.9440 C   0  0  0  0  0  0  0  0  0  0  0  0
   39.0300   33.6410   40.5310 N   0  0  0  0  0  0  0  0  0  0  0  0
   39.0220   34.7890   41.1500 N   0  0  0  0  0  0  0  0  0  0  0  0
   39.9270   35.6360   40.6430 C   0  0  0  0  0  0  0  0  0  0  0  0
   40.5670   34.9770   39.6160 C   0  0  0  0  0  0  0  0  0  0  0  0
   39.9850   33.7150   39.5600 C   0  0  0  0  0  0  0  0  0  0  0  0
   40.4000   32.6930   38.5770 C   0  0  0  0  0  0  0  0  0  0  0  0
   41.2600   33.1710   37.6190 F   0  0  0  0  0  0  0  0  0  0  0  0
   39.3230   32.0730   37.9850 F   0  0  0  0  0  0  0  0  0  0  0  0
   41.1020   31.6820   39.2400 F   0  0  0  0  0  0  0  0  0  0  0  0
   36.4678   32.9863   39.6057 H   0  0  0  0  0  0  0  0  0  0  0  0
   35.3983   30.7452   40.0214 H   0  0  0  0  0  0  0  0  0  0  0  0
   41.0421   29.8947   41.9244 H   0  0  0  0  0  0  0  0  0  0  0  0
   42.0406   28.0051   43.2336 H   0  0  0  0  0  0  0  0  0  0  0  0
   40.5973   26.3440   44.3209 H   0  0  0  0  0  0  0  0  0  0  0  0
   38.1095   26.4765   44.1603 H   0  0  0  0  0  0  0  0  0  0  0  0
   37.1538   28.3624   42.8567 H   0  0  0  0  0  0  0  0  0  0  0  0
   40.1225   36.6639   40.9824 H   0  0  0  0  0  0  0  0  0  0  0  0
   41.3706   35.3675   38.9743 H   0  0  0  0  0  0  0  0  0  0  0  0
  1  6  2  0
  2  3  2  0
  2  1  1  0
  3  4  1  0
  4  5  2  0
  5  7  1  0
  6  5  1  0
  7  8  2  0
  7 12  1  0
  8  9  1  0
  9 10  2  0
 11 10  1  0
 12 11  2  0
 13  1  1  0
 13 14  1  0
 15 14  2  0
 16 15  1  0
 17 16  2  0
 17 13  1  0
 18 21  1  0
 18 17  1  0
 19 18  1  0
 20 18  1  0
  2 22  1  0
  3 23  1  0
  8 24  1  0
  9 25  1  0
 10 26  1  0
 11 27  1  0
 12 28  1  0
 15 29  1  0
 16 30  1  0
M  ISO  8  22  14  23  14  24  14  25  14  26  14  27  14  28  14  29  14
M  ISO  1  30  14
M  END
>  <minimizedAffinity>  (1) 
-5.72339964

>  <minimizedRMSD>  (1) 
6.65782881

$$$$
