
     RDKit          3D

 29 31  0  0  0  0  0  0  0  0999 V2000
   39.5150   30.7820   40.4730 C   0  0  0  0  0  0  0  0  0  0  0  0
   39.8940   30.3180   39.1960 C   0  0  0  0  0  0  0  0  0  0  0  0
   40.4240   31.2370   38.2980 C   0  0  0  0  0  0  0  0  0  0  0  0
   40.5450   32.5260   38.7040 N   0  0  0  0  0  0  0  0  0  0  0  0
   40.1770   32.9440   39.9260 C   0  0  0  0  0  0  0  0  0  0  0  0
   39.6580   32.0680   40.8180 N   0  0  0  0  0  0  0  0  0  0  0  0
   38.9590   29.9800   41.5080 N   0  0  0  0  0  0  0  0  0  0  0  0
   39.4580   29.3020   42.4910 N   0  0  0  0  0  0  0  0  0  0  0  0
   38.5120   28.6930   43.2160 C   0  0  0  0  0  0  0  0  0  0  0  0
   37.3000   29.0040   42.6540 C   0  0  0  0  0  0  0  0  0  0  0  0
   37.5970   29.8220   41.5680 C   0  0  0  0  0  0  0  0  0  0  0  0
   36.5590   30.3830   40.6840 C   0  0  0  0  0  0  0  0  0  0  0  0
   35.2920   29.9250   40.9680 F   0  0  0  0  0  0  0  0  0  0  0  0
   36.8490   30.2030   39.3440 F   0  0  0  0  0  0  0  0  0  0  0  0
   36.4920   31.7780   40.8790 F   0  0  0  0  0  0  0  0  0  0  0  0
   40.3520   34.3590   40.2610 C   0  0  0  0  0  0  0  0  0  0  0  0
   39.3430   35.2520   39.9330 C   0  0  0  0  0  0  0  0  0  0  0  0
   39.5740   36.5700   40.2780 C   0  0  0  0  0  0  0  0  0  0  0  0
   40.7540   36.9370   40.9120 C   0  0  0  0  0  0  0  0  0  0  0  0
   41.7290   35.9990   41.2140 C   0  0  0  0  0  0  0  0  0  0  0  0
   41.5000   34.7040   40.8740 N   0  0  0  0  0  0  0  0  0  0  0  0
   39.7737   29.2603   38.9191 H   0  0  0  0  0  0  0  0  0  0  0  0
   40.7358   30.9288   37.2891 H   0  0  0  0  0  0  0  0  0  0  0  0
   38.6763   28.0595   44.1001 H   0  0  0  0  0  0  0  0  0  0  0  0
   36.3051   28.6766   42.9901 H   0  0  0  0  0  0  0  0  0  0  0  0
   38.4183   34.9318   39.4306 H   0  0  0  0  0  0  0  0  0  0  0  0
   38.8172   37.3347   40.0487 H   0  0  0  0  0  0  0  0  0  0  0  0
   40.9179   37.9913   41.1794 H   0  0  0  0  0  0  0  0  0  0  0  0
   42.6623   36.2952   41.7151 H   0  0  0  0  0  0  0  0  0  0  0  0
  1  6  1  0
  1  7  1  0
  2  1  2  0
  3  4  2  0
  3  2  1  0
  4  5  1  0
  5 16  1  0
  5  6  2  0
  7 11  1  0
  7  8  1  0
  8  9  2  0
 10  9  1  0
 11 10  2  0
 12 15  1  0
 12 13  1  0
 12 11  1  0
 14 12  1  0
 16 21  1  0
 17 16  2  0
 17 18  1  0
 18 19  2  0
 19 20  1  0
 21 20  2  0
  2 22  1  0
  3 23  1  0
  9 24  1  0
 10 25  1  0
 17 26  1  0
 18 27  1  0
 19 28  1  0
 20 29  1  0
M  ISO  8  22  14  23  14  24  14  25  14  26  14  27  14  28  14  29  14
M  END
>  <minimizedAffinity>  (1) 
-5.37594986

>  <minimizedRMSD>  (1) 
3.42649412

$$$$
