
     RDKit          3D

 27 29  0  0  0  0  0  0  0  0999 V2000
   39.5480   31.2950   40.3600 C   0  0  0  0  0  0  0  0  0  0  0  0
   40.0460   30.8120   39.1520 C   0  0  0  0  0  0  0  0  0  0  0  0
   40.6190   31.7220   38.2690 C   0  0  0  0  0  0  0  0  0  0  0  0
   40.6600   33.0250   38.6340 N   0  0  0  0  0  0  0  0  0  0  0  0
   40.1720   33.4740   39.8090 C   0  0  0  0  0  0  0  0  0  0  0  0
   39.6140   32.6110   40.6770 N   0  0  0  0  0  0  0  0  0  0  0  0
   40.2380   34.8670   40.1530 N   0  0  0  0  0  0  0  0  0  0  0  0
   39.2970   35.8110   40.0150 C   0  0  0  0  0  0  0  0  0  0  0  0
   39.8120   37.0190   40.4860 C   0  0  0  0  0  0  0  0  0  0  0  0
   41.0720   36.7260   40.8910 N   0  0  0  0  0  0  0  0  0  0  0  0
   41.3400   35.4190   40.6930 C   0  0  0  0  0  0  0  0  0  0  0  0
   38.9260   30.5110   41.3880 N   0  0  0  0  0  0  0  0  0  0  0  0
   39.3520   29.9270   42.4680 N   0  0  0  0  0  0  0  0  0  0  0  0
   38.3760   29.3000   43.1220 C   0  0  0  0  0  0  0  0  0  0  0  0
   37.2220   29.4980   42.3990 C   0  0  0  0  0  0  0  0  0  0  0  0
   37.5920   30.2710   41.2990 C   0  0  0  0  0  0  0  0  0  0  0  0
   36.6110   30.6990   40.2700 C   0  0  0  0  0  0  0  0  0  0  0  0
   35.3210   30.3470   40.5560 F   0  0  0  0  0  0  0  0  0  0  0  0
   36.9560   30.2630   39.0130 F   0  0  0  0  0  0  0  0  0  0  0  0
   36.6080   32.0970   40.2090 F   0  0  0  0  0  0  0  0  0  0  0  0
   39.9879   29.7420   38.9033 H   0  0  0  0  0  0  0  0  0  0  0  0
   41.0269   31.3921   37.3022 H   0  0  0  0  0  0  0  0  0  0  0  0
   38.2894   35.6592   39.6006 H   0  0  0  0  0  0  0  0  0  0  0  0
   39.3064   37.9953   40.5210 H   0  0  0  0  0  0  0  0  0  0  0  0
   42.2818   34.9018   40.9285 H   0  0  0  0  0  0  0  0  0  0  0  0
   38.4735   28.7330   44.0596 H   0  0  0  0  0  0  0  0  0  0  0  0
   36.2158   29.1239   42.6391 H   0  0  0  0  0  0  0  0  0  0  0  0
  1  6  1  0
  1 12  1  0
  2  1  2  0
  3  4  2  0
  3  2  1  0
  4  5  1  0
  5  7  1  0
  5  6  2  0
  7 11  1  0
  8  7  1  0
  8  9  2  0
  9 10  1  0
 11 10  2  0
 12 13  1  0
 13 14  2  0
 15 14  1  0
 16 12  1  0
 16 15  2  0
 17 18  1  0
 17 16  1  0
 19 17  1  0
 20 17  1  0
  2 21  1  0
  3 22  1  0
  8 23  1  0
  9 24  1  0
 11 25  1  0
 14 26  1  0
 15 27  1  0
M  ISO  7  21  14  22  14  23  14  24  14  25  14  26  14  27  14
M  END
>  <minimizedAffinity>  (1) 
-5.37446356

>  <minimizedRMSD>  (1) 
2.94909835

$$$$
