
     RDKit          3D

 30 32  0  0  0  0  0  0  0  0999 V2000
   38.4420   30.3850   39.9560 C   0  0  0  0  0  0  0  0  0  0  0  0
   39.6090   29.5980   39.9050 C   0  0  0  0  0  0  0  0  0  0  0  0
   40.8290   30.2680   39.8610 C   0  0  0  0  0  0  0  0  0  0  0  0
   40.8200   31.6160   39.8690 N   0  0  0  0  0  0  0  0  0  0  0  0
   39.6850   32.3460   39.9170 C   0  0  0  0  0  0  0  0  0  0  0  0
   38.4920   31.7320   39.9610 N   0  0  0  0  0  0  0  0  0  0  0  0
   39.7720   33.8030   39.9230 C   0  0  0  0  0  0  0  0  0  0  0  0
   40.9710   34.4320   39.7130 C   0  0  0  0  0  0  0  0  0  0  0  0
   41.1660   35.7880   39.6980 C   0  0  0  0  0  0  0  0  0  0  0  0
   40.0910   36.5960   39.9040 C   0  0  0  0  0  0  0  0  0  0  0  0
   38.8550   35.9980   40.1210 C   0  0  0  0  0  0  0  0  0  0  0  0
   38.6820   34.6230   40.1320 C   0  0  0  0  0  0  0  0  0  0  0  0
   37.1140   29.8740   40.0060 N   0  0  0  0  0  0  0  0  0  0  0  0
   36.3290   29.4870   40.9690 N   0  0  0  0  0  0  0  0  0  0  0  0
   35.1400   29.0760   40.5170 C   0  0  0  0  0  0  0  0  0  0  0  0
   35.1620   29.2070   39.1490 C   0  0  0  0  0  0  0  0  0  0  0  0
   36.4180   29.7130   38.8450 C   0  0  0  0  0  0  0  0  0  0  0  0
   36.8380   29.9990   37.4590 C   0  0  0  0  0  0  0  0  0  0  0  0
   35.8680   29.7470   36.5220 F   0  0  0  0  0  0  0  0  0  0  0  0
   38.0020   29.3300   37.1170 F   0  0  0  0  0  0  0  0  0  0  0  0
   37.1390   31.3600   37.3390 F   0  0  0  0  0  0  0  0  0  0  0  0
   39.5588   28.4992   39.9001 H   0  0  0  0  0  0  0  0  0  0  0  0
   41.7767   29.7110   39.8207 H   0  0  0  0  0  0  0  0  0  0  0  0
   41.8511   33.7946   39.5421 H   0  0  0  0  0  0  0  0  0  0  0  0
   42.1658   36.2124   39.5239 H   0  0  0  0  0  0  0  0  0  0  0  0
   40.1968   37.6909   39.8990 H   0  0  0  0  0  0  0  0  0  0  0  0
   37.9794   36.6418   40.2907 H   0  0  0  0  0  0  0  0  0  0  0  0
   37.6859   34.1897   40.3056 H   0  0  0  0  0  0  0  0  0  0  0  0
   34.3024   28.7034   41.1249 H   0  0  0  0  0  0  0  0  0  0  0  0
   34.3542   28.9623   38.4436 H   0  0  0  0  0  0  0  0  0  0  0  0
  1  6  1  0
  1 13  1  0
  2  1  2  0
  3  4  2  0
  3  2  1  0
  4  5  1  0
  5  7  1  0
  5  6  2  0
  7 12  1  0
  8  7  2  0
  9  8  1  0
  9 10  2  0
 10 11  1  0
 11 12  2  0
 13 14  1  0
 15 14  2  0
 16 15  1  0
 17 16  2  0
 17 13  1  0
 18 17  1  0
 19 18  1  0
 20 18  1  0
 21 18  1  0
  2 22  1  0
  3 23  1  0
  8 24  1  0
  9 25  1  0
 10 26  1  0
 11 27  1  0
 12 28  1  0
 15 29  1  0
 16 30  1  0
M  ISO  8  22  14  23  14  24  14  25  14  26  14  27  14  28  14  29  14
M  ISO  1  30  14
M  END
>  <minimizedAffinity>  (1) 
-5.2442975

>  <minimizedRMSD>  (1) 
2.43252206

$$$$
