
     RDKit          3D

 27 29  0  0  0  0  0  0  0  0999 V2000
   39.0060   31.3930   40.4650 C   0  0  0  0  0  0  0  0  0  0  0  0
   40.2240   30.7240   40.5190 C   0  0  0  0  0  0  0  0  0  0  0  0
   41.3880   31.4790   40.5290 C   0  0  0  0  0  0  0  0  0  0  0  0
   41.2760   32.8310   40.4850 N   0  0  0  0  0  0  0  0  0  0  0  0
   40.0870   33.4600   40.4340 C   0  0  0  0  0  0  0  0  0  0  0  0
   38.9390   32.7450   40.4220 N   0  0  0  0  0  0  0  0  0  0  0  0
   37.7130   30.7770   40.4450 N   0  0  0  0  0  0  0  0  0  0  0  0
   36.9050   30.3270   41.3610 N   0  0  0  0  0  0  0  0  0  0  0  0
   35.7860   29.8290   40.8430 C   0  0  0  0  0  0  0  0  0  0  0  0
   35.8720   29.9660   39.4650 C   0  0  0  0  0  0  0  0  0  0  0  0
   37.0980   30.5670   39.2420 C   0  0  0  0  0  0  0  0  0  0  0  0
   37.5690   30.8860   37.8820 C   0  0  0  0  0  0  0  0  0  0  0  0
   36.7700   30.4100   36.8730 F   0  0  0  0  0  0  0  0  0  0  0  0
   38.8820   30.4820   37.6640 F   0  0  0  0  0  0  0  0  0  0  0  0
   37.5730   32.2860   37.7150 F   0  0  0  0  0  0  0  0  0  0  0  0
   40.0000   34.9330   40.3870 C   0  0  0  0  0  0  0  0  0  0  0  0
   39.0100   35.8230   39.9930 C   0  0  0  0  0  0  0  0  0  0  0  0
   39.5740   37.0830   40.2030 C   0  0  0  0  0  0  0  0  0  0  0  0
   40.8300   36.8950   40.6940 C   0  0  0  0  0  0  0  0  0  0  0  0
   41.0450   35.5980   40.7880 O   0  0  0  0  0  0  0  0  0  0  0  0
   40.2635   29.6252   40.5529 H   0  0  0  0  0  0  0  0  0  0  0  0
   42.3749   30.9950   40.5714 H   0  0  0  0  0  0  0  0  0  0  0  0
   34.9475   29.3898   41.4033 H   0  0  0  0  0  0  0  0  0  0  0  0
   35.1278   29.6629   38.7138 H   0  0  0  0  0  0  0  0  0  0  0  0
   38.0083   35.5887   39.6036 H   0  0  0  0  0  0  0  0  0  0  0  0
   39.0912   38.0518   40.0073 H   0  0  0  0  0  0  0  0  0  0  0  0
   41.5421   37.6883   40.9653 H   0  0  0  0  0  0  0  0  0  0  0  0
  1  2  2  0
  2  3  1  0
  4  3  2  0
  5  4  1  0
  6  5  2  0
  6  1  1  0
  7  1  1  0
  7  8  1  0
  9  8  2  0
 10  9  1  0
 11 10  2  0
 11  7  1  0
 12 11  1  0
 13 12  1  0
 14 12  1  0
 15 12  1  0
 16  5  1  0
 16 20  1  0
 17 18  1  0
 17 16  2  0
 18 19  2  0
 19 20  1  0
  2 21  1  0
  3 22  1  0
  9 23  1  0
 10 24  1  0
 17 25  1  0
 18 26  1  0
 19 27  1  0
M  ISO  7  21  14  22  14  23  14  24  14  25  14  26  14  27  14
M  END
>  <minimizedAffinity>  (1) 
-5.11226892

>  <minimizedRMSD>  (1) 
1.73818493

$$$$
