
     RDKit          3D

 36 38  0  0  0  0  0  0  0  0999 V2000
   40.7290   32.7100   40.4750 C   0  0  0  0  0  0  0  0  0  0  0  0
   40.4310   31.8340   41.5150 C   0  0  0  0  0  0  0  0  0  0  0  0
   40.8740   30.5200   41.4170 C   0  0  0  0  0  0  0  0  0  0  0  0
   41.5730   30.1710   40.3090 N   0  0  0  0  0  0  0  0  0  0  0  0
   41.8550   31.0300   39.3120 C   0  0  0  0  0  0  0  0  0  0  0  0
   41.4290   32.3050   39.4000 N   0  0  0  0  0  0  0  0  0  0  0  0
   40.3550   34.0880   40.4120 N   0  0  0  0  0  0  0  0  0  0  0  0
   40.9940   35.2060   40.6120 N   0  0  0  0  0  0  0  0  0  0  0  0
   40.2130   36.2790   40.4300 C   0  0  0  0  0  0  0  0  0  0  0  0
   38.9600   35.7980   40.0830 C   0  0  0  0  0  0  0  0  0  0  0  0
   39.0820   34.4170   40.0790 C   0  0  0  0  0  0  0  0  0  0  0  0
   37.9460   33.5260   39.7520 C   0  0  0  0  0  0  0  0  0  0  0  0
   36.8480   34.1840   39.2540 F   0  0  0  0  0  0  0  0  0  0  0  0
   37.5870   32.7320   40.8210 F   0  0  0  0  0  0  0  0  0  0  0  0
   38.3280   32.6430   38.7350 F   0  0  0  0  0  0  0  0  0  0  0  0
   42.6290   30.5600   38.1350 C   0  0  0  0  0  0  0  0  0  0  0  0
   41.6090   29.8240   37.2570 C   0  0  0  0  0  0  0  0  0  0  0  0
   42.4470   29.0460   36.2620 C   0  0  0  0  0  0  0  0  0  0  0  0
   43.2830   29.9820   35.4530 C   0  0  0  0  0  0  0  0  0  0  0  0
   44.0690   30.9750   36.2440 C   0  0  0  0  0  0  0  0  0  0  0  0
   43.1930   31.6550   37.2930 C   0  0  0  0  0  0  0  0  0  0  0  0
   39.8597   32.1728   42.3918 H   0  0  0  0  0  0  0  0  0  0  0  0
   40.6646   29.7884   42.2113 H   0  0  0  0  0  0  0  0  0  0  0  0
   40.5077   37.3336   40.5351 H   0  0  0  0  0  0  0  0  0  0  0  0
   38.0590   36.3877   39.8582 H   0  0  0  0  0  0  0  0  0  0  0  0
   43.4777   29.9608   38.4964 H   0  0  0  0  0  0  0  0  0  0  0  0
   40.9953   29.1421   37.8640 H   0  0  0  0  0  0  0  0  0  0  0  0
   40.9109   30.5152   36.7621 H   0  0  0  0  0  0  0  0  0  0  0  0
   43.1026   28.3491   36.8047 H   0  0  0  0  0  0  0  0  0  0  0  0
   41.7803   28.4859   35.5898 H   0  0  0  0  0  0  0  0  0  0  0  0
   42.6160   30.5366   34.7766 H   0  0  0  0  0  0  0  0  0  0  0  0
   44.0200   29.3574   34.9270 H   0  0  0  0  0  0  0  0  0  0  0  0
   44.8984   30.4576   36.7484 H   0  0  0  0  0  0  0  0  0  0  0  0
   44.4547   31.7434   35.5579 H   0  0  0  0  0  0  0  0  0  0  0  0
   43.7961   32.3381   37.9091 H   0  0  0  0  0  0  0  0  0  0  0  0
   42.3967   32.2525   36.8251 H   0  0  0  0  0  0  0  0  0  0  0  0
  1  2  2  0
  3  2  1  0
  4  3  2  0
  5  6  2  0
  5  4  1  0
  6  1  1  0
  7  1  1  0
  7  8  1  0
  9  8  2  0
 10  9  1  0
 11 10  2  0
 11  7  1  0
 12 11  1  0
 12 14  1  0
 13 12  1  0
 15 12  1  0
 16  5  1  0
 17 16  1  0
 18 17  1  0
 19 20  1  0
 19 18  1  0
 20 21  1  0
 21 16  1  0
  2 22  1  0
  3 23  1  0
  9 24  1  0
 10 25  1  0
 16 26  1  0
 17 27  1  0
 17 28  1  0
 18 29  1  0
 18 30  1  0
 19 31  1  0
 19 32  1  0
 20 33  1  0
 20 34  1  0
 21 35  1  0
 21 36  1  0
M  ISO  8  22  14  23  14  24  14  25  14  26  13  27  13  28  13  29  13
M  ISO  7  30  13  31  13  32  13  33  13  34  13  35  13  36  13
M  END
>  <minimizedAffinity>  (1) 
-5.07637072

>  <minimizedRMSD>  (1) 
6.37643433

$$$$
