
     RDKit          3D

 33 35  0  0  0  0  0  0  0  0999 V2000
   38.6960   31.1720   40.4430 C   0  0  0  0  0  0  0  0  0  0  0  0
   39.9510   30.5550   40.3240 C   0  0  0  0  0  0  0  0  0  0  0  0
   41.0780   31.3600   40.3730 C   0  0  0  0  0  0  0  0  0  0  0  0
   40.8960   32.6930   40.5330 N   0  0  0  0  0  0  0  0  0  0  0  0
   39.6820   33.2600   40.6440 C   0  0  0  0  0  0  0  0  0  0  0  0
   38.5610   32.4940   40.6000 N   0  0  0  0  0  0  0  0  0  0  0  0
   37.4480   30.4920   40.4110 N   0  0  0  0  0  0  0  0  0  0  0  0
   36.6750   29.9480   41.3240 N   0  0  0  0  0  0  0  0  0  0  0  0
   35.5680   29.4100   40.8050 C   0  0  0  0  0  0  0  0  0  0  0  0
   35.6190   29.6180   39.4430 C   0  0  0  0  0  0  0  0  0  0  0  0
   36.8120   30.3010   39.2190 C   0  0  0  0  0  0  0  0  0  0  0  0
   37.2370   30.7140   37.8620 C   0  0  0  0  0  0  0  0  0  0  0  0
   36.3920   30.3130   36.8570 F   0  0  0  0  0  0  0  0  0  0  0  0
   38.5330   30.3080   37.5670 F   0  0  0  0  0  0  0  0  0  0  0  0
   37.2640   32.1100   37.7900 F   0  0  0  0  0  0  0  0  0  0  0  0
   39.6600   34.7390   40.8150 C   0  0  0  0  0  0  0  0  0  0  0  0
   40.9830   35.3580   40.4090 C   0  0  0  0  0  0  0  0  0  0  0  0
   40.6730   36.6570   39.6940 C   0  0  0  0  0  0  0  0  0  0  0  0
   39.2110   36.8800   40.0750 C   0  0  0  0  0  0  0  0  0  0  0  0
   38.7070   35.4420   39.8950 C   0  0  0  0  0  0  0  0  0  0  0  0
   40.0374   29.4659   40.1958 H   0  0  0  0  0  0  0  0  0  0  0  0
   42.0870   30.9309   40.2849 H   0  0  0  0  0  0  0  0  0  0  0  0
   34.7675   28.8981   41.3592 H   0  0  0  0  0  0  0  0  0  0  0  0
   34.8757   29.3101   38.6929 H   0  0  0  0  0  0  0  0  0  0  0  0
   39.3920   34.8626   41.8747 H   0  0  0  0  0  0  0  0  0  0  0  0
   41.5951   35.5564   41.3011 H   0  0  0  0  0  0  0  0  0  0  0  0
   41.5459   34.6776   39.7531 H   0  0  0  0  0  0  0  0  0  0  0  0
   40.7922   36.5537   38.6054 H   0  0  0  0  0  0  0  0  0  0  0  0
   41.3380   37.4884   39.9708 H   0  0  0  0  0  0  0  0  0  0  0  0
   39.1018   37.2307   41.1119 H   0  0  0  0  0  0  0  0  0  0  0  0
   38.6784   37.6488   39.4959 H   0  0  0  0  0  0  0  0  0  0  0  0
   37.6620   35.3282   40.2191 H   0  0  0  0  0  0  0  0  0  0  0  0
   38.6929   35.0732   38.8588 H   0  0  0  0  0  0  0  0  0  0  0  0
  1  6  2  0
  2  3  2  0
  2  1  1  0
  3  4  1  0
  4  5  2  0
  5 16  1  0
  6  5  1  0
  7  1  1  0
  7  8  1  0
  9  8  2  0
 10  9  1  0
 11 10  2  0
 11  7  1  0
 12 11  1  0
 13 12  1  0
 14 12  1  0
 15 12  1  0
 17 16  1  0
 18 19  1  0
 18 17  1  0
 20 19  1  0
 20 16  1  0
  2 21  1  0
  3 22  1  0
  9 23  1  0
 10 24  1  0
 16 25  1  0
 17 26  1  0
 17 27  1  0
 18 28  1  0
 18 29  1  0
 19 30  1  0
 19 31  1  0
 20 32  1  0
 20 33  1  0
M  ISO  8  21  14  22  14  23  14  24  14  25  13  26  13  27  13  28  13
M  ISO  5  29  13  30  13  31  13  32  13  33  13
M  END
>  <minimizedAffinity>  (1) 
-5.06099224

>  <minimizedRMSD>  (1) 
1.54943478

$$$$
