
     RDKit          3D

 25 27  0  0  0  0  0  0  0  0999 V2000
   38.8220   31.3660   40.4470 C   0  0  0  0  0  0  0  0  0  0  0  0
   40.0580   30.7140   40.5620 C   0  0  0  0  0  0  0  0  0  0  0  0
   41.2110   31.4970   40.6050 C   0  0  0  0  0  0  0  0  0  0  0  0
   41.0600   32.8490   40.5300 N   0  0  0  0  0  0  0  0  0  0  0  0
   39.8610   33.4430   40.4200 C   0  0  0  0  0  0  0  0  0  0  0  0
   38.7350   32.7110   40.3770 N   0  0  0  0  0  0  0  0  0  0  0  0
   37.5560   30.7250   40.3900 N   0  0  0  0  0  0  0  0  0  0  0  0
   36.7360   30.2540   41.2990 N   0  0  0  0  0  0  0  0  0  0  0  0
   35.6330   29.7240   40.7460 C   0  0  0  0  0  0  0  0  0  0  0  0
   35.7560   29.8670   39.3760 C   0  0  0  0  0  0  0  0  0  0  0  0
   36.9810   30.5030   39.1800 C   0  0  0  0  0  0  0  0  0  0  0  0
   37.4720   30.8320   37.8230 C   0  0  0  0  0  0  0  0  0  0  0  0
   36.7020   30.3390   36.8010 F   0  0  0  0  0  0  0  0  0  0  0  0
   38.7970   30.4480   37.6570 F   0  0  0  0  0  0  0  0  0  0  0  0
   37.4480   32.2210   37.6650 F   0  0  0  0  0  0  0  0  0  0  0  0
   39.8150   34.8970   40.3480 C   0  0  0  0  0  0  0  0  0  0  0  0
   38.8110   35.6890   39.9590 N   0  0  0  0  0  0  0  0  0  0  0  0
   39.1590   36.9420   40.0360 O   0  0  0  0  0  0  0  0  0  0  0  0
   40.4110   37.0090   40.4800 C   0  0  0  0  0  0  0  0  0  0  0  0
   40.8130   35.7320   40.6730 N   0  0  0  0  0  0  0  0  0  0  0  0
   40.1164   29.6169   40.6167 H   0  0  0  0  0  0  0  0  0  0  0  0
   42.2071   31.0394   40.6962 H   0  0  0  0  0  0  0  0  0  0  0  0
   34.7903   29.2629   41.2819 H   0  0  0  0  0  0  0  0  0  0  0  0
   35.0397   29.5470   38.6050 H   0  0  0  0  0  0  0  0  0  0  0  0
   41.0013   37.9205   40.6552 H   0  0  0  0  0  0  0  0  0  0  0  0
  1  2  2  0
  2  3  1  0
  4  3  2  0
  5  4  1  0
  6  5  2  0
  6  1  1  0
  7  1  1  0
  7  8  1  0
  9  8  2  0
 10  9  1  0
 11 10  2  0
 11  7  1  0
 12 11  1  0
 13 12  1  0
 14 12  1  0
 15 12  1  0
 16  5  1  0
 16 20  1  0
 17 18  1  0
 17 16  2  0
 18 19  1  0
 19 20  2  0
  2 21  1  0
  3 22  1  0
  9 23  1  0
 10 24  1  0
 19 25  1  0
M  ISO  5  21  14  22  14  23  14  24  14  25  14
M  END
>  <minimizedAffinity>  (1) 
-5.04735994

>  <minimizedRMSD>  (1) 
1.62084508

$$$$
