
     RDKit          3D

 27 29  0  0  0  0  0  0  0  0999 V2000
   38.6870   30.6320   40.3590 C   0  0  0  0  0  0  0  0  0  0  0  0
   39.8490   29.8410   40.4700 C   0  0  0  0  0  0  0  0  0  0  0  0
   41.0810   30.4810   40.5310 C   0  0  0  0  0  0  0  0  0  0  0  0
   41.0920   31.8360   40.4790 N   0  0  0  0  0  0  0  0  0  0  0  0
   39.9610   32.5680   40.3730 C   0  0  0  0  0  0  0  0  0  0  0  0
   38.7530   31.9840   40.3120 N   0  0  0  0  0  0  0  0  0  0  0  0
   37.3610   30.1350   40.2860 N   0  0  0  0  0  0  0  0  0  0  0  0
   36.5130   29.6780   41.1620 N   0  0  0  0  0  0  0  0  0  0  0  0
   35.3550   29.3190   40.6090 C   0  0  0  0  0  0  0  0  0  0  0  0
   35.4600   29.5640   39.2510 C   0  0  0  0  0  0  0  0  0  0  0  0
   36.7320   30.0790   39.0710 C   0  0  0  0  0  0  0  0  0  0  0  0
   37.2420   30.4740   37.7440 C   0  0  0  0  0  0  0  0  0  0  0  0
   36.4250   30.1020   36.7050 F   0  0  0  0  0  0  0  0  0  0  0  0
   38.5320   30.0170   37.5220 F   0  0  0  0  0  0  0  0  0  0  0  0
   37.3240   31.8670   37.6650 F   0  0  0  0  0  0  0  0  0  0  0  0
   40.0820   34.0680   40.3240 C   0  0  0  0  0  0  0  0  0  0  0  0
   38.9010   34.8650   40.1180 C   0  0  0  0  0  0  0  0  0  0  0  0
   39.0880   36.2200   40.0830 C   0  0  0  0  0  0  0  0  0  0  0  0
   40.4120   36.7390   40.2520 C   0  0  0  0  0  0  0  0  0  0  0  0
   41.4420   35.1930   40.4690 S   0  0  0  0  0  0  0  0  0  0  0  0
   39.7819   28.7437   40.5074 H   0  0  0  0  0  0  0  0  0  0  0  0
   42.0158   29.9078   40.6185 H   0  0  0  0  0  0  0  0  0  0  0  0
   34.4806   28.9058   41.1331 H   0  0  0  0  0  0  0  0  0  0  0  0
   34.6959   29.3872   38.4796 H   0  0  0  0  0  0  0  0  0  0  0  0
   37.9064   34.4112   39.9959 H   0  0  0  0  0  0  0  0  0  0  0  0
   38.2364   36.8987   39.9278 H   0  0  0  0  0  0  0  0  0  0  0  0
   40.7419   37.7884   40.2538 H   0  0  0  0  0  0  0  0  0  0  0  0
  1  2  2  0
  2  3  1  0
  4  3  2  0
  5  4  1  0
  6  1  1  0
  6  5  2  0
  7  1  1  0
  7  8  1  0
  9  8  2  0
 10  9  1  0
 11 10  2  0
 11  7  1  0
 12 11  1  0
 13 12  1  0
 14 12  1  0
 15 12  1  0
 16  5  1  0
 16 20  1  0
 17 16  2  0
 18 17  1  0
 18 19  2  0
 19 20  1  0
  2 21  1  0
  3 22  1  0
  9 23  1  0
 10 24  1  0
 17 25  1  0
 18 26  1  0
 19 27  1  0
M  ISO  7  21  14  22  14  23  14  24  14  25  14  26  14  27  14
M  END
>  <minimizedAffinity>  (1) 
-4.89508438

>  <minimizedRMSD>  (1) 
2.20532393

$$$$
