
     RDKit          3D

 32 33  0  0  0  0  0  0  0  0999 V2000
   38.4290   32.8410   39.9860 C   0  0  0  0  0  0  0  0  0  0  0  0
   37.4000   32.5950   39.0790 C   0  0  0  0  0  0  0  0  0  0  0  0
   36.8040   31.3370   39.1060 C   0  0  0  0  0  0  0  0  0  0  0  0
   37.2570   30.4390   40.0040 N   0  0  0  0  0  0  0  0  0  0  0  0
   38.2530   30.6960   40.8720 C   0  0  0  0  0  0  0  0  0  0  0  0
   38.8430   31.9070   40.8640 N   0  0  0  0  0  0  0  0  0  0  0  0
   39.1520   34.0730   40.1010 N   0  0  0  0  0  0  0  0  0  0  0  0
   38.9130   35.2090   40.7140 N   0  0  0  0  0  0  0  0  0  0  0  0
   39.9050   36.0880   40.5300 C   0  0  0  0  0  0  0  0  0  0  0  0
   40.8540   35.4710   39.7400 C   0  0  0  0  0  0  0  0  0  0  0  0
   40.3540   34.2030   39.4860 C   0  0  0  0  0  0  0  0  0  0  0  0
   41.0810   33.2060   38.6600 C   0  0  0  0  0  0  0  0  0  0  0  0
   42.2510   33.6930   38.1180 F   0  0  0  0  0  0  0  0  0  0  0  0
   40.2820   32.6710   37.6610 F   0  0  0  0  0  0  0  0  0  0  0  0
   41.4710   32.1300   39.4680 F   0  0  0  0  0  0  0  0  0  0  0  0
   38.7130   29.6570   41.8470 C   0  0  0  0  0  0  0  0  0  0  0  0
   39.2410   28.4620   41.1110 C   0  0  0  0  0  0  0  0  0  0  0  0
   39.7780   30.2540   42.7640 C   0  0  0  0  0  0  0  0  0  0  0  0
   37.5540   29.2540   42.7290 C   0  0  0  0  0  0  0  0  0  0  0  0
   37.0706   33.3666   38.3676 H   0  0  0  0  0  0  0  0  0  0  0  0
   35.9870   31.0830   38.4146 H   0  0  0  0  0  0  0  0  0  0  0  0
   39.9549   37.1104   40.9327 H   0  0  0  0  0  0  0  0  0  0  0  0
   41.8054   35.8954   39.3868 H   0  0  0  0  0  0  0  0  0  0  0  0
   39.5758   27.7042   41.8346 H   0  0  0  0  0  0  0  0  0  0  0  0
   38.4457   28.0396   40.4792 H   0  0  0  0  0  0  0  0  0  0  0  0
   40.0888   28.7656   40.4792 H   0  0  0  0  0  0  0  0  0  0  0  0
   39.4905   30.0928   43.8134 H   0  0  0  0  0  0  0  0  0  0  0  0
   40.7446   29.7662   42.5696 H   0  0  0  0  0  0  0  0  0  0  0  0
   39.8662   31.3331   42.5696 H   0  0  0  0  0  0  0  0  0  0  0  0
   37.8445   29.3550   43.7851 H   0  0  0  0  0  0  0  0  0  0  0  0
   36.6919   29.9051   42.5219 H   0  0  0  0  0  0  0  0  0  0  0  0
   37.2819   28.2085   42.5219 H   0  0  0  0  0  0  0  0  0  0  0  0
  1  7  1  0
  1  6  2  0
  2  3  2  0
  2  1  1  0
  3  4  1  0
  4  5  2  0
  5 16  1  0
  6  5  1  0
  7  8  1  0
  9  8  2  0
 10  9  1  0
 11 10  2  0
 11  7  1  0
 12 15  1  0
 12 11  1  0
 13 12  1  0
 14 12  1  0
 16 19  1  0
 16 18  1  0
 17 16  1  0
  2 20  1  0
  3 21  1  0
  9 22  1  0
 10 23  1  0
 17 24  1  0
 17 25  1  0
 17 26  1  0
 18 27  1  0
 18 28  1  0
 18 29  1  0
 19 30  1  0
 19 31  1  0
 19 32  1  0
M  ISO  8  20  14  21  14  22  14  23  14  24   8  25   8  26   8  27   8
M  ISO  5  28   8  29   8  30   8  31   8  32   8
M  END
>  <minimizedAffinity>  (1) 
-4.83083391

>  <minimizedRMSD>  (1) 
5.46212959

$$$$
