
     RDKit          3D

 21 22  0  0  0  0  0  0  0  0999 V2000
   37.4610   30.9880   40.3670 N   0  0  0  0  0  0  0  0  0  0  0  0
   36.6710   30.5070   41.2800 N   0  0  0  0  0  0  0  0  0  0  0  0
   35.6480   29.8150   40.7480 C   0  0  0  0  0  0  0  0  0  0  0  0
   35.8010   29.8610   39.3790 C   0  0  0  0  0  0  0  0  0  0  0  0
   36.9470   30.6030   39.1570 C   0  0  0  0  0  0  0  0  0  0  0  0
   38.6590   31.7740   40.3940 C   0  0  0  0  0  0  0  0  0  0  0  0
   39.9520   31.2690   40.5030 C   0  0  0  0  0  0  0  0  0  0  0  0
   41.0140   32.1610   40.5170 C   0  0  0  0  0  0  0  0  0  0  0  0
   40.7150   33.4930   40.4210 N   0  0  0  0  0  0  0  0  0  0  0  0
   39.4450   33.9560   40.3160 C   0  0  0  0  0  0  0  0  0  0  0  0
   38.4120   33.0890   40.3020 N   0  0  0  0  0  0  0  0  0  0  0  0
   39.1470   35.7250   40.1940 S   0  0  0  0  0  0  0  0  0  0  0  0
   37.4550   30.8810   37.8040 C   0  0  0  0  0  0  0  0  0  0  0  0
   36.6960   30.3230   36.7960 F   0  0  0  0  0  0  0  0  0  0  0  0
   38.7870   30.5360   37.6470 F   0  0  0  0  0  0  0  0  0  0  0  0
   37.3970   32.2680   37.5620 F   0  0  0  0  0  0  0  0  0  0  0  0
   34.8426   29.3087   41.3002 H   0  0  0  0  0  0  0  0  0  0  0  0
   35.1481   29.4032   38.6213 H   0  0  0  0  0  0  0  0  0  0  0  0
   40.1275   30.1856   40.5765 H   0  0  0  0  0  0  0  0  0  0  0  0
   42.0538   31.8122   40.6018 H   0  0  0  0  0  0  0  0  0  0  0  0
   39.0568   36.2607   41.4517 H   0  0  0  0  0  0  0  0  0  0  0  0
  1  6  1  0
  1  2  1  0
  3  2  2  0
  4  3  1  0
  5  4  2  0
  5  1  1  0
  6  7  2  0
  7  8  1  0
  9  8  2  0
 10  9  1  0
 11 10  2  0
 11  6  1  0
 12 10  1  0
 13  5  1  0
 14 13  1  0
 15 13  1  0
 16 13  1  0
  3 17  1  0
  4 18  1  0
  7 19  1  0
  8 20  1  0
 12 21  1  0
M  ISO  5  17  14  18  14  19  14  20  14  21  11
M  END
>  <minimizedAffinity>  (1) 
-4.13767052

>  <minimizedRMSD>  (1) 
0.81430614

$$$$
