
     RDKit          3D

 36 39  0  0  0  0  0  0  0  0999 V2000
   41.3480   30.9390   41.2180 N   0  0  0  0  0  0  0  0  0  0  0  0
   41.9350   29.9170   41.7790 N   0  0  0  0  0  0  0  0  0  0  0  0
   41.0500   29.0270   42.2330 C   0  0  0  0  0  0  0  0  0  0  0  0
   39.7820   29.5230   41.9380 C   0  0  0  0  0  0  0  0  0  0  0  0
   40.0120   30.7230   41.3030 C   0  0  0  0  0  0  0  0  0  0  0  0
   41.8230   32.1370   40.5930 C   0  0  0  0  0  0  0  0  0  0  0  0
   41.9520   32.3490   39.2360 C   0  0  0  0  0  0  0  0  0  0  0  0
   42.4300   33.5730   38.8030 C   0  0  0  0  0  0  0  0  0  0  0  0
   42.7430   34.4920   39.7380 N   0  0  0  0  0  0  0  0  0  0  0  0
   42.6180   34.2880   41.0560 C   0  0  0  0  0  0  0  0  0  0  0  0
   42.1490   33.0880   41.5010 N   0  0  0  0  0  0  0  0  0  0  0  0
   42.9780   35.3270   41.9560 N   0  0  0  0  0  0  0  0  0  0  0  0
   44.2770   35.4550   42.3160 C   0  0  0  0  0  0  0  0  0  0  0  0
   44.4040   36.4950   43.1720 N   0  0  0  0  0  0  0  0  0  0  0  0
   43.1570   37.0120   43.3380 C   0  0  0  0  0  0  0  0  0  0  0  0
   42.3070   36.2870   42.5900 N   0  0  0  0  0  0  0  0  0  0  0  0
   38.6500   28.7250   42.3090 C   0  0  0  0  0  0  0  0  0  0  0  0
   37.9100   27.8540   41.5350 C   0  0  0  0  0  0  0  0  0  0  0  0
   36.8320   27.1520   42.0010 C   0  0  0  0  0  0  0  0  0  0  0  0
   36.4230   27.2850   43.2970 C   0  0  0  0  0  0  0  0  0  0  0  0
   37.1080   28.1350   44.1360 C   0  0  0  0  0  0  0  0  0  0  0  0
   38.1860   28.8180   43.6170 C   0  0  0  0  0  0  0  0  0  0  0  0
   38.8900   31.5710   40.8380 C   0  0  0  0  0  0  0  0  0  0  0  0
   37.6560   31.2060   41.3250 F   0  0  0  0  0  0  0  0  0  0  0  0
   38.8690   31.7210   39.4760 F   0  0  0  0  0  0  0  0  0  0  0  0
   39.0650   32.8800   41.3480 F   0  0  0  0  0  0  0  0  0  0  0  0
   41.2788   28.0801   42.7439 H   0  0  0  0  0  0  0  0  0  0  0  0
   41.6812   31.5634   38.5152 H   0  0  0  0  0  0  0  0  0  0  0  0
   42.5506   33.7890   37.7312 H   0  0  0  0  0  0  0  0  0  0  0  0
   45.1000   34.8139   41.9672 H   0  0  0  0  0  0  0  0  0  0  0  0
   42.8911   37.8709   43.9718 H   0  0  0  0  0  0  0  0  0  0  0  0
   38.2036   27.7165   40.4839 H   0  0  0  0  0  0  0  0  0  0  0  0
   36.2898   26.4742   41.3253 H   0  0  0  0  0  0  0  0  0  0  0  0
   35.5553   26.7190   43.6668 H   0  0  0  0  0  0  0  0  0  0  0  0
   36.8047   28.2644   45.1854 H   0  0  0  0  0  0  0  0  0  0  0  0
   38.7262   29.4950   44.2952 H   0  0  0  0  0  0  0  0  0  0  0  0
  1  5  1  0
  1  2  1  0
  2  3  2  0
  4  3  1  0
  4 17  1  0
  5  4  2  0
  6  1  1  0
  6 11  1  0
  7  6  2  0
  8  7  1  0
  8  9  2  0
  9 10  1  0
 10 11  2  0
 10 12  1  0
 12 13  1  0
 12 16  1  0
 13 14  2  0
 14 15  1  0
 16 15  2  0
 17 22  2  0
 18 19  2  0
 18 17  1  0
 19 20  1  0
 20 21  2  0
 22 21  1  0
 23  5  1  0
 23 24  1  0
 23 26  1  0
 25 23  1  0
  3 27  1  0
  7 28  1  0
  8 29  1  0
 13 30  1  0
 15 31  1  0
 18 32  1  0
 19 33  1  0
 20 34  1  0
 21 35  1  0
 22 36  1  0
M  ISO  8  27  14  28  14  29  14  30  14  31  14  32  14  33  14  34  14
M  ISO  2  35  14  36  14
M  END
>  <minimizedAffinity>  (1) 
-6.37475014

>  <minimizedRMSD>  (1) 
2.95200181

$$$$
