
     RDKit          3D

 40 44  0  0  0  0  0  0  0  0999 V2000
   41.1580   29.9020   39.5220 N   0  0  0  0  0  0  0  0  0  0  0  0
   41.9590   29.0610   40.1040 N   0  0  0  0  0  0  0  0  0  0  0  0
   41.2930   28.0200   40.6210 C   0  0  0  0  0  0  0  0  0  0  0  0
   39.9500   28.2180   40.3400 C   0  0  0  0  0  0  0  0  0  0  0  0
   39.9010   29.4140   39.6470 C   0  0  0  0  0  0  0  0  0  0  0  0
   41.3570   31.1450   38.8290 C   0  0  0  0  0  0  0  0  0  0  0  0
   41.8500   31.2880   37.5420 C   0  0  0  0  0  0  0  0  0  0  0  0
   41.9780   32.5610   37.0250 C   0  0  0  0  0  0  0  0  0  0  0  0
   41.6120   33.5960   37.8130 N   0  0  0  0  0  0  0  0  0  0  0  0
   41.1340   33.4590   39.0640 C   0  0  0  0  0  0  0  0  0  0  0  0
   41.0050   32.2180   39.5740 N   0  0  0  0  0  0  0  0  0  0  0  0
   40.7820   34.6210   39.7960 N   0  0  0  0  0  0  0  0  0  0  0  0
   41.7640   35.2760   40.4660 C   0  0  0  0  0  0  0  0  0  0  0  0
   41.2300   36.3530   41.0970 N   0  0  0  0  0  0  0  0  0  0  0  0
   39.8960   36.3450   40.8020 C   0  0  0  0  0  0  0  0  0  0  0  0
   39.6460   35.2800   40.0070 N   0  0  0  0  0  0  0  0  0  0  0  0
   38.9580   27.2620   40.7840 C   0  0  0  0  0  0  0  0  0  0  0  0
   38.7550   26.1250   40.0680 N   0  0  0  0  0  0  0  0  0  0  0  0
   37.8510   25.1940   40.4200 C   0  0  0  0  0  0  0  0  0  0  0  0
   37.0900   25.3750   41.5380 N   0  0  0  0  0  0  0  0  0  0  0  0
   37.2490   26.4890   42.2900 C   0  0  0  0  0  0  0  0  0  0  0  0
   36.4490   26.6320   43.4290 C   0  0  0  0  0  0  0  0  0  0  0  0
   36.6990   27.7990   44.1130 C   0  0  0  0  0  0  0  0  0  0  0  0
   37.5960   28.8110   43.8440 C   0  0  0  0  0  0  0  0  0  0  0  0
   38.3580   28.5950   42.6910 C   0  0  0  0  0  0  0  0  0  0  0  0
   38.1840   27.4590   41.9340 C   0  0  0  0  0  0  0  0  0  0  0  0
   38.6170   29.9700   39.1670 C   0  0  0  0  0  0  0  0  0  0  0  0
   37.5900   29.0750   39.0940 F   0  0  0  0  0  0  0  0  0  0  0  0
   38.7410   30.6340   37.9490 F   0  0  0  0  0  0  0  0  0  0  0  0
   38.1820   30.9590   40.0780 F   0  0  0  0  0  0  0  0  0  0  0  0
   41.7291   27.1694   41.1653 H   0  0  0  0  0  0  0  0  0  0  0  0
   42.1327   30.4075   36.9464 H   0  0  0  0  0  0  0  0  0  0  0  0
   42.3639   32.7272   36.0084 H   0  0  0  0  0  0  0  0  0  0  0  0
   42.8234   34.9813   40.4934 H   0  0  0  0  0  0  0  0  0  0  0  0
   39.1537   37.0780   41.1508 H   0  0  0  0  0  0  0  0  0  0  0  0
   37.7252   24.2886   39.8081 H   0  0  0  0  0  0  0  0  0  0  0  0
   35.7001   25.8904   43.7439 H   0  0  0  0  0  0  0  0  0  0  0  0
   36.0879   27.9481   45.0154 H   0  0  0  0  0  0  0  0  0  0  0  0
   37.7024   29.7045   44.4768 H   0  0  0  0  0  0  0  0  0  0  0  0
   39.1053   29.3422   42.3857 H   0  0  0  0  0  0  0  0  0  0  0  0
  1  5  1  0
  1  2  1  0
  2  3  2  0
  4  3  1  0
  4 17  1  0
  5  4  2  0
  6  1  1  0
  6 11  1  0
  7  6  2  0
  8  7  1  0
  8  9  2  0
  9 10  1  0
 10 11  2  0
 10 12  1  0
 12 16  1  0
 12 13  1  0
 13 14  2  0
 15 14  1  0
 16 15  2  0
 17 26  2  0
 18 19  2  0
 18 17  1  0
 19 20  1  0
 20 21  2  0
 21 22  1  0
 22 23  2  0
 24 23  1  0
 25 24  2  0
 26 21  1  0
 26 25  1  0
 27  5  1  0
 27 30  1  0
 28 27  1  0
 29 27  1  0
  3 31  1  0
  7 32  1  0
  8 33  1  0
 13 34  1  0
 15 35  1  0
 19 36  1  0
 22 37  1  0
 23 38  1  0
 24 39  1  0
 25 40  1  0
M  ISO  8  31  14  32  14  33  14  34  14  35  14  36  14  37  14  38  14
M  ISO  2  39  14  40  14
M  END
>  <minimizedAffinity>  (1) 
-6.35167027

>  <minimizedRMSD>  (1) 
2.96596575

$$$$
