
     RDKit          3D

 33 35  0  0  0  0  0  0  0  0999 V2000
   39.5140   30.6950   41.2260 N   0  0  0  0  0  0  0  0  0  0  0  0
   40.0890   29.9710   42.1430 N   0  0  0  0  0  0  0  0  0  0  0  0
   39.2020   29.3220   42.9000 C   0  0  0  0  0  0  0  0  0  0  0  0
   37.9520   29.6430   42.4450 C   0  0  0  0  0  0  0  0  0  0  0  0
   38.1780   30.5070   41.3930 C   0  0  0  0  0  0  0  0  0  0  0  0
   39.9900   31.5540   40.1920 C   0  0  0  0  0  0  0  0  0  0  0  0
   40.5120   31.1560   38.9790 C   0  0  0  0  0  0  0  0  0  0  0  0
   40.9280   32.1270   38.0870 C   0  0  0  0  0  0  0  0  0  0  0  0
   40.8000   33.4200   38.4590 N   0  0  0  0  0  0  0  0  0  0  0  0
   40.2910   33.8010   39.6400 C   0  0  0  0  0  0  0  0  0  0  0  0
   39.8770   32.8680   40.5270 N   0  0  0  0  0  0  0  0  0  0  0  0
   40.2020   35.1960   39.9290 N   0  0  0  0  0  0  0  0  0  0  0  0
   41.2890   35.8210   40.4090 C   0  0  0  0  0  0  0  0  0  0  0  0
   41.0100   37.1390   40.6220 N   0  0  0  0  0  0  0  0  0  0  0  0
   39.6980   37.3010   40.2490 C   0  0  0  0  0  0  0  0  0  0  0  0
   39.2350   36.1060   39.8330 N   0  0  0  0  0  0  0  0  0  0  0  0
   36.7720   29.1230   43.0350 N   0  0  0  0  0  0  0  0  0  0  0  0
   36.5800   27.7230   43.2900 C   0  0  0  0  0  0  0  0  0  0  0  0
   37.1450   26.8730   42.4890 N   0  0  0  0  0  0  0  0  0  0  0  0
   35.7880   27.2370   44.3950 N   0  0  0  0  0  0  0  0  0  0  0  0
   37.0210   25.8520   42.6530 H   0  0  0  0  0  0  0  0  0  0  0  0
   37.0510   31.1050   40.6040 C   0  0  0  0  0  0  0  0  0  0  0  0
   35.8200   30.7070   41.0100 F   0  0  0  0  0  0  0  0  0  0  0  0
   37.2000   30.8850   39.2420 F   0  0  0  0  0  0  0  0  0  0  0  0
   37.0620   32.4920   40.7580 F   0  0  0  0  0  0  0  0  0  0  0  0
   39.4341   28.6497   43.7391 H   0  0  0  0  0  0  0  0  0  0  0  0
   40.5956   30.0886   38.7266 H   0  0  0  0  0  0  0  0  0  0  0  0
   41.3490   31.8563   37.1075 H   0  0  0  0  0  0  0  0  0  0  0  0
   42.2600   35.3415   40.6018 H   0  0  0  0  0  0  0  0  0  0  0  0
   39.1264   38.2402   40.2838 H   0  0  0  0  0  0  0  0  0  0  0  0
   36.0198   29.7781   43.2918 H   0  0  0  0  0  0  0  0  0  0  0  0
   35.6759   26.2237   44.5419 H   0  0  0  0  0  0  0  0  0  0  0  0
   35.3351   27.9036   45.0364 H   0  0  0  0  0  0  0  0  0  0  0  0
  1  5  1  0
  1  2  1  0
  2  3  2  0
  4  3  1  0
  4 17  1  0
  5  4  2  0
  6 11  1  0
  6  1  1  0
  7  6  2  0
  8  9  2  0
  8  7  1  0
  9 10  1  0
 10 12  1  0
 10 11  2  0
 12 13  1  0
 13 14  2  0
 15 14  1  0
 16 12  1  0
 16 15  2  0
 17 18  1  0
 18 20  1  0
 19 21  1  0
 19 18  2  0
 22 25  1  0
 22 23  1  0
 22  5  1  0
 24 22  1  0
  3 26  1  0
  7 27  1  0
  8 28  1  0
 13 29  1  0
 15 30  1  0
 17 31  1  0
 20 32  1  0
 20 33  1  0
M  ISO  5  26  14  27  14  28  14  29  14  30  14
M  END
>  <minimizedAffinity>  (1) 
-6.25826406

>  <minimizedRMSD>  (1) 
0.622337937

$$$$
