
     RDKit          3D

 33 36  0  0  0  0  0  0  0  0999 V2000
   39.9740   30.4170   41.1130 N   0  0  0  0  0  0  0  0  0  0  0  0
   40.7670   29.7280   41.8840 N   0  0  0  0  0  0  0  0  0  0  0  0
   40.0800   29.0000   42.7670 C   0  0  0  0  0  0  0  0  0  0  0  0
   38.7260   29.2380   42.5480 C   0  0  0  0  0  0  0  0  0  0  0  0
   38.7100   30.1300   41.5040 C   0  0  0  0  0  0  0  0  0  0  0  0
   40.2000   31.3270   40.0350 C   0  0  0  0  0  0  0  0  0  0  0  0
   40.5070   30.9720   38.7230 C   0  0  0  0  0  0  0  0  0  0  0  0
   40.6990   31.9670   37.7920 C   0  0  0  0  0  0  0  0  0  0  0  0
   40.5770   33.2440   38.2110 N   0  0  0  0  0  0  0  0  0  0  0  0
   40.2810   33.5790   39.4750 C   0  0  0  0  0  0  0  0  0  0  0  0
   40.0860   32.6190   40.4150 N   0  0  0  0  0  0  0  0  0  0  0  0
   40.1740   34.9630   39.8140 N   0  0  0  0  0  0  0  0  0  0  0  0
   41.2910   35.6520   40.1100 C   0  0  0  0  0  0  0  0  0  0  0  0
   40.9680   36.9340   40.4000 N   0  0  0  0  0  0  0  0  0  0  0  0
   39.6180   37.0300   40.2790 C   0  0  0  0  0  0  0  0  0  0  0  0
   39.1550   35.8200   39.9210 N   0  0  0  0  0  0  0  0  0  0  0  0
   37.7110   28.5800   43.3600 C   0  0  0  0  0  0  0  0  0  0  0  0
   36.9650   27.4770   42.9500 C   0  0  0  0  0  0  0  0  0  0  0  0
   36.1000   27.0970   43.9360 C   0  0  0  0  0  0  0  0  0  0  0  0
   36.3330   27.9870   44.9520 C   0  0  0  0  0  0  0  0  0  0  0  0
   37.2460   28.7850   44.5550 O   0  0  0  0  0  0  0  0  0  0  0  0
   37.4280   30.6500   40.9510 C   0  0  0  0  0  0  0  0  0  0  0  0
   36.3160   30.2920   41.6360 F   0  0  0  0  0  0  0  0  0  0  0  0
   37.2770   30.3450   39.6020 F   0  0  0  0  0  0  0  0  0  0  0  0
   37.4420   32.0640   41.0050 F   0  0  0  0  0  0  0  0  0  0  0  0
   40.5067   28.3324   43.5301 H   0  0  0  0  0  0  0  0  0  0  0  0
   40.5944   29.9137   38.4362 H   0  0  0  0  0  0  0  0  0  0  0  0
   40.9427   31.7304   36.7458 H   0  0  0  0  0  0  0  0  0  0  0  0
   42.3098   35.2373   40.1155 H   0  0  0  0  0  0  0  0  0  0  0  0
   39.0136   37.9341   40.4441 H   0  0  0  0  0  0  0  0  0  0  0  0
   37.0593   26.9828   41.9718 H   0  0  0  0  0  0  0  0  0  0  0  0
   35.3799   26.2656   43.9188 H   0  0  0  0  0  0  0  0  0  0  0  0
   35.8268   28.0092   45.9284 H   0  0  0  0  0  0  0  0  0  0  0  0
  1  5  1  0
  1  2  1  0
  2  3  2  0
  4  3  1  0
  4 17  1  0
  5  4  2  0
  6 11  1  0
  6  1  1  0
  7  6  2  0
  8  9  2  0
  8  7  1  0
  9 10  1  0
 10 12  1  0
 10 11  2  0
 12 16  1  0
 12 13  1  0
 13 14  2  0
 15 14  1  0
 16 15  2  0
 17 21  1  0
 18 17  2  0
 18 19  1  0
 19 20  2  0
 21 20  1  0
 22 25  1  0
 22  5  1  0
 22 23  1  0
 24 22  1  0
  3 26  1  0
  7 27  1  0
  8 28  1  0
 13 29  1  0
 15 30  1  0
 18 31  1  0
 19 32  1  0
 20 33  1  0
M  ISO  8  26  14  27  14  28  14  29  14  30  14  31  14  32  14  33  14
M  END
>  <minimizedAffinity>  (1) 
-6.10279989

>  <minimizedRMSD>  (1) 
1.34565711

$$$$
