
     RDKit          3D

 29 31  0  0  0  0  0  0  0  0999 V2000
   39.8420   31.1200   40.1350 C   0  0  0  0  0  0  0  0  0  0  0  0
   40.1090   30.7280   38.8360 C   0  0  0  0  0  0  0  0  0  0  0  0
   40.3610   31.6960   37.8860 C   0  0  0  0  0  0  0  0  0  0  0  0
   40.3340   32.9830   38.2870 N   0  0  0  0  0  0  0  0  0  0  0  0
   40.0760   33.3600   39.5470 C   0  0  0  0  0  0  0  0  0  0  0  0
   39.8230   32.4290   40.5000 N   0  0  0  0  0  0  0  0  0  0  0  0
   40.0710   34.7540   39.8630 N   0  0  0  0  0  0  0  0  0  0  0  0
   41.2520   35.3560   40.1350 C   0  0  0  0  0  0  0  0  0  0  0  0
   41.0250   36.6670   40.4080 N   0  0  0  0  0  0  0  0  0  0  0  0
   39.6820   36.8580   40.2970 C   0  0  0  0  0  0  0  0  0  0  0  0
   39.1250   35.6820   39.9650 N   0  0  0  0  0  0  0  0  0  0  0  0
   39.5600   30.2490   41.2400 N   0  0  0  0  0  0  0  0  0  0  0  0
   40.2900   29.5870   42.0910 N   0  0  0  0  0  0  0  0  0  0  0  0
   39.5640   28.8930   42.9660 C   0  0  0  0  0  0  0  0  0  0  0  0
   38.2550   29.1350   42.6430 C   0  0  0  0  0  0  0  0  0  0  0  0
   38.2710   29.9880   41.5580 C   0  0  0  0  0  0  0  0  0  0  0  0
   37.0140   30.4720   40.9280 C   0  0  0  0  0  0  0  0  0  0  0  0
   35.8750   30.0310   41.5100 F   0  0  0  0  0  0  0  0  0  0  0  0
   36.9930   30.2370   39.5630 F   0  0  0  0  0  0  0  0  0  0  0  0
   36.9660   31.8770   41.0470 F   0  0  0  0  0  0  0  0  0  0  0  0
   37.2180   28.5060   43.4320 C   0  0  0  0  0  0  0  0  0  0  0  0
   36.5770   27.4730   43.1370 O   0  0  0  0  0  0  0  0  0  0  0  0
   36.5590   28.6740   44.6250 O   0  0  0  0  0  0  0  0  0  0  0  0
   40.1203   29.6620   38.5647 H   0  0  0  0  0  0  0  0  0  0  0  0
   40.5758   31.4280   36.8410 H   0  0  0  0  0  0  0  0  0  0  0  0
   42.2357   34.8637   40.1350 H   0  0  0  0  0  0  0  0  0  0  0  0
   39.1478   37.8070   40.4517 H   0  0  0  0  0  0  0  0  0  0  0  0
   39.9388   28.2562   43.7808 H   0  0  0  0  0  0  0  0  0  0  0  0
   35.8562   28.0320   44.8970 H   0  0  0  0  0  0  0  0  0  0  0  0
  1  6  1  0
  1 12  1  0
  2  1  2  0
  3  4  2  0
  3  2  1  0
  4  5  1  0
  5  7  1  0
  5  6  2  0
  7 11  1  0
  7  8  1  0
  8  9  2  0
 10  9  1  0
 11 10  2  0
 12 16  1  0
 12 13  1  0
 13 14  2  0
 15 14  1  0
 15 21  1  0
 16 15  2  0
 17 20  1  0
 17 18  1  0
 17 16  1  0
 19 17  1  0
 21 23  1  0
 22 21  2  0
  2 24  1  0
  3 25  1  0
  8 26  1  0
 10 27  1  0
 14 28  1  0
 23 29  1  0
M  ISO  6  24  14  25  14  26  14  27  14  28  14  29   3
M  END
>  <minimizedAffinity>  (1) 
-6.09786415

>  <minimizedRMSD>  (1) 
0.948291898

$$$$
