
     RDKit          3D

 33 36  0  0  0  0  0  0  0  0999 V2000
   39.9390   30.3990   41.1220 N   0  0  0  0  0  0  0  0  0  0  0  0
   40.7270   29.7100   41.9030 N   0  0  0  0  0  0  0  0  0  0  0  0
   40.0300   28.9830   42.7790 C   0  0  0  0  0  0  0  0  0  0  0  0
   38.6790   29.2250   42.5410 C   0  0  0  0  0  0  0  0  0  0  0  0
   38.6690   30.1160   41.4980 C   0  0  0  0  0  0  0  0  0  0  0  0
   40.1770   31.3090   40.0450 C   0  0  0  0  0  0  0  0  0  0  0  0
   40.4940   30.9530   38.7320 C   0  0  0  0  0  0  0  0  0  0  0  0
   40.6970   31.9460   37.8030 C   0  0  0  0  0  0  0  0  0  0  0  0
   40.5730   33.2290   38.2290 N   0  0  0  0  0  0  0  0  0  0  0  0
   40.2680   33.5610   39.4920 C   0  0  0  0  0  0  0  0  0  0  0  0
   40.0660   32.5940   40.4190 N   0  0  0  0  0  0  0  0  0  0  0  0
   40.1650   34.9440   39.8270 N   0  0  0  0  0  0  0  0  0  0  0  0
   41.2860   35.6200   40.1230 C   0  0  0  0  0  0  0  0  0  0  0  0
   40.9670   36.9140   40.4120 N   0  0  0  0  0  0  0  0  0  0  0  0
   39.6160   37.0190   40.2850 C   0  0  0  0  0  0  0  0  0  0  0  0
   39.1500   35.8010   39.9270 N   0  0  0  0  0  0  0  0  0  0  0  0
   37.6470   28.5640   43.3470 C   0  0  0  0  0  0  0  0  0  0  0  0
   36.9510   27.4280   42.9270 C   0  0  0  0  0  0  0  0  0  0  0  0
   36.0560   27.0370   43.8810 C   0  0  0  0  0  0  0  0  0  0  0  0
   36.2030   27.9170   44.8670 N   0  0  0  0  0  0  0  0  0  0  0  0
   37.1190   28.7840   44.5400 N   0  0  0  0  0  0  0  0  0  0  0  0
   37.3960   30.6350   40.9350 C   0  0  0  0  0  0  0  0  0  0  0  0
   36.2760   30.2720   41.6010 F   0  0  0  0  0  0  0  0  0  0  0  0
   37.2590   30.3470   39.5800 F   0  0  0  0  0  0  0  0  0  0  0  0
   37.4040   32.0480   40.9960 F   0  0  0  0  0  0  0  0  0  0  0  0
   40.4461   28.3153   43.5478 H   0  0  0  0  0  0  0  0  0  0  0  0
   40.5799   29.8944   38.4457 H   0  0  0  0  0  0  0  0  0  0  0  0
   40.9493   31.7108   36.7585 H   0  0  0  0  0  0  0  0  0  0  0  0
   42.3015   35.1972   40.1312 H   0  0  0  0  0  0  0  0  0  0  0  0
   39.0147   37.9263   40.4440 H   0  0  0  0  0  0  0  0  0  0  0  0
   37.1027   26.9199   41.9632 H   0  0  0  0  0  0  0  0  0  0  0  0
   35.3651   26.1819   43.8424 H   0  0  0  0  0  0  0  0  0  0  0  0
   35.6750   27.9138   45.7514 H   0  0  0  0  0  0  0  0  0  0  0  0
  1  5  1  0
  1  2  1  0
  2  3  2  0
  4  3  1  0
  4 17  1  0
  5  4  2  0
  6 11  1  0
  6  1  1  0
  7  6  2  0
  8  9  2  0
  8  7  1  0
  9 10  1  0
 10 12  1  0
 10 11  2  0
 12 16  1  0
 12 13  1  0
 13 14  2  0
 15 14  1  0
 16 15  2  0
 17 21  2  0
 18 17  1  0
 18 19  2  0
 19 20  1  0
 21 20  1  0
 22 25  1  0
 22  5  1  0
 22 23  1  0
 24 22  1  0
  3 26  1  0
  7 27  1  0
  8 28  1  0
 13 29  1  0
 15 30  1  0
 18 31  1  0
 19 32  1  0
 20 33  1  0
M  ISO  8  26  14  27  14  28  14  29  14  30  14  31  14  32  14  33   9
M  END
>  <minimizedAffinity>  (1) 
-6.08100271

>  <minimizedRMSD>  (1) 
1.27576005

$$$$
