
     RDKit          3D

 35 38  0  0  0  0  0  0  0  0999 V2000
   39.0650   29.7580   42.1610 N   0  0  0  0  0  0  0  0  0  0  0  0
   40.1900   30.1210   42.7120 N   0  0  0  0  0  0  0  0  0  0  0  0
   40.5480   31.3460   42.3300 C   0  0  0  0  0  0  0  0  0  0  0  0
   39.5680   31.8090   41.4560 C   0  0  0  0  0  0  0  0  0  0  0  0
   38.6620   30.7840   41.3800 C   0  0  0  0  0  0  0  0  0  0  0  0
   38.2730   28.5670   42.2460 C   0  0  0  0  0  0  0  0  0  0  0  0
   37.2360   28.3460   43.1540 C   0  0  0  0  0  0  0  0  0  0  0  0
   36.5630   27.1450   43.1130 C   0  0  0  0  0  0  0  0  0  0  0  0
   36.9550   26.2440   42.1840 N   0  0  0  0  0  0  0  0  0  0  0  0
   37.9520   26.4650   41.3150 C   0  0  0  0  0  0  0  0  0  0  0  0
   38.6250   27.6400   41.3400 N   0  0  0  0  0  0  0  0  0  0  0  0
   38.2810   25.4440   40.3770 N   0  0  0  0  0  0  0  0  0  0  0  0
   39.0940   24.4490   40.7620 C   0  0  0  0  0  0  0  0  0  0  0  0
   39.2810   23.5860   39.7270 N   0  0  0  0  0  0  0  0  0  0  0  0
   38.5560   24.0750   38.6800 C   0  0  0  0  0  0  0  0  0  0  0  0
   37.9540   25.2120   39.1050 N   0  0  0  0  0  0  0  0  0  0  0  0
   39.7080   33.1340   40.8830 C   0  0  0  0  0  0  0  0  0  0  0  0
   40.8670   33.5160   40.2410 C   0  0  0  0  0  0  0  0  0  0  0  0
   41.1230   34.7310   39.6590 C   0  0  0  0  0  0  0  0  0  0  0  0
   40.1450   35.6900   39.7010 C   0  0  0  0  0  0  0  0  0  0  0  0
   38.9770   35.3450   40.3320 C   0  0  0  0  0  0  0  0  0  0  0  0
   38.8550   34.1520   40.8480 N   0  0  0  0  0  0  0  0  0  0  0  0
   37.4460   30.8850   40.5320 C   0  0  0  0  0  0  0  0  0  0  0  0
   36.8570   29.7130   40.2160 F   0  0  0  0  0  0  0  0  0  0  0  0
   37.6690   31.6340   39.3790 F   0  0  0  0  0  0  0  0  0  0  0  0
   36.4510   31.6130   41.2270 F   0  0  0  0  0  0  0  0  0  0  0  0
   41.4500   31.8904   42.6462 H   0  0  0  0  0  0  0  0  0  0  0  0
   36.9613   29.1170   43.8889 H   0  0  0  0  0  0  0  0  0  0  0  0
   35.7391   26.9273   43.8086 H   0  0  0  0  0  0  0  0  0  0  0  0
   39.5412   24.3465   41.7618 H   0  0  0  0  0  0  0  0  0  0  0  0
   38.4752   23.6293   37.6776 H   0  0  0  0  0  0  0  0  0  0  0  0
   41.6711   32.7671   40.1904 H   0  0  0  0  0  0  0  0  0  0  0  0
   42.0884   34.9307   39.1711 H   0  0  0  0  0  0  0  0  0  0  0  0
   40.2890   36.6840   39.2524 H   0  0  0  0  0  0  0  0  0  0  0  0
   38.1503   36.0672   40.4027 H   0  0  0  0  0  0  0  0  0  0  0  0
  1  6  1  0
  1  2  1  0
  3  2  2  0
  4  3  1  0
  5  4  2  0
  5  1  1  0
  6  7  2  0
  8  7  1  0
  9  8  2  0
 10 11  2  0
 10  9  1  0
 11  6  1  0
 12 13  1  0
 12 10  1  0
 14 13  2  0
 15 16  2  0
 15 14  1  0
 16 12  1  0
 17  4  1  0
 18 17  2  0
 19 20  2  0
 19 18  1  0
 20 21  1  0
 21 22  2  0
 22 17  1  0
 23 26  1  0
 23  5  1  0
 24 23  1  0
 25 23  1  0
  3 27  1  0
  7 28  1  0
  8 29  1  0
 13 30  1  0
 15 31  1  0
 18 32  1  0
 19 33  1  0
 20 34  1  0
 21 35  1  0
M  ISO  8  27  14  28  14  29  14  30  14  31  14  32  14  33  14  34  14
M  ISO  1  35  14
M  END
>  <minimizedAffinity>  (1) 
-5.95564651

>  <minimizedRMSD>  (1) 
7.49599361

$$$$
