
     RDKit          3D

 34 37  0  0  0  0  0  0  0  0999 V2000
   41.1480   31.2450   41.0650 N   0  0  0  0  0  0  0  0  0  0  0  0
   41.7750   30.1910   41.5090 N   0  0  0  0  0  0  0  0  0  0  0  0
   40.9190   29.2620   41.9400 C   0  0  0  0  0  0  0  0  0  0  0  0
   39.6360   29.7670   41.7520 C   0  0  0  0  0  0  0  0  0  0  0  0
   39.8250   31.0070   41.2050 C   0  0  0  0  0  0  0  0  0  0  0  0
   41.5970   32.4860   40.5090 C   0  0  0  0  0  0  0  0  0  0  0  0
   41.6210   32.8090   39.1570 C   0  0  0  0  0  0  0  0  0  0  0  0
   42.0830   34.0510   38.7780 C   0  0  0  0  0  0  0  0  0  0  0  0
   42.4920   34.8880   39.7530 N   0  0  0  0  0  0  0  0  0  0  0  0
   42.4670   34.5700   41.0560 C   0  0  0  0  0  0  0  0  0  0  0  0
   42.0160   33.3550   41.4520 N   0  0  0  0  0  0  0  0  0  0  0  0
   42.9230   35.5330   42.0100 N   0  0  0  0  0  0  0  0  0  0  0  0
   44.2430   35.6260   42.2600 C   0  0  0  0  0  0  0  0  0  0  0  0
   44.4590   36.5890   43.1860 N   0  0  0  0  0  0  0  0  0  0  0  0
   43.2430   37.1000   43.5100 C   0  0  0  0  0  0  0  0  0  0  0  0
   42.3180   36.4400   42.7800 N   0  0  0  0  0  0  0  0  0  0  0  0
   38.4980   28.9490   42.1400 C   0  0  0  0  0  0  0  0  0  0  0  0
   38.1710   28.7720   43.4760 C   0  0  0  0  0  0  0  0  0  0  0  0
   37.1240   28.0260   43.9530 C   0  0  0  0  0  0  0  0  0  0  0  0
   36.3260   27.4000   43.0730 N   0  0  0  0  0  0  0  0  0  0  0  0
   36.6060   27.5440   41.7710 C   0  0  0  0  0  0  0  0  0  0  0  0
   37.6260   28.2740   41.4010 N   0  0  0  0  0  0  0  0  0  0  0  0
   38.6800   31.8810   40.8480 C   0  0  0  0  0  0  0  0  0  0  0  0
   37.4780   31.4880   41.3190 F   0  0  0  0  0  0  0  0  0  0  0  0
   38.6040   32.1170   39.4780 F   0  0  0  0  0  0  0  0  0  0  0  0
   38.8780   33.1640   41.4080 F   0  0  0  0  0  0  0  0  0  0  0  0
   41.1790   28.2810   42.3643 H   0  0  0  0  0  0  0  0  0  0  0  0
   41.2772   32.0858   38.4028 H   0  0  0  0  0  0  0  0  0  0  0  0
   42.1168   34.3484   37.7195 H   0  0  0  0  0  0  0  0  0  0  0  0
   45.0243   35.0143   41.7853 H   0  0  0  0  0  0  0  0  0  0  0  0
   43.0473   37.9043   44.2345 H   0  0  0  0  0  0  0  0  0  0  0  0
   38.8079   29.2745   44.2188 H   0  0  0  0  0  0  0  0  0  0  0  0
   36.9415   27.9421   45.0345 H   0  0  0  0  0  0  0  0  0  0  0  0
   35.9792   27.0492   41.0145 H   0  0  0  0  0  0  0  0  0  0  0  0
  1  5  1  0
  1  2  1  0
  2  3  2  0
  4  3  1  0
  4 17  1  0
  5  4  2  0
  6  1  1  0
  6 11  1  0
  7  6  2  0
  8  7  1  0
  8  9  2  0
  9 10  1  0
 10 11  2  0
 10 12  1  0
 12 13  1  0
 12 16  1  0
 13 14  2  0
 14 15  1  0
 16 15  2  0
 17 18  2  0
 18 19  1  0
 20 19  2  0
 21 20  1  0
 22 21  2  0
 22 17  1  0
 23  5  1  0
 23 24  1  0
 23 26  1  0
 25 23  1  0
  3 27  1  0
  7 28  1  0
  8 29  1  0
 13 30  1  0
 15 31  1  0
 18 32  1  0
 19 33  1  0
 21 34  1  0
M  ISO  8  27  14  28  14  29  14  30  14  31  14  32  14  33  14  34  14
M  END
>  <minimizedAffinity>  (1) 
-5.90379381

>  <minimizedRMSD>  (1) 
2.93988919

$$$$
