
     RDKit          3D

 37 40  0  0  0  0  0  0  0  0999 V2000
   41.4120   31.5130   40.8200 N   0  0  0  0  0  0  0  0  0  0  0  0
   41.4020   30.4360   41.5540 N   0  0  0  0  0  0  0  0  0  0  0  0
   40.2300   29.7840   41.4640 C   0  0  0  0  0  0  0  0  0  0  0  0
   39.4400   30.5050   40.6030 C   0  0  0  0  0  0  0  0  0  0  0  0
   40.2090   31.5880   40.2130 C   0  0  0  0  0  0  0  0  0  0  0  0
   42.3870   32.5320   40.5670 C   0  0  0  0  0  0  0  0  0  0  0  0
   43.1740   32.6440   39.4340 C   0  0  0  0  0  0  0  0  0  0  0  0
   44.0700   33.6890   39.3440 C   0  0  0  0  0  0  0  0  0  0  0  0
   44.1220   34.5520   40.3850 N   0  0  0  0  0  0  0  0  0  0  0  0
   43.3530   34.4390   41.4840 C   0  0  0  0  0  0  0  0  0  0  0  0
   42.4710   33.4190   41.5860 N   0  0  0  0  0  0  0  0  0  0  0  0
   43.4970   35.4090   42.5140 N   0  0  0  0  0  0  0  0  0  0  0  0
   44.4720   35.2510   43.4200 C   0  0  0  0  0  0  0  0  0  0  0  0
   44.4430   36.2720   44.3110 N   0  0  0  0  0  0  0  0  0  0  0  0
   43.4100   37.0780   43.9280 C   0  0  0  0  0  0  0  0  0  0  0  0
   42.8520   36.5270   42.8320 N   0  0  0  0  0  0  0  0  0  0  0  0
   38.1100   30.1400   40.2430 N   0  0  0  0  0  0  0  0  0  0  0  0
   37.1750   30.5030   41.1410 C   0  0  0  0  0  0  0  0  0  0  0  0
   35.8600   30.1820   40.8640 C   0  0  0  0  0  0  0  0  0  0  0  0
   35.6200   29.5150   39.6810 C   0  0  0  0  0  0  0  0  0  0  0  0
   34.3030   29.1380   39.2980 N   0  0  0  0  0  0  0  0  0  0  0  0
   36.5900   29.1590   38.7880 N   0  0  0  0  0  0  0  0  0  0  0  0
   37.8800   29.4880   39.0880 C   0  0  0  0  0  0  0  0  0  0  0  0
   38.8470   29.2070   38.3340 O   0  0  0  0  0  0  0  0  0  0  0  0
   39.6780   32.6170   39.2610 C   0  0  0  0  0  0  0  0  0  0  0  0
   38.3160   32.6770   39.2050 F   0  0  0  0  0  0  0  0  0  0  0  0
   40.2030   32.4640   37.9940 F   0  0  0  0  0  0  0  0  0  0  0  0
   40.0970   33.8850   39.7040 F   0  0  0  0  0  0  0  0  0  0  0  0
   39.9565   28.8522   41.9807 H   0  0  0  0  0  0  0  0  0  0  0  0
   43.0864   31.9113   38.6182 H   0  0  0  0  0  0  0  0  0  0  0  0
   44.7156   33.8155   38.4624 H   0  0  0  0  0  0  0  0  0  0  0  0
   45.1890   34.4169   43.4378 H   0  0  0  0  0  0  0  0  0  0  0  0
   43.0914   38.0071   44.4233 H   0  0  0  0  0  0  0  0  0  0  0  0
   37.4484   31.0366   42.0632 H   0  0  0  0  0  0  0  0  0  0  0  0
   35.0443   30.4456   41.5534 H   0  0  0  0  0  0  0  0  0  0  0  0
   34.1476   28.6404   38.4097 H   0  0  0  0  0  0  0  0  0  0  0  0
   33.5048   29.3626   39.9090 H   0  0  0  0  0  0  0  0  0  0  0  0
  1  2  1  0
  3  2  2  0
  4  3  1  0
  5  4  2  0
  5  1  1  0
  6  1  1  0
  6 11  1  0
  7  6  2  0
  8  7  1  0
  8  9  2  0
  9 10  1  0
 10 11  2  0
 10 12  1  0
 12 16  1  0
 12 13  1  0
 13 14  2  0
 15 14  1  0
 16 15  2  0
 17  4  1  0
 17 18  1  0
 19 18  2  0
 20 19  1  0
 21 20  1  0
 22 23  1  0
 22 20  2  0
 23 17  1  0
 24 23  2  0
 25 28  1  0
 25  5  1  0
 26 25  1  0
 27 25  1  0
  3 29  1  0
  7 30  1  0
  8 31  1  0
 13 32  1  0
 15 33  1  0
 18 34  1  0
 19 35  1  0
 21 36  1  0
 21 37  1  0
M  ISO  7  29  14  30  14  31  14  32  14  33  14  34  14  35  14
M  END
>  <minimizedAffinity>  (1) 
-5.86254215

>  <minimizedRMSD>  (1) 
3.90362787

$$$$
