
     RDKit          3D

 28 30  0  0  0  0  0  0  0  0999 V2000
   39.4800   31.0940   39.7340 C   0  0  0  0  0  0  0  0  0  0  0  0
   39.5170   30.4130   38.5190 C   0  0  0  0  0  0  0  0  0  0  0  0
   39.1250   29.0900   38.4920 C   0  0  0  0  0  0  0  0  0  0  0  0
   38.7260   28.5330   39.6550 N   0  0  0  0  0  0  0  0  0  0  0  0
   38.6950   29.1970   40.8190 C   0  0  0  0  0  0  0  0  0  0  0  0
   39.0760   30.4950   40.8650 N   0  0  0  0  0  0  0  0  0  0  0  0
   38.2560   28.5060   41.9880 N   0  0  0  0  0  0  0  0  0  0  0  0
   36.9240   28.4290   42.2150 C   0  0  0  0  0  0  0  0  0  0  0  0
   36.7150   27.7320   43.3800 N   0  0  0  0  0  0  0  0  0  0  0  0
   37.9570   27.3930   43.8460 C   0  0  0  0  0  0  0  0  0  0  0  0
   38.8720   27.8750   42.9830 N   0  0  0  0  0  0  0  0  0  0  0  0
   39.8530   32.4650   39.9320 N   0  0  0  0  0  0  0  0  0  0  0  0
   40.9590   33.0790   40.2230 N   0  0  0  0  0  0  0  0  0  0  0  0
   40.8190   34.4000   40.3060 C   0  0  0  0  0  0  0  0  0  0  0  0
   39.4970   34.6500   40.0430 C   0  0  0  0  0  0  0  0  0  0  0  0
   38.9000   33.4380   39.8100 C   0  0  0  0  0  0  0  0  0  0  0  0
   37.4540   33.3030   39.4860 C   0  0  0  0  0  0  0  0  0  0  0  0
   36.8100   34.4840   39.3180 F   0  0  0  0  0  0  0  0  0  0  0  0
   36.7890   32.5110   40.4010 F   0  0  0  0  0  0  0  0  0  0  0  0
   37.3260   32.6440   38.2470 F   0  0  0  0  0  0  0  0  0  0  0  0
   39.0120   36.0110   40.0550 C   0  0  0  0  0  0  0  0  0  0  0  0
   39.3980   37.1920   39.9750 O   0  0  0  0  0  0  0  0  0  0  0  0
   39.8514   30.9189   37.6012 H   0  0  0  0  0  0  0  0  0  0  0  0
   39.1373   28.5107   37.5570 H   0  0  0  0  0  0  0  0  0  0  0  0
   36.1387   28.8542   41.5728 H   0  0  0  0  0  0  0  0  0  0  0  0
   38.1702   26.8263   44.7643 H   0  0  0  0  0  0  0  0  0  0  0  0
   41.6014   35.1378   40.5375 H   0  0  0  0  0  0  0  0  0  0  0  0
   37.9189   35.9998   40.1778 H   0  0  0  0  0  0  0  0  0  0  0  0
  1 12  1  0
  1  6  1  0
  2  1  2  0
  3  2  1  0
  3  4  2  0
  4  5  1  0
  5  6  2  0
  5  7  1  0
  7  8  1  0
  7 11  1  0
  8  9  2  0
  9 10  1  0
 11 10  2  0
 12 13  1  0
 13 14  2  0
 15 21  1  0
 15 14  1  0
 16 12  1  0
 16 15  2  0
 17 16  1  0
 17 19  1  0
 18 17  1  0
 20 17  1  0
 22 21  2  0
  2 23  1  0
  3 24  1  0
  8 25  1  0
 10 26  1  0
 14 27  1  0
 21 28  1  0
M  ISO  6  23  14  24  14  25  14  26  14  27  14  28   6
M  END
>  <minimizedAffinity>  (1) 
-5.76950932

>  <minimizedRMSD>  (1) 
6.03022146

$$$$
