
     RDKit          3D

 27 29  0  0  0  0  0  0  0  0999 V2000
   39.5970   31.3640   40.3030 C   0  0  0  0  0  0  0  0  0  0  0  0
   40.1130   30.9330   39.0780 C   0  0  0  0  0  0  0  0  0  0  0  0
   40.5850   31.8790   38.1950 C   0  0  0  0  0  0  0  0  0  0  0  0
   40.5220   33.1670   38.5620 N   0  0  0  0  0  0  0  0  0  0  0  0
   40.0270   33.5880   39.7380 C   0  0  0  0  0  0  0  0  0  0  0  0
   39.5560   32.6730   40.6260 N   0  0  0  0  0  0  0  0  0  0  0  0
   40.0070   34.9790   40.0280 N   0  0  0  0  0  0  0  0  0  0  0  0
   41.1190   35.5500   40.5250 C   0  0  0  0  0  0  0  0  0  0  0  0
   40.9020   36.8710   40.7330 N   0  0  0  0  0  0  0  0  0  0  0  0
   39.6120   37.1040   40.3480 C   0  0  0  0  0  0  0  0  0  0  0  0
   39.0840   35.9320   39.9200 N   0  0  0  0  0  0  0  0  0  0  0  0
   39.0690   30.5230   41.3290 N   0  0  0  0  0  0  0  0  0  0  0  0
   39.5710   29.9950   42.4060 N   0  0  0  0  0  0  0  0  0  0  0  0
   38.6670   29.2640   43.0700 C   0  0  0  0  0  0  0  0  0  0  0  0
   37.4820   29.3330   42.3500 C   0  0  0  0  0  0  0  0  0  0  0  0
   37.7730   30.1330   41.2630 C   0  0  0  0  0  0  0  0  0  0  0  0
   36.7460   30.4520   40.2400 C   0  0  0  0  0  0  0  0  0  0  0  0
   35.4750   30.0730   40.5730 F   0  0  0  0  0  0  0  0  0  0  0  0
   37.0760   29.9680   38.9930 F   0  0  0  0  0  0  0  0  0  0  0  0
   36.6750   31.8470   40.0850 F   0  0  0  0  0  0  0  0  0  0  0  0
   36.2920   28.7060   42.7050 O   0  0  0  0  0  0  0  0  0  0  0  0
   40.1416   29.8630   38.8247 H   0  0  0  0  0  0  0  0  0  0  0  0
   41.0006   31.5869   37.2193 H   0  0  0  0  0  0  0  0  0  0  0  0
   42.0625   35.0235   40.7315 H   0  0  0  0  0  0  0  0  0  0  0  0
   39.0930   38.0733   40.3799 H   0  0  0  0  0  0  0  0  0  0  0  0
   38.8319   28.7133   44.0079 H   0  0  0  0  0  0  0  0  0  0  0  0
   35.4898   28.8069   42.1337 H   0  0  0  0  0  0  0  0  0  0  0  0
  1  6  1  0
  1 12  1  0
  2  1  2  0
  3  4  2  0
  3  2  1  0
  4  5  1  0
  5  7  1  0
  5  6  2  0
  7  8  1  0
  8  9  2  0
 10  9  1  0
 11  7  1  0
 11 10  2  0
 12 13  1  0
 13 14  2  0
 15 21  1  0
 15 14  1  0
 16 12  1  0
 16 15  2  0
 17 18  1  0
 17 16  1  0
 19 17  1  0
 20 17  1  0
  2 22  1  0
  3 23  1  0
  8 24  1  0
 10 25  1  0
 14 26  1  0
 21 27  1  0
M  ISO  6  22  14  23  14  24  14  25  14  26  14  27   3
M  END
>  <minimizedAffinity>  (1) 
-5.72305536

>  <minimizedRMSD>  (1) 
0.235962033

$$$$
