
     RDKit          3D

 40 43  0  0  0  0  0  0  0  0999 V2000
   41.7510   30.9210   41.6850 N   0  0  0  0  0  0  0  0  0  0  0  0
   42.1760   29.9190   42.3990 N   0  0  0  0  0  0  0  0  0  0  0  0
   41.1740   29.0790   42.7370 C   0  0  0  0  0  0  0  0  0  0  0  0
   40.0160   29.6100   42.1800 C   0  0  0  0  0  0  0  0  0  0  0  0
   40.4150   30.7560   41.5340 C   0  0  0  0  0  0  0  0  0  0  0  0
   42.3830   32.0530   41.0920 C   0  0  0  0  0  0  0  0  0  0  0  0
   42.7920   32.1510   39.7560 C   0  0  0  0  0  0  0  0  0  0  0  0
   43.3900   33.3180   39.3340 C   0  0  0  0  0  0  0  0  0  0  0  0
   43.5460   34.3020   40.2440 N   0  0  0  0  0  0  0  0  0  0  0  0
   43.1540   34.2040   41.5230 C   0  0  0  0  0  0  0  0  0  0  0  0
   42.5600   33.0610   41.9590 N   0  0  0  0  0  0  0  0  0  0  0  0
   43.3710   35.3110   42.3950 N   0  0  0  0  0  0  0  0  0  0  0  0
   44.5770   35.4370   42.9740 C   0  0  0  0  0  0  0  0  0  0  0  0
   44.5820   36.5510   43.7640 N   0  0  0  0  0  0  0  0  0  0  0  0
   43.3400   37.1010   43.6510 C   0  0  0  0  0  0  0  0  0  0  0  0
   42.6240   36.3220   42.8080 N   0  0  0  0  0  0  0  0  0  0  0  0
   38.7970   28.9090   42.3790 N   0  0  0  0  0  0  0  0  0  0  0  0
   37.8120   29.1380   43.4230 C   0  0  0  0  0  0  0  0  0  0  0  0
   37.2380   27.8830   43.9950 C   0  0  0  0  0  0  0  0  0  0  0  0
   36.7130   26.9960   42.9570 N   0  0  0  0  0  0  0  0  0  0  0  0
   37.8850   26.6200   42.1680 C   0  0  0  0  0  0  0  0  0  0  0  0
   38.4310   27.8350   41.4730 C   0  0  0  0  0  0  0  0  0  0  0  0
   39.4280   31.5990   40.8160 C   0  0  0  0  0  0  0  0  0  0  0  0
   38.1240   31.3640   41.1240 F   0  0  0  0  0  0  0  0  0  0  0  0
   39.6210   31.5900   39.4380 F   0  0  0  0  0  0  0  0  0  0  0  0
   39.6330   32.9500   41.1830 F   0  0  0  0  0  0  0  0  0  0  0  0
   41.2573   28.1587   43.3337 H   0  0  0  0  0  0  0  0  0  0  0  0
   42.6390   31.3141   39.0587 H   0  0  0  0  0  0  0  0  0  0  0  0
   43.7276   33.4430   38.2946 H   0  0  0  0  0  0  0  0  0  0  0  0
   45.4258   34.7515   42.8339 H   0  0  0  0  0  0  0  0  0  0  0  0
   42.9845   38.0125   44.1538 H   0  0  0  0  0  0  0  0  0  0  0  0
   38.2928   29.7017   44.2361 H   0  0  0  0  0  0  0  0  0  0  0  0
   36.9797   29.6908   42.9630 H   0  0  0  0  0  0  0  0  0  0  0  0
   38.0263   27.3528   44.5495 H   0  0  0  0  0  0  0  0  0  0  0  0
   36.4043   28.1620   44.6562 H   0  0  0  0  0  0  0  0  0  0  0  0
   36.2748   26.1638   43.3770 H   0  0  0  0  0  0  0  0  0  0  0  0
   38.6550   26.2003   42.8321 H   0  0  0  0  0  0  0  0  0  0  0  0
   37.5971   25.8674   41.4192 H   0  0  0  0  0  0  0  0  0  0  0  0
   39.3258   27.5384   40.9062 H   0  0  0  0  0  0  0  0  0  0  0  0
   37.6318   28.2204   40.8228 H   0  0  0  0  0  0  0  0  0  0  0  0
  1  2  1  0
  2  3  2  0
  4 17  1  0
  4  3  1  0
  5  1  1  0
  5  4  2  0
  6  1  1  0
  6 11  1  0
  7  6  2  0
  8  7  1  0
  8  9  2  0
  9 10  1  0
 10 11  2  0
 10 12  1  0
 12 16  1  0
 12 13  1  0
 13 14  2  0
 15 14  1  0
 16 15  2  0
 17 18  1  0
 18 19  1  0
 20 19  1  0
 21 20  1  0
 22 21  1  0
 22 17  1  0
 23 24  1  0
 23 26  1  0
 23  5  1  0
 25 23  1  0
  3 27  1  0
  7 28  1  0
  8 29  1  0
 13 30  1  0
 15 31  1  0
 18 32  1  0
 18 33  1  0
 19 34  1  0
 19 35  1  0
 20 36  1  0
 21 37  1  0
 21 38  1  0
 22 39  1  0
 22 40  1  0
M  ISO  8  27  14  28  14  29  14  30  14  31  14  32  13  33  13  34  13
M  ISO  6  35  13  36   5  37  13  38  13  39  13  40  13
M  END
>  <minimizedAffinity>  (1) 
-5.670012

>  <minimizedRMSD>  (1) 
3.41839933

$$$$
