
     RDKit          3D

 36 39  0  0  0  0  0  0  0  0999 V2000
   40.7980   30.6180   40.8660 N   0  0  0  0  0  0  0  0  0  0  0  0
   41.4000   30.2650   41.9580 N   0  0  0  0  0  0  0  0  0  0  0  0
   40.7880   29.2410   42.5650 C   0  0  0  0  0  0  0  0  0  0  0  0
   39.7010   28.9170   41.7850 C   0  0  0  0  0  0  0  0  0  0  0  0
   39.7360   29.8020   40.7240 C   0  0  0  0  0  0  0  0  0  0  0  0
   41.0460   31.6320   39.8770 C   0  0  0  0  0  0  0  0  0  0  0  0
   41.6160   31.4370   38.6300 C   0  0  0  0  0  0  0  0  0  0  0  0
   41.7810   32.5230   37.8070 C   0  0  0  0  0  0  0  0  0  0  0  0
   41.3780   33.7300   38.2570 N   0  0  0  0  0  0  0  0  0  0  0  0
   40.8270   33.9150   39.4640 C   0  0  0  0  0  0  0  0  0  0  0  0
   40.6520   32.8670   40.2950 N   0  0  0  0  0  0  0  0  0  0  0  0
   40.4330   35.2340   39.8450 N   0  0  0  0  0  0  0  0  0  0  0  0
   41.3600   36.0620   40.3560 C   0  0  0  0  0  0  0  0  0  0  0  0
   40.7900   37.2640   40.6540 N   0  0  0  0  0  0  0  0  0  0  0  0
   39.4700   37.1450   40.3060 C   0  0  0  0  0  0  0  0  0  0  0  0
   39.2760   35.9100   39.8180 N   0  0  0  0  0  0  0  0  0  0  0  0
   38.7470   27.8710   42.0460 N   0  0  0  0  0  0  0  0  0  0  0  0
   37.6260   27.9020   42.7820 C   0  0  0  0  0  0  0  0  0  0  0  0
   36.8730   26.7540   42.8780 C   0  0  0  0  0  0  0  0  0  0  0  0
   37.2580   25.5980   42.2360 C   0  0  0  0  0  0  0  0  0  0  0  0
   36.5390   24.5670   42.3510 O   0  0  0  0  0  0  0  0  0  0  0  0
   38.3980   25.6010   41.5000 N   0  0  0  0  0  0  0  0  0  0  0  0
   39.1190   26.7350   41.4200 C   0  0  0  0  0  0  0  0  0  0  0  0
   40.1500   26.5670   40.6950 O   0  0  0  0  0  0  0  0  0  0  0  0
   38.7030   29.7660   39.6460 C   0  0  0  0  0  0  0  0  0  0  0  0
   37.5020   29.2450   40.0350 F   0  0  0  0  0  0  0  0  0  0  0  0
   39.1590   29.1170   38.5070 F   0  0  0  0  0  0  0  0  0  0  0  0
   38.4200   31.0810   39.2350 F   0  0  0  0  0  0  0  0  0  0  0  0
   41.0936   28.7541   43.5028 H   0  0  0  0  0  0  0  0  0  0  0  0
   41.9297   30.4336   38.3061 H   0  0  0  0  0  0  0  0  0  0  0  0
   42.2292   32.4127   36.8085 H   0  0  0  0  0  0  0  0  0  0  0  0
   42.4191   35.8081   40.5105 H   0  0  0  0  0  0  0  0  0  0  0  0
   38.7025   37.9263   40.4088 H   0  0  0  0  0  0  0  0  0  0  0  0
   37.3158   28.8233   43.2967 H   0  0  0  0  0  0  0  0  0  0  0  0
   35.9500   26.7598   43.4764 H   0  0  0  0  0  0  0  0  0  0  0  0
   38.7068   24.7491   41.0103 H   0  0  0  0  0  0  0  0  0  0  0  0
  1  2  1  0
  2  3  2  0
  4 17  1  0
  4  3  1  0
  5  1  1  0
  5  4  2  0
  6 11  1  0
  6  1  1  0
  7  6  2  0
  8  9  2  0
  8  7  1  0
  9 10  1  0
 10 12  1  0
 10 11  2  0
 12 13  1  0
 13 14  2  0
 15 14  1  0
 16 12  1  0
 16 15  2  0
 17 18  1  0
 18 19  2  0
 20 21  2  0
 20 19  1  0
 22 20  1  0
 23 22  1  0
 23 17  1  0
 24 23  2  0
 25 26  1  0
 25  5  1  0
 27 25  1  0
 28 25  1  0
  3 29  1  0
  7 30  1  0
  8 31  1  0
 13 32  1  0
 15 33  1  0
 18 34  1  0
 19 35  1  0
 22 36  1  0
M  ISO  8  29  14  30  14  31  14  32  14  33  14  34  14  35  14  36   9
M  END
>  <minimizedAffinity>  (1) 
-5.63156557

>  <minimizedRMSD>  (1) 
2.66116571

$$$$
