
     RDKit          3D

 28 29  0  0  1  0  0  0  0  0999 V2000
   36.1880   27.7070   39.1740 C   0  0  0  0  0  0  0  0  0  0  0  0
   35.5870   27.2900   37.9780 C   0  0  0  0  0  0  0  0  0  0  0  0
   35.6050   25.9250   38.0510 C   0  0  0  0  0  0  0  0  0  0  0  0
   36.1830   25.5280   39.2210 N   0  0  0  0  0  0  0  0  0  0  0  0
   36.5310   26.6230   39.8910 N   0  0  0  0  0  0  0  0  0  0  0  0
   36.1080   29.6070   40.8020 C   0  0  0  0  0  0  0  0  0  0  0  0
   36.3740   29.0900   39.5350 C   0  0  0  0  0  0  0  0  0  0  0  0
   36.8390   29.9670   38.5800 C   0  0  0  0  0  0  0  0  0  0  0  0
   37.0280   31.2890   38.8770 N   0  0  0  0  0  0  0  0  0  0  0  0
   36.7410   31.7330   40.1600 C   0  0  0  0  0  0  0  0  0  0  0  0
   36.2760   30.8770   41.1320 N   0  0  0  0  0  0  0  0  0  0  0  0
   36.2970   24.1180   39.5580 C   0  0  1  0  0  0  0  0  0  0  0  0
   36.7600   23.9540   40.8980 N   0  0  0  0  0  0  0  0  0  0  0  0
   38.1060   23.7480   41.2590 C   0  0  0  0  0  0  0  0  0  0  0  0
   38.9410   23.5500   40.3120 N   0  0  0  0  0  0  0  0  0  0  0  0
   38.5090   23.7370   42.6060 N   0  0  0  0  0  0  0  0  0  0  0  0
   39.9450   23.3620   40.5130 H   0  0  0  0  0  0  0  0  0  0  0  0
   35.0030   23.5400   39.4080 O   0  0  0  0  0  0  0  0  0  0  0  0
   35.1913   27.9179   37.1661 H   0  0  0  0  0  0  0  0  0  0  0  0
   35.2113   25.2467   37.2797 H   0  0  0  0  0  0  0  0  0  0  0  0
   35.7360   28.9173   41.5739 H   0  0  0  0  0  0  0  0  0  0  0  0
   37.0609   29.6002   37.5670 H   0  0  0  0  0  0  0  0  0  0  0  0
   36.8888   32.7949   40.4060 H   0  0  0  0  0  0  0  0  0  0  0  0
   37.0244   23.6245   38.8966 H   0  0  0  0  0  0  0  0  0  0  0  0
   36.0612   23.9887   41.6539 H   0  0  0  0  0  0  0  0  0  0  0  0
   39.4989   23.5845   42.8462 H   0  0  0  0  0  0  0  0  0  0  0  0
   37.8143   23.8815   43.3526 H   0  0  0  0  0  0  0  0  0  0  0  0
   34.6137   23.3661   40.3015 H   0  0  0  0  0  0  0  0  0  0  0  0
  1  7  1  0
  1  5  2  0
  2  3  2  0
  2  1  1  0
  3  4  1  0
  4 12  1  0
  4  5  1  0
  6 11  2  0
  7  6  1  0
  8  9  1  0
  8  7  2  0
  9 10  2  0
 10 11  1  0
 12 13  1  0
 13 14  1  0
 14 16  1  0
 15 17  1  0
 15 14  2  0
 18 12  1  0
  2 19  1  0
  3 20  1  0
  6 21  1  0
  8 22  1  0
 10 23  1  0
 12 24  1  6
 13 25  1  0
 16 26  1  0
 16 27  1  0
 18 28  1  0
M  ISO  7  19  14  20  14  21  14  22  14  23  14  24   8  28   3
M  END
>  <minimizedAffinity>  (1) 
-3.88551164

>  <minimizedRMSD>  (1) 
0.0819647014

$$$$
