
     RDKit          3D

 32 35  0  0  0  0  0  0  0  0999 V2000
   41.8920   30.7020   41.7310 N   0  0  0  0  0  0  0  0  0  0  0  0
   42.3460   29.7830   42.5430 N   0  0  0  0  0  0  0  0  0  0  0  0
   41.3800   28.9160   42.8730 C   0  0  0  0  0  0  0  0  0  0  0  0
   40.2150   29.3160   42.2200 C   0  0  0  0  0  0  0  0  0  0  0  0
   40.5810   30.4370   41.5170 C   0  0  0  0  0  0  0  0  0  0  0  0
   42.5040   31.8270   41.1000 C   0  0  0  0  0  0  0  0  0  0  0  0
   43.0400   31.8440   39.8060 C   0  0  0  0  0  0  0  0  0  0  0  0
   43.5990   33.0070   39.3320 C   0  0  0  0  0  0  0  0  0  0  0  0
   43.5960   34.0800   40.1590 N   0  0  0  0  0  0  0  0  0  0  0  0
   43.0800   34.0570   41.3960 C   0  0  0  0  0  0  0  0  0  0  0  0
   42.5250   32.9190   41.8800 N   0  0  0  0  0  0  0  0  0  0  0  0
   43.1320   35.2450   42.1840 N   0  0  0  0  0  0  0  0  0  0  0  0
   44.2540   35.5230   42.8700 C   0  0  0  0  0  0  0  0  0  0  0  0
   44.0980   36.6930   43.5510 N   0  0  0  0  0  0  0  0  0  0  0  0
   42.8430   37.1300   43.2660 C   0  0  0  0  0  0  0  0  0  0  0  0
   42.2750   36.2360   42.4340 N   0  0  0  0  0  0  0  0  0  0  0  0
   38.9610   28.5480   42.3820 C   0  0  0  0  0  0  0  0  0  0  0  0
   38.0980   28.8080   43.4390 C   0  0  0  0  0  0  0  0  0  0  0  0
   36.7380   27.6240   43.1950 S   0  0  0  0  0  0  0  0  0  0  0  0
   37.5530   26.9200   41.6470 C   0  0  0  0  0  0  0  0  0  0  0  0
   38.4200   27.5940   41.7060 N   0  0  0  0  0  0  0  0  0  0  0  0
   39.6140   31.1770   40.6740 C   0  0  0  0  0  0  0  0  0  0  0  0
   39.6340   32.5240   40.8160 F   0  0  0  0  0  0  0  0  0  0  0  0
   38.3140   30.7030   40.8250 F   0  0  0  0  0  0  0  0  0  0  0  0
   39.9160   30.9620   39.3090 F   0  0  0  0  0  0  0  0  0  0  0  0
   41.4864   28.0465   43.5383 H   0  0  0  0  0  0  0  0  0  0  0  0
   43.0140   30.9407   39.1788 H   0  0  0  0  0  0  0  0  0  0  0  0
   44.0312   33.0641   38.3221 H   0  0  0  0  0  0  0  0  0  0  0  0
   45.1608   34.9004   42.8801 H   0  0  0  0  0  0  0  0  0  0  0  0
   42.3748   38.0496   43.6468 H   0  0  0  0  0  0  0  0  0  0  0  0
   38.2106   29.5558   44.2378 H   0  0  0  0  0  0  0  0  0  0  0  0
   37.2660   26.1255   40.9424 H   0  0  0  0  0  0  0  0  0  0  0  0
  1  2  1  0
  2  3  2  0
  4 17  1  0
  4  3  1  0
  5  1  1  0
  5  4  2  0
  6  1  1  0
  6 11  1  0
  7  6  2  0
  8  7  1  0
  8  9  2  0
  9 10  1  0
 10 11  2  0
 10 12  1  0
 12 16  1  0
 12 13  1  0
 13 14  2  0
 15 14  1  0
 16 15  2  0
 17 18  2  0
 19 18  1  0
 20 21  2  0
 20 19  1  0
 21 17  1  0
 22 23  1  0
 22 24  1  0
 22  5  1  0
 25 22  1  0
  3 26  1  0
  7 27  1  0
  8 28  1  0
 13 29  1  0
 15 30  1  0
 18 31  1  0
 20 32  1  0
M  ISO  7  26  14  27  14  28  14  29  14  30  14  31  14  32  14
M  END
>  <minimizedAffinity>  (1) 
-5.26062059

>  <minimizedRMSD>  (1) 
3.47516632

$$$$
