
     RDKit          3D

 29 30  0  0  1  0  0  0  0  0999 V2000
   36.2310   27.7090   39.2050 C   0  0  0  0  0  0  0  0  0  0  0  0
   35.7880   27.2810   37.9550 C   0  0  0  0  0  0  0  0  0  0  0  0
   35.7640   25.9130   38.0800 C   0  0  0  0  0  0  0  0  0  0  0  0
   36.1640   25.5200   39.3180 N   0  0  0  0  0  0  0  0  0  0  0  0
   36.4450   26.6350   39.9900 N   0  0  0  0  0  0  0  0  0  0  0  0
   36.1540   29.6360   40.8210 C   0  0  0  0  0  0  0  0  0  0  0  0
   36.4150   29.0990   39.5630 C   0  0  0  0  0  0  0  0  0  0  0  0
   36.8800   29.9730   38.5950 C   0  0  0  0  0  0  0  0  0  0  0  0
   37.0560   31.2920   38.9130 N   0  0  0  0  0  0  0  0  0  0  0  0
   36.7830   31.7610   40.1650 C   0  0  0  0  0  0  0  0  0  0  0  0
   36.3210   30.9040   41.1370 N   0  0  0  0  0  0  0  0  0  0  0  0
   36.1990   24.1530   39.7080 C   0  0  2  0  0  0  0  0  0  0  0  0
   36.7420   23.9860   41.0240 N   0  0  0  0  0  0  0  0  0  0  0  0
   38.1350   23.9080   41.2860 C   0  0  0  0  0  0  0  0  0  0  0  0
   38.9340   23.8300   40.2860 N   0  0  0  0  0  0  0  0  0  0  0  0
   38.6180   23.9050   42.6070 N   0  0  0  0  0  0  0  0  0  0  0  0
   39.9610   23.7550   40.4270 H   0  0  0  0  0  0  0  0  0  0  0  0
   36.5870   23.1860   38.7380 N   0  0  0  0  0  0  0  0  0  0  0  0
   35.5217   27.8913   37.0794 H   0  0  0  0  0  0  0  0  0  0  0  0
   35.4595   25.2230   37.2793 H   0  0  0  0  0  0  0  0  0  0  0  0
   35.7838   28.9564   41.6027 H   0  0  0  0  0  0  0  0  0  0  0  0
   37.1055   29.6107   37.5811 H   0  0  0  0  0  0  0  0  0  0  0  0
   36.9325   32.8257   40.3974 H   0  0  0  0  0  0  0  0  0  0  0  0
   35.1373   23.8726   39.7716 H   0  0  0  0  0  0  0  0  0  0  0  0
   36.0896   23.9193   41.8183 H   0  0  0  0  0  0  0  0  0  0  0  0
   39.6309   23.8480   42.7849 H   0  0  0  0  0  0  0  0  0  0  0  0
   37.9588   23.9598   43.3965 H   0  0  0  0  0  0  0  0  0  0  0  0
   36.9270   22.3387   39.2148 H   0  0  0  0  0  0  0  0  0  0  0  0
   35.7769   22.9467   38.1487 H   0  0  0  0  0  0  0  0  0  0  0  0
  1  7  1  0
  1  5  2  0
  2  3  2  0
  2  1  1  0
  3  4  1  0
  4 12  1  0
  4  5  1  0
  6 11  2  0
  7  6  1  0
  8  9  1  0
  8  7  2  0
  9 10  2  0
 10 11  1  0
 12 13  1  0
 13 14  1  0
 14 16  1  0
 15 17  1  0
 15 14  2  0
 18 12  1  0
  2 19  1  0
  3 20  1  0
  6 21  1  0
  8 22  1  0
 10 23  1  0
 12 24  1  1
 13 25  1  0
 16 26  1  0
 16 27  1  0
 18 28  1  0
 18 29  1  0
M  ISO  8  19  14  20  14  21  14  22  14  23  14  24   8  28   5  29   5
M  END
>  <minimizedAffinity>  (1) 
-3.82001185

>  <minimizedRMSD>  (1) 
0.128572315

$$$$
