
     RDKit          3D

 27 29  0  0  0  0  0  0  0  0999 V2000
   36.2440   30.6280   41.0430 C   0  0  0  0  0  0  0  0  0  0  0  0
   36.5540   30.4870   39.5930 C   0  0  0  0  0  0  0  0  0  0  0  0
   37.6220   31.0570   38.9320 C   0  0  0  0  0  0  0  0  0  0  0  0
   37.5580   30.6960   37.6330 N   0  0  0  0  0  0  0  0  0  0  0  0
   36.4710   29.9160   37.4810 C   0  0  0  0  0  0  0  0  0  0  0  0
   35.9460   29.2810   36.3510 C   0  0  0  0  0  0  0  0  0  0  0  0
   34.7820   28.5120   36.4560 C   0  0  0  0  0  0  0  0  0  0  0  0
   34.1630   28.3870   37.6830 C   0  0  0  0  0  0  0  0  0  0  0  0
   34.6570   29.0010   38.8200 C   0  0  0  0  0  0  0  0  0  0  0  0
   35.8200   29.7640   38.6860 C   0  0  0  0  0  0  0  0  0  0  0  0
   38.7490   28.8220   43.1030 C   0  0  0  0  0  0  0  0  0  0  0  0
   38.1270   27.5870   43.2760 C   0  0  0  0  0  0  0  0  0  0  0  0
   36.8800   27.3680   42.7060 C   0  0  0  0  0  0  0  0  0  0  0  0
   36.3110   28.3840   41.9910 N   0  0  0  0  0  0  0  0  0  0  0  0
   36.9390   29.5690   41.8410 C   0  0  0  0  0  0  0  0  0  0  0  0
   38.1470   29.7820   42.3940 N   0  0  0  0  0  0  0  0  0  0  0  0
   35.1578   30.5357   41.1901 H   0  0  0  0  0  0  0  0  0  0  0  0
   36.5945   31.6133   41.3841 H   0  0  0  0  0  0  0  0  0  0  0  0
   38.3937   31.6962   39.3857 H   0  0  0  0  0  0  0  0  0  0  0  0
   38.2203   30.9678   36.8925 H   0  0  0  0  0  0  0  0  0  0  0  0
   36.4489   29.3863   35.3784 H   0  0  0  0  0  0  0  0  0  0  0  0
   34.3645   28.0121   35.5696 H   0  0  0  0  0  0  0  0  0  0  0  0
   33.2485   27.7804   37.7593 H   0  0  0  0  0  0  0  0  0  0  0  0
   34.1537   28.8928   39.7921 H   0  0  0  0  0  0  0  0  0  0  0  0
   39.7367   29.0071   43.5505 H   0  0  0  0  0  0  0  0  0  0  0  0
   38.6189   26.7938   43.8581 H   0  0  0  0  0  0  0  0  0  0  0  0
   36.3646   26.4037   42.8266 H   0  0  0  0  0  0  0  0  0  0  0  0
  1 15  1  0
  2  1  1  0
  3  2  2  0
  4  3  1  0
  5  4  1  0
  5 10  2  0
  6  7  2  0
  6  5  1  0
  7  8  1  0
  8  9  2  0
 10  9  1  0
 10  2  1  0
 11 12  2  0
 13 12  1  0
 14 13  2  0
 15 14  1  0
 15 16  2  0
 16 11  1  0
  1 17  1  0
  1 18  1  0
  3 19  1  0
  4 20  1  0
  6 21  1  0
  7 22  1  0
  8 23  1  0
  9 24  1  0
 11 25  1  0
 12 26  1  0
 13 27  1  0
M  ISO  8  17   8  18   8  19  14  20   9  21  14  22  14  23  14  24  14
M  ISO  3  25  14  26  14  27  14
M  END
>  <minimizedAffinity>  (1) 
-4.74341106

>  <minimizedRMSD>  (1) 
0.854786277

$$$$
