
     RDKit          3D

 29 30  0  0  0  0  0  0  0  0999 V2000
   37.7890   28.0360   43.5780 C   0  0  0  0  0  0  0  0  0  0  0  0
   37.5520   26.8720   42.8240 C   0  0  0  0  0  0  0  0  0  0  0  0
   37.0150   26.9880   41.5520 C   0  0  0  0  0  0  0  0  0  0  0  0
   36.7330   28.2290   41.0720 N   0  0  0  0  0  0  0  0  0  0  0  0
   36.9730   29.3430   41.8260 C   0  0  0  0  0  0  0  0  0  0  0  0
   37.4910   29.2220   43.0510 N   0  0  0  0  0  0  0  0  0  0  0  0
   36.6350   30.6690   41.2240 C   0  0  0  0  0  0  0  0  0  0  0  0
   37.5540   30.8710   40.0380 C   0  0  0  0  0  0  0  0  0  0  0  0
   36.9500   31.8470   39.0790 C   0  0  0  0  0  0  0  0  0  0  0  0
   37.2910   33.2720   39.3320 C   0  0  0  0  0  0  0  0  0  0  0  0
   38.6380   33.5240   39.9340 C   0  0  0  0  0  0  0  0  0  0  0  0
   38.9550   32.5750   41.0840 C   0  0  0  0  0  0  0  0  0  0  0  0
   38.9500   31.1990   40.4520 C   0  0  0  0  0  0  0  0  0  0  0  0
   38.2150   27.9672   44.5898 H   0  0  0  0  0  0  0  0  0  0  0  0
   37.7902   25.8817   43.2394 H   0  0  0  0  0  0  0  0  0  0  0  0
   36.8205   26.0935   40.9420 H   0  0  0  0  0  0  0  0  0  0  0  0
   35.5860   30.6760   40.8931 H   0  0  0  0  0  0  0  0  0  0  0  0
   36.7652   31.4760   41.9601 H   0  0  0  0  0  0  0  0  0  0  0  0
   37.6514   29.9182   39.4969 H   0  0  0  0  0  0  0  0  0  0  0  0
   35.8561   31.7438   39.1312 H   0  0  0  0  0  0  0  0  0  0  0  0
   37.3659   31.6030   38.0903 H   0  0  0  0  0  0  0  0  0  0  0  0
   37.2461   33.8052   38.3709 H   0  0  0  0  0  0  0  0  0  0  0  0
   36.5614   33.6256   40.0754 H   0  0  0  0  0  0  0  0  0  0  0  0
   39.4019   33.3977   39.1527 H   0  0  0  0  0  0  0  0  0  0  0  0
   38.6352   34.5470   40.3384 H   0  0  0  0  0  0  0  0  0  0  0  0
   39.9416   32.8016   41.5145 H   0  0  0  0  0  0  0  0  0  0  0  0
   38.2312   32.6596   41.9080 H   0  0  0  0  0  0  0  0  0  0  0  0
   39.3051   30.4552   41.1805 H   0  0  0  0  0  0  0  0  0  0  0  0
   39.6152   31.1851   39.5760 H   0  0  0  0  0  0  0  0  0  0  0  0
  2  1  2  0
  3  2  1  0
  4  3  2  0
  4  5  1  0
  5  6  2  0
  6  1  1  0
  7  5  1  0
  8 13  1  0
  8  7  1  0
  9 10  1  0
  9  8  1  0
 10 11  1  0
 11 12  1  0
 13 12  1  0
  1 14  1  0
  2 15  1  0
  3 16  1  0
  7 17  1  0
  7 18  1  0
  8 19  1  0
  9 20  1  0
  9 21  1  0
 10 22  1  0
 10 23  1  0
 11 24  1  0
 11 25  1  0
 12 26  1  0
 12 27  1  0
 13 28  1  0
 13 29  1  0
M  ISO  8  14  14  15  14  16  14  17   8  18   8  19  13  20  13  21  13
M  ISO  8  22  13  23  13  24  13  25  13  26  13  27  13  28  13  29  13
M  END
>  <minimizedAffinity>  (1) 
-4.09773588

>  <minimizedRMSD>  (1) 
2.56713605

$$$$
