
     RDKit          3D

 33 35  0  0  0  0  0  0  0  0999 V2000
   37.9550   30.3490   41.8250 N   0  0  0  0  0  0  0  0  0  0  0  0
   36.7820   30.1660   41.1870 C   0  0  0  0  0  0  0  0  0  0  0  0
   36.4640   31.1080   40.2340 C   0  0  0  0  0  0  0  0  0  0  0  0
   37.2630   32.1950   39.9090 C   0  0  0  0  0  0  0  0  0  0  0  0
   36.9400   33.0270   39.0390 O   0  0  0  0  0  0  0  0  0  0  0  0
   38.4210   32.2720   40.6190 N   0  0  0  0  0  0  0  0  0  0  0  0
   38.7650   31.3780   41.5540 C   0  0  0  0  0  0  0  0  0  0  0  0
   39.8740   31.5420   42.1630 O   0  0  0  0  0  0  0  0  0  0  0  0
   39.2600   33.3930   40.2950 C   0  0  0  0  0  0  0  0  0  0  0  0
   40.2650   33.0410   39.3870 C   0  0  0  0  0  0  0  0  0  0  0  0
   41.1620   34.0200   38.9750 C   0  0  0  0  0  0  0  0  0  0  0  0
   41.0050   35.2830   39.4860 C   0  0  0  0  0  0  0  0  0  0  0  0
   40.0220   35.6540   40.3810 C   0  0  0  0  0  0  0  0  0  0  0  0
   39.1360   34.6770   40.7880 C   0  0  0  0  0  0  0  0  0  0  0  0
   38.4120   29.4280   42.8560 C   0  0  0  0  0  0  0  0  0  0  0  0
   39.2050   26.2720   41.0660 C   0  0  0  0  0  0  0  0  0  0  0  0
   38.1920   25.4160   41.5010 C   0  0  0  0  0  0  0  0  0  0  0  0
   37.2400   25.9210   42.4070 C   0  0  0  0  0  0  0  0  0  0  0  0
   37.3500   27.2060   42.8100 N   0  0  0  0  0  0  0  0  0  0  0  0
   38.3550   28.0240   42.3660 C   0  0  0  0  0  0  0  0  0  0  0  0
   39.2370   27.5290   41.5180 N   0  0  0  0  0  0  0  0  0  0  0  0
   36.1199   29.3172   41.4133 H   0  0  0  0  0  0  0  0  0  0  0  0
   35.5127   30.9909   39.6942 H   0  0  0  0  0  0  0  0  0  0  0  0
   40.3436   32.0116   39.0073 H   0  0  0  0  0  0  0  0  0  0  0  0
   41.9693   33.7897   38.2642 H   0  0  0  0  0  0  0  0  0  0  0  0
   41.7146   36.0571   39.1585 H   0  0  0  0  0  0  0  0  0  0  0  0
   39.9477   36.6859   40.7546 H   0  0  0  0  0  0  0  0  0  0  0  0
   38.3350   34.9200   41.5016 H   0  0  0  0  0  0  0  0  0  0  0  0
   39.4492   29.6745   43.1272 H   0  0  0  0  0  0  0  0  0  0  0  0
   37.7563   29.5244   43.7339 H   0  0  0  0  0  0  0  0  0  0  0  0
   39.9686   25.9157   40.3589 H   0  0  0  0  0  0  0  0  0  0  0  0
   38.1390   24.3762   41.1460 H   0  0  0  0  0  0  0  0  0  0  0  0
   36.4244   25.2833   42.7787 H   0  0  0  0  0  0  0  0  0  0  0  0
  1 15  1  0
  2  1  1  0
  3  2  2  0
  4  3  1  0
  4  6  1  0
  5  4  2  0
  6  7  1  0
  7  1  1  0
  7  8  2  0
  9  6  1  0
  9 14  1  0
 10  9  2  0
 11 10  1  0
 11 12  2  0
 12 13  1  0
 13 14  2  0
 16 17  2  0
 16 21  1  0
 17 18  1  0
 18 19  2  0
 20 19  1  0
 20 15  1  0
 21 20  2  0
  2 22  1  0
  3 23  1  0
 10 24  1  0
 11 25  1  0
 12 26  1  0
 13 27  1  0
 14 28  1  0
 15 29  1  0
 15 30  1  0
 16 31  1  0
 17 32  1  0
 18 33  1  0
M  ISO  8  22  14  23  14  24  14  25  14  26  14  27  14  28  14  29   8
M  ISO  4  30   8  31  14  32  14  33  14
M  END
>  <minimizedAffinity>  (1) 
-5.57075071

>  <minimizedRMSD>  (1) 
2.4758513

$$$$
