
     RDKit          3D

 30 32  0  0  0  0  0  0  0  0999 V2000
   36.9020   28.8730   42.0750 N   0  0  0  0  0  0  0  0  0  0  0  0
   35.9160   28.6980   41.1610 C   0  0  0  0  0  0  0  0  0  0  0  0
   35.8500   29.6470   40.1630 C   0  0  0  0  0  0  0  0  0  0  0  0
   36.7040   30.7150   40.0590 C   0  0  0  0  0  0  0  0  0  0  0  0
   36.6160   31.5620   39.1370 O   0  0  0  0  0  0  0  0  0  0  0  0
   37.6640   30.8040   41.0280 N   0  0  0  0  0  0  0  0  0  0  0  0
   37.7520   29.8950   42.0120 C   0  0  0  0  0  0  0  0  0  0  0  0
   38.6750   30.0490   42.8770 O   0  0  0  0  0  0  0  0  0  0  0  0
   40.5090   32.8350   41.2170 N   0  0  0  0  0  0  0  0  0  0  0  0
   39.8010   31.7390   41.3780 N   0  0  0  0  0  0  0  0  0  0  0  0
   38.5490   31.9120   40.9200 C   0  0  0  0  0  0  0  0  0  0  0  0
   38.4580   33.1900   40.4420 C   0  0  0  0  0  0  0  0  0  0  0  0
   39.7100   33.7620   40.6380 C   0  0  0  0  0  0  0  0  0  0  0  0
   37.0730   27.9370   43.1780 C   0  0  0  0  0  0  0  0  0  0  0  0
   39.5510   25.4110   42.0420 C   0  0  0  0  0  0  0  0  0  0  0  0
   38.7380   24.3050   41.7990 C   0  0  0  0  0  0  0  0  0  0  0  0
   37.3710   24.4120   42.0160 C   0  0  0  0  0  0  0  0  0  0  0  0
   36.9050   25.5950   42.4560 N   0  0  0  0  0  0  0  0  0  0  0  0
   37.6990   26.6660   42.6900 C   0  0  0  0  0  0  0  0  0  0  0  0
   38.9950   26.5350   42.4750 N   0  0  0  0  0  0  0  0  0  0  0  0
   35.2136   27.8530   41.2124 H   0  0  0  0  0  0  0  0  0  0  0  0
   35.0627   29.5408   39.4022 H   0  0  0  0  0  0  0  0  0  0  0  0
   41.4953   32.9652   41.4837 H   0  0  0  0  0  0  0  0  0  0  0  0
   37.5744   33.6680   39.9938 H   0  0  0  0  0  0  0  0  0  0  0  0
   40.0006   34.7884   40.3695 H   0  0  0  0  0  0  0  0  0  0  0  0
   37.7216   28.3909   43.9417 H   0  0  0  0  0  0  0  0  0  0  0  0
   36.0870   27.7077   43.6085 H   0  0  0  0  0  0  0  0  0  0  0  0
   40.6370   25.3527   41.8772 H   0  0  0  0  0  0  0  0  0  0  0  0
   39.1735   23.3607   41.4403 H   0  0  0  0  0  0  0  0  0  0  0  0
   36.6954   23.5630   41.8353 H   0  0  0  0  0  0  0  0  0  0  0  0
  1 14  1  0
  2  1  1  0
  3  2  2  0
  4  3  1  0
  4  6  1  0
  5  4  2  0
  6  7  1  0
  7  1  1  0
  7  8  2  0
  9 10  1  0
 11  6  1  0
 11 10  2  0
 12 13  2  0
 12 11  1  0
 13  9  1  0
 15 20  2  0
 16 17  2  0
 16 15  1  0
 17 18  1  0
 18 19  2  0
 19 14  1  0
 20 19  1  0
  2 21  1  0
  3 22  1  0
  9 23  1  0
 12 24  1  0
 13 25  1  0
 14 26  1  0
 14 27  1  0
 15 28  1  0
 16 29  1  0
 17 30  1  0
M  ISO  8  21  14  22  14  23   9  24  14  25  14  26   8  27   8  28  14
M  ISO  2  29  14  30  14
M  END
>  <minimizedAffinity>  (1) 
-5.56507778

>  <minimizedRMSD>  (1) 
0.77590847

$$$$
