
     RDKit          3D

 30 32  0  0  0  0  0  0  0  0999 V2000
   36.9170   28.9010   42.0560 N   0  0  0  0  0  0  0  0  0  0  0  0
   35.9170   28.7040   41.1730 C   0  0  0  0  0  0  0  0  0  0  0  0
   35.8280   29.6330   40.1670 C   0  0  0  0  0  0  0  0  0  0  0  0
   36.6720   30.7220   40.0070 C   0  0  0  0  0  0  0  0  0  0  0  0
   36.5440   31.5320   39.0770 O   0  0  0  0  0  0  0  0  0  0  0  0
   37.6320   30.8150   40.9500 N   0  0  0  0  0  0  0  0  0  0  0  0
   37.7660   29.9320   41.9600 C   0  0  0  0  0  0  0  0  0  0  0  0
   38.7060   30.1030   42.8020 O   0  0  0  0  0  0  0  0  0  0  0  0
   38.5680   31.9040   40.8900 C   0  0  0  0  0  0  0  0  0  0  0  0
   38.5070   33.1560   40.2850 C   0  0  0  0  0  0  0  0  0  0  0  0
   39.7110   33.8070   40.5520 C   0  0  0  0  0  0  0  0  0  0  0  0
   40.4490   32.9570   41.2900 N   0  0  0  0  0  0  0  0  0  0  0  0
   39.7620   31.8440   41.4800 N   0  0  0  0  0  0  0  0  0  0  0  0
   37.1200   27.9850   43.1720 C   0  0  0  0  0  0  0  0  0  0  0  0
   39.5610   25.4230   42.0310 C   0  0  0  0  0  0  0  0  0  0  0  0
   38.7400   24.3170   41.8140 C   0  0  0  0  0  0  0  0  0  0  0  0
   37.3790   24.4500   42.0540 C   0  0  0  0  0  0  0  0  0  0  0  0
   36.9110   25.6380   42.4860 N   0  0  0  0  0  0  0  0  0  0  0  0
   37.7200   26.7040   42.6920 C   0  0  0  0  0  0  0  0  0  0  0  0
   39.0170   26.5610   42.4580 N   0  0  0  0  0  0  0  0  0  0  0  0
   35.2203   27.8566   41.2536 H   0  0  0  0  0  0  0  0  0  0  0  0
   35.0231   29.5037   39.4285 H   0  0  0  0  0  0  0  0  0  0  0  0
   37.6643   33.5579   39.7034 H   0  0  0  0  0  0  0  0  0  0  0  0
   40.0006   34.8163   40.2241 H   0  0  0  0  0  0  0  0  0  0  0  0
   41.3963   33.1438   41.6488 H   0  0  0  0  0  0  0  0  0  0  0  0
   37.7965   28.4501   43.9042 H   0  0  0  0  0  0  0  0  0  0  0  0
   36.1474   27.7705   43.6389 H   0  0  0  0  0  0  0  0  0  0  0  0
   40.6442   25.3563   41.8517 H   0  0  0  0  0  0  0  0  0  0  0  0
   39.1600   23.3634   41.4616 H   0  0  0  0  0  0  0  0  0  0  0  0
   36.6960   23.6025   41.8947 H   0  0  0  0  0  0  0  0  0  0  0  0
  1 14  1  0
  2  1  1  0
  3  2  2  0
  4  3  1  0
  4  6  1  0
  5  4  2  0
  6  7  1  0
  7  1  1  0
  7  8  2  0
  9  6  1  0
  9 13  2  0
 10 11  2  0
 10  9  1  0
 11 12  1  0
 12 13  1  0
 15 20  2  0
 16 15  1  0
 16 17  2  0
 17 18  1  0
 18 19  2  0
 19 14  1  0
 20 19  1  0
  2 21  1  0
  3 22  1  0
 10 23  1  0
 11 24  1  0
 12 25  1  0
 14 26  1  0
 14 27  1  0
 15 28  1  0
 16 29  1  0
 17 30  1  0
M  ISO  8  21  14  22  14  23  14  24  14  25   9  26   8  27   8  28  14
M  ISO  2  29  14  30  14
M  END
>  <minimizedAffinity>  (1) 
-5.54397154

>  <minimizedRMSD>  (1) 
0.855186701

$$$$
