
     RDKit          3D

 30 32  0  0  0  0  0  0  0  0999 V2000
   38.2190   30.5410   41.7840 N   0  0  0  0  0  0  0  0  0  0  0  0
   36.9850   30.4180   41.2590 C   0  0  0  0  0  0  0  0  0  0  0  0
   36.6090   31.4100   40.3770 C   0  0  0  0  0  0  0  0  0  0  0  0
   37.3930   32.4790   40.0150 C   0  0  0  0  0  0  0  0  0  0  0  0
   37.0160   33.3510   39.2160 O   0  0  0  0  0  0  0  0  0  0  0  0
   38.6140   32.5040   40.6020 N   0  0  0  0  0  0  0  0  0  0  0  0
   39.0270   31.5590   41.4700 C   0  0  0  0  0  0  0  0  0  0  0  0
   40.1970   31.6620   41.9770 O   0  0  0  0  0  0  0  0  0  0  0  0
   39.5200   33.5730   40.3010 C   0  0  0  0  0  0  0  0  0  0  0  0
   40.5410   33.8310   39.4220 C   0  0  0  0  0  0  0  0  0  0  0  0
   40.9870   35.0910   39.6910 N   0  0  0  0  0  0  0  0  0  0  0  0
   40.2620   35.6020   40.7070 C   0  0  0  0  0  0  0  0  0  0  0  0
   39.3620   34.6760   41.0850 N   0  0  0  0  0  0  0  0  0  0  0  0
   38.7370   29.5600   42.7280 C   0  0  0  0  0  0  0  0  0  0  0  0
   38.7760   26.3530   40.8630 C   0  0  0  0  0  0  0  0  0  0  0  0
   37.7690   25.6180   41.5020 C   0  0  0  0  0  0  0  0  0  0  0  0
   37.0920   26.2350   42.5630 C   0  0  0  0  0  0  0  0  0  0  0  0
   37.4280   27.4890   42.9230 N   0  0  0  0  0  0  0  0  0  0  0  0
   38.4170   28.1790   42.2780 C   0  0  0  0  0  0  0  0  0  0  0  0
   39.0500   27.5860   41.2770 N   0  0  0  0  0  0  0  0  0  0  0  0
   36.3198   29.5807   41.5167 H   0  0  0  0  0  0  0  0  0  0  0  0
   35.6064   31.3400   39.9300 H   0  0  0  0  0  0  0  0  0  0  0  0
   40.9263   33.1511   38.6479 H   0  0  0  0  0  0  0  0  0  0  0  0
   40.3850   36.6015   41.1495 H   0  0  0  0  0  0  0  0  0  0  0  0
   38.6698   34.7830   41.8402 H   0  0  0  0  0  0  0  0  0  0  0  0
   39.8288   29.6718   42.8026 H   0  0  0  0  0  0  0  0  0  0  0  0
   38.2686   29.7304   43.7086 H   0  0  0  0  0  0  0  0  0  0  0  0
   39.3359   25.9129   40.0247 H   0  0  0  0  0  0  0  0  0  0  0  0
   37.5190   24.5953   41.1832 H   0  0  0  0  0  0  0  0  0  0  0  0
   36.2931   25.6998   43.0972 H   0  0  0  0  0  0  0  0  0  0  0  0
  1 14  1  0
  2  1  1  0
  3  2  2  0
  4  3  1  0
  4  6  1  0
  5  4  2  0
  6  7  1  0
  7  1  1  0
  7  8  2  0
  9  6  1  0
  9 13  1  0
 10 11  1  0
 10  9  2  0
 11 12  2  0
 12 13  1  0
 15 20  2  0
 15 16  1  0
 16 17  2  0
 17 18  1  0
 19 14  1  0
 19 18  2  0
 20 19  1  0
  2 21  1  0
  3 22  1  0
 10 23  1  0
 12 24  1  0
 13 25  1  0
 14 26  1  0
 14 27  1  0
 15 28  1  0
 16 29  1  0
 17 30  1  0
M  ISO  8  21  14  22  14  23  14  24  14  25   9  26   8  27   8  28  14
M  ISO  2  29  14  30  14
M  END
>  <minimizedAffinity>  (1) 
-5.38711596

>  <minimizedRMSD>  (1) 
2.53043699

$$$$
