
     RDKit          3D

 30 32  0  0  0  0  0  0  0  0999 V2000
   37.1200   28.9560   42.2880 N   0  0  0  0  0  0  0  0  0  0  0  0
   36.1070   28.5800   41.4790 C   0  0  0  0  0  0  0  0  0  0  0  0
   35.9670   29.3040   40.3180 C   0  0  0  0  0  0  0  0  0  0  0  0
   36.7850   30.3630   39.9470 C   0  0  0  0  0  0  0  0  0  0  0  0
   36.6190   30.9900   38.8810 O   0  0  0  0  0  0  0  0  0  0  0  0
   37.7650   30.6490   40.8320 N   0  0  0  0  0  0  0  0  0  0  0  0
   37.9350   29.9660   41.9770 C   0  0  0  0  0  0  0  0  0  0  0  0
   38.8940   30.3160   42.7490 O   0  0  0  0  0  0  0  0  0  0  0  0
   38.6330   31.7300   40.4960 C   0  0  0  0  0  0  0  0  0  0  0  0
   39.8220   31.8090   39.8000 C   0  0  0  0  0  0  0  0  0  0  0  0
   40.2520   33.1250   39.7670 C   0  0  0  0  0  0  0  0  0  0  0  0
   39.2580   33.8070   40.4760 C   0  0  0  0  0  0  0  0  0  0  0  0
   38.3530   32.9610   40.8730 O   0  0  0  0  0  0  0  0  0  0  0  0
   37.3780   28.2730   43.5470 C   0  0  0  0  0  0  0  0  0  0  0  0
   40.1850   25.8440   43.6530 C   0  0  0  0  0  0  0  0  0  0  0  0
   39.6930   24.7880   42.8630 C   0  0  0  0  0  0  0  0  0  0  0  0
   38.4240   24.9260   42.3170 C   0  0  0  0  0  0  0  0  0  0  0  0
   37.7160   26.0460   42.5540 N   0  0  0  0  0  0  0  0  0  0  0  0
   38.2100   27.0620   43.3230 C   0  0  0  0  0  0  0  0  0  0  0  0
   39.4230   26.9160   43.8380 N   0  0  0  0  0  0  0  0  0  0  0  0
   35.4354   27.7465   41.7325 H   0  0  0  0  0  0  0  0  0  0  0  0
   35.1504   29.0248   39.6360 H   0  0  0  0  0  0  0  0  0  0  0  0
   40.3472   30.9579   39.3420 H   0  0  0  0  0  0  0  0  0  0  0  0
   41.1576   33.5352   39.2963 H   0  0  0  0  0  0  0  0  0  0  0  0
   39.2436   34.8900   40.6680 H   0  0  0  0  0  0  0  0  0  0  0  0
   37.9087   28.9558   44.2268 H   0  0  0  0  0  0  0  0  0  0  0  0
   36.4179   27.9675   43.9885 H   0  0  0  0  0  0  0  0  0  0  0  0
   41.1839   25.7824   44.1095 H   0  0  0  0  0  0  0  0  0  0  0  0
   40.2937   23.8840   42.6843 H   0  0  0  0  0  0  0  0  0  0  0  0
   37.9996   24.1247   41.6943 H   0  0  0  0  0  0  0  0  0  0  0  0
  1 14  1  0
  2  1  1  0
  3  2  2  0
  4  3  1  0
  4  6  1  0
  5  4  2  0
  6  7  1  0
  7  1  1  0
  7  8  2  0
  9  6  1  0
  9 13  1  0
 10  9  2  0
 11 10  1  0
 11 12  2  0
 12 13  1  0
 15 20  2  0
 16 15  1  0
 17 18  1  0
 17 16  2  0
 18 19  2  0
 19 14  1  0
 19 20  1  0
  2 21  1  0
  3 22  1  0
 10 23  1  0
 11 24  1  0
 12 25  1  0
 14 26  1  0
 14 27  1  0
 15 28  1  0
 16 29  1  0
 17 30  1  0
M  ISO  8  21  14  22  14  23  14  24  14  25  14  26   8  27   8  28  14
M  ISO  2  29  14  30  14
M  END
>  <minimizedAffinity>  (1) 
-5.19593334

>  <minimizedRMSD>  (1) 
1.55931818

$$$$
