
     RDKit          3D

 29 31  0  0  0  0  0  0  0  0999 V2000
   37.8710   30.3090   41.8540 N   0  0  0  0  0  0  0  0  0  0  0  0
   36.6950   30.1390   41.1970 C   0  0  0  0  0  0  0  0  0  0  0  0
   36.4330   31.0800   40.2340 C   0  0  0  0  0  0  0  0  0  0  0  0
   37.2500   32.1450   39.9020 C   0  0  0  0  0  0  0  0  0  0  0  0
   36.9590   32.9750   39.0140 O   0  0  0  0  0  0  0  0  0  0  0  0
   38.3860   32.2070   40.6240 N   0  0  0  0  0  0  0  0  0  0  0  0
   38.7040   31.3220   41.5760 C   0  0  0  0  0  0  0  0  0  0  0  0
   39.8040   31.4580   42.2110 O   0  0  0  0  0  0  0  0  0  0  0  0
   39.2710   33.3000   40.3160 C   0  0  0  0  0  0  0  0  0  0  0  0
   40.4590   33.2020   39.4230 C   0  0  0  0  0  0  0  0  0  0  0  0
   41.0960   34.8540   39.4680 S   0  0  0  0  0  0  0  0  0  0  0  0
   39.7280   35.4550   40.6460 C   0  0  0  0  0  0  0  0  0  0  0  0
   39.0810   34.5060   40.8240 N   0  0  0  0  0  0  0  0  0  0  0  0
   38.2850   29.3840   42.9050 C   0  0  0  0  0  0  0  0  0  0  0  0
   39.1950   26.2860   41.0750 C   0  0  0  0  0  0  0  0  0  0  0  0
   38.1960   25.3860   41.4850 C   0  0  0  0  0  0  0  0  0  0  0  0
   37.2380   25.8500   42.3730 C   0  0  0  0  0  0  0  0  0  0  0  0
   37.3150   27.1270   42.7890 N   0  0  0  0  0  0  0  0  0  0  0  0
   38.2840   27.9870   42.3860 C   0  0  0  0  0  0  0  0  0  0  0  0
   39.1940   27.5230   41.5350 N   0  0  0  0  0  0  0  0  0  0  0  0
   36.0059   29.3110   41.4197 H   0  0  0  0  0  0  0  0  0  0  0  0
   35.4900   30.9785   39.6768 H   0  0  0  0  0  0  0  0  0  0  0  0
   40.8423   32.3280   38.8760 H   0  0  0  0  0  0  0  0  0  0  0  0
   39.5835   36.4634   41.0610 H   0  0  0  0  0  0  0  0  0  0  0  0
   39.2986   29.6463   43.2422 H   0  0  0  0  0  0  0  0  0  0  0  0
   37.5806   29.4563   43.7468 H   0  0  0  0  0  0  0  0  0  0  0  0
   39.9759   25.9599   40.3723 H   0  0  0  0  0  0  0  0  0  0  0  0
   38.1752   24.3505   41.1144 H   0  0  0  0  0  0  0  0  0  0  0  0
   36.4337   25.1895   42.7291 H   0  0  0  0  0  0  0  0  0  0  0  0
  1 14  1  0
  2  1  1  0
  3  2  2  0
  4  3  1  0
  4  6  1  0
  5  4  2  0
  6  7  1  0
  7  1  1  0
  7  8  2  0
  9  6  1  0
  9 13  1  0
 10 11  1  0
 10  9  2  0
 11 12  1  0
 12 13  2  0
 15 16  2  0
 15 20  1  0
 16 17  1  0
 17 18  2  0
 19 18  1  0
 19 14  1  0
 20 19  2  0
  2 21  1  0
  3 22  1  0
 10 23  1  0
 12 24  1  0
 14 25  1  0
 14 26  1  0
 15 27  1  0
 16 28  1  0
 17 29  1  0
M  ISO  8  21  14  22  14  23  14  24  14  25   8  26   8  27  14  28  14
M  ISO  1  29  14
M  END
>  <minimizedAffinity>  (1) 
-5.1800251

>  <minimizedRMSD>  (1) 
2.16749859

$$$$
