
     RDKit          3D

 50 54  0  0  0  0  0  0  0  0999 V2000
   37.3900   29.8580   41.7920 N   0  0  0  0  0  0  0  0  0  0  0  0
   36.2410   29.7400   41.1040 C   0  0  0  0  0  0  0  0  0  0  0  0
   36.2120   30.3590   39.8710 C   0  0  0  0  0  0  0  0  0  0  0  0
   37.2560   31.0670   39.3210 C   0  0  0  0  0  0  0  0  0  0  0  0
   37.1980   31.6090   38.2150 O   0  0  0  0  0  0  0  0  0  0  0  0
   38.3730   31.1230   40.1040 N   0  0  0  0  0  0  0  0  0  0  0  0
   38.4510   30.5340   41.3190 C   0  0  0  0  0  0  0  0  0  0  0  0
   39.5360   30.6470   41.9640 O   0  0  0  0  0  0  0  0  0  0  0  0
   39.5160   31.8430   39.6090 C   0  0  0  0  0  0  0  0  0  0  0  0
   40.6350   31.4590   38.9290 C   0  0  0  0  0  0  0  0  0  0  0  0
   41.4220   32.5280   38.6920 N   0  0  0  0  0  0  0  0  0  0  0  0
   40.7980   33.6210   39.2290 C   0  0  0  0  0  0  0  0  0  0  0  0
   41.1280   34.9520   39.2880 C   0  0  0  0  0  0  0  0  0  0  0  0
   40.3340   35.8960   39.8920 C   0  0  0  0  0  0  0  0  0  0  0  0
   39.1260   35.5070   40.4820 C   0  0  0  0  0  0  0  0  0  0  0  0
   38.8170   34.1650   40.4100 C   0  0  0  0  0  0  0  0  0  0  0  0
   39.6060   33.2150   39.8070 C   0  0  0  0  0  0  0  0  0  0  0  0
   37.5480   29.2550   43.0980 C   0  0  0  0  0  0  0  0  0  0  0  0
   39.7800   26.3060   43.4160 C   0  0  0  0  0  0  0  0  0  0  0  0
   39.0520   25.3330   42.7360 C   0  0  0  0  0  0  0  0  0  0  0  0
   37.8230   25.6680   42.1780 C   0  0  0  0  0  0  0  0  0  0  0  0
   37.3940   26.9330   42.3240 N   0  0  0  0  0  0  0  0  0  0  0  0
   38.1130   27.8690   42.9880 C   0  0  0  0  0  0  0  0  0  0  0  0
   39.2720   27.5300   43.5070 N   0  0  0  0  0  0  0  0  0  0  0  0
   37.0410   24.6270   41.4500 C   0  0  0  0  0  0  0  0  0  0  0  0
   37.9120   23.4140   41.1590 C   0  0  0  0  0  0  0  0  0  0  0  0
   38.3510   23.5170   39.7270 C   0  0  0  0  0  0  0  0  0  0  0  0
   37.4000   24.4590   39.0460 C   0  0  0  0  0  0  0  0  0  0  0  0
   36.5310   25.0700   40.1220 C   0  0  0  0  0  0  0  0  0  0  0  0
   35.3777   29.1846   41.4993 H   0  0  0  0  0  0  0  0  0  0  0  0
   35.2851   30.2806   39.2839 H   0  0  0  0  0  0  0  0  0  0  0  0
   40.8619   30.4281   38.6194 H   0  0  0  0  0  0  0  0  0  0  0  0
   42.3258   32.5228   38.1980 H   0  0  0  0  0  0  0  0  0  0  0  0
   42.0733   35.2781   38.8298 H   0  0  0  0  0  0  0  0  0  0  0  0
   40.6455   36.9508   39.9119 H   0  0  0  0  0  0  0  0  0  0  0  0
   38.4606   36.2308   40.9753 H   0  0  0  0  0  0  0  0  0  0  0  0
   37.8735   33.8318   40.8669 H   0  0  0  0  0  0  0  0  0  0  0  0
   38.2297   29.8742   43.6996 H   0  0  0  0  0  0  0  0  0  0  0  0
   36.5593   29.1925   43.5761 H   0  0  0  0  0  0  0  0  0  0  0  0
   40.7539   26.0664   43.8677 H   0  0  0  0  0  0  0  0  0  0  0  0
   39.4450   24.3100   42.6412 H   0  0  0  0  0  0  0  0  0  0  0  0
   36.1948   24.4050   42.1169 H   0  0  0  0  0  0  0  0  0  0  0  0
   38.7890   23.4116   41.8230 H   0  0  0  0  0  0  0  0  0  0  0  0
   37.3538   22.4818   41.3306 H   0  0  0  0  0  0  0  0  0  0  0  0
   39.3768   23.9105   39.6732 H   0  0  0  0  0  0  0  0  0  0  0  0
   38.3436   22.5303   39.2409 H   0  0  0  0  0  0  0  0  0  0  0  0
   37.9605   25.2468   38.5213 H   0  0  0  0  0  0  0  0  0  0  0  0
   36.7871   23.9270   38.3035 H   0  0  0  0  0  0  0  0  0  0  0  0
   36.5741   26.1671   40.0552 H   0  0  0  0  0  0  0  0  0  0  0  0
   35.4875   24.7470   39.9922 H   0  0  0  0  0  0  0  0  0  0  0  0
  1 18  1  0
  2  1  1  0
  3  2  2  0
  4  3  1  0
  4  6  1  0
  5  4  2  0
  6  7  1  0
  7  1  1  0
  7  8  2  0
  9 17  1  0
  9  6  1  0
 10  9  2  0
 11 10  1  0
 11 12  1  0
 12 13  2  0
 12 17  1  0
 13 14  1  0
 14 15  2  0
 16 15  1  0
 17 16  2  0
 19 24  2  0
 20 19  1  0
 21 22  1  0
 21 20  2  0
 22 23  2  0
 23 18  1  0
 23 24  1  0
 25 21  1  0
 26 25  1  0
 27 26  1  0
 28 27  1  0
 28 29  1  0
 29 25  1  0
  2 30  1  0
  3 31  1  0
 10 32  1  0
 11 33  1  0
 13 34  1  0
 14 35  1  0
 15 36  1  0
 16 37  1  0
 18 38  1  0
 18 39  1  0
 19 40  1  0
 20 41  1  0
 25 42  1  0
 26 43  1  0
 26 44  1  0
 27 45  1  0
 27 46  1  0
 28 47  1  0
 28 48  1  0
 29 49  1  0
 29 50  1  0
M  ISO  8  30  14  31  14  32  14  33   9  34  14  35  14  36  14  37  14
M  ISO  8  38   8  39   8  40  14  41  14  42  13  43  13  44  13  45  13
M  ISO  5  46  13  47  13  48  13  49  13  50  13
M  END
>  <minimizedAffinity>  (1) 
-7.12435627

>  <minimizedRMSD>  (1) 
0.888408661

$$$$
