
     RDKit          3D

 44 48  0  0  0  0  0  0  0  0999 V2000
   37.3730   29.3100   42.0280 N   0  0  0  0  0  0  0  0  0  0  0  0
   36.2080   29.1260   41.3650 C   0  0  0  0  0  0  0  0  0  0  0  0
   36.1350   29.7160   40.1150 C   0  0  0  0  0  0  0  0  0  0  0  0
   37.1350   30.4490   39.5330 C   0  0  0  0  0  0  0  0  0  0  0  0
   37.0330   30.9640   38.4100 O   0  0  0  0  0  0  0  0  0  0  0  0
   38.2630   30.5700   40.2950 N   0  0  0  0  0  0  0  0  0  0  0  0
   38.3840   30.0140   41.5160 C   0  0  0  0  0  0  0  0  0  0  0  0
   39.4720   30.1850   42.1390 O   0  0  0  0  0  0  0  0  0  0  0  0
   39.3580   31.3210   39.7610 C   0  0  0  0  0  0  0  0  0  0  0  0
   40.4780   30.9600   39.0390 C   0  0  0  0  0  0  0  0  0  0  0  0
   41.2110   32.0540   38.7730 N   0  0  0  0  0  0  0  0  0  0  0  0
   40.5670   33.1350   39.3240 C   0  0  0  0  0  0  0  0  0  0  0  0
   40.8660   34.4760   39.3550 C   0  0  0  0  0  0  0  0  0  0  0  0
   40.0560   35.4020   39.9800 C   0  0  0  0  0  0  0  0  0  0  0  0
   38.8900   34.9700   40.6070 C   0  0  0  0  0  0  0  0  0  0  0  0
   38.6250   33.6200   40.5540 C   0  0  0  0  0  0  0  0  0  0  0  0
   39.4220   32.6920   39.9350 C   0  0  0  0  0  0  0  0  0  0  0  0
   37.5730   28.7410   43.3460 C   0  0  0  0  0  0  0  0  0  0  0  0
   40.0740   26.0400   43.8530 C   0  0  0  0  0  0  0  0  0  0  0  0
   39.5770   25.0280   43.0260 C   0  0  0  0  0  0  0  0  0  0  0  0
   38.4180   25.2750   42.3220 C   0  0  0  0  0  0  0  0  0  0  0  0
   37.8110   26.4750   42.4540 N   0  0  0  0  0  0  0  0  0  0  0  0
   38.3050   27.4430   43.2580 C   0  0  0  0  0  0  0  0  0  0  0  0
   39.4230   27.2000   43.9350 N   0  0  0  0  0  0  0  0  0  0  0  0
   37.8670   24.2440   41.4490 C   0  0  0  0  0  0  0  0  0  0  0  0
   36.7050   24.3250   40.7140 C   0  0  0  0  0  0  0  0  0  0  0  0
   36.5220   23.1790   40.0300 N   0  0  0  0  0  0  0  0  0  0  0  0
   37.5830   22.4060   40.3580 C   0  0  0  0  0  0  0  0  0  0  0  0
   38.4020   23.0330   41.2120 N   0  0  0  0  0  0  0  0  0  0  0  0
   35.3753   28.5468   41.7905 H   0  0  0  0  0  0  0  0  0  0  0  0
   35.2028   29.5863   39.5456 H   0  0  0  0  0  0  0  0  0  0  0  0
   40.7310   29.9352   38.7294 H   0  0  0  0  0  0  0  0  0  0  0  0
   42.0976   32.0779   38.2494 H   0  0  0  0  0  0  0  0  0  0  0  0
   41.7860   34.8245   38.8629 H   0  0  0  0  0  0  0  0  0  0  0  0
   40.3279   36.4679   39.9829 H   0  0  0  0  0  0  0  0  0  0  0  0
   38.2149   35.6718   41.1187 H   0  0  0  0  0  0  0  0  0  0  0  0
   37.7080   33.2601   41.0434 H   0  0  0  0  0  0  0  0  0  0  0  0
   38.1579   29.4440   43.9573 H   0  0  0  0  0  0  0  0  0  0  0  0
   36.5897   28.5606   43.8049 H   0  0  0  0  0  0  0  0  0  0  0  0
   40.9956   25.8799   44.4317 H   0  0  0  0  0  0  0  0  0  0  0  0
   40.0962   24.0621   42.9397 H   0  0  0  0  0  0  0  0  0  0  0  0
   36.0296   25.1929   40.6893 H   0  0  0  0  0  0  0  0  0  0  0  0
   37.7516   21.3900   39.9716 H   0  0  0  0  0  0  0  0  0  0  0  0
   39.2749   22.6593   41.6111 H   0  0  0  0  0  0  0  0  0  0  0  0
  1 18  1  0
  2  1  1  0
  3  2  2  0
  4  3  1  0
  4  6  1  0
  5  4  2  0
  6  7  1  0
  7  1  1  0
  7  8  2  0
  9 17  1  0
  9  6  1  0
 10  9  2  0
 11 10  1  0
 11 12  1  0
 12 13  2  0
 12 17  1  0
 13 14  1  0
 14 15  2  0
 16 15  1  0
 17 16  2  0
 19 24  2  0
 20 19  1  0
 21 22  1  0
 21 20  2  0
 22 23  2  0
 23 18  1  0
 23 24  1  0
 25 21  1  0
 26 25  2  0
 27 28  2  0
 27 26  1  0
 28 29  1  0
 29 25  1  0
  2 30  1  0
  3 31  1  0
 10 32  1  0
 11 33  1  0
 13 34  1  0
 14 35  1  0
 15 36  1  0
 16 37  1  0
 18 38  1  0
 18 39  1  0
 19 40  1  0
 20 41  1  0
 26 42  1  0
 28 43  1  0
 29 44  1  0
M  ISO  8  30  14  31  14  32  14  33   9  34  14  35  14  36  14  37  14
M  ISO  7  38   8  39   8  40  14  41  14  42  14  43  14  44   9
M  END
>  <minimizedAffinity>  (1) 
-6.9843359

>  <minimizedRMSD>  (1) 
1.51693523

$$$$
