
     RDKit          3D

 53 57  0  0  0  0  0  0  0  0999 V2000
   38.2440   30.5880   41.7180 N   0  0  0  0  0  0  0  0  0  0  0  0
   36.9500   30.5460   41.3210 C   0  0  0  0  0  0  0  0  0  0  0  0
   36.6210   31.3480   40.2490 C   0  0  0  0  0  0  0  0  0  0  0  0
   37.4970   32.1650   39.5760 C   0  0  0  0  0  0  0  0  0  0  0  0
   37.1690   32.8710   38.6170 O   0  0  0  0  0  0  0  0  0  0  0  0
   38.7700   32.1320   40.0530 N   0  0  0  0  0  0  0  0  0  0  0  0
   39.1410   31.3610   41.1040 C   0  0  0  0  0  0  0  0  0  0  0  0
   40.3620   31.3980   41.4830 O   0  0  0  0  0  0  0  0  0  0  0  0
   39.7600   32.9530   39.4160 C   0  0  0  0  0  0  0  0  0  0  0  0
   40.6440   32.7270   38.3960 C   0  0  0  0  0  0  0  0  0  0  0  0
   41.3700   33.8310   38.1660 N   0  0  0  0  0  0  0  0  0  0  0  0
   40.9570   34.7870   39.0430 C   0  0  0  0  0  0  0  0  0  0  0  0
   41.3440   36.0890   39.2560 C   0  0  0  0  0  0  0  0  0  0  0  0
   40.7800   36.8880   40.2180 C   0  0  0  0  0  0  0  0  0  0  0  0
   39.7560   36.3700   41.0310 C   0  0  0  0  0  0  0  0  0  0  0  0
   39.3930   35.0640   40.7910 C   0  0  0  0  0  0  0  0  0  0  0  0
   39.9540   34.2530   39.8300 C   0  0  0  0  0  0  0  0  0  0  0  0
   38.7120   29.7900   42.8340 C   0  0  0  0  0  0  0  0  0  0  0  0
   36.3760   27.1750   44.0550 C   0  0  0  0  0  0  0  0  0  0  0  0
   36.4950   26.1890   43.0830 C   0  0  0  0  0  0  0  0  0  0  0  0
   37.3670   26.4250   42.0270 C   0  0  0  0  0  0  0  0  0  0  0  0
   38.0440   27.5780   41.9940 N   0  0  0  0  0  0  0  0  0  0  0  0
   37.9200   28.5330   42.9470 C   0  0  0  0  0  0  0  0  0  0  0  0
   37.0830   28.2950   43.9540 N   0  0  0  0  0  0  0  0  0  0  0  0
   37.5840   25.4500   40.9220 C   0  0  0  0  0  0  0  0  0  0  0  0
   39.0480   25.0120   41.0460 C   0  0  0  0  0  0  0  0  0  0  0  0
   39.3240   23.9310   40.0260 C   0  0  0  0  0  0  0  0  0  0  0  0
   38.4290   22.7390   40.2120 C   0  0  0  0  0  0  0  0  0  0  0  0
   36.9820   23.0590   40.3730 C   0  0  0  0  0  0  0  0  0  0  0  0
   36.6690   24.2890   41.1500 C   0  0  0  0  0  0  0  0  0  0  0  0
   36.2062   29.9103   41.8236 H   0  0  0  0  0  0  0  0  0  0  0  0
   35.5760   31.3326   39.9058 H   0  0  0  0  0  0  0  0  0  0  0  0
   40.7443   31.7797   37.8460 H   0  0  0  0  0  0  0  0  0  0  0  0
   42.1070   33.9366   37.4543 H   0  0  0  0  0  0  0  0  0  0  0  0
   42.1422   36.5091   38.6264 H   0  0  0  0  0  0  0  0  0  0  0  0
   41.1253   37.9237   40.3522 H   0  0  0  0  0  0  0  0  0  0  0  0
   39.2730   36.9736   41.8135 H   0  0  0  0  0  0  0  0  0  0  0  0
   38.5941   34.6358   41.4142 H   0  0  0  0  0  0  0  0  0  0  0  0
   39.7713   29.5374   42.6790 H   0  0  0  0  0  0  0  0  0  0  0  0
   38.5914   30.3702   43.7607 H   0  0  0  0  0  0  0  0  0  0  0  0
   35.6967   27.0281   44.9076 H   0  0  0  0  0  0  0  0  0  0  0  0
   35.9189   25.2541   43.1472 H   0  0  0  0  0  0  0  0  0  0  0  0
   37.3820   25.8668   39.9243 H   0  0  0  0  0  0  0  0  0  0  0  0
   39.7078   25.8723   40.8600 H   0  0  0  0  0  0  0  0  0  0  0  0
   39.2369   24.6259   42.0585 H   0  0  0  0  0  0  0  0  0  0  0  0
   40.3708   23.6079   40.1255 H   0  0  0  0  0  0  0  0  0  0  0  0
   39.1294   24.3490   39.0273 H   0  0  0  0  0  0  0  0  0  0  0  0
   38.5391   22.0885   39.3318 H   0  0  0  0  0  0  0  0  0  0  0  0
   38.7450   22.2597   41.1503 H   0  0  0  0  0  0  0  0  0  0  0  0
   36.5493   23.1761   39.3685 H   0  0  0  0  0  0  0  0  0  0  0  0
   36.5564   22.2260   40.9517 H   0  0  0  0  0  0  0  0  0  0  0  0
   36.7080   24.0326   42.2190 H   0  0  0  0  0  0  0  0  0  0  0  0
   35.6769   24.6168   40.8061 H   0  0  0  0  0  0  0  0  0  0  0  0
  1 18  1  0
  2  1  1  0
  3  2  2  0
  4  6  1  0
  4  3  1  0
  5  4  2  0
  6  7  1  0
  7  8  2  0
  7  1  1  0
  9 17  1  0
  9  6  1  0
 10  9  2  0
 11 10  1  0
 11 12  1  0
 12 13  2  0
 12 17  1  0
 13 14  1  0
 14 15  2  0
 16 15  1  0
 17 16  2  0
 18 23  1  0
 20 19  2  0
 21 20  1  0
 22 21  2  0
 22 23  1  0
 23 24  2  0
 24 19  1  0
 25 26  1  0
 25 30  1  0
 25 21  1  0
 27 28  1  0
 27 26  1  0
 28 29  1  0
 29 30  1  0
  2 31  1  0
  3 32  1  0
 10 33  1  0
 11 34  1  0
 13 35  1  0
 14 36  1  0
 15 37  1  0
 16 38  1  0
 18 39  1  0
 18 40  1  0
 19 41  1  0
 20 42  1  0
 25 43  1  0
 26 44  1  0
 26 45  1  0
 27 46  1  0
 27 47  1  0
 28 48  1  0
 28 49  1  0
 29 50  1  0
 29 51  1  0
 30 52  1  0
 30 53  1  0
M  ISO  8  31  14  32  14  33  14  34   9  35  14  36  14  37  14  38  14
M  ISO  8  39   8  40   8  41  14  42  14  43  13  44  13  45  13  46  13
M  ISO  7  47  13  48  13  49  13  50  13  51  13  52  13  53  13
M  END
>  <minimizedAffinity>  (1) 
-6.92669201

>  <minimizedRMSD>  (1) 
1.9160645

$$$$
