
     RDKit          3D

 38 41  0  0  0  0  0  0  0  0999 V2000
   37.5240   30.0230   41.6810 N   0  0  0  0  0  0  0  0  0  0  0  0
   36.3480   29.9520   41.0290 C   0  0  0  0  0  0  0  0  0  0  0  0
   36.2640   30.6420   39.8290 C   0  0  0  0  0  0  0  0  0  0  0  0
   37.2890   31.3780   39.2770 C   0  0  0  0  0  0  0  0  0  0  0  0
   37.1910   31.9810   38.2110 O   0  0  0  0  0  0  0  0  0  0  0  0
   38.4310   31.3810   40.0180 N   0  0  0  0  0  0  0  0  0  0  0  0
   38.5570   30.7220   41.1950 C   0  0  0  0  0  0  0  0  0  0  0  0
   39.6680   30.7950   41.8000 O   0  0  0  0  0  0  0  0  0  0  0  0
   39.5580   32.1240   39.5200 C   0  0  0  0  0  0  0  0  0  0  0  0
   40.6540   31.7800   38.7790 C   0  0  0  0  0  0  0  0  0  0  0  0
   41.4230   32.8650   38.5780 N   0  0  0  0  0  0  0  0  0  0  0  0
   40.8230   33.9270   39.1930 C   0  0  0  0  0  0  0  0  0  0  0  0
   41.1700   35.2450   39.3020 C   0  0  0  0  0  0  0  0  0  0  0  0
   40.3890   36.1620   39.9910 C   0  0  0  0  0  0  0  0  0  0  0  0
   39.2120   35.7310   40.5940 C   0  0  0  0  0  0  0  0  0  0  0  0
   38.8990   34.4040   40.4640 C   0  0  0  0  0  0  0  0  0  0  0  0
   39.6690   33.4770   39.7790 C   0  0  0  0  0  0  0  0  0  0  0  0
   37.7290   29.3460   42.9360 C   0  0  0  0  0  0  0  0  0  0  0  0
   39.6650   26.2390   42.3700 C   0  0  0  0  0  0  0  0  0  0  0  0
   38.6490   25.2740   42.3110 C   0  0  0  0  0  0  0  0  0  0  0  0
   37.3410   25.6830   42.4610 C   0  0  0  0  0  0  0  0  0  0  0  0
   37.1050   26.9830   42.6570 N   0  0  0  0  0  0  0  0  0  0  0  0
   38.0930   27.9060   42.7130 C   0  0  0  0  0  0  0  0  0  0  0  0
   39.3480   27.5090   42.5680 N   0  0  0  0  0  0  0  0  0  0  0  0
   36.3790   24.7010   42.3950 O   0  0  0  0  0  0  0  0  0  0  0  0
   35.4989   29.3771   41.4271 H   0  0  0  0  0  0  0  0  0  0  0  0
   35.3121   30.5985   39.2795 H   0  0  0  0  0  0  0  0  0  0  0  0
   40.8736   30.7694   38.4041 H   0  0  0  0  0  0  0  0  0  0  0  0
   42.3086   32.8906   38.0527 H   0  0  0  0  0  0  0  0  0  0  0  0
   42.1002   35.5903   38.8272 H   0  0  0  0  0  0  0  0  0  0  0  0
   40.6967   37.2159   40.0594 H   0  0  0  0  0  0  0  0  0  0  0  0
   38.5627   36.4238   41.1495 H   0  0  0  0  0  0  0  0  0  0  0  0
   37.9713   34.0488   40.9364 H   0  0  0  0  0  0  0  0  0  0  0  0
   38.5427   29.8427   43.4848 H   0  0  0  0  0  0  0  0  0  0  0  0
   36.7948   29.3875   43.5153 H   0  0  0  0  0  0  0  0  0  0  0  0
   40.7178   25.9427   42.2526 H   0  0  0  0  0  0  0  0  0  0  0  0
   38.8907   24.2132   42.1485 H   0  0  0  0  0  0  0  0  0  0  0  0
   35.4229   24.9371   42.4960 H   0  0  0  0  0  0  0  0  0  0  0  0
  1 18  1  0
  2  1  1  0
  3  2  2  0
  4  3  1  0
  4  6  1  0
  5  4  2  0
  6  7  1  0
  7  1  1  0
  7  8  2  0
  9 17  1  0
  9  6  1  0
 10  9  2  0
 11 10  1  0
 11 12  1  0
 12 13  2  0
 12 17  1  0
 13 14  1  0
 14 15  2  0
 16 15  1  0
 17 16  2  0
 19 24  2  0
 20 19  1  0
 20 21  2  0
 21 22  1  0
 22 23  2  0
 23 18  1  0
 24 23  1  0
 25 21  1  0
  2 26  1  0
  3 27  1  0
 10 28  1  0
 11 29  1  0
 13 30  1  0
 14 31  1  0
 15 32  1  0
 16 33  1  0
 18 34  1  0
 18 35  1  0
 19 36  1  0
 20 37  1  0
 25 38  1  0
M  ISO  8  26  14  27  14  28  14  29   9  30  14  31  14  32  14  33  14
M  ISO  5  34   8  35   8  36  14  37  14  38   3
M  END
>  <minimizedAffinity>  (1) 
-6.48730373

>  <minimizedRMSD>  (1) 
0.118714906

$$$$
