
     RDKit          3D

 39 42  0  0  0  0  0  0  0  0999 V2000
   37.3820   29.8880   41.7700 N   0  0  0  0  0  0  0  0  0  0  0  0
   36.2310   29.7620   41.0750 C   0  0  0  0  0  0  0  0  0  0  0  0
   36.2120   30.3800   39.8520 C   0  0  0  0  0  0  0  0  0  0  0  0
   37.2430   31.0970   39.2960 C   0  0  0  0  0  0  0  0  0  0  0  0
   37.1950   31.6390   38.1970 O   0  0  0  0  0  0  0  0  0  0  0  0
   38.3490   31.1560   40.0850 N   0  0  0  0  0  0  0  0  0  0  0  0
   38.4340   30.5740   41.2930 C   0  0  0  0  0  0  0  0  0  0  0  0
   39.5180   30.6870   41.9560 O   0  0  0  0  0  0  0  0  0  0  0  0
   39.4950   31.8850   39.5990 C   0  0  0  0  0  0  0  0  0  0  0  0
   40.6280   31.5010   38.9100 C   0  0  0  0  0  0  0  0  0  0  0  0
   41.4050   32.5760   38.6870 N   0  0  0  0  0  0  0  0  0  0  0  0
   40.7740   33.6640   39.2340 C   0  0  0  0  0  0  0  0  0  0  0  0
   41.1250   34.9840   39.2890 C   0  0  0  0  0  0  0  0  0  0  0  0
   40.3220   35.9320   39.9040 C   0  0  0  0  0  0  0  0  0  0  0  0
   39.1170   35.5280   40.4840 C   0  0  0  0  0  0  0  0  0  0  0  0
   38.8080   34.1920   40.4020 C   0  0  0  0  0  0  0  0  0  0  0  0
   39.5950   33.2460   39.7970 C   0  0  0  0  0  0  0  0  0  0  0  0
   37.5360   29.2810   43.0810 C   0  0  0  0  0  0  0  0  0  0  0  0
   39.8460   26.3940   43.2380 C   0  0  0  0  0  0  0  0  0  0  0  0
   39.0640   25.3620   42.7270 C   0  0  0  0  0  0  0  0  0  0  0  0
   37.7730   25.6540   42.3390 C   0  0  0  0  0  0  0  0  0  0  0  0
   37.3150   26.9190   42.4660 N   0  0  0  0  0  0  0  0  0  0  0  0
   38.1060   27.9070   42.9690 C   0  0  0  0  0  0  0  0  0  0  0  0
   39.3500   27.6210   43.3430 N   0  0  0  0  0  0  0  0  0  0  0  0
   36.9270   24.5980   41.7990 C   0  0  0  0  0  0  0  0  0  0  0  0
   37.4370   23.5290   41.3720 O   0  0  0  0  0  0  0  0  0  0  0  0
   35.3679   29.2018   41.4639 H   0  0  0  0  0  0  0  0  0  0  0  0
   35.2874   30.2940   39.2623 H   0  0  0  0  0  0  0  0  0  0  0  0
   40.8597   30.4737   38.5922 H   0  0  0  0  0  0  0  0  0  0  0  0
   42.3097   32.5812   38.1947 H   0  0  0  0  0  0  0  0  0  0  0  0
   42.0730   35.3035   38.8316 H   0  0  0  0  0  0  0  0  0  0  0  0
   40.6294   36.9877   39.9349 H   0  0  0  0  0  0  0  0  0  0  0  0
   38.4480   36.2450   40.9823 H   0  0  0  0  0  0  0  0  0  0  0  0
   37.8624   33.8574   40.8536 H   0  0  0  0  0  0  0  0  0  0  0  0
   38.2108   29.9022   43.6883 H   0  0  0  0  0  0  0  0  0  0  0  0
   36.5455   29.2126   43.5546 H   0  0  0  0  0  0  0  0  0  0  0  0
   40.8794   26.1920   43.5562 H   0  0  0  0  0  0  0  0  0  0  0  0
   39.4646   24.3417   42.6351 H   0  0  0  0  0  0  0  0  0  0  0  0
   35.8362   24.7354   41.7641 H   0  0  0  0  0  0  0  0  0  0  0  0
  1 18  1  0
  2  1  1  0
  3  2  2  0
  4  3  1  0
  4  6  1  0
  5  4  2  0
  6  7  1  0
  7  1  1  0
  7  8  2  0
  9 17  1  0
  9  6  1  0
 10  9  2  0
 11 10  1  0
 11 12  1  0
 12 13  2  0
 12 17  1  0
 13 14  1  0
 14 15  2  0
 16 15  1  0
 17 16  2  0
 19 24  2  0
 20 19  1  0
 21 22  1  0
 21 20  2  0
 22 23  2  0
 23 18  1  0
 23 24  1  0
 25 21  1  0
 26 25  2  0
  2 27  1  0
  3 28  1  0
 10 29  1  0
 11 30  1  0
 13 31  1  0
 14 32  1  0
 15 33  1  0
 16 34  1  0
 18 35  1  0
 18 36  1  0
 19 37  1  0
 20 38  1  0
 25 39  1  0
M  ISO  8  27  14  28  14  29  14  30   9  31  14  32  14  33  14  34  14
M  ISO  5  35   8  36   8  37  14  38  14  39   6
M  END
>  <minimizedAffinity>  (1) 
-6.47195148

>  <minimizedRMSD>  (1) 
0.5988397

$$$$
