
     RDKit          3D

 28 30  0  0  0  0  0  0  0  0999 V2000
   37.6140   28.0220   43.8030 C   0  0  0  0  0  0  0  0  0  0  0  0
   36.7940   28.0820   44.7620 O   0  0  0  0  0  0  0  0  0  0  0  0
   38.5620   26.9530   43.5020 C   0  0  0  0  0  0  0  0  0  0  0  0
   39.8650   26.9400   44.0100 C   0  0  0  0  0  0  0  0  0  0  0  0
   40.7930   25.9560   43.7490 C   0  0  0  0  0  0  0  0  0  0  0  0
   40.4330   24.9070   42.9380 C   0  0  0  0  0  0  0  0  0  0  0  0
   39.1620   24.8590   42.4050 C   0  0  0  0  0  0  0  0  0  0  0  0
   38.8200   23.7980   41.5930 C   0  0  0  0  0  0  0  0  0  0  0  0
   37.5600   23.7080   41.0390 C   0  0  0  0  0  0  0  0  0  0  0  0
   36.6680   24.7130   41.3260 C   0  0  0  0  0  0  0  0  0  0  0  0
   37.0390   25.7610   42.1410 C   0  0  0  0  0  0  0  0  0  0  0  0
   38.2780   25.8730   42.7010 C   0  0  0  0  0  0  0  0  0  0  0  0
   39.1060   30.8070   41.9000 C   0  0  0  0  0  0  0  0  0  0  0  0
   38.9440   29.7950   42.8520 C   0  0  0  0  0  0  0  0  0  0  0  0
   37.7450   29.0650   42.8000 C   0  0  0  0  0  0  0  0  0  0  0  0
   36.8160   29.3540   41.8630 N   0  0  0  0  0  0  0  0  0  0  0  0
   37.0310   30.3500   40.9630 C   0  0  0  0  0  0  0  0  0  0  0  0
   38.1690   31.0800   40.9730 N   0  0  0  0  0  0  0  0  0  0  0  0
   40.1694   27.7719   44.6621 H   0  0  0  0  0  0  0  0  0  0  0  0
   41.8030   26.0091   44.1816 H   0  0  0  0  0  0  0  0  0  0  0  0
   41.1558   24.1085   42.7147 H   0  0  0  0  0  0  0  0  0  0  0  0
   39.5619   23.0131   41.3844 H   0  0  0  0  0  0  0  0  0  0  0  0
   37.2799   22.8637   40.3920 H   0  0  0  0  0  0  0  0  0  0  0  0
   35.6529   24.6811   40.9033 H   0  0  0  0  0  0  0  0  0  0  0  0
   36.2984   26.5469   42.3505 H   0  0  0  0  0  0  0  0  0  0  0  0
   40.0319   31.4008   41.9093 H   0  0  0  0  0  0  0  0  0  0  0  0
   39.7175   29.5813   43.6044 H   0  0  0  0  0  0  0  0  0  0  0  0
   36.2606   30.5672   40.2085 H   0  0  0  0  0  0  0  0  0  0  0  0
  1  2  2  0
  3  1  1  0
  3  4  2  0
  5  4  1  0
  6  5  2  0
  7 12  2  0
  7  6  1  0
  8  7  1  0
  9 10  1  0
  9  8  2  0
 10 11  2  0
 11 12  1  0
 12  3  1  0
 13 14  2  0
 15 14  1  0
 15  1  1  0
 16 15  2  0
 17 18  2  0
 17 16  1  0
 18 13  1  0
  4 19  1  0
  5 20  1  0
  6 21  1  0
  8 22  1  0
  9 23  1  0
 10 24  1  0
 11 25  1  0
 13 26  1  0
 14 27  1  0
 17 28  1  0
M  ISO  8  19  14  20  14  21  14  22  14  23  14  24  14  25  14  26  14
M  ISO  2  27  14  28  14
M  END
>  <minimizedAffinity>  (1) 
-5.91293287

>  <minimizedRMSD>  (1) 
1.3501159

$$$$
