
     RDKit          3D

 20 21  0  0  0  0  0  0  0  0999 V2000
   39.1950   31.0910   41.7790 C   0  0  0  0  0  0  0  0  0  0  0  0
   39.0310   30.0180   42.6710 C   0  0  0  0  0  0  0  0  0  0  0  0
   37.8070   29.3730   42.6580 C   0  0  0  0  0  0  0  0  0  0  0  0
   36.8400   29.7890   41.8100 N   0  0  0  0  0  0  0  0  0  0  0  0
   37.0330   30.8230   40.9660 C   0  0  0  0  0  0  0  0  0  0  0  0
   38.2020   31.4720   40.9470 N   0  0  0  0  0  0  0  0  0  0  0  0
   37.6510   28.2660   43.5860 C   0  0  0  0  0  0  0  0  0  0  0  0
   36.9730   28.3200   44.6380 O   0  0  0  0  0  0  0  0  0  0  0  0
   38.3220   26.9750   43.2990 C   0  0  0  0  0  0  0  0  0  0  0  0
   39.5120   26.6930   43.9300 C   0  0  0  0  0  0  0  0  0  0  0  0
   40.0800   25.4660   43.6110 C   0  0  0  0  0  0  0  0  0  0  0  0
   39.5060   24.6140   42.7460 N   0  0  0  0  0  0  0  0  0  0  0  0
   38.3240   24.9270   42.1380 C   0  0  0  0  0  0  0  0  0  0  0  0
   37.7570   26.1120   42.4340 N   0  0  0  0  0  0  0  0  0  0  0  0
   40.1525   31.6321   41.7579 H   0  0  0  0  0  0  0  0  0  0  0  0
   39.8388   29.7050   43.3488 H   0  0  0  0  0  0  0  0  0  0  0  0
   36.2238   31.1344   40.2891 H   0  0  0  0  0  0  0  0  0  0  0  0
   39.9814   27.3914   44.6385 H   0  0  0  0  0  0  0  0  0  0  0  0
   41.0323   25.1826   44.0830 H   0  0  0  0  0  0  0  0  0  0  0  0
   37.8498   24.2328   41.4286 H   0  0  0  0  0  0  0  0  0  0  0  0
  1  2  2  0
  3  2  1  0
  3  7  1  0
  4  3  2  0
  5  4  1  0
  6  5  2  0
  6  1  1  0
  7  8  2  0
  9  7  1  0
  9 10  2  0
 11 10  1  0
 12 11  2  0
 13 14  2  0
 13 12  1  0
 14  9  1  0
  1 15  1  0
  2 16  1  0
  5 17  1  0
 10 18  1  0
 11 19  1  0
 13 20  1  0
M  ISO  6  15  14  16  14  17  14  18  14  19  14  20  14
M  END
>  <minimizedAffinity>  (1) 
-4.3689208

>  <minimizedRMSD>  (1) 
0.742158234

$$$$
