
     RDKit          3D

 20 21  0  0  0  0  0  0  0  0999 V2000
   39.2140   31.0860   41.7920 C   0  0  0  0  0  0  0  0  0  0  0  0
   39.0500   30.0140   42.7010 C   0  0  0  0  0  0  0  0  0  0  0  0
   37.8230   29.3720   42.6860 C   0  0  0  0  0  0  0  0  0  0  0  0
   36.8580   29.7800   41.8330 N   0  0  0  0  0  0  0  0  0  0  0  0
   37.0560   30.8160   40.9740 C   0  0  0  0  0  0  0  0  0  0  0  0
   38.2320   31.4790   40.9430 N   0  0  0  0  0  0  0  0  0  0  0  0
   37.6380   28.2850   43.5980 C   0  0  0  0  0  0  0  0  0  0  0  0
   36.9780   28.3170   44.6490 O   0  0  0  0  0  0  0  0  0  0  0  0
   38.2880   26.9980   43.2680 C   0  0  0  0  0  0  0  0  0  0  0  0
   39.4850   26.6870   43.9250 C   0  0  0  0  0  0  0  0  0  0  0  0
   40.1190   25.4750   43.6300 C   0  0  0  0  0  0  0  0  0  0  0  0
   39.5430   24.6710   42.7300 N   0  0  0  0  0  0  0  0  0  0  0  0
   38.3900   24.9670   42.0950 C   0  0  0  0  0  0  0  0  0  0  0  0
   37.7770   26.1310   42.3750 N   0  0  0  0  0  0  0  0  0  0  0  0
   40.1749   31.6212   41.7732 H   0  0  0  0  0  0  0  0  0  0  0  0
   39.8554   29.7065   43.3842 H   0  0  0  0  0  0  0  0  0  0  0  0
   36.2458   31.1183   40.2942 H   0  0  0  0  0  0  0  0  0  0  0  0
   39.9185   27.3822   44.6590 H   0  0  0  0  0  0  0  0  0  0  0  0
   41.0611   25.1926   44.1227 H   0  0  0  0  0  0  0  0  0  0  0  0
   37.9592   24.2692   41.3618 H   0  0  0  0  0  0  0  0  0  0  0  0
  1  2  2  0
  3  2  1  0
  3  7  1  0
  4  3  2  0
  5  4  1  0
  6  5  2  0
  6  1  1  0
  7  8  2  0
  9  7  1  0
  9 10  2  0
 11 10  1  0
 12 11  2  0
 13 14  2  0
 13 12  1  0
 14  9  1  0
  1 15  1  0
  2 16  1  0
  5 17  1  0
 10 18  1  0
 11 19  1  0
 13 20  1  0
M  ISO  6  15  14  16  14  17  14  18  14  19  14  20  14
M  END
>  <minimizedAffinity>  (1) 
-4.35468674

>  <minimizedRMSD>  (1) 
1.2106241

$$$$
