
     RDKit          3D

 19 20  0  0  0  0  0  0  0  0999 V2000
   39.2070   31.0980   41.7730 C   0  0  0  0  0  0  0  0  0  0  0  0
   39.0550   30.0240   42.6650 C   0  0  0  0  0  0  0  0  0  0  0  0
   37.8140   29.3700   42.6640 C   0  0  0  0  0  0  0  0  0  0  0  0
   36.8360   29.8030   41.8120 N   0  0  0  0  0  0  0  0  0  0  0  0
   37.0460   30.8450   40.9760 C   0  0  0  0  0  0  0  0  0  0  0  0
   38.2250   31.5010   40.9460 N   0  0  0  0  0  0  0  0  0  0  0  0
   37.6770   28.2750   43.5840 C   0  0  0  0  0  0  0  0  0  0  0  0
   36.9700   28.3020   44.6160 O   0  0  0  0  0  0  0  0  0  0  0  0
   38.3970   27.0260   43.3290 C   0  0  0  0  0  0  0  0  0  0  0  0
   39.5680   26.6440   43.9580 C   0  0  0  0  0  0  0  0  0  0  0  0
   39.9470   25.4130   43.4600 C   0  0  0  0  0  0  0  0  0  0  0  0
   39.0180   25.0760   42.5550 N   0  0  0  0  0  0  0  0  0  0  0  0
   38.0840   26.0220   42.4590 N   0  0  0  0  0  0  0  0  0  0  0  0
   40.1685   31.6318   41.7494 H   0  0  0  0  0  0  0  0  0  0  0  0
   39.8707   29.7104   43.3330 H   0  0  0  0  0  0  0  0  0  0  0  0
   36.2362   31.1657   40.3041 H   0  0  0  0  0  0  0  0  0  0  0  0
   40.1056   27.2220   44.7241 H   0  0  0  0  0  0  0  0  0  0  0  0
   40.8325   24.8274   43.7480 H   0  0  0  0  0  0  0  0  0  0  0  0
   39.0248   24.2036   42.0074 H   0  0  0  0  0  0  0  0  0  0  0  0
  1  2  2  0
  3  2  1  0
  3  7  1  0
  4  3  2  0
  5  4  1  0
  6  5  2  0
  6  1  1  0
  7  8  2  0
  9  7  1  0
  9 10  1  0
 11 10  2  0
 12 11  1  0
 13 12  1  0
 13  9  2  0
  1 14  1  0
  2 15  1  0
  5 16  1  0
 10 17  1  0
 11 18  1  0
 12 19  1  0
M  ISO  6  14  14  15  14  16  14  17  14  18  14  19   9
M  END
>  <minimizedAffinity>  (1) 
-4.11097383

>  <minimizedRMSD>  (1) 
0.706978679

$$$$
