
     RDKit          3D

 24 25  0  0  0  0  0  0  0  0999 V2000
   39.2980   31.2500   41.7110 C   0  0  0  0  0  0  0  0  0  0  0  0
   39.1660   30.1430   42.5550 C   0  0  0  0  0  0  0  0  0  0  0  0
   37.9370   29.4680   42.5710 C   0  0  0  0  0  0  0  0  0  0  0  0
   36.9640   29.9430   41.7600 N   0  0  0  0  0  0  0  0  0  0  0  0
   37.1180   31.0070   40.9600 C   0  0  0  0  0  0  0  0  0  0  0  0
   38.2750   31.6660   40.9270 N   0  0  0  0  0  0  0  0  0  0  0  0
   37.8230   28.3370   43.4420 C   0  0  0  0  0  0  0  0  0  0  0  0
   37.0200   28.2670   44.3920 O   0  0  0  0  0  0  0  0  0  0  0  0
   38.5670   27.1210   43.4050 N   0  0  0  0  0  0  0  0  0  0  0  0
   38.1030   25.9870   42.6270 C   0  0  0  0  0  0  0  0  0  0  0  0
   39.3680   25.7100   41.8180 C   0  0  0  0  0  0  0  0  0  0  0  0
   40.3980   25.6910   42.9260 C   0  0  0  0  0  0  0  0  0  0  0  0
   39.7840   26.5930   43.9620 C   0  0  0  0  0  0  0  0  0  0  0  0
   40.2533   31.7947   41.6832 H   0  0  0  0  0  0  0  0  0  0  0  0
   40.0021   29.8112   43.1881 H   0  0  0  0  0  0  0  0  0  0  0  0
   36.2826   31.3386   40.3258 H   0  0  0  0  0  0  0  0  0  0  0  0
   37.8283   25.1346   43.2658 H   0  0  0  0  0  0  0  0  0  0  0  0
   37.1941   26.1640   42.0333 H   0  0  0  0  0  0  0  0  0  0  0  0
   39.3138   24.7433   41.2959 H   0  0  0  0  0  0  0  0  0  0  0  0
   39.5689   26.4341   41.0147 H   0  0  0  0  0  0  0  0  0  0  0  0
   40.5392   24.6734   43.3192 H   0  0  0  0  0  0  0  0  0  0  0  0
   41.3968   26.0165   42.5998 H   0  0  0  0  0  0  0  0  0  0  0  0
   40.4749   27.4144   44.2025 H   0  0  0  0  0  0  0  0  0  0  0  0
   39.5782   26.0370   44.8886 H   0  0  0  0  0  0  0  0  0  0  0  0
  1  2  2  0
  2  3  1  0
  3  7  1  0
  4  3  2  0
  5  4  1  0
  6  5  2  0
  6  1  1  0
  7  8  2  0
  9  7  1  0
  9 13  1  0
 10  9  1  0
 11 10  1  0
 11 12  1  0
 12 13  1  0
  1 14  1  0
  2 15  1  0
  5 16  1  0
 10 17  1  0
 10 18  1  0
 11 19  1  0
 11 20  1  0
 12 21  1  0
 12 22  1  0
 13 23  1  0
 13 24  1  0
M  ISO  8  14  14  15  14  16  14  17  13  18  13  19  13  20  13  21  13
M  ISO  3  22  13  23  13  24  13
M  END
>  <minimizedAffinity>  (1) 
-4.06433344

>  <minimizedRMSD>  (1) 
1.10245788

$$$$
