
     RDKit          3D

 19 20  0  0  0  0  0  0  0  0999 V2000
   39.3920   30.7290   42.0750 C   0  0  0  0  0  0  0  0  0  0  0  0
   38.9050   29.6480   42.8170 C   0  0  0  0  0  0  0  0  0  0  0  0
   37.5930   29.2340   42.6540 C   0  0  0  0  0  0  0  0  0  0  0  0
   36.8240   29.9140   41.7620 N   0  0  0  0  0  0  0  0  0  0  0  0
   37.3110   30.9540   41.0550 C   0  0  0  0  0  0  0  0  0  0  0  0
   38.5710   31.3620   41.2010 N   0  0  0  0  0  0  0  0  0  0  0  0
   37.1400   28.1230   43.4360 C   0  0  0  0  0  0  0  0  0  0  0  0
   36.9250   28.1460   44.6610 O   0  0  0  0  0  0  0  0  0  0  0  0
   36.8660   26.7810   42.8540 C   0  0  0  0  0  0  0  0  0  0  0  0
   37.2070   26.4940   41.4420 C   0  0  0  0  0  0  0  0  0  0  0  0
   38.0990   25.9620   42.5100 C   0  0  0  0  0  0  0  0  0  0  0  0
   40.4327   31.0630   42.1995 H   0  0  0  0  0  0  0  0  0  0  0  0
   39.5626   29.1274   43.5288 H   0  0  0  0  0  0  0  0  0  0  0  0
   36.6546   31.4761   40.3433 H   0  0  0  0  0  0  0  0  0  0  0  0
   35.9472   26.6543   43.4454 H   0  0  0  0  0  0  0  0  0  0  0  0
   37.5607   27.3063   40.7901 H   0  0  0  0  0  0  0  0  0  0  0  0
   36.6661   26.0431   40.5970 H   0  0  0  0  0  0  0  0  0  0  0  0
   38.1234   24.8832   42.7235 H   0  0  0  0  0  0  0  0  0  0  0  0
   39.1728   26.0275   42.7394 H   0  0  0  0  0  0  0  0  0  0  0  0
  1  2  2  0
  3  2  1  0
  3  7  1  0
  4  3  2  0
  5  6  2  0
  5  4  1  0
  6  1  1  0
  7  8  2  0
  9  7  1  0
 10 11  1  0
 10  9  1  0
 11  9  1  0
  1 12  1  0
  2 13  1  0
  5 14  1  0
  9 15  1  0
 10 16  1  0
 10 17  1  0
 11 18  1  0
 11 19  1  0
M  ISO  8  12  14  13  14  14  14  15  13  16  13  17  13  18  13  19  13
M  END
>  <minimizedAffinity>  (1) 
-3.65141392

>  <minimizedRMSD>  (1) 
0.638479412

$$$$
