
     RDKit          3D

 39 42  0  0  1  0  0  0  0  0999 V2000
   38.0920   27.9960   43.3710 C   0  0  0  0  0  0  0  0  0  0  0  0
   37.3670   28.1190   44.3860 O   0  0  0  0  0  0  0  0  0  0  0  0
   38.2690   26.6820   42.8020 N   0  0  0  0  0  0  0  0  0  0  0  0
   39.5140   25.9540   42.9980 C   0  0  0  0  0  0  0  0  0  0  0  0
   39.3340   24.4660   43.1030 C   0  0  0  0  0  0  0  0  0  0  0  0
   38.4360   23.9250   42.1160 N   0  0  0  0  0  0  0  0  0  0  0  0
   37.1480   24.5830   42.1260 C   0  0  0  0  0  0  0  0  0  0  0  0
   37.2180   26.0740   42.0350 C   0  0  2  0  0  0  0  0  0  0  0  0
   40.7900   30.2780   42.2560 C   0  0  0  0  0  0  0  0  0  0  0  0
   40.1330   29.2070   42.8640 C   0  0  0  0  0  0  0  0  0  0  0  0
   38.7610   29.1050   42.7410 C   0  0  0  0  0  0  0  0  0  0  0  0
   38.1310   30.0740   42.0250 N   0  0  0  0  0  0  0  0  0  0  0  0
   38.7740   31.0900   41.4540 C   0  0  0  0  0  0  0  0  0  0  0  0
   40.1120   31.2090   41.5580 N   0  0  0  0  0  0  0  0  0  0  0  0
   37.3030   26.5540   40.6780 N   0  0  0  0  0  0  0  0  0  0  0  0
   38.1520   26.0250   39.7720 C   0  0  0  0  0  0  0  0  0  0  0  0
   37.9890   26.6920   38.5970 N   0  0  0  0  0  0  0  0  0  0  0  0
   37.0460   27.6130   38.8060 C   0  0  0  0  0  0  0  0  0  0  0  0
   36.4480   28.5820   38.0260 C   0  0  0  0  0  0  0  0  0  0  0  0
   35.4860   29.4090   38.5060 N   0  0  0  0  0  0  0  0  0  0  0  0
   35.0660   29.3210   39.7870 C   0  0  0  0  0  0  0  0  0  0  0  0
   35.6390   28.3830   40.5630 N   0  0  0  0  0  0  0  0  0  0  0  0
   36.5860   27.5620   40.1040 C   0  0  0  0  0  0  0  0  0  0  0  0
   36.8190   28.7550   36.6650 N   0  0  0  0  0  0  0  0  0  0  0  0
   40.1770   26.1642   42.1458 H   0  0  0  0  0  0  0  0  0  0  0  0
   39.9382   26.2945   43.9541 H   0  0  0  0  0  0  0  0  0  0  0  0
   40.3165   23.9869   42.9797 H   0  0  0  0  0  0  0  0  0  0  0  0
   38.8914   24.2624   44.0892 H   0  0  0  0  0  0  0  0  0  0  0  0
   38.2973   22.9227   42.3084 H   0  0  0  0  0  0  0  0  0  0  0  0
   36.5652   24.2126   41.2697 H   0  0  0  0  0  0  0  0  0  0  0  0
   36.6817   24.3480   43.0942 H   0  0  0  0  0  0  0  0  0  0  0  0
   36.2611   26.3837   42.4803 H   0  0  0  0  0  0  0  0  0  0  0  0
   41.8828   30.3632   42.3488 H   0  0  0  0  0  0  0  0  0  0  0  0
   40.6996   28.4551   43.4328 H   0  0  0  0  0  0  0  0  0  0  0  0
   38.2049   31.8431   40.8892 H   0  0  0  0  0  0  0  0  0  0  0  0
   38.8543   25.1978   39.9522 H   0  0  0  0  0  0  0  0  0  0  0  0
   34.2862   29.9899   40.1802 H   0  0  0  0  0  0  0  0  0  0  0  0
   37.5445   28.1541   36.2486 H   0  0  0  0  0  0  0  0  0  0  0  0
   36.3624   29.4813   36.0951 H   0  0  0  0  0  0  0  0  0  0  0  0
  1  2  2  0
  3  4  1  0
  3  1  1  0
  4  5  1  0
  6  7  1  0
  6  5  1  0
  8  7  1  0
  8  3  1  0
  9 10  2  0
 11 10  1  0
 11  1  1  0
 12 11  2  0
 13 14  2  0
 13 12  1  0
 14  9  1  0
 15  8  1  0
 16 15  1  0
 17 18  1  0
 17 16  2  0
 18 23  2  0
 19 20  2  0
 19 18  1  0
 20 21  1  0
 21 22  2  0
 23 22  1  0
 23 15  1  0
 24 19  1  0
  4 25  1  0
  4 26  1  0
  5 27  1  0
  5 28  1  0
  6 29  1  0
  7 30  1  0
  7 31  1  0
  8 32  1  1
  9 33  1  0
 10 34  1  0
 13 35  1  0
 16 36  1  0
 21 37  1  0
 24 38  1  0
 24 39  1  0
M  ISO  8  25  13  26  13  27  13  28  13  29   5  30  13  31  13  32  13
M  ISO  5  33  14  34  14  35  14  36  14  37  14
M  END
>  <minimizedAffinity>  (1) 
-5.56898499

>  <minimizedRMSD>  (1) 
0.902822495

$$$$
