
     RDKit          3D

 33 35  0  0  1  0  0  0  0  0999 V2000
   37.4930   27.8550   43.3260 C   0  0  0  0  0  0  0  0  0  0  0  0
   36.8120   27.8290   44.3850 O   0  0  0  0  0  0  0  0  0  0  0  0
   38.1010   26.6250   42.8460 N   0  0  0  0  0  0  0  0  0  0  0  0
   39.5290   26.3960   42.9880 C   0  0  0  0  0  0  0  0  0  0  0  0
   39.8650   24.9700   43.2940 C   0  0  0  0  0  0  0  0  0  0  0  0
   39.1760   24.0370   42.4570 N   0  0  0  0  0  0  0  0  0  0  0  0
   37.7480   24.2150   42.4700 C   0  0  0  0  0  0  0  0  0  0  0  0
   37.2880   25.6230   42.2250 C   0  0  2  0  0  0  0  0  0  0  0  0
   39.1490   30.8580   41.9130 C   0  0  0  0  0  0  0  0  0  0  0  0
   38.9120   29.7040   42.6430 C   0  0  0  0  0  0  0  0  0  0  0  0
   37.7060   29.0550   42.5530 C   0  0  0  0  0  0  0  0  0  0  0  0
   36.7900   29.6120   41.7210 N   0  0  0  0  0  0  0  0  0  0  0  0
   37.0060   30.7200   41.0160 C   0  0  0  0  0  0  0  0  0  0  0  0
   38.1920   31.3590   41.1040 N   0  0  0  0  0  0  0  0  0  0  0  0
   36.9960   25.8400   40.8010 C   0  0  0  0  0  0  0  0  0  0  0  0
   36.9720   26.7420   39.6910 C   0  0  0  0  0  0  0  0  0  0  0  0
   36.5270   26.2640   38.4860 C   0  0  0  0  0  0  0  0  0  0  0  0
   36.0610   24.7670   38.3540 C   0  0  0  0  0  0  0  0  0  0  0  0
   36.3770   24.2780   40.1430 S   0  0  0  0  0  0  0  0  0  0  0  0
   40.0246   26.6789   42.0476 H   0  0  0  0  0  0  0  0  0  0  0  0
   39.8773   27.0052   43.8351 H   0  0  0  0  0  0  0  0  0  0  0  0
   40.9474   24.8288   43.1579 H   0  0  0  0  0  0  0  0  0  0  0  0
   39.5500   24.7748   44.3297 H   0  0  0  0  0  0  0  0  0  0  0  0
   39.3906   23.0837   42.7827 H   0  0  0  0  0  0  0  0  0  0  0  0
   37.3157   23.5727   41.6886 H   0  0  0  0  0  0  0  0  0  0  0  0
   37.4117   23.9507   43.4834 H   0  0  0  0  0  0  0  0  0  0  0  0
   36.3310   25.7511   42.7521 H   0  0  0  0  0  0  0  0  0  0  0  0
   40.1206   31.3674   41.9933 H   0  0  0  0  0  0  0  0  0  0  0  0
   39.6979   29.3044   43.3008 H   0  0  0  0  0  0  0  0  0  0  0  0
   36.2166   31.1159   40.3603 H   0  0  0  0  0  0  0  0  0  0  0  0
   37.3003   27.7861   39.8010 H   0  0  0  0  0  0  0  0  0  0  0  0
   36.4956   26.9281   37.6097 H   0  0  0  0  0  0  0  0  0  0  0  0
   35.6766   24.1943   37.4971 H   0  0  0  0  0  0  0  0  0  0  0  0
  1  2  2  0
  3  4  1  0
  3  1  1  0
  4  5  1  0
  6  7  1  0
  6  5  1  0
  8  7  1  0
  8  3  1  0
  9 10  2  0
 11 10  1  0
 11  1  1  0
 12 11  2  0
 13 14  2  0
 13 12  1  0
 14  9  1  0
 15  8  1  0
 16 15  2  0
 17 16  1  0
 18 17  2  0
 18 19  1  0
 19 15  1  0
  4 20  1  0
  4 21  1  0
  5 22  1  0
  5 23  1  0
  6 24  1  0
  7 25  1  0
  7 26  1  0
  8 27  1  1
  9 28  1  0
 10 29  1  0
 13 30  1  0
 16 31  1  0
 17 32  1  0
 18 33  1  0
M  ISO  8  20  13  21  13  22  13  23  13  24   5  25  13  26  13  27  13
M  ISO  6  28  14  29  14  30  14  31  14  32  14  33  14
M  END
>  <minimizedAffinity>  (1) 
-5.11493731

>  <minimizedRMSD>  (1) 
0.318129629

$$$$
