
     RDKit          3D

 39 41  0  0  1  0  0  0  0  0999 V2000
   37.6060   28.1410   43.3620 C   0  0  0  0  0  0  0  0  0  0  0  0
   37.1800   28.1870   44.5350 O   0  0  0  0  0  0  0  0  0  0  0  0
   38.8170   27.3910   43.0870 N   0  0  0  0  0  0  0  0  0  0  0  0
   40.0710   28.0470   42.8490 C   0  0  0  0  0  0  0  0  0  0  0  0
   41.2570   27.3060   43.3640 C   0  0  0  0  0  0  0  0  0  0  0  0
   41.2340   25.9130   43.0590 N   0  0  0  0  0  0  0  0  0  0  0  0
   40.0130   25.2610   43.4860 C   0  0  0  0  0  0  0  0  0  0  0  0
   38.7630   25.9360   43.0490 C   0  0  2  0  0  0  0  0  0  0  0  0
   36.6850   30.7660   40.9210 C   0  0  0  0  0  0  0  0  0  0  0  0
   37.3040   30.1150   41.9820 C   0  0  0  0  0  0  0  0  0  0  0  0
   36.9520   28.7970   42.2580 C   0  0  0  0  0  0  0  0  0  0  0  0
   36.0090   28.2170   41.4620 N   0  0  0  0  0  0  0  0  0  0  0  0
   35.4340   28.8770   40.4480 C   0  0  0  0  0  0  0  0  0  0  0  0
   35.7540   30.1520   40.1570 N   0  0  0  0  0  0  0  0  0  0  0  0
   38.1750   25.4630   41.8380 N   0  0  0  0  0  0  0  0  0  0  0  0
   39.0240   24.8880   40.8670 C   0  0  0  0  0  0  0  0  0  0  0  0
   38.7070   23.4230   40.5510 C   0  0  0  0  0  0  0  0  0  0  0  0
   37.3950   23.2160   40.2090 O   0  0  0  0  0  0  0  0  0  0  0  0
   36.4840   24.0750   40.7880 C   0  0  0  0  0  0  0  0  0  0  0  0
   36.9670   24.7190   42.0510 C   0  0  0  0  0  0  0  0  0  0  0  0
   40.1910   28.1778   41.7634 H   0  0  0  0  0  0  0  0  0  0  0  0
   40.0354   29.0025   43.3928 H   0  0  0  0  0  0  0  0  0  0  0  0
   42.1621   27.7450   42.9188 H   0  0  0  0  0  0  0  0  0  0  0  0
   41.2447   27.3974   44.4601 H   0  0  0  0  0  0  0  0  0  0  0  0
   41.3283   25.7984   42.0397 H   0  0  0  0  0  0  0  0  0  0  0  0
   40.0104   24.2387   43.0799 H   0  0  0  0  0  0  0  0  0  0  0  0
   40.0136   25.2898   44.5856 H   0  0  0  0  0  0  0  0  0  0  0  0
   38.0668   25.6173   43.8387 H   0  0  0  0  0  0  0  0  0  0  0  0
   36.9598   31.8074   40.6974 H   0  0  0  0  0  0  0  0  0  0  0  0
   38.0586   30.6324   42.5926 H   0  0  0  0  0  0  0  0  0  0  0  0
   34.6788   28.3626   39.8356 H   0  0  0  0  0  0  0  0  0  0  0  0
   38.9313   25.4701   39.9382 H   0  0  0  0  0  0  0  0  0  0  0  0
   40.0427   24.9109   41.2814 H   0  0  0  0  0  0  0  0  0  0  0  0
   39.3419   23.1009   39.7125 H   0  0  0  0  0  0  0  0  0  0  0  0
   38.9025   22.8418   41.4642 H   0  0  0  0  0  0  0  0  0  0  0  0
   36.2491   24.8688   40.0636 H   0  0  0  0  0  0  0  0  0  0  0  0
   35.6050   23.4707   41.0565 H   0  0  0  0  0  0  0  0  0  0  0  0
   37.1576   23.9364   42.8001 H   0  0  0  0  0  0  0  0  0  0  0  0
   36.1910   25.4167   42.3991 H   0  0  0  0  0  0  0  0  0  0  0  0
  1  2  2  0
  3  1  1  0
  4  3  1  0
  4  5  1  0
  6  5  1  0
  6  7  1  0
  8  3  1  0
  8  7  1  0
  9 10  2  0
 10 11  1  0
 11  1  1  0
 12 11  2  0
 13 12  1  0
 14 13  2  0
 14  9  1  0
 15 20  1  0
 15  8  1  0
 16 15  1  0
 17 16  1  0
 18 17  1  0
 18 19  1  0
 19 20  1  0
  4 21  1  0
  4 22  1  0
  5 23  1  0
  5 24  1  0
  6 25  1  0
  7 26  1  0
  7 27  1  0
  8 28  1  1
  9 29  1  0
 10 30  1  0
 13 31  1  0
 16 32  1  0
 16 33  1  0
 17 34  1  0
 17 35  1  0
 19 36  1  0
 19 37  1  0
 20 38  1  0
 20 39  1  0
M  ISO  8  21  13  22  13  23  13  24  13  25   5  26  13  27  13  28  13
M  ISO  8  29  14  30  14  31  14  32  13  33  13  34  13  35  13  36  13
M  ISO  3  37  13  38  13  39  13
M  END
>  <minimizedAffinity>  (1) 
-5.10852003

>  <minimizedRMSD>  (1) 
2.63651037

$$$$
