
     RDKit          3D

 33 35  0  0  1  0  0  0  0  0999 V2000
   37.5590   27.9110   43.1990 C   0  0  0  0  0  0  0  0  0  0  0  0
   36.6740   27.8710   44.1070 O   0  0  0  0  0  0  0  0  0  0  0  0
   38.2120   26.6910   42.8190 N   0  0  0  0  0  0  0  0  0  0  0  0
   39.5760   26.3980   43.2160 C   0  0  0  0  0  0  0  0  0  0  0  0
   39.8020   24.9410   43.5250 C   0  0  0  0  0  0  0  0  0  0  0  0
   39.2880   24.0820   42.5040 N   0  0  0  0  0  0  0  0  0  0  0  0
   37.8950   24.3060   42.2280 C   0  0  0  0  0  0  0  0  0  0  0  0
   37.4900   25.7170   42.0150 C   0  0  2  0  0  0  0  0  0  0  0  0
   39.5510   30.8810   42.2480 C   0  0  0  0  0  0  0  0  0  0  0  0
   39.1640   29.6940   42.8890 C   0  0  0  0  0  0  0  0  0  0  0  0
   37.9410   29.1320   42.5310 C   0  0  0  0  0  0  0  0  0  0  0  0
   37.1890   29.7580   41.5870 N   0  0  0  0  0  0  0  0  0  0  0  0
   37.5910   30.8860   41.0000 C   0  0  0  0  0  0  0  0  0  0  0  0
   38.7580   31.4670   41.3080 N   0  0  0  0  0  0  0  0  0  0  0  0
   37.4170   26.1220   40.5860 C   0  0  0  0  0  0  0  0  0  0  0  0
   36.3790   26.7920   39.9330 C   0  0  0  0  0  0  0  0  0  0  0  0
   36.7170   26.9730   38.6040 C   0  0  0  0  0  0  0  0  0  0  0  0
   37.9450   26.4100   38.4960 N   0  0  0  0  0  0  0  0  0  0  0  0
   38.3460   25.9140   39.6640 N   0  0  0  0  0  0  0  0  0  0  0  0
   40.2494   26.6906   42.3969 H   0  0  0  0  0  0  0  0  0  0  0  0
   39.7779   26.9637   44.1376 H   0  0  0  0  0  0  0  0  0  0  0  0
   40.8832   24.7643   43.6243 H   0  0  0  0  0  0  0  0  0  0  0  0
   39.2687   24.7092   44.4587 H   0  0  0  0  0  0  0  0  0  0  0  0
   39.8237   24.2434   41.6392 H   0  0  0  0  0  0  0  0  0  0  0  0
   37.6376   23.7418   41.3195 H   0  0  0  0  0  0  0  0  0  0  0  0
   37.3588   23.9780   43.1307 H   0  0  0  0  0  0  0  0  0  0  0  0
   36.4576   25.7304   42.3944 H   0  0  0  0  0  0  0  0  0  0  0  0
   40.5126   31.3469   42.5095 H   0  0  0  0  0  0  0  0  0  0  0  0
   39.8052   29.2232   43.6488 H   0  0  0  0  0  0  0  0  0  0  0  0
   36.9457   31.3527   40.2411 H   0  0  0  0  0  0  0  0  0  0  0  0
   35.4408   27.1233   40.4020 H   0  0  0  0  0  0  0  0  0  0  0  0
   36.1251   27.4616   37.8160 H   0  0  0  0  0  0  0  0  0  0  0  0
   38.4947   26.3712   37.6258 H   0  0  0  0  0  0  0  0  0  0  0  0
  1  2  2  0
  3  1  1  0
  3  4  1  0
  4  5  1  0
  6  5  1  0
  7  6  1  0
  8  7  1  0
  8  3  1  0
  9 10  2  0
 11 10  1  0
 11  1  1  0
 12 11  2  0
 13 14  2  0
 13 12  1  0
 14  9  1  0
 15  8  1  0
 16 15  1  0
 17 16  2  0
 18 17  1  0
 18 19  1  0
 19 15  2  0
  4 20  1  0
  4 21  1  0
  5 22  1  0
  5 23  1  0
  6 24  1  0
  7 25  1  0
  7 26  1  0
  8 27  1  1
  9 28  1  0
 10 29  1  0
 13 30  1  0
 16 31  1  0
 17 32  1  0
 18 33  1  0
M  ISO  8  20  13  21  13  22  13  23  13  24   5  25  13  26  13  27  13
M  ISO  6  28  14  29  14  30  14  31  14  32  14  33   9
M  END
>  <minimizedAffinity>  (1) 
-4.85269737

>  <minimizedRMSD>  (1) 
0.572339177

$$$$
