
     RDKit          3D

 50 53  0  0  1  0  0  0  0  0999 V2000
   39.3500   28.1260   42.3130 C   0  0  2  0  0  0  0  0  0  0  0  0
   40.5280   27.1600   42.1930 C   0  0  2  0  0  0  0  0  0  0  0  0
   40.2100   25.9000   41.5320 C   0  0  0  0  0  0  0  0  0  0  0  0
   40.6430   24.7460   42.4140 C   0  0  0  0  0  0  0  0  0  0  0  0
   41.4560   25.3510   43.5170 C   0  0  0  0  0  0  0  0  0  0  0  0
   40.9290   26.7620   43.5960 C   0  0  1  0  0  0  0  0  0  0  0  0
   41.9810   27.5880   44.1920 C   0  0  0  0  0  0  0  0  0  0  0  0
   42.4970   27.2280   45.4220 C   0  0  0  0  0  0  0  0  0  0  0  0
   43.4960   27.9730   46.0340 C   0  0  0  0  0  0  0  0  0  0  0  0
   44.0220   29.1130   45.4380 C   0  0  0  0  0  0  0  0  0  0  0  0
   43.4990   29.4740   44.1950 C   0  0  0  0  0  0  0  0  0  0  0  0
   42.5010   28.7180   43.5960 C   0  0  0  0  0  0  0  0  0  0  0  0
   38.1660   27.4350   42.7200 N   0  0  0  0  0  0  0  0  0  0  0  0
   37.1710   28.0670   43.5040 C   0  0  0  0  0  0  0  0  0  0  0  0
   37.3890   29.2690   43.9240 N   0  0  0  0  0  0  0  0  0  0  0  0
   35.9800   27.3970   43.8110 N   0  0  0  0  0  0  0  0  0  0  0  0
   36.6740   29.7730   44.4870 H   0  0  0  0  0  0  0  0  0  0  0  0
   38.5740   29.1900   38.9420 C   0  0  0  0  0  0  0  0  0  0  0  0
   39.3370   30.2680   39.3840 C   0  0  0  0  0  0  0  0  0  0  0  0
   39.6720   29.9330   40.6670 C   0  0  0  0  0  0  0  0  0  0  0  0
   39.1430   28.7220   40.9910 N   0  0  0  0  0  0  0  0  0  0  0  0
   38.4820   28.2870   39.9360 N   0  0  0  0  0  0  0  0  0  0  0  0
   38.1430   28.0080   36.7620 C   0  0  0  0  0  0  0  0  0  0  0  0
   37.9840   29.0830   37.6180 C   0  0  0  0  0  0  0  0  0  0  0  0
   37.2060   30.1310   37.1790 C   0  0  0  0  0  0  0  0  0  0  0  0
   36.6150   30.1050   35.9430 N   0  0  0  0  0  0  0  0  0  0  0  0
   36.8200   28.9860   35.1310 C   0  0  0  0  0  0  0  0  0  0  0  0
   37.5970   27.9380   35.5690 N   0  0  0  0  0  0  0  0  0  0  0  0
   39.5654   28.8953   43.0692 H   0  0  0  0  0  0  0  0  0  0  0  0
   41.2960   27.6855   41.6065 H   0  0  0  0  0  0  0  0  0  0  0  0
   39.1257   25.8410   41.3564 H   0  0  0  0  0  0  0  0  0  0  0  0
   40.7397   25.8459   40.5695 H   0  0  0  0  0  0  0  0  0  0  0  0
   39.7637   24.2295   42.8265 H   0  0  0  0  0  0  0  0  0  0  0  0
   41.2228   24.0021   41.8479 H   0  0  0  0  0  0  0  0  0  0  0  0
   41.2959   24.8160   44.4647 H   0  0  0  0  0  0  0  0  0  0  0  0
   42.5392   25.3038   43.3317 H   0  0  0  0  0  0  0  0  0  0  0  0
   40.0390   26.8820   44.2313 H   0  0  0  0  0  0  0  0  0  0  0  0
   42.1079   26.3318   45.9273 H   0  0  0  0  0  0  0  0  0  0  0  0
   43.8803   27.6534   47.0139 H   0  0  0  0  0  0  0  0  0  0  0  0
   44.8134   29.7033   45.9230 H   0  0  0  0  0  0  0  0  0  0  0  0
   43.8828   30.3691   43.6837 H   0  0  0  0  0  0  0  0  0  0  0  0
   42.1126   29.0298   42.6152 H   0  0  0  0  0  0  0  0  0  0  0  0
   38.0340   26.4538   42.4359 H   0  0  0  0  0  0  0  0  0  0  0  0
   35.2598   27.8622   44.3819 H   0  0  0  0  0  0  0  0  0  0  0  0
   35.8243   26.4391   43.4659 H   0  0  0  0  0  0  0  0  0  0  0  0
   39.6077   31.1785   38.8293 H   0  0  0  0  0  0  0  0  0  0  0  0
   40.2816   30.5535   41.3403 H   0  0  0  0  0  0  0  0  0  0  0  0
   38.7619   27.1635   37.0994 H   0  0  0  0  0  0  0  0  0  0  0  0
   37.0564   31.0038   37.8316 H   0  0  0  0  0  0  0  0  0  0  0  0
   36.3567   28.9427   34.1342 H   0  0  0  0  0  0  0  0  0  0  0  0
  1 13  1  0
  2  1  1  0
  2  6  1  0
  3  2  1  0
  3  4  1  0
  4  5  1  0
  5  6  1  0
  6  7  1  0
  7  8  2  0
  8  9  1  0
 10  9  2  0
 11 10  1  0
 12  7  1  0
 12 11  2  0
 13 14  1  0
 14 16  1  0
 14 15  2  0
 15 17  1  0
 18 19  1  0
 18 22  2  0
 19 20  2  0
 20 21  1  0
 21  1  1  0
 22 21  1  0
 23 24  2  0
 24 18  1  0
 25 24  1  0
 26 25  2  0
 27 28  2  0
 27 26  1  0
 28 23  1  0
  1 29  1  1
  2 30  1  6
  3 31  1  0
  3 32  1  0
  4 33  1  0
  4 34  1  0
  5 35  1  0
  5 36  1  0
  6 37  1  1
  8 38  1  0
  9 39  1  0
 10 40  1  0
 11 41  1  0
 12 42  1  0
 13 43  1  0
 16 44  1  0
 16 45  1  0
 19 46  1  0
 20 47  1  0
 23 48  1  0
 25 49  1  0
 27 50  1  0
M  ISO  8  29   8  30  13  31  13  32  13  33  13  34  13  35  13  36  13
M  ISO  8  37  13  38  14  39  14  40  14  41  14  42  14  46  14  47  14
M  ISO  3  48  14  49  14  50  14
M  END
>  <minimizedAffinity>  (1) 
-5.7782383

>  <minimizedRMSD>  (1) 
0.595631897

$$$$
