
     RDKit          3D

 29 30  0  0  1  0  0  0  0  0999 V2000
   37.9410   27.9750   43.3110 C   0  0  0  0  0  0  0  0  0  0  0  0
   37.0760   27.7910   44.2140 O   0  0  0  0  0  0  0  0  0  0  0  0
   38.9120   26.9440   43.0370 N   0  0  0  0  0  0  0  0  0  0  0  0
   40.2810   27.0590   43.4700 C   0  0  0  0  0  0  0  0  0  0  0  0
   40.8950   25.7740   43.8990 C   0  0  0  0  0  0  0  0  0  0  0  0
   40.6300   24.6880   43.0040 N   0  0  0  0  0  0  0  0  0  0  0  0
   39.2290   24.5200   42.6980 C   0  0  0  0  0  0  0  0  0  0  0  0
   38.5130   25.7620   42.3120 C   0  0  1  0  0  0  0  0  0  0  0  0
   39.2190   31.1360   41.8620 C   0  0  0  0  0  0  0  0  0  0  0  0
   39.1420   29.9670   42.6100 C   0  0  0  0  0  0  0  0  0  0  0  0
   38.0060   29.1950   42.5230 C   0  0  0  0  0  0  0  0  0  0  0  0
   37.0140   29.6260   41.7010 N   0  0  0  0  0  0  0  0  0  0  0  0
   37.1060   30.7500   40.9920 C   0  0  0  0  0  0  0  0  0  0  0  0
   38.2100   31.5250   41.0590 N   0  0  0  0  0  0  0  0  0  0  0  0
   37.0350   25.5460   42.5180 C   0  0  0  0  0  0  0  0  0  0  0  0
   40.8737   27.4631   42.6361 H   0  0  0  0  0  0  0  0  0  0  0  0
   40.2796   27.7181   44.3507 H   0  0  0  0  0  0  0  0  0  0  0  0
   41.9842   25.9133   43.9648 H   0  0  0  0  0  0  0  0  0  0  0  0
   40.4491   25.5101   44.8693 H   0  0  0  0  0  0  0  0  0  0  0  0
   41.1372   24.8600   42.1242 H   0  0  0  0  0  0  0  0  0  0  0  0
   39.1458   23.8064   41.8651 H   0  0  0  0  0  0  0  0  0  0  0  0
   38.7537   24.1695   43.6260 H   0  0  0  0  0  0  0  0  0  0  0  0
   38.7722   25.9500   41.2596 H   0  0  0  0  0  0  0  0  0  0  0  0
   40.1243   31.7574   41.9273 H   0  0  0  0  0  0  0  0  0  0  0  0
   39.9754   29.6639   43.2608 H   0  0  0  0  0  0  0  0  0  0  0  0
   36.2708   31.0512   40.3426 H   0  0  0  0  0  0  0  0  0  0  0  0
   36.8158   25.5140   43.5955 H   0  0  0  0  0  0  0  0  0  0  0  0
   36.4756   26.3719   42.0544 H   0  0  0  0  0  0  0  0  0  0  0  0
   36.7354   24.5945   42.0544 H   0  0  0  0  0  0  0  0  0  0  0  0
  1  2  2  0
  3  1  1  0
  3  4  1  0
  4  5  1  0
  6  5  1  0
  7  6  1  0
  8 15  1  0
  8  7  1  0
  8  3  1  0
  9 10  2  0
 11 10  1  0
 11  1  1  0
 12 11  2  0
 13 14  2  0
 13 12  1  0
 14  9  1  0
  4 16  1  0
  4 17  1  0
  5 18  1  0
  5 19  1  0
  6 20  1  0
  7 21  1  0
  7 22  1  0
  8 23  1  6
  9 24  1  0
 10 25  1  0
 13 26  1  0
 15 27  1  0
 15 28  1  0
 15 29  1  0
M  ISO  8  16  13  17  13  18  13  19  13  20   5  21  13  22  13  23  13
M  ISO  6  24  14  25  14  26  14  27   8  28   8  29   8
M  END
>  <minimizedAffinity>  (1) 
-4.50744867

>  <minimizedRMSD>  (1) 
1.06234908

$$$$
