
     RDKit          3D

 36 38  0  0  1  0  0  0  0  0999 V2000
   37.4280   27.7940   43.2190 C   0  0  0  0  0  0  0  0  0  0  0  0
   36.6130   27.7190   44.1900 O   0  0  0  0  0  0  0  0  0  0  0  0
   38.0650   26.5820   42.7760 N   0  0  0  0  0  0  0  0  0  0  0  0
   39.4570   26.3110   43.1090 C   0  0  0  0  0  0  0  0  0  0  0  0
   39.7170   24.8630   43.3520 C   0  0  0  0  0  0  0  0  0  0  0  0
   39.1510   23.9940   42.3700 N   0  0  0  0  0  0  0  0  0  0  0  0
   37.7380   24.2060   42.2410 C   0  0  0  0  0  0  0  0  0  0  0  0
   37.3180   25.6140   42.0010 C   0  0  2  0  0  0  0  0  0  0  0  0
   39.2880   30.8050   42.1530 C   0  0  0  0  0  0  0  0  0  0  0  0
   38.9680   29.6210   42.7990 C   0  0  0  0  0  0  0  0  0  0  0  0
   37.7480   29.0340   42.5360 C   0  0  0  0  0  0  0  0  0  0  0  0
   36.9050   29.6330   41.6570 N   0  0  0  0  0  0  0  0  0  0  0  0
   37.2490   30.7840   41.0470 C   0  0  0  0  0  0  0  0  0  0  0  0
   38.4270   31.3790   41.2810 N   0  0  0  0  0  0  0  0  0  0  0  0
   37.2580   25.8700   40.5630 C   0  0  0  0  0  0  0  0  0  0  0  0
   36.3490   25.1940   39.7340 C   0  0  0  0  0  0  0  0  0  0  0  0
   36.1940   25.3410   38.3790 C   0  0  0  0  0  0  0  0  0  0  0  0
   37.0190   26.2480   37.7650 C   0  0  0  0  0  0  0  0  0  0  0  0
   37.9410   26.9590   38.4850 C   0  0  0  0  0  0  0  0  0  0  0  0
   38.0340   26.7540   39.8450 C   0  0  0  0  0  0  0  0  0  0  0  0
   40.0907   26.6477   42.2753 H   0  0  0  0  0  0  0  0  0  0  0  0
   39.6885   26.8517   44.0386 H   0  0  0  0  0  0  0  0  0  0  0  0
   40.8056   24.7055   43.3658 H   0  0  0  0  0  0  0  0  0  0  0  0
   39.2381   24.6121   44.3100 H   0  0  0  0  0  0  0  0  0  0  0  0
   39.6020   24.1747   41.4618 H   0  0  0  0  0  0  0  0  0  0  0  0
   37.3801   23.5976   41.3973 H   0  0  0  0  0  0  0  0  0  0  0  0
   37.3015   23.9229   43.2102 H   0  0  0  0  0  0  0  0  0  0  0  0
   36.2975   25.7514   42.3880 H   0  0  0  0  0  0  0  0  0  0  0  0
   40.2572   31.2856   42.3524 H   0  0  0  0  0  0  0  0  0  0  0  0
   39.6724   29.1593   43.5066 H   0  0  0  0  0  0  0  0  0  0  0  0
   36.5456   31.2469   40.3393 H   0  0  0  0  0  0  0  0  0  0  0  0
   35.6875   24.4655   40.2256 H   0  0  0  0  0  0  0  0  0  0  0  0
   35.4477   24.7622   37.8151 H   0  0  0  0  0  0  0  0  0  0  0  0
   36.9389   26.4064   36.6794 H   0  0  0  0  0  0  0  0  0  0  0  0
   38.5992   27.6846   37.9847 H   0  0  0  0  0  0  0  0  0  0  0  0
   38.7832   27.3394   40.3982 H   0  0  0  0  0  0  0  0  0  0  0  0
  1  2  2  0
  3  4  1  0
  3  1  1  0
  4  5  1  0
  6  5  1  0
  7  6  1  0
  8  7  1  0
  8  3  1  0
  9 10  2  0
 11 10  1  0
 11  1  1  0
 12 11  2  0
 13 14  2  0
 13 12  1  0
 14  9  1  0
 15  8  1  0
 16 15  2  0
 17 16  1  0
 18 17  2  0
 18 19  1  0
 19 20  2  0
 20 15  1  0
  4 21  1  0
  4 22  1  0
  5 23  1  0
  5 24  1  0
  6 25  1  0
  7 26  1  0
  7 27  1  0
  8 28  1  1
  9 29  1  0
 10 30  1  0
 13 31  1  0
 16 32  1  0
 17 33  1  0
 18 34  1  0
 19 35  1  0
 20 36  1  0
M  ISO  8  21  13  22  13  23  13  24  13  25   5  26  13  27  13  28  13
M  ISO  8  29  14  30  14  31  14  32  14  33  14  34  14  35  14  36  14
M  END
>  <minimizedAffinity>  (1) 
-5.24838114

>  <minimizedRMSD>  (1) 
0.360137999

$$$$
