
     RDKit          3D

 56 59  0  0  1  0  0  0  0  0999 V2000
   39.3290   28.1370   42.2810 C   0  0  2  0  0  0  0  0  0  0  0  0
   40.5030   27.1680   42.1600 C   0  0  2  0  0  0  0  0  0  0  0  0
   40.1740   25.8830   41.5660 C   0  0  0  0  0  0  0  0  0  0  0  0
   40.6360   24.7610   42.4710 C   0  0  0  0  0  0  0  0  0  0  0  0
   41.4930   25.4120   43.5210 C   0  0  0  0  0  0  0  0  0  0  0  0
   40.9570   26.8170   43.5590 C   0  0  1  0  0  0  0  0  0  0  0  0
   41.8900   27.8100   44.1690 C   0  0  0  0  0  0  0  0  0  0  0  0
   42.6300   27.1160   45.2980 C   0  0  0  0  0  0  0  0  0  0  0  0
   43.9870   27.7740   45.5460 C   0  0  0  0  0  0  0  0  0  0  0  0
   43.9290   29.2590   45.3550 C   0  0  0  0  0  0  0  0  0  0  0  0
   43.4320   29.6570   44.0000 C   0  0  0  0  0  0  0  0  0  0  0  0
   42.9050   28.4120   43.2720 C   0  0  0  0  0  0  0  0  0  0  0  0
   38.1490   27.4450   42.6910 N   0  0  0  0  0  0  0  0  0  0  0  0
   37.1630   28.0680   43.4960 C   0  0  0  0  0  0  0  0  0  0  0  0
   37.3950   29.2620   43.9320 N   0  0  0  0  0  0  0  0  0  0  0  0
   35.9740   27.4050   43.8070 N   0  0  0  0  0  0  0  0  0  0  0  0
   36.6920   29.7650   44.5100 H   0  0  0  0  0  0  0  0  0  0  0  0
   38.5500   29.1920   38.9080 C   0  0  0  0  0  0  0  0  0  0  0  0
   39.3090   30.2730   39.3490 C   0  0  0  0  0  0  0  0  0  0  0  0
   39.6430   29.9420   40.6320 C   0  0  0  0  0  0  0  0  0  0  0  0
   39.1180   28.7260   40.9560 N   0  0  0  0  0  0  0  0  0  0  0  0
   38.4590   28.2870   39.9010 N   0  0  0  0  0  0  0  0  0  0  0  0
   38.1230   28.0050   36.7310 C   0  0  0  0  0  0  0  0  0  0  0  0
   37.9610   29.0810   37.5830 C   0  0  0  0  0  0  0  0  0  0  0  0
   37.1810   30.1220   37.1370 C   0  0  0  0  0  0  0  0  0  0  0  0
   36.5910   30.0950   35.9030 N   0  0  0  0  0  0  0  0  0  0  0  0
   36.8000   28.9780   35.0990 C   0  0  0  0  0  0  0  0  0  0  0  0
   37.5790   27.9280   35.5330 N   0  0  0  0  0  0  0  0  0  0  0  0
   39.5463   28.9106   43.0322 H   0  0  0  0  0  0  0  0  0  0  0  0
   41.2420   27.6803   41.5265 H   0  0  0  0  0  0  0  0  0  0  0  0
   39.0850   25.8140   41.4271 H   0  0  0  0  0  0  0  0  0  0  0  0
   40.6804   25.7944   40.5935 H   0  0  0  0  0  0  0  0  0  0  0  0
   39.7724   24.2627   42.9356 H   0  0  0  0  0  0  0  0  0  0  0  0
   41.1908   23.9920   41.9135 H   0  0  0  0  0  0  0  0  0  0  0  0
   41.3734   24.9151   44.4951 H   0  0  0  0  0  0  0  0  0  0  0  0
   42.5694   25.3607   43.3001 H   0  0  0  0  0  0  0  0  0  0  0  0
   40.0970   26.8634   44.2432 H   0  0  0  0  0  0  0  0  0  0  0  0
   41.2502   28.6473   44.4846 H   0  0  0  0  0  0  0  0  0  0  0  0
   42.0267   27.1778   46.2157 H   0  0  0  0  0  0  0  0  0  0  0  0
   42.7949   26.0654   45.0167 H   0  0  0  0  0  0  0  0  0  0  0  0
   44.3032   27.5599   46.5776 H   0  0  0  0  0  0  0  0  0  0  0  0
   44.7036   27.3637   44.8193 H   0  0  0  0  0  0  0  0  0  0  0  0
   43.2553   29.6837   46.1138 H   0  0  0  0  0  0  0  0  0  0  0  0
   44.9549   29.6432   45.4544 H   0  0  0  0  0  0  0  0  0  0  0  0
   42.6208   30.3922   44.1066 H   0  0  0  0  0  0  0  0  0  0  0  0
   44.2532   30.1048   43.4211 H   0  0  0  0  0  0  0  0  0  0  0  0
   42.4467   28.6959   42.3131 H   0  0  0  0  0  0  0  0  0  0  0  0
   43.7161   27.7029   43.0499 H   0  0  0  0  0  0  0  0  0  0  0  0
   38.0111   26.4684   42.3941 H   0  0  0  0  0  0  0  0  0  0  0  0
   35.2644   27.8677   44.3930 H   0  0  0  0  0  0  0  0  0  0  0  0
   35.8066   26.4533   43.4504 H   0  0  0  0  0  0  0  0  0  0  0  0
   39.5777   31.1833   38.7929 H   0  0  0  0  0  0  0  0  0  0  0  0
   40.2480   30.5663   41.3060 H   0  0  0  0  0  0  0  0  0  0  0  0
   38.7427   27.1629   37.0730 H   0  0  0  0  0  0  0  0  0  0  0  0
   37.0280   30.9961   37.7871 H   0  0  0  0  0  0  0  0  0  0  0  0
   36.3363   28.9331   34.1025 H   0  0  0  0  0  0  0  0  0  0  0  0
  1 13  1  0
  2  1  1  0
  2  6  1  0
  3  2  1  0
  3  4  1  0
  4  5  1  0
  5  6  1  0
  6  7  1  0
  7  8  1  0
  8  9  1  0
 10  9  1  0
 11 10  1  0
 12 11  1  0
 12  7  1  0
 13 14  1  0
 14 16  1  0
 14 15  2  0
 15 17  1  0
 18 19  1  0
 18 22  2  0
 19 20  2  0
 20 21  1  0
 21  1  1  0
 22 21  1  0
 23 24  2  0
 24 18  1  0
 25 24  1  0
 26 25  2  0
 27 28  2  0
 27 26  1  0
 28 23  1  0
  1 29  1  1
  2 30  1  6
  3 31  1  0
  3 32  1  0
  4 33  1  0
  4 34  1  0
  5 35  1  0
  5 36  1  0
  6 37  1  1
  7 38  1  0
  8 39  1  0
  8 40  1  0
  9 41  1  0
  9 42  1  0
 10 43  1  0
 10 44  1  0
 11 45  1  0
 11 46  1  0
 12 47  1  0
 12 48  1  0
 13 49  1  0
 16 50  1  0
 16 51  1  0
 19 52  1  0
 20 53  1  0
 23 54  1  0
 25 55  1  0
 27 56  1  0
M  ISO  8  29   8  30  13  31  13  32  13  33  13  34  13  35  13  36  13
M  ISO  8  37  13  38  13  39  13  40  13  41  13  42  13  43  13  44  13
M  ISO  8  45  13  46  13  47  13  48  13  52  14  53  14  54  14  55  14
M  ISO  1  56  14
M  END
>  <minimizedAffinity>  (1) 
-5.61863375

>  <minimizedRMSD>  (1) 
0.946514964

$$$$
