
     RDKit          3D

 49 52  0  0  1  0  0  0  0  0999 V2000
   37.7120   28.1810   43.3640 C   0  0  0  0  0  0  0  0  0  0  0  0
   37.0290   28.2050   44.4410 O   0  0  0  0  0  0  0  0  0  0  0  0
   38.0640   26.8970   42.8550 N   0  0  0  0  0  0  0  0  0  0  0  0
   39.3800   26.3970   43.1220 C   0  0  0  0  0  0  0  0  0  0  0  0
   39.5360   24.9170   43.1570 C   0  0  0  0  0  0  0  0  0  0  0  0
   38.6990   24.1700   42.2790 N   0  0  0  0  0  0  0  0  0  0  0  0
   37.3610   24.5890   42.3520 C   0  0  0  0  0  0  0  0  0  0  0  0
   37.1800   26.0780   42.1330 C   0  0  2  0  0  0  0  0  0  0  0  0
   36.9050   26.3650   40.7530 C   0  0  0  0  0  0  0  0  0  0  0  0
   36.2900   27.5850   40.3740 C   0  0  0  0  0  0  0  0  0  0  0  0
   35.9730   27.9680   39.1010 C   0  0  0  0  0  0  0  0  0  0  0  0
   36.3050   27.0500   38.0990 C   0  0  0  0  0  0  0  0  0  0  0  0
   36.9140   25.8210   38.4020 C   0  0  0  0  0  0  0  0  0  0  0  0
   37.1810   25.5310   39.7290 C   0  0  0  0  0  0  0  0  0  0  0  0
   38.6330   21.5490   39.1070 C   0  0  0  0  0  0  0  0  0  0  0  0
   37.3570   21.7320   39.5590 C   0  0  0  0  0  0  0  0  0  0  0  0
   36.8400   22.9910   39.7480 C   0  0  0  0  0  0  0  0  0  0  0  0
   37.5130   24.1480   39.5120 C   0  0  0  0  0  0  0  0  0  0  0  0
   38.8150   23.8610   39.0510 C   0  0  0  0  0  0  0  0  0  0  0  0
   39.3810   22.6510   38.8460 C   0  0  0  0  0  0  0  0  0  0  0  0
   39.1590   19.8940   38.9140 S   0  0  0  0  0  0  0  0  0  0  0  0
   39.3940   19.2430   40.2550 O   0  0  0  0  0  0  0  0  0  0  0  0
   38.2180   19.0810   38.0700 O   0  0  0  0  0  0  0  0  0  0  0  0
   39.8200   30.9510   42.1790 C   0  0  0  0  0  0  0  0  0  0  0  0
   39.4080   29.8200   42.8600 C   0  0  0  0  0  0  0  0  0  0  0  0
   38.1380   29.3640   42.6490 C   0  0  0  0  0  0  0  0  0  0  0  0
   37.3620   30.0440   41.7900 N   0  0  0  0  0  0  0  0  0  0  0  0
   37.7680   31.1360   41.1370 C   0  0  0  0  0  0  0  0  0  0  0  0
   38.9980   31.5950   41.3260 N   0  0  0  0  0  0  0  0  0  0  0  0
   40.0494   26.7848   42.3400 H   0  0  0  0  0  0  0  0  0  0  0  0
   39.6190   26.7381   44.1401 H   0  0  0  0  0  0  0  0  0  0  0  0
   40.5804   24.6846   42.9017 H   0  0  0  0  0  0  0  0  0  0  0  0
   39.2367   24.6160   44.1718 H   0  0  0  0  0  0  0  0  0  0  0  0
   38.7509   23.1739   42.5360 H   0  0  0  0  0  0  0  0  0  0  0  0
   36.7857   24.0518   41.5836 H   0  0  0  0  0  0  0  0  0  0  0  0
   37.0078   24.3667   43.3698 H   0  0  0  0  0  0  0  0  0  0  0  0
   36.2578   26.4081   42.6337 H   0  0  0  0  0  0  0  0  0  0  0  0
   36.0446   28.2905   41.1815 H   0  0  0  0  0  0  0  0  0  0  0  0
   35.4903   28.9313   38.8796 H   0  0  0  0  0  0  0  0  0  0  0  0
   36.0841   27.2962   37.0499 H   0  0  0  0  0  0  0  0  0  0  0  0
   37.1720   25.1075   37.6055 H   0  0  0  0  0  0  0  0  0  0  0  0
   36.7309   20.8540   39.7760 H   0  0  0  0  0  0  0  0  0  0  0  0
   35.8066   23.0681   40.1170 H   0  0  0  0  0  0  0  0  0  0  0  0
   39.4497   24.7320   38.8306 H   0  0  0  0  0  0  0  0  0  0  0  0
   40.4143   22.5622   38.4795 H   0  0  0  0  0  0  0  0  0  0  0  0
   40.3502   19.9328   38.2384 H   0  0  0  0  0  0  0  0  0  0  0  0
   40.8394   31.3331   42.3365 H   0  0  0  0  0  0  0  0  0  0  0  0
   40.0858   29.3010   43.5538 H   0  0  0  0  0  0  0  0  0  0  0  0
   37.0856   31.6523   40.4458 H   0  0  0  0  0  0  0  0  0  0  0  0
  1  2  2  0
  3  4  1  0
  3  1  1  0
  4  5  1  0
  6  7  1  0
  6  5  1  0
  8  7  1  0
  8  3  1  0
  9  8  1  0
 10  9  2  0
 11 10  1  0
 12 13  1  0
 12 11  2  0
 13 14  2  0
 14  9  1  0
 15 16  2  0
 16 17  1  0
 18 14  1  0
 18 17  2  0
 19 18  1  0
 20 19  2  0
 20 15  1  0
 21 15  1  0
 21 22  2  0
 23 21  2  0
 24 25  2  0
 26 25  1  0
 26  1  1  0
 27 26  2  0
 28 29  2  0
 28 27  1  0
 29 24  1  0
  4 30  1  0
  4 31  1  0
  5 32  1  0
  5 33  1  0
  6 34  1  0
  7 35  1  0
  7 36  1  0
  8 37  1  1
 10 38  1  0
 11 39  1  0
 12 40  1  0
 13 41  1  0
 16 42  1  0
 17 43  1  0
 19 44  1  0
 20 45  1  0
 21 46  1  0
 24 47  1  0
 25 48  1  0
 28 49  1  0
M  ISO  8  30  13  31  13  32  13  33  13  34   5  35  13  36  13  37  13
M  ISO  8  38  14  39  14  40  14  41  14  42  14  43  14  44  14  45  14
M  ISO  4  46  11  47  14  48  14  49  14
M  END
>  <minimizedAffinity>  (1) 
-6.04798603

>  <minimizedRMSD>  (1) 
4.82980824

$$$$
