
     RDKit          3D

 44 47  0  0  1  0  0  0  0  0999 V2000
   37.6380   27.9610   43.3420 C   0  0  0  0  0  0  0  0  0  0  0  0
   36.9450   27.9340   44.4140 O   0  0  0  0  0  0  0  0  0  0  0  0
   38.0850   26.7040   42.8400 N   0  0  0  0  0  0  0  0  0  0  0  0
   39.4260   26.3010   43.1310 C   0  0  0  0  0  0  0  0  0  0  0  0
   39.7040   24.8400   43.1560 C   0  0  0  0  0  0  0  0  0  0  0  0
   38.9350   24.0340   42.2700 N   0  0  0  0  0  0  0  0  0  0  0  0
   37.5660   24.3500   42.3250 C   0  0  0  0  0  0  0  0  0  0  0  0
   37.2700   25.8200   42.1120 C   0  0  2  0  0  0  0  0  0  0  0  0
   36.9970   26.0870   40.7200 C   0  0  0  0  0  0  0  0  0  0  0  0
   36.4100   27.3200   40.3310 C   0  0  0  0  0  0  0  0  0  0  0  0
   36.1050   27.6890   39.0510 C   0  0  0  0  0  0  0  0  0  0  0  0
   36.4170   26.7510   38.0640 C   0  0  0  0  0  0  0  0  0  0  0  0
   36.9940   25.5180   38.3840 C   0  0  0  0  0  0  0  0  0  0  0  0
   37.2580   25.2300   39.7160 C   0  0  0  0  0  0  0  0  0  0  0  0
   37.6450   23.8600   39.5320 C   0  0  0  0  0  0  0  0  0  0  0  0
   38.8570   23.5480   38.8920 C   0  0  0  0  0  0  0  0  0  0  0  0
   39.4790   22.3510   38.7480 C   0  0  0  0  0  0  0  0  0  0  0  0
   38.8530   21.2980   39.2970 N   0  0  0  0  0  0  0  0  0  0  0  0
   37.6900   21.5330   39.9240 C   0  0  0  0  0  0  0  0  0  0  0  0
   37.0980   22.7580   40.0440 N   0  0  0  0  0  0  0  0  0  0  0  0
   39.6160   30.7740   42.0390 C   0  0  0  0  0  0  0  0  0  0  0  0
   39.2690   29.6260   42.7210 C   0  0  0  0  0  0  0  0  0  0  0  0
   37.9830   29.1710   42.6330 C   0  0  0  0  0  0  0  0  0  0  0  0
   37.1240   29.8750   41.8840 N   0  0  0  0  0  0  0  0  0  0  0  0
   37.4710   30.9910   41.2270 C   0  0  0  0  0  0  0  0  0  0  0  0
   38.7160   31.4490   41.2980 N   0  0  0  0  0  0  0  0  0  0  0  0
   40.0797   26.7497   42.3686 H   0  0  0  0  0  0  0  0  0  0  0  0
   39.6090   26.6432   44.1603 H   0  0  0  0  0  0  0  0  0  0  0  0
   40.7649   24.6969   42.9030 H   0  0  0  0  0  0  0  0  0  0  0  0
   39.4279   24.5074   44.1675 H   0  0  0  0  0  0  0  0  0  0  0  0
   39.0586   23.0446   42.5284 H   0  0  0  0  0  0  0  0  0  0  0  0
   37.0455   23.7747   41.5452 H   0  0  0  0  0  0  0  0  0  0  0  0
   37.2186   24.0962   43.3373 H   0  0  0  0  0  0  0  0  0  0  0  0
   36.3210   26.0737   42.6071 H   0  0  0  0  0  0  0  0  0  0  0  0
   36.1808   28.0410   41.1295 H   0  0  0  0  0  0  0  0  0  0  0  0
   35.6447   28.6595   38.8138 H   0  0  0  0  0  0  0  0  0  0  0  0
   36.2040   26.9876   37.0111 H   0  0  0  0  0  0  0  0  0  0  0  0
   37.2341   24.7901   37.5950 H   0  0  0  0  0  0  0  0  0  0  0  0
   39.3800   24.4035   38.4397 H   0  0  0  0  0  0  0  0  0  0  0  0
   40.4359   22.2497   38.2150 H   0  0  0  0  0  0  0  0  0  0  0  0
   37.1739   20.6731   40.3759 H   0  0  0  0  0  0  0  0  0  0  0  0
   40.6493   31.1459   42.1016 H   0  0  0  0  0  0  0  0  0  0  0  0
   40.0137   29.0866   43.3247 H   0  0  0  0  0  0  0  0  0  0  0  0
   36.7223   31.5292   40.6272 H   0  0  0  0  0  0  0  0  0  0  0  0
  1  2  2  0
  3  4  1  0
  3  1  1  0
  4  5  1  0
  6  7  1  0
  6  5  1  0
  8  7  1  0
  8  3  1  0
  9  8  1  0
 10  9  2  0
 11 10  1  0
 12 13  1  0
 12 11  2  0
 13 14  2  0
 14  9  1  0
 15 14  1  0
 15 20  1  0
 16 15  2  0
 17 16  1  0
 17 18  2  0
 18 19  1  0
 19 20  2  0
 21 22  2  0
 23 22  1  0
 23  1  1  0
 24 23  2  0
 25 26  2  0
 25 24  1  0
 26 21  1  0
  4 27  1  0
  4 28  1  0
  5 29  1  0
  5 30  1  0
  6 31  1  0
  7 32  1  0
  7 33  1  0
  8 34  1  1
 10 35  1  0
 11 36  1  0
 12 37  1  0
 13 38  1  0
 16 39  1  0
 17 40  1  0
 19 41  1  0
 21 42  1  0
 22 43  1  0
 25 44  1  0
M  ISO  8  27  13  28  13  29  13  30  13  31   5  32  13  33  13  34  13
M  ISO  8  35  14  36  14  37  14  38  14  39  14  40  14  41  14  42  14
M  ISO  2  43  14  44  14
M  END
>  <minimizedAffinity>  (1) 
-6.03181314

>  <minimizedRMSD>  (1) 
3.2799809

$$$$
