
     RDKit          3D

 44 47  0  0  1  0  0  0  0  0999 V2000
   37.6340   27.9700   43.3400 C   0  0  0  0  0  0  0  0  0  0  0  0
   36.9430   27.9450   44.4130 O   0  0  0  0  0  0  0  0  0  0  0  0
   38.0770   26.7090   42.8380 N   0  0  0  0  0  0  0  0  0  0  0  0
   39.4210   26.3040   43.1270 C   0  0  0  0  0  0  0  0  0  0  0  0
   39.7010   24.8460   43.1400 C   0  0  0  0  0  0  0  0  0  0  0  0
   38.9130   24.0360   42.2740 N   0  0  0  0  0  0  0  0  0  0  0  0
   37.5470   24.3600   42.3350 C   0  0  0  0  0  0  0  0  0  0  0  0
   37.2590   25.8290   42.1110 C   0  0  2  0  0  0  0  0  0  0  0  0
   36.9910   26.0930   40.7190 C   0  0  0  0  0  0  0  0  0  0  0  0
   36.4110   27.3230   40.3190 C   0  0  0  0  0  0  0  0  0  0  0  0
   36.1130   27.6940   39.0400 C   0  0  0  0  0  0  0  0  0  0  0  0
   36.4300   26.7490   38.0560 C   0  0  0  0  0  0  0  0  0  0  0  0
   37.0010   25.5160   38.3830 C   0  0  0  0  0  0  0  0  0  0  0  0
   37.2550   25.2320   39.7150 C   0  0  0  0  0  0  0  0  0  0  0  0
   37.6410   23.8590   39.5340 C   0  0  0  0  0  0  0  0  0  0  0  0
   38.8540   23.5540   38.8940 C   0  0  0  0  0  0  0  0  0  0  0  0
   39.4750   22.3570   38.7510 C   0  0  0  0  0  0  0  0  0  0  0  0
   38.8550   21.3100   39.2910 N   0  0  0  0  0  0  0  0  0  0  0  0
   37.6910   21.5330   39.9170 C   0  0  0  0  0  0  0  0  0  0  0  0
   37.0930   22.7560   40.0420 N   0  0  0  0  0  0  0  0  0  0  0  0
   39.6110   30.7830   42.0370 C   0  0  0  0  0  0  0  0  0  0  0  0
   39.2610   29.6340   42.7180 C   0  0  0  0  0  0  0  0  0  0  0  0
   37.9800   29.1760   42.6310 C   0  0  0  0  0  0  0  0  0  0  0  0
   37.1200   29.8790   41.8790 N   0  0  0  0  0  0  0  0  0  0  0  0
   37.4670   30.9950   41.2220 C   0  0  0  0  0  0  0  0  0  0  0  0
   38.7100   31.4540   41.2940 N   0  0  0  0  0  0  0  0  0  0  0  0
   40.0746   26.7600   42.3688 H   0  0  0  0  0  0  0  0  0  0  0  0
   39.6024   26.6374   44.1594 H   0  0  0  0  0  0  0  0  0  0  0  0
   40.7553   24.7065   42.8591 H   0  0  0  0  0  0  0  0  0  0  0  0
   39.4486   24.5122   44.1573 H   0  0  0  0  0  0  0  0  0  0  0  0
   39.0316   23.0493   42.5448 H   0  0  0  0  0  0  0  0  0  0  0  0
   37.0181   23.7810   41.5637 H   0  0  0  0  0  0  0  0  0  0  0  0
   37.2042   24.1168   43.3515 H   0  0  0  0  0  0  0  0  0  0  0  0
   36.3072   26.0897   42.5970 H   0  0  0  0  0  0  0  0  0  0  0  0
   36.1793   28.0466   41.1145 H   0  0  0  0  0  0  0  0  0  0  0  0
   35.6566   28.6654   38.7991 H   0  0  0  0  0  0  0  0  0  0  0  0
   36.2247   26.9828   37.0009 H   0  0  0  0  0  0  0  0  0  0  0  0
   37.2441   24.7850   37.5978 H   0  0  0  0  0  0  0  0  0  0  0  0
   39.3760   24.4110   38.4433 H   0  0  0  0  0  0  0  0  0  0  0  0
   40.4335   22.2571   38.2206 H   0  0  0  0  0  0  0  0  0  0  0  0
   37.1789   20.6678   40.3633 H   0  0  0  0  0  0  0  0  0  0  0  0
   40.6435   31.1568   42.1024 H   0  0  0  0  0  0  0  0  0  0  0  0
   40.0057   29.0955   43.3225 H   0  0  0  0  0  0  0  0  0  0  0  0
   36.7185   31.5322   40.6210 H   0  0  0  0  0  0  0  0  0  0  0  0
  1  2  2  0
  3  4  1  0
  3  1  1  0
  4  5  1  0
  6  7  1  0
  6  5  1  0
  8  7  1  0
  8  3  1  0
  9  8  1  0
 10  9  2  0
 11 10  1  0
 12 13  1  0
 12 11  2  0
 13 14  2  0
 14  9  1  0
 15 14  1  0
 15 20  1  0
 16 15  2  0
 17 16  1  0
 17 18  2  0
 18 19  1  0
 19 20  2  0
 21 22  2  0
 23 22  1  0
 23  1  1  0
 24 23  2  0
 25 26  2  0
 25 24  1  0
 26 21  1  0
  4 27  1  0
  4 28  1  0
  5 29  1  0
  5 30  1  0
  6 31  1  0
  7 32  1  0
  7 33  1  0
  8 34  1  1
 10 35  1  0
 11 36  1  0
 12 37  1  0
 13 38  1  0
 16 39  1  0
 17 40  1  0
 19 41  1  0
 21 42  1  0
 22 43  1  0
 25 44  1  0
M  ISO  8  27  13  28  13  29  13  30  13  31   5  32  13  33  13  34  13
M  ISO  8  35  14  36  14  37  14  38  14  39  14  40  14  41  14  42  14
M  ISO  2  43  14  44  14
M  END
>  <minimizedAffinity>  (1) 
-6.0267005

>  <minimizedRMSD>  (1) 
3.27362061

$$$$
