
     RDKit          3D

 43 46  0  0  1  0  0  0  0  0999 V2000
   37.5570   28.0210   43.3650 C   0  0  0  0  0  0  0  0  0  0  0  0
   36.8610   28.0060   44.4290 O   0  0  0  0  0  0  0  0  0  0  0  0
   38.0840   26.7690   42.9270 N   0  0  0  0  0  0  0  0  0  0  0  0
   39.4630   26.4680   43.2240 C   0  0  0  0  0  0  0  0  0  0  0  0
   39.8150   25.0340   43.3380 C   0  0  0  0  0  0  0  0  0  0  0  0
   39.1000   24.1350   42.4980 N   0  0  0  0  0  0  0  0  0  0  0  0
   37.7130   24.3700   42.5300 C   0  0  0  0  0  0  0  0  0  0  0  0
   37.3170   25.8030   42.2450 C   0  0  2  0  0  0  0  0  0  0  0  0
   37.0580   25.9880   40.8380 C   0  0  0  0  0  0  0  0  0  0  0  0
   36.4990   27.1970   40.3600 C   0  0  0  0  0  0  0  0  0  0  0  0
   36.2000   27.4960   39.0620 C   0  0  0  0  0  0  0  0  0  0  0  0
   36.4890   26.4930   38.1330 C   0  0  0  0  0  0  0  0  0  0  0  0
   37.0400   25.2700   38.5300 C   0  0  0  0  0  0  0  0  0  0  0  0
   37.2960   25.0680   39.8750 C   0  0  0  0  0  0  0  0  0  0  0  0
   37.6110   23.6970   39.8290 N   0  0  0  0  0  0  0  0  0  0  0  0
   37.4180   22.4900   40.2010 N   0  0  0  0  0  0  0  0  0  0  0  0
   38.2520   21.5710   39.7200 C   0  0  0  0  0  0  0  0  0  0  0  0
   39.1540   22.2120   38.9010 C   0  0  0  0  0  0  0  0  0  0  0  0
   38.7110   23.5240   39.0040 C   0  0  0  0  0  0  0  0  0  0  0  0
   39.3790   30.8690   41.9090 C   0  0  0  0  0  0  0  0  0  0  0  0
   39.0940   29.7320   42.6470 C   0  0  0  0  0  0  0  0  0  0  0  0
   37.8310   29.2120   42.6000 C   0  0  0  0  0  0  0  0  0  0  0  0
   36.9320   29.8450   41.8300 N   0  0  0  0  0  0  0  0  0  0  0  0
   37.2200   30.9450   41.1190 C   0  0  0  0  0  0  0  0  0  0  0  0
   38.4410   31.4630   41.1530 N   0  0  0  0  0  0  0  0  0  0  0  0
   40.0800   26.9012   42.4230 H   0  0  0  0  0  0  0  0  0  0  0  0
   39.6463   26.8937   44.2216 H   0  0  0  0  0  0  0  0  0  0  0  0
   40.8845   24.9328   43.1017 H   0  0  0  0  0  0  0  0  0  0  0  0
   39.5445   24.7491   44.3655 H   0  0  0  0  0  0  0  0  0  0  0  0
   39.2809   23.1712   42.8130 H   0  0  0  0  0  0  0  0  0  0  0  0
   37.2369   23.7248   41.7770 H   0  0  0  0  0  0  0  0  0  0  0  0
   37.3797   24.1491   43.5548 H   0  0  0  0  0  0  0  0  0  0  0  0
   36.3446   26.0096   42.7158 H   0  0  0  0  0  0  0  0  0  0  0  0
   36.2840   27.9733   41.1091 H   0  0  0  0  0  0  0  0  0  0  0  0
   35.7614   28.4608   38.7675 H   0  0  0  0  0  0  0  0  0  0  0  0
   36.2789   26.6687   37.0676 H   0  0  0  0  0  0  0  0  0  0  0  0
   37.2645   24.4872   37.7905 H   0  0  0  0  0  0  0  0  0  0  0  0
   38.2253   20.4931   39.9377 H   0  0  0  0  0  0  0  0  0  0  0  0
   39.9943   21.7987   38.3239 H   0  0  0  0  0  0  0  0  0  0  0  0
   39.1939   24.3581   38.4739 H   0  0  0  0  0  0  0  0  0  0  0  0
   40.3931   31.2937   41.9427 H   0  0  0  0  0  0  0  0  0  0  0  0
   39.8720   29.2551   43.2612 H   0  0  0  0  0  0  0  0  0  0  0  0
   36.4406   31.4198   40.5050 H   0  0  0  0  0  0  0  0  0  0  0  0
  1  2  2  0
  3  4  1  0
  3  1  1  0
  4  5  1  0
  6  7  1  0
  6  5  1  0
  8  7  1  0
  8  3  1  0
  9  8  1  0
 10  9  2  0
 11 10  1  0
 12 13  1  0
 12 11  2  0
 13 14  2  0
 14  9  1  0
 15 14  1  0
 15 16  1  0
 17 16  2  0
 18 19  2  0
 18 17  1  0
 19 15  1  0
 20 21  2  0
 22 21  1  0
 22  1  1  0
 23 22  2  0
 24 25  2  0
 24 23  1  0
 25 20  1  0
  4 26  1  0
  4 27  1  0
  5 28  1  0
  5 29  1  0
  6 30  1  0
  7 31  1  0
  7 32  1  0
  8 33  1  1
 10 34  1  0
 11 35  1  0
 12 36  1  0
 13 37  1  0
 17 38  1  0
 18 39  1  0
 19 40  1  0
 20 41  1  0
 21 42  1  0
 24 43  1  0
M  ISO  8  26  13  27  13  28  13  29  13  30   5  31  13  32  13  33  13
M  ISO  8  34  14  35  14  36  14  37  14  38  14  39  14  40  14  41  14
M  ISO  2  42  14  43  14
M  END
>  <minimizedAffinity>  (1) 
-5.9397006

>  <minimizedRMSD>  (1) 
2.91725063

$$$$
