
     RDKit          3D

 42 45  0  0  1  0  0  0  0  0999 V2000
   37.5560   28.0280   43.3810 C   0  0  0  0  0  0  0  0  0  0  0  0
   36.8570   28.0180   44.4420 O   0  0  0  0  0  0  0  0  0  0  0  0
   38.0880   26.7750   42.9540 N   0  0  0  0  0  0  0  0  0  0  0  0
   39.4680   26.4840   43.2570 C   0  0  0  0  0  0  0  0  0  0  0  0
   39.8320   25.0510   43.3690 C   0  0  0  0  0  0  0  0  0  0  0  0
   39.1010   24.1400   42.5720 N   0  0  0  0  0  0  0  0  0  0  0  0
   37.7300   24.3710   42.5710 C   0  0  0  0  0  0  0  0  0  0  0  0
   37.3290   25.8010   42.2770 C   0  0  2  0  0  0  0  0  0  0  0  0
   37.0740   25.9740   40.8680 C   0  0  0  0  0  0  0  0  0  0  0  0
   36.5070   27.1770   40.3800 C   0  0  0  0  0  0  0  0  0  0  0  0
   36.2110   27.4620   39.0760 C   0  0  0  0  0  0  0  0  0  0  0  0
   36.5100   26.4570   38.1570 C   0  0  0  0  0  0  0  0  0  0  0  0
   37.0700   25.2390   38.5640 C   0  0  0  0  0  0  0  0  0  0  0  0
   37.3220   25.0470   39.9120 C   0  0  0  0  0  0  0  0  0  0  0  0
   37.6520   23.6840   39.8860 N   0  0  0  0  0  0  0  0  0  0  0  0
   38.7590   23.5520   39.0510 C   0  0  0  0  0  0  0  0  0  0  0  0
   39.2210   22.2620   38.9550 N   0  0  0  0  0  0  0  0  0  0  0  0
   38.3640   21.5700   39.7650 C   0  0  0  0  0  0  0  0  0  0  0  0
   37.5120   22.4670   40.2450 N   0  0  0  0  0  0  0  0  0  0  0  0
   39.3700   30.8710   41.9070 C   0  0  0  0  0  0  0  0  0  0  0  0
   39.0870   29.7400   42.6550 C   0  0  0  0  0  0  0  0  0  0  0  0
   37.8270   29.2160   42.6070 C   0  0  0  0  0  0  0  0  0  0  0  0
   36.9290   29.8390   41.8320 N   0  0  0  0  0  0  0  0  0  0  0  0
   37.2130   30.9350   41.1130 C   0  0  0  0  0  0  0  0  0  0  0  0
   38.4320   31.4570   41.1450 N   0  0  0  0  0  0  0  0  0  0  0  0
   40.0853   26.9245   42.4602 H   0  0  0  0  0  0  0  0  0  0  0  0
   39.6426   26.9081   44.2568 H   0  0  0  0  0  0  0  0  0  0  0  0
   40.8929   24.9554   43.0944 H   0  0  0  0  0  0  0  0  0  0  0  0
   39.5960   24.7760   44.4076 H   0  0  0  0  0  0  0  0  0  0  0  0
   39.4428   24.2093   41.6029 H   0  0  0  0  0  0  0  0  0  0  0  0
   37.2741   23.7236   41.8075 H   0  0  0  0  0  0  0  0  0  0  0  0
   37.3778   24.1531   43.5900 H   0  0  0  0  0  0  0  0  0  0  0  0
   36.3555   26.0074   42.7458 H   0  0  0  0  0  0  0  0  0  0  0  0
   36.2832   27.9575   41.1221 H   0  0  0  0  0  0  0  0  0  0  0  0
   35.7662   28.4210   38.7719 H   0  0  0  0  0  0  0  0  0  0  0  0
   36.3018   26.6240   37.0899 H   0  0  0  0  0  0  0  0  0  0  0  0
   37.3040   24.4538   37.8301 H   0  0  0  0  0  0  0  0  0  0  0  0
   39.2186   24.3986   38.5200 H   0  0  0  0  0  0  0  0  0  0  0  0
   38.3779   20.4905   39.9757 H   0  0  0  0  0  0  0  0  0  0  0  0
   40.3834   31.2978   41.9377 H   0  0  0  0  0  0  0  0  0  0  0  0
   39.8641   29.2719   43.2771 H   0  0  0  0  0  0  0  0  0  0  0  0
   36.4325   31.4025   40.4948 H   0  0  0  0  0  0  0  0  0  0  0  0
  1  2  2  0
  3  4  1  0
  3  1  1  0
  4  5  1  0
  6  5  1  0
  7  6  1  0
  8  7  1  0
  8  3  1  0
  9  8  1  0
 10  9  2  0
 11 10  1  0
 12 13  1  0
 12 11  2  0
 13 14  2  0
 14  9  1  0
 15 14  1  0
 15 19  1  0
 16 15  1  0
 17 16  2  0
 17 18  1  0
 18 19  2  0
 20 21  2  0
 22 21  1  0
 22  1  1  0
 23 22  2  0
 24 25  2  0
 24 23  1  0
 25 20  1  0
  4 26  1  0
  4 27  1  0
  5 28  1  0
  5 29  1  0
  6 30  1  0
  7 31  1  0
  7 32  1  0
  8 33  1  1
 10 34  1  0
 11 35  1  0
 12 36  1  0
 13 37  1  0
 16 38  1  0
 18 39  1  0
 20 40  1  0
 21 41  1  0
 24 42  1  0
M  ISO  8  26  13  27  13  28  13  29  13  30   5  31  13  32  13  33  13
M  ISO  8  34  14  35  14  36  14  37  14  38  14  39  14  40  14  41  14
M  ISO  1  42  14
M  END
>  <minimizedAffinity>  (1) 
-5.92664146

>  <minimizedRMSD>  (1) 
2.90820432

$$$$
