
     RDKit          3D

 52 56  0  0  1  0  0  0  0  0999 V2000
   37.1350   27.7170   43.0540 C   0  0  0  0  0  0  0  0  0  0  0  0
   36.2700   27.5640   43.9720 O   0  0  0  0  0  0  0  0  0  0  0  0
   37.9260   26.5820   42.7230 N   0  0  0  0  0  0  0  0  0  0  0  0
   39.2600   26.4820   43.2590 C   0  0  0  0  0  0  0  0  0  0  0  0
   39.7790   25.1080   43.4680 C   0  0  0  0  0  0  0  0  0  0  0  0
   39.3730   24.1350   42.5190 N   0  0  0  0  0  0  0  0  0  0  0  0
   37.9930   24.1590   42.2790 C   0  0  0  0  0  0  0  0  0  0  0  0
   37.4640   25.5300   41.9110 C   0  0  2  0  0  0  0  0  0  0  0  0
   37.4330   25.7040   40.4900 C   0  0  0  0  0  0  0  0  0  0  0  0
   36.3470   25.2070   39.7210 C   0  0  0  0  0  0  0  0  0  0  0  0
   36.1900   25.2930   38.3710 C   0  0  0  0  0  0  0  0  0  0  0  0
   37.2290   25.9570   37.6980 C   0  0  0  0  0  0  0  0  0  0  0  0
   38.3520   26.4810   38.3900 C   0  0  0  0  0  0  0  0  0  0  0  0
   38.3930   26.3130   39.7590 C   0  0  0  0  0  0  0  0  0  0  0  0
   39.7540   26.7140   39.8850 C   0  0  0  0  0  0  0  0  0  0  0  0
   40.9240   26.3640   40.4040 C   0  0  0  0  0  0  0  0  0  0  0  0
   42.1310   26.9530   40.4720 C   0  0  0  0  0  0  0  0  0  0  0  0
   42.2370   28.1920   39.9020 C   0  0  0  0  0  0  0  0  0  0  0  0
   41.1350   28.7590   39.3050 C   0  0  0  0  0  0  0  0  0  0  0  0
   41.3140   30.0150   38.7980 C   0  0  0  0  0  0  0  0  0  0  0  0
   40.2250   30.6310   38.2380 C   0  0  0  0  0  0  0  0  0  0  0  0
   38.9940   30.0300   38.1780 C   0  0  0  0  0  0  0  0  0  0  0  0
   38.9250   28.7710   38.7130 C   0  0  0  0  0  0  0  0  0  0  0  0
   39.9430   28.0160   39.3140 C   0  0  0  0  0  0  0  0  0  0  0  0
   38.7960   30.7390   41.7920 C   0  0  0  0  0  0  0  0  0  0  0  0
   38.5860   29.5490   42.4740 C   0  0  0  0  0  0  0  0  0  0  0  0
   37.3520   28.9600   42.3460 C   0  0  0  0  0  0  0  0  0  0  0  0
   36.4340   29.5650   41.5780 N   0  0  0  0  0  0  0  0  0  0  0  0
   36.6540   30.7130   40.9290 C   0  0  0  0  0  0  0  0  0  0  0  0
   37.8320   31.3070   41.0290 N   0  0  0  0  0  0  0  0  0  0  0  0
   39.9405   26.9961   42.5643 H   0  0  0  0  0  0  0  0  0  0  0  0
   39.2102   26.9342   44.2605 H   0  0  0  0  0  0  0  0  0  0  0  0
   40.8777   25.1576   43.4490 H   0  0  0  0  0  0  0  0  0  0  0  0
   39.3577   24.7767   44.4286 H   0  0  0  0  0  0  0  0  0  0  0  0
   39.8652   24.3139   41.6321 H   0  0  0  0  0  0  0  0  0  0  0  0
   37.7719   23.4678   41.4523 H   0  0  0  0  0  0  0  0  0  0  0  0
   37.4980   23.8636   43.2159 H   0  0  0  0  0  0  0  0  0  0  0  0
   36.4016   25.5880   42.1901 H   0  0  0  0  0  0  0  0  0  0  0  0
   35.5458   24.6973   40.2763 H   0  0  0  0  0  0  0  0  0  0  0  0
   35.3172   24.8749   37.8481 H   0  0  0  0  0  0  0  0  0  0  0  0
   37.1707   26.0739   36.6058 H   0  0  0  0  0  0  0  0  0  0  0  0
   39.1597   27.0017   37.8548 H   0  0  0  0  0  0  0  0  0  0  0  0
   40.9017   25.3746   40.8842 H   0  0  0  0  0  0  0  0  0  0  0  0
   42.9874   26.4646   40.9599 H   0  0  0  0  0  0  0  0  0  0  0  0
   43.1959   28.7307   39.9209 H   0  0  0  0  0  0  0  0  0  0  0  0
   42.2942   30.5127   38.8377 H   0  0  0  0  0  0  0  0  0  0  0  0
   40.3427   31.6426   37.8223 H   0  0  0  0  0  0  0  0  0  0  0  0
   38.1202   30.5259   37.7301 H   0  0  0  0  0  0  0  0  0  0  0  0
   37.9385   28.2868   38.6649 H   0  0  0  0  0  0  0  0  0  0  0  0
   39.7741   31.2356   41.8735 H   0  0  0  0  0  0  0  0  0  0  0  0
   39.3754   29.0960   43.0918 H   0  0  0  0  0  0  0  0  0  0  0  0
   35.8593   31.1616   40.3148 H   0  0  0  0  0  0  0  0  0  0  0  0
  1  2  2  0
  3  1  1  0
  3  4  1  0
  4  5  1  0
  6  5  1  0
  7  6  1  0
  8  7  1  0
  8  3  1  0
  9  8  1  0
 10  9  2  0
 11 10  1  0
 12 11  2  0
 12 13  1  0
 13 14  2  0
 14 15  1  0
 14  9  1  0
 15 16  2  0
 16 17  1  0
 18 17  2  0
 19 24  2  0
 19 18  1  0
 20 19  1  0
 21 20  2  0
 22 21  1  0
 22 23  2  0
 23 24  1  0
 24 15  1  0
 25 26  2  0
 27 26  1  0
 27  1  1  0
 28 27  2  0
 29 30  2  0
 29 28  1  0
 30 25  1  0
  4 31  1  0
  4 32  1  0
  5 33  1  0
  5 34  1  0
  6 35  1  0
  7 36  1  0
  7 37  1  0
  8 38  1  1
 10 39  1  0
 11 40  1  0
 12 41  1  0
 13 42  1  0
 16 43  1  0
 17 44  1  0
 18 45  1  0
 20 46  1  0
 21 47  1  0
 22 48  1  0
 23 49  1  0
 25 50  1  0
 26 51  1  0
 29 52  1  0
M  ISO  8  31  13  32  13  33  13  34  13  35   5  36  13  37  13  38  13
M  ISO  8  39  14  40  14  41  14  42  14  43  14  44  14  45  14  46  14
M  ISO  6  47  14  48  14  49  14  50  14  51  14  52  14
M  END
>  <minimizedAffinity>  (1) 
-5.92472267

>  <minimizedRMSD>  (1) 
0.665514052

$$$$
