
     RDKit          3D

 43 46  0  0  1  0  0  0  0  0999 V2000
   37.5490   28.0240   43.3660 C   0  0  0  0  0  0  0  0  0  0  0  0
   36.8490   27.9980   44.4330 O   0  0  0  0  0  0  0  0  0  0  0  0
   38.1110   26.7860   42.9400 N   0  0  0  0  0  0  0  0  0  0  0  0
   39.4950   26.5240   43.2440 C   0  0  0  0  0  0  0  0  0  0  0  0
   39.8800   25.0960   43.3780 C   0  0  0  0  0  0  0  0  0  0  0  0
   39.1930   24.1710   42.5400 N   0  0  0  0  0  0  0  0  0  0  0  0
   37.8040   24.3720   42.5580 C   0  0  0  0  0  0  0  0  0  0  0  0
   37.3780   25.7930   42.2620 C   0  0  2  0  0  0  0  0  0  0  0  0
   37.1090   25.9590   40.8570 C   0  0  0  0  0  0  0  0  0  0  0  0
   36.5730   27.1750   40.3630 C   0  0  0  0  0  0  0  0  0  0  0  0
   36.2700   27.4590   39.0630 C   0  0  0  0  0  0  0  0  0  0  0  0
   36.5280   26.4340   38.1510 C   0  0  0  0  0  0  0  0  0  0  0  0
   37.0560   25.2000   38.5640 C   0  0  0  0  0  0  0  0  0  0  0  0
   37.3160   25.0190   39.9110 C   0  0  0  0  0  0  0  0  0  0  0  0
   37.5600   23.6490   39.8490 N   0  0  0  0  0  0  0  0  0  0  0  0
   37.3070   22.3980   40.1360 C   0  0  0  0  0  0  0  0  0  0  0  0
   38.1840   21.4360   39.6850 C   0  0  0  0  0  0  0  0  0  0  0  0
   39.1410   22.1480   39.0150 N   0  0  0  0  0  0  0  0  0  0  0  0
   38.7430   23.4380   39.1330 C   0  0  0  0  0  0  0  0  0  0  0  0
   39.2950   30.8930   41.8690 C   0  0  0  0  0  0  0  0  0  0  0  0
   39.0450   29.7510   42.6090 C   0  0  0  0  0  0  0  0  0  0  0  0
   37.7920   29.2160   42.5890 C   0  0  0  0  0  0  0  0  0  0  0  0
   36.8640   29.8360   41.8450 N   0  0  0  0  0  0  0  0  0  0  0  0
   37.1110   30.9390   41.1320 C   0  0  0  0  0  0  0  0  0  0  0  0
   38.3220   31.4760   41.1360 N   0  0  0  0  0  0  0  0  0  0  0  0
   40.1036   26.9611   42.4387 H   0  0  0  0  0  0  0  0  0  0  0  0
   39.6669   26.9685   44.2354 H   0  0  0  0  0  0  0  0  0  0  0  0
   40.9539   25.0169   43.1531 H   0  0  0  0  0  0  0  0  0  0  0  0
   39.6066   24.8160   44.4060 H   0  0  0  0  0  0  0  0  0  0  0  0
   39.3943   23.2149   42.8659 H   0  0  0  0  0  0  0  0  0  0  0  0
   37.3504   23.7119   41.8040 H   0  0  0  0  0  0  0  0  0  0  0  0
   37.4659   24.1477   43.5804 H   0  0  0  0  0  0  0  0  0  0  0  0
   36.4029   25.9815   42.7350 H   0  0  0  0  0  0  0  0  0  0  0  0
   36.3824   27.9683   41.1008 H   0  0  0  0  0  0  0  0  0  0  0  0
   35.8514   28.4285   38.7551 H   0  0  0  0  0  0  0  0  0  0  0  0
   36.3128   26.5967   37.0846 H   0  0  0  0  0  0  0  0  0  0  0  0
   37.2573   24.3995   37.8369 H   0  0  0  0  0  0  0  0  0  0  0  0
   36.4179   22.1216   40.7217 H   0  0  0  0  0  0  0  0  0  0  0  0
   38.1278   20.3471   39.8301 H   0  0  0  0  0  0  0  0  0  0  0  0
   39.3150   24.2681   38.6928 H   0  0  0  0  0  0  0  0  0  0  0  0
   40.3030   31.3334   41.8778 H   0  0  0  0  0  0  0  0  0  0  0  0
   39.8438   29.2831   43.2031 H   0  0  0  0  0  0  0  0  0  0  0  0
   36.3072   31.4019   40.5407 H   0  0  0  0  0  0  0  0  0  0  0  0
  1  2  2  0
  3  4  1  0
  3  1  1  0
  4  5  1  0
  6  7  1  0
  6  5  1  0
  8  7  1  0
  8  3  1  0
  9  8  1  0
 10  9  2  0
 11 10  1  0
 12 13  1  0
 12 11  2  0
 13 14  2  0
 14  9  1  0
 15 14  1  0
 15 16  1  0
 17 16  2  0
 18 19  2  0
 18 17  1  0
 19 15  1  0
 20 21  2  0
 22 21  1  0
 22  1  1  0
 23 22  2  0
 24 25  2  0
 24 23  1  0
 25 20  1  0
  4 26  1  0
  4 27  1  0
  5 28  1  0
  5 29  1  0
  6 30  1  0
  7 31  1  0
  7 32  1  0
  8 33  1  1
 10 34  1  0
 11 35  1  0
 12 36  1  0
 13 37  1  0
 16 38  1  0
 17 39  1  0
 19 40  1  0
 20 41  1  0
 21 42  1  0
 24 43  1  0
M  ISO  8  26  13  27  13  28  13  29  13  30   5  31  13  32  13  33  13
M  ISO  8  34  14  35  14  36  14  37  14  38  14  39  14  40  14  41  14
M  ISO  2  42  14  43  14
M  END
>  <minimizedAffinity>  (1) 
-5.85908365

>  <minimizedRMSD>  (1) 
2.95667458

$$$$
