
     RDKit          3D

 43 46  0  0  1  0  0  0  0  0999 V2000
   37.6920   28.0480   43.3410 C   0  0  0  0  0  0  0  0  0  0  0  0
   36.9850   28.0590   44.4120 O   0  0  0  0  0  0  0  0  0  0  0  0
   38.0670   26.7620   42.8520 N   0  0  0  0  0  0  0  0  0  0  0  0
   39.3790   26.2860   43.1590 C   0  0  0  0  0  0  0  0  0  0  0  0
   39.5930   24.8200   43.1700 C   0  0  0  0  0  0  0  0  0  0  0  0
   38.7830   24.0530   42.2940 N   0  0  0  0  0  0  0  0  0  0  0  0
   37.4330   24.4390   42.3380 C   0  0  0  0  0  0  0  0  0  0  0  0
   37.2110   25.9210   42.1220 C   0  0  2  0  0  0  0  0  0  0  0  0
   36.9680   26.1940   40.7200 C   0  0  0  0  0  0  0  0  0  0  0  0
   36.3790   27.4050   40.3120 C   0  0  0  0  0  0  0  0  0  0  0  0
   36.1070   27.7880   39.0350 C   0  0  0  0  0  0  0  0  0  0  0  0
   36.4630   26.8680   38.0520 C   0  0  0  0  0  0  0  0  0  0  0  0
   37.0470   25.6480   38.3810 C   0  0  0  0  0  0  0  0  0  0  0  0
   37.2760   25.3490   39.7170 C   0  0  0  0  0  0  0  0  0  0  0  0
   37.5910   23.9490   39.6050 C   0  0  0  0  0  0  0  0  0  0  0  0
   38.8570   23.4710   39.2310 C   0  0  0  0  0  0  0  0  0  0  0  0
   38.9740   22.1270   39.3520 N   0  0  0  0  0  0  0  0  0  0  0  0
   37.7650   21.7030   39.8140 C   0  0  0  0  0  0  0  0  0  0  0  0
   37.0060   22.7970   39.9440 N   0  0  0  0  0  0  0  0  0  0  0  0
   39.8300   30.7770   42.1000 C   0  0  0  0  0  0  0  0  0  0  0  0
   39.4050   29.6540   42.7800 C   0  0  0  0  0  0  0  0  0  0  0  0
   38.1140   29.2300   42.6330 C   0  0  0  0  0  0  0  0  0  0  0  0
   37.3080   29.9370   41.8240 N   0  0  0  0  0  0  0  0  0  0  0  0
   37.7330   31.0300   41.1670 C   0  0  0  0  0  0  0  0  0  0  0  0
   38.9850   31.4580   41.2940 N   0  0  0  0  0  0  0  0  0  0  0  0
   40.0665   26.7131   42.4140 H   0  0  0  0  0  0  0  0  0  0  0  0
   39.5537   26.6010   44.1983 H   0  0  0  0  0  0  0  0  0  0  0  0
   40.6434   24.6341   42.9017 H   0  0  0  0  0  0  0  0  0  0  0  0
   39.3139   24.4939   44.1828 H   0  0  0  0  0  0  0  0  0  0  0  0
   38.8524   23.0611   42.5626 H   0  0  0  0  0  0  0  0  0  0  0  0
   36.8901   23.8897   41.5547 H   0  0  0  0  0  0  0  0  0  0  0  0
   37.0671   24.2054   43.3487 H   0  0  0  0  0  0  0  0  0  0  0  0
   36.2730   26.2266   42.6087 H   0  0  0  0  0  0  0  0  0  0  0  0
   36.1107   28.1156   41.1077 H   0  0  0  0  0  0  0  0  0  0  0  0
   35.6396   28.7547   38.7963 H   0  0  0  0  0  0  0  0  0  0  0  0
   36.2791   27.1101   36.9949 H   0  0  0  0  0  0  0  0  0  0  0  0
   37.3230   24.9312   37.5936 H   0  0  0  0  0  0  0  0  0  0  0  0
   39.6703   24.1211   38.8762 H   0  0  0  0  0  0  0  0  0  0  0  0
   37.4709   20.6666   40.0362 H   0  0  0  0  0  0  0  0  0  0  0  0
   36.0344   22.7538   40.2832 H   0  0  0  0  0  0  0  0  0  0  0  0
   40.8681   31.1220   42.2151 H   0  0  0  0  0  0  0  0  0  0  0  0
   40.0986   29.1053   43.4341 H   0  0  0  0  0  0  0  0  0  0  0  0
   37.0356   31.5773   40.5158 H   0  0  0  0  0  0  0  0  0  0  0  0
  1  2  2  0
  3  4  1  0
  3  1  1  0
  4  5  1  0
  6  7  1  0
  6  5  1  0
  8  7  1  0
  8  3  1  0
  9  8  1  0
 10  9  2  0
 11 10  1  0
 12 13  1  0
 12 11  2  0
 13 14  2  0
 14  9  1  0
 15 14  1  0
 15 19  1  0
 16 17  1  0
 16 15  2  0
 17 18  2  0
 18 19  1  0
 20 21  2  0
 22 21  1  0
 22  1  1  0
 23 22  2  0
 24 25  2  0
 24 23  1  0
 25 20  1  0
  4 26  1  0
  4 27  1  0
  5 28  1  0
  5 29  1  0
  6 30  1  0
  7 31  1  0
  7 32  1  0
  8 33  1  1
 10 34  1  0
 11 35  1  0
 12 36  1  0
 13 37  1  0
 16 38  1  0
 18 39  1  0
 19 40  1  0
 20 41  1  0
 21 42  1  0
 24 43  1  0
M  ISO  8  26  13  27  13  28  13  29  13  30   5  31  13  32  13  33  13
M  ISO  8  34  14  35  14  36  14  37  14  38  14  39  14  40   9  41  14
M  ISO  2  42  14  43  14
M  END
>  <minimizedAffinity>  (1) 
-5.8492012

>  <minimizedRMSD>  (1) 
2.83830523

$$$$
