
     RDKit          3D

 52 55  0  0  1  0  0  0  0  0999 V2000
   36.8870   27.4410   42.8820 C   0  0  0  0  0  0  0  0  0  0  0  0
   36.0540   27.2260   43.8130 O   0  0  0  0  0  0  0  0  0  0  0  0
   37.7270   26.3520   42.5000 N   0  0  0  0  0  0  0  0  0  0  0  0
   39.0350   26.2430   43.0250 C   0  0  0  0  0  0  0  0  0  0  0  0
   39.6050   24.8810   43.1760 C   0  0  0  0  0  0  0  0  0  0  0  0
   39.1990   23.9220   42.2000 N   0  0  0  0  0  0  0  0  0  0  0  0
   37.8260   23.9380   41.9840 C   0  0  0  0  0  0  0  0  0  0  0  0
   37.3140   25.3270   41.6420 C   0  0  2  0  0  0  0  0  0  0  0  0
   37.1780   25.4950   40.2500 C   0  0  0  0  0  0  0  0  0  0  0  0
   37.4120   26.7550   39.6410 C   0  0  0  0  0  0  0  0  0  0  0  0
   37.3230   27.0170   38.2980 C   0  0  0  0  0  0  0  0  0  0  0  0
   36.9810   25.9240   37.5060 C   0  0  0  0  0  0  0  0  0  0  0  0
   36.7350   24.6500   38.0570 C   0  0  0  0  0  0  0  0  0  0  0  0
   36.8340   24.4850   39.4130 C   0  0  0  0  0  0  0  0  0  0  0  0
   36.2250   23.1590   39.6550 C   0  0  0  0  0  0  0  0  0  0  0  0
   36.4150   22.1510   38.5300 C   0  0  0  0  0  0  0  0  0  0  0  0
   35.8340   20.8290   39.0670 C   0  0  0  0  0  0  0  0  0  0  0  0
   34.3470   20.9040   38.8200 C   0  0  0  0  0  0  0  0  0  0  0  0
   33.9530   22.3350   38.7780 C   0  0  0  0  0  0  0  0  0  0  0  0
   34.7110   23.2590   39.6870 C   0  0  0  0  0  0  0  0  0  0  0  0
   38.4260   30.5440   41.6640 C   0  0  0  0  0  0  0  0  0  0  0  0
   38.2500   29.3470   42.3300 C   0  0  0  0  0  0  0  0  0  0  0  0
   37.0250   28.7020   42.2080 C   0  0  0  0  0  0  0  0  0  0  0  0
   36.0860   29.2790   41.4540 N   0  0  0  0  0  0  0  0  0  0  0  0
   36.2890   30.4500   40.8180 C   0  0  0  0  0  0  0  0  0  0  0  0
   37.4500   31.0860   40.9170 N   0  0  0  0  0  0  0  0  0  0  0  0
   39.7045   26.8077   42.3595 H   0  0  0  0  0  0  0  0  0  0  0  0
   38.9558   26.6274   44.0526 H   0  0  0  0  0  0  0  0  0  0  0  0
   40.7006   24.9672   43.1279 H   0  0  0  0  0  0  0  0  0  0  0  0
   39.2253   24.5051   44.1375 H   0  0  0  0  0  0  0  0  0  0  0  0
   39.6765   24.1310   41.3116 H   0  0  0  0  0  0  0  0  0  0  0  0
   37.5906   23.2589   41.1513 H   0  0  0  0  0  0  0  0  0  0  0  0
   37.3345   23.6169   42.9142 H   0  0  0  0  0  0  0  0  0  0  0  0
   36.2612   25.4495   41.9364 H   0  0  0  0  0  0  0  0  0  0  0  0
   37.6876   27.5908   40.3009 H   0  0  0  0  0  0  0  0  0  0  0  0
   37.5080   28.0165   37.8775 H   0  0  0  0  0  0  0  0  0  0  0  0
   36.9003   26.0588   36.4173 H   0  0  0  0  0  0  0  0  0  0  0  0
   36.4680   23.8025   37.4086 H   0  0  0  0  0  0  0  0  0  0  0  0
   36.7131   22.8411   40.5881 H   0  0  0  0  0  0  0  0  0  0  0  0
   37.4829   22.0346   38.2931 H   0  0  0  0  0  0  0  0  0  0  0  0
   35.9168   22.4717   37.6032 H   0  0  0  0  0  0  0  0  0  0  0  0
   36.2690   19.9731   38.5300 H   0  0  0  0  0  0  0  0  0  0  0  0
   36.0610   20.6906   40.1344 H   0  0  0  0  0  0  0  0  0  0  0  0
   34.1045   20.4231   37.8608 H   0  0  0  0  0  0  0  0  0  0  0  0
   33.8028   20.3845   39.6225 H   0  0  0  0  0  0  0  0  0  0  0  0
   34.0916   22.6910   37.7465 H   0  0  0  0  0  0  0  0  0  0  0  0
   32.9117   22.3638   39.1314 H   0  0  0  0  0  0  0  0  0  0  0  0
   34.3854   23.0534   40.7174 H   0  0  0  0  0  0  0  0  0  0  0  0
   34.4813   24.2720   39.3249 H   0  0  0  0  0  0  0  0  0  0  0  0
   39.3901   31.0670   41.7474 H   0  0  0  0  0  0  0  0  0  0  0  0
   39.0573   28.9159   42.9403 H   0  0  0  0  0  0  0  0  0  0  0  0
   35.4823   30.8842   40.2091 H   0  0  0  0  0  0  0  0  0  0  0  0
  1  2  2  0
  3  1  1  0
  3  4  1  0
  4  5  1  0
  6  5  1  0
  7  6  1  0
  8  7  1  0
  8  3  1  0
  9  8  1  0
 10  9  2  0
 11 10  1  0
 12 13  1  0
 12 11  2  0
 13 14  2  0
 14 15  1  0
 14  9  1  0
 15 20  1  0
 16 17  1  0
 16 15  1  0
 18 17  1  0
 19 18  1  0
 19 20  1  0
 21 22  2  0
 23 22  1  0
 23  1  1  0
 24 23  2  0
 25 26  2  0
 25 24  1  0
 26 21  1  0
  4 27  1  0
  4 28  1  0
  5 29  1  0
  5 30  1  0
  6 31  1  0
  7 32  1  0
  7 33  1  0
  8 34  1  1
 10 35  1  0
 11 36  1  0
 12 37  1  0
 13 38  1  0
 15 39  1  0
 16 40  1  0
 16 41  1  0
 17 42  1  0
 17 43  1  0
 18 44  1  0
 18 45  1  0
 19 46  1  0
 19 47  1  0
 20 48  1  0
 20 49  1  0
 21 50  1  0
 22 51  1  0
 25 52  1  0
M  ISO  8  27  13  28  13  29  13  30  13  31   5  32  13  33  13  34  13
M  ISO  8  35  14  36  14  37  14  38  14  39  13  40  13  41  13  42  13
M  ISO  8  43  13  44  13  45  13  46  13  47  13  48  13  49  13  50  14
M  ISO  2  51  14  52  14
M  END
>  <minimizedAffinity>  (1) 
-5.82724285

>  <minimizedRMSD>  (1) 
4.30536938

$$$$
