
     RDKit          3D

 49 52  0  0  1  0  0  0  0  0999 V2000
   37.0520   27.4470   42.8950 C   0  0  0  0  0  0  0  0  0  0  0  0
   36.1020   27.2320   43.7060 O   0  0  0  0  0  0  0  0  0  0  0  0
   37.8450   26.3190   42.5290 N   0  0  0  0  0  0  0  0  0  0  0  0
   39.0660   26.0740   43.2080 C   0  0  0  0  0  0  0  0  0  0  0  0
   39.5630   24.6870   43.2830 C   0  0  0  0  0  0  0  0  0  0  0  0
   39.2020   23.8230   42.2080 N   0  0  0  0  0  0  0  0  0  0  0  0
   37.8620   23.9500   41.8500 C   0  0  0  0  0  0  0  0  0  0  0  0
   37.4740   25.3890   41.5560 C   0  0  2  0  0  0  0  0  0  0  0  0
   37.5360   25.6690   40.1720 C   0  0  0  0  0  0  0  0  0  0  0  0
   38.3700   26.7120   39.6850 C   0  0  0  0  0  0  0  0  0  0  0  0
   38.5210   27.0530   38.3690 C   0  0  0  0  0  0  0  0  0  0  0  0
   37.7900   26.2900   37.4650 C   0  0  0  0  0  0  0  0  0  0  0  0
   36.9480   25.2480   37.8950 C   0  0  0  0  0  0  0  0  0  0  0  0
   36.8440   24.9800   39.2370 C   0  0  0  0  0  0  0  0  0  0  0  0
   35.7000   24.0960   39.3770 C   0  0  0  0  0  0  0  0  0  0  0  0
   34.7790   24.1830   38.1480 C   0  0  0  0  0  0  0  0  0  0  0  0
   33.6830   23.2660   38.6270 C   0  0  0  0  0  0  0  0  0  0  0  0
   34.5010   22.1120   39.1750 C   0  0  0  0  0  0  0  0  0  0  0  0
   35.9630   22.6220   39.0910 C   0  0  0  0  0  0  0  0  0  0  0  0
   38.9150   30.5230   42.1710 C   0  0  0  0  0  0  0  0  0  0  0  0
   38.5700   29.3040   42.7170 C   0  0  0  0  0  0  0  0  0  0  0  0
   37.3570   28.7360   42.3440 C   0  0  0  0  0  0  0  0  0  0  0  0
   36.5880   29.4040   41.4790 N   0  0  0  0  0  0  0  0  0  0  0  0
   36.9590   30.5980   40.9660 C   0  0  0  0  0  0  0  0  0  0  0  0
   38.1140   31.1610   41.3040 N   0  0  0  0  0  0  0  0  0  0  0  0
   39.8421   26.6705   42.7062 H   0  0  0  0  0  0  0  0  0  0  0  0
   38.8512   26.3403   44.2534 H   0  0  0  0  0  0  0  0  0  0  0  0
   40.6615   24.7274   43.3249 H   0  0  0  0  0  0  0  0  0  0  0  0
   39.0873   24.2552   44.1759 H   0  0  0  0  0  0  0  0  0  0  0  0
   39.7856   24.0510   41.3905 H   0  0  0  0  0  0  0  0  0  0  0  0
   37.6778   23.3439   40.9507 H   0  0  0  0  0  0  0  0  0  0  0  0
   37.2542   23.6061   42.6999 H   0  0  0  0  0  0  0  0  0  0  0  0
   36.3986   25.5471   41.7249 H   0  0  0  0  0  0  0  0  0  0  0  0
   38.9399   27.2916   40.4262 H   0  0  0  0  0  0  0  0  0  0  0  0
   39.1767   27.8756   38.0474 H   0  0  0  0  0  0  0  0  0  0  0  0
   37.8719   26.5060   36.3895 H   0  0  0  0  0  0  0  0  0  0  0  0
   36.3794   24.6548   37.1637 H   0  0  0  0  0  0  0  0  0  0  0  0
   35.3634   24.3771   40.3858 H   0  0  0  0  0  0  0  0  0  0  0  0
   35.2665   23.8060   37.2369 H   0  0  0  0  0  0  0  0  0  0  0  0
   34.4626   25.1958   37.8581 H   0  0  0  0  0  0  0  0  0  0  0  0
   33.0729   23.7385   39.4109 H   0  0  0  0  0  0  0  0  0  0  0  0
   32.9545   22.9822   37.8532 H   0  0  0  0  0  0  0  0  0  0  0  0
   34.2215   21.8932   40.2162 H   0  0  0  0  0  0  0  0  0  0  0  0
   34.3440   21.1769   38.6174 H   0  0  0  0  0  0  0  0  0  0  0  0
   36.6083   22.1600   39.8527 H   0  0  0  0  0  0  0  0  0  0  0  0
   36.4939   22.4030   38.1528 H   0  0  0  0  0  0  0  0  0  0  0  0
   39.8726   30.9844   42.4540 H   0  0  0  0  0  0  0  0  0  0  0  0
   39.2368   28.7949   43.4285 H   0  0  0  0  0  0  0  0  0  0  0  0
   36.2937   31.1122   40.2568 H   0  0  0  0  0  0  0  0  0  0  0  0
  1  2  2  0
  3  1  1  0
  3  4  1  0
  4  5  1  0
  6  5  1  0
  7  6  1  0
  8  7  1  0
  8  3  1  0
  9  8  1  0
 10  9  2  0
 11 10  1  0
 12 13  1  0
 12 11  2  0
 13 14  2  0
 14 15  1  0
 14  9  1  0
 16 17  1  0
 16 15  1  0
 17 18  1  0
 19 18  1  0
 19 15  1  0
 20 21  2  0
 22 21  1  0
 22  1  1  0
 23 22  2  0
 24 25  2  0
 24 23  1  0
 25 20  1  0
  4 26  1  0
  4 27  1  0
  5 28  1  0
  5 29  1  0
  6 30  1  0
  7 31  1  0
  7 32  1  0
  8 33  1  1
 10 34  1  0
 11 35  1  0
 12 36  1  0
 13 37  1  0
 15 38  1  0
 16 39  1  0
 16 40  1  0
 17 41  1  0
 17 42  1  0
 18 43  1  0
 18 44  1  0
 19 45  1  0
 19 46  1  0
 20 47  1  0
 21 48  1  0
 24 49  1  0
M  ISO  8  26  13  27  13  28  13  29  13  30   5  31  13  32  13  33  13
M  ISO  8  34  14  35  14  36  14  37  14  38  13  39  13  40  13  41  13
M  ISO  8  42  13  43  13  44  13  45  13  46  13  47  14  48  14  49  14
M  END
>  <minimizedAffinity>  (1) 
-5.52145386

>  <minimizedRMSD>  (1) 
3.59023023

$$$$
