
     RDKit          3D

 48 50  0  0  1  0  0  0  0  0999 V2000
   37.4370   27.9490   43.3040 C   0  0  0  0  0  0  0  0  0  0  0  0
   36.9900   27.9170   44.4810 O   0  0  0  0  0  0  0  0  0  0  0  0
   38.5220   27.0720   42.9770 N   0  0  0  0  0  0  0  0  0  0  0  0
   39.8560   27.5240   42.9930 C   0  0  0  0  0  0  0  0  0  0  0  0
   40.8950   26.5360   43.4000 C   0  0  0  0  0  0  0  0  0  0  0  0
   40.6540   25.1840   43.0290 N   0  0  0  0  0  0  0  0  0  0  0  0
   39.3760   24.7650   43.2790 C   0  0  0  0  0  0  0  0  0  0  0  0
   38.3910   25.7260   42.6470 C   0  0  2  0  0  0  0  0  0  0  0  0
   37.8750   25.2410   41.4680 C   0  0  0  0  0  0  0  0  0  0  0  0
   36.9750   24.1160   41.4700 C   0  0  0  0  0  0  0  0  0  0  0  0
   36.3060   23.5970   40.4130 C   0  0  0  0  0  0  0  0  0  0  0  0
   36.5580   24.2960   39.2280 C   0  0  0  0  0  0  0  0  0  0  0  0
   37.4520   25.4220   39.1530 C   0  0  0  0  0  0  0  0  0  0  0  0
   38.0680   25.8060   40.2800 C   0  0  0  0  0  0  0  0  0  0  0  0
   39.3780   26.4890   39.8770 C   0  0  0  0  0  0  0  0  0  0  0  0
   40.5110   25.5000   39.7860 C   0  0  0  0  0  0  0  0  0  0  0  0
   39.3250   26.4180   38.2050 C   0  0  0  0  0  0  0  0  0  0  0  0
   39.5340   27.8850   39.7960 C   0  0  0  0  0  0  0  0  0  0  0  0
   37.1000   30.8500   41.1080 C   0  0  0  0  0  0  0  0  0  0  0  0
   37.5460   30.0230   42.1140 C   0  0  0  0  0  0  0  0  0  0  0  0
   36.9300   28.8020   42.2720 C   0  0  0  0  0  0  0  0  0  0  0  0
   35.9380   28.5250   41.4330 N   0  0  0  0  0  0  0  0  0  0  0  0
   35.5080   29.3330   40.4610 C   0  0  0  0  0  0  0  0  0  0  0  0
   36.0880   30.5030   40.2890 N   0  0  0  0  0  0  0  0  0  0  0  0
   40.1032   27.8678   41.9778 H   0  0  0  0  0  0  0  0  0  0  0  0
   39.8855   28.3074   43.7647 H   0  0  0  0  0  0  0  0  0  0  0  0
   41.8480   26.8443   42.9453 H   0  0  0  0  0  0  0  0  0  0  0  0
   40.8952   26.5444   44.5000 H   0  0  0  0  0  0  0  0  0  0  0  0
   41.3026   24.5816   43.5556 H   0  0  0  0  0  0  0  0  0  0  0  0
   39.2308   23.7607   42.8543 H   0  0  0  0  0  0  0  0  0  0  0  0
   39.2087   24.7342   44.3658 H   0  0  0  0  0  0  0  0  0  0  0  0
   37.4279   25.7790   43.1759 H   0  0  0  0  0  0  0  0  0  0  0  0
   36.8129   23.6228   42.4398 H   0  0  0  0  0  0  0  0  0  0  0  0
   35.6397   22.7243   40.4790 H   0  0  0  0  0  0  0  0  0  0  0  0
   36.0487   23.9697   38.3092 H   0  0  0  0  0  0  0  0  0  0  0  0
   37.6238   25.9494   38.2031 H   0  0  0  0  0  0  0  0  0  0  0  0
   40.8339   25.2181   40.7991 H   0  0  0  0  0  0  0  0  0  0  0  0
   40.1725   24.6033   39.2463 H   0  0  0  0  0  0  0  0  0  0  0  0
   41.3538   25.9565   39.2463 H   0  0  0  0  0  0  0  0  0  0  0  0
   38.6939   25.5725   37.8937 H   0  0  0  0  0  0  0  0  0  0  0  0
   38.9034   27.3547   37.8114 H   0  0  0  0  0  0  0  0  0  0  0  0
   40.3429   26.2801   37.8114 H   0  0  0  0  0  0  0  0  0  0  0  0
   39.5813   28.3081   40.8103 H   0  0  0  0  0  0  0  0  0  0  0  0
   40.4639   28.1194   39.2572 H   0  0  0  0  0  0  0  0  0  0  0  0
   38.6787   28.3189   39.2572 H   0  0  0  0  0  0  0  0  0  0  0  0
   37.5861   31.8268   40.9681 H   0  0  0  0  0  0  0  0  0  0  0  0
   38.3716   30.3292   42.7733 H   0  0  0  0  0  0  0  0  0  0  0  0
   34.6769   29.0244   39.8098 H   0  0  0  0  0  0  0  0  0  0  0  0
  1  2  2  0
  3  4  1  0
  3  1  1  0
  4  5  1  0
  6  7  1  0
  6  5  1  0
  8  3  1  0
  8  7  1  0
  9 10  2  0
  9  8  1  0
 11 10  1  0
 12 11  2  0
 13 12  1  0
 13 14  2  0
 14  9  1  0
 15 14  1  0
 16 15  1  0
 17 15  1  0
 18 15  1  0
 19 20  2  0
 20 21  1  0
 21  1  1  0
 22 21  2  0
 23 22  1  0
 24 23  2  0
 24 19  1  0
  4 25  1  0
  4 26  1  0
  5 27  1  0
  5 28  1  0
  6 29  1  0
  7 30  1  0
  7 31  1  0
  8 32  1  1
 10 33  1  0
 11 34  1  0
 12 35  1  0
 13 36  1  0
 16 37  1  0
 16 38  1  0
 16 39  1  0
 17 40  1  0
 17 41  1  0
 17 42  1  0
 18 43  1  0
 18 44  1  0
 18 45  1  0
 19 46  1  0
 20 47  1  0
 23 48  1  0
M  ISO  8  25  13  26  13  27  13  28  13  29   5  30  13  31  13  32  13
M  ISO  8  33  14  34  14  35  14  36  14  37   8  38   8  39   8  40   8
M  ISO  8  41   8  42   8  43   8  44   8  45   8  46  14  47  14  48  14
M  END
>  <minimizedAffinity>  (1) 
-5.51870441

>  <minimizedRMSD>  (1) 
1.89401674

$$$$
