
     RDKit          3D

 43 46  0  0  1  0  0  0  0  0999 V2000
   36.8950   27.3760   42.8390 C   0  0  0  0  0  0  0  0  0  0  0  0
   36.0140   27.1670   43.7450 O   0  0  0  0  0  0  0  0  0  0  0  0
   37.7050   26.2600   42.4760 N   0  0  0  0  0  0  0  0  0  0  0  0
   39.0000   26.1600   43.0560 C   0  0  0  0  0  0  0  0  0  0  0  0
   39.6160   24.8050   43.1360 C   0  0  0  0  0  0  0  0  0  0  0  0
   39.1950   23.8540   42.1970 N   0  0  0  0  0  0  0  0  0  0  0  0
   37.8350   23.8600   41.9290 C   0  0  0  0  0  0  0  0  0  0  0  0
   37.2810   25.2360   41.6140 C   0  0  2  0  0  0  0  0  0  0  0  0
   37.2550   25.4560   40.1870 C   0  0  0  0  0  0  0  0  0  0  0  0
   37.8120   26.6260   39.6270 C   0  0  0  0  0  0  0  0  0  0  0  0
   37.8660   26.9480   38.3070 C   0  0  0  0  0  0  0  0  0  0  0  0
   37.3140   26.0030   37.4490 C   0  0  0  0  0  0  0  0  0  0  0  0
   36.7440   24.8230   37.9350 C   0  0  0  0  0  0  0  0  0  0  0  0
   36.7250   24.5840   39.3010 C   0  0  0  0  0  0  0  0  0  0  0  0
   35.7530   23.4570   39.3370 C   0  0  0  0  0  0  0  0  0  0  0  0
   34.4880   23.3180   39.5280 C   0  0  0  0  0  0  0  0  0  0  0  0
   33.6700   22.3000   39.4260 C   0  0  0  0  0  0  0  0  0  0  0  0
   34.3540   21.2100   39.0370 C   0  0  0  0  0  0  0  0  0  0  0  0
   36.1700   21.7090   38.8320 S   0  0  0  0  0  0  0  0  0  0  0  0
   38.5140   30.4970   41.7560 C   0  0  0  0  0  0  0  0  0  0  0  0
   38.2980   29.2880   42.3780 C   0  0  0  0  0  0  0  0  0  0  0  0
   37.1070   28.6490   42.1830 C   0  0  0  0  0  0  0  0  0  0  0  0
   36.1990   29.2360   41.3880 N   0  0  0  0  0  0  0  0  0  0  0  0
   36.4220   30.4130   40.7900 C   0  0  0  0  0  0  0  0  0  0  0  0
   37.5710   31.0530   40.9630 N   0  0  0  0  0  0  0  0  0  0  0  0
   39.6759   26.7947   42.4641 H   0  0  0  0  0  0  0  0  0  0  0  0
   38.8623   26.4672   44.1032 H   0  0  0  0  0  0  0  0  0  0  0  0
   40.7027   24.9280   43.0181 H   0  0  0  0  0  0  0  0  0  0  0  0
   39.2950   24.4045   44.1089 H   0  0  0  0  0  0  0  0  0  0  0  0
   39.6957   24.0323   41.3147 H   0  0  0  0  0  0  0  0  0  0  0  0
   37.6485   23.2047   41.0654 H   0  0  0  0  0  0  0  0  0  0  0  0
   37.3267   23.5100   42.8396 H   0  0  0  0  0  0  0  0  0  0  0  0
   36.2163   25.2782   41.8870 H   0  0  0  0  0  0  0  0  0  0  0  0
   38.2468   27.3514   40.3304 H   0  0  0  0  0  0  0  0  0  0  0  0
   38.3128   27.8857   37.9450 H   0  0  0  0  0  0  0  0  0  0  0  0
   37.3262   26.1881   36.3648 H   0  0  0  0  0  0  0  0  0  0  0  0
   36.3132   24.0886   37.2385 H   0  0  0  0  0  0  0  0  0  0  0  0
   33.9901   24.2472   39.8422 H   0  0  0  0  0  0  0  0  0  0  0  0
   32.5891   22.3321   39.6277 H   0  0  0  0  0  0  0  0  0  0  0  0
   33.9342   20.2074   38.8679 H   0  0  0  0  0  0  0  0  0  0  0  0
   39.4702   31.0194   41.9069 H   0  0  0  0  0  0  0  0  0  0  0  0
   39.0719   28.8441   43.0214 H   0  0  0  0  0  0  0  0  0  0  0  0
   35.6445   30.8538   40.1487 H   0  0  0  0  0  0  0  0  0  0  0  0
  1  2  2  0
  3  1  1  0
  3  4  1  0
  4  5  1  0
  6  5  1  0
  7  6  1  0
  8  7  1  0
  8  3  1  0
  9  8  1  0
 10  9  2  0
 11 10  1  0
 12 13  1  0
 12 11  2  0
 13 14  2  0
 14 15  1  0
 14  9  1  0
 15 16  2  0
 17 16  1  0
 18 17  2  0
 19 18  1  0
 19 15  1  0
 20 21  2  0
 22 21  1  0
 22  1  1  0
 23 22  2  0
 24 25  2  0
 24 23  1  0
 25 20  1  0
  4 26  1  0
  4 27  1  0
  5 28  1  0
  5 29  1  0
  6 30  1  0
  7 31  1  0
  7 32  1  0
  8 33  1  1
 10 34  1  0
 11 35  1  0
 12 36  1  0
 13 37  1  0
 16 38  1  0
 17 39  1  0
 18 40  1  0
 20 41  1  0
 21 42  1  0
 24 43  1  0
M  ISO  8  26  13  27  13  28  13  29  13  30   5  31  13  32  13  33  13
M  ISO  8  34  14  35  14  36  14  37  14  38  14  39  14  40  14  41  14
M  ISO  2  42  14  43  14
M  END
>  <minimizedAffinity>  (1) 
-5.49628067

>  <minimizedRMSD>  (1) 
3.95745111

$$$$
