
     RDKit          3D

 49 52  0  0  1  0  0  0  0  0999 V2000
   36.9440   27.5750   42.8500 C   0  0  0  0  0  0  0  0  0  0  0  0
   36.1010   27.1310   43.6900 O   0  0  0  0  0  0  0  0  0  0  0  0
   38.2260   26.9450   42.8160 N   0  0  0  0  0  0  0  0  0  0  0  0
   39.3300   27.5780   43.4860 C   0  0  0  0  0  0  0  0  0  0  0  0
   40.3930   26.6770   43.9980 C   0  0  0  0  0  0  0  0  0  0  0  0
   40.6660   25.5160   43.2150 N   0  0  0  0  0  0  0  0  0  0  0  0
   39.4980   24.8350   42.8440 C   0  0  0  0  0  0  0  0  0  0  0  0
   38.4630   25.7170   42.1740 C   0  0  2  0  0  0  0  0  0  0  0  0
   38.5900   25.6690   40.7500 C   0  0  0  0  0  0  0  0  0  0  0  0
   38.9700   26.8160   40.0060 C   0  0  0  0  0  0  0  0  0  0  0  0
   39.1080   26.8870   38.6470 C   0  0  0  0  0  0  0  0  0  0  0  0
   38.8500   25.7050   37.9480 C   0  0  0  0  0  0  0  0  0  0  0  0
   38.4630   24.5220   38.6180 C   0  0  0  0  0  0  0  0  0  0  0  0
   38.3490   24.5870   39.9970 C   0  0  0  0  0  0  0  0  0  0  0  0
   37.6530   23.3960   40.1400 N   0  0  0  0  0  0  0  0  0  0  0  0
   36.2760   23.6980   40.5960 C   0  0  0  0  0  0  0  0  0  0  0  0
   35.2560   23.4410   39.5000 C   0  0  0  0  0  0  0  0  0  0  0  0
   35.7610   22.6440   38.5080 O   0  0  0  0  0  0  0  0  0  0  0  0
   36.4050   21.5930   39.1060 C   0  0  0  0  0  0  0  0  0  0  0  0
   37.5890   21.9860   39.9810 C   0  0  0  0  0  0  0  0  0  0  0  0
   37.2200   30.8400   41.1760 C   0  0  0  0  0  0  0  0  0  0  0  0
   37.4540   29.7860   42.0390 C   0  0  0  0  0  0  0  0  0  0  0  0
   36.6770   28.6700   41.9440 C   0  0  0  0  0  0  0  0  0  0  0  0
   35.7190   28.6660   41.0060 N   0  0  0  0  0  0  0  0  0  0  0  0
   35.4980   29.6890   40.1740 C   0  0  0  0  0  0  0  0  0  0  0  0
   36.2430   30.7820   40.2490 N   0  0  0  0  0  0  0  0  0  0  0  0
   39.7964   28.2771   42.7763 H   0  0  0  0  0  0  0  0  0  0  0  0
   38.8970   28.0565   44.3768 H   0  0  0  0  0  0  0  0  0  0  0  0
   41.3227   27.2607   44.0680 H   0  0  0  0  0  0  0  0  0  0  0  0
   40.0207   26.3008   44.9623 H   0  0  0  0  0  0  0  0  0  0  0  0
   41.1670   25.8026   42.3619 H   0  0  0  0  0  0  0  0  0  0  0  0
   39.7724   24.0304   42.1459 H   0  0  0  0  0  0  0  0  0  0  0  0
   39.0425   24.4521   43.7691 H   0  0  0  0  0  0  0  0  0  0  0  0
   37.4626   25.2887   42.3347 H   0  0  0  0  0  0  0  0  0  0  0  0
   39.1727   27.7347   40.5759 H   0  0  0  0  0  0  0  0  0  0  0  0
   39.4033   27.8157   38.1368 H   0  0  0  0  0  0  0  0  0  0  0  0
   38.9502   25.6948   36.8526 H   0  0  0  0  0  0  0  0  0  0  0  0
   38.2612   23.5907   38.0685 H   0  0  0  0  0  0  0  0  0  0  0  0
   36.0386   23.0615   41.4612 H   0  0  0  0  0  0  0  0  0  0  0  0
   36.2289   24.7629   40.8676 H   0  0  0  0  0  0  0  0  0  0  0  0
   34.3777   22.9466   39.9407 H   0  0  0  0  0  0  0  0  0  0  0  0
   34.9845   24.4091   39.0538 H   0  0  0  0  0  0  0  0  0  0  0  0
   35.6775   21.0580   39.7341 H   0  0  0  0  0  0  0  0  0  0  0  0
   36.8119   20.9746   38.2924 H   0  0  0  0  0  0  0  0  0  0  0  0
   37.4784   21.5163   40.9695 H   0  0  0  0  0  0  0  0  0  0  0  0
   38.5149   21.6437   39.4957 H   0  0  0  0  0  0  0  0  0  0  0  0
   37.8431   31.7437   41.2470 H   0  0  0  0  0  0  0  0  0  0  0  0
   38.2547   29.8468   42.7907 H   0  0  0  0  0  0  0  0  0  0  0  0
   34.6952   29.6230   39.4249 H   0  0  0  0  0  0  0  0  0  0  0  0
  1  2  2  0
  3  1  1  0
  3  4  1  0
  4  5  1  0
  6  5  1  0
  7  6  1  0
  8  3  1  0
  8  7  1  0
  9  8  1  0
 10  9  2  0
 11 10  1  0
 12 13  1  0
 12 11  2  0
 13 14  2  0
 14 15  1  0
 14  9  1  0
 15 16  1  0
 17 16  1  0
 18 19  1  0
 18 17  1  0
 19 20  1  0
 20 15  1  0
 21 22  2  0
 23 22  1  0
 23  1  1  0
 24 23  2  0
 25 26  2  0
 25 24  1  0
 26 21  1  0
  4 27  1  0
  4 28  1  0
  5 29  1  0
  5 30  1  0
  6 31  1  0
  7 32  1  0
  7 33  1  0
  8 34  1  6
 10 35  1  0
 11 36  1  0
 12 37  1  0
 13 38  1  0
 16 39  1  0
 16 40  1  0
 17 41  1  0
 17 42  1  0
 19 43  1  0
 19 44  1  0
 20 45  1  0
 20 46  1  0
 21 47  1  0
 22 48  1  0
 25 49  1  0
M  ISO  8  27  13  28  13  29  13  30  13  31   5  32  13  33  13  34  13
M  ISO  8  35  14  36  14  37  14  38  14  39  13  40  13  41  13  42  13
M  ISO  7  43  13  44  13  45  13  46  13  47  14  48  14  49  14
M  END
>  <minimizedAffinity>  (1) 
-5.45325232

>  <minimizedRMSD>  (1) 
3.79533458

$$$$
