
     RDKit          3D

 42 44  0  0  1  0  0  0  0  0999 V2000
   38.2900   27.8100   43.4600 C   0  0  0  0  0  0  0  0  0  0  0  0
   37.5730   27.9000   44.5110 O   0  0  0  0  0  0  0  0  0  0  0  0
   38.3340   26.5230   42.8400 N   0  0  0  0  0  0  0  0  0  0  0  0
   39.4290   25.6700   43.1280 C   0  0  0  0  0  0  0  0  0  0  0  0
   39.2660   24.2160   42.9430 C   0  0  0  0  0  0  0  0  0  0  0  0
   38.2980   23.7920   41.9990 N   0  0  0  0  0  0  0  0  0  0  0  0
   37.1050   24.5280   42.0760 C   0  0  0  0  0  0  0  0  0  0  0  0
   37.3270   26.0240   42.0000 C   0  0  2  0  0  0  0  0  0  0  0  0
   37.1920   26.4940   40.6460 C   0  0  0  0  0  0  0  0  0  0  0  0
   37.9030   25.8670   39.5950 C   0  0  0  0  0  0  0  0  0  0  0  0
   37.8370   26.2130   38.2810 C   0  0  0  0  0  0  0  0  0  0  0  0
   36.9930   27.2680   37.9720 C   0  0  0  0  0  0  0  0  0  0  0  0
   36.2710   27.9230   38.9670 C   0  0  0  0  0  0  0  0  0  0  0  0
   36.3900   27.5240   40.2980 C   0  0  0  0  0  0  0  0  0  0  0  0
   35.6380   28.5970   40.9470 C   0  0  0  0  0  0  0  0  0  0  0  0
   35.6530   29.9390   40.1600 C   0  0  0  0  0  0  0  0  0  0  0  0
   41.1430   29.7880   42.2380 C   0  0  0  0  0  0  0  0  0  0  0  0
   40.4120   28.7660   42.8130 C   0  0  0  0  0  0  0  0  0  0  0  0
   39.0330   28.9020   42.8910 C   0  0  0  0  0  0  0  0  0  0  0  0
   38.4680   30.0250   42.4030 N   0  0  0  0  0  0  0  0  0  0  0  0
   39.2220   30.9990   41.8490 C   0  0  0  0  0  0  0  0  0  0  0  0
   40.5440   30.8980   41.7580 N   0  0  0  0  0  0  0  0  0  0  0  0
   40.2629   25.9861   42.4841 H   0  0  0  0  0  0  0  0  0  0  0  0
   39.5771   25.7848   44.2119 H   0  0  0  0  0  0  0  0  0  0  0  0
   40.2383   23.8108   42.6261 H   0  0  0  0  0  0  0  0  0  0  0  0
   38.9021   23.8438   43.9120 H   0  0  0  0  0  0  0  0  0  0  0  0
   38.0839   22.7992   42.1703 H   0  0  0  0  0  0  0  0  0  0  0  0
   36.4533   24.2275   41.2424 H   0  0  0  0  0  0  0  0  0  0  0  0
   36.6477   24.3123   43.0529 H   0  0  0  0  0  0  0  0  0  0  0  0
   36.5034   26.5516   42.5033 H   0  0  0  0  0  0  0  0  0  0  0  0
   38.5643   25.0299   39.8631 H   0  0  0  0  0  0  0  0  0  0  0  0
   38.4188   25.6869   37.5098 H   0  0  0  0  0  0  0  0  0  0  0  0
   36.8918   27.5928   36.9259 H   0  0  0  0  0  0  0  0  0  0  0  0
   35.6050   28.7574   38.7021 H   0  0  0  0  0  0  0  0  0  0  0  0
   34.5932   28.2710   41.0568 H   0  0  0  0  0  0  0  0  0  0  0  0
   36.1233   28.7880   41.9155 H   0  0  0  0  0  0  0  0  0  0  0  0
   35.6624   30.7798   40.8691 H   0  0  0  0  0  0  0  0  0  0  0  0
   36.5517   29.9830   39.5272 H   0  0  0  0  0  0  0  0  0  0  0  0
   34.7555   30.0030   39.5272 H   0  0  0  0  0  0  0  0  0  0  0  0
   42.2369   29.6948   42.1700 H   0  0  0  0  0  0  0  0  0  0  0  0
   40.9115   27.8655   43.1999 H   0  0  0  0  0  0  0  0  0  0  0  0
   38.7275   31.9021   41.4619 H   0  0  0  0  0  0  0  0  0  0  0  0
  1  2  2  0
  3  4  1  0
  3  1  1  0
  5  4  1  0
  6  7  1  0
  6  5  1  0
  8  7  1  0
  8  3  1  0
  9  8  1  0
 10  9  2  0
 11 10  1  0
 12 11  2  0
 12 13  1  0
 13 14  2  0
 14  9  1  0
 14 15  1  0
 16 15  1  0
 17 18  2  0
 18 19  1  0
 19  1  1  0
 20 19  2  0
 21 20  1  0
 22 21  2  0
 22 17  1  0
  4 23  1  0
  4 24  1  0
  5 25  1  0
  5 26  1  0
  6 27  1  0
  7 28  1  0
  7 29  1  0
  8 30  1  1
 10 31  1  0
 11 32  1  0
 12 33  1  0
 13 34  1  0
 15 35  1  0
 15 36  1  0
 16 37  1  0
 16 38  1  0
 16 39  1  0
 17 40  1  0
 18 41  1  0
 21 42  1  0
M  ISO  8  23  13  24  13  25  13  26  13  27   5  28  13  29  13  30  13
M  ISO  8  31  14  32  14  33  14  34  14  35   8  36   8  37   8  38   8
M  ISO  4  39   8  40  14  41  14  42  14
M  END
>  <minimizedAffinity>  (1) 
-5.33958244

>  <minimizedRMSD>  (1) 
1.78773308

$$$$
