
     RDKit          3D

 39 41  0  0  1  0  0  0  0  0999 V2000
   37.5140   27.8210   43.1920 C   0  0  0  0  0  0  0  0  0  0  0  0
   36.6280   27.7340   44.1070 O   0  0  0  0  0  0  0  0  0  0  0  0
   38.1350   26.5980   42.8020 N   0  0  0  0  0  0  0  0  0  0  0  0
   39.3990   26.2710   43.3680 C   0  0  0  0  0  0  0  0  0  0  0  0
   39.7840   24.8390   43.4260 C   0  0  0  0  0  0  0  0  0  0  0  0
   39.2480   23.9950   42.4330 N   0  0  0  0  0  0  0  0  0  0  0  0
   37.8920   24.2170   42.2050 C   0  0  0  0  0  0  0  0  0  0  0  0
   37.5570   25.6710   41.9240 C   0  0  2  0  0  0  0  0  0  0  0  0
   37.5110   25.9180   40.5170 C   0  0  0  0  0  0  0  0  0  0  0  0
   36.3790   25.5450   39.7520 C   0  0  0  0  0  0  0  0  0  0  0  0
   36.2310   25.7350   38.4080 C   0  0  0  0  0  0  0  0  0  0  0  0
   37.2890   26.3520   37.7650 C   0  0  0  0  0  0  0  0  0  0  0  0
   38.4370   26.7450   38.4620 C   0  0  0  0  0  0  0  0  0  0  0  0
   38.5180   26.5100   39.8250 C   0  0  0  0  0  0  0  0  0  0  0  0
   39.8820   26.9610   40.1570 C   0  0  0  0  0  0  0  0  0  0  0  0
   39.4850   30.8170   42.3630 C   0  0  0  0  0  0  0  0  0  0  0  0
   39.0760   29.6500   42.9770 C   0  0  0  0  0  0  0  0  0  0  0  0
   37.9020   29.0510   42.5620 C   0  0  0  0  0  0  0  0  0  0  0  0
   37.2110   29.6390   41.5740 N   0  0  0  0  0  0  0  0  0  0  0  0
   37.6340   30.7830   40.9910 C   0  0  0  0  0  0  0  0  0  0  0  0
   38.7600   31.3770   41.3720 N   0  0  0  0  0  0  0  0  0  0  0  0
   40.1669   26.7931   42.7784 H   0  0  0  0  0  0  0  0  0  0  0  0
   39.3174   26.5777   44.4212 H   0  0  0  0  0  0  0  0  0  0  0  0
   40.8802   24.7861   43.3511 H   0  0  0  0  0  0  0  0  0  0  0  0
   39.3675   24.4678   44.3740 H   0  0  0  0  0  0  0  0  0  0  0  0
   39.7596   24.1564   41.5537 H   0  0  0  0  0  0  0  0  0  0  0  0
   37.5809   23.6141   41.3392 H   0  0  0  0  0  0  0  0  0  0  0  0
   37.3579   23.9328   43.1237 H   0  0  0  0  0  0  0  0  0  0  0  0
   36.5199   25.8840   42.2224 H   0  0  0  0  0  0  0  0  0  0  0  0
   35.5481   25.0609   40.2862 H   0  0  0  0  0  0  0  0  0  0  0  0
   35.3260   25.4170   37.8696 H   0  0  0  0  0  0  0  0  0  0  0  0
   37.2266   26.5377   36.6826 H   0  0  0  0  0  0  0  0  0  0  0  0
   39.2671   27.2358   37.9328 H   0  0  0  0  0  0  0  0  0  0  0  0
   39.9995   26.9998   41.2500 H   0  0  0  0  0  0  0  0  0  0  0  0
   40.6140   26.2571   39.7343 H   0  0  0  0  0  0  0  0  0  0  0  0
   40.0501   27.9625   39.7343 H   0  0  0  0  0  0  0  0  0  0  0  0
   40.4189   31.2992   42.6875 H   0  0  0  0  0  0  0  0  0  0  0  0
   39.6755   29.2039   43.7842 H   0  0  0  0  0  0  0  0  0  0  0  0
   37.0341   31.2311   40.1852 H   0  0  0  0  0  0  0  0  0  0  0  0
  1  2  2  0
  3  1  1  0
  3  4  1  0
  4  5  1  0
  6  5  1  0
  7  6  1  0
  8  7  1  0
  8  3  1  0
  9  8  1  0
 10  9  2  0
 11 10  1  0
 12 11  2  0
 12 13  1  0
 13 14  2  0
 14 15  1  0
 14  9  1  0
 16 17  2  0
 18 17  1  0
 18  1  1  0
 19 18  2  0
 20 21  2  0
 20 19  1  0
 21 16  1  0
  4 22  1  0
  4 23  1  0
  5 24  1  0
  5 25  1  0
  6 26  1  0
  7 27  1  0
  7 28  1  0
  8 29  1  1
 10 30  1  0
 11 31  1  0
 12 32  1  0
 13 33  1  0
 15 34  1  0
 15 35  1  0
 15 36  1  0
 16 37  1  0
 17 38  1  0
 20 39  1  0
M  ISO  8  22  13  23  13  24  13  25  13  26   5  27  13  28  13  29  13
M  ISO  8  30  14  31  14  32  14  33  14  34   8  35   8  36   8  37  14
M  ISO  2  38  14  39  14
M  END
>  <minimizedAffinity>  (1) 
-5.20759916

>  <minimizedRMSD>  (1) 
0.330155164

$$$$
