
     RDKit          3D

 42 44  0  0  1  0  0  0  0  0999 V2000
   37.4140   27.5520   41.7970 C   0  0  2  0  0  0  0  0  0  0  0  0
   37.9590   26.2190   41.2860 C   0  0  2  0  0  0  0  0  0  0  0  0
   37.4730   25.0490   41.9960 C   0  0  0  0  0  0  0  0  0  0  0  0
   38.6560   24.2100   42.4290 C   0  0  0  0  0  0  0  0  0  0  0  0
   39.8440   24.7760   41.7090 C   0  0  0  0  0  0  0  0  0  0  0  0
   39.4520   26.2240   41.4790 C   0  0  2  0  0  0  0  0  0  0  0  0
   39.9290   27.0380   42.6100 C   0  0  0  0  0  0  0  0  0  0  0  0
   39.7520   26.6390   43.7690 O   0  0  0  0  0  0  0  0  0  0  0  0
   36.6190   27.3430   42.9600 N   0  0  0  0  0  0  0  0  0  0  0  0
   36.6860   28.2120   44.0780 C   0  0  0  0  0  0  0  0  0  0  0  0
   37.5560   29.1670   44.0610 N   0  0  0  0  0  0  0  0  0  0  0  0
   35.8240   28.0350   45.1700 N   0  0  0  0  0  0  0  0  0  0  0  0
   37.6380   29.8280   44.8580 H   0  0  0  0  0  0  0  0  0  0  0  0
   35.7430   28.8090   38.8430 C   0  0  0  0  0  0  0  0  0  0  0  0
   34.8830   29.2590   39.8390 C   0  0  0  0  0  0  0  0  0  0  0  0
   35.4540   28.8170   40.9990 C   0  0  0  0  0  0  0  0  0  0  0  0
   36.5970   28.1360   40.7310 N   0  0  0  0  0  0  0  0  0  0  0  0
   36.7580   28.1410   39.4190 N   0  0  0  0  0  0  0  0  0  0  0  0
   34.3850   28.7790   36.7220 C   0  0  0  0  0  0  0  0  0  0  0  0
   35.5530   29.0380   37.4190 C   0  0  0  0  0  0  0  0  0  0  0  0
   36.6170   29.5500   36.7080 C   0  0  0  0  0  0  0  0  0  0  0  0
   36.5130   29.7920   35.3610 N   0  0  0  0  0  0  0  0  0  0  0  0
   35.3040   29.5070   34.7270 C   0  0  0  0  0  0  0  0  0  0  0  0
   34.2410   28.9950   35.4340 N   0  0  0  0  0  0  0  0  0  0  0  0
   38.2404   28.2270   42.0643 H   0  0  0  0  0  0  0  0  0  0  0  0
   37.6286   26.1420   40.2396 H   0  0  0  0  0  0  0  0  0  0  0  0
   36.9014   25.3654   42.8810 H   0  0  0  0  0  0  0  0  0  0  0  0
   36.8195   24.4586   41.3369 H   0  0  0  0  0  0  0  0  0  0  0  0
   38.7981   24.2812   43.5175 H   0  0  0  0  0  0  0  0  0  0  0  0
   38.5070   23.1466   42.1905 H   0  0  0  0  0  0  0  0  0  0  0  0
   40.7506   24.7063   42.3281 H   0  0  0  0  0  0  0  0  0  0  0  0
   40.0802   24.2398   40.7781 H   0  0  0  0  0  0  0  0  0  0  0  0
   39.9124   26.6790   40.5896 H   0  0  0  0  0  0  0  0  0  0  0  0
   40.4395   27.9949   42.4263 H   0  0  0  0  0  0  0  0  0  0  0  0
   35.9773   26.5378   42.9896 H   0  0  0  0  0  0  0  0  0  0  0  0
   35.8795   28.6710   45.9783 H   0  0  0  0  0  0  0  0  0  0  0  0
   35.1355   27.2690   45.1637 H   0  0  0  0  0  0  0  0  0  0  0  0
   33.9554   29.8382   39.7201 H   0  0  0  0  0  0  0  0  0  0  0  0
   35.0457   28.9886   42.0059 H   0  0  0  0  0  0  0  0  0  0  0  0
   33.5290   28.3691   37.2782 H   0  0  0  0  0  0  0  0  0  0  0  0
   37.5621   29.7676   37.2271 H   0  0  0  0  0  0  0  0  0  0  0  0
   35.1992   29.6940   33.6481 H   0  0  0  0  0  0  0  0  0  0  0  0
  1  9  1  0
  2  6  1  0
  2  1  1  0
  2  3  1  0
  3  4  1  0
  5  4  1  0
  6  5  1  0
  6  7  1  0
  7  8  2  0
  9 10  1  0
 10 12  1  0
 11 10  2  0
 11 13  1  0
 14 18  2  0
 14 15  1  0
 15 16  2  0
 17 16  1  0
 17  1  1  0
 18 17  1  0
 19 20  2  0
 20 14  1  0
 21 20  1  0
 22 21  2  0
 23 22  1  0
 23 24  2  0
 24 19  1  0
  1 25  1  1
  2 26  1  6
  3 27  1  0
  3 28  1  0
  4 29  1  0
  4 30  1  0
  5 31  1  0
  5 32  1  0
  6 33  1  6
  7 34  1  0
  9 35  1  0
 12 36  1  0
 12 37  1  0
 15 38  1  0
 16 39  1  0
 19 40  1  0
 21 41  1  0
 23 42  1  0
M  ISO  8  25   8  26  13  27  13  28  13  29  13  30  13  31  13  32  13
M  ISO  7  33  13  34   6  38  14  39  14  40  14  41  14  42  14
M  END
>  <minimizedAffinity>  (1) 
-5.38144588

>  <minimizedRMSD>  (1) 
2.61096668

$$$$
