
     RDKit          3D

 16 17  0  0  0  0  0  0  0  0999 V2000
   37.0220   29.7540   41.9450 C   0  0  0  0  0  0  0  0  0  0  0  0
   37.7420   28.7650   41.2660 C   0  0  0  0  0  0  0  0  0  0  0  0
   37.8140   28.8670   39.8840 C   0  0  0  0  0  0  0  0  0  0  0  0
   37.1960   29.9040   39.2540 N   0  0  0  0  0  0  0  0  0  0  0  0
   36.5060   30.8410   39.9620 C   0  0  0  0  0  0  0  0  0  0  0  0
   36.4240   30.7610   41.2970 N   0  0  0  0  0  0  0  0  0  0  0  0
   38.3690   27.6970   42.0250 C   0  0  0  0  0  0  0  0  0  0  0  0
   38.5040   26.3990   41.4170 C   0  0  0  0  0  0  0  0  0  0  0  0
   39.3460   25.3710   42.7250 S   0  0  0  0  0  0  0  0  0  0  0  0
   39.3590   26.8930   43.8580 C   0  0  0  0  0  0  0  0  0  0  0  0
   38.8640   27.7140   43.2440 N   0  0  0  0  0  0  0  0  0  0  0  0
   36.9453   29.7026   43.0411 H   0  0  0  0  0  0  0  0  0  0  0  0
   38.3666   28.1152   39.3013 H   0  0  0  0  0  0  0  0  0  0  0  0
   36.0122   31.6699   39.4336 H   0  0  0  0  0  0  0  0  0  0  0  0
   38.1841   26.0858   40.4122 H   0  0  0  0  0  0  0  0  0  0  0  0
   39.7566   26.9659   44.8810 H   0  0  0  0  0  0  0  0  0  0  0  0
  2  1  2  0
  2  7  1  0
  3  2  1  0
  4  3  2  0
  4  5  1  0
  5  6  2  0
  6  1  1  0
  7 11  1  0
  8  7  2  0
  8  9  1  0
  9 10  1  0
 11 10  2  0
  1 12  1  0
  3 13  1  0
  5 14  1  0
  8 15  1  0
 10 16  1  0
M  ISO  5  12  14  13  14  14  14  15  14  16  14
M  END
>  <minimizedAffinity>  (1) 
-2.93286729

>  <minimizedRMSD>  (1) 
3.18446302

$$$$
