
     RDKit          3D

 23 24  0  0  0  0  0  0  0  0999 V2000
   37.8510   29.2890   41.7120 C   0  0  0  0  0  0  0  0  0  0  0  0
   36.7100   28.5610   41.2320 C   0  0  0  0  0  0  0  0  0  0  0  0
   35.6900   29.8580   40.3960 S   0  0  0  0  0  0  0  0  0  0  0  0
   36.9970   31.1470   40.8490 C   0  0  0  0  0  0  0  0  0  0  0  0
   37.7940   30.5580   41.4130 N   0  0  0  0  0  0  0  0  0  0  0  0
   36.7330   32.5250   40.4160 N   0  0  0  0  0  0  0  0  0  0  0  0
   37.6730   33.0940   39.5500 C   0  0  0  0  0  0  0  0  0  0  0  0
   38.2430   32.3530   38.6890 N   0  0  0  0  0  0  0  0  0  0  0  0
   37.9730   34.4810   39.6390 N   0  0  0  0  0  0  0  0  0  0  0  0
   38.0540   31.3390   38.5860 H   0  0  0  0  0  0  0  0  0  0  0  0
   38.5460   27.4670   43.2270 C   0  0  0  0  0  0  0  0  0  0  0  0
   38.8860   28.5650   42.4480 C   0  0  0  0  0  0  0  0  0  0  0  0
   40.2340   28.9320   42.4020 C   0  0  0  0  0  0  0  0  0  0  0  0
   41.1460   28.2130   43.1090 N   0  0  0  0  0  0  0  0  0  0  0  0
   40.7590   27.1440   43.8590 C   0  0  0  0  0  0  0  0  0  0  0  0
   39.4780   26.7900   43.9070 N   0  0  0  0  0  0  0  0  0  0  0  0
   36.4940   27.4875   41.3366 H   0  0  0  0  0  0  0  0  0  0  0  0
   35.9016   33.0441   40.7324 H   0  0  0  0  0  0  0  0  0  0  0  0
   38.6650   34.9002   39.0016 H   0  0  0  0  0  0  0  0  0  0  0  0
   37.4983   35.0666   40.3409 H   0  0  0  0  0  0  0  0  0  0  0  0
   37.4946   27.1491   43.2858 H   0  0  0  0  0  0  0  0  0  0  0  0
   40.5540   29.7947   41.7993 H   0  0  0  0  0  0  0  0  0  0  0  0
   41.5079   26.5720   44.4264 H   0  0  0  0  0  0  0  0  0  0  0  0
  1 12  1  0
  2  1  2  0
  3  4  1  0
  3  2  1  0
  4  5  2  0
  5  1  1  0
  6  4  1  0
  7  9  1  0
  7  6  1  0
  8  7  2  0
 10  8  1  0
 11 16  2  0
 12 11  1  0
 13 12  2  0
 13 14  1  0
 14 15  2  0
 15 16  1  0
  2 17  1  0
  6 18  1  0
  9 19  1  0
  9 20  1  0
 11 21  1  0
 13 22  1  0
 15 23  1  0
M  ISO  4  17  14  21  14  22  14  23  14
M  END
>  <minimizedAffinity>  (1) 
-5.05459929

>  <minimizedRMSD>  (1) 
6.25077629

$$$$
