
     RDKit          3D

 29 31  0  0  0  0  0  0  0  0999 V2000
   37.6930   30.9300   41.0900 C   0  0  0  0  0  0  0  0  0  0  0  0
   36.6780   31.4130   40.2060 C   0  0  0  0  0  0  0  0  0  0  0  0
   37.3930   32.9690   39.5030 S   0  0  0  0  0  0  0  0  0  0  0  0
   38.9500   32.6880   40.5390 C   0  0  0  0  0  0  0  0  0  0  0  0
   38.7410   31.7270   41.0980 N   0  0  0  0  0  0  0  0  0  0  0  0
   38.2980   29.3940   42.9360 C   0  0  0  0  0  0  0  0  0  0  0  0
   37.4890   29.6940   41.8430 C   0  0  0  0  0  0  0  0  0  0  0  0
   36.4830   28.7870   41.4940 C   0  0  0  0  0  0  0  0  0  0  0  0
   36.3400   27.6520   42.2360 N   0  0  0  0  0  0  0  0  0  0  0  0
   37.1700   27.4120   43.3020 C   0  0  0  0  0  0  0  0  0  0  0  0
   38.1280   28.2720   43.6400 N   0  0  0  0  0  0  0  0  0  0  0  0
   40.1610   33.6050   40.5500 C   0  0  0  0  0  0  0  0  0  0  0  0
   39.7180   35.0060   40.2690 C   0  0  0  0  0  0  0  0  0  0  0  0
   40.9290   35.6030   39.5530 C   0  0  0  0  0  0  0  0  0  0  0  0
   41.6140   34.4700   38.8380 C   0  0  0  0  0  0  0  0  0  0  0  0
   41.0910   33.1760   39.4610 C   0  0  0  0  0  0  0  0  0  0  0  0
   35.6972   30.9630   39.9927 H   0  0  0  0  0  0  0  0  0  0  0  0
   39.0938   30.0960   43.2256 H   0  0  0  0  0  0  0  0  0  0  0  0
   35.8207   28.9853   40.6384 H   0  0  0  0  0  0  0  0  0  0  0  0
   37.0411   26.4906   43.8889 H   0  0  0  0  0  0  0  0  0  0  0  0
   40.6605   33.5564   41.5289 H   0  0  0  0  0  0  0  0  0  0  0  0
   38.8285   35.0187   39.6220 H   0  0  0  0  0  0  0  0  0  0  0  0
   39.4269   35.5617   41.1726 H   0  0  0  0  0  0  0  0  0  0  0  0
   40.6035   36.3653   38.8299 H   0  0  0  0  0  0  0  0  0  0  0  0
   41.6103   36.0879   40.2676 H   0  0  0  0  0  0  0  0  0  0  0  0
   42.7036   34.5414   38.9713 H   0  0  0  0  0  0  0  0  0  0  0  0
   41.4063   34.5009   37.7582 H   0  0  0  0  0  0  0  0  0  0  0  0
   40.5540   32.5775   38.7104 H   0  0  0  0  0  0  0  0  0  0  0  0
   41.9085   32.5486   39.8458 H   0  0  0  0  0  0  0  0  0  0  0  0
  1  5  1  0
  1  7  1  0
  2  1  2  0
  3  2  1  0
  3  4  1  0
  4 12  1  0
  4  5  2  0
  6 11  2  0
  7  6  1  0
  8  7  2  0
  8  9  1  0
  9 10  2  0
 10 11  1  0
 13 12  1  0
 14 13  1  0
 15 16  1  0
 15 14  1  0
 16 12  1  0
  2 17  1  0
  6 18  1  0
  8 19  1  0
 10 20  1  0
 12 21  1  0
 13 22  1  0
 13 23  1  0
 14 24  1  0
 14 25  1  0
 15 26  1  0
 15 27  1  0
 16 28  1  0
 16 29  1  0
M  ISO  8  17  14  18  14  19  14  20  14  21  13  22  13  23  13  24  13
M  ISO  5  25  13  26  13  27  13  28  13  29  13
M  END
>  <minimizedAffinity>  (1) 
-4.76157331

>  <minimizedRMSD>  (1) 
6.83089447

$$$$
