
     RDKit          3D

 29 31  0  0  0  0  0  0  0  0999 V2000
   40.4640   31.6010   40.7370 C   0  0  0  0  0  0  0  0  0  0  0  0
   40.1460   30.6200   39.7340 C   0  0  0  0  0  0  0  0  0  0  0  0
   40.8230   29.0380   40.4690 S   0  0  0  0  0  0  0  0  0  0  0  0
   41.3990   30.0130   41.9810 C   0  0  0  0  0  0  0  0  0  0  0  0
   41.0830   31.0770   41.7640 N   0  0  0  0  0  0  0  0  0  0  0  0
   38.7440   33.3510   40.4380 C   0  0  0  0  0  0  0  0  0  0  0  0
   40.0840   32.9940   40.5150 C   0  0  0  0  0  0  0  0  0  0  0  0
   41.0330   34.0120   40.3770 C   0  0  0  0  0  0  0  0  0  0  0  0
   40.5790   35.2770   40.1760 N   0  0  0  0  0  0  0  0  0  0  0  0
   39.2620   35.5770   40.1070 C   0  0  0  0  0  0  0  0  0  0  0  0
   38.3570   34.6110   40.2390 N   0  0  0  0  0  0  0  0  0  0  0  0
   43.3030   27.9510   45.1640 C   0  0  0  0  0  0  0  0  0  0  0  0
   43.7220   29.2090   44.8060 C   0  0  0  0  0  0  0  0  0  0  0  0
   43.1420   29.9260   43.7810 C   0  0  0  0  0  0  0  0  0  0  0  0
   42.0960   29.3340   43.0990 C   0  0  0  0  0  0  0  0  0  0  0  0
   41.6840   28.0520   43.4800 C   0  0  0  0  0  0  0  0  0  0  0  0
   42.2580   27.3310   44.5010 C   0  0  0  0  0  0  0  0  0  0  0  0
   44.1050   27.1230   46.4810 S   0  0  0  0  0  0  0  0  0  0  0  0
   45.4380   27.7590   46.7850 O   0  0  0  0  0  0  0  0  0  0  0  0
   43.2170   27.1640   47.6980 O   0  0  0  0  0  0  0  0  0  0  0  0
   39.6318   30.7643   38.7724 H   0  0  0  0  0  0  0  0  0  0  0  0
   37.9777   32.5691   40.5446 H   0  0  0  0  0  0  0  0  0  0  0  0
   42.1103   33.7961   40.4294 H   0  0  0  0  0  0  0  0  0  0  0  0
   38.9404   36.6160   39.9423 H   0  0  0  0  0  0  0  0  0  0  0  0
   44.5559   29.6640   45.3607 H   0  0  0  0  0  0  0  0  0  0  0  0
   43.4988   30.9322   43.5159 H   0  0  0  0  0  0  0  0  0  0  0  0
   40.8499   27.5928   42.9291 H   0  0  0  0  0  0  0  0  0  0  0  0
   41.9084   26.3243   44.7737 H   0  0  0  0  0  0  0  0  0  0  0  0
   44.3356   25.8220   46.1189 H   0  0  0  0  0  0  0  0  0  0  0  0
  1  5  1  0
  2  3  1  0
  2  1  2  0
  3  4  1  0
  4 15  1  0
  5  4  2  0
  6  7  2  0
  7  1  1  0
  8  7  1  0
  9  8  2  0
 10  9  1  0
 10 11  2  0
 11  6  1  0
 12 18  1  0
 13 12  2  0
 14 13  1  0
 15 16  1  0
 15 14  2  0
 16 17  2  0
 17 12  1  0
 18 19  2  0
 18 20  2  0
  2 21  1  0
  6 22  1  0
  8 23  1  0
 10 24  1  0
 13 25  1  0
 14 26  1  0
 16 27  1  0
 17 28  1  0
 18 29  1  0
M  ISO  8  21  14  22  14  23  14  24  14  25  14  26  14  27  14  28  14
M  ISO  1  29  11
M  END
>  <minimizedAffinity>  (1) 
-4.48800755

>  <minimizedRMSD>  (1) 
4.5920558

$$$$
