
     RDKit          3D

 47 50  0  0  1  0  0  0  0  0999 V2000
   39.3250   28.1470   42.3640 C   0  0  2  0  0  0  0  0  0  0  0  0
   40.5140   27.1960   42.2890 C   0  0  2  0  0  0  0  0  0  0  0  0
   40.2320   25.9020   41.6990 C   0  0  0  0  0  0  0  0  0  0  0  0
   40.6810   24.7990   42.6370 C   0  0  0  0  0  0  0  0  0  0  0  0
   41.4990   25.4810   43.6960 C   0  0  0  0  0  0  0  0  0  0  0  0
   40.9290   26.8770   43.7140 C   0  0  1  0  0  0  0  0  0  0  0  0
   42.0340   27.8120   44.0550 C   0  0  0  0  0  0  0  0  0  0  0  0
   42.5410   28.8850   43.3930 C   0  0  0  0  0  0  0  0  0  0  0  0
   43.5620   29.3700   44.1890 C   0  0  0  0  0  0  0  0  0  0  0  0
   43.6310   28.5690   45.3040 C   0  0  0  0  0  0  0  0  0  0  0  0
   42.6930   27.6600   45.1610 O   0  0  0  0  0  0  0  0  0  0  0  0
   38.1400   27.4340   42.7430 N   0  0  0  0  0  0  0  0  0  0  0  0
   37.1410   28.0390   43.5430 C   0  0  0  0  0  0  0  0  0  0  0  0
   37.3550   29.2260   44.0050 N   0  0  0  0  0  0  0  0  0  0  0  0
   35.9510   27.3560   43.8200 N   0  0  0  0  0  0  0  0  0  0  0  0
   36.6340   29.7060   44.5810 H   0  0  0  0  0  0  0  0  0  0  0  0
   38.6090   29.1750   38.9680 C   0  0  0  0  0  0  0  0  0  0  0  0
   39.4250   30.2200   39.3880 C   0  0  0  0  0  0  0  0  0  0  0  0
   39.7380   29.8950   40.6780 C   0  0  0  0  0  0  0  0  0  0  0  0
   39.1490   28.7250   41.0280 N   0  0  0  0  0  0  0  0  0  0  0  0
   38.4670   28.2980   39.9800 N   0  0  0  0  0  0  0  0  0  0  0  0
   38.1800   27.9980   36.7830 C   0  0  0  0  0  0  0  0  0  0  0  0
   38.0160   29.0690   37.6450 C   0  0  0  0  0  0  0  0  0  0  0  0
   37.2300   30.1130   37.2120 C   0  0  0  0  0  0  0  0  0  0  0  0
   36.6360   30.0860   35.9760 N   0  0  0  0  0  0  0  0  0  0  0  0
   36.8460   28.9740   35.1620 C   0  0  0  0  0  0  0  0  0  0  0  0
   37.6320   27.9260   35.5890 N   0  0  0  0  0  0  0  0  0  0  0  0
   39.5045   28.9308   43.1146 H   0  0  0  0  0  0  0  0  0  0  0  0
   41.2637   27.7079   41.6678 H   0  0  0  0  0  0  0  0  0  0  0  0
   39.1506   25.8107   41.5196 H   0  0  0  0  0  0  0  0  0  0  0  0
   40.7755   25.8116   40.7469 H   0  0  0  0  0  0  0  0  0  0  0  0
   39.8106   24.2985   43.0864 H   0  0  0  0  0  0  0  0  0  0  0  0
   41.2588   24.0254   42.1102 H   0  0  0  0  0  0  0  0  0  0  0  0
   41.3726   24.9892   44.6718 H   0  0  0  0  0  0  0  0  0  0  0  0
   42.5800   25.4554   43.4940 H   0  0  0  0  0  0  0  0  0  0  0  0
   40.0938   26.9626   44.4247 H   0  0  0  0  0  0  0  0  0  0  0  0
   42.2079   29.2850   42.4240 H   0  0  0  0  0  0  0  0  0  0  0  0
   44.2018   30.2377   43.9702 H   0  0  0  0  0  0  0  0  0  0  0  0
   44.3309   28.6689   46.1467 H   0  0  0  0  0  0  0  0  0  0  0  0
   38.0131   26.4620   42.4268 H   0  0  0  0  0  0  0  0  0  0  0  0
   35.2264   27.7993   44.4025 H   0  0  0  0  0  0  0  0  0  0  0  0
   35.8000   26.4101   43.4414 H   0  0  0  0  0  0  0  0  0  0  0  0
   39.7443   31.1030   38.8150 H   0  0  0  0  0  0  0  0  0  0  0  0
   40.3778   30.4978   41.3393 H   0  0  0  0  0  0  0  0  0  0  0  0
   38.8059   27.1570   37.1163 H   0  0  0  0  0  0  0  0  0  0  0  0
   37.0759   30.9827   37.8677 H   0  0  0  0  0  0  0  0  0  0  0  0
   36.3787   28.9327   34.1671 H   0  0  0  0  0  0  0  0  0  0  0  0
  1 12  1  0
  2  1  1  0
  2  6  1  0
  3  2  1  0
  3  4  1  0
  4  5  1  0
  5  6  1  0
  6  7  1  0
  7 11  1  0
  8  7  2  0
  8  9  1  0
  9 10  2  0
 11 10  1  0
 12 13  1  0
 13 15  1  0
 13 14  2  0
 14 16  1  0
 17 18  1  0
 17 21  2  0
 18 19  2  0
 19 20  1  0
 20  1  1  0
 21 20  1  0
 22 23  2  0
 23 17  1  0
 24 23  1  0
 25 24  2  0
 26 27  2  0
 26 25  1  0
 27 22  1  0
  1 28  1  1
  2 29  1  6
  3 30  1  0
  3 31  1  0
  4 32  1  0
  4 33  1  0
  5 34  1  0
  5 35  1  0
  6 36  1  1
  8 37  1  0
  9 38  1  0
 10 39  1  0
 12 40  1  0
 15 41  1  0
 15 42  1  0
 18 43  1  0
 19 44  1  0
 22 45  1  0
 24 46  1  0
 26 47  1  0
M  ISO  8  28   8  29  13  30  13  31  13  32  13  33  13  34  13  35  13
M  ISO  8  36  13  37  14  38  14  39  14  43  14  44  14  45  14  46  14
M  ISO  1  47  14
M  END
>  <minimizedAffinity>  (1) 
-5.23079205

>  <minimizedRMSD>  (1) 
0.401547134

$$$$
