
     RDKit          3D

 19 20  0  0  0  0  0  0  0  0999 V2000
   36.9760   26.0940   40.8150 C   0  0  0  0  0  0  0  0  0  0  0  0
   36.4440   27.1270   39.9840 C   0  0  0  0  0  0  0  0  0  0  0  0
   36.3200   28.5930   41.1010 S   0  0  0  0  0  0  0  0  0  0  0  0
   37.0240   27.5320   42.5240 C   0  0  0  0  0  0  0  0  0  0  0  0
   37.1930   26.5100   42.0490 N   0  0  0  0  0  0  0  0  0  0  0  0
   37.6970   23.7520   41.0760 C   0  0  0  0  0  0  0  0  0  0  0  0
   37.2120   24.7640   40.2610 C   0  0  0  0  0  0  0  0  0  0  0  0
   36.9600   24.4610   38.9200 C   0  0  0  0  0  0  0  0  0  0  0  0
   37.2020   23.1920   38.4810 N   0  0  0  0  0  0  0  0  0  0  0  0
   37.6820   22.2370   39.3360 C   0  0  0  0  0  0  0  0  0  0  0  0
   37.9250   22.5160   40.6150 N   0  0  0  0  0  0  0  0  0  0  0  0
   37.3070   27.9350   43.9880 C   0  0  0  0  0  0  0  0  0  0  0  0
   38.4050   27.1790   44.3200 F   0  0  0  0  0  0  0  0  0  0  0  0
   37.6780   29.2650   43.9500 F   0  0  0  0  0  0  0  0  0  0  0  0
   36.1990   27.6920   44.7650 F   0  0  0  0  0  0  0  0  0  0  0  0
   36.1703   27.0638   38.9205 H   0  0  0  0  0  0  0  0  0  0  0  0
   37.9007   23.9719   42.1344 H   0  0  0  0  0  0  0  0  0  0  0  0
   36.5748   25.2291   38.2333 H   0  0  0  0  0  0  0  0  0  0  0  0
   37.8704   21.2207   38.9597 H   0  0  0  0  0  0  0  0  0  0  0  0
  1  5  1  0
  2  1  2  0
  2  3  1  0
  3  4  1  0
  4 12  1  0
  5  4  2  0
  7  1  1  0
  7  6  2  0
  8  7  1  0
  9  8  2  0
  9 10  1  0
 10 11  2  0
 11  6  1  0
 12 13  1  0
 12 15  1  0
 14 12  1  0
  2 16  1  0
  6 17  1  0
  8 18  1  0
 10 19  1  0
M  ISO  4  16  14  17  14  18  14  19  14
M  END
>  <minimizedAffinity>  (1) 
-4.32692766

>  <minimizedRMSD>  (1) 
4.99090767

$$$$
