
     RDKit          3D

 23 25  0  0  0  0  0  0  0  0999 V2000
   38.8740   28.5860   42.5520 C   0  0  0  0  0  0  0  0  0  0  0  0
   38.3630   27.6900   43.5520 C   0  0  0  0  0  0  0  0  0  0  0  0
   36.7110   27.1740   42.8660 S   0  0  0  0  0  0  0  0  0  0  0  0
   37.0210   28.2660   41.3590 C   0  0  0  0  0  0  0  0  0  0  0  0
   38.0390   28.7210   41.5560 N   0  0  0  0  0  0  0  0  0  0  0  0
   40.3220   30.5890   42.6540 C   0  0  0  0  0  0  0  0  0  0  0  0
   40.1830   29.2110   42.7430 C   0  0  0  0  0  0  0  0  0  0  0  0
   41.3280   28.4560   43.0160 C   0  0  0  0  0  0  0  0  0  0  0  0
   42.5160   29.0940   43.1830 N   0  0  0  0  0  0  0  0  0  0  0  0
   42.5880   30.4620   43.0830 C   0  0  0  0  0  0  0  0  0  0  0  0
   41.4970   31.1870   42.8220 N   0  0  0  0  0  0  0  0  0  0  0  0
   36.0460   28.3970   40.2400 C   0  0  0  0  0  0  0  0  0  0  0  0
   34.9650   29.2100   40.1440 C   0  0  0  0  0  0  0  0  0  0  0  0
   34.3880   28.9530   38.9120 C   0  0  0  0  0  0  0  0  0  0  0  0
   35.1600   27.9810   38.3130 C   0  0  0  0  0  0  0  0  0  0  0  0
   36.1400   27.6820   39.1490 O   0  0  0  0  0  0  0  0  0  0  0  0
   38.8349   27.3825   44.4968 H   0  0  0  0  0  0  0  0  0  0  0  0
   39.4353   31.2032   42.4385 H   0  0  0  0  0  0  0  0  0  0  0  0
   41.2677   27.3605   43.0945 H   0  0  0  0  0  0  0  0  0  0  0  0
   43.5559   30.9666   43.2195 H   0  0  0  0  0  0  0  0  0  0  0  0
   34.6153   29.9317   40.8969 H   0  0  0  0  0  0  0  0  0  0  0  0
   33.4899   29.4307   38.4935 H   0  0  0  0  0  0  0  0  0  0  0  0
   34.9918   27.5356   37.3214 H   0  0  0  0  0  0  0  0  0  0  0  0
  1  7  1  0
  1  2  2  0
  3  2  1  0
  4  5  2  0
  4  3  1  0
  5  1  1  0
  6  7  2  0
  6 11  1  0
  7  8  1  0
  8  9  2  0
 10  9  1  0
 11 10  2  0
 12  4  1  0
 13 12  2  0
 14 13  1  0
 15 14  2  0
 15 16  1  0
 16 12  1  0
  2 17  1  0
  6 18  1  0
  8 19  1  0
 10 20  1  0
 13 21  1  0
 14 22  1  0
 15 23  1  0
M  ISO  7  17  14  18  14  19  14  20  14  21  14  22  14  23  14
M  END
>  <minimizedAffinity>  (1) 
-3.8211143

>  <minimizedRMSD>  (1) 
6.12085724

$$$$
