
     RDKit          3D

 23 25  0  0  0  0  0  0  0  0999 V2000
   38.0800   28.8020   40.0950 C   0  0  0  0  0  0  0  0  0  0  0  0
   37.5080   28.1170   38.9810 C   0  0  0  0  0  0  0  0  0  0  0  0
   38.3140   28.9240   37.5130 S   0  0  0  0  0  0  0  0  0  0  0  0
   39.2800   30.0430   38.6920 C   0  0  0  0  0  0  0  0  0  0  0  0
   38.9440   29.7290   39.7260 N   0  0  0  0  0  0  0  0  0  0  0  0
   40.2540   31.0910   38.3330 N   0  0  0  0  0  0  0  0  0  0  0  0
   41.4700   31.0350   38.9130 C   0  0  0  0  0  0  0  0  0  0  0  0
   42.1640   32.1240   38.4000 C   0  0  0  0  0  0  0  0  0  0  0  0
   41.3420   32.7750   37.5460 N   0  0  0  0  0  0  0  0  0  0  0  0
   40.1630   32.1460   37.4990 C   0  0  0  0  0  0  0  0  0  0  0  0
   37.9960   29.2610   42.5260 C   0  0  0  0  0  0  0  0  0  0  0  0
   37.6810   28.4370   41.4540 C   0  0  0  0  0  0  0  0  0  0  0  0
   36.9760   27.2600   41.7210 C   0  0  0  0  0  0  0  0  0  0  0  0
   36.6440   26.9990   43.0180 N   0  0  0  0  0  0  0  0  0  0  0  0
   36.9740   27.8360   44.0270 C   0  0  0  0  0  0  0  0  0  0  0  0
   37.6510   28.9660   43.7770 N   0  0  0  0  0  0  0  0  0  0  0  0
   36.7664   27.3046   38.9892 H   0  0  0  0  0  0  0  0  0  0  0  0
   41.8336   30.2893   39.6353 H   0  0  0  0  0  0  0  0  0  0  0  0
   43.1985   32.4065   38.6451 H   0  0  0  0  0  0  0  0  0  0  0  0
   39.2886   32.4336   36.8967 H   0  0  0  0  0  0  0  0  0  0  0  0
   38.5508   30.1913   42.3344 H   0  0  0  0  0  0  0  0  0  0  0  0
   36.6983   26.5677   40.9126 H   0  0  0  0  0  0  0  0  0  0  0  0
   36.6854   27.5885   45.0592 H   0  0  0  0  0  0  0  0  0  0  0  0
  1 12  1  0
  2  1  2  0
  3  4  1  0
  3  2  1  0
  4  5  2  0
  5  1  1  0
  6  4  1  0
  6  7  1  0
  8  7  2  0
  9  8  1  0
 10  9  2  0
 10  6  1  0
 11 16  2  0
 12 13  2  0
 12 11  1  0
 13 14  1  0
 14 15  2  0
 16 15  1  0
  2 17  1  0
  7 18  1  0
  8 19  1  0
 10 20  1  0
 11 21  1  0
 13 22  1  0
 15 23  1  0
M  ISO  7  17  14  18  14  19  14  20  14  21  14  22  14  23  14
M  END
>  <minimizedAffinity>  (1) 
-3.76640105

>  <minimizedRMSD>  (1) 
6.3271718

$$$$
