
     RDKit          3D

 22 23  0  0  0  0  0  0  0  0999 V2000
   38.0130   30.0520   41.7370 C   0  0  0  0  0  0  0  0  0  0  0  0
   37.7550   28.6940   41.9530 C   0  0  0  0  0  0  0  0  0  0  0  0
   36.5170   28.1940   41.5380 C   0  0  0  0  0  0  0  0  0  0  0  0
   35.6410   29.0650   40.9490 N   0  0  0  0  0  0  0  0  0  0  0  0
   35.9440   30.3690   40.7640 C   0  0  0  0  0  0  0  0  0  0  0  0
   37.1200   30.8480   41.1580 N   0  0  0  0  0  0  0  0  0  0  0  0
   38.7640   27.8480   42.5920 C   0  0  0  0  0  0  0  0  0  0  0  0
   38.4510   26.4840   42.8870 C   0  0  0  0  0  0  0  0  0  0  0  0
   40.0170   25.8490   43.6690 S   0  0  0  0  0  0  0  0  0  0  0  0
   40.8000   27.5610   43.4450 C   0  0  0  0  0  0  0  0  0  0  0  0
   39.9780   28.1720   42.9500 N   0  0  0  0  0  0  0  0  0  0  0  0
   42.2110   27.8520   43.8870 C   0  0  0  0  0  0  0  0  0  0  0  0
   42.5390   27.0760   45.1430 C   0  0  0  0  0  0  0  0  0  0  0  0
   38.9791   30.4714   42.0543 H   0  0  0  0  0  0  0  0  0  0  0  0
   36.2556   27.1350   41.6803 H   0  0  0  0  0  0  0  0  0  0  0  0
   35.2137   31.0377   40.2849 H   0  0  0  0  0  0  0  0  0  0  0  0
   37.5129   25.9417   42.6978 H   0  0  0  0  0  0  0  0  0  0  0  0
   42.9087   27.5607   43.0881 H   0  0  0  0  0  0  0  0  0  0  0  0
   42.3053   28.9277   44.0965 H   0  0  0  0  0  0  0  0  0  0  0  0
   42.2832   27.6812   46.0252 H   0  0  0  0  0  0  0  0  0  0  0  0
   41.9589   26.1415   45.1587 H   0  0  0  0  0  0  0  0  0  0  0  0
   43.6135   26.8409   45.1587 H   0  0  0  0  0  0  0  0  0  0  0  0
  1  2  2  0
  2  7  1  0
  3  2  1  0
  4  3  2  0
  5  4  1  0
  5  6  2  0
  6  1  1  0
  7  8  2  0
  7 11  1  0
  8  9  1  0
 10  9  1  0
 10 12  1  0
 11 10  2  0
 12 13  1  0
  1 14  1  0
  3 15  1  0
  5 16  1  0
  8 17  1  0
 12 18  1  0
 12 19  1  0
 13 20  1  0
 13 21  1  0
 13 22  1  0
M  ISO  8  14  14  15  14  16  14  17  14  18   8  19   8  20   8  21   8
M  ISO  1  22   8
M  END
>  <minimizedAffinity>  (1) 
-3.69330907

>  <minimizedRMSD>  (1) 
1.85757267

$$$$
