
     RDKit          3D

 17 18  0  0  0  0  0  0  0  0999 V2000
   36.9970   29.5940   41.8660 C   0  0  0  0  0  0  0  0  0  0  0  0
   37.5330   28.5730   41.0920 C   0  0  0  0  0  0  0  0  0  0  0  0
   37.5260   28.7110   39.7020 C   0  0  0  0  0  0  0  0  0  0  0  0
   36.9920   29.8440   39.1640 N   0  0  0  0  0  0  0  0  0  0  0  0
   36.4770   30.8200   39.9620 C   0  0  0  0  0  0  0  0  0  0  0  0
   36.4810   30.6920   41.3050 N   0  0  0  0  0  0  0  0  0  0  0  0
   38.0890   27.3860   41.7410 C   0  0  0  0  0  0  0  0  0  0  0  0
   37.8040   26.0830   41.1960 C   0  0  0  0  0  0  0  0  0  0  0  0
   38.7080   24.9270   42.3330 S   0  0  0  0  0  0  0  0  0  0  0  0
   39.3030   26.4150   43.3340 C   0  0  0  0  0  0  0  0  0  0  0  0
   38.8550   27.3130   42.8070 N   0  0  0  0  0  0  0  0  0  0  0  0
   40.1470   26.4560   44.5220 O   0  0  0  0  0  0  0  0  0  0  0  0
   36.9971   29.4972   42.9617 H   0  0  0  0  0  0  0  0  0  0  0  0
   37.9419   27.9235   39.0563 H   0  0  0  0  0  0  0  0  0  0  0  0
   36.0517   31.7257   39.5050 H   0  0  0  0  0  0  0  0  0  0  0  0
   37.1950   25.8325   40.3149 H   0  0  0  0  0  0  0  0  0  0  0  0
   40.3742   27.3251   44.9380 H   0  0  0  0  0  0  0  0  0  0  0  0
  2  7  1  0
  2  1  2  0
  3  2  1  0
  4  3  2  0
  4  5  1  0
  5  6  2  0
  6  1  1  0
  7 11  1  0
  8  7  2  0
  8  9  1  0
  9 10  1  0
 10 12  1  0
 11 10  2  0
  1 13  1  0
  3 14  1  0
  5 15  1  0
  8 16  1  0
 12 17  1  0
M  ISO  5  13  14  14  14  15  14  16  14  17   3
M  END
>  <minimizedAffinity>  (1) 
-3.37337828

>  <minimizedRMSD>  (1) 
0.555965781

$$$$
