
     RDKit          3D

 18 19  0  0  0  0  0  0  0  0999 V2000
   37.2960   31.3930   40.8260 C   0  0  0  0  0  0  0  0  0  0  0  0
   37.2880   30.0540   40.4490 C   0  0  0  0  0  0  0  0  0  0  0  0
   37.2190   29.7510   39.0850 C   0  0  0  0  0  0  0  0  0  0  0  0
   37.1650   30.7760   38.1880 N   0  0  0  0  0  0  0  0  0  0  0  0
   37.1770   32.0790   38.6240 C   0  0  0  0  0  0  0  0  0  0  0  0
   37.2410   32.3770   39.9200 N   0  0  0  0  0  0  0  0  0  0  0  0
   37.3550   29.0120   41.4660 C   0  0  0  0  0  0  0  0  0  0  0  0
   37.6390   29.3470   42.8240 C   0  0  0  0  0  0  0  0  0  0  0  0
   37.6120   27.7240   43.7140 S   0  0  0  0  0  0  0  0  0  0  0  0
   37.2130   26.8560   42.0580 C   0  0  0  0  0  0  0  0  0  0  0  0
   37.1800   27.7170   41.3200 N   0  0  0  0  0  0  0  0  0  0  0  0
   37.0190   25.4360   41.8880 N   0  0  0  0  0  0  0  0  0  0  0  0
   37.3488   31.6495   41.8944 H   0  0  0  0  0  0  0  0  0  0  0  0
   37.2085   28.7056   38.7429 H   0  0  0  0  0  0  0  0  0  0  0  0
   37.1328   32.8936   37.8862 H   0  0  0  0  0  0  0  0  0  0  0  0
   37.8307   30.3444   43.2464 H   0  0  0  0  0  0  0  0  0  0  0  0
   36.8065   25.0532   40.9557 H   0  0  0  0  0  0  0  0  0  0  0  0
   37.0930   24.8054   42.6990 H   0  0  0  0  0  0  0  0  0  0  0  0
  2  1  2  0
  2  7  1  0
  3  2  1  0
  4  5  1  0
  4  3  2  0
  5  6  2  0
  6  1  1  0
  7  8  2  0
  8  9  1  0
 10  9  1  0
 11  7  1  0
 11 10  2  0
 12 10  1  0
  1 13  1  0
  3 14  1  0
  5 15  1  0
  8 16  1  0
 12 17  1  0
 12 18  1  0
M  ISO  4  13  14  14  14  15  14  16  14
M  END
>  <minimizedAffinity>  (1) 
-3.31171489

>  <minimizedRMSD>  (1) 
2.56799912

$$$$
