
     RDKit          3D

 34 38  0  0  0  0  0  0  0  0999 V2000
   41.4340   26.6990   43.7800 C   0  0  0  0  0  0  0  0  0  0  0  0
   42.2410   25.7120   43.3740 N   0  0  0  0  0  0  0  0  0  0  0  0
   43.3060   25.6680   44.1180 O   0  0  0  0  0  0  0  0  0  0  0  0
   43.1780   26.6330   45.0070 C   0  0  0  0  0  0  0  0  0  0  0  0
   42.0060   27.3170   44.8350 N   0  0  0  0  0  0  0  0  0  0  0  0
   44.1380   26.9360   46.0280 N   0  0  0  0  0  0  0  0  0  0  0  0
   45.4720   26.7640   45.9910 C   0  0  0  0  0  0  0  0  0  0  0  0
   46.0290   27.1750   47.1650 N   0  0  0  0  0  0  0  0  0  0  0  0
   45.0490   27.6190   47.9750 C   0  0  0  0  0  0  0  0  0  0  0  0
   45.0170   28.1420   49.2560 C   0  0  0  0  0  0  0  0  0  0  0  0
   43.8330   28.4980   49.7900 N   0  0  0  0  0  0  0  0  0  0  0  0
   42.7060   28.3310   49.0550 C   0  0  0  0  0  0  0  0  0  0  0  0
   42.7260   27.8250   47.8120 N   0  0  0  0  0  0  0  0  0  0  0  0
   43.8800   27.4640   47.2560 C   0  0  0  0  0  0  0  0  0  0  0  0
   38.5480   28.1680   42.0820 C   0  0  0  0  0  0  0  0  0  0  0  0
   37.7740   26.9780   41.9490 C   0  0  0  0  0  0  0  0  0  0  0  0
   38.8300   25.6660   42.7290 S   0  0  0  0  0  0  0  0  0  0  0  0
   40.1470   26.9690   43.1010 C   0  0  0  0  0  0  0  0  0  0  0  0
   39.6700   27.8960   42.6810 N   0  0  0  0  0  0  0  0  0  0  0  0
   38.9220   30.4310   41.1730 C   0  0  0  0  0  0  0  0  0  0  0  0
   38.0480   29.4430   41.5780 C   0  0  0  0  0  0  0  0  0  0  0  0
   36.6760   29.6970   41.4930 C   0  0  0  0  0  0  0  0  0  0  0  0
   36.2600   30.8980   41.0190 N   0  0  0  0  0  0  0  0  0  0  0  0
   37.1580   31.8490   40.6280 C   0  0  0  0  0  0  0  0  0  0  0  0
   38.4720   31.6040   40.7110 N   0  0  0  0  0  0  0  0  0  0  0  0
   46.2200   28.3020   49.9970 N   0  0  0  0  0  0  0  0  0  0  0  0
   46.0312   26.3520   45.1380 H   0  0  0  0  0  0  0  0  0  0  0  0
   41.7397   28.6209   49.4935 H   0  0  0  0  0  0  0  0  0  0  0  0
   36.7808   26.8639   41.4902 H   0  0  0  0  0  0  0  0  0  0  0  0
   40.0058   30.2518   41.2307 H   0  0  0  0  0  0  0  0  0  0  0  0
   35.9459   28.9357   41.8052 H   0  0  0  0  0  0  0  0  0  0  0  0
   36.8022   32.8167   40.2447 H   0  0  0  0  0  0  0  0  0  0  0  0
   46.1899   28.6918   50.9499 H   0  0  0  0  0  0  0  0  0  0  0  0
   47.1215   28.0281   49.5808 H   0  0  0  0  0  0  0  0  0  0  0  0
  1  5  1  0
  2  1  2  0
  2  3  1  0
  3  4  1  0
  4  6  1  0
  5  4  2  0
  6 14  1  0
  7  6  1  0
  7  8  2  0
  8  9  1  0
  9 10  2  0
 10 11  1  0
 10 26  1  0
 12 11  2  0
 13 12  1  0
 14 13  2  0
 14  9  1  0
 15 19  1  0
 16 15  2  0
 16 17  1  0
 17 18  1  0
 18  1  1  0
 19 18  2  0
 20 21  2  0
 21 15  1  0
 22 21  1  0
 23 22  2  0
 24 25  2  0
 24 23  1  0
 25 20  1  0
  7 27  1  0
 12 28  1  0
 16 29  1  0
 20 30  1  0
 22 31  1  0
 24 32  1  0
 26 33  1  0
 26 34  1  0
M  ISO  6  27  14  28  14  29  14  30  14  31  14  32  14
M  END
>  <minimizedAffinity>  (1) 
-6.75257778

>  <minimizedRMSD>  (1) 
2.93313098

$$$$
