
     RDKit          3D

 32 36  0  0  0  0  0  0  0  0999 V2000
   38.2840   27.2340   42.0890 C   0  0  0  0  0  0  0  0  0  0  0  0
   37.8120   25.9090   41.8680 C   0  0  0  0  0  0  0  0  0  0  0  0
   39.1410   24.8360   42.5870 S   0  0  0  0  0  0  0  0  0  0  0  0
   40.1160   26.3820   43.0700 C   0  0  0  0  0  0  0  0  0  0  0  0
   39.4290   27.1830   42.6920 N   0  0  0  0  0  0  0  0  0  0  0  0
   41.4230   26.3710   43.7570 C   0  0  0  0  0  0  0  0  0  0  0  0
   42.4580   25.6830   43.2740 N   0  0  0  0  0  0  0  0  0  0  0  0
   43.4940   25.8240   44.0430 O   0  0  0  0  0  0  0  0  0  0  0  0
   43.1100   26.6180   45.0340 C   0  0  0  0  0  0  0  0  0  0  0  0
   41.8020   26.9930   44.8980 N   0  0  0  0  0  0  0  0  0  0  0  0
   43.9920   26.9970   46.0820 N   0  0  0  0  0  0  0  0  0  0  0  0
   45.3370   26.8320   45.9370 C   0  0  0  0  0  0  0  0  0  0  0  0
   46.0020   27.2550   47.0450 N   0  0  0  0  0  0  0  0  0  0  0  0
   45.0650   27.6960   47.9090 C   0  0  0  0  0  0  0  0  0  0  0  0
   45.0240   28.2460   49.1890 C   0  0  0  0  0  0  0  0  0  0  0  0
   43.8660   28.5850   49.7760 N   0  0  0  0  0  0  0  0  0  0  0  0
   42.7100   28.4010   49.1410 C   0  0  0  0  0  0  0  0  0  0  0  0
   42.6950   27.8690   47.8890 N   0  0  0  0  0  0  0  0  0  0  0  0
   43.8380   27.5230   47.2850 C   0  0  0  0  0  0  0  0  0  0  0  0
   38.0280   29.6580   41.7290 C   0  0  0  0  0  0  0  0  0  0  0  0
   37.4920   28.3700   41.6510 C   0  0  0  0  0  0  0  0  0  0  0  0
   36.2060   28.2260   41.1490 C   0  0  0  0  0  0  0  0  0  0  0  0
   35.5250   29.3360   40.7580 N   0  0  0  0  0  0  0  0  0  0  0  0
   36.0760   30.5700   40.8480 C   0  0  0  0  0  0  0  0  0  0  0  0
   37.3200   30.7230   41.3320 N   0  0  0  0  0  0  0  0  0  0  0  0
   36.8759   25.5951   41.3831 H   0  0  0  0  0  0  0  0  0  0  0  0
   45.8204   26.4124   45.0424 H   0  0  0  0  0  0  0  0  0  0  0  0
   45.9666   28.4065   49.7328 H   0  0  0  0  0  0  0  0  0  0  0  0
   41.7650   28.6799   49.6300 H   0  0  0  0  0  0  0  0  0  0  0  0
   39.0457   29.7991   42.1220 H   0  0  0  0  0  0  0  0  0  0  0  0
   35.7454   27.2303   41.0688 H   0  0  0  0  0  0  0  0  0  0  0  0
   35.5025   31.4508   40.5234 H   0  0  0  0  0  0  0  0  0  0  0  0
  1  5  1  0
  2  1  2  0
  2  3  1  0
  3  4  1  0
  4  6  1  0
  5  4  2  0
  6 10  1  0
  7  6  2  0
  7  8  1  0
  8  9  1  0
  9 11  1  0
 10  9  2  0
 11 19  1  0
 12 11  1  0
 12 13  2  0
 13 14  1  0
 14 15  2  0
 15 16  1  0
 17 16  2  0
 18 17  1  0
 19 18  2  0
 19 14  1  0
 21 20  2  0
 21  1  1  0
 22 21  1  0
 23 24  1  0
 23 22  2  0
 24 25  2  0
 25 20  1  0
  2 26  1  0
 12 27  1  0
 15 28  1  0
 17 29  1  0
 20 30  1  0
 22 31  1  0
 24 32  1  0
M  ISO  7  26  14  27  14  28  14  29  14  30  14  31  14  32  14
M  END
>  <minimizedAffinity>  (1) 
-6.3614397

>  <minimizedRMSD>  (1) 
3.62939286

$$$$
