
     RDKit          3D

 31 34  0  0  0  0  0  0  0  0999 V2000
   37.7120   30.4920   41.3100 C   0  0  0  0  0  0  0  0  0  0  0  0
   36.4320   29.8820   41.1290 C   0  0  0  0  0  0  0  0  0  0  0  0
   36.6620   28.2040   41.9070 S   0  0  0  0  0  0  0  0  0  0  0  0
   38.4490   28.6510   42.3310 C   0  0  0  0  0  0  0  0  0  0  0  0
   38.5370   29.6990   41.9230 N   0  0  0  0  0  0  0  0  0  0  0  0
   39.3770   27.7380   43.0300 C   0  0  0  0  0  0  0  0  0  0  0  0
   39.0280   26.5020   43.3950 N   0  0  0  0  0  0  0  0  0  0  0  0
   40.0210   25.9100   43.9890 O   0  0  0  0  0  0  0  0  0  0  0  0
   41.0130   26.7830   44.0000 C   0  0  0  0  0  0  0  0  0  0  0  0
   40.6640   27.9490   43.4100 N   0  0  0  0  0  0  0  0  0  0  0  0
   42.3520   26.6720   44.5270 N   0  0  0  0  0  0  0  0  0  0  0  0
   42.6960   27.4320   45.6000 C   0  0  0  0  0  0  0  0  0  0  0  0
   43.9830   27.3570   46.1440 C   0  0  0  0  0  0  0  0  0  0  0  0
   44.8660   26.4830   45.5370 C   0  0  0  0  0  0  0  0  0  0  0  0
   46.0410   26.4080   46.0270 O   0  0  0  0  0  0  0  0  0  0  0  0
   44.5010   25.7330   44.4670 N   0  0  0  0  0  0  0  0  0  0  0  0
   43.2430   25.8330   43.9670 C   0  0  0  0  0  0  0  0  0  0  0  0
   42.8690   25.1440   42.9640 O   0  0  0  0  0  0  0  0  0  0  0  0
   39.0850   32.5500   41.1780 C   0  0  0  0  0  0  0  0  0  0  0  0
   37.9520   31.8500   40.8250 C   0  0  0  0  0  0  0  0  0  0  0  0
   37.0490   32.4930   39.9900 C   0  0  0  0  0  0  0  0  0  0  0  0
   37.3230   33.7580   39.5680 N   0  0  0  0  0  0  0  0  0  0  0  0
   38.4480   34.3970   39.9430 C   0  0  0  0  0  0  0  0  0  0  0  0
   39.3170   33.7930   40.7410 N   0  0  0  0  0  0  0  0  0  0  0  0
   35.5342   30.2993   40.6496 H   0  0  0  0  0  0  0  0  0  0  0  0
   41.9554   28.1127   46.0451 H   0  0  0  0  0  0  0  0  0  0  0  0
   44.2781   27.9640   47.0126 H   0  0  0  0  0  0  0  0  0  0  0  0
   45.1779   25.0883   44.0344 H   0  0  0  0  0  0  0  0  0  0  0  0
   39.8220   32.0718   41.8400 H   0  0  0  0  0  0  0  0  0  0  0  0
   36.1247   31.9875   39.6735 H   0  0  0  0  0  0  0  0  0  0  0  0
   38.6453   35.4190   39.5873 H   0  0  0  0  0  0  0  0  0  0  0  0
  1  5  1  0
  2  1  2  0
  2  3  1  0
  3  4  1  0
  4  6  1  0
  5  4  2  0
  6  7  2  0
  6 10  1  0
  7  8  1  0
  8  9  1  0
  9 11  1  0
 10  9  2  0
 11 12  1  0
 12 13  2  0
 14 15  2  0
 14 13  1  0
 16 14  1  0
 17 16  1  0
 17 11  1  0
 18 17  2  0
 20 19  2  0
 20  1  1  0
 21 20  1  0
 22 23  1  0
 22 21  2  0
 23 24  2  0
 24 19  1  0
  2 25  1  0
 12 26  1  0
 13 27  1  0
 16 28  1  0
 19 29  1  0
 21 30  1  0
 23 31  1  0
M  ISO  7  25  14  26  14  27  14  28   9  29  14  30  14  31  14
M  END
>  <minimizedAffinity>  (1) 
-6.15461779

>  <minimizedRMSD>  (1) 
0.216562286

$$$$
