
     RDKit          3D

 29 32  0  0  0  0  0  0  0  0999 V2000
   38.5930   33.4590   40.2840 C   0  0  0  0  0  0  0  0  0  0  0  0
   37.4420   33.4080   39.4460 C   0  0  0  0  0  0  0  0  0  0  0  0
   36.7950   31.6860   39.7000 S   0  0  0  0  0  0  0  0  0  0  0  0
   38.2100   31.3410   40.9040 C   0  0  0  0  0  0  0  0  0  0  0  0
   38.7530   32.3230   40.8890 N   0  0  0  0  0  0  0  0  0  0  0  0
   40.7160   34.6220   40.7660 C   0  0  0  0  0  0  0  0  0  0  0  0
   39.3960   34.6750   40.3630 C   0  0  0  0  0  0  0  0  0  0  0  0
   38.8500   35.9250   40.0340 C   0  0  0  0  0  0  0  0  0  0  0  0
   39.6470   37.0230   40.1270 N   0  0  0  0  0  0  0  0  0  0  0  0
   40.9450   36.9230   40.5300 C   0  0  0  0  0  0  0  0  0  0  0  0
   41.4550   35.7350   40.8400 N   0  0  0  0  0  0  0  0  0  0  0  0
   38.4170   30.0590   41.6060 C   0  0  0  0  0  0  0  0  0  0  0  0
   39.0180   30.0050   42.8130 N   0  0  0  0  0  0  0  0  0  0  0  0
   39.0790   28.7750   43.2130 O   0  0  0  0  0  0  0  0  0  0  0  0
   38.5230   28.0430   42.2710 C   0  0  0  0  0  0  0  0  0  0  0  0
   38.0900   28.8090   41.2370 N   0  0  0  0  0  0  0  0  0  0  0  0
   38.3900   26.5940   42.3350 C   0  0  0  0  0  0  0  0  0  0  0  0
   39.4620   25.8400   42.7920 C   0  0  0  0  0  0  0  0  0  0  0  0
   39.3110   24.4620   42.8420 C   0  0  0  0  0  0  0  0  0  0  0  0
   38.1470   23.8670   42.4570 N   0  0  0  0  0  0  0  0  0  0  0  0
   37.1320   24.6200   42.0210 C   0  0  0  0  0  0  0  0  0  0  0  0
   37.2600   25.9760   41.9640 N   0  0  0  0  0  0  0  0  0  0  0  0
   37.0336   34.2004   38.8016 H   0  0  0  0  0  0  0  0  0  0  0  0
   41.1652   33.6530   41.0293 H   0  0  0  0  0  0  0  0  0  0  0  0
   37.8030   36.0146   39.7088 H   0  0  0  0  0  0  0  0  0  0  0  0
   41.5707   37.8251   40.5988 H   0  0  0  0  0  0  0  0  0  0  0  0
   40.4012   26.3198   43.1045 H   0  0  0  0  0  0  0  0  0  0  0  0
   40.1447   23.8391   43.1984 H   0  0  0  0  0  0  0  0  0  0  0  0
   36.1911   24.1441   41.7074 H   0  0  0  0  0  0  0  0  0  0  0  0
  1  7  1  0
  1  5  1  0
  2  3  1  0
  2  1  2  0
  3  4  1  0
  4 12  1  0
  5  4  2  0
  6 11  2  0
  7  6  1  0
  8  9  1  0
  8  7  2  0
  9 10  2  0
 10 11  1  0
 12 13  2  0
 13 14  1  0
 15 17  1  0
 15 14  1  0
 16 12  1  0
 16 15  2  0
 17 18  2  0
 18 19  1  0
 20 19  2  0
 21 20  1  0
 22 21  2  0
 22 17  1  0
  2 23  1  0
  6 24  1  0
  8 25  1  0
 10 26  1  0
 18 27  1  0
 19 28  1  0
 21 29  1  0
M  ISO  7  23  14  24  14  25  14  26  14  27  14  28  14  29  14
M  END
>  <minimizedAffinity>  (1) 
-5.75502777

>  <minimizedRMSD>  (1) 
4.40558815

$$$$
