
     RDKit          3D

 28 30  0  0  0  0  0  0  0  0999 V2000
   37.5920   30.8830   40.7780 C   0  0  0  0  0  0  0  0  0  0  0  0
   36.2070   30.7630   40.4650 C   0  0  0  0  0  0  0  0  0  0  0  0
   35.7990   28.9990   40.8640 S   0  0  0  0  0  0  0  0  0  0  0  0
   37.6060   28.7250   41.3940 C   0  0  0  0  0  0  0  0  0  0  0  0
   38.0490   29.7450   41.2170 N   0  0  0  0  0  0  0  0  0  0  0  0
   38.1520   27.4400   41.8970 C   0  0  0  0  0  0  0  0  0  0  0  0
   37.3440   26.4310   42.2370 N   0  0  0  0  0  0  0  0  0  0  0  0
   38.0520   25.4180   42.6460 O   0  0  0  0  0  0  0  0  0  0  0  0
   39.3270   25.7930   42.5610 C   0  0  0  0  0  0  0  0  0  0  0  0
   39.4320   27.0640   42.0920 N   0  0  0  0  0  0  0  0  0  0  0  0
   40.4540   24.9920   42.9080 N   0  0  0  0  0  0  0  0  0  0  0  0
   41.5470   25.4980   43.6770 C   0  0  0  0  0  0  0  0  0  0  0  0
   41.2530   26.4300   44.5510 N   0  0  0  0  0  0  0  0  0  0  0  0
   42.8380   24.9180   43.3960 N   0  0  0  0  0  0  0  0  0  0  0  0
   41.9640   26.8640   45.1580 H   0  0  0  0  0  0  0  0  0  0  0  0
   39.6430   32.2520   40.8770 C   0  0  0  0  0  0  0  0  0  0  0  0
   38.2830   32.1500   40.5920 C   0  0  0  0  0  0  0  0  0  0  0  0
   37.6060   33.2870   40.1240 C   0  0  0  0  0  0  0  0  0  0  0  0
   38.3170   34.4360   39.9750 N   0  0  0  0  0  0  0  0  0  0  0  0
   39.6420   34.4990   40.2640 C   0  0  0  0  0  0  0  0  0  0  0  0
   40.2900   33.4140   40.7090 N   0  0  0  0  0  0  0  0  0  0  0  0
   35.5332   31.5402   40.0753 H   0  0  0  0  0  0  0  0  0  0  0  0
   40.4815   24.0119   42.5926 H   0  0  0  0  0  0  0  0  0  0  0  0
   43.6694   25.2365   43.9139 H   0  0  0  0  0  0  0  0  0  0  0  0
   42.9281   24.1855   42.6775 H   0  0  0  0  0  0  0  0  0  0  0  0
   40.1907   31.3711   41.2431 H   0  0  0  0  0  0  0  0  0  0  0  0
   36.5329   33.2494   39.8851 H   0  0  0  0  0  0  0  0  0  0  0  0
   40.1864   35.4457   40.1321 H   0  0  0  0  0  0  0  0  0  0  0  0
  1  5  1  0
  2  1  2  0
  2  3  1  0
  3  4  1  0
  4  6  1  0
  5  4  2  0
  6 10  1  0
  6  7  2  0
  7  8  1  0
  9  8  1  0
  9 11  1  0
 10  9  2  0
 11 12  1  0
 12 13  2  0
 13 15  1  0
 14 12  1  0
 17  1  1  0
 17 16  2  0
 18 17  1  0
 19 18  2  0
 19 20  1  0
 20 21  2  0
 21 16  1  0
  2 22  1  0
 11 23  1  0
 14 24  1  0
 14 25  1  0
 16 26  1  0
 18 27  1  0
 20 28  1  0
M  ISO  4  22  14  26  14  27  14  28  14
M  END
>  <minimizedAffinity>  (1) 
-5.74176884

>  <minimizedRMSD>  (1) 
1.81019163

$$$$
