
     RDKit          3D

 28 31  0  0  0  0  0  0  0  0999 V2000
   38.6000   33.5040   40.3000 C   0  0  0  0  0  0  0  0  0  0  0  0
   37.4480   33.4620   39.4460 C   0  0  0  0  0  0  0  0  0  0  0  0
   36.7980   31.7360   39.7020 S   0  0  0  0  0  0  0  0  0  0  0  0
   38.2220   31.3990   40.9250 C   0  0  0  0  0  0  0  0  0  0  0  0
   38.7800   32.3720   40.9270 N   0  0  0  0  0  0  0  0  0  0  0  0
   40.7280   34.6720   40.8020 C   0  0  0  0  0  0  0  0  0  0  0  0
   39.4040   34.7350   40.3750 C   0  0  0  0  0  0  0  0  0  0  0  0
   38.8560   35.9820   40.0230 C   0  0  0  0  0  0  0  0  0  0  0  0
   39.6630   37.0720   40.1190 N   0  0  0  0  0  0  0  0  0  0  0  0
   40.9550   36.9570   40.5440 C   0  0  0  0  0  0  0  0  0  0  0  0
   41.4680   35.7820   40.8740 N   0  0  0  0  0  0  0  0  0  0  0  0
   38.4060   30.1100   41.6210 C   0  0  0  0  0  0  0  0  0  0  0  0
   39.0110   30.0100   42.8010 N   0  0  0  0  0  0  0  0  0  0  0  0
   39.0380   28.7670   43.1840 O   0  0  0  0  0  0  0  0  0  0  0  0
   38.4470   28.0750   42.2410 C   0  0  0  0  0  0  0  0  0  0  0  0
   38.0350   28.8820   41.2410 N   0  0  0  0  0  0  0  0  0  0  0  0
   38.2540   26.6470   42.2530 C   0  0  0  0  0  0  0  0  0  0  0  0
   37.0710   25.9510   42.1110 C   0  0  0  0  0  0  0  0  0  0  0  0
   37.0890   24.5920   42.1490 C   0  0  0  0  0  0  0  0  0  0  0  0
   38.3560   23.9570   42.3380 C   0  0  0  0  0  0  0  0  0  0  0  0
   39.5190   25.4490   42.4560 S   0  0  0  0  0  0  0  0  0  0  0  0
   37.0468   34.2554   38.7983 H   0  0  0  0  0  0  0  0  0  0  0  0
   41.1670   33.7029   41.0816 H   0  0  0  0  0  0  0  0  0  0  0  0
   37.8138   36.0718   39.6829 H   0  0  0  0  0  0  0  0  0  0  0  0
   41.5821   37.8581   40.6137 H   0  0  0  0  0  0  0  0  0  0  0  0
   36.1229   26.4902   41.9685 H   0  0  0  0  0  0  0  0  0  0  0  0
   36.1656   24.0045   42.0387 H   0  0  0  0  0  0  0  0  0  0  0  0
   38.5934   22.8846   42.3989 H   0  0  0  0  0  0  0  0  0  0  0  0
  1  7  1  0
  1  5  1  0
  2  3  1  0
  2  1  2  0
  3  4  1  0
  4  5  2  0
  4 12  1  0
  6 11  2  0
  7  6  1  0
  8  9  1  0
  8  7  2  0
  9 10  2  0
 10 11  1  0
 12 13  2  0
 13 14  1  0
 15 17  1  0
 15 14  1  0
 16 12  1  0
 16 15  2  0
 17 21  1  0
 18 19  1  0
 18 17  2  0
 19 20  2  0
 20 21  1  0
  2 22  1  0
  6 23  1  0
  8 24  1  0
 10 25  1  0
 18 26  1  0
 19 27  1  0
 20 28  1  0
M  ISO  7  22  14  23  14  24  14  25  14  26  14  27  14  28  14
M  END
>  <minimizedAffinity>  (1) 
-5.66402531

>  <minimizedRMSD>  (1) 
4.39404964

$$$$
