
     RDKit          3D

 28 31  0  0  0  0  0  0  0  0999 V2000
   37.8130   30.2460   41.1430 C   0  0  0  0  0  0  0  0  0  0  0  0
   36.6790   29.4550   40.8030 C   0  0  0  0  0  0  0  0  0  0  0  0
   37.0260   27.8140   41.5920 S   0  0  0  0  0  0  0  0  0  0  0  0
   38.6640   28.4930   42.2520 C   0  0  0  0  0  0  0  0  0  0  0  0
   38.6380   29.5430   41.8560 N   0  0  0  0  0  0  0  0  0  0  0  0
   38.8960   32.4640   41.1940 C   0  0  0  0  0  0  0  0  0  0  0  0
   37.9010   31.6240   40.6920 C   0  0  0  0  0  0  0  0  0  0  0  0
   37.0080   32.1510   39.7540 C   0  0  0  0  0  0  0  0  0  0  0  0
   37.1570   33.4590   39.3800 N   0  0  0  0  0  0  0  0  0  0  0  0
   38.1480   34.2350   39.9030 C   0  0  0  0  0  0  0  0  0  0  0  0
   39.0040   33.7330   40.8010 N   0  0  0  0  0  0  0  0  0  0  0  0
   39.6370   27.7310   43.0670 C   0  0  0  0  0  0  0  0  0  0  0  0
   39.3800   26.4580   43.4310 N   0  0  0  0  0  0  0  0  0  0  0  0
   40.3930   26.0150   44.1410 O   0  0  0  0  0  0  0  0  0  0  0  0
   41.2670   26.9930   44.2210 C   0  0  0  0  0  0  0  0  0  0  0  0
   40.8340   28.0940   43.5600 N   0  0  0  0  0  0  0  0  0  0  0  0
   42.5390   26.9010   44.9330 C   0  0  0  0  0  0  0  0  0  0  0  0
   43.7600   26.5260   44.4090 C   0  0  0  0  0  0  0  0  0  0  0  0
   44.6990   26.5700   45.3990 N   0  0  0  0  0  0  0  0  0  0  0  0
   44.0710   26.9690   46.5250 C   0  0  0  0  0  0  0  0  0  0  0  0
   42.7720   27.1650   46.2310 N   0  0  0  0  0  0  0  0  0  0  0  0
   35.8007   29.7494   40.2097 H   0  0  0  0  0  0  0  0  0  0  0  0
   39.6090   32.0689   41.9326 H   0  0  0  0  0  0  0  0  0  0  0  0
   36.2063   31.5302   39.3276 H   0  0  0  0  0  0  0  0  0  0  0  0
   38.2451   35.2833   39.5841 H   0  0  0  0  0  0  0  0  0  0  0  0
   43.9460   26.2385   43.3637 H   0  0  0  0  0  0  0  0  0  0  0  0
   44.5388   27.1095   47.5106 H   0  0  0  0  0  0  0  0  0  0  0  0
   42.0572   27.4737   46.9052 H   0  0  0  0  0  0  0  0  0  0  0  0
  1  5  1  0
  2  1  2  0
  2  3  1  0
  3  4  1  0
  4 12  1  0
  5  4  2  0
  7  1  1  0
  7  6  2  0
  8  7  1  0
  9  8  2  0
  9 10  1  0
 10 11  2  0
 11  6  1  0
 12 13  2  0
 12 16  1  0
 13 14  1  0
 14 15  1  0
 15 17  1  0
 16 15  2  0
 17 21  1  0
 18 17  2  0
 18 19  1  0
 19 20  2  0
 21 20  1  0
  2 22  1  0
  6 23  1  0
  8 24  1  0
 10 25  1  0
 18 26  1  0
 20 27  1  0
 21 28  1  0
M  ISO  7  22  14  23  14  24  14  25  14  26  14  27  14  28   9
M  END
>  <minimizedAffinity>  (1) 
-5.1911993

>  <minimizedRMSD>  (1) 
0.716426313

$$$$
