
     RDKit          3D

 24 26  0  0  0  0  0  0  0  0999 V2000
   37.8380   30.4280   41.3470 C   0  0  0  0  0  0  0  0  0  0  0  0
   36.5260   29.8830   41.2320 C   0  0  0  0  0  0  0  0  0  0  0  0
   36.6770   28.1830   41.9700 S   0  0  0  0  0  0  0  0  0  0  0  0
   38.5100   28.5210   42.3050 C   0  0  0  0  0  0  0  0  0  0  0  0
   38.6360   29.5660   41.9070 N   0  0  0  0  0  0  0  0  0  0  0  0
   39.3420   32.3810   41.1460 C   0  0  0  0  0  0  0  0  0  0  0  0
   38.1180   31.7740   40.8650 C   0  0  0  0  0  0  0  0  0  0  0  0
   37.1770   32.4900   40.1130 C   0  0  0  0  0  0  0  0  0  0  0  0
   37.5200   33.7460   39.7000 N   0  0  0  0  0  0  0  0  0  0  0  0
   38.7220   34.2930   40.0000 C   0  0  0  0  0  0  0  0  0  0  0  0
   39.6180   33.6140   40.7140 N   0  0  0  0  0  0  0  0  0  0  0  0
   39.4420   27.5570   42.9430 C   0  0  0  0  0  0  0  0  0  0  0  0
   38.9890   26.4500   43.5440 N   0  0  0  0  0  0  0  0  0  0  0  0
   40.0090   25.7740   44.0230 O   0  0  0  0  0  0  0  0  0  0  0  0
   41.0910   26.4550   43.7240 C   0  0  0  0  0  0  0  0  0  0  0  0
   40.7900   27.5870   43.0430 N   0  0  0  0  0  0  0  0  0  0  0  0
   42.4330   26.0180   44.0930 C   0  0  0  0  0  0  0  0  0  0  0  0
   43.0850   26.7310   44.9160 O   0  0  0  0  0  0  0  0  0  0  0  0
   42.9970   24.8600   43.5710 O   0  0  0  0  0  0  0  0  0  0  0  0
   35.6306   30.3584   40.8051 H   0  0  0  0  0  0  0  0  0  0  0  0
   40.0936   31.8340   41.7342 H   0  0  0  0  0  0  0  0  0  0  0  0
   36.1973   32.0561   39.8642 H   0  0  0  0  0  0  0  0  0  0  0  0
   38.9607   35.3083   39.6504 H   0  0  0  0  0  0  0  0  0  0  0  0
   43.9103   24.5892   43.8406 H   0  0  0  0  0  0  0  0  0  0  0  0
  1  5  1  0
  2  1  2  0
  2  3  1  0
  3  4  1  0
  4 12  1  0
  5  4  2  0
  7  6  2  0
  7  1  1  0
  8  7  1  0
  9 10  1  0
  9  8  2  0
 10 11  2  0
 11  6  1  0
 12 16  1  0
 12 13  2  0
 13 14  1  0
 15 14  1  0
 15 17  1  0
 16 15  2  0
 17 18  2  0
 19 17  1  0
  2 20  1  0
  6 21  1  0
  8 22  1  0
 10 23  1  0
 19 24  1  0
M  ISO  5  20  14  21  14  22  14  23  14  24   3
M  END
>  <minimizedAffinity>  (1) 
-5.17971706

>  <minimizedRMSD>  (1) 
0.350270241

$$$$
