
     RDKit          3D

 23 25  0  0  0  0  0  0  0  0999 V2000
   37.6670   30.6130   41.2000 C   0  0  0  0  0  0  0  0  0  0  0  0
   36.4140   29.9920   40.9340 C   0  0  0  0  0  0  0  0  0  0  0  0
   36.5870   28.3060   41.6880 S   0  0  0  0  0  0  0  0  0  0  0  0
   38.3420   28.7420   42.2350 C   0  0  0  0  0  0  0  0  0  0  0  0
   38.4380   29.7910   41.8510 N   0  0  0  0  0  0  0  0  0  0  0  0
   39.0740   32.6400   41.1610 C   0  0  0  0  0  0  0  0  0  0  0  0
   37.9140   31.9780   40.7490 C   0  0  0  0  0  0  0  0  0  0  0  0
   37.0180   32.6490   39.9120 C   0  0  0  0  0  0  0  0  0  0  0  0
   37.3150   33.9170   39.5350 N   0  0  0  0  0  0  0  0  0  0  0  0
   38.4490   34.5310   39.9530 C   0  0  0  0  0  0  0  0  0  0  0  0
   39.3160   33.8950   40.7580 N   0  0  0  0  0  0  0  0  0  0  0  0
   39.2510   27.8350   42.9780 C   0  0  0  0  0  0  0  0  0  0  0  0
   38.8190   26.6550   43.4390 N   0  0  0  0  0  0  0  0  0  0  0  0
   39.7930   26.0380   44.0540 O   0  0  0  0  0  0  0  0  0  0  0  0
   40.8420   26.8370   43.9790 C   0  0  0  0  0  0  0  0  0  0  0  0
   40.5400   27.9780   43.3090 N   0  0  0  0  0  0  0  0  0  0  0  0
   42.1860   26.5920   44.5240 C   0  0  0  0  0  0  0  0  0  0  0  0
   42.6030   27.1210   45.6050 O   0  0  0  0  0  0  0  0  0  0  0  0
   35.5463   30.4133   40.4052 H   0  0  0  0  0  0  0  0  0  0  0  0
   39.7917   32.1284   41.8192 H   0  0  0  0  0  0  0  0  0  0  0  0
   36.0946   32.1603   39.5676 H   0  0  0  0  0  0  0  0  0  0  0  0
   38.6614   35.5607   39.6296 H   0  0  0  0  0  0  0  0  0  0  0  0
   42.8617   25.9214   43.9729 H   0  0  0  0  0  0  0  0  0  0  0  0
  1  5  1  0
  2  1  2  0
  2  3  1  0
  3  4  1  0
  4 12  1  0
  5  4  2  0
  7  6  2  0
  7  1  1  0
  8  7  1  0
  9  8  2  0
  9 10  1  0
 10 11  2  0
 11  6  1  0
 12 16  1  0
 12 13  2  0
 13 14  1  0
 15 14  1  0
 15 17  1  0
 16 15  2  0
 17 18  2  0
  2 19  1  0
  6 20  1  0
  8 21  1  0
 10 22  1  0
 17 23  1  0
M  ISO  5  19  14  20  14  21  14  22  14  23   6
M  END
>  <minimizedAffinity>  (1) 
-4.72923756

>  <minimizedRMSD>  (1) 
0.377246082

$$$$
