
     RDKit          3D

 43 45  0  0  1  0  0  0  0  0999 V2000
   39.2670   28.1840   42.3200 C   0  0  2  0  0  0  0  0  0  0  0  0
   40.4640   27.2430   42.2390 C   0  0  2  0  0  0  0  0  0  0  0  0
   40.1390   25.8550   41.9680 C   0  0  0  0  0  0  0  0  0  0  0  0
   40.7670   24.9600   43.0170 C   0  0  0  0  0  0  0  0  0  0  0  0
   41.7150   25.8380   43.7810 C   0  0  0  0  0  0  0  0  0  0  0  0
   41.1130   27.2080   43.6130 C   0  0  1  0  0  0  0  0  0  0  0  0
   42.2440   28.2130   43.5970 C   0  0  0  0  0  0  0  0  0  0  0  0
   41.8300   29.4850   43.2720 F   0  0  0  0  0  0  0  0  0  0  0  0
   42.8940   28.2310   44.8270 F   0  0  0  0  0  0  0  0  0  0  0  0
   43.1530   27.8080   42.6120 F   0  0  0  0  0  0  0  0  0  0  0  0
   38.0900   27.4620   42.7060 N   0  0  0  0  0  0  0  0  0  0  0  0
   37.1120   28.0350   43.5530 C   0  0  0  0  0  0  0  0  0  0  0  0
   37.3420   29.2040   44.0550 N   0  0  0  0  0  0  0  0  0  0  0  0
   35.9270   27.3540   43.8360 N   0  0  0  0  0  0  0  0  0  0  0  0
   36.6420   29.6660   44.6680 H   0  0  0  0  0  0  0  0  0  0  0  0
   38.5310   29.1930   38.9240 C   0  0  0  0  0  0  0  0  0  0  0  0
   39.3040   30.2810   39.3600 C   0  0  0  0  0  0  0  0  0  0  0  0
   39.6180   29.9590   40.6530 C   0  0  0  0  0  0  0  0  0  0  0  0
   39.0770   28.7610   40.9870 N   0  0  0  0  0  0  0  0  0  0  0  0
   38.4230   28.3090   39.9310 N   0  0  0  0  0  0  0  0  0  0  0  0
   38.1440   28.0030   36.7490 C   0  0  0  0  0  0  0  0  0  0  0  0
   37.9570   29.0750   37.5960 C   0  0  0  0  0  0  0  0  0  0  0  0
   37.1650   30.1100   37.1420 C   0  0  0  0  0  0  0  0  0  0  0  0
   36.5930   30.0690   35.9020 N   0  0  0  0  0  0  0  0  0  0  0  0
   36.8250   28.9550   35.1010 C   0  0  0  0  0  0  0  0  0  0  0  0
   37.6150   27.9160   35.5460 N   0  0  0  0  0  0  0  0  0  0  0  0
   39.4458   28.9691   43.0694 H   0  0  0  0  0  0  0  0  0  0  0  0
   41.0848   27.6296   41.4173 H   0  0  0  0  0  0  0  0  0  0  0  0
   39.0467   25.7266   41.9865 H   0  0  0  0  0  0  0  0  0  0  0  0
   40.5309   25.5797   40.9777 H   0  0  0  0  0  0  0  0  0  0  0  0
   39.9951   24.5537   43.6872 H   0  0  0  0  0  0  0  0  0  0  0  0
   41.2833   24.1011   42.5633 H   0  0  0  0  0  0  0  0  0  0  0  0
   41.7536   25.5499   44.8419 H   0  0  0  0  0  0  0  0  0  0  0  0
   42.7529   25.7723   43.4227 H   0  0  0  0  0  0  0  0  0  0  0  0
   40.3936   27.4303   44.4149 H   0  0  0  0  0  0  0  0  0  0  0  0
   37.9529   26.5023   42.3581 H   0  0  0  0  0  0  0  0  0  0  0  0
   35.2225   27.7813   44.4540 H   0  0  0  0  0  0  0  0  0  0  0  0
   35.7571   26.4242   43.4268 H   0  0  0  0  0  0  0  0  0  0  0  0
   39.5901   31.1806   38.7954 H   0  0  0  0  0  0  0  0  0  0  0  0
   40.2236   30.5837   41.3260 H   0  0  0  0  0  0  0  0  0  0  0  0
   38.7725   27.1708   37.0990 H   0  0  0  0  0  0  0  0  0  0  0  0
   36.9914   30.9823   37.7892 H   0  0  0  0  0  0  0  0  0  0  0  0
   36.3723   28.9025   34.0998 H   0  0  0  0  0  0  0  0  0  0  0  0
  1 11  1  0
  2  1  1  0
  2  6  1  0
  3  2  1  0
  3  4  1  0
  4  5  1  0
  6  5  1  0
  7  6  1  0
  7  9  1  0
  8  7  1  0
 10  7  1  0
 11 12  1  0
 12 14  1  0
 12 13  2  0
 13 15  1  0
 16 17  1  0
 16 20  2  0
 17 18  2  0
 18 19  1  0
 19  1  1  0
 20 19  1  0
 21 22  2  0
 22 16  1  0
 23 22  1  0
 24 23  2  0
 25 26  2  0
 25 24  1  0
 26 21  1  0
  1 27  1  1
  2 28  1  6
  3 29  1  0
  3 30  1  0
  4 31  1  0
  4 32  1  0
  5 33  1  0
  5 34  1  0
  6 35  1  1
 11 36  1  0
 14 37  1  0
 14 38  1  0
 17 39  1  0
 18 40  1  0
 21 41  1  0
 23 42  1  0
 25 43  1  0
M  ISO  8  27   8  28  13  29  13  30  13  31  13  32  13  33  13  34  13
M  ISO  6  35  13  39  14  40  14  41  14  42  14  43  14
M  END
>  <minimizedAffinity>  (1) 
-5.08367825

>  <minimizedRMSD>  (1) 
0.274652302

$$$$
