
     RDKit          3D

 36 40  0  0  0  0  0  0  0  0999 V2000
   39.8020   27.6450   43.1830 C   0  0  0  0  0  0  0  0  0  0  0  0
   39.5070   26.3980   43.5870 N   0  0  0  0  0  0  0  0  0  0  0  0
   40.5830   25.8740   44.1310 O   0  0  0  0  0  0  0  0  0  0  0  0
   41.5350   26.7880   44.0620 C   0  0  0  0  0  0  0  0  0  0  0  0
   41.0840   27.9070   43.4770 N   0  0  0  0  0  0  0  0  0  0  0  0
   37.9280   30.2990   41.5030 C   0  0  0  0  0  0  0  0  0  0  0  0
   36.6720   29.6520   41.4410 C   0  0  0  0  0  0  0  0  0  0  0  0
   36.9890   28.0180   42.2460 S   0  0  0  0  0  0  0  0  0  0  0  0
   38.8050   28.5100   42.5290 C   0  0  0  0  0  0  0  0  0  0  0  0
   38.8080   29.5360   42.0800 N   0  0  0  0  0  0  0  0  0  0  0  0
   39.2600   32.3760   41.2190 C   0  0  0  0  0  0  0  0  0  0  0  0
   38.1090   31.6560   40.9570 C   0  0  0  0  0  0  0  0  0  0  0  0
   37.0990   32.2280   40.1590 C   0  0  0  0  0  0  0  0  0  0  0  0
   37.3380   33.4860   39.6900 N   0  0  0  0  0  0  0  0  0  0  0  0
   38.4790   34.1660   39.9650 C   0  0  0  0  0  0  0  0  0  0  0  0
   39.4250   33.6030   40.7270 N   0  0  0  0  0  0  0  0  0  0  0  0
   43.2240   26.6530   44.6400 S   0  0  0  0  0  0  0  0  0  0  0  0
   43.8380   28.1690   45.2900 C   0  0  0  0  0  0  0  0  0  0  0  0
   44.5590   29.0730   44.6020 N   0  0  0  0  0  0  0  0  0  0  0  0
   44.9690   30.2000   45.2250 C   0  0  0  0  0  0  0  0  0  0  0  0
   44.7100   30.5030   46.5130 N   0  0  0  0  0  0  0  0  0  0  0  0
   43.9860   29.5930   47.2080 C   0  0  0  0  0  0  0  0  0  0  0  0
   43.7130   29.8880   48.5290 C   0  0  0  0  0  0  0  0  0  0  0  0
   42.9790   29.0020   49.2870 C   0  0  0  0  0  0  0  0  0  0  0  0
   42.5310   27.8400   48.7180 C   0  0  0  0  0  0  0  0  0  0  0  0
   42.8130   27.5600   47.3960 C   0  0  0  0  0  0  0  0  0  0  0  0
   43.5490   28.4360   46.6120 C   0  0  0  0  0  0  0  0  0  0  0  0
   35.7310   30.0306   41.0154 H   0  0  0  0  0  0  0  0  0  0  0  0
   40.0495   31.9300   41.8416 H   0  0  0  0  0  0  0  0  0  0  0  0
   36.1684   31.6894   39.9268 H   0  0  0  0  0  0  0  0  0  0  0  0
   38.6269   35.1789   39.5624 H   0  0  0  0  0  0  0  0  0  0  0  0
   45.5564   30.9222   44.6390 H   0  0  0  0  0  0  0  0  0  0  0  0
   44.0794   30.8250   48.9737 H   0  0  0  0  0  0  0  0  0  0  0  0
   42.7548   29.2263   50.3403 H   0  0  0  0  0  0  0  0  0  0  0  0
   41.9444   27.1272   49.3163 H   0  0  0  0  0  0  0  0  0  0  0  0
   42.4460   26.6216   46.9547 H   0  0  0  0  0  0  0  0  0  0  0  0
  1  5  1  0
  1  2  2  0
  2  3  1  0
  4  3  1  0
  4 17  1  0
  5  4  2  0
  6 10  1  0
  7  6  2  0
  7  8  1  0
  8  9  1  0
  9  1  1  0
 10  9  2  0
 12 11  2  0
 12  6  1  0
 13 12  1  0
 14 15  1  0
 14 13  2  0
 15 16  2  0
 16 11  1  0
 17 18  1  0
 18 27  2  0
 19 20  2  0
 19 18  1  0
 20 21  1  0
 21 22  2  0
 22 23  1  0
 23 24  2  0
 25 24  1  0
 26 25  2  0
 27 22  1  0
 27 26  1  0
  7 28  1  0
 11 29  1  0
 13 30  1  0
 15 31  1  0
 20 32  1  0
 23 33  1  0
 24 34  1  0
 25 35  1  0
 26 36  1  0
M  ISO  8  28  14  29  14  30  14  31  14  32  14  33  14  34  14  35  14
M  ISO  1  36  14
M  END
>  <minimizedAffinity>  (1) 
-7.12696171

>  <minimizedRMSD>  (1) 
2.26603746

$$$$
