
     RDKit          3D

 29 32  0  0  0  0  0  0  0  0999 V2000
   37.7020   30.5800   41.2580 C   0  0  0  0  0  0  0  0  0  0  0  0
   36.4480   29.9610   41.0330 C   0  0  0  0  0  0  0  0  0  0  0  0
   36.6540   28.2840   41.8050 S   0  0  0  0  0  0  0  0  0  0  0  0
   38.4180   28.7320   42.2950 C   0  0  0  0  0  0  0  0  0  0  0  0
   38.4780   29.7670   41.8910 N   0  0  0  0  0  0  0  0  0  0  0  0
   39.0860   32.6220   41.1730 C   0  0  0  0  0  0  0  0  0  0  0  0
   37.9470   31.9410   40.7890 C   0  0  0  0  0  0  0  0  0  0  0  0
   37.0120   32.5750   39.9330 C   0  0  0  0  0  0  0  0  0  0  0  0
   37.3100   33.8440   39.5380 N   0  0  0  0  0  0  0  0  0  0  0  0
   38.4590   34.4810   39.9480 C   0  0  0  0  0  0  0  0  0  0  0  0
   39.3290   33.8630   40.7570 N   0  0  0  0  0  0  0  0  0  0  0  0
   39.3370   27.8260   43.0210 C   0  0  0  0  0  0  0  0  0  0  0  0
   38.9090   26.6430   43.5050 N   0  0  0  0  0  0  0  0  0  0  0  0
   39.9150   26.0450   44.0970 O   0  0  0  0  0  0  0  0  0  0  0  0
   40.9650   26.8620   43.9770 C   0  0  0  0  0  0  0  0  0  0  0  0
   40.6410   27.9940   43.3040 N   0  0  0  0  0  0  0  0  0  0  0  0
   42.6310   26.6100   44.5780 S   0  0  0  0  0  0  0  0  0  0  0  0
   43.0380   27.5850   45.9770 C   0  0  0  0  0  0  0  0  0  0  0  0
   43.7990   28.7220   46.2110 C   0  0  0  0  0  0  0  0  0  0  0  0
   43.7650   29.0500   47.5190 N   0  0  0  0  0  0  0  0  0  0  0  0
   42.9800   28.1260   48.1320 C   0  0  0  0  0  0  0  0  0  0  0  0
   42.5480   27.2520   47.2050 N   0  0  0  0  0  0  0  0  0  0  0  0
   35.5648   30.3739   40.5237 H   0  0  0  0  0  0  0  0  0  0  0  0
   39.8091   32.1272   41.8381 H   0  0  0  0  0  0  0  0  0  0  0  0
   36.0927   32.0681   39.6045 H   0  0  0  0  0  0  0  0  0  0  0  0
   38.6645   35.5068   39.6082 H   0  0  0  0  0  0  0  0  0  0  0  0
   44.3518   29.2772   45.4388 H   0  0  0  0  0  0  0  0  0  0  0  0
   42.7385   28.0974   49.2048 H   0  0  0  0  0  0  0  0  0  0  0  0
   41.9349   26.4466   47.3956 H   0  0  0  0  0  0  0  0  0  0  0  0
  1  5  1  0
  2  1  2  0
  2  3  1  0
  3  4  1  0
  4 12  1  0
  5  4  2  0
  7  6  2  0
  7  1  1  0
  8  7  1  0
  9  8  2  0
  9 10  1  0
 10 11  2  0
 11  6  1  0
 12 16  1  0
 12 13  2  0
 13 14  1  0
 15 14  1  0
 15 17  1  0
 16 15  2  0
 17 18  1  0
 18 19  2  0
 18 22  1  0
 19 20  1  0
 20 21  2  0
 22 21  1  0
  2 23  1  0
  6 24  1  0
  8 25  1  0
 10 26  1  0
 19 27  1  0
 21 28  1  0
 22 29  1  0
M  ISO  7  23  14  24  14  25  14  26  14  27  14  28  14  29   9
M  END
>  <minimizedAffinity>  (1) 
-5.70360041

>  <minimizedRMSD>  (1) 
1.69022334

$$$$
