
     RDKit          3D

 27 30  0  0  0  0  0  0  0  0999 V2000
   37.8600   30.4110   41.4280 C   0  0  0  0  0  0  0  0  0  0  0  0
   36.6020   29.7720   41.3240 C   0  0  0  0  0  0  0  0  0  0  0  0
   36.8780   28.1360   42.1260 S   0  0  0  0  0  0  0  0  0  0  0  0
   38.6710   28.5980   42.4740 C   0  0  0  0  0  0  0  0  0  0  0  0
   38.6810   29.6150   42.0300 N   0  0  0  0  0  0  0  0  0  0  0  0
   39.2060   32.4680   41.2010 C   0  0  0  0  0  0  0  0  0  0  0  0
   38.0550   31.7560   40.8980 C   0  0  0  0  0  0  0  0  0  0  0  0
   37.0950   32.3500   40.0780 C   0  0  0  0  0  0  0  0  0  0  0  0
   37.3400   33.6040   39.6180 N   0  0  0  0  0  0  0  0  0  0  0  0
   38.4870   34.2670   39.9420 C   0  0  0  0  0  0  0  0  0  0  0  0
   39.4040   33.6960   40.7270 N   0  0  0  0  0  0  0  0  0  0  0  0
   39.6430   27.7210   43.1570 C   0  0  0  0  0  0  0  0  0  0  0  0
   39.2740   26.5080   43.6350 N   0  0  0  0  0  0  0  0  0  0  0  0
   40.3240   25.9520   44.1870 O   0  0  0  0  0  0  0  0  0  0  0  0
   41.3300   26.8010   44.0570 C   0  0  0  0  0  0  0  0  0  0  0  0
   40.9560   27.9430   43.4100 N   0  0  0  0  0  0  0  0  0  0  0  0
   43.0300   26.6350   44.6000 S   0  0  0  0  0  0  0  0  0  0  0  0
   43.2450   27.7450   45.9990 C   0  0  0  0  0  0  0  0  0  0  0  0
   43.7780   28.9710   45.9550 N   0  0  0  0  0  0  0  0  0  0  0  0
   43.7640   29.4650   47.1640 O   0  0  0  0  0  0  0  0  0  0  0  0
   43.2380   28.5980   48.0050 C   0  0  0  0  0  0  0  0  0  0  0  0
   42.9090   27.5100   47.2640 N   0  0  0  0  0  0  0  0  0  0  0  0
   35.6776   30.1601   40.8714 H   0  0  0  0  0  0  0  0  0  0  0  0
   39.9701   32.0090   41.8455 H   0  0  0  0  0  0  0  0  0  0  0  0
   36.1688   31.8192   39.8125 H   0  0  0  0  0  0  0  0  0  0  0  0
   38.6583   35.2816   39.5530 H   0  0  0  0  0  0  0  0  0  0  0  0
   43.0947   28.7294   49.0877 H   0  0  0  0  0  0  0  0  0  0  0  0
  1  5  1  0
  2  1  2  0
  2  3  1  0
  3  4  1  0
  4 12  1  0
  5  4  2  0
  7  6  2  0
  7  1  1  0
  8  7  1  0
  9 10  1  0
  9  8  2  0
 10 11  2  0
 11  6  1  0
 12 16  1  0
 12 13  2  0
 13 14  1  0
 15 14  1  0
 15 17  1  0
 16 15  2  0
 17 18  1  0
 18 22  1  0
 19 18  2  0
 19 20  1  0
 20 21  1  0
 22 21  2  0
  2 23  1  0
  6 24  1  0
  8 25  1  0
 10 26  1  0
 21 27  1  0
M  ISO  5  23  14  24  14  25  14  26  14  27  14
M  END
>  <minimizedAffinity>  (1) 
-5.38419724

>  <minimizedRMSD>  (1) 
0.687145591

$$$$
