
     RDKit          3D

 34 37  0  0  1  0  0  0  0  0999 V2000
   38.7050   29.2480   42.1660 C   0  0  0  0  0  0  0  0  0  0  0  0
   37.6600   28.2890   42.2040 C   0  0  0  0  0  0  0  0  0  0  0  0
   38.4550   26.8580   43.0750 S   0  0  0  0  0  0  0  0  0  0  0  0
   40.0660   27.8260   43.2280 C   0  0  0  0  0  0  0  0  0  0  0  0
   39.7850   28.7870   42.7310 N   0  0  0  0  0  0  0  0  0  0  0  0
   39.4620   31.5160   41.5580 C   0  0  0  0  0  0  0  0  0  0  0  0
   38.4830   30.5540   41.5470 C   0  0  0  0  0  0  0  0  0  0  0  0
   37.2670   30.8540   40.9280 C   0  0  0  0  0  0  0  0  0  0  0  0
   37.1170   32.0810   40.3710 N   0  0  0  0  0  0  0  0  0  0  0  0
   38.1200   33.0070   40.4070 C   0  0  0  0  0  0  0  0  0  0  0  0
   39.2620   32.7100   40.9940 N   0  0  0  0  0  0  0  0  0  0  0  0
   41.3050   27.3120   43.8700 C   0  0  0  0  0  0  0  0  0  0  0  0
   41.7070   26.0350   43.6660 N   0  0  0  0  0  0  0  0  0  0  0  0
   42.8130   25.8400   44.3370 O   0  0  0  0  0  0  0  0  0  0  0  0
   43.0960   26.9810   44.9530 C   0  0  0  0  0  0  0  0  0  0  0  0
   42.1740   27.9370   44.6880 N   0  0  0  0  0  0  0  0  0  0  0  0
   44.4790   27.3910   46.0360 S   0  0  0  0  0  0  0  0  0  0  0  0
   45.0640   27.5080   48.6780 N   0  0  0  0  0  0  0  0  0  0  0  0
   44.8370   28.9590   48.6670 C   0  0  0  0  0  0  0  0  0  0  0  0
   43.3890   29.1290   48.2630 C   0  0  0  0  0  0  0  0  0  0  0  0
   42.8330   27.7110   48.1330 C   0  0  0  0  0  0  0  0  0  0  0  0
   44.1030   26.9640   47.7500 C   0  0  1  0  0  0  0  0  0  0  0  0
   36.6348   28.3733   41.8143 H   0  0  0  0  0  0  0  0  0  0  0  0
   40.4272   31.3000   42.0393 H   0  0  0  0  0  0  0  0  0  0  0  0
   36.4532   30.1147   40.8935 H   0  0  0  0  0  0  0  0  0  0  0  0
   37.9754   33.9962   39.9482 H   0  0  0  0  0  0  0  0  0  0  0  0
   46.0233   27.2908   48.3723 H   0  0  0  0  0  0  0  0  0  0  0  0
   45.0116   29.3847   49.6662 H   0  0  0  0  0  0  0  0  0  0  0  0
   45.5203   29.4776   47.9784 H   0  0  0  0  0  0  0  0  0  0  0  0
   42.8381   29.6890   49.0330 H   0  0  0  0  0  0  0  0  0  0  0  0
   43.2905   29.6940   47.3243 H   0  0  0  0  0  0  0  0  0  0  0  0
   42.4161   27.3471   49.0837 H   0  0  0  0  0  0  0  0  0  0  0  0
   41.9997   27.6031   47.4231 H   0  0  0  0  0  0  0  0  0  0  0  0
   44.0630   25.8660   47.8038 H   0  0  0  0  0  0  0  0  0  0  0  0
  1  2  2  0
  1  5  1  0
  2  3  1  0
  3  4  1  0
  4 12  1  0
  5  4  2  0
  7  6  2  0
  7  1  1  0
  8  7  1  0
  9 10  1  0
  9  8  2  0
 10 11  2  0
 11  6  1  0
 12 16  1  0
 13 12  2  0
 13 14  1  0
 14 15  1  0
 15 17  1  0
 16 15  2  0
 19 18  1  0
 20 19  1  0
 21 20  1  0
 22 17  1  0
 22 21  1  0
 22 18  1  0
  2 23  1  0
  6 24  1  0
  8 25  1  0
 10 26  1  0
 18 27  1  0
 19 28  1  0
 19 29  1  0
 20 30  1  0
 20 31  1  0
 21 32  1  0
 21 33  1  0
 22 34  1  6
M  ISO  8  23  14  24  14  25  14  26  14  27   5  28  13  29  13  30  13
M  ISO  4  31  13  32  13  33  13  34  13
M  END
>  <minimizedAffinity>  (1) 
-5.25188875

>  <minimizedRMSD>  (1) 
3.22934961

$$$$
