
     RDKit          3D

 38 41  0  0  0  0  0  0  0  0999 V2000
   37.6230   30.7780   41.1230 C   0  0  0  0  0  0  0  0  0  0  0  0
   36.3990   30.1520   40.7940 C   0  0  0  0  0  0  0  0  0  0  0  0
   36.5610   28.4840   41.5500 S   0  0  0  0  0  0  0  0  0  0  0  0
   38.2760   28.9130   42.1940 C   0  0  0  0  0  0  0  0  0  0  0  0
   38.3470   29.9510   41.8050 N   0  0  0  0  0  0  0  0  0  0  0  0
   39.0420   32.8030   41.1320 C   0  0  0  0  0  0  0  0  0  0  0  0
   37.8910   32.1510   40.6940 C   0  0  0  0  0  0  0  0  0  0  0  0
   37.0040   32.8210   39.8430 C   0  0  0  0  0  0  0  0  0  0  0  0
   37.3210   34.0990   39.4860 N   0  0  0  0  0  0  0  0  0  0  0  0
   38.4510   34.6990   39.9360 C   0  0  0  0  0  0  0  0  0  0  0  0
   39.2920   34.0530   40.7450 N   0  0  0  0  0  0  0  0  0  0  0  0
   39.1280   28.0000   42.9730 C   0  0  0  0  0  0  0  0  0  0  0  0
   38.6240   26.9220   43.5850 N   0  0  0  0  0  0  0  0  0  0  0  0
   39.5780   26.2830   44.2050 O   0  0  0  0  0  0  0  0  0  0  0  0
   40.7020   26.9780   43.9720 C   0  0  0  0  0  0  0  0  0  0  0  0
   40.4590   28.0680   43.1990 N   0  0  0  0  0  0  0  0  0  0  0  0
   42.3910   26.6620   44.5280 S   0  0  0  0  0  0  0  0  0  0  0  0
   43.2660   25.6340   43.3100 C   0  0  0  0  0  0  0  0  0  0  0  0
   42.3430   25.2510   42.2000 C   0  0  0  0  0  0  0  0  0  0  0  0
   42.7880   25.7610   40.8700 C   0  0  0  0  0  0  0  0  0  0  0  0
   44.2080   25.3600   40.5410 C   0  0  0  0  0  0  0  0  0  0  0  0
   45.1450   25.6740   41.6660 C   0  0  0  0  0  0  0  0  0  0  0  0
   44.4450   26.4080   42.7960 C   0  0  0  0  0  0  0  0  0  0  0  0
   35.5535   30.5636   40.2233 H   0  0  0  0  0  0  0  0  0  0  0  0
   39.7461   32.2841   41.7991 H   0  0  0  0  0  0  0  0  0  0  0  0
   36.0873   32.3360   39.4765 H   0  0  0  0  0  0  0  0  0  0  0  0
   38.6767   35.7312   39.6300 H   0  0  0  0  0  0  0  0  0  0  0  0
   43.6199   24.7040   43.7789 H   0  0  0  0  0  0  0  0  0  0  0  0
   42.2868   24.1534   42.1537 H   0  0  0  0  0  0  0  0  0  0  0  0
   41.3637   25.7034   42.4152 H   0  0  0  0  0  0  0  0  0  0  0  0
   42.1191   25.3572   40.0957 H   0  0  0  0  0  0  0  0  0  0  0  0
   42.7507   26.8598   40.9042 H   0  0  0  0  0  0  0  0  0  0  0  0
   44.2368   24.2782   40.3441 H   0  0  0  0  0  0  0  0  0  0  0  0
   44.5298   25.9294   39.6566 H   0  0  0  0  0  0  0  0  0  0  0  0
   45.5604   24.7332   42.0563 H   0  0  0  0  0  0  0  0  0  0  0  0
   45.9403   26.3263   41.2761 H   0  0  0  0  0  0  0  0  0  0  0  0
   45.1587   26.5601   43.6191 H   0  0  0  0  0  0  0  0  0  0  0  0
   44.0820   27.3712   42.4082 H   0  0  0  0  0  0  0  0  0  0  0  0
  1  5  1  0
  2  1  2  0
  2  3  1  0
  3  4  1  0
  4 12  1  0
  5  4  2  0
  7  1  1  0
  7  6  2  0
  8  7  1  0
  9  8  2  0
  9 10  1  0
 10 11  2  0
 11  6  1  0
 12 16  1  0
 12 13  2  0
 13 14  1  0
 15 14  1  0
 15 17  1  0
 16 15  2  0
 18 17  1  0
 19 18  1  0
 20 19  1  0
 21 20  1  0
 21 22  1  0
 22 23  1  0
 23 18  1  0
  2 24  1  0
  6 25  1  0
  8 26  1  0
 10 27  1  0
 18 28  1  0
 19 29  1  0
 19 30  1  0
 20 31  1  0
 20 32  1  0
 21 33  1  0
 21 34  1  0
 22 35  1  0
 22 36  1  0
 23 37  1  0
 23 38  1  0
M  ISO  8  24  14  25  14  26  14  27  14  28  13  29  13  30  13  31  13
M  ISO  7  32  13  33  13  34  13  35  13  36  13  37  13  38  13
M  END
>  <minimizedAffinity>  (1) 
-4.94201612

>  <minimizedRMSD>  (1) 
0.351075023

$$$$
