
     RDKit          3D

 25 27  0  0  0  0  0  0  0  0999 V2000
   37.7030   30.5990   41.2490 C   0  0  0  0  0  0  0  0  0  0  0  0
   36.4490   29.9770   41.0300 C   0  0  0  0  0  0  0  0  0  0  0  0
   36.6530   28.3110   41.7890 S   0  0  0  0  0  0  0  0  0  0  0  0
   38.4260   28.7390   42.2830 C   0  0  0  0  0  0  0  0  0  0  0  0
   38.4780   29.7750   41.8780 N   0  0  0  0  0  0  0  0  0  0  0  0
   39.0990   32.6360   41.1750 C   0  0  0  0  0  0  0  0  0  0  0  0
   37.9450   31.9620   40.7840 C   0  0  0  0  0  0  0  0  0  0  0  0
   37.0360   32.6130   39.9450 C   0  0  0  0  0  0  0  0  0  0  0  0
   37.3370   33.8790   39.5580 N   0  0  0  0  0  0  0  0  0  0  0  0
   38.4690   34.5100   39.9560 C   0  0  0  0  0  0  0  0  0  0  0  0
   39.3300   33.8830   40.7550 N   0  0  0  0  0  0  0  0  0  0  0  0
   39.3400   27.8310   43.0000 C   0  0  0  0  0  0  0  0  0  0  0  0
   38.8880   26.6890   43.5560 N   0  0  0  0  0  0  0  0  0  0  0  0
   39.8970   26.0740   44.1250 O   0  0  0  0  0  0  0  0  0  0  0  0
   40.9740   26.8330   43.9220 C   0  0  0  0  0  0  0  0  0  0  0  0
   40.6740   27.9590   43.2120 N   0  0  0  0  0  0  0  0  0  0  0  0
   42.6750   26.5740   44.4360 S   0  0  0  0  0  0  0  0  0  0  0  0
   42.9820   27.3310   46.0550 C   0  0  0  0  0  0  0  0  0  0  0  0
   35.5632   30.3910   40.5260 H   0  0  0  0  0  0  0  0  0  0  0  0
   39.8254   32.1383   41.8342 H   0  0  0  0  0  0  0  0  0  0  0  0
   36.1120   32.1183   39.6111 H   0  0  0  0  0  0  0  0  0  0  0  0
   38.6755   35.5368   39.6199 H   0  0  0  0  0  0  0  0  0  0  0  0
   42.6961   26.6260   46.8495 H   0  0  0  0  0  0  0  0  0  0  0  0
   44.0504   27.5755   46.1488 H   0  0  0  0  0  0  0  0  0  0  0  0
   42.3858   28.2506   46.1488 H   0  0  0  0  0  0  0  0  0  0  0  0
  1  5  1  0
  2  1  2  0
  2  3  1  0
  3  4  1  0
  4 12  1  0
  5  4  2  0
  7  6  2  0
  7  1  1  0
  8  7  1  0
  9  8  2  0
  9 10  1  0
 10 11  2  0
 11  6  1  0
 12 16  1  0
 12 13  2  0
 13 14  1  0
 15 14  1  0
 15 17  1  0
 16 15  2  0
 17 18  1  0
  2 19  1  0
  6 20  1  0
  8 21  1  0
 10 22  1  0
 18 23  1  0
 18 24  1  0
 18 25  1  0
M  ISO  7  19  14  20  14  21  14  22  14  23   8  24   8  25   8
M  END
>  <minimizedAffinity>  (1) 
-4.71521473

>  <minimizedRMSD>  (1) 
0.567340136

$$$$
