
     RDKit          3D

 34 36  0  0  0  0  0  0  0  0999 V2000
   37.6340   30.6520   41.1840 C   0  0  0  0  0  0  0  0  0  0  0  0
   36.3730   30.0270   40.9220 C   0  0  0  0  0  0  0  0  0  0  0  0
   36.5660   28.3550   41.6770 S   0  0  0  0  0  0  0  0  0  0  0  0
   38.3220   28.7880   42.2210 C   0  0  0  0  0  0  0  0  0  0  0  0
   38.4100   29.8350   41.8330 N   0  0  0  0  0  0  0  0  0  0  0  0
   39.0160   32.6970   41.1420 C   0  0  0  0  0  0  0  0  0  0  0  0
   37.8870   32.0200   40.7340 C   0  0  0  0  0  0  0  0  0  0  0  0
   36.9860   32.6630   39.8810 C   0  0  0  0  0  0  0  0  0  0  0  0
   37.2850   33.9330   39.5030 N   0  0  0  0  0  0  0  0  0  0  0  0
   38.4160   34.5670   39.9320 C   0  0  0  0  0  0  0  0  0  0  0  0
   39.2570   33.9440   40.7380 N   0  0  0  0  0  0  0  0  0  0  0  0
   39.2260   27.8730   42.9610 C   0  0  0  0  0  0  0  0  0  0  0  0
   38.7850   26.6840   43.4220 N   0  0  0  0  0  0  0  0  0  0  0  0
   39.7650   26.0840   44.0270 O   0  0  0  0  0  0  0  0  0  0  0  0
   40.8230   26.8970   43.9490 C   0  0  0  0  0  0  0  0  0  0  0  0
   40.5320   28.0470   43.2800 N   0  0  0  0  0  0  0  0  0  0  0  0
   42.4980   26.6710   44.5840 S   0  0  0  0  0  0  0  0  0  0  0  0
   43.5700   26.3330   43.1440 C   0  0  0  0  0  0  0  0  0  0  0  0
   44.6990   25.4170   43.5590 C   0  0  0  0  0  0  0  0  0  0  0  0
   42.7860   25.5850   42.0820 C   0  0  0  0  0  0  0  0  0  0  0  0
   44.0630   27.6560   42.6100 C   0  0  0  0  0  0  0  0  0  0  0  0
   35.5002   30.4431   40.3974 H   0  0  0  0  0  0  0  0  0  0  0  0
   39.7312   32.1991   41.8133 H   0  0  0  0  0  0  0  0  0  0  0  0
   36.0721   32.1613   39.5301 H   0  0  0  0  0  0  0  0  0  0  0  0
   38.6266   35.5964   39.6064 H   0  0  0  0  0  0  0  0  0  0  0  0
   44.7517   25.3742   44.6569 H   0  0  0  0  0  0  0  0  0  0  0  0
   44.5175   24.4077   43.1610 H   0  0  0  0  0  0  0  0  0  0  0  0
   45.6492   25.8026   43.1610 H   0  0  0  0  0  0  0  0  0  0  0  0
   42.0713   24.9031   42.5660 H   0  0  0  0  0  0  0  0  0  0  0  0
   42.2392   26.3046   41.4550 H   0  0  0  0  0  0  0  0  0  0  0  0
   43.4791   25.0050   41.4550 H   0  0  0  0  0  0  0  0  0  0  0  0
   44.3109   28.3212   43.4503 H   0  0  0  0  0  0  0  0  0  0  0  0
   44.9603   27.4919   41.9953 H   0  0  0  0  0  0  0  0  0  0  0  0
   43.2771   28.1191   41.9953 H   0  0  0  0  0  0  0  0  0  0  0  0
  1  5  1  0
  2  1  2  0
  2  3  1  0
  3  4  1  0
  4 12  1  0
  5  4  2  0
  7  6  2  0
  7  1  1  0
  8  7  1  0
  9  8  2  0
  9 10  1  0
 10 11  2  0
 11  6  1  0
 12 16  1  0
 12 13  2  0
 13 14  1  0
 15 14  1  0
 15 17  1  0
 16 15  2  0
 18 19  1  0
 18 17  1  0
 20 18  1  0
 21 18  1  0
  2 22  1  0
  6 23  1  0
  8 24  1  0
 10 25  1  0
 19 26  1  0
 19 27  1  0
 19 28  1  0
 20 29  1  0
 20 30  1  0
 20 31  1  0
 21 32  1  0
 21 33  1  0
 21 34  1  0
M  ISO  8  22  14  23  14  24  14  25  14  26   8  27   8  28   8  29   8
M  ISO  5  30   8  31   8  32   8  33   8  34   8
M  END
>  <minimizedAffinity>  (1) 
-4.69633865

>  <minimizedRMSD>  (1) 
0.497136056

$$$$
