
     RDKit          3D

 40 45  0  0  1  0  0  0  0  0999 V2000
   39.2460   27.8380   42.9700 C   0  0  0  0  0  0  0  0  0  0  0  0
   38.8330   26.6070   43.3240 N   0  0  0  0  0  0  0  0  0  0  0  0
   39.7940   26.0110   43.9700 O   0  0  0  0  0  0  0  0  0  0  0  0
   40.8140   26.8850   44.0180 C   0  0  0  0  0  0  0  0  0  0  0  0
   40.5080   28.0520   43.3970 N   0  0  0  0  0  0  0  0  0  0  0  0
   37.6840   30.6230   41.1610 C   0  0  0  0  0  0  0  0  0  0  0  0
   36.4710   29.9870   40.8680 C   0  0  0  0  0  0  0  0  0  0  0  0
   36.6080   28.3100   41.6010 S   0  0  0  0  0  0  0  0  0  0  0  0
   38.3590   28.7430   42.2170 C   0  0  0  0  0  0  0  0  0  0  0  0
   38.4240   29.7980   41.8250 N   0  0  0  0  0  0  0  0  0  0  0  0
   39.0840   32.6500   41.1430 C   0  0  0  0  0  0  0  0  0  0  0  0
   37.9400   31.9930   40.7330 C   0  0  0  0  0  0  0  0  0  0  0  0
   37.0230   32.6610   39.8990 C   0  0  0  0  0  0  0  0  0  0  0  0
   37.3250   33.9300   39.5420 N   0  0  0  0  0  0  0  0  0  0  0  0
   38.4680   34.5500   39.9680 C   0  0  0  0  0  0  0  0  0  0  0  0
   39.3360   33.9030   40.7640 N   0  0  0  0  0  0  0  0  0  0  0  0
   42.4480   26.7000   44.7660 S   0  0  0  0  0  0  0  0  0  0  0  0
   43.6400   27.0750   43.4380 C   0  0  2  0  0  0  0  0  0  0  0  0
   45.0890   27.1040   43.7120 C   0  0  0  0  0  0  0  0  0  0  0  0
   44.2760   28.3810   43.3230 C   0  0  2  0  0  0  0  0  0  0  0  0
   44.2120   29.4030   44.3160 N   0  0  0  0  0  0  0  0  0  0  0  0
   43.6530   30.6380   44.1550 C   0  0  0  0  0  0  0  0  0  0  0  0
   43.7780   31.3370   45.3060 N   0  0  0  0  0  0  0  0  0  0  0  0
   44.4060   30.5650   46.1970 C   0  0  0  0  0  0  0  0  0  0  0  0
   44.7730   30.8180   47.5230 C   0  0  0  0  0  0  0  0  0  0  0  0
   45.4170   29.8360   48.2130 N   0  0  0  0  0  0  0  0  0  0  0  0
   45.6720   28.6600   47.5830 C   0  0  0  0  0  0  0  0  0  0  0  0
   45.3060   28.4480   46.3100 N   0  0  0  0  0  0  0  0  0  0  0  0
   44.6780   29.3480   45.5680 C   0  0  0  0  0  0  0  0  0  0  0  0
   35.6165   30.4045   40.3152 H   0  0  0  0  0  0  0  0  0  0  0  0
   39.8008   32.1291   41.7948 H   0  0  0  0  0  0  0  0  0  0  0  0
   36.1007   32.1717   39.5527 H   0  0  0  0  0  0  0  0  0  0  0  0
   38.6775   35.5841   39.6570 H   0  0  0  0  0  0  0  0  0  0  0  0
   43.0104   26.4906   42.7509 H   0  0  0  0  0  0  0  0  0  0  0  0
   45.4652   26.9735   44.7374 H   0  0  0  0  0  0  0  0  0  0  0  0
   45.9795   26.5832   43.3302 H   0  0  0  0  0  0  0  0  0  0  0  0
   44.2461   29.1480   42.5351 H   0  0  0  0  0  0  0  0  0  0  0  0
   43.1763   31.0063   43.2346 H   0  0  0  0  0  0  0  0  0  0  0  0
   44.5473   31.7850   47.9962 H   0  0  0  0  0  0  0  0  0  0  0  0
   46.1922   27.8606   48.1310 H   0  0  0  0  0  0  0  0  0  0  0  0
  1  2  2  0
  1  5  1  0
  2  3  1  0
  3  4  1  0
  4 17  1  0
  5  4  2  0
  6 10  1  0
  7  6  2  0
  7  8  1  0
  8  9  1  0
  9  1  1  0
 10  9  2  0
 12 11  2  0
 12  6  1  0
 13 12  1  0
 14 13  2  0
 14 15  1  0
 15 16  2  0
 16 11  1  0
 18 19  1  0
 18 17  1  0
 20 18  1  0
 20 19  1  0
 20 21  1  0
 21 29  1  0
 22 21  1  0
 22 23  2  0
 23 24  1  0
 24 25  2  0
 25 26  1  0
 27 26  2  0
 28 27  1  0
 29 24  1  0
 29 28  2  0
  7 30  1  0
 11 31  1  0
 13 32  1  0
 15 33  1  0
 18 34  1  6
 19 35  1  0
 19 36  1  0
 20 37  1  6
 22 38  1  0
 25 39  1  0
 27 40  1  0
M  ISO  8  30  14  31  14  32  14  33  14  34  13  35  13  36  13  37  13
M  ISO  3  38  14  39  14  40  14
M  END
>  <minimizedAffinity>  (1) 
-5.78823233

>  <minimizedRMSD>  (1) 
2.60647607

$$$$
