
     RDKit          3D

 38 41  0  0  1  0  0  0  0  0999 V2000
   39.4140   27.8040   43.0760 C   0  0  0  0  0  0  0  0  0  0  0  0
   39.0200   26.5760   43.4830 N   0  0  0  0  0  0  0  0  0  0  0  0
   40.0110   26.0000   44.0990 O   0  0  0  0  0  0  0  0  0  0  0  0
   41.0290   26.8730   44.0770 C   0  0  0  0  0  0  0  0  0  0  0  0
   40.6910   28.0250   43.4400 N   0  0  0  0  0  0  0  0  0  0  0  0
   37.7520   30.5250   41.2920 C   0  0  0  0  0  0  0  0  0  0  0  0
   36.4950   29.8950   41.0690 C   0  0  0  0  0  0  0  0  0  0  0  0
   36.7160   28.2300   41.8520 S   0  0  0  0  0  0  0  0  0  0  0  0
   38.4810   28.6850   42.3450 C   0  0  0  0  0  0  0  0  0  0  0  0
   38.5240   29.7200   41.9290 N   0  0  0  0  0  0  0  0  0  0  0  0
   39.1130   32.5790   41.1780 C   0  0  0  0  0  0  0  0  0  0  0  0
   37.9950   31.8860   40.8190 C   0  0  0  0  0  0  0  0  0  0  0  0
   37.0350   32.5090   39.9630 C   0  0  0  0  0  0  0  0  0  0  0  0
   37.3110   33.7810   39.5550 N   0  0  0  0  0  0  0  0  0  0  0  0
   38.4510   34.4250   39.9490 C   0  0  0  0  0  0  0  0  0  0  0  0
   39.3190   33.8200   40.7410 N   0  0  0  0  0  0  0  0  0  0  0  0
   42.7000   26.7140   44.7540 S   0  0  0  0  0  0  0  0  0  0  0  0
   43.3490   28.4100   44.8340 C   0  0  2  0  0  0  0  0  0  0  0  0
   44.8030   28.6410   44.9550 C   0  0  0  0  0  0  0  0  0  0  0  0
   43.8060   28.9380   46.1190 C   0  0  2  0  0  0  0  0  0  0  0  0
   44.0150   28.0330   47.3080 C   0  0  0  0  0  0  0  0  0  0  0  0
   42.8050   28.1480   48.2090 C   0  0  0  0  0  0  0  0  0  0  0  0
   45.2310   28.3780   48.1080 C   0  0  0  0  0  0  0  0  0  0  0  0
   35.6089   30.2981   40.5569 H   0  0  0  0  0  0  0  0  0  0  0  0
   39.8553   32.1063   41.8379 H   0  0  0  0  0  0  0  0  0  0  0  0
   36.1185   31.9883   39.6486 H   0  0  0  0  0  0  0  0  0  0  0  0
   38.6466   35.4514   39.6052 H   0  0  0  0  0  0  0  0  0  0  0  0
   42.5983   28.7421   44.1018 H   0  0  0  0  0  0  0  0  0  0  0  0
   45.4983   27.7912   45.0205 H   0  0  0  0  0  0  0  0  0  0  0  0
   45.5641   29.2085   44.3994 H   0  0  0  0  0  0  0  0  0  0  0  0
   43.4645   29.7840   46.7336 H   0  0  0  0  0  0  0  0  0  0  0  0
   44.1562   27.0124   46.9227 H   0  0  0  0  0  0  0  0  0  0  0  0
   43.1266   28.1174   49.2605 H   0  0  0  0  0  0  0  0  0  0  0  0
   42.2893   29.0992   48.0108 H   0  0  0  0  0  0  0  0  0  0  0  0
   42.1194   27.3110   48.0108 H   0  0  0  0  0  0  0  0  0  0  0  0
   44.9955   28.3112   49.1804 H   0  0  0  0  0  0  0  0  0  0  0  0
   46.0410   27.6742   47.8659 H   0  0  0  0  0  0  0  0  0  0  0  0
   45.5507   29.4023   47.8659 H   0  0  0  0  0  0  0  0  0  0  0  0
  1  5  1  0
  1  2  2  0
  2  3  1  0
  4  3  1  0
  4 17  1  0
  5  4  2  0
  6 10  1  0
  7  6  2  0
  7  8  1  0
  8  9  1  0
  9  1  1  0
 10  9  2  0
 12 11  2  0
 12  6  1  0
 13 12  1  0
 14 15  1  0
 14 13  2  0
 15 16  2  0
 16 11  1  0
 17 18  1  0
 18 19  1  0
 18 20  1  0
 19 20  1  0
 20 21  1  0
 21 23  1  0
 21 22  1  0
  7 24  1  0
 11 25  1  0
 13 26  1  0
 15 27  1  0
 18 28  1  6
 19 29  1  0
 19 30  1  0
 20 31  1  1
 21 32  1  0
 22 33  1  0
 22 34  1  0
 22 35  1  0
 23 36  1  0
 23 37  1  0
 23 38  1  0
M  ISO  8  24  14  25  14  26  14  27  14  28  13  29  13  30  13  31  13
M  ISO  7  32   8  33   8  34   8  35   8  36   8  37   8  38   8
M  END
>  <minimizedAffinity>  (1) 
-5.47840023

>  <minimizedRMSD>  (1) 
2.64930296

$$$$
