
     RDKit          3D

 35 38  0  0  1  0  0  0  0  0999 V2000
   39.5610   27.7110   43.0810 C   0  0  0  0  0  0  0  0  0  0  0  0
   39.1630   26.5180   43.5780 N   0  0  0  0  0  0  0  0  0  0  0  0
   40.1860   25.9290   44.1240 O   0  0  0  0  0  0  0  0  0  0  0  0
   41.2260   26.7540   43.9680 C   0  0  0  0  0  0  0  0  0  0  0  0
   40.8710   27.8940   43.3110 N   0  0  0  0  0  0  0  0  0  0  0  0
   37.8140   30.4420   41.3720 C   0  0  0  0  0  0  0  0  0  0  0  0
   36.5620   29.8160   41.2440 C   0  0  0  0  0  0  0  0  0  0  0  0
   36.7850   28.1680   42.0150 S   0  0  0  0  0  0  0  0  0  0  0  0
   38.6030   28.5970   42.4030 C   0  0  0  0  0  0  0  0  0  0  0  0
   38.6230   29.6280   41.9720 N   0  0  0  0  0  0  0  0  0  0  0  0
   39.2020   32.4860   41.1910 C   0  0  0  0  0  0  0  0  0  0  0  0
   38.0510   31.7930   40.8740 C   0  0  0  0  0  0  0  0  0  0  0  0
   37.0710   32.4040   40.0410 C   0  0  0  0  0  0  0  0  0  0  0  0
   37.3480   33.6620   39.6080 N   0  0  0  0  0  0  0  0  0  0  0  0
   38.5010   34.3080   39.9480 C   0  0  0  0  0  0  0  0  0  0  0  0
   39.3970   33.7190   40.7240 N   0  0  0  0  0  0  0  0  0  0  0  0
   42.9480   26.5560   44.4890 S   0  0  0  0  0  0  0  0  0  0  0  0
   43.5190   28.2420   44.9110 C   0  0  2  0  0  0  0  0  0  0  0  0
   44.8350   28.4220   45.5620 C   0  0  0  0  0  0  0  0  0  0  0  0
   43.4920   28.6830   46.3180 C   0  0  2  0  0  0  0  0  0  0  0  0
   43.1800   27.6500   47.3910 C   0  0  0  0  0  0  0  0  0  0  0  0
   42.6270   28.2910   48.6340 C   0  0  0  0  0  0  0  0  0  0  0  0
   35.6505   30.2245   40.7833 H   0  0  0  0  0  0  0  0  0  0  0  0
   39.9628   32.0178   41.8329 H   0  0  0  0  0  0  0  0  0  0  0  0
   36.1410   31.8863   39.7633 H   0  0  0  0  0  0  0  0  0  0  0  0
   38.6871   35.3257   39.5744 H   0  0  0  0  0  0  0  0  0  0  0  0
   43.0747   28.6399   43.9867 H   0  0  0  0  0  0  0  0  0  0  0  0
   45.4542   27.5486   45.8145 H   0  0  0  0  0  0  0  0  0  0  0  0
   45.7480   28.9984   45.3518 H   0  0  0  0  0  0  0  0  0  0  0  0
   43.0042   29.5134   46.8494 H   0  0  0  0  0  0  0  0  0  0  0  0
   42.4394   26.9386   46.9967 H   0  0  0  0  0  0  0  0  0  0  0  0
   44.1161   27.1368   47.6564 H   0  0  0  0  0  0  0  0  0  0  0  0
   43.0521   27.7983   49.5208 H   0  0  0  0  0  0  0  0  0  0  0  0
   42.8923   29.3585   48.6452 H   0  0  0  0  0  0  0  0  0  0  0  0
   41.5322   28.1851   48.6452 H   0  0  0  0  0  0  0  0  0  0  0  0
  1  5  1  0
  1  2  2  0
  2  3  1  0
  4  3  1  0
  4 17  1  0
  5  4  2  0
  6 10  1  0
  7  6  2  0
  7  8  1  0
  8  9  1  0
  9  1  1  0
 10  9  2  0
 12 11  2  0
 12  6  1  0
 13 12  1  0
 14 15  1  0
 14 13  2  0
 15 16  2  0
 16 11  1  0
 17 18  1  0
 18 19  1  0
 18 20  1  0
 19 20  1  0
 20 21  1  0
 21 22  1  0
  7 23  1  0
 11 24  1  0
 13 25  1  0
 15 26  1  0
 18 27  1  6
 19 28  1  0
 19 29  1  0
 20 30  1  6
 21 31  1  0
 21 32  1  0
 22 33  1  0
 22 34  1  0
 22 35  1  0
M  ISO  8  23  14  24  14  25  14  26  14  27  13  28  13  29  13  30  13
M  ISO  5  31   8  32   8  33   8  34   8  35   8
M  END
>  <minimizedAffinity>  (1) 
-5.43029928

>  <minimizedRMSD>  (1) 
2.2415297

$$$$
