
     RDKit          3D

 36 40  0  0  1  0  0  0  0  0999 V2000
   39.6070   27.7200   43.1190 C   0  0  0  0  0  0  0  0  0  0  0  0
   39.3000   26.4520   43.4650 N   0  0  0  0  0  0  0  0  0  0  0  0
   40.3050   25.9330   44.1110 O   0  0  0  0  0  0  0  0  0  0  0  0
   41.2460   26.8810   44.1720 C   0  0  0  0  0  0  0  0  0  0  0  0
   40.8420   28.0250   43.5560 N   0  0  0  0  0  0  0  0  0  0  0  0
   37.8460   30.3630   41.3040 C   0  0  0  0  0  0  0  0  0  0  0  0
   36.6310   29.6650   41.0560 C   0  0  0  0  0  0  0  0  0  0  0  0
   36.9200   28.0090   41.8420 S   0  0  0  0  0  0  0  0  0  0  0  0
   38.6470   28.5570   42.3700 C   0  0  0  0  0  0  0  0  0  0  0  0
   38.6400   29.5930   41.9540 N   0  0  0  0  0  0  0  0  0  0  0  0
   39.1310   32.4600   41.1770 C   0  0  0  0  0  0  0  0  0  0  0  0
   38.0300   31.7300   40.8370 C   0  0  0  0  0  0  0  0  0  0  0  0
   37.0380   32.3260   40.0050 C   0  0  0  0  0  0  0  0  0  0  0  0
   37.2520   33.6060   39.5930 N   0  0  0  0  0  0  0  0  0  0  0  0
   38.3910   34.2860   39.9760 C   0  0  0  0  0  0  0  0  0  0  0  0
   39.3000   33.7140   40.7500 N   0  0  0  0  0  0  0  0  0  0  0  0
   42.8930   26.8380   44.9250 S   0  0  0  0  0  0  0  0  0  0  0  0
   43.7960   28.2330   44.1860 C   0  0  2  0  0  0  0  0  0  0  0  0
   45.2810   28.1860   44.1090 C   0  0  0  0  0  0  0  0  0  0  0  0
   44.5390   29.1890   45.0310 C   0  0  2  0  0  0  0  0  0  0  0  0
   44.6320   28.9440   46.5080 C   0  0  0  0  0  0  0  0  0  0  0  0
   45.6080   28.3050   47.2470 C   0  0  0  0  0  0  0  0  0  0  0  0
   45.2540   28.3280   48.5830 C   0  0  0  0  0  0  0  0  0  0  0  0
   44.0670   28.9810   48.6210 N   0  0  0  0  0  0  0  0  0  0  0  0
   43.6980   29.3420   47.4180 N   0  0  0  0  0  0  0  0  0  0  0  0
   35.7356   30.0214   40.5258 H   0  0  0  0  0  0  0  0  0  0  0  0
   39.8991   32.0042   41.8191 H   0  0  0  0  0  0  0  0  0  0  0  0
   36.1347   31.7734   39.7073 H   0  0  0  0  0  0  0  0  0  0  0  0
   38.5456   35.3195   39.6325 H   0  0  0  0  0  0  0  0  0  0  0  0
   42.9923   28.3539   43.4447 H   0  0  0  0  0  0  0  0  0  0  0  0
   45.8328   27.3382   44.5412 H   0  0  0  0  0  0  0  0  0  0  0  0
   46.0321   28.2573   43.3085 H   0  0  0  0  0  0  0  0  0  0  0  0
   44.5112   30.2802   45.1673 H   0  0  0  0  0  0  0  0  0  0  0  0
   46.5219   27.8500   46.8375 H   0  0  0  0  0  0  0  0  0  0  0  0
   45.8141   27.9076   49.4312 H   0  0  0  0  0  0  0  0  0  0  0  0
   43.5288   29.1677   49.4791 H   0  0  0  0  0  0  0  0  0  0  0  0
  1  2  2  0
  1  5  1  0
  2  3  1  0
  3  4  1  0
  4 17  1  0
  5  4  2  0
  6 10  1  0
  7  6  2  0
  7  8  1  0
  8  9  1  0
  9  1  1  0
 10  9  2  0
 12 11  2  0
 12  6  1  0
 13 12  1  0
 14 15  1  0
 14 13  2  0
 15 16  2  0
 16 11  1  0
 18 17  1  0
 18 20  1  0
 19 18  1  0
 19 20  1  0
 20 21  1  0
 21 22  1  0
 21 25  2  0
 22 23  2  0
 23 24  1  0
 25 24  1  0
  7 26  1  0
 11 27  1  0
 13 28  1  0
 15 29  1  0
 18 30  1  6
 19 31  1  0
 19 32  1  0
 20 33  1  1
 22 34  1  0
 23 35  1  0
 24 36  1  0
M  ISO  8  26  14  27  14  28  14  29  14  30  13  31  13  32  13  33  13
M  ISO  3  34  14  35  14  36   9
M  END
>  <minimizedAffinity>  (1) 
-5.23858023

>  <minimizedRMSD>  (1) 
3.03176498

$$$$
