
     RDKit          3D

 40 44  0  0  1  0  0  0  0  0999 V2000
   39.2430   27.8550   42.9760 C   0  0  0  0  0  0  0  0  0  0  0  0
   38.7970   26.6470   43.4150 N   0  0  0  0  0  0  0  0  0  0  0  0
   39.7680   26.0450   44.0320 O   0  0  0  0  0  0  0  0  0  0  0  0
   40.8140   26.8670   43.9800 C   0  0  0  0  0  0  0  0  0  0  0  0
   40.5360   28.0330   43.3200 N   0  0  0  0  0  0  0  0  0  0  0  0
   37.6570   30.6250   41.1970 C   0  0  0  0  0  0  0  0  0  0  0  0
   36.4030   30.0030   40.9300 C   0  0  0  0  0  0  0  0  0  0  0  0
   36.5780   28.3280   41.6810 S   0  0  0  0  0  0  0  0  0  0  0  0
   38.3340   28.7560   42.2350 C   0  0  0  0  0  0  0  0  0  0  0  0
   38.4020   29.8020   41.8390 N   0  0  0  0  0  0  0  0  0  0  0  0
   39.0520   32.6620   41.1540 C   0  0  0  0  0  0  0  0  0  0  0  0
   37.9150   31.9980   40.7480 C   0  0  0  0  0  0  0  0  0  0  0  0
   37.0000   32.6460   39.8980 C   0  0  0  0  0  0  0  0  0  0  0  0
   37.3030   33.9180   39.5210 N   0  0  0  0  0  0  0  0  0  0  0  0
   38.4480   34.5390   39.9500 C   0  0  0  0  0  0  0  0  0  0  0  0
   39.2910   33.9020   40.7520 N   0  0  0  0  0  0  0  0  0  0  0  0
   42.4860   26.6530   44.6420 S   0  0  0  0  0  0  0  0  0  0  0  0
   43.4060   25.7690   43.3340 C   0  0  2  0  0  0  0  0  0  0  0  0
   44.6950   26.3350   42.8630 C   0  0  0  0  0  0  0  0  0  0  0  0
   43.4260   26.3130   41.9750 C   0  0  1  0  0  0  0  0  0  0  0  0
   43.4260   25.4940   40.7990 N   0  0  0  0  0  0  0  0  0  0  0  0
   44.4560   24.9680   40.1490 C   0  0  0  0  0  0  0  0  0  0  0  0
   44.3280   24.1920   39.0210 C   0  0  0  0  0  0  0  0  0  0  0  0
   43.0310   23.9710   38.5720 C   0  0  0  0  0  0  0  0  0  0  0  0
   42.8490   23.1700   37.4040 N   0  0  0  0  0  0  0  0  0  0  0  0
   41.9690   24.5030   39.2270 N   0  0  0  0  0  0  0  0  0  0  0  0
   42.1690   25.2560   40.3290 C   0  0  0  0  0  0  0  0  0  0  0  0
   41.1020   25.6850   40.8360 O   0  0  0  0  0  0  0  0  0  0  0  0
   35.5351   30.4231   40.4006 H   0  0  0  0  0  0  0  0  0  0  0  0
   39.7688   32.1576   41.8187 H   0  0  0  0  0  0  0  0  0  0  0  0
   36.0819   32.1473   39.5540 H   0  0  0  0  0  0  0  0  0  0  0  0
   38.6679   35.5677   39.6283 H   0  0  0  0  0  0  0  0  0  0  0  0
   43.1081   24.7956   43.7509 H   0  0  0  0  0  0  0  0  0  0  0  0
   45.0696   27.2838   43.2747 H   0  0  0  0  0  0  0  0  0  0  0  0
   45.7307   25.9759   42.7720 H   0  0  0  0  0  0  0  0  0  0  0  0
   42.7955   27.0400   41.4421 H   0  0  0  0  0  0  0  0  0  0  0  0
   45.4679   25.1633   40.5335 H   0  0  0  0  0  0  0  0  0  0  0  0
   45.2021   23.7701   38.5034 H   0  0  0  0  0  0  0  0  0  0  0  0
   41.9001   22.9883   37.0468 H   0  0  0  0  0  0  0  0  0  0  0  0
   43.6666   22.7739   36.9187 H   0  0  0  0  0  0  0  0  0  0  0  0
  1  5  1  0
  1  2  2  0
  2  3  1  0
  4  3  1  0
  4 17  1  0
  5  4  2  0
  6 10  1  0
  7  6  2  0
  7  8  1  0
  8  9  1  0
  9  1  1  0
 10  9  2  0
 12 11  2  0
 12  6  1  0
 13 12  1  0
 14 13  2  0
 14 15  1  0
 15 16  2  0
 16 11  1  0
 18 17  1  0
 19 18  1  0
 20 19  1  0
 20 18  1  0
 21 20  1  0
 22 21  1  0
 23 22  2  0
 24 23  1  0
 24 26  2  0
 25 24  1  0
 26 27  1  0
 27 21  1  0
 27 28  2  0
  7 29  1  0
 11 30  1  0
 13 31  1  0
 15 32  1  0
 18 33  1  6
 19 34  1  0
 19 35  1  0
 20 36  1  6
 22 37  1  0
 23 38  1  0
 25 39  1  0
 25 40  1  0
M  ISO  8  29  14  30  14  31  14  32  14  33  13  34  13  35  13  36  13
M  ISO  2  37  14  38  14
M  END
>  <minimizedAffinity>  (1) 
-5.05256319

>  <minimizedRMSD>  (1) 
0.479324549

$$$$
