
     RDKit          3D

 42 46  0  0  1  0  0  0  0  0999 V2000
   39.2020   27.8650   42.9510 C   0  0  0  0  0  0  0  0  0  0  0  0
   38.7680   26.6580   43.3730 N   0  0  0  0  0  0  0  0  0  0  0  0
   39.7390   26.0450   43.9840 O   0  0  0  0  0  0  0  0  0  0  0  0
   40.7900   26.8760   43.9440 C   0  0  0  0  0  0  0  0  0  0  0  0
   40.4910   28.0360   43.3010 N   0  0  0  0  0  0  0  0  0  0  0  0
   37.6090   30.6550   41.1830 C   0  0  0  0  0  0  0  0  0  0  0  0
   36.3700   30.0400   40.9420 C   0  0  0  0  0  0  0  0  0  0  0  0
   36.5270   28.3730   41.6840 S   0  0  0  0  0  0  0  0  0  0  0  0
   38.3080   28.7770   42.2250 C   0  0  0  0  0  0  0  0  0  0  0  0
   38.3710   29.8220   41.8250 N   0  0  0  0  0  0  0  0  0  0  0  0
   39.0180   32.6770   41.1410 C   0  0  0  0  0  0  0  0  0  0  0  0
   37.8770   32.0200   40.7320 C   0  0  0  0  0  0  0  0  0  0  0  0
   36.9660   32.6690   39.8750 C   0  0  0  0  0  0  0  0  0  0  0  0
   37.2930   33.9440   39.5010 N   0  0  0  0  0  0  0  0  0  0  0  0
   38.4490   34.5520   39.9420 C   0  0  0  0  0  0  0  0  0  0  0  0
   39.2960   33.9250   40.7500 N   0  0  0  0  0  0  0  0  0  0  0  0
   42.4600   26.6500   44.6080 S   0  0  0  0  0  0  0  0  0  0  0  0
   43.2600   25.5130   43.4210 C   0  0  2  0  0  0  0  0  0  0  0  0
   44.5310   25.8570   42.7680 C   0  0  0  0  0  0  0  0  0  0  0  0
   43.1930   25.6900   42.0020 C   0  0  2  0  0  0  0  0  0  0  0  0
   42.2540   29.2270   39.7560 C   0  0  0  0  0  0  0  0  0  0  0  0
   43.2970   29.2060   40.6430 C   0  0  0  0  0  0  0  0  0  0  0  0
   43.5780   28.0480   41.3560 C   0  0  0  0  0  0  0  0  0  0  0  0
   42.8650   26.8780   41.2360 C   0  0  0  0  0  0  0  0  0  0  0  0
   41.8240   26.9460   40.3290 C   0  0  0  0  0  0  0  0  0  0  0  0
   41.5300   28.0870   39.6130 C   0  0  0  0  0  0  0  0  0  0  0  0
   41.7770   30.5940   38.7920 S   0  0  0  0  0  0  0  0  0  0  0  0
   40.2870   30.5970   38.5310 O   0  0  0  0  0  0  0  0  0  0  0  0
   42.0910   31.9100   39.4430 O   0  0  0  0  0  0  0  0  0  0  0  0
   35.4984   30.4651   40.4227 H   0  0  0  0  0  0  0  0  0  0  0  0
   39.7211   32.1586   41.8095 H   0  0  0  0  0  0  0  0  0  0  0  0
   36.0449   32.1789   39.5267 H   0  0  0  0  0  0  0  0  0  0  0  0
   38.6746   35.5786   39.6176 H   0  0  0  0  0  0  0  0  0  0  0  0
   42.9412   24.6919   44.0799 H   0  0  0  0  0  0  0  0  0  0  0  0
   44.9777   26.8531   42.9031 H   0  0  0  0  0  0  0  0  0  0  0  0
   45.5415   25.4259   42.7121 H   0  0  0  0  0  0  0  0  0  0  0  0
   42.6650   25.0700   41.2626 H   0  0  0  0  0  0  0  0  0  0  0  0
   43.9120   30.1060   40.7907 H   0  0  0  0  0  0  0  0  0  0  0  0
   44.4229   28.0676   42.0601 H   0  0  0  0  0  0  0  0  0  0  0  0
   41.2036   26.0514   40.1718 H   0  0  0  0  0  0  0  0  0  0  0  0
   40.6865   28.0736   38.9071 H   0  0  0  0  0  0  0  0  0  0  0  0
   42.4916   30.4621   37.6306 H   0  0  0  0  0  0  0  0  0  0  0  0
  1  5  1  0
  1  2  2  0
  2  3  1  0
  4  3  1  0
  4 17  1  0
  5  4  2  0
  6 10  1  0
  7  6  2  0
  7  8  1  0
  8  9  1  0
  9  1  1  0
 10  9  2  0
 12 11  2  0
 12  6  1  0
 13 12  1  0
 14 13  2  0
 14 15  1  0
 15 16  2  0
 16 11  1  0
 18 17  1  0
 19 18  1  0
 20 19  1  0
 20 18  1  0
 21 22  2  0
 22 23  1  0
 24 23  2  0
 24 20  1  0
 25 24  1  0
 26 21  1  0
 26 25  2  0
 27 29  2  0
 27 21  1  0
 28 27  2  0
  7 30  1  0
 11 31  1  0
 13 32  1  0
 15 33  1  0
 18 34  1  6
 19 35  1  0
 19 36  1  0
 20 37  1  6
 22 38  1  0
 23 39  1  0
 25 40  1  0
 26 41  1  0
 27 42  1  0
M  ISO  8  30  14  31  14  32  14  33  14  34  13  35  13  36  13  37  13
M  ISO  5  38  14  39  14  40  14  41  14  42  11
M  END
>  <minimizedAffinity>  (1) 
-4.94358683

>  <minimizedRMSD>  (1) 
2.02087784

$$$$
