
     RDKit          3D

 36 40  0  0  1  0  0  0  0  0999 V2000
   39.2060   27.8790   42.9740 C   0  0  0  0  0  0  0  0  0  0  0  0
   38.7470   26.7040   43.4560 N   0  0  0  0  0  0  0  0  0  0  0  0
   39.7110   26.0950   44.0760 O   0  0  0  0  0  0  0  0  0  0  0  0
   40.7860   26.8950   43.9810 C   0  0  0  0  0  0  0  0  0  0  0  0
   40.5060   28.0350   43.2910 N   0  0  0  0  0  0  0  0  0  0  0  0
   37.6380   30.6610   41.1640 C   0  0  0  0  0  0  0  0  0  0  0  0
   36.4160   30.0290   40.8840 C   0  0  0  0  0  0  0  0  0  0  0  0
   36.5590   28.3530   41.6240 S   0  0  0  0  0  0  0  0  0  0  0  0
   38.3190   28.7830   42.2210 C   0  0  0  0  0  0  0  0  0  0  0  0
   38.3660   29.8260   41.8200 N   0  0  0  0  0  0  0  0  0  0  0  0
   39.0400   32.6880   41.1420 C   0  0  0  0  0  0  0  0  0  0  0  0
   37.9000   32.0240   40.7270 C   0  0  0  0  0  0  0  0  0  0  0  0
   36.9910   32.6810   39.8780 C   0  0  0  0  0  0  0  0  0  0  0  0
   37.2800   33.9500   39.5010 N   0  0  0  0  0  0  0  0  0  0  0  0
   38.4340   34.5750   39.9400 C   0  0  0  0  0  0  0  0  0  0  0  0
   39.2930   33.9360   40.7510 N   0  0  0  0  0  0  0  0  0  0  0  0
   42.4650   26.6670   44.6180 S   0  0  0  0  0  0  0  0  0  0  0  0
   43.2830   25.5620   43.4140 C   0  0  2  0  0  0  0  0  0  0  0  0
   44.7550   25.4640   43.3660 C   0  0  0  0  0  0  0  0  0  0  0  0
   43.9500   26.1490   42.2320 C   0  0  1  0  0  0  0  0  0  0  0  0
   43.8510   25.4810   40.9320 C   0  0  0  0  0  0  0  0  0  0  0  0
   42.7090   25.0670   40.2720 C   0  0  0  0  0  0  0  0  0  0  0  0
   43.2080   24.5040   39.0990 C   0  0  0  0  0  0  0  0  0  0  0  0
   44.5970   24.5960   39.0940 C   0  0  0  0  0  0  0  0  0  0  0  0
   44.9150   25.1900   40.2200 O   0  0  0  0  0  0  0  0  0  0  0  0
   35.5572   30.4473   40.3386 H   0  0  0  0  0  0  0  0  0  0  0  0
   39.7509   32.1761   41.8072 H   0  0  0  0  0  0  0  0  0  0  0  0
   36.0749   32.1806   39.5312 H   0  0  0  0  0  0  0  0  0  0  0  0
   38.6499   35.6055   39.6215 H   0  0  0  0  0  0  0  0  0  0  0  0
   42.4857   24.8169   43.5519 H   0  0  0  0  0  0  0  0  0  0  0  0
   45.3731   26.0658   44.0485 H   0  0  0  0  0  0  0  0  0  0  0  0
   45.4918   24.6495   43.4266 H   0  0  0  0  0  0  0  0  0  0  0  0
   43.9495   27.1341   41.7425 H   0  0  0  0  0  0  0  0  0  0  0  0
   41.6614   25.1595   40.5943 H   0  0  0  0  0  0  0  0  0  0  0  0
   42.5985   24.0561   38.3004 H   0  0  0  0  0  0  0  0  0  0  0  0
   45.2841   24.2444   38.3103 H   0  0  0  0  0  0  0  0  0  0  0  0
  1  5  1  0
  1  2  2  0
  2  3  1  0
  4  3  1  0
  4 17  1  0
  5  4  2  0
  6 10  1  0
  7  6  2  0
  7  8  1  0
  8  9  1  0
  9  1  1  0
 10  9  2  0
 12 11  2  0
 12  6  1  0
 13 12  1  0
 14 13  2  0
 14 15  1  0
 15 16  2  0
 16 11  1  0
 18 17  1  0
 19 18  1  0
 20 19  1  0
 20 18  1  0
 21 20  1  0
 22 21  2  0
 23 22  1  0
 24 23  2  0
 24 25  1  0
 25 21  1  0
  7 26  1  0
 11 27  1  0
 13 28  1  0
 15 29  1  0
 18 30  1  6
 19 31  1  0
 19 32  1  0
 20 33  1  6
 22 34  1  0
 23 35  1  0
 24 36  1  0
M  ISO  8  26  14  27  14  28  14  29  14  30  13  31  13  32  13  33  13
M  ISO  3  34  14  35  14  36  14
M  END
>  <minimizedAffinity>  (1) 
-4.93713856

>  <minimizedRMSD>  (1) 
0.530553818

$$$$
