
     RDKit          3D

 37 41  0  0  1  0  0  0  0  0999 V2000
   39.1830   27.9760   42.9790 C   0  0  0  0  0  0  0  0  0  0  0  0
   38.6770   26.8700   43.5750 N   0  0  0  0  0  0  0  0  0  0  0  0
   39.6340   26.2500   44.2020 O   0  0  0  0  0  0  0  0  0  0  0  0
   40.7450   26.9680   43.9980 C   0  0  0  0  0  0  0  0  0  0  0  0
   40.4990   28.0670   43.2290 N   0  0  0  0  0  0  0  0  0  0  0  0
   37.6480   30.7330   41.1190 C   0  0  0  0  0  0  0  0  0  0  0  0
   36.4420   30.0930   40.7880 C   0  0  0  0  0  0  0  0  0  0  0  0
   36.5920   28.4240   41.5320 S   0  0  0  0  0  0  0  0  0  0  0  0
   38.3200   28.8710   42.1970 C   0  0  0  0  0  0  0  0  0  0  0  0
   38.3830   29.9150   41.8080 N   0  0  0  0  0  0  0  0  0  0  0  0
   39.0740   32.7620   41.1360 C   0  0  0  0  0  0  0  0  0  0  0  0
   37.9270   32.1180   40.7010 C   0  0  0  0  0  0  0  0  0  0  0  0
   37.0040   32.7730   39.8520 C   0  0  0  0  0  0  0  0  0  0  0  0
   37.3250   34.0470   39.5120 N   0  0  0  0  0  0  0  0  0  0  0  0
   38.4600   34.6600   39.9540 C   0  0  0  0  0  0  0  0  0  0  0  0
   39.3050   34.0230   40.7460 N   0  0  0  0  0  0  0  0  0  0  0  0
   42.4250   26.6700   44.5860 S   0  0  0  0  0  0  0  0  0  0  0  0
   43.1810   25.5710   43.3380 C   0  0  2  0  0  0  0  0  0  0  0  0
   44.6610   25.5020   43.2610 C   0  0  0  0  0  0  0  0  0  0  0  0
   43.7820   26.1560   42.1420 C   0  0  1  0  0  0  0  0  0  0  0  0
   43.9010   25.4890   40.8470 C   0  0  0  0  0  0  0  0  0  0  0  0
   42.7490   25.0190   40.2100 C   0  0  0  0  0  0  0  0  0  0  0  0
   42.8630   24.3870   38.9840 C   0  0  0  0  0  0  0  0  0  0  0  0
   44.0750   24.2310   38.4190 N   0  0  0  0  0  0  0  0  0  0  0  0
   45.1740   24.7000   39.0660 C   0  0  0  0  0  0  0  0  0  0  0  0
   45.1000   25.3200   40.2610 N   0  0  0  0  0  0  0  0  0  0  0  0
   35.5981   30.5011   40.2124 H   0  0  0  0  0  0  0  0  0  0  0  0
   39.7871   32.2439   41.7942 H   0  0  0  0  0  0  0  0  0  0  0  0
   36.0877   32.2825   39.4917 H   0  0  0  0  0  0  0  0  0  0  0  0
   38.6745   35.6947   39.6485 H   0  0  0  0  0  0  0  0  0  0  0  0
   42.3948   24.8160   43.4861 H   0  0  0  0  0  0  0  0  0  0  0  0
   45.2834   26.1273   43.9180 H   0  0  0  0  0  0  0  0  0  0  0  0
   45.4227   24.7100   43.3111 H   0  0  0  0  0  0  0  0  0  0  0  0
   43.6063   27.1242   41.6503 H   0  0  0  0  0  0  0  0  0  0  0  0
   41.7623   25.1500   40.6782 H   0  0  0  0  0  0  0  0  0  0  0  0
   41.9644   24.0126   38.4718 H   0  0  0  0  0  0  0  0  0  0  0  0
   46.1606   24.5690   38.5975 H   0  0  0  0  0  0  0  0  0  0  0  0
  1  5  1  0
  1  2  2  0
  2  3  1  0
  4  3  1  0
  4 17  1  0
  5  4  2  0
  6 10  1  0
  7  6  2  0
  7  8  1  0
  8  9  1  0
  9  1  1  0
 10  9  2  0
 12  6  1  0
 12 11  2  0
 13 12  1  0
 14 13  2  0
 14 15  1  0
 15 16  2  0
 16 11  1  0
 18 17  1  0
 19 18  1  0
 20 19  1  0
 20 18  1  0
 21 20  1  0
 22 21  2  0
 23 22  1  0
 24 23  2  0
 24 25  1  0
 25 26  2  0
 26 21  1  0
  7 27  1  0
 11 28  1  0
 13 29  1  0
 15 30  1  0
 18 31  1  6
 19 32  1  0
 19 33  1  0
 20 34  1  6
 22 35  1  0
 23 36  1  0
 25 37  1  0
M  ISO  8  27  14  28  14  29  14  30  14  31  13  32  13  33  13  34  13
M  ISO  3  35  14  36  14  37  14
M  END
>  <minimizedAffinity>  (1) 
-4.91729879

>  <minimizedRMSD>  (1) 
0.433120847

$$$$
