
     RDKit          3D

 42 46  0  0  1  0  0  0  0  0999 V2000
   39.1990   27.8690   42.9740 C   0  0  0  0  0  0  0  0  0  0  0  0
   38.7440   26.7090   43.4690 N   0  0  0  0  0  0  0  0  0  0  0  0
   39.7150   26.1000   44.0860 O   0  0  0  0  0  0  0  0  0  0  0  0
   40.7920   26.8910   43.9770 C   0  0  0  0  0  0  0  0  0  0  0  0
   40.5010   28.0140   43.2830 N   0  0  0  0  0  0  0  0  0  0  0  0
   37.6370   30.6500   41.1640 C   0  0  0  0  0  0  0  0  0  0  0  0
   36.4180   30.0180   40.8730 C   0  0  0  0  0  0  0  0  0  0  0  0
   36.5700   28.3490   41.6110 S   0  0  0  0  0  0  0  0  0  0  0  0
   38.3260   28.7820   42.2200 C   0  0  0  0  0  0  0  0  0  0  0  0
   38.3760   29.8240   41.8250 N   0  0  0  0  0  0  0  0  0  0  0  0
   39.0610   32.6800   41.1480 C   0  0  0  0  0  0  0  0  0  0  0  0
   37.9130   32.0310   40.7310 C   0  0  0  0  0  0  0  0  0  0  0  0
   36.9940   32.6880   39.8860 C   0  0  0  0  0  0  0  0  0  0  0  0
   37.3240   33.9550   39.5350 N   0  0  0  0  0  0  0  0  0  0  0  0
   38.4630   34.5760   39.9580 C   0  0  0  0  0  0  0  0  0  0  0  0
   39.3040   33.9260   40.7520 N   0  0  0  0  0  0  0  0  0  0  0  0
   42.4710   26.6490   44.6060 S   0  0  0  0  0  0  0  0  0  0  0  0
   43.2830   25.5620   43.3910 C   0  0  2  0  0  0  0  0  0  0  0  0
   44.7430   25.5780   43.2000 C   0  0  0  0  0  0  0  0  0  0  0  0
   43.7930   26.1550   42.1340 C   0  0  1  0  0  0  0  0  0  0  0  0
   43.6540   25.5080   40.8150 C   0  0  0  0  0  0  0  0  0  0  0  0
   42.2630   25.1770   40.3940 C   0  0  0  0  0  0  0  0  0  0  0  0
   42.4400   24.7740   38.9440 C   0  0  0  0  0  0  0  0  0  0  0  0
   43.7950   25.3350   38.5040 C   0  0  0  0  0  0  0  0  0  0  0  0
   44.1940   26.2840   39.6420 C   0  0  0  0  0  0  0  0  0  0  0  0
   35.5607   30.4335   40.3231 H   0  0  0  0  0  0  0  0  0  0  0  0
   39.7741   32.1647   41.8082 H   0  0  0  0  0  0  0  0  0  0  0  0
   36.0706   32.2040   39.5351 H   0  0  0  0  0  0  0  0  0  0  0  0
   38.6821   35.6070   39.6433 H   0  0  0  0  0  0  0  0  0  0  0  0
   42.5738   24.7587   43.6393 H   0  0  0  0  0  0  0  0  0  0  0  0
   45.3724   26.2499   43.8020 H   0  0  0  0  0  0  0  0  0  0  0  0
   45.5442   24.8244   43.2117 H   0  0  0  0  0  0  0  0  0  0  0  0
   43.6517   27.1175   41.6206 H   0  0  0  0  0  0  0  0  0  0  0  0
   44.2473   24.6050   41.0215 H   0  0  0  0  0  0  0  0  0  0  0  0
   41.8555   24.3467   40.9894 H   0  0  0  0  0  0  0  0  0  0  0  0
   41.5559   26.0081   40.5326 H   0  0  0  0  0  0  0  0  0  0  0  0
   42.4328   23.6781   38.8497 H   0  0  0  0  0  0  0  0  0  0  0  0
   41.6237   25.1641   38.3183 H   0  0  0  0  0  0  0  0  0  0  0  0
   44.5339   24.5279   38.3913 H   0  0  0  0  0  0  0  0  0  0  0  0
   43.7458   25.8419   37.5290 H   0  0  0  0  0  0  0  0  0  0  0  0
   45.2844   26.4148   39.7037 H   0  0  0  0  0  0  0  0  0  0  0  0
   43.8159   27.3127   39.5476 H   0  0  0  0  0  0  0  0  0  0  0  0
  1  5  1  0
  1  2  2  0
  2  3  1  0
  4  3  1  0
  4 17  1  0
  5  4  2  0
  6 10  1  0
  7  6  2  0
  7  8  1  0
  8  9  1  0
  9  1  1  0
 10  9  2  0
 12 11  2  0
 12  6  1  0
 13 12  1  0
 14 13  2  0
 14 15  1  0
 15 16  2  0
 16 11  1  0
 18 17  1  0
 19 18  1  0
 20 19  1  0
 20 18  1  0
 21 20  1  0
 22 21  1  0
 23 22  1  0
 24 23  1  0
 24 25  1  0
 25 21  1  0
  7 26  1  0
 11 27  1  0
 13 28  1  0
 15 29  1  0
 18 30  1  6
 19 31  1  0
 19 32  1  0
 20 33  1  6
 21 34  1  0
 22 35  1  0
 22 36  1  0
 23 37  1  0
 23 38  1  0
 24 39  1  0
 24 40  1  0
 25 41  1  0
 25 42  1  0
M  ISO  8  26  14  27  14  28  14  29  14  30  13  31  13  32  13  33  13
M  ISO  8  34  13  35  13  36  13  37  13  38  13  39  13  40  13  41  13
M  ISO  1  42  13
M  END
>  <minimizedAffinity>  (1) 
-4.91441154

>  <minimizedRMSD>  (1) 
0.146394059

$$$$
