
     RDKit          3D

 35 39  0  0  1  0  0  0  0  0999 V2000
   39.2440   27.8750   42.9810 C   0  0  0  0  0  0  0  0  0  0  0  0
   38.8160   26.6950   43.4530 N   0  0  0  0  0  0  0  0  0  0  0  0
   39.7900   26.0910   44.0700 O   0  0  0  0  0  0  0  0  0  0  0  0
   40.8450   26.9060   43.9810 C   0  0  0  0  0  0  0  0  0  0  0  0
   40.5480   28.0450   43.3020 N   0  0  0  0  0  0  0  0  0  0  0  0
   37.6620   30.6400   41.1890 C   0  0  0  0  0  0  0  0  0  0  0  0
   36.4160   30.0050   40.9170 C   0  0  0  0  0  0  0  0  0  0  0  0
   36.6040   28.3400   41.6720 S   0  0  0  0  0  0  0  0  0  0  0  0
   38.3520   28.7830   42.2340 C   0  0  0  0  0  0  0  0  0  0  0  0
   38.4030   29.8170   41.8360 N   0  0  0  0  0  0  0  0  0  0  0  0
   39.0480   32.6730   41.1460 C   0  0  0  0  0  0  0  0  0  0  0  0
   37.9120   32.0110   40.7380 C   0  0  0  0  0  0  0  0  0  0  0  0
   36.9960   32.6590   39.8890 C   0  0  0  0  0  0  0  0  0  0  0  0
   37.3030   33.9300   39.5200 N   0  0  0  0  0  0  0  0  0  0  0  0
   38.4400   34.5530   39.9460 C   0  0  0  0  0  0  0  0  0  0  0  0
   39.3030   33.9180   40.7560 N   0  0  0  0  0  0  0  0  0  0  0  0
   42.5170   26.6790   44.6220 S   0  0  0  0  0  0  0  0  0  0  0  0
   43.6270   26.9050   43.2060 C   0  0  2  0  0  0  0  0  0  0  0  0
   45.1010   26.8270   43.3970 C   0  0  0  0  0  0  0  0  0  0  0  0
   44.3730   28.1440   43.0010 C   0  0  2  0  0  0  0  0  0  0  0  0
   44.4710   29.1880   43.9830 N   0  0  0  0  0  0  0  0  0  0  0  0
   45.2990   29.4700   45.0090 C   0  0  0  0  0  0  0  0  0  0  0  0
   44.9150   30.6140   45.6190 N   0  0  0  0  0  0  0  0  0  0  0  0
   43.8300   31.0220   44.9360 C   0  0  0  0  0  0  0  0  0  0  0  0
   43.5750   30.1630   43.9640 N   0  0  0  0  0  0  0  0  0  0  0  0
   35.5468   30.4145   40.3816 H   0  0  0  0  0  0  0  0  0  0  0  0
   39.7603   32.1605   41.8093 H   0  0  0  0  0  0  0  0  0  0  0  0
   36.0782   32.1619   39.5418 H   0  0  0  0  0  0  0  0  0  0  0  0
   38.6514   35.5832   39.6235 H   0  0  0  0  0  0  0  0  0  0  0  0
   42.9045   26.3595   42.5811 H   0  0  0  0  0  0  0  0  0  0  0  0
   45.5269   26.7067   44.4040 H   0  0  0  0  0  0  0  0  0  0  0  0
   45.9230   26.2211   42.9882 H   0  0  0  0  0  0  0  0  0  0  0  0
   44.3538   28.8786   42.1825 H   0  0  0  0  0  0  0  0  0  0  0  0
   46.1627   28.8575   45.3070 H   0  0  0  0  0  0  0  0  0  0  0  0
   43.2462   31.9288   45.1526 H   0  0  0  0  0  0  0  0  0  0  0  0
  1  5  1  0
  1  2  2  0
  2  3  1  0
  4  3  1  0
  4 17  1  0
  5  4  2  0
  6 10  1  0
  7  6  2  0
  7  8  1  0
  8  9  1  0
  9  1  1  0
 10  9  2  0
 12 11  2  0
 12  6  1  0
 13 12  1  0
 14 13  2  0
 14 15  1  0
 15 16  2  0
 16 11  1  0
 18 19  1  0
 18 17  1  0
 20 18  1  0
 20 19  1  0
 20 21  1  0
 21 22  1  0
 22 23  2  0
 24 23  1  0
 25 21  1  0
 25 24  2  0
  7 26  1  0
 11 27  1  0
 13 28  1  0
 15 29  1  0
 18 30  1  6
 19 31  1  0
 19 32  1  0
 20 33  1  6
 22 34  1  0
 24 35  1  0
M  ISO  8  26  14  27  14  28  14  29  14  30  13  31  13  32  13  33  13
M  ISO  2  34  14  35  14
M  END
>  <minimizedAffinity>  (1) 
-4.86094666

>  <minimizedRMSD>  (1) 
1.72294831

$$$$
