
     RDKit          3D

 39 43  0  0  1  0  0  0  0  0999 V2000
   39.1880   27.8970   42.9540 C   0  0  0  0  0  0  0  0  0  0  0  0
   38.7530   26.7170   43.4170 N   0  0  0  0  0  0  0  0  0  0  0  0
   39.7230   26.1070   44.0290 O   0  0  0  0  0  0  0  0  0  0  0  0
   40.7840   26.9190   43.9480 C   0  0  0  0  0  0  0  0  0  0  0  0
   40.4930   28.0670   43.2750 N   0  0  0  0  0  0  0  0  0  0  0  0
   37.6060   30.6750   41.1680 C   0  0  0  0  0  0  0  0  0  0  0  0
   36.3570   30.0540   40.8950 C   0  0  0  0  0  0  0  0  0  0  0  0
   36.5470   28.3760   41.6540 S   0  0  0  0  0  0  0  0  0  0  0  0
   38.2980   28.8160   42.2090 C   0  0  0  0  0  0  0  0  0  0  0  0
   38.3650   29.8570   41.8170 N   0  0  0  0  0  0  0  0  0  0  0  0
   38.9950   32.7130   41.1340 C   0  0  0  0  0  0  0  0  0  0  0  0
   37.8790   32.0470   40.7260 C   0  0  0  0  0  0  0  0  0  0  0  0
   36.9610   32.6920   39.8580 C   0  0  0  0  0  0  0  0  0  0  0  0
   37.2810   33.9670   39.4910 N   0  0  0  0  0  0  0  0  0  0  0  0
   38.4260   34.5900   39.9350 C   0  0  0  0  0  0  0  0  0  0  0  0
   39.2670   33.9520   40.7510 N   0  0  0  0  0  0  0  0  0  0  0  0
   42.4520   26.6770   44.5920 S   0  0  0  0  0  0  0  0  0  0  0  0
   43.2240   25.4690   43.4830 C   0  0  2  0  0  0  0  0  0  0  0  0
   44.5840   25.6660   42.9390 C   0  0  0  0  0  0  0  0  0  0  0  0
   43.3120   25.6460   42.0500 C   0  0  2  0  0  0  0  0  0  0  0  0
   43.1630   26.8780   41.2930 C   0  0  0  0  0  0  0  0  0  0  0  0
   43.9780   27.9740   41.4630 C   0  0  0  0  0  0  0  0  0  0  0  0
   43.8930   29.1570   40.7900 C   0  0  0  0  0  0  0  0  0  0  0  0
   42.8920   29.3090   39.8250 C   0  0  0  0  0  0  0  0  0  0  0  0
   42.0490   28.2380   39.6170 C   0  0  0  0  0  0  0  0  0  0  0  0
   42.1890   27.0680   40.3330 C   0  0  0  0  0  0  0  0  0  0  0  0
   35.4888   30.4693   40.3624 H   0  0  0  0  0  0  0  0  0  0  0  0
   39.6982   32.2021   41.8081 H   0  0  0  0  0  0  0  0  0  0  0  0
   36.0466   32.1947   39.5022 H   0  0  0  0  0  0  0  0  0  0  0  0
   38.6484   35.6188   39.6153 H   0  0  0  0  0  0  0  0  0  0  0  0
   42.7579   24.6947   44.1101 H   0  0  0  0  0  0  0  0  0  0  0  0
   45.1257   26.6066   43.1173 H   0  0  0  0  0  0  0  0  0  0  0  0
   45.5399   25.1227   42.9717 H   0  0  0  0  0  0  0  0  0  0  0  0
   42.8094   25.0807   41.2514 H   0  0  0  0  0  0  0  0  0  0  0  0
   44.7759   27.8872   42.2152 H   0  0  0  0  0  0  0  0  0  0  0  0
   44.5973   29.9750   41.0017 H   0  0  0  0  0  0  0  0  0  0  0  0
   42.7819   30.2439   39.2559 H   0  0  0  0  0  0  0  0  0  0  0  0
   41.2496   28.3185   38.8656 H   0  0  0  0  0  0  0  0  0  0  0  0
   41.4892   26.2442   40.1290 H   0  0  0  0  0  0  0  0  0  0  0  0
  1  5  1  0
  1  2  2  0
  2  3  1  0
  4  3  1  0
  4 17  1  0
  5  4  2  0
  6 10  1  0
  7  6  2  0
  7  8  1  0
  8  9  1  0
  9  1  1  0
 10  9  2  0
 12 11  2  0
 12  6  1  0
 13 12  1  0
 14 13  2  0
 14 15  1  0
 15 16  2  0
 16 11  1  0
 18 17  1  0
 19 18  1  0
 20 19  1  0
 20 18  1  0
 21 22  2  0
 21 20  1  0
 23 22  1  0
 24 23  2  0
 25 24  1  0
 25 26  2  0
 26 21  1  0
  7 27  1  0
 11 28  1  0
 13 29  1  0
 15 30  1  0
 18 31  1  6
 19 32  1  0
 19 33  1  0
 20 34  1  6
 22 35  1  0
 23 36  1  0
 24 37  1  0
 25 38  1  0
 26 39  1  0
M  ISO  8  27  14  28  14  29  14  30  14  31  13  32  13  33  13  34  13
M  ISO  5  35  14  36  14  37  14  38  14  39  14
M  END
>  <minimizedAffinity>  (1) 
-4.80486345

>  <minimizedRMSD>  (1) 
1.063097

$$$$
