
     RDKit          3D

 32 35  0  0  1  0  0  0  0  0999 V2000
   37.6450   30.6470   41.1690 C   0  0  0  0  0  0  0  0  0  0  0  0
   36.4210   30.0150   40.8900 C   0  0  0  0  0  0  0  0  0  0  0  0
   36.5650   28.3420   41.6280 S   0  0  0  0  0  0  0  0  0  0  0  0
   38.3260   28.7690   42.2230 C   0  0  0  0  0  0  0  0  0  0  0  0
   38.3930   29.8220   41.8270 N   0  0  0  0  0  0  0  0  0  0  0  0
   39.0440   32.6760   41.1410 C   0  0  0  0  0  0  0  0  0  0  0  0
   37.9030   32.0110   40.7310 C   0  0  0  0  0  0  0  0  0  0  0  0
   36.9910   32.6740   39.8810 C   0  0  0  0  0  0  0  0  0  0  0  0
   37.3020   33.9420   39.5180 N   0  0  0  0  0  0  0  0  0  0  0  0
   38.4570   34.5560   39.9580 C   0  0  0  0  0  0  0  0  0  0  0  0
   39.3030   33.9190   40.7580 N   0  0  0  0  0  0  0  0  0  0  0  0
   39.2130   27.8610   42.9730 C   0  0  0  0  0  0  0  0  0  0  0  0
   38.7560   26.6740   43.4320 N   0  0  0  0  0  0  0  0  0  0  0  0
   39.7230   26.0640   44.0530 O   0  0  0  0  0  0  0  0  0  0  0  0
   40.7890   26.8730   43.9800 C   0  0  0  0  0  0  0  0  0  0  0  0
   40.5090   28.0200   43.3050 N   0  0  0  0  0  0  0  0  0  0  0  0
   42.4640   26.6500   44.6300 S   0  0  0  0  0  0  0  0  0  0  0  0
   43.3200   25.6000   43.4050 C   0  0  2  0  0  0  0  0  0  0  0  0
   44.7920   25.4710   43.4360 C   0  0  0  0  0  0  0  0  0  0  0  0
   44.0470   26.2110   42.2820 C   0  0  1  0  0  0  0  0  0  0  0  0
   44.1890   25.5330   40.9540 C   0  0  0  0  0  0  0  0  0  0  0  0
   35.5615   30.4337   40.3460 H   0  0  0  0  0  0  0  0  0  0  0  0
   39.7557   32.1603   41.8024 H   0  0  0  0  0  0  0  0  0  0  0  0
   36.0709   32.1840   39.5298 H   0  0  0  0  0  0  0  0  0  0  0  0
   38.6791   35.5859   39.6418 H   0  0  0  0  0  0  0  0  0  0  0  0
   42.4970   24.8725   43.4629 H   0  0  0  0  0  0  0  0  0  0  0  0
   45.3845   26.0383   44.1689 H   0  0  0  0  0  0  0  0  0  0  0  0
   45.5114   24.6420   43.5086 H   0  0  0  0  0  0  0  0  0  0  0  0
   43.9890   27.2092   41.8235 H   0  0  0  0  0  0  0  0  0  0  0  0
   44.4123   24.4670   41.1085 H   0  0  0  0  0  0  0  0  0  0  0  0
   43.2504   25.6329   40.3891 H   0  0  0  0  0  0  0  0  0  0  0  0
   45.0086   26.0011   40.3891 H   0  0  0  0  0  0  0  0  0  0  0  0
  1  5  1  0
  2  1  2  0
  2  3  1  0
  3  4  1  0
  4 12  1  0
  5  4  2  0
  7  6  2  0
  7  1  1  0
  8  7  1  0
  9  8  2  0
  9 10  1  0
 10 11  2  0
 11  6  1  0
 12 16  1  0
 12 13  2  0
 13 14  1  0
 15 14  1  0
 15 17  1  0
 16 15  2  0
 18 19  1  0
 18 17  1  0
 20 18  1  0
 20 19  1  0
 21 20  1  0
  2 22  1  0
  6 23  1  0
  8 24  1  0
 10 25  1  0
 18 26  1  6
 19 27  1  0
 19 28  1  0
 20 29  1  6
 21 30  1  0
 21 31  1  0
 21 32  1  0
M  ISO  8  22  14  23  14  24  14  25  14  26  13  27  13  28  13  29  13
M  ISO  3  30   8  31   8  32   8
M  END
>  <minimizedAffinity>  (1) 
-4.77362394

>  <minimizedRMSD>  (1) 
0.108327292

$$$$
