
     RDKit          3D

 36 40  0  0  1  0  0  0  0  0999 V2000
   39.1990   27.8770   42.9650 C   0  0  0  0  0  0  0  0  0  0  0  0
   38.7310   26.7130   43.4660 N   0  0  0  0  0  0  0  0  0  0  0  0
   39.6940   26.0950   44.0800 O   0  0  0  0  0  0  0  0  0  0  0  0
   40.7740   26.8780   43.9630 C   0  0  0  0  0  0  0  0  0  0  0  0
   40.5030   28.0140   43.2640 N   0  0  0  0  0  0  0  0  0  0  0  0
   37.6450   30.6540   41.1740 C   0  0  0  0  0  0  0  0  0  0  0  0
   36.3900   30.0420   40.8810 C   0  0  0  0  0  0  0  0  0  0  0  0
   36.5690   28.3630   41.6340 S   0  0  0  0  0  0  0  0  0  0  0  0
   38.3150   28.7880   42.2140 C   0  0  0  0  0  0  0  0  0  0  0  0
   38.3830   29.8290   41.8230 N   0  0  0  0  0  0  0  0  0  0  0  0
   39.0560   32.6760   41.1460 C   0  0  0  0  0  0  0  0  0  0  0  0
   37.9110   32.0210   40.7370 C   0  0  0  0  0  0  0  0  0  0  0  0
   36.9870   32.6890   39.8830 C   0  0  0  0  0  0  0  0  0  0  0  0
   37.3070   33.9620   39.5200 N   0  0  0  0  0  0  0  0  0  0  0  0
   38.4520   34.5660   39.9530 C   0  0  0  0  0  0  0  0  0  0  0  0
   39.2980   33.9310   40.7460 N   0  0  0  0  0  0  0  0  0  0  0  0
   42.4510   26.6220   44.5850 S   0  0  0  0  0  0  0  0  0  0  0  0
   43.2610   25.5580   43.3540 C   0  0  2  0  0  0  0  0  0  0  0  0
   44.7300   25.6110   43.1910 C   0  0  0  0  0  0  0  0  0  0  0  0
   43.7570   26.1580   42.1050 C   0  0  1  0  0  0  0  0  0  0  0  0
   43.7370   25.4610   40.7900 C   0  0  0  0  0  0  0  0  0  0  0  0
   42.4900   25.0820   40.0870 C   0  0  0  0  0  0  0  0  0  0  0  0
   43.3600   26.2160   39.5460 C   0  0  0  0  0  0  0  0  0  0  0  0
   35.5296   30.4642   40.3412 H   0  0  0  0  0  0  0  0  0  0  0  0
   39.7734   32.1639   41.8041 H   0  0  0  0  0  0  0  0  0  0  0  0
   36.0639   32.2023   39.5352 H   0  0  0  0  0  0  0  0  0  0  0  0
   38.6740   35.5961   39.6375 H   0  0  0  0  0  0  0  0  0  0  0  0
   42.5588   24.7413   43.5775 H   0  0  0  0  0  0  0  0  0  0  0  0
   45.3318   26.3037   43.7976 H   0  0  0  0  0  0  0  0  0  0  0  0
   45.5545   24.8834   43.2184 H   0  0  0  0  0  0  0  0  0  0  0  0
   43.5447   27.1078   41.5923 H   0  0  0  0  0  0  0  0  0  0  0  0
   44.6097   24.8833   41.1286 H   0  0  0  0  0  0  0  0  0  0  0  0
   42.4324   24.1263   39.5454 H   0  0  0  0  0  0  0  0  0  0  0  0
   41.4334   24.9816   40.3759 H   0  0  0  0  0  0  0  0  0  0  0  0
   43.9356   26.0789   38.6187 H   0  0  0  0  0  0  0  0  0  0  0  0
   43.2019   27.2727   39.2847 H   0  0  0  0  0  0  0  0  0  0  0  0
  1  5  1  0
  1  2  2  0
  2  3  1  0
  4  3  1  0
  4 17  1  0
  5  4  2  0
  6 10  1  0
  7  6  2  0
  7  8  1  0
  8  9  1  0
  9  1  1  0
 10  9  2  0
 12 11  2  0
 12  6  1  0
 13 12  1  0
 14 13  2  0
 14 15  1  0
 15 16  2  0
 16 11  1  0
 18 17  1  0
 19 18  1  0
 20 19  1  0
 20 18  1  0
 21 20  1  0
 22 21  1  0
 23 22  1  0
 23 21  1  0
  7 24  1  0
 11 25  1  0
 13 26  1  0
 15 27  1  0
 18 28  1  6
 19 29  1  0
 19 30  1  0
 20 31  1  6
 21 32  1  0
 22 33  1  0
 22 34  1  0
 23 35  1  0
 23 36  1  0
M  ISO  8  24  14  25  14  26  14  27  14  28  13  29  13  30  13  31  13
M  ISO  5  32  13  33  13  34  13  35  13  36  13
M  END
>  <minimizedAffinity>  (1) 
-4.75133801

>  <minimizedRMSD>  (1) 
0.82280755

$$$$
