
     RDKit          3D

 43 45  0  0  1  0  0  0  0  0999 V2000
   39.3060   28.1380   42.3170 C   0  0  2  0  0  0  0  0  0  0  0  0
   40.4810   27.1780   42.1670 C   0  0  2  0  0  0  0  0  0  0  0  0
   40.1150   25.7900   41.9470 C   0  0  0  0  0  0  0  0  0  0  0  0
   40.8070   24.9060   42.9650 C   0  0  0  0  0  0  0  0  0  0  0  0
   41.8280   25.7850   43.6310 C   0  0  0  0  0  0  0  0  0  0  0  0
   41.2240   27.1600   43.4900 C   0  0  1  0  0  0  0  0  0  0  0  0
   42.2710   28.2120   43.4310 C   0  0  0  0  0  0  0  0  0  0  0  0
   42.5620   28.9030   42.4140 O   0  0  0  0  0  0  0  0  0  0  0  0
   43.0060   28.4750   44.5750 O   0  0  0  0  0  0  0  0  0  0  0  0
   38.1310   27.4290   42.7390 N   0  0  0  0  0  0  0  0  0  0  0  0
   37.1460   28.0510   43.5420 C   0  0  0  0  0  0  0  0  0  0  0  0
   37.3630   29.2510   43.9690 N   0  0  0  0  0  0  0  0  0  0  0  0
   35.9640   27.3730   43.8600 N   0  0  0  0  0  0  0  0  0  0  0  0
   36.6520   29.7420   44.5470 H   0  0  0  0  0  0  0  0  0  0  0  0
   38.4900   29.1960   38.9520 C   0  0  0  0  0  0  0  0  0  0  0  0
   39.1740   30.3310   39.4310 C   0  0  0  0  0  0  0  0  0  0  0  0
   39.5130   29.9950   40.7100 C   0  0  0  0  0  0  0  0  0  0  0  0
   39.0720   28.7430   41.0050 N   0  0  0  0  0  0  0  0  0  0  0  0
   38.4620   28.2860   39.9300 N   0  0  0  0  0  0  0  0  0  0  0  0
   38.1340   28.0110   36.7760 C   0  0  0  0  0  0  0  0  0  0  0  0
   37.9330   29.0830   37.6210 C   0  0  0  0  0  0  0  0  0  0  0  0
   37.1470   30.1140   37.1590 C   0  0  0  0  0  0  0  0  0  0  0  0
   36.5890   30.0730   35.9120 N   0  0  0  0  0  0  0  0  0  0  0  0
   36.8330   28.9620   35.1130 C   0  0  0  0  0  0  0  0  0  0  0  0
   37.6180   27.9230   35.5640 N   0  0  0  0  0  0  0  0  0  0  0  0
   39.5301   28.9045   43.0735 H   0  0  0  0  0  0  0  0  0  0  0  0
   41.0482   27.5377   41.2958 H   0  0  0  0  0  0  0  0  0  0  0  0
   39.0253   25.6796   42.0491 H   0  0  0  0  0  0  0  0  0  0  0  0
   40.4263   25.4895   40.9357 H   0  0  0  0  0  0  0  0  0  0  0  0
   40.0832   24.5301   43.7031 H   0  0  0  0  0  0  0  0  0  0  0  0
   41.2703   24.0264   42.4942 H   0  0  0  0  0  0  0  0  0  0  0  0
   41.9547   25.5140   44.6895 H   0  0  0  0  0  0  0  0  0  0  0  0
   42.8315   25.7014   43.1882 H   0  0  0  0  0  0  0  0  0  0  0  0
   40.5738   27.3622   44.3539 H   0  0  0  0  0  0  0  0  0  0  0  0
   43.7097   29.1713   44.5621 H   0  0  0  0  0  0  0  0  0  0  0  0
   38.0026   26.4483   42.4515 H   0  0  0  0  0  0  0  0  0  0  0  0
   35.2497   27.8297   44.4449 H   0  0  0  0  0  0  0  0  0  0  0  0
   35.8082   26.4172   43.5092 H   0  0  0  0  0  0  0  0  0  0  0  0
   39.3857   31.2697   38.8981 H   0  0  0  0  0  0  0  0  0  0  0  0
   40.0652   30.6455   41.4042 H   0  0  0  0  0  0  0  0  0  0  0  0
   38.7611   27.1808   37.1332 H   0  0  0  0  0  0  0  0  0  0  0  0
   36.9648   30.9859   37.8044 H   0  0  0  0  0  0  0  0  0  0  0  0
   36.3931   28.9114   34.1061 H   0  0  0  0  0  0  0  0  0  0  0  0
  1 10  1  0
  2  1  1  0
  2  6  1  0
  3  2  1  0
  3  4  1  0
  4  5  1  0
  6  5  1  0
  7  6  1  0
  7  9  1  0
  8  7  2  0
 10 11  1  0
 11 13  1  0
 11 12  2  0
 12 14  1  0
 15 16  1  0
 15 19  2  0
 16 17  2  0
 17 18  1  0
 18  1  1  0
 19 18  1  0
 20 21  2  0
 21 15  1  0
 22 21  1  0
 23 22  2  0
 24 25  2  0
 24 23  1  0
 25 20  1  0
  1 26  1  1
  2 27  1  6
  3 28  1  0
  3 29  1  0
  4 30  1  0
  4 31  1  0
  5 32  1  0
  5 33  1  0
  6 34  1  1
  9 35  1  0
 10 36  1  0
 13 37  1  0
 13 38  1  0
 16 39  1  0
 17 40  1  0
 20 41  1  0
 22 42  1  0
 24 43  1  0
M  ISO  8  26   8  27  13  28  13  29  13  30  13  31  13  32  13  33  13
M  ISO  7  34  13  35   3  39  14  40  14  41  14  42  14  43  14
M  END
>  <minimizedAffinity>  (1) 
-4.82950306

>  <minimizedRMSD>  (1) 
0.267745644

$$$$
