
     RDKit          3D

 27 29  0  0  0  0  0  0  0  0999 V2000
   37.4530   28.1080   43.6260 S   0  0  0  0  0  0  0  0  0  0  0  0
   38.6240   26.7930   43.3610 C   0  0  0  0  0  0  0  0  0  0  0  0
   39.8310   26.8440   44.0170 C   0  0  0  0  0  0  0  0  0  0  0  0
   40.6730   25.7710   43.7420 C   0  0  0  0  0  0  0  0  0  0  0  0
   40.3370   24.7320   42.8840 C   0  0  0  0  0  0  0  0  0  0  0  0
   39.1130   24.7530   42.2680 C   0  0  0  0  0  0  0  0  0  0  0  0
   38.7770   23.7230   41.4130 C   0  0  0  0  0  0  0  0  0  0  0  0
   37.5470   23.7140   40.7740 C   0  0  0  0  0  0  0  0  0  0  0  0
   36.6720   24.7760   41.0240 C   0  0  0  0  0  0  0  0  0  0  0  0
   36.9960   25.8120   41.8750 C   0  0  0  0  0  0  0  0  0  0  0  0
   38.2320   25.7860   42.4940 C   0  0  0  0  0  0  0  0  0  0  0  0
   39.0490   30.1260   42.5750 C   0  0  0  0  0  0  0  0  0  0  0  0
   37.7900   29.4840   42.5360 C   0  0  0  0  0  0  0  0  0  0  0  0
   36.8250   29.9470   41.6340 C   0  0  0  0  0  0  0  0  0  0  0  0
   37.1690   31.0100   40.8340 N   0  0  0  0  0  0  0  0  0  0  0  0
   38.3750   31.5910   40.9000 C   0  0  0  0  0  0  0  0  0  0  0  0
   39.3300   31.1700   41.7600 N   0  0  0  0  0  0  0  0  0  0  0  0
   40.1069   27.6614   44.6994 H   0  0  0  0  0  0  0  0  0  0  0  0
   41.6581   25.7442   44.2307 H   0  0  0  0  0  0  0  0  0  0  0  0
   41.0410   23.9066   42.7020 H   0  0  0  0  0  0  0  0  0  0  0  0
   39.4899   22.9039   41.2375 H   0  0  0  0  0  0  0  0  0  0  0  0
   37.2679   22.8974   40.0919 H   0  0  0  0  0  0  0  0  0  0  0  0
   35.6918   24.7854   40.5249 H   0  0  0  0  0  0  0  0  0  0  0  0
   36.2904   26.6362   42.0562 H   0  0  0  0  0  0  0  0  0  0  0  0
   39.8145   29.7707   43.2806 H   0  0  0  0  0  0  0  0  0  0  0  0
   35.8317   29.4790   41.5682 H   0  0  0  0  0  0  0  0  0  0  0  0
   38.5951   32.4376   40.2331 H   0  0  0  0  0  0  0  0  0  0  0  0
  2  1  1  0
  2  3  2  0
  4  3  1  0
  5  4  2  0
  6 11  2  0
  6  5  1  0
  7  6  1  0
  8  9  1  0
  8  7  2  0
  9 10  2  0
 10 11  1  0
 11  2  1  0
 13 12  2  0
 13  1  1  0
 14 13  1  0
 15 16  1  0
 15 14  2  0
 16 17  2  0
 17 12  1  0
  3 18  1  0
  4 19  1  0
  5 20  1  0
  7 21  1  0
  8 22  1  0
  9 23  1  0
 10 24  1  0
 12 25  1  0
 14 26  1  0
 16 27  1  0
M  ISO  8  18  14  19  14  20  14  21  14  22  14  23  14  24  14  25  14
M  ISO  2  26  14  27  14
M  END
>  <minimizedAffinity>  (1) 
-5.26606369

>  <minimizedRMSD>  (1) 
2.15293336

$$$$
