
     RDKit          3D

 25 27  0  0  0  0  0  0  0  0999 V2000
   38.7220   30.2090   39.7630 C   0  0  0  0  0  0  0  0  0  0  0  0
   39.2540   30.2630   41.0130 N   0  0  0  0  0  0  0  0  0  0  0  0
   38.5070   29.9570   42.1000 C   0  0  0  0  0  0  0  0  0  0  0  0
   37.2030   29.5830   42.0090 N   0  0  0  0  0  0  0  0  0  0  0  0
   36.6480   29.5200   40.7890 C   0  0  0  0  0  0  0  0  0  0  0  0
   35.3080   29.1370   40.6810 C   0  0  0  0  0  0  0  0  0  0  0  0
   34.7120   29.0650   39.4320 C   0  0  0  0  0  0  0  0  0  0  0  0
   35.4370   29.3680   38.3100 C   0  0  0  0  0  0  0  0  0  0  0  0
   36.7550   29.7410   38.4570 C   0  0  0  0  0  0  0  0  0  0  0  0
   37.4000   29.8310   39.6710 C   0  0  0  0  0  0  0  0  0  0  0  0
   39.5560   30.5760   38.2500 S   0  0  0  0  0  0  0  0  0  0  0  0
   40.1120   33.1170   39.2870 C   0  0  0  0  0  0  0  0  0  0  0  0
   40.4030   32.1490   38.3110 C   0  0  0  0  0  0  0  0  0  0  0  0
   41.3910   32.4520   37.3700 C   0  0  0  0  0  0  0  0  0  0  0  0
   42.0240   33.6750   37.4470 N   0  0  0  0  0  0  0  0  0  0  0  0
   41.6980   34.5560   38.4050 C   0  0  0  0  0  0  0  0  0  0  0  0
   40.7590   34.3000   39.3190 N   0  0  0  0  0  0  0  0  0  0  0  0
   38.9730   30.0131   43.0948 H   0  0  0  0  0  0  0  0  0  0  0  0
   34.7288   28.8937   41.5840 H   0  0  0  0  0  0  0  0  0  0  0  0
   33.6576   28.7648   39.3417 H   0  0  0  0  0  0  0  0  0  0  0  0
   34.9765   29.3146   37.3125 H   0  0  0  0  0  0  0  0  0  0  0  0
   37.3276   29.9818   37.5492 H   0  0  0  0  0  0  0  0  0  0  0  0
   39.3398   32.9054   40.0413 H   0  0  0  0  0  0  0  0  0  0  0  0
   41.6582   31.7300   36.5843 H   0  0  0  0  0  0  0  0  0  0  0  0
   42.2224   35.5224   38.4385 H   0  0  0  0  0  0  0  0  0  0  0  0
  1  2  2  0
  2  3  1  0
  4  3  2  0
  5  4  1  0
  6  5  2  0
  7  6  1  0
  8  9  1  0
  8  7  2  0
  9 10  2  0
 10  1  1  0
 10  5  1  0
 11 13  1  0
 11  1  1  0
 12 17  2  0
 13 12  1  0
 14 15  1  0
 14 13  2  0
 15 16  2  0
 16 17  1  0
  3 18  1  0
  6 19  1  0
  7 20  1  0
  8 21  1  0
  9 22  1  0
 12 23  1  0
 14 24  1  0
 16 25  1  0
M  ISO  8  18  14  19  14  20  14  21  14  22  14  23  14  24  14  25  14
M  END
>  <minimizedAffinity>  (1) 
-4.42608643

>  <minimizedRMSD>  (1) 
6.47117949

$$$$
