
     RDKit          3D

 22 24  0  0  0  0  0  0  0  0999 V2000
   37.4390   28.0830   43.7330 S   0  0  0  0  0  0  0  0  0  0  0  0
   41.0740   24.8460   43.0980 N   0  0  0  0  0  0  0  0  0  0  0  0
   41.3600   25.9270   43.8630 C   0  0  0  0  0  0  0  0  0  0  0  0
   40.3010   26.7490   43.9750 N   0  0  0  0  0  0  0  0  0  0  0  0
   39.2930   26.1830   43.2580 C   0  0  0  0  0  0  0  0  0  0  0  0
   37.9740   26.5500   42.9960 C   0  0  0  0  0  0  0  0  0  0  0  0
   37.2080   25.7500   42.2240 N   0  0  0  0  0  0  0  0  0  0  0  0
   37.7040   24.5990   41.7040 C   0  0  0  0  0  0  0  0  0  0  0  0
   38.9920   24.2230   41.9490 N   0  0  0  0  0  0  0  0  0  0  0  0
   39.7900   25.0060   42.7230 C   0  0  0  0  0  0  0  0  0  0  0  0
   39.1410   30.0450   42.7050 C   0  0  0  0  0  0  0  0  0  0  0  0
   37.8710   29.4350   42.6480 C   0  0  0  0  0  0  0  0  0  0  0  0
   36.9470   29.9290   41.7010 C   0  0  0  0  0  0  0  0  0  0  0  0
   37.3280   30.9620   40.8970 N   0  0  0  0  0  0  0  0  0  0  0  0
   38.5650   31.5150   40.9910 C   0  0  0  0  0  0  0  0  0  0  0  0
   39.4640   31.0640   41.8850 N   0  0  0  0  0  0  0  0  0  0  0  0
   41.7038   24.0680   42.8550 H   0  0  0  0  0  0  0  0  0  0  0  0
   42.3370   26.1099   44.3341 H   0  0  0  0  0  0  0  0  0  0  0  0
   37.0608   23.9627   41.0785 H   0  0  0  0  0  0  0  0  0  0  0  0
   39.8819   29.6821   43.4326 H   0  0  0  0  0  0  0  0  0  0  0  0
   35.9422   29.4900   41.6140 H   0  0  0  0  0  0  0  0  0  0  0  0
   38.8369   32.3466   40.3243 H   0  0  0  0  0  0  0  0  0  0  0  0
  2  3  1  0
  3  4  2  0
  5  4  1  0
  6  5  2  0
  6  1  1  0
  7  6  1  0
  8  9  1  0
  8  7  2  0
  9 10  2  0
 10  2  1  0
 10  5  1  0
 12 11  2  0
 12  1  1  0
 13 12  1  0
 14 15  1  0
 14 13  2  0
 15 16  2  0
 16 11  1  0
  2 17  1  0
  3 18  1  0
  8 19  1  0
 11 20  1  0
 13 21  1  0
 15 22  1  0
M  ISO  6  17   9  18  14  19  14  20  14  21  14  22  14
M  END
>  <minimizedAffinity>  (1) 
-4.4034009

>  <minimizedRMSD>  (1) 
2.14218187

$$$$
