
     RDKit          3D

 14 14  0  0  0  0  0  0  0  0999 V2000
   37.1520   27.5430   40.4630 C   0  0  0  0  0  0  0  0  0  0  0  0
   36.7040   28.6270   41.2160 C   0  0  0  0  0  0  0  0  0  0  0  0
   35.6010   29.3490   40.7400 C   0  0  0  0  0  0  0  0  0  0  0  0
   35.0090   28.9590   39.5560 N   0  0  0  0  0  0  0  0  0  0  0  0
   35.4930   27.8990   38.8770 C   0  0  0  0  0  0  0  0  0  0  0  0
   36.5530   27.1840   39.3070 N   0  0  0  0  0  0  0  0  0  0  0  0
   37.4970   29.1120   42.7560 S   0  0  0  0  0  0  0  0  0  0  0  0
   37.1130   27.9330   44.0690 C   0  0  0  0  0  0  0  0  0  0  0  0
   38.2720   27.2020   44.3260 F   0  0  0  0  0  0  0  0  0  0  0  0
   36.7210   28.5130   45.2350 F   0  0  0  0  0  0  0  0  0  0  0  0
   36.1590   26.9990   43.6560 F   0  0  0  0  0  0  0  0  0  0  0  0
   38.0167   26.9643   40.8199 H   0  0  0  0  0  0  0  0  0  0  0  0
   35.2136   30.2123   41.3009 H   0  0  0  0  0  0  0  0  0  0  0  0
   35.0044   27.6061   37.9360 H   0  0  0  0  0  0  0  0  0  0  0  0
  1  2  2  0
  2  7  1  0
  3  2  1  0
  4  3  2  0
  5  6  2  0
  5  4  1  0
  6  1  1  0
  7  8  1  0
  8  9  1  0
  8 10  1  0
 11  8  1  0
  1 12  1  0
  3 13  1  0
  5 14  1  0
M  ISO  3  12  14  13  14  14  14
M  END
>  <minimizedAffinity>  (1) 
-3.73861432

>  <minimizedRMSD>  (1) 
2.7439065

$$$$
