
     RDKit          3D

 18 19  0  0  0  0  0  0  0  0999 V2000
   39.1300   32.8290   41.0760 C   0  0  0  0  0  0  0  0  0  0  0  0
   38.6090   31.5480   41.2670 C   0  0  0  0  0  0  0  0  0  0  0  0
   37.4440   31.2110   40.5490 C   0  0  0  0  0  0  0  0  0  0  0  0
   36.8990   32.1520   39.7160 N   0  0  0  0  0  0  0  0  0  0  0  0
   37.4510   33.3670   39.5770 C   0  0  0  0  0  0  0  0  0  0  0  0
   38.5620   33.7260   40.2450 N   0  0  0  0  0  0  0  0  0  0  0  0
   39.3780   30.3690   42.3760 S   0  0  0  0  0  0  0  0  0  0  0  0
   38.4240   28.9200   42.5840 C   0  0  0  0  0  0  0  0  0  0  0  0
   37.4330   28.6030   43.5790 C   0  0  0  0  0  0  0  0  0  0  0  0
   36.8360   27.3740   43.4980 C   0  0  0  0  0  0  0  0  0  0  0  0
   37.1770   26.4910   42.5080 C   0  0  0  0  0  0  0  0  0  0  0  0
   38.4800   27.3640   41.4990 S   0  0  0  0  0  0  0  0  0  0  0  0
   40.0388   33.1176   41.6245 H   0  0  0  0  0  0  0  0  0  0  0  0
   36.9840   30.2174   40.6549 H   0  0  0  0  0  0  0  0  0  0  0  0
   36.9807   34.0916   38.8960 H   0  0  0  0  0  0  0  0  0  0  0  0
   37.1668   29.3184   44.3710 H   0  0  0  0  0  0  0  0  0  0  0  0
   36.0723   27.0917   44.2377 H   0  0  0  0  0  0  0  0  0  0  0  0
   36.7695   25.4826   42.3433 H   0  0  0  0  0  0  0  0  0  0  0  0
  1  2  2  0
  2  7  1  0
  3  2  1  0
  4  3  2  0
  5  4  1  0
  5  6  2  0
  6  1  1  0
  7  8  1  0
  8  9  2  0
 10  9  1  0
 11 10  2  0
 12 11  1  0
 12  8  1  0
  1 13  1  0
  3 14  1  0
  5 15  1  0
  9 16  1  0
 10 17  1  0
 11 18  1  0
M  ISO  6  13  14  14  14  15  14  16  14  17  14  18  14
M  END
>  <minimizedAffinity>  (1) 
-3.7330699

>  <minimizedRMSD>  (1) 
3.48450303

$$$$
