
     RDKit          3D

 42 44  0  0  1  0  0  0  0  0999 V2000
   39.3130   28.1910   42.2480 C   0  0  2  0  0  0  0  0  0  0  0  0
   40.5050   27.2420   42.1990 C   0  0  2  0  0  0  0  0  0  0  0  0
   40.1730   25.8530   41.9320 C   0  0  0  0  0  0  0  0  0  0  0  0
   40.7780   24.9620   42.9980 C   0  0  0  0  0  0  0  0  0  0  0  0
   41.7240   25.8410   43.7670 C   0  0  0  0  0  0  0  0  0  0  0  0
   41.1210   27.2120   43.5910 C   0  0  1  0  0  0  0  0  0  0  0  0
   42.1970   28.1810   43.6570 N   0  0  0  0  0  0  0  0  0  0  0  0
   38.1310   27.4880   42.6370 N   0  0  0  0  0  0  0  0  0  0  0  0
   37.1550   28.0780   43.4780 C   0  0  0  0  0  0  0  0  0  0  0  0
   37.3980   29.2490   43.9680 N   0  0  0  0  0  0  0  0  0  0  0  0
   35.9630   27.4080   43.7650 N   0  0  0  0  0  0  0  0  0  0  0  0
   36.7030   29.7250   44.5760 H   0  0  0  0  0  0  0  0  0  0  0  0
   38.5960   29.1600   38.8350 C   0  0  0  0  0  0  0  0  0  0  0  0
   39.4480   30.1870   39.2220 C   0  0  0  0  0  0  0  0  0  0  0  0
   39.7660   29.8870   40.5170 C   0  0  0  0  0  0  0  0  0  0  0  0
   39.1410   28.7380   40.9000 N   0  0  0  0  0  0  0  0  0  0  0  0
   38.4380   28.3140   39.8690 N   0  0  0  0  0  0  0  0  0  0  0  0
   38.1280   27.9570   36.6720 C   0  0  0  0  0  0  0  0  0  0  0  0
   37.9880   29.0420   37.5210 C   0  0  0  0  0  0  0  0  0  0  0  0
   37.2100   30.0900   37.0830 C   0  0  0  0  0  0  0  0  0  0  0  0
   36.6000   30.0520   35.8510 N   0  0  0  0  0  0  0  0  0  0  0  0
   36.7870   28.9280   35.0550 C   0  0  0  0  0  0  0  0  0  0  0  0
   37.5640   27.8810   35.4910 N   0  0  0  0  0  0  0  0  0  0  0  0
   39.4884   28.9910   42.9823 H   0  0  0  0  0  0  0  0  0  0  0  0
   41.1482   27.6170   41.3893 H   0  0  0  0  0  0  0  0  0  0  0  0
   39.0796   25.7328   41.9341 H   0  0  0  0  0  0  0  0  0  0  0  0
   40.5775   25.5672   40.9498 H   0  0  0  0  0  0  0  0  0  0  0  0
   39.9934   24.5690   43.6612 H   0  0  0  0  0  0  0  0  0  0  0  0
   41.2924   24.0938   42.5603 H   0  0  0  0  0  0  0  0  0  0  0  0
   41.7563   25.5553   44.8288 H   0  0  0  0  0  0  0  0  0  0  0  0
   42.7645   25.7738   43.4164 H   0  0  0  0  0  0  0  0  0  0  0  0
   40.3672   27.4378   44.3596 H   0  0  0  0  0  0  0  0  0  0  0  0
   42.4190   28.3809   44.6427 H   0  0  0  0  0  0  0  0  0  0  0  0
   43.0311   27.8004   43.1876 H   0  0  0  0  0  0  0  0  0  0  0  0
   37.9847   26.5268   42.2970 H   0  0  0  0  0  0  0  0  0  0  0  0
   35.2605   27.8463   44.3776 H   0  0  0  0  0  0  0  0  0  0  0  0
   35.7868   26.4758   43.3640 H   0  0  0  0  0  0  0  0  0  0  0  0
   39.7885   31.0448   38.6235 H   0  0  0  0  0  0  0  0  0  0  0  0
   40.4301   30.4861   41.1573 H   0  0  0  0  0  0  0  0  0  0  0  0
   38.7470   27.1117   37.0073 H   0  0  0  0  0  0  0  0  0  0  0  0
   37.0743   30.9707   37.7279 H   0  0  0  0  0  0  0  0  0  0  0  0
   36.3084   28.8757   34.0660 H   0  0  0  0  0  0  0  0  0  0  0  0
  1  8  1  0
  2  1  1  0
  2  6  1  0
  3  2  1  0
  3  4  1  0
  4  5  1  0
  6  7  1  0
  6  5  1  0
  8  9  1  0
  9 11  1  0
  9 10  2  0
 10 12  1  0
 13 14  1  0
 13 17  2  0
 14 15  2  0
 15 16  1  0
 16  1  1  0
 17 16  1  0
 18 19  2  0
 19 13  1  0
 20 19  1  0
 21 20  2  0
 22 23  2  0
 22 21  1  0
 23 18  1  0
  1 24  1  1
  2 25  1  6
  3 26  1  0
  3 27  1  0
  4 28  1  0
  4 29  1  0
  5 30  1  0
  5 31  1  0
  6 32  1  1
  7 33  1  0
  7 34  1  0
  8 35  1  0
 11 36  1  0
 11 37  1  0
 14 38  1  0
 15 39  1  0
 18 40  1  0
 20 41  1  0
 22 42  1  0
M  ISO  8  24   8  25  13  26  13  27  13  28  13  29  13  30  13  31  13
M  ISO  8  32  13  33   5  34   5  38  14  39  14  40  14  41  14  42  14
M  END
>  <minimizedAffinity>  (1) 
-4.7400856

>  <minimizedRMSD>  (1) 
0.0860914961

$$$$
