
     RDKit          3D

 19 20  0  0  0  0  0  0  0  0999 V2000
   36.0720   29.6940   38.4610 C   0  0  0  0  0  0  0  0  0  0  0  0
   36.6600   30.7090   39.2210 C   0  0  0  0  0  0  0  0  0  0  0  0
   37.4850   31.6440   38.5790 C   0  0  0  0  0  0  0  0  0  0  0  0
   37.6630   31.4960   37.2270 N   0  0  0  0  0  0  0  0  0  0  0  0
   37.0800   30.5070   36.5330 C   0  0  0  0  0  0  0  0  0  0  0  0
   36.2900   29.6080   37.1260 N   0  0  0  0  0  0  0  0  0  0  0  0
   36.3600   30.8080   40.9810 S   0  0  0  0  0  0  0  0  0  0  0  0
   37.0000   29.4160   41.8580 C   0  0  0  0  0  0  0  0  0  0  0  0
   36.4030   28.1750   41.9020 C   0  0  0  0  0  0  0  0  0  0  0  0
   36.9750   27.1440   42.6140 C   0  0  0  0  0  0  0  0  0  0  0  0
   38.1270   27.3040   43.2860 N   0  0  0  0  0  0  0  0  0  0  0  0
   38.6970   28.5400   43.2250 C   0  0  0  0  0  0  0  0  0  0  0  0
   38.1630   29.5510   42.5450 N   0  0  0  0  0  0  0  0  0  0  0  0
   35.4232   28.9546   38.9532 H   0  0  0  0  0  0  0  0  0  0  0  0
   37.9683   32.4605   39.1355 H   0  0  0  0  0  0  0  0  0  0  0  0
   37.2568   30.4347   35.4497 H   0  0  0  0  0  0  0  0  0  0  0  0
   35.4593   28.0058   41.3627 H   0  0  0  0  0  0  0  0  0  0  0  0
   36.4755   26.1641   42.6328 H   0  0  0  0  0  0  0  0  0  0  0  0
   39.6417   28.7096   43.7624 H   0  0  0  0  0  0  0  0  0  0  0  0
  1  2  2  0
  2  7  1  0
  3  2  1  0
  4  3  2  0
  5  6  2  0
  5  4  1  0
  6  1  1  0
  7  8  1  0
  8  9  2  0
  8 13  1  0
  9 10  1  0
 10 11  2  0
 12 11  1  0
 13 12  2  0
  1 14  1  0
  3 15  1  0
  5 16  1  0
  9 17  1  0
 10 18  1  0
 12 19  1  0
M  ISO  6  14  14  15  14  16  14  17  14  18  14  19  14
M  END
>  <minimizedAffinity>  (1) 
-3.70723081

>  <minimizedRMSD>  (1) 
4.37333727

$$$$
