
     RDKit          3D

 19 20  0  0  0  0  0  0  0  0999 V2000
   37.9390   30.1340   41.2180 C   0  0  0  0  0  0  0  0  0  0  0  0
   37.0820   29.2180   41.8310 C   0  0  0  0  0  0  0  0  0  0  0  0
   35.9190   28.8370   41.1430 C   0  0  0  0  0  0  0  0  0  0  0  0
   35.6820   29.3770   39.9160 N   0  0  0  0  0  0  0  0  0  0  0  0
   36.5450   30.2630   39.3640 C   0  0  0  0  0  0  0  0  0  0  0  0
   37.6740   30.6540   39.9930 N   0  0  0  0  0  0  0  0  0  0  0  0
   37.4680   28.5520   43.4550 S   0  0  0  0  0  0  0  0  0  0  0  0
   38.3400   26.9840   43.2550 C   0  0  0  0  0  0  0  0  0  0  0  0
   39.5630   26.7350   43.8540 C   0  0  0  0  0  0  0  0  0  0  0  0
   40.1430   25.5190   43.6420 C   0  0  0  0  0  0  0  0  0  0  0  0
   39.5670   24.5660   42.8770 N   0  0  0  0  0  0  0  0  0  0  0  0
   38.3750   24.8260   42.3010 C   0  0  0  0  0  0  0  0  0  0  0  0
   37.7720   26.0350   42.4960 N   0  0  0  0  0  0  0  0  0  0  0  0
   38.8550   30.4429   41.7430 H   0  0  0  0  0  0  0  0  0  0  0  0
   35.2144   28.1176   41.5859 H   0  0  0  0  0  0  0  0  0  0  0  0
   36.3187   30.6777   38.3706 H   0  0  0  0  0  0  0  0  0  0  0  0
   40.0519   27.4946   44.4817 H   0  0  0  0  0  0  0  0  0  0  0  0
   41.1151   25.3064   44.1109 H   0  0  0  0  0  0  0  0  0  0  0  0
   37.8891   24.0637   41.6742 H   0  0  0  0  0  0  0  0  0  0  0  0
  1  2  2  0
  2  7  1  0
  3  2  1  0
  4  3  2  0
  5  4  1  0
  5  6  2  0
  6  1  1  0
  8  7  1  0
  8  9  2  0
 10  9  1  0
 11 10  2  0
 12 13  2  0
 12 11  1  0
 13  8  1  0
  1 14  1  0
  3 15  1  0
  5 16  1  0
  9 17  1  0
 10 18  1  0
 12 19  1  0
M  ISO  6  14  14  15  14  16  14  17  14  18  14  19  14
M  END
>  <minimizedAffinity>  (1) 
-3.6567781

>  <minimizedRMSD>  (1) 
3.12547255

$$$$
