
     RDKit          3D

 18 19  0  0  0  0  0  0  0  0999 V2000
   37.7190   29.5820   42.1500 C   0  0  0  0  0  0  0  0  0  0  0  0
   36.8500   28.5090   41.9440 C   0  0  0  0  0  0  0  0  0  0  0  0
   35.7680   28.6740   41.0690 C   0  0  0  0  0  0  0  0  0  0  0  0
   35.6350   29.9000   40.4630 N   0  0  0  0  0  0  0  0  0  0  0  0
   36.4960   30.9100   40.6890 C   0  0  0  0  0  0  0  0  0  0  0  0
   37.5330   30.7650   41.5220 N   0  0  0  0  0  0  0  0  0  0  0  0
   37.0930   26.9330   42.7760 S   0  0  0  0  0  0  0  0  0  0  0  0
   38.8450   26.7300   43.0510 C   0  0  0  0  0  0  0  0  0  0  0  0
   39.8000   26.5840   42.0630 C   0  0  0  0  0  0  0  0  0  0  0  0
   41.0080   26.4570   42.6760 N   0  0  0  0  0  0  0  0  0  0  0  0
   40.8360   26.5210   44.0070 C   0  0  0  0  0  0  0  0  0  0  0  0
   39.5130   26.6880   44.2240 N   0  0  0  0  0  0  0  0  0  0  0  0
   38.5707   29.4629   42.8358 H   0  0  0  0  0  0  0  0  0  0  0  0
   35.0563   27.8578   40.8757 H   0  0  0  0  0  0  0  0  0  0  0  0
   36.3441   31.8728   40.1791 H   0  0  0  0  0  0  0  0  0  0  0  0
   39.6169   26.5725   40.9784 H   0  0  0  0  0  0  0  0  0  0  0  0
   41.6220   26.4508   44.7734 H   0  0  0  0  0  0  0  0  0  0  0  0
   39.0756   26.7715   45.1528 H   0  0  0  0  0  0  0  0  0  0  0  0
  2  1  2  0
  2  7  1  0
  3  2  1  0
  4  5  1  0
  4  3  2  0
  5  6  2  0
  6  1  1  0
  7  8  1  0
  8 12  1  0
  9 10  1  0
  9  8  2  0
 10 11  2  0
 11 12  1  0
  1 13  1  0
  3 14  1  0
  5 15  1  0
  9 16  1  0
 11 17  1  0
 12 18  1  0
M  ISO  6  13  14  14  14  15  14  16  14  17  14  18   9
M  END
>  <minimizedAffinity>  (1) 
-3.35970211

>  <minimizedRMSD>  (1) 
1.70341372

$$$$
