
     RDKit          3D

 17 18  0  0  0  0  0  0  0  0999 V2000
   36.4070   28.1960   41.7680 C   0  0  0  0  0  0  0  0  0  0  0  0
   37.0360   29.4630   41.8130 C   0  0  0  0  0  0  0  0  0  0  0  0
   38.1600   29.5800   42.6480 C   0  0  0  0  0  0  0  0  0  0  0  0
   38.5840   28.4940   43.3580 N   0  0  0  0  0  0  0  0  0  0  0  0
   37.9340   27.3140   43.2680 C   0  0  0  0  0  0  0  0  0  0  0  0
   36.8590   27.1480   42.4880 N   0  0  0  0  0  0  0  0  0  0  0  0
   36.4510   30.8550   40.8680 S   0  0  0  0  0  0  0  0  0  0  0  0
   37.8360   31.8370   40.2480 C   0  0  0  0  0  0  0  0  0  0  0  0
   38.6830   31.1690   39.3010 C   0  0  0  0  0  0  0  0  0  0  0  0
   39.9220   32.5230   38.9590 S   0  0  0  0  0  0  0  0  0  0  0  0
   39.0500   33.7090   40.1570 C   0  0  0  0  0  0  0  0  0  0  0  0
   38.1720   33.0790   40.5460 N   0  0  0  0  0  0  0  0  0  0  0  0
   35.5233   28.0615   41.1270 H   0  0  0  0  0  0  0  0  0  0  0  0
   38.6937   30.5385   42.7288 H   0  0  0  0  0  0  0  0  0  0  0  0
   38.3005   26.4596   43.8560 H   0  0  0  0  0  0  0  0  0  0  0  0
   38.6200   30.1494   38.8929 H   0  0  0  0  0  0  0  0  0  0  0  0
   39.3190   34.7439   40.4150 H   0  0  0  0  0  0  0  0  0  0  0  0
  1  2  2  0
  1  6  1  0
  2  3  1  0
  3  4  2  0
  5  4  1  0
  6  5  2  0
  7  2  1  0
  8 12  1  0
  8  7  1  0
  9  8  2  0
 10  9  1  0
 10 11  1  0
 11 12  2  0
  1 13  1  0
  3 14  1  0
  5 15  1  0
  9 16  1  0
 11 17  1  0
M  ISO  5  13  14  14  14  15  14  16  14  17  14
M  END
>  <minimizedAffinity>  (1) 
-3.49703908

>  <minimizedRMSD>  (1) 
5.94435883

$$$$
