
     RDKit          3D

 28 31  0  0  0  0  0  0  0  0999 V2000
   38.4160   31.4800   39.1910 C   0  0  0  0  0  0  0  0  0  0  0  0
   39.3810   30.9570   38.2540 C   0  0  0  0  0  0  0  0  0  0  0  0
   40.6390   32.3520   38.3050 S   0  0  0  0  0  0  0  0  0  0  0  0
   39.6230   33.3180   39.5480 C   0  0  0  0  0  0  0  0  0  0  0  0
   38.7150   32.6570   39.7230 N   0  0  0  0  0  0  0  0  0  0  0  0
   39.9330   34.6190   40.1480 N   0  0  0  0  0  0  0  0  0  0  0  0
   39.1450   35.7040   40.1200 C   0  0  0  0  0  0  0  0  0  0  0  0
   39.8170   36.6740   40.7910 N   0  0  0  0  0  0  0  0  0  0  0  0
   41.0040   36.1440   41.2100 C   0  0  0  0  0  0  0  0  0  0  0  0
   42.0320   36.7540   41.9380 C   0  0  0  0  0  0  0  0  0  0  0  0
   43.1290   36.0030   42.2350 N   0  0  0  0  0  0  0  0  0  0  0  0
   43.2000   34.7420   41.8400 C   0  0  0  0  0  0  0  0  0  0  0  0
   42.1950   34.1760   41.1400 N   0  0  0  0  0  0  0  0  0  0  0  0
   41.0700   34.8240   40.7940 C   0  0  0  0  0  0  0  0  0  0  0  0
   36.9720   30.4350   39.4840 S   0  0  0  0  0  0  0  0  0  0  0  0
   36.3230   28.4730   41.3970 C   0  0  0  0  0  0  0  0  0  0  0  0
   37.1410   29.5860   41.0530 C   0  0  0  0  0  0  0  0  0  0  0  0
   38.0990   29.9950   42.0110 C   0  0  0  0  0  0  0  0  0  0  0  0
   38.1800   29.3130   43.1830 N   0  0  0  0  0  0  0  0  0  0  0  0
   37.3810   28.2700   43.4520 C   0  0  0  0  0  0  0  0  0  0  0  0
   36.4590   27.8400   42.5860 N   0  0  0  0  0  0  0  0  0  0  0  0
   39.3803   30.0189   37.6796 H   0  0  0  0  0  0  0  0  0  0  0  0
   38.1548   35.7903   39.6488 H   0  0  0  0  0  0  0  0  0  0  0  0
   41.9567   37.8034   42.2592 H   0  0  0  0  0  0  0  0  0  0  0  0
   44.0915   34.1465   42.0860 H   0  0  0  0  0  0  0  0  0  0  0  0
   35.5650   28.1201   40.6823 H   0  0  0  0  0  0  0  0  0  0  0  0
   38.7644   30.8477   41.8107 H   0  0  0  0  0  0  0  0  0  0  0  0
   37.4882   27.7520   44.4165 H   0  0  0  0  0  0  0  0  0  0  0  0
  1 15  1  0
  1  5  1  0
  2  3  1  0
  2  1  2  0
  3  4  1  0
  4  5  2  0
  4  6  1  0
  6 14  1  0
  7  6  1  0
  7  8  2  0
  8  9  1  0
  9 10  2  0
 10 11  1  0
 12 11  2  0
 13 12  1  0
 14 13  2  0
 14  9  1  0
 15 17  1  0
 16 21  2  0
 17 16  1  0
 17 18  2  0
 18 19  1  0
 19 20  2  0
 21 20  1  0
  2 22  1  0
  7 23  1  0
 10 24  1  0
 12 25  1  0
 16 26  1  0
 18 27  1  0
 20 28  1  0
M  ISO  7  22  14  23  14  24  14  25  14  26  14  27  14  28  14
M  END
>  <minimizedAffinity>  (1) 
-5.82978201

>  <minimizedRMSD>  (1) 
0.91815865

$$$$
