
     RDKit          3D

 30 32  0  0  0  0  0  0  0  0999 V2000
   37.6040   29.9740   41.0760 C   0  0  0  0  0  0  0  0  0  0  0  0
   37.2190   29.5870   39.7640 C   0  0  0  0  0  0  0  0  0  0  0  0
   37.7030   31.1460   38.8320 S   0  0  0  0  0  0  0  0  0  0  0  0
   38.3140   31.9690   40.4020 C   0  0  0  0  0  0  0  0  0  0  0  0
   38.1240   31.1800   41.1960 N   0  0  0  0  0  0  0  0  0  0  0  0
   38.8320   33.2800   40.2600 N   0  0  0  0  0  0  0  0  0  0  0  0
   40.1020   33.4040   40.6070 C   0  0  0  0  0  0  0  0  0  0  0  0
   40.7230   34.6500   40.5090 C   0  0  0  0  0  0  0  0  0  0  0  0
   42.1350   34.9040   40.8690 C   0  0  0  0  0  0  0  0  0  0  0  0
   39.9870   35.7210   40.0500 C   0  0  0  0  0  0  0  0  0  0  0  0
   40.5050   36.8660   39.9450 O   0  0  0  0  0  0  0  0  0  0  0  0
   38.7130   35.5740   39.7080 N   0  0  0  0  0  0  0  0  0  0  0  0
   38.1780   34.3460   39.8270 C   0  0  0  0  0  0  0  0  0  0  0  0
   36.9680   34.1930   39.5040 O   0  0  0  0  0  0  0  0  0  0  0  0
   37.3210   28.7350   42.3730 S   0  0  0  0  0  0  0  0  0  0  0  0
   38.9720   26.8680   43.6840 C   0  0  0  0  0  0  0  0  0  0  0  0
   38.8820   28.0800   42.9560 C   0  0  0  0  0  0  0  0  0  0  0  0
   40.0950   28.7630   42.7050 C   0  0  0  0  0  0  0  0  0  0  0  0
   41.2550   28.2230   43.1690 N   0  0  0  0  0  0  0  0  0  0  0  0
   41.2730   27.0710   43.8530 C   0  0  0  0  0  0  0  0  0  0  0  0
   40.1570   26.3860   44.1180 N   0  0  0  0  0  0  0  0  0  0  0  0
   36.7700   28.6508   39.4008 H   0  0  0  0  0  0  0  0  0  0  0  0
   40.6648   32.5315   40.9702 H   0  0  0  0  0  0  0  0  0  0  0  0
   42.2366   34.9223   41.9641 H   0  0  0  0  0  0  0  0  0  0  0  0
   42.7682   34.1054   40.4553 H   0  0  0  0  0  0  0  0  0  0  0  0
   42.4502   35.8733   40.4553 H   0  0  0  0  0  0  0  0  0  0  0  0
   38.1559   36.3695   39.3648 H   0  0  0  0  0  0  0  0  0  0  0  0
   38.0527   26.3045   43.9016 H   0  0  0  0  0  0  0  0  0  0  0  0
   40.1007   29.7107   42.1465 H   0  0  0  0  0  0  0  0  0  0  0  0
   42.2369   26.6769   44.2075 H   0  0  0  0  0  0  0  0  0  0  0  0
  1  5  1  0
  1 15  1  0
  2  1  2  0
  3  2  1  0
  3  4  1  0
  4  5  2  0
  6  4  1  0
  6  7  1  0
  8  7  2  0
  8  9  1  0
 10  8  1  0
 11 10  2  0
 12 13  1  0
 12 10  1  0
 13  6  1  0
 14 13  2  0
 15 17  1  0
 16 21  2  0
 17 16  1  0
 18 17  2  0
 18 19  1  0
 19 20  2  0
 20 21  1  0
  2 22  1  0
  7 23  1  0
  9 24  1  0
  9 25  1  0
  9 26  1  0
 12 27  1  0
 16 28  1  0
 18 29  1  0
 20 30  1  0
M  ISO  8  22  14  23  14  24   8  25   8  26   8  27   9  28  14  29  14
M  ISO  1  30  14
M  END
>  <minimizedAffinity>  (1) 
-5.82808399

>  <minimizedRMSD>  (1) 
2.56458735

$$$$
