
     RDKit          3D

 31 34  0  0  0  0  0  0  0  0999 V2000
   38.5460   29.7920   41.7010 C   0  0  0  0  0  0  0  0  0  0  0  0
   37.9280   29.4980   40.4570 C   0  0  0  0  0  0  0  0  0  0  0  0
   38.9030   30.6660   39.3840 S   0  0  0  0  0  0  0  0  0  0  0  0
   39.9320   31.3010   40.8270 C   0  0  0  0  0  0  0  0  0  0  0  0
   39.4910   30.6900   41.6700 N   0  0  0  0  0  0  0  0  0  0  0  0
   40.9070   32.3180   40.4050 C   0  0  0  0  0  0  0  0  0  0  0  0
   42.2060   32.1300   40.1260 N   0  0  0  0  0  0  0  0  0  0  0  0
   43.0340   33.1130   39.7470 C   0  0  0  0  0  0  0  0  0  0  0  0
   42.6240   34.3780   39.6130 N   0  0  0  0  0  0  0  0  0  0  0  0
   41.3370   34.6650   39.8720 C   0  0  0  0  0  0  0  0  0  0  0  0
   40.8970   35.9650   39.7400 C   0  0  0  0  0  0  0  0  0  0  0  0
   39.5600   36.2790   40.0050 C   0  0  0  0  0  0  0  0  0  0  0  0
   38.7300   35.2220   40.3990 C   0  0  0  0  0  0  0  0  0  0  0  0
   39.2010   33.9340   40.5200 C   0  0  0  0  0  0  0  0  0  0  0  0
   40.5170   33.6270   40.2600 C   0  0  0  0  0  0  0  0  0  0  0  0
   37.9270   28.8700   43.1430 S   0  0  0  0  0  0  0  0  0  0  0  0
   37.8720   26.1500   42.4210 C   0  0  0  0  0  0  0  0  0  0  0  0
   38.5150   27.1960   43.1200 C   0  0  0  0  0  0  0  0  0  0  0  0
   39.6880   26.8420   43.8260 C   0  0  0  0  0  0  0  0  0  0  0  0
   40.1400   25.5500   43.8090 N   0  0  0  0  0  0  0  0  0  0  0  0
   39.4570   24.6050   43.1080 C   0  0  0  0  0  0  0  0  0  0  0  0
   38.3340   24.8820   42.4150 N   0  0  0  0  0  0  0  0  0  0  0  0
   37.1203   28.7952   40.2045 H   0  0  0  0  0  0  0  0  0  0  0  0
   44.0866   32.8707   39.5392 H   0  0  0  0  0  0  0  0  0  0  0  0
   41.5964   36.7541   39.4267 H   0  0  0  0  0  0  0  0  0  0  0  0
   39.1789   37.3064   39.9086 H   0  0  0  0  0  0  0  0  0  0  0  0
   37.6716   35.4267   40.6180 H   0  0  0  0  0  0  0  0  0  0  0  0
   38.5120   33.1348   40.8306 H   0  0  0  0  0  0  0  0  0  0  0  0
   36.9555   26.3790   41.8575 H   0  0  0  0  0  0  0  0  0  0  0  0
   40.2394   27.6079   44.3911 H   0  0  0  0  0  0  0  0  0  0  0  0
   39.8365   23.5725   43.1065 H   0  0  0  0  0  0  0  0  0  0  0  0
  1 16  1  0
  2  1  2  0
  3  2  1  0
  3  4  1  0
  4  5  2  0
  5  1  1  0
  6  4  1  0
  7  6  2  0
  8  7  1  0
  9  8  2  0
  9 10  1  0
 10 15  2  0
 11 10  1  0
 11 12  2  0
 12 13  1  0
 13 14  2  0
 15  6  1  0
 15 14  1  0
 17 18  2  0
 18 16  1  0
 18 19  1  0
 20 19  2  0
 21 20  1  0
 22 17  1  0
 22 21  2  0
  2 23  1  0
  8 24  1  0
 11 25  1  0
 12 26  1  0
 13 27  1  0
 14 28  1  0
 17 29  1  0
 19 30  1  0
 21 31  1  0
M  ISO  8  23  14  24  14  25  14  26  14  27  14  28  14  29  14  30  14
M  ISO  1  31  14
M  END
>  <minimizedAffinity>  (1) 
-5.7294426

>  <minimizedRMSD>  (1) 
3.13320994

$$$$
