
     RDKit          3D

 27 29  0  0  0  0  0  0  0  0999 V2000
   37.6190   31.5650   40.1650 C   0  0  0  0  0  0  0  0  0  0  0  0
   38.3250   30.9540   39.0830 C   0  0  0  0  0  0  0  0  0  0  0  0
   39.5410   32.3190   38.7040 S   0  0  0  0  0  0  0  0  0  0  0  0
   38.8470   33.4180   40.0720 C   0  0  0  0  0  0  0  0  0  0  0  0
   38.0180   32.7660   40.5020 N   0  0  0  0  0  0  0  0  0  0  0  0
   39.4850   34.7200   40.2330 C   0  0  0  0  0  0  0  0  0  0  0  0
   38.8990   35.9260   39.9610 C   0  0  0  0  0  0  0  0  0  0  0  0
   39.6730   37.0680   40.1780 C   0  0  0  0  0  0  0  0  0  0  0  0
   40.9680   37.0050   40.6440 C   0  0  0  0  0  0  0  0  0  0  0  0
   41.5240   35.7790   40.9070 C   0  0  0  0  0  0  0  0  0  0  0  0
   40.7580   34.6340   40.6920 C   0  0  0  0  0  0  0  0  0  0  0  0
   36.2800   30.5820   40.9070 S   0  0  0  0  0  0  0  0  0  0  0  0
   36.3780   27.9640   41.9390 C   0  0  0  0  0  0  0  0  0  0  0  0
   36.9620   29.2530   41.8920 C   0  0  0  0  0  0  0  0  0  0  0  0
   38.1280   29.4570   42.6660 C   0  0  0  0  0  0  0  0  0  0  0  0
   38.6230   28.4270   43.4040 N   0  0  0  0  0  0  0  0  0  0  0  0
   38.0090   27.2130   43.4030 C   0  0  0  0  0  0  0  0  0  0  0  0
   36.9060   26.9700   42.6890 N   0  0  0  0  0  0  0  0  0  0  0  0
   38.1913   29.9690   38.6120 H   0  0  0  0  0  0  0  0  0  0  0  0
   37.8661   35.9930   39.5887 H   0  0  0  0  0  0  0  0  0  0  0  0
   39.2325   38.0541   39.9692 H   0  0  0  0  0  0  0  0  0  0  0  0
   41.5484   37.9258   40.8030 H   0  0  0  0  0  0  0  0  0  0  0  0
   42.5556   35.7005   41.2808 H   0  0  0  0  0  0  0  0  0  0  0  0
   41.1934   33.6451   40.8980 H   0  0  0  0  0  0  0  0  0  0  0  0
   35.4706   27.7657   41.3497 H   0  0  0  0  0  0  0  0  0  0  0  0
   38.6285   30.4365   42.6712 H   0  0  0  0  0  0  0  0  0  0  0  0
   38.4359   26.4024   44.0118 H   0  0  0  0  0  0  0  0  0  0  0  0
  1  5  1  0
  1 12  1  0
  2  1  2  0
  3  2  1  0
  3  4  1  0
  4  6  1  0
  4  5  2  0
  6 11  2  0
  7  8  2  0
  7  6  1  0
  8  9  1  0
  9 10  2  0
 11 10  1  0
 12 14  1  0
 13 18  2  0
 14 13  1  0
 14 15  2  0
 15 16  1  0
 17 16  2  0
 18 17  1  0
  2 19  1  0
  7 20  1  0
  8 21  1  0
  9 22  1  0
 10 23  1  0
 11 24  1  0
 13 25  1  0
 15 26  1  0
 17 27  1  0
M  ISO  8  19  14  20  14  21  14  22  14  23  14  24  14  25  14  26  14
M  ISO  1  27  14
M  END
>  <minimizedAffinity>  (1) 
-5.30677128

>  <minimizedRMSD>  (1) 
0.335367739

$$$$
