
     RDKit          3D

 24 26  0  0  0  0  0  0  0  0999 V2000
   37.8150   31.8420   40.2360 C   0  0  0  0  0  0  0  0  0  0  0  0
   38.6990   31.1630   39.3250 C   0  0  0  0  0  0  0  0  0  0  0  0
   39.9180   32.5450   38.9870 S   0  0  0  0  0  0  0  0  0  0  0  0
   38.9930   33.7260   40.1290 C   0  0  0  0  0  0  0  0  0  0  0  0
   38.1290   33.0860   40.5020 N   0  0  0  0  0  0  0  0  0  0  0  0
   39.5780   35.0940   40.2470 C   0  0  0  0  0  0  0  0  0  0  0  0
   40.8010   35.4860   40.6660 C   0  0  0  0  0  0  0  0  0  0  0  0
   40.7460   36.8800   40.5500 C   0  0  0  0  0  0  0  0  0  0  0  0
   39.4880   37.2370   40.0660 C   0  0  0  0  0  0  0  0  0  0  0  0
   38.8340   36.0910   39.9080 O   0  0  0  0  0  0  0  0  0  0  0  0
   36.4280   30.8600   40.8590 S   0  0  0  0  0  0  0  0  0  0  0  0
   36.4180   28.1960   41.7630 C   0  0  0  0  0  0  0  0  0  0  0  0
   37.0340   29.4680   41.8080 C   0  0  0  0  0  0  0  0  0  0  0  0
   38.1610   29.5910   42.6430 C   0  0  0  0  0  0  0  0  0  0  0  0
   38.5910   28.5110   43.3470 N   0  0  0  0  0  0  0  0  0  0  0  0
   37.9440   27.3190   43.2510 C   0  0  0  0  0  0  0  0  0  0  0  0
   36.8750   27.1490   42.4760 N   0  0  0  0  0  0  0  0  0  0  0  0
   38.6678   30.1331   38.9397 H   0  0  0  0  0  0  0  0  0  0  0  0
   41.6370   34.8615   41.0139 H   0  0  0  0  0  0  0  0  0  0  0  0
   41.5594   37.5773   40.7991 H   0  0  0  0  0  0  0  0  0  0  0  0
   39.1161   38.2513   39.8590 H   0  0  0  0  0  0  0  0  0  0  0  0
   35.5343   28.0568   41.1230 H   0  0  0  0  0  0  0  0  0  0  0  0
   38.6887   30.5527   42.7248 H   0  0  0  0  0  0  0  0  0  0  0  0
   38.3172   26.4645   43.8346 H   0  0  0  0  0  0  0  0  0  0  0  0
  1  5  1  0
  1 11  1  0
  2  1  2  0
  3  2  1  0
  3  4  1  0
  4  6  1  0
  4  5  2  0
  6  7  2  0
  8  7  1  0
  9  8  2  0
 10  9  1  0
 10  6  1  0
 11 13  1  0
 12 13  2  0
 12 17  1  0
 13 14  1  0
 14 15  2  0
 16 15  1  0
 17 16  2  0
  2 18  1  0
  7 19  1  0
  8 20  1  0
  9 21  1  0
 12 22  1  0
 14 23  1  0
 16 24  1  0
M  ISO  7  18  14  19  14  20  14  21  14  22  14  23  14  24  14
M  END
>  <minimizedAffinity>  (1) 
-5.18698692

>  <minimizedRMSD>  (1) 
0.571017861

$$$$
