
     RDKit          3D

 24 26  0  0  0  0  0  0  0  0999 V2000
   37.9000   31.8340   40.2780 C   0  0  0  0  0  0  0  0  0  0  0  0
   38.6840   31.2110   39.2670 C   0  0  0  0  0  0  0  0  0  0  0  0
   39.9650   32.5510   39.0000 S   0  0  0  0  0  0  0  0  0  0  0  0
   39.1690   33.6570   40.3030 C   0  0  0  0  0  0  0  0  0  0  0  0
   38.2890   33.0270   40.6570 N   0  0  0  0  0  0  0  0  0  0  0  0
   39.8370   34.9960   40.5390 C   0  0  0  0  0  0  0  0  0  0  0  0
   39.2150   36.0800   40.0160 C   0  0  0  0  0  0  0  0  0  0  0  0
   40.0010   37.1150   40.3630 N   0  0  0  0  0  0  0  0  0  0  0  0
   41.0520   36.6260   41.0700 C   0  0  0  0  0  0  0  0  0  0  0  0
   40.9530   35.2680   41.1880 N   0  0  0  0  0  0  0  0  0  0  0  0
   36.4800   30.8770   40.8860 S   0  0  0  0  0  0  0  0  0  0  0  0
   36.3930   28.2000   41.7720 C   0  0  0  0  0  0  0  0  0  0  0  0
   37.0330   29.4690   41.8160 C   0  0  0  0  0  0  0  0  0  0  0  0
   38.1640   29.5610   42.6600 C   0  0  0  0  0  0  0  0  0  0  0  0
   38.5750   28.4700   43.3680 N   0  0  0  0  0  0  0  0  0  0  0  0
   37.9050   27.2890   43.2690 C   0  0  0  0  0  0  0  0  0  0  0  0
   36.8340   27.1550   42.4860 N   0  0  0  0  0  0  0  0  0  0  0  0
   38.5708   30.2294   38.7836 H   0  0  0  0  0  0  0  0  0  0  0  0
   38.2792   36.1075   39.4384 H   0  0  0  0  0  0  0  0  0  0  0  0
   41.8666   37.2356   41.4880 H   0  0  0  0  0  0  0  0  0  0  0  0
   41.5923   34.6171   41.6660 H   0  0  0  0  0  0  0  0  0  0  0  0
   35.5078   28.0719   41.1316 H   0  0  0  0  0  0  0  0  0  0  0  0
   38.7116   30.5112   42.7454 H   0  0  0  0  0  0  0  0  0  0  0  0
   38.2561   26.4233   43.8497 H   0  0  0  0  0  0  0  0  0  0  0  0
  1  5  1  0
  1 11  1  0
  2  1  2  0
  3  2  1  0
  3  4  1  0
  4  6  1  0
  4  5  2  0
  6 10  1  0
  7  8  1  0
  7  6  2  0
  8  9  2  0
  9 10  1  0
 11 13  1  0
 12 13  2  0
 12 17  1  0
 13 14  1  0
 14 15  2  0
 16 15  1  0
 17 16  2  0
  2 18  1  0
  7 19  1  0
  9 20  1  0
 10 21  1  0
 12 22  1  0
 14 23  1  0
 16 24  1  0
M  ISO  7  18  14  19  14  20  14  21   9  22  14  23  14  24  14
M  END
>  <minimizedAffinity>  (1) 
-5.17719746

>  <minimizedRMSD>  (1) 
0.427512974

$$$$
