
     RDKit          3D

 30 32  0  0  0  0  0  0  0  0999 V2000
   37.7680   31.7640   40.2800 C   0  0  0  0  0  0  0  0  0  0  0  0
   38.6340   31.2440   39.2830 C   0  0  0  0  0  0  0  0  0  0  0  0
   39.8200   32.6790   39.1220 S   0  0  0  0  0  0  0  0  0  0  0  0
   38.8980   33.6910   40.4400 C   0  0  0  0  0  0  0  0  0  0  0  0
   38.0640   32.9660   40.7140 N   0  0  0  0  0  0  0  0  0  0  0  0
   39.3990   35.0230   40.7790 C   0  0  0  0  0  0  0  0  0  0  0  0
   38.8500   36.1070   39.8720 C   0  0  0  0  0  0  0  0  0  0  0  0
   39.7380   37.2860   40.2320 C   0  0  0  0  0  0  0  0  0  0  0  0
   41.0130   36.7120   40.7740 C   0  0  0  0  0  0  0  0  0  0  0  0
   40.8770   35.2120   40.5590 C   0  0  0  0  0  0  0  0  0  0  0  0
   36.3970   30.6880   40.7950 S   0  0  0  0  0  0  0  0  0  0  0  0
   36.3680   28.1080   41.9110 C   0  0  0  0  0  0  0  0  0  0  0  0
   37.0060   29.3700   41.8320 C   0  0  0  0  0  0  0  0  0  0  0  0
   38.1540   29.5390   42.6150 C   0  0  0  0  0  0  0  0  0  0  0  0
   38.6010   28.5100   43.4040 N   0  0  0  0  0  0  0  0  0  0  0  0
   37.9410   27.3330   43.4300 C   0  0  0  0  0  0  0  0  0  0  0  0
   36.8430   27.1150   42.7040 N   0  0  0  0  0  0  0  0  0  0  0  0
   38.6131   30.2776   38.7579 H   0  0  0  0  0  0  0  0  0  0  0  0
   39.0996   35.0988   41.8348 H   0  0  0  0  0  0  0  0  0  0  0  0
   37.7934   36.3182   40.0931 H   0  0  0  0  0  0  0  0  0  0  0  0
   38.8645   35.8460   38.8035 H   0  0  0  0  0  0  0  0  0  0  0  0
   39.9447   37.8925   39.3379 H   0  0  0  0  0  0  0  0  0  0  0  0
   39.2507   37.9385   40.9715 H   0  0  0  0  0  0  0  0  0  0  0  0
   41.8811   37.1063   40.2254 H   0  0  0  0  0  0  0  0  0  0  0  0
   41.1718   36.9703   41.8314 H   0  0  0  0  0  0  0  0  0  0  0  0
   41.1743   34.9213   39.5406 H   0  0  0  0  0  0  0  0  0  0  0  0
   41.5148   34.6003   41.2140 H   0  0  0  0  0  0  0  0  0  0  0  0
   35.4625   27.9280   41.3130 H   0  0  0  0  0  0  0  0  0  0  0  0
   38.6968   30.4956   42.5975 H   0  0  0  0  0  0  0  0  0  0  0  0
   38.3217   26.5251   44.0722 H   0  0  0  0  0  0  0  0  0  0  0  0
  1  5  1  0
  1 11  1  0
  2  1  2  0
  3  2  1  0
  3  4  1  0
  4  5  2  0
  4  6  1  0
  7  8  1  0
  7  6  1  0
  8  9  1  0
 10  9  1  0
 10  6  1  0
 11 13  1  0
 12 17  2  0
 13 12  1  0
 13 14  2  0
 14 15  1  0
 15 16  2  0
 17 16  1  0
  2 18  1  0
  6 19  1  0
  7 20  1  0
  7 21  1  0
  8 22  1  0
  8 23  1  0
  9 24  1  0
  9 25  1  0
 10 26  1  0
 10 27  1  0
 12 28  1  0
 14 29  1  0
 16 30  1  0
M  ISO  8  18  14  19  13  20  13  21  13  22  13  23  13  24  13  25  13
M  ISO  5  26  13  27  13  28  14  29  14  30  14
M  END
>  <minimizedAffinity>  (1) 
-5.09997654

>  <minimizedRMSD>  (1) 
0.384248137

$$$$
