
     RDKit          3D

 33 35  0  0  0  0  0  0  0  0999 V2000
   37.9120   31.0620   39.3480 C   0  0  0  0  0  0  0  0  0  0  0  0
   38.6030   30.6190   38.1840 C   0  0  0  0  0  0  0  0  0  0  0  0
   39.9070   31.9500   38.0580 S   0  0  0  0  0  0  0  0  0  0  0  0
   39.2470   32.8230   39.5970 C   0  0  0  0  0  0  0  0  0  0  0  0
   38.3750   32.1580   39.8970 N   0  0  0  0  0  0  0  0  0  0  0  0
   39.8740   34.1060   40.1490 C   0  0  0  0  0  0  0  0  0  0  0  0
   41.0720   34.4950   39.3560 C   0  0  0  0  0  0  0  0  0  0  0  0
   41.2970   35.9490   39.1690 C   0  0  0  0  0  0  0  0  0  0  0  0
   40.6390   36.7520   40.2700 C   0  0  0  0  0  0  0  0  0  0  0  0
   39.1510   36.5290   39.9980 C   0  0  0  0  0  0  0  0  0  0  0  0
   38.8140   35.1320   40.3510 C   0  0  0  0  0  0  0  0  0  0  0  0
   36.5110   30.0360   39.8770 S   0  0  0  0  0  0  0  0  0  0  0  0
   36.2240   28.0310   41.8320 C   0  0  0  0  0  0  0  0  0  0  0  0
   36.8930   29.2210   41.4270 C   0  0  0  0  0  0  0  0  0  0  0  0
   37.8740   29.7380   42.2960 C   0  0  0  0  0  0  0  0  0  0  0  0
   38.1370   29.0920   43.4640 N   0  0  0  0  0  0  0  0  0  0  0  0
   37.4640   27.9580   43.7960 C   0  0  0  0  0  0  0  0  0  0  0  0
   36.5210   27.4270   43.0010 N   0  0  0  0  0  0  0  0  0  0  0  0
   38.4208   29.7438   37.5430 H   0  0  0  0  0  0  0  0  0  0  0  0
   40.2941   33.9568   41.1546 H   0  0  0  0  0  0  0  0  0  0  0  0
   41.9568   34.0821   39.8625 H   0  0  0  0  0  0  0  0  0  0  0  0
   40.8960   34.0950   38.3465 H   0  0  0  0  0  0  0  0  0  0  0  0
   42.3787   36.1484   39.1772 H   0  0  0  0  0  0  0  0  0  0  0  0
   40.8540   36.2486   38.2078 H   0  0  0  0  0  0  0  0  0  0  0  0
   40.9229   36.3727   41.2627 H   0  0  0  0  0  0  0  0  0  0  0  0
   40.9301   37.8128   40.2731 H   0  0  0  0  0  0  0  0  0  0  0  0
   38.5540   37.2209   40.6103 H   0  0  0  0  0  0  0  0  0  0  0  0
   38.9298   36.7136   38.9364 H   0  0  0  0  0  0  0  0  0  0  0  0
   37.9468   34.8365   39.7422 H   0  0  0  0  0  0  0  0  0  0  0  0
   38.6370   35.1479   41.4366 H   0  0  0  0  0  0  0  0  0  0  0  0
   35.4516   27.5967   41.1802 H   0  0  0  0  0  0  0  0  0  0  0  0
   38.4218   30.6548   42.0327 H   0  0  0  0  0  0  0  0  0  0  0  0
   37.6999   27.4590   44.7475 H   0  0  0  0  0  0  0  0  0  0  0  0
  1 12  1  0
  1  5  1  0
  2  1  2  0
  3  2  1  0
  3  4  1  0
  4  5  2  0
  4  6  1  0
  6 11  1  0
  7  6  1  0
  8  7  1  0
  8  9  1  0
 10  9  1  0
 10 11  1  0
 12 14  1  0
 13 18  2  0
 14 13  1  0
 14 15  2  0
 15 16  1  0
 16 17  2  0
 18 17  1  0
  2 19  1  0
  6 20  1  0
  7 21  1  0
  7 22  1  0
  8 23  1  0
  8 24  1  0
  9 25  1  0
  9 26  1  0
 10 27  1  0
 10 28  1  0
 11 29  1  0
 11 30  1  0
 13 31  1  0
 15 32  1  0
 17 33  1  0
M  ISO  8  19  14  20  13  21  13  22  13  23  13  24  13  25  13  26  13
M  ISO  7  27  13  28  13  29  13  30  13  31  14  32  14  33  14
M  END
>  <minimizedAffinity>  (1) 
-5.0604558

>  <minimizedRMSD>  (1) 
1.16609609

$$$$
