
     RDKit          3D

 22 24  0  0  0  0  0  0  0  0999 V2000
   37.9130   31.7830   40.1920 C   0  0  0  0  0  0  0  0  0  0  0  0
   38.6910   31.0150   39.2830 C   0  0  0  0  0  0  0  0  0  0  0  0
   39.9630   32.2900   38.7910 S   0  0  0  0  0  0  0  0  0  0  0  0
   39.1850   33.5940   39.9110 C   0  0  0  0  0  0  0  0  0  0  0  0
   38.3160   33.0170   40.3640 N   0  0  0  0  0  0  0  0  0  0  0  0
   39.5860   35.0360   40.1670 C   0  0  0  0  0  0  0  0  0  0  0  0
   38.8880   36.1590   39.9140 N   0  0  0  0  0  0  0  0  0  0  0  0
   39.6270   37.1570   40.2980 O   0  0  0  0  0  0  0  0  0  0  0  0
   40.7600   36.7380   40.7810 C   0  0  0  0  0  0  0  0  0  0  0  0
   40.7800   35.3920   40.7200 N   0  0  0  0  0  0  0  0  0  0  0  0
   36.5000   30.9400   40.9640 S   0  0  0  0  0  0  0  0  0  0  0  0
   36.4130   28.2380   41.7400 C   0  0  0  0  0  0  0  0  0  0  0  0
   37.0500   29.4960   41.8490 C   0  0  0  0  0  0  0  0  0  0  0  0
   38.1690   29.5600   42.7110 C   0  0  0  0  0  0  0  0  0  0  0  0
   38.5730   28.4390   43.3800 N   0  0  0  0  0  0  0  0  0  0  0  0
   37.9040   27.2660   43.2200 C   0  0  0  0  0  0  0  0  0  0  0  0
   36.8360   27.1510   42.4150 N   0  0  0  0  0  0  0  0  0  0  0  0
   38.5763   29.9692   38.9617 H   0  0  0  0  0  0  0  0  0  0  0  0
   41.5662   37.3754   41.1733 H   0  0  0  0  0  0  0  0  0  0  0  0
   35.5389   28.1432   41.0790 H   0  0  0  0  0  0  0  0  0  0  0  0
   38.7118   30.5077   42.8425 H   0  0  0  0  0  0  0  0  0  0  0  0
   38.2507   26.3789   43.7704 H   0  0  0  0  0  0  0  0  0  0  0  0
  1  5  1  0
  1 11  1  0
  2  1  2  0
  3  2  1  0
  3  4  1  0
  4  6  1  0
  4  5  2  0
  6 10  1  0
  7  6  2  0
  7  8  1  0
  8  9  1  0
 10  9  2  0
 11 13  1  0
 12 13  2  0
 12 17  1  0
 13 14  1  0
 14 15  2  0
 16 15  1  0
 17 16  2  0
  2 18  1  0
  9 19  1  0
 12 20  1  0
 14 21  1  0
 16 22  1  0
M  ISO  5  18  14  19  14  20  14  21  14  22  14
M  END
>  <minimizedAffinity>  (1) 
-4.98966026

>  <minimizedRMSD>  (1) 
0.370305002

$$$$
