
     RDKit          3D

 20 21  0  0  0  0  0  0  0  0999 V2000
   36.3750   30.8180   40.9130 S   0  0  0  0  0  0  0  0  0  0  0  0
   36.4490   28.1440   41.7850 C   0  0  0  0  0  0  0  0  0  0  0  0
   37.0290   29.4350   41.8380 C   0  0  0  0  0  0  0  0  0  0  0  0
   38.1580   29.5930   42.6590 C   0  0  0  0  0  0  0  0  0  0  0  0
   38.6220   28.5070   43.3470 N   0  0  0  0  0  0  0  0  0  0  0  0
   38.0220   27.3020   43.2530 C   0  0  0  0  0  0  0  0  0  0  0  0
   36.9480   27.1040   42.4860 N   0  0  0  0  0  0  0  0  0  0  0  0
   37.7260   31.8030   40.2190 C   0  0  0  0  0  0  0  0  0  0  0  0
   38.6280   31.1060   39.3680 C   0  0  0  0  0  0  0  0  0  0  0  0
   39.8030   32.4880   38.9190 S   0  0  0  0  0  0  0  0  0  0  0  0
   38.8380   33.7260   39.9690 C   0  0  0  0  0  0  0  0  0  0  0  0
   38.0070   33.0700   40.3790 N   0  0  0  0  0  0  0  0  0  0  0  0
   39.1410   35.2140   40.1780 C   0  0  0  0  0  0  0  0  0  0  0  0
   39.3320   35.4310   41.5330 F   0  0  0  0  0  0  0  0  0  0  0  0
   38.1810   35.9980   39.6180 F   0  0  0  0  0  0  0  0  0  0  0  0
   40.3320   35.3830   39.4890 F   0  0  0  0  0  0  0  0  0  0  0  0
   35.5635   27.9837   41.1523 H   0  0  0  0  0  0  0  0  0  0  0  0
   38.6575   30.5692   42.7462 H   0  0  0  0  0  0  0  0  0  0  0  0
   38.4308   26.4568   43.8263 H   0  0  0  0  0  0  0  0  0  0  0  0
   38.6326   30.0499   39.0605 H   0  0  0  0  0  0  0  0  0  0  0  0
  1  3  1  0
  2  3  2  0
  2  7  1  0
  3  4  1  0
  4  5  2  0
  6  5  1  0
  7  6  2  0
  8 12  1  0
  8  1  1  0
  9  8  2  0
 10  9  1  0
 10 11  1  0
 11 13  1  0
 11 12  2  0
 13 14  1  0
 15 13  1  0
 16 13  1  0
  2 17  1  0
  4 18  1  0
  6 19  1  0
  9 20  1  0
M  ISO  4  17  14  18  14  19  14  20  14
M  END
>  <minimizedAffinity>  (1) 
-4.7998848

>  <minimizedRMSD>  (1) 
0.365736663

$$$$
