
     RDKit          3D

 26 27  0  0  0  0  0  0  0  0999 V2000
   36.5600   31.0180   40.8670 S   0  0  0  0  0  0  0  0  0  0  0  0
   36.3950   28.3360   41.7200 C   0  0  0  0  0  0  0  0  0  0  0  0
   37.0800   29.5750   41.7930 C   0  0  0  0  0  0  0  0  0  0  0  0
   38.2100   29.6200   42.6430 C   0  0  0  0  0  0  0  0  0  0  0  0
   38.5710   28.5040   43.3260 N   0  0  0  0  0  0  0  0  0  0  0  0
   37.8610   27.3500   43.2020 C   0  0  0  0  0  0  0  0  0  0  0  0
   36.7820   27.2540   42.4110 N   0  0  0  0  0  0  0  0  0  0  0  0
   38.0090   31.8500   40.1530 C   0  0  0  0  0  0  0  0  0  0  0  0
   38.7140   31.1270   39.1480 C   0  0  0  0  0  0  0  0  0  0  0  0
   40.0620   32.3660   38.7570 S   0  0  0  0  0  0  0  0  0  0  0  0
   39.3920   33.5910   40.0280 C   0  0  0  0  0  0  0  0  0  0  0  0
   38.4920   33.0330   40.4460 N   0  0  0  0  0  0  0  0  0  0  0  0
   39.9610   34.9690   40.3630 C   0  0  0  0  0  0  0  0  0  0  0  0
   38.9510   36.0330   40.0250 C   0  0  0  0  0  0  0  0  0  0  0  0
   41.2090   35.2320   39.5530 C   0  0  0  0  0  0  0  0  0  0  0  0
   35.5106   28.2592   41.0705 H   0  0  0  0  0  0  0  0  0  0  0  0
   38.7895   30.5489   42.7492 H   0  0  0  0  0  0  0  0  0  0  0  0
   38.1831   26.4649   43.7702 H   0  0  0  0  0  0  0  0  0  0  0  0
   38.5220   30.1301   38.7246 H   0  0  0  0  0  0  0  0  0  0  0  0
   40.1991   34.9920   41.4367 H   0  0  0  0  0  0  0  0  0  0  0  0
   38.5447   36.4610   40.9533 H   0  0  0  0  0  0  0  0  0  0  0  0
   39.4366   36.8260   39.4374 H   0  0  0  0  0  0  0  0  0  0  0  0
   38.1338   35.5894   39.4374 H   0  0  0  0  0  0  0  0  0  0  0  0
   42.0559   35.4105   40.2319 H   0  0  0  0  0  0  0  0  0  0  0  0
   41.4251   34.3597   38.9187 H   0  0  0  0  0  0  0  0  0  0  0  0
   41.0546   36.1173   38.9187 H   0  0  0  0  0  0  0  0  0  0  0  0
  1  3  1  0
  2  3  2  0
  2  7  1  0
  3  4  1  0
  4  5  2  0
  6  5  1  0
  7  6  2  0
  8 12  1  0
  8  1  1  0
  9  8  2  0
 10  9  1  0
 10 11  1  0
 11 13  1  0
 11 12  2  0
 14 13  1  0
 15 13  1  0
  2 16  1  0
  4 17  1  0
  6 18  1  0
  9 19  1  0
 13 20  1  0
 14 21  1  0
 14 22  1  0
 14 23  1  0
 15 24  1  0
 15 25  1  0
 15 26  1  0
M  ISO  8  16  14  17  14  18  14  19  14  20   8  21   8  22   8  23   8
M  ISO  3  24   8  25   8  26   8
M  END
>  <minimizedAffinity>  (1) 
-4.38992357

>  <minimizedRMSD>  (1) 
0.661161304

$$$$
