
     RDKit          3D

 26 28  0  0  0  0  0  0  0  0999 V2000
   36.4710   30.5270   39.6310 C   0  0  0  0  0  0  0  0  0  0  0  0
   36.9000   30.1550   38.3520 C   0  0  0  0  0  0  0  0  0  0  0  0
   37.6890   31.7550   37.7810 S   0  0  0  0  0  0  0  0  0  0  0  0
   37.2500   32.5980   39.4510 C   0  0  0  0  0  0  0  0  0  0  0  0
   36.7320   31.7560   39.9900 N   0  0  0  0  0  0  0  0  0  0  0  0
   35.6240   29.2340   40.5770 S   0  0  0  0  0  0  0  0  0  0  0  0
   36.8860   27.1000   41.9020 C   0  0  0  0  0  0  0  0  0  0  0  0
   36.7240   28.4860   41.7540 C   0  0  0  0  0  0  0  0  0  0  0  0
   37.4980   29.2860   42.6100 C   0  0  0  0  0  0  0  0  0  0  0  0
   38.3360   28.7010   43.5060 N   0  0  0  0  0  0  0  0  0  0  0  0
   38.4410   27.3440   43.5920 C   0  0  0  0  0  0  0  0  0  0  0  0
   37.7230   26.5560   42.8000 N   0  0  0  0  0  0  0  0  0  0  0  0
   37.5070   33.9350   39.9060 O   0  0  0  0  0  0  0  0  0  0  0  0
   38.8200   34.3400   40.0980 C   0  0  0  0  0  0  0  0  0  0  0  0
   39.0120   35.7150   40.0660 C   0  0  0  0  0  0  0  0  0  0  0  0
   40.3000   36.2080   40.2510 C   0  0  0  0  0  0  0  0  0  0  0  0
   41.3190   35.3650   40.4540 N   0  0  0  0  0  0  0  0  0  0  0  0
   41.1190   34.0230   40.4830 C   0  0  0  0  0  0  0  0  0  0  0  0
   39.8840   33.5280   40.3080 N   0  0  0  0  0  0  0  0  0  0  0  0
   36.8015   29.1926   37.8286 H   0  0  0  0  0  0  0  0  0  0  0  0
   36.3018   26.4300   41.2541 H   0  0  0  0  0  0  0  0  0  0  0  0
   37.4264   30.3823   42.5556 H   0  0  0  0  0  0  0  0  0  0  0  0
   39.1281   26.8971   44.3256 H   0  0  0  0  0  0  0  0  0  0  0  0
   38.1662   36.3980   39.8984 H   0  0  0  0  0  0  0  0  0  0  0  0
   40.4808   37.2928   40.2303 H   0  0  0  0  0  0  0  0  0  0  0  0
   41.9672   33.3427   40.6495 H   0  0  0  0  0  0  0  0  0  0  0  0
  1  5  1  0
  1  6  1  0
  2  1  2  0
  3  2  1  0
  3  4  1  0
  4 13  1  0
  4  5  2  0
  6  8  1  0
  7 12  2  0
  8  7  1  0
  8  9  2  0
  9 10  1  0
 10 11  2  0
 12 11  1  0
 13 14  1  0
 14 19  1  0
 15 14  2  0
 15 16  1  0
 16 17  2  0
 17 18  1  0
 19 18  2  0
  2 20  1  0
  7 21  1  0
  9 22  1  0
 11 23  1  0
 15 24  1  0
 16 25  1  0
 18 26  1  0
M  ISO  7  20  14  21  14  22  14  23  14  24  14  25  14  26  14
M  END
>  <minimizedAffinity>  (1) 
-5.2809577

>  <minimizedRMSD>  (1) 
1.96920645

$$$$
