
     RDKit          3D

 33 35  0  0  0  0  0  0  0  0999 V2000
   37.7160   31.5640   40.0950 C   0  0  0  0  0  0  0  0  0  0  0  0
   38.1410   30.9880   38.8940 C   0  0  0  0  0  0  0  0  0  0  0  0
   39.4900   32.1640   38.3920 S   0  0  0  0  0  0  0  0  0  0  0  0
   39.2000   33.2310   39.9530 C   0  0  0  0  0  0  0  0  0  0  0  0
   38.3550   32.6520   40.4410 N   0  0  0  0  0  0  0  0  0  0  0  0
   36.3670   30.7160   40.9610 S   0  0  0  0  0  0  0  0  0  0  0  0
   36.3980   28.0890   41.9440 C   0  0  0  0  0  0  0  0  0  0  0  0
   37.0050   29.3520   41.9120 C   0  0  0  0  0  0  0  0  0  0  0  0
   38.1590   29.4900   42.6760 C   0  0  0  0  0  0  0  0  0  0  0  0
   38.6210   28.4290   43.3910 N   0  0  0  0  0  0  0  0  0  0  0  0
   37.9860   27.2320   43.3790 C   0  0  0  0  0  0  0  0  0  0  0  0
   36.8860   27.0640   42.6630 N   0  0  0  0  0  0  0  0  0  0  0  0
   39.8320   34.4390   40.4390 O   0  0  0  0  0  0  0  0  0  0  0  0
   41.6740   35.7590   41.9190 N   0  0  0  0  0  0  0  0  0  0  0  0
   41.0180   36.7860   41.2160 C   0  0  0  0  0  0  0  0  0  0  0  0
   40.7980   36.5090   39.7490 C   0  0  0  0  0  0  0  0  0  0  0  0
   40.7570   35.0140   39.5440 C   0  0  0  0  0  0  0  0  0  0  0  0
   42.1370   34.4780   39.8510 C   0  0  0  0  0  0  0  0  0  0  0  0
   42.5410   34.9020   41.2200 C   0  0  0  0  0  0  0  0  0  0  0  0
   37.7760   30.0841   38.3844 H   0  0  0  0  0  0  0  0  0  0  0  0
   35.4826   27.9300   41.3551 H   0  0  0  0  0  0  0  0  0  0  0  0
   38.6944   30.4505   42.7019 H   0  0  0  0  0  0  0  0  0  0  0  0
   38.3876   26.3945   43.9683 H   0  0  0  0  0  0  0  0  0  0  0  0
   42.2277   36.2080   42.6625 H   0  0  0  0  0  0  0  0  0  0  0  0
   40.0361   36.9481   41.6845 H   0  0  0  0  0  0  0  0  0  0  0  0
   41.6754   37.6663   41.2694 H   0  0  0  0  0  0  0  0  0  0  0  0
   39.8451   36.9539   39.4263 H   0  0  0  0  0  0  0  0  0  0  0  0
   41.6140   36.9482   39.1563 H   0  0  0  0  0  0  0  0  0  0  0  0
   40.4568   34.7728   38.5136 H   0  0  0  0  0  0  0  0  0  0  0  0
   42.1242   33.3794   39.7962 H   0  0  0  0  0  0  0  0  0  0  0  0
   42.8554   34.8734   39.1178 H   0  0  0  0  0  0  0  0  0  0  0  0
   42.6609   33.9909   41.8245 H   0  0  0  0  0  0  0  0  0  0  0  0
   43.4565   35.4931   41.0701 H   0  0  0  0  0  0  0  0  0  0  0  0
  1  5  1  0
  1  6  1  0
  2  1  2  0
  3  2  1  0
  3  4  1  0
  4 13  1  0
  4  5  2  0
  6  8  1  0
  7 12  2  0
  8  7  1  0
  8  9  2  0
  9 10  1  0
 11 10  2  0
 12 11  1  0
 15 14  1  0
 16 15  1  0
 17 16  1  0
 17 18  1  0
 17 13  1  0
 18 19  1  0
 19 14  1  0
  2 20  1  0
  7 21  1  0
  9 22  1  0
 11 23  1  0
 14 24  1  0
 15 25  1  0
 15 26  1  0
 16 27  1  0
 16 28  1  0
 17 29  1  0
 18 30  1  0
 18 31  1  0
 19 32  1  0
 19 33  1  0
M  ISO  8  20  14  21  14  22  14  23  14  24   5  25  13  26  13  27  13
M  ISO  6  28  13  29  13  30  13  31  13  32  13  33  13
M  END
>  <minimizedAffinity>  (1) 
-5.19142342

>  <minimizedRMSD>  (1) 
0.852492213

$$$$
