
     RDKit          3D

 23 25  0  0  0  0  0  0  0  0999 V2000
   36.4550   30.4870   39.6140 C   0  0  0  0  0  0  0  0  0  0  0  0
   36.9480   30.0980   38.3570 C   0  0  0  0  0  0  0  0  0  0  0  0
   37.7150   31.7040   37.7540 S   0  0  0  0  0  0  0  0  0  0  0  0
   37.1890   32.5650   39.3680 C   0  0  0  0  0  0  0  0  0  0  0  0
   36.6780   31.7370   39.9170 N   0  0  0  0  0  0  0  0  0  0  0  0
   35.6260   29.2010   40.5580 S   0  0  0  0  0  0  0  0  0  0  0  0
   36.8970   27.0950   41.9020 C   0  0  0  0  0  0  0  0  0  0  0  0
   36.7430   28.4880   41.7560 C   0  0  0  0  0  0  0  0  0  0  0  0
   37.5150   29.3070   42.5990 C   0  0  0  0  0  0  0  0  0  0  0  0
   38.3470   28.7240   43.4880 N   0  0  0  0  0  0  0  0  0  0  0  0
   38.4620   27.3730   43.5950 C   0  0  0  0  0  0  0  0  0  0  0  0
   37.7420   26.5670   42.8070 N   0  0  0  0  0  0  0  0  0  0  0  0
   37.4030   33.9400   39.7610 O   0  0  0  0  0  0  0  0  0  0  0  0
   38.6810   34.3510   40.0940 C   0  0  0  0  0  0  0  0  0  0  0  0
   39.8150   33.7450   40.4320 N   0  0  0  0  0  0  0  0  0  0  0  0
   40.7700   34.5910   40.6560 O   0  0  0  0  0  0  0  0  0  0  0  0
   40.2570   35.7820   40.4610 C   0  0  0  0  0  0  0  0  0  0  0  0
   38.9470   35.6710   40.1060 N   0  0  0  0  0  0  0  0  0  0  0  0
   36.8984   29.1179   37.8601 H   0  0  0  0  0  0  0  0  0  0  0  0
   36.3112   26.4212   41.2594 H   0  0  0  0  0  0  0  0  0  0  0  0
   37.4423   30.4027   42.5352 H   0  0  0  0  0  0  0  0  0  0  0  0
   39.1518   26.9403   44.3346 H   0  0  0  0  0  0  0  0  0  0  0  0
   40.8039   36.7303   40.5683 H   0  0  0  0  0  0  0  0  0  0  0  0
  1  5  1  0
  1  6  1  0
  2  1  2  0
  3  2  1  0
  3  4  1  0
  4 13  1  0
  4  5  2  0
  6  8  1  0
  7 12  2  0
  8  7  1  0
  8  9  2  0
  9 10  1  0
 10 11  2  0
 12 11  1  0
 13 14  1  0
 14 18  1  0
 14 15  2  0
 15 16  1  0
 17 16  1  0
 18 17  2  0
  2 19  1  0
  7 20  1  0
  9 21  1  0
 11 22  1  0
 17 23  1  0
M  ISO  5  19  14  20  14  21  14  22  14  23  14
M  END
>  <minimizedAffinity>  (1) 
-4.97038126

>  <minimizedRMSD>  (1) 
1.96487045

$$$$
