
     RDKit          3D

 24 26  0  0  0  0  0  0  0  0999 V2000
   36.5130   30.5400   39.6260 C   0  0  0  0  0  0  0  0  0  0  0  0
   36.9900   30.2170   38.3550 C   0  0  0  0  0  0  0  0  0  0  0  0
   37.7500   31.8500   37.8500 S   0  0  0  0  0  0  0  0  0  0  0  0
   37.2390   32.6360   39.5210 C   0  0  0  0  0  0  0  0  0  0  0  0
   36.7280   31.7660   40.0210 N   0  0  0  0  0  0  0  0  0  0  0  0
   35.6790   29.1840   40.4960 S   0  0  0  0  0  0  0  0  0  0  0  0
   36.9190   27.0740   41.8620 C   0  0  0  0  0  0  0  0  0  0  0  0
   36.7560   28.4700   41.7180 C   0  0  0  0  0  0  0  0  0  0  0  0
   37.4850   29.2740   42.5850 C   0  0  0  0  0  0  0  0  0  0  0  0
   38.3060   28.7110   43.5140 N   0  0  0  0  0  0  0  0  0  0  0  0
   38.4250   27.3560   43.6090 C   0  0  0  0  0  0  0  0  0  0  0  0
   37.7450   26.5580   42.8000 N   0  0  0  0  0  0  0  0  0  0  0  0
   37.4370   33.9590   40.0250 O   0  0  0  0  0  0  0  0  0  0  0  0
   38.7590   34.4360   40.1260 C   0  0  0  0  0  0  0  0  0  0  0  0
   39.7820   33.3780   40.4330 C   0  0  0  0  0  0  0  0  0  0  0  0
   41.2830   34.5440   40.4490 S   0  0  0  0  0  0  0  0  0  0  0  0
   40.3040   36.0610   40.0730 C   0  0  0  0  0  0  0  0  0  0  0  0
   38.9300   35.7390   39.9410 N   0  0  0  0  0  0  0  0  0  0  0  0
   36.9345   29.2668   37.8036 H   0  0  0  0  0  0  0  0  0  0  0  0
   36.3637   26.3944   41.1988 H   0  0  0  0  0  0  0  0  0  0  0  0
   37.3988   30.3687   42.5209 H   0  0  0  0  0  0  0  0  0  0  0  0
   39.0935   26.9207   44.3664 H   0  0  0  0  0  0  0  0  0  0  0  0
   39.6921   32.2936   40.5942 H   0  0  0  0  0  0  0  0  0  0  0  0
   40.7260   37.0712   39.9664 H   0  0  0  0  0  0  0  0  0  0  0  0
  1  5  1  0
  1  6  1  0
  2  1  2  0
  3  2  1  0
  3  4  1  0
  4  5  2  0
  4 13  1  0
  6  8  1  0
  7 12  2  0
  8  7  1  0
  8  9  2  0
  9 10  1  0
 10 11  2  0
 12 11  1  0
 13 14  1  0
 14 15  2  0
 15 16  1  0
 17 16  1  0
 18 17  2  0
 18 14  1  0
  2 19  1  0
  7 20  1  0
  9 21  1  0
 11 22  1  0
 15 23  1  0
 17 24  1  0
M  ISO  6  19  14  20  14  21  14  22  14  23  14  24  14
M  END
>  <minimizedAffinity>  (1) 
-4.90502501

>  <minimizedRMSD>  (1) 
1.90009081

$$$$
