
     RDKit          3D

 13 13  0  0  0  0  0  0  0  0999 V2000
   38.8500   28.5730   43.1690 C   0  0  0  0  0  0  0  0  0  0  0  0
   38.2180   29.4780   42.3050 C   0  0  0  0  0  0  0  0  0  0  0  0
   36.9660   29.1380   41.7960 C   0  0  0  0  0  0  0  0  0  0  0  0
   36.4160   27.9510   42.1580 N   0  0  0  0  0  0  0  0  0  0  0  0
   37.0490   27.0920   42.9960 C   0  0  0  0  0  0  0  0  0  0  0  0
   38.2660   27.3990   43.5040 N   0  0  0  0  0  0  0  0  0  0  0  0
   36.1980   29.9870   40.8880 C   0  0  0  0  0  0  0  0  0  0  0  0
   36.0490   29.7550   39.6600 O   0  0  0  0  0  0  0  0  0  0  0  0
   35.5910   31.1340   41.4380 O   0  0  0  0  0  0  0  0  0  0  0  0
   39.8387   28.8216   43.5823 H   0  0  0  0  0  0  0  0  0  0  0  0
   38.6973   30.4308   42.0360 H   0  0  0  0  0  0  0  0  0  0  0  0
   36.5699   26.1390   43.2647 H   0  0  0  0  0  0  0  0  0  0  0  0
   35.0608   31.7386   40.8605 H   0  0  0  0  0  0  0  0  0  0  0  0
  1  6  2  0
  2  1  1  0
  3  4  1  0
  3  2  2  0
  4  5  2  0
  5  6  1  0
  7  9  1  0
  7  3  1  0
  8  7  2  0
  1 10  1  0
  2 11  1  0
  5 12  1  0
  9 13  1  0
M  ISO  4  10  14  11  14  12  14  13   3
M  END
>  <minimizedAffinity>  (1) 
-3.52471614

>  <minimizedRMSD>  (1) 
3.56649923

$$$$
