
     RDKit          3D

 27 28  0  0  0  0  0  0  0  0999 V2000
   36.3980   30.7410   40.8040 S   0  0  0  0  0  0  0  0  0  0  0  0
   36.4170   28.1430   41.8750 C   0  0  0  0  0  0  0  0  0  0  0  0
   37.0160   29.4140   41.8140 C   0  0  0  0  0  0  0  0  0  0  0  0
   38.1610   29.5930   42.6100 C   0  0  0  0  0  0  0  0  0  0  0  0
   38.6120   28.5650   43.3720 N   0  0  0  0  0  0  0  0  0  0  0  0
   37.9720   27.3540   43.3780 C   0  0  0  0  0  0  0  0  0  0  0  0
   36.8960   27.1570   42.6400 N   0  0  0  0  0  0  0  0  0  0  0  0
   37.7470   31.8270   40.2840 C   0  0  0  0  0  0  0  0  0  0  0  0
   38.6640   31.2780   39.3610 C   0  0  0  0  0  0  0  0  0  0  0  0
   39.8290   32.7240   39.1410 S   0  0  0  0  0  0  0  0  0  0  0  0
   38.8110   33.7720   40.3600 C   0  0  0  0  0  0  0  0  0  0  0  0
   37.9900   33.0580   40.6510 N   0  0  0  0  0  0  0  0  0  0  0  0
   39.0150   35.1340   40.8150 O   0  0  0  0  0  0  0  0  0  0  0  0
   39.9920   35.9030   40.1400 C   0  0  0  0  0  0  0  0  0  0  0  0
   41.2740   35.8280   40.9280 C   0  0  0  0  0  0  0  0  0  0  0  0
   39.5310   37.3260   39.9590 C   0  0  0  0  0  0  0  0  0  0  0  0
   35.5188   27.9527   41.2692 H   0  0  0  0  0  0  0  0  0  0  0  0
   38.6871   30.5590   42.6150 H   0  0  0  0  0  0  0  0  0  0  0  0
   38.3591   26.5370   44.0047 H   0  0  0  0  0  0  0  0  0  0  0  0
   38.6866   30.2793   38.9004 H   0  0  0  0  0  0  0  0  0  0  0  0
   40.1592   35.5001   39.1302 H   0  0  0  0  0  0  0  0  0  0  0  0
   41.0445   35.8414   42.0037 H   0  0  0  0  0  0  0  0  0  0  0  0
   41.8043   34.8973   40.6778 H   0  0  0  0  0  0  0  0  0  0  0  0
   41.9092   36.6905   40.6778 H   0  0  0  0  0  0  0  0  0  0  0  0
   39.3804   37.7908   40.9445 H   0  0  0  0  0  0  0  0  0  0  0  0
   40.2924   37.8898   39.4002 H   0  0  0  0  0  0  0  0  0  0  0  0
   38.5836   37.3362   39.4002 H   0  0  0  0  0  0  0  0  0  0  0  0
  1  3  1  0
  2  7  2  0
  3  2  1  0
  3  4  2  0
  4  5  1  0
  5  6  2  0
  7  6  1  0
  8 12  1  0
  8  1  1  0
  9  8  2  0
 10  9  1  0
 10 11  1  0
 11 12  2  0
 11 13  1  0
 14 13  1  0
 14 15  1  0
 16 14  1  0
  2 17  1  0
  4 18  1  0
  6 19  1  0
  9 20  1  0
 14 21  1  0
 15 22  1  0
 15 23  1  0
 15 24  1  0
 16 25  1  0
 16 26  1  0
 16 27  1  0
M  ISO  8  17  14  18  14  19  14  20  14  21   8  22   8  23   8  24   8
M  ISO  3  25   8  26   8  27   8
M  END
>  <minimizedAffinity>  (1) 
-4.56604242

>  <minimizedRMSD>  (1) 
0.266752988

$$$$
