
     RDKit          3D

 41 45  0  0  1  0  0  0  0  0999 V2000
   39.1440   35.1710   40.0750 O   0  0  0  0  0  0  0  0  0  0  0  0
   40.5130   35.5840   40.2450 C   0  0  1  0  0  0  0  0  0  0  0  0
   40.6740   37.0730   40.4760 C   0  0  0  0  0  0  0  0  0  0  0  0
   40.8670   36.0620   41.6210 C   0  0  2  0  0  0  0  0  0  0  0  0
   42.2420   36.0600   42.1270 C   0  0  0  0  0  0  0  0  0  0  0  0
   42.3870   37.0240   43.1360 C   0  0  0  0  0  0  0  0  0  0  0  0
   43.6230   37.2420   43.7510 C   0  0  0  0  0  0  0  0  0  0  0  0
   44.7180   36.5040   43.3670 C   0  0  0  0  0  0  0  0  0  0  0  0
   44.5890   35.5520   42.3790 C   0  0  0  0  0  0  0  0  0  0  0  0
   45.6300   34.7550   41.9350 C   0  0  0  0  0  0  0  0  0  0  0  0
   45.4020   33.8060   40.9330 C   0  0  0  0  0  0  0  0  0  0  0  0
   44.1450   33.6210   40.3470 C   0  0  0  0  0  0  0  0  0  0  0  0
   43.1210   34.4220   40.7990 C   0  0  0  0  0  0  0  0  0  0  0  0
   43.3670   35.3450   41.7800 C   0  0  0  0  0  0  0  0  0  0  0  0
   37.8200   31.8470   40.1890 C   0  0  0  0  0  0  0  0  0  0  0  0
   38.7420   31.1240   39.4010 C   0  0  0  0  0  0  0  0  0  0  0  0
   39.8900   32.5000   38.9540 S   0  0  0  0  0  0  0  0  0  0  0  0
   38.8660   33.7920   39.9430 C   0  0  0  0  0  0  0  0  0  0  0  0
   38.0550   33.1340   40.3340 N   0  0  0  0  0  0  0  0  0  0  0  0
   36.4270   30.9010   40.8960 S   0  0  0  0  0  0  0  0  0  0  0  0
   36.4450   28.2210   41.7190 C   0  0  0  0  0  0  0  0  0  0  0  0
   37.0310   29.5060   41.7930 C   0  0  0  0  0  0  0  0  0  0  0  0
   38.1300   29.6180   42.6290 C   0  0  0  0  0  0  0  0  0  0  0  0
   38.5820   28.5290   43.3160 N   0  0  0  0  0  0  0  0  0  0  0  0
   37.9670   27.3170   43.1960 C   0  0  0  0  0  0  0  0  0  0  0  0
   36.9250   27.1740   42.4150 N   0  0  0  0  0  0  0  0  0  0  0  0
   40.9536   34.8491   39.5552 H   0  0  0  0  0  0  0  0  0  0  0  0
   41.5398   37.6075   40.0579 H   0  0  0  0  0  0  0  0  0  0  0  0
   40.0508   37.9646   40.3128 H   0  0  0  0  0  0  0  0  0  0  0  0
   40.4370   35.8113   42.6019 H   0  0  0  0  0  0  0  0  0  0  0  0
   41.5147   37.6172   43.4478 H   0  0  0  0  0  0  0  0  0  0  0  0
   43.7197   38.0021   44.5403 H   0  0  0  0  0  0  0  0  0  0  0  0
   45.6933   36.6730   43.8467 H   0  0  0  0  0  0  0  0  0  0  0  0
   46.6344   34.8677   42.3692 H   0  0  0  0  0  0  0  0  0  0  0  0
   46.2419   33.1822   40.5932 H   0  0  0  0  0  0  0  0  0  0  0  0
   43.9825   32.8693   39.5605 H   0  0  0  0  0  0  0  0  0  0  0  0
   42.1111   34.3213   40.3747 H   0  0  0  0  0  0  0  0  0  0  0  0
   38.7686   30.0575   39.1329 H   0  0  0  0  0  0  0  0  0  0  0  0
   35.5683   28.0725   41.0714 H   0  0  0  0  0  0  0  0  0  0  0  0
   38.6393   30.5867   42.7392 H   0  0  0  0  0  0  0  0  0  0  0  0
   38.3492   26.4531   43.7595 H   0  0  0  0  0  0  0  0  0  0  0  0
  1  2  1  0
  2  3  1  0
  2  4  1  0
  3  4  1  0
  4  5  1  0
  5  6  2  0
  6  7  1  0
  8  7  2  0
  9  8  1  0
 10  9  2  0
 11 10  1  0
 12 13  1  0
 12 11  2  0
 13 14  2  0
 14  5  1  0
 14  9  1  0
 15 19  1  0
 15 20  1  0
 16 15  2  0
 17 16  1  0
 17 18  1  0
 18  1  1  0
 18 19  2  0
 20 22  1  0
 21 22  2  0
 21 26  1  0
 22 23  1  0
 23 24  2  0
 25 24  1  0
 26 25  2  0
  2 27  1  6
  3 28  1  0
  3 29  1  0
  4 30  1  1
  6 31  1  0
  7 32  1  0
  8 33  1  0
 10 34  1  0
 11 35  1  0
 12 36  1  0
 13 37  1  0
 16 38  1  0
 21 39  1  0
 23 40  1  0
 25 41  1  0
M  ISO  8  27  13  28  13  29  13  30  13  31  14  32  14  33  14  34  14
M  ISO  7  35  14  36  14  37  14  38  14  39  14  40  14  41  14
M  END
>  <minimizedAffinity>  (1) 
-6.79974508

>  <minimizedRMSD>  (1) 
2.45006227

$$$$
