
     RDKit          3D

 38 41  0  0  1  0  0  0  0  0999 V2000
   38.3880   34.8560   39.8890 O   0  0  0  0  0  0  0  0  0  0  0  0
   39.7320   35.3540   39.9820 C   0  0  1  0  0  0  0  0  0  0  0  0
   39.8200   36.8670   39.9130 C   0  0  0  0  0  0  0  0  0  0  0  0
   40.0610   36.1150   41.2290 C   0  0  2  0  0  0  0  0  0  0  0  0
   44.0120   35.9640   42.7200 C   0  0  0  0  0  0  0  0  0  0  0  0
   43.1400   36.9070   43.2220 C   0  0  0  0  0  0  0  0  0  0  0  0
   41.8550   36.9600   42.7400 C   0  0  0  0  0  0  0  0  0  0  0  0
   41.4620   36.0550   41.7510 C   0  0  0  0  0  0  0  0  0  0  0  0
   42.3430   35.1150   41.2560 C   0  0  0  0  0  0  0  0  0  0  0  0
   43.6370   35.0520   41.7320 C   0  0  0  0  0  0  0  0  0  0  0  0
   45.6510   35.8850   43.3220 S   0  0  0  0  0  0  0  0  0  0  0  0
   46.3170   34.6580   42.7610 O   0  0  0  0  0  0  0  0  0  0  0  0
   46.4380   37.0590   42.7720 O   0  0  0  0  0  0  0  0  0  0  0  0
   37.3300   31.4340   40.0510 C   0  0  0  0  0  0  0  0  0  0  0  0
   38.1760   30.8130   39.1070 C   0  0  0  0  0  0  0  0  0  0  0  0
   39.1470   32.2850   38.5580 S   0  0  0  0  0  0  0  0  0  0  0  0
   38.1920   33.4620   39.7390 C   0  0  0  0  0  0  0  0  0  0  0  0
   37.4970   32.7310   40.2110 N   0  0  0  0  0  0  0  0  0  0  0  0
   36.1220   30.3700   40.9150 S   0  0  0  0  0  0  0  0  0  0  0  0
   36.4920   27.8730   42.1360 C   0  0  0  0  0  0  0  0  0  0  0  0
   36.9710   29.1900   41.9170 C   0  0  0  0  0  0  0  0  0  0  0  0
   38.1650   29.5170   42.5440 C   0  0  0  0  0  0  0  0  0  0  0  0
   38.8020   28.5900   43.3150 N   0  0  0  0  0  0  0  0  0  0  0  0
   38.2870   27.3440   43.4830 C   0  0  0  0  0  0  0  0  0  0  0  0
   37.1610   26.9850   42.9120 N   0  0  0  0  0  0  0  0  0  0  0  0
   40.2095   34.5131   39.4577 H   0  0  0  0  0  0  0  0  0  0  0  0
   40.6587   37.3492   39.3896 H   0  0  0  0  0  0  0  0  0  0  0  0
   39.1540   37.6778   39.5828 H   0  0  0  0  0  0  0  0  0  0  0  0
   39.6378   36.1591   42.2434 H   0  0  0  0  0  0  0  0  0  0  0  0
   43.4704   37.6099   44.0009 H   0  0  0  0  0  0  0  0  0  0  0  0
   41.1447   37.7052   43.1276 H   0  0  0  0  0  0  0  0  0  0  0  0
   42.0119   34.4119   40.4775 H   0  0  0  0  0  0  0  0  0  0  0  0
   44.3491   34.3079   41.3457 H   0  0  0  0  0  0  0  0  0  0  0  0
   45.6208   35.8802   44.6917 H   0  0  0  0  0  0  0  0  0  0  0  0
   38.2386   29.7612   38.7911 H   0  0  0  0  0  0  0  0  0  0  0  0
   35.5492   27.5627   41.6619 H   0  0  0  0  0  0  0  0  0  0  0  0
   38.5964   30.5212   42.4194 H   0  0  0  0  0  0  0  0  0  0  0  0
   38.8258   26.6198   44.1117 H   0  0  0  0  0  0  0  0  0  0  0  0
  1  2  1  0
  2  4  1  0
  3  2  1  0
  3  4  1  0
  4  8  1  0
  5  6  2  0
  5 11  1  0
  7  6  1  0
  8  7  2  0
  9 10  2  0
  9  8  1  0
 10  5  1  0
 12 11  2  0
 13 11  2  0
 14 18  1  0
 14 19  1  0
 15 14  2  0
 16 15  1  0
 16 17  1  0
 17  1  1  0
 17 18  2  0
 19 21  1  0
 20 25  2  0
 21 20  1  0
 21 22  2  0
 22 23  1  0
 23 24  2  0
 25 24  1  0
  2 26  1  6
  3 27  1  0
  3 28  1  0
  4 29  1  1
  6 30  1  0
  7 31  1  0
  9 32  1  0
 10 33  1  0
 11 34  1  0
 15 35  1  0
 20 36  1  0
 22 37  1  0
 24 38  1  0
M  ISO  8  26  13  27  13  28  13  29  13  30  14  31  14  32  14  33  14
M  ISO  5  34  11  35  14  36  14  37  14  38  14
M  END
>  <minimizedAffinity>  (1) 
-6.31847

>  <minimizedRMSD>  (1) 
2.6647234

$$$$
