
     RDKit          3D

 39 43  0  0  1  0  0  0  0  0999 V2000
   39.8280   30.4080   39.1030 C   0  0  1  0  0  0  0  0  0  0  0  0
   40.9450   29.3830   39.1550 C   0  0  0  0  0  0  0  0  0  0  0  0
   40.3860   30.0200   40.4380 C   0  0  2  0  0  0  0  0  0  0  0  0
   39.4520   29.1580   41.2440 C   0  0  0  0  0  0  0  0  0  0  0  0
   38.1200   29.1850   40.9960 N   0  0  0  0  0  0  0  0  0  0  0  0
   37.2530   28.4220   41.7040 C   0  0  0  0  0  0  0  0  0  0  0  0
   37.6820   27.6060   42.6820 N   0  0  0  0  0  0  0  0  0  0  0  0
   39.0130   27.5600   42.9510 C   0  0  0  0  0  0  0  0  0  0  0  0
   39.4300   26.7140   43.9610 C   0  0  0  0  0  0  0  0  0  0  0  0
   40.7990   26.6880   44.2150 C   0  0  0  0  0  0  0  0  0  0  0  0
   41.7110   27.4480   43.5170 C   0  0  0  0  0  0  0  0  0  0  0  0
   41.2510   28.2670   42.5300 C   0  0  0  0  0  0  0  0  0  0  0  0
   39.9070   28.3360   42.2340 C   0  0  0  0  0  0  0  0  0  0  0  0
   40.2350   31.6850   38.6020 O   0  0  0  0  0  0  0  0  0  0  0  0
   39.8910   34.8980   40.1400 C   0  0  0  0  0  0  0  0  0  0  0  0
   38.5790   34.8520   40.6510 C   0  0  0  0  0  0  0  0  0  0  0  0
   38.0990   33.1480   40.1080 S   0  0  0  0  0  0  0  0  0  0  0  0
   39.8110   32.8460   39.2830 C   0  0  0  0  0  0  0  0  0  0  0  0
   40.2710   33.8260   39.5230 N   0  0  0  0  0  0  0  0  0  0  0  0
   40.8290   36.4370   40.4210 S   0  0  0  0  0  0  0  0  0  0  0  0
   42.2200   37.0170   42.7880 C   0  0  0  0  0  0  0  0  0  0  0  0
   42.0600   36.1820   41.6620 C   0  0  0  0  0  0  0  0  0  0  0  0
   42.9540   35.1140   41.5800 C   0  0  0  0  0  0  0  0  0  0  0  0
   43.8910   34.9350   42.5400 N   0  0  0  0  0  0  0  0  0  0  0  0
   43.9910   35.7850   43.6060 C   0  0  0  0  0  0  0  0  0  0  0  0
   43.1710   36.7990   43.7210 N   0  0  0  0  0  0  0  0  0  0  0  0
   38.8117   30.4388   38.6833 H   0  0  0  0  0  0  0  0  0  0  0  0
   40.7384   28.3271   38.9259 H   0  0  0  0  0  0  0  0  0  0  0  0
   41.9403   29.2824   38.6976 H   0  0  0  0  0  0  0  0  0  0  0  0
   40.8385   30.5432   41.2933 H   0  0  0  0  0  0  0  0  0  0  0  0
   36.1784   28.4712   41.4743 H   0  0  0  0  0  0  0  0  0  0  0  0
   38.7210   26.0963   44.5318 H   0  0  0  0  0  0  0  0  0  0  0  0
   41.1703   26.0277   45.0126 H   0  0  0  0  0  0  0  0  0  0  0  0
   42.7846   27.3952   43.7506 H   0  0  0  0  0  0  0  0  0  0  0  0
   41.9633   28.8824   41.9609 H   0  0  0  0  0  0  0  0  0  0  0  0
   38.0069   35.6076   41.2094 H   0  0  0  0  0  0  0  0  0  0  0  0
   41.5452   37.8771   42.9101 H   0  0  0  0  0  0  0  0  0  0  0  0
   42.8971   34.4152   40.7324 H   0  0  0  0  0  0  0  0  0  0  0  0
   44.7638   35.6162   44.3704 H   0  0  0  0  0  0  0  0  0  0  0  0
  1  2  1  0
  1  3  1  0
  2  3  1  0
  3  4  1  0
  4 13  1  0
  5  4  2  0
  5  6  1  0
  6  7  2  0
  7  8  1  0
  8  9  2  0
  9 10  1  0
 11 10  2  0
 12 11  1  0
 13 12  2  0
 13  8  1  0
 14  1  1  0
 14 18  1  0
 15 20  1  0
 15 16  2  0
 17 16  1  0
 18 19  2  0
 18 17  1  0
 19 15  1  0
 20 22  1  0
 21 26  2  0
 22 21  1  0
 23 22  2  0
 23 24  1  0
 24 25  2  0
 25 26  1  0
  1 27  1  1
  2 28  1  0
  2 29  1  0
  3 30  1  1
  6 31  1  0
  9 32  1  0
 10 33  1  0
 11 34  1  0
 12 35  1  0
 16 36  1  0
 21 37  1  0
 23 38  1  0
 25 39  1  0
M  ISO  8  27  13  28  13  29  13  30  13  31  14  32  14  33  14  34  14
M  ISO  5  35  14  36  14  37  14  38  14  39  14
M  END
>  <minimizedAffinity>  (1) 
-6.03354025

>  <minimizedRMSD>  (1) 
9.21600819

$$$$
