
     RDKit          3D

 32 35  0  0  1  0  0  0  0  0999 V2000
   37.6230   31.6500   40.2010 C   0  0  0  0  0  0  0  0  0  0  0  0
   38.4820   30.9490   39.3270 C   0  0  0  0  0  0  0  0  0  0  0  0
   39.5800   32.3380   38.8050 S   0  0  0  0  0  0  0  0  0  0  0  0
   38.6320   33.6080   39.8950 C   0  0  0  0  0  0  0  0  0  0  0  0
   37.8800   32.9140   40.3230 N   0  0  0  0  0  0  0  0  0  0  0  0
   36.2990   30.6820   41.0040 S   0  0  0  0  0  0  0  0  0  0  0  0
   36.4720   28.0030   41.8130 C   0  0  0  0  0  0  0  0  0  0  0  0
   36.9920   29.3190   41.8850 C   0  0  0  0  0  0  0  0  0  0  0  0
   38.1020   29.4920   42.7060 C   0  0  0  0  0  0  0  0  0  0  0  0
   38.6260   28.4340   43.3820 N   0  0  0  0  0  0  0  0  0  0  0  0
   38.0770   27.1850   43.2690 C   0  0  0  0  0  0  0  0  0  0  0  0
   37.0230   26.9770   42.5010 N   0  0  0  0  0  0  0  0  0  0  0  0
   38.9140   34.9850   40.0170 O   0  0  0  0  0  0  0  0  0  0  0  0
   40.2660   35.3980   40.2340 C   0  0  1  0  0  0  0  0  0  0  0  0
   40.5500   36.8180   39.7700 C   0  0  0  0  0  0  0  0  0  0  0  0
   40.4650   36.4670   41.2640 C   0  0  2  0  0  0  0  0  0  0  0  0
   41.7490   36.4360   42.0390 C   0  0  0  0  0  0  0  0  0  0  0  0
   42.7230   35.4950   41.8260 C   0  0  0  0  0  0  0  0  0  0  0  0
   43.7260   35.7840   42.7050 N   0  0  0  0  0  0  0  0  0  0  0  0
   43.3620   36.8740   43.4310 C   0  0  0  0  0  0  0  0  0  0  0  0
   42.1430   37.2680   43.0120 N   0  0  0  0  0  0  0  0  0  0  0  0
   38.4936   29.8869   39.0410 H   0  0  0  0  0  0  0  0  0  0  0  0
   35.5942   27.8099   41.1788 H   0  0  0  0  0  0  0  0  0  0  0  0
   38.5576   30.4879   42.8089 H   0  0  0  0  0  0  0  0  0  0  0  0
   38.5190   26.3447   43.8245 H   0  0  0  0  0  0  0  0  0  0  0  0
   40.7207   34.4105   40.0662 H   0  0  0  0  0  0  0  0  0  0  0  0
   41.5194   37.0681   39.3143 H   0  0  0  0  0  0  0  0  0  0  0  0
   40.0561   37.5402   39.1033 H   0  0  0  0  0  0  0  0  0  0  0  0
   39.8836   36.8450   42.1178 H   0  0  0  0  0  0  0  0  0  0  0  0
   42.7005   34.6735   41.0948 H   0  0  0  0  0  0  0  0  0  0  0  0
   43.9583   37.3513   44.2225 H   0  0  0  0  0  0  0  0  0  0  0  0
   41.6078   38.0691   43.3764 H   0  0  0  0  0  0  0  0  0  0  0  0
  1  5  1  0
  1  6  1  0
  2  1  2  0
  3  2  1  0
  3  4  1  0
  4 13  1  0
  4  5  2  0
  6  8  1  0
  7  8  2  0
  7 12  1  0
  8  9  1  0
  9 10  2  0
 11 10  1  0
 12 11  2  0
 13 14  1  0
 14 16  1  0
 15 14  1  0
 15 16  1  0
 16 17  1  0
 17 21  1  0
 18 17  2  0
 18 19  1  0
 19 20  2  0
 21 20  1  0
  2 22  1  0
  7 23  1  0
  9 24  1  0
 11 25  1  0
 14 26  1  1
 15 27  1  0
 15 28  1  0
 16 29  1  1
 18 30  1  0
 20 31  1  0
 21 32  1  0
M  ISO  8  22  14  23  14  24  14  25  14  26  13  27  13  28  13  29  13
M  ISO  3  30  14  31  14  32   9
M  END
>  <minimizedAffinity>  (1) 
-5.99675369

>  <minimizedRMSD>  (1) 
1.56580079

$$$$
