
     RDKit          3D

 35 38  0  0  1  0  0  0  0  0999 V2000
   38.6170   31.5260   39.1840 O   0  0  0  0  0  0  0  0  0  0  0  0
   39.9890   31.2370   38.9470 C   0  0  1  0  0  0  0  0  0  0  0  0
   40.5600   31.8910   37.7050 C   0  0  0  0  0  0  0  0  0  0  0  0
   40.9440   32.3760   39.1130 C   0  0  1  0  0  0  0  0  0  0  0  0
   40.4240   33.7160   39.5010 C   0  0  0  0  0  0  0  0  0  0  0  0
   41.2580   34.8040   39.2410 C   0  0  0  0  0  0  0  0  0  0  0  0
   40.9190   36.1190   39.5400 C   0  0  0  0  0  0  0  0  0  0  0  0
   39.6940   36.3780   40.1250 C   0  0  0  0  0  0  0  0  0  0  0  0
   38.8680   35.3070   40.3840 C   0  0  0  0  0  0  0  0  0  0  0  0
   39.2130   34.0060   40.0850 C   0  0  0  0  0  0  0  0  0  0  0  0
   37.2530   29.3490   41.6720 C   0  0  0  0  0  0  0  0  0  0  0  0
   36.0380   28.9370   41.0830 C   0  0  0  0  0  0  0  0  0  0  0  0
   36.1480   29.8660   39.4880 S   0  0  0  0  0  0  0  0  0  0  0  0
   37.8480   30.6330   39.9610 C   0  0  0  0  0  0  0  0  0  0  0  0
   37.9610   30.1620   40.9570 N   0  0  0  0  0  0  0  0  0  0  0  0
   37.6260   28.6850   43.3320 S   0  0  0  0  0  0  0  0  0  0  0  0
   37.7930   26.0320   42.4380 C   0  0  0  0  0  0  0  0  0  0  0  0
   38.3640   27.0870   43.1940 C   0  0  0  0  0  0  0  0  0  0  0  0
   39.5630   26.7960   43.8370 C   0  0  0  0  0  0  0  0  0  0  0  0
   40.1180   25.5560   43.7190 N   0  0  0  0  0  0  0  0  0  0  0  0
   39.5160   24.5910   42.9790 C   0  0  0  0  0  0  0  0  0  0  0  0
   38.3820   24.8120   42.3500 N   0  0  0  0  0  0  0  0  0  0  0  0
   39.9519   30.2121   39.3448 H   0  0  0  0  0  0  0  0  0  0  0  0
   41.2936   31.3553   37.0847 H   0  0  0  0  0  0  0  0  0  0  0  0
   40.1429   32.3570   36.8001 H   0  0  0  0  0  0  0  0  0  0  0  0
   41.8725   32.5087   39.6877 H   0  0  0  0  0  0  0  0  0  0  0  0
   42.2355   34.6113   38.7748 H   0  0  0  0  0  0  0  0  0  0  0  0
   41.6151   36.9404   39.3144 H   0  0  0  0  0  0  0  0  0  0  0  0
   39.3891   37.4048   40.3753 H   0  0  0  0  0  0  0  0  0  0  0  0
   37.8900   35.4978   40.8499 H   0  0  0  0  0  0  0  0  0  0  0  0
   38.5117   33.1907   40.3162 H   0  0  0  0  0  0  0  0  0  0  0  0
   35.2561   28.2621   41.4614 H   0  0  0  0  0  0  0  0  0  0  0  0
   36.8454   26.2071   41.9075 H   0  0  0  0  0  0  0  0  0  0  0  0
   40.0637   27.5669   44.4411 H   0  0  0  0  0  0  0  0  0  0  0  0
   39.9876   23.6001   42.9033 H   0  0  0  0  0  0  0  0  0  0  0  0
  1 14  1  0
  2  4  1  0
  2  1  1  0
  3  2  1  0
  3  4  1  0
  4  5  1  0
  5 10  1  0
  6  5  2  0
  6  7  1  0
  7  8  2  0
  8  9  1  0
 10  9  2  0
 11 16  1  0
 12 11  2  0
 13 14  1  0
 13 12  1  0
 14 15  2  0
 15 11  1  0
 17 18  2  0
 18 16  1  0
 18 19  1  0
 20 19  2  0
 21 20  1  0
 22 17  1  0
 22 21  2  0
  2 23  1  1
  3 24  1  0
  3 25  1  0
  4 26  1  1
  6 27  1  0
  7 28  1  0
  8 29  1  0
  9 30  1  0
 10 31  1  0
 12 32  1  0
 17 33  1  0
 19 34  1  0
 21 35  1  0
M  ISO  8  23  13  24  13  25  13  26  13  27  14  28  14  29  14  30  14
M  ISO  5  31  14  32  14  33  14  34  14  35  14
M  END
>  <minimizedAffinity>  (1) 
-5.55677938

>  <minimizedRMSD>  (1) 
3.76292181

$$$$
