
     RDKit          3D

 37 40  0  0  1  0  0  0  0  0999 V2000
   37.5220   31.6100   40.1540 C   0  0  0  0  0  0  0  0  0  0  0  0
   38.5330   31.0570   39.3410 C   0  0  0  0  0  0  0  0  0  0  0  0
   39.5380   32.5740   39.0230 S   0  0  0  0  0  0  0  0  0  0  0  0
   38.3620   33.6720   40.0760 C   0  0  0  0  0  0  0  0  0  0  0  0
   37.6480   32.8810   40.3710 N   0  0  0  0  0  0  0  0  0  0  0  0
   36.2230   30.4790   40.7580 S   0  0  0  0  0  0  0  0  0  0  0  0
   36.4200   27.9450   41.9410 C   0  0  0  0  0  0  0  0  0  0  0  0
   36.9300   29.2550   41.8150 C   0  0  0  0  0  0  0  0  0  0  0  0
   38.0520   29.5370   42.5900 C   0  0  0  0  0  0  0  0  0  0  0  0
   38.5820   28.5820   43.3980 N   0  0  0  0  0  0  0  0  0  0  0  0
   38.0360   27.3320   43.4730 C   0  0  0  0  0  0  0  0  0  0  0  0
   36.9690   27.0230   42.7520 N   0  0  0  0  0  0  0  0  0  0  0  0
   38.4880   35.0580   40.3140 O   0  0  0  0  0  0  0  0  0  0  0  0
   39.7400   35.6960   40.0170 C   0  0  1  0  0  0  0  0  0  0  0  0
   39.7170   37.2010   40.1860 C   0  0  0  0  0  0  0  0  0  0  0  0
   40.4530   36.3000   41.1870 C   0  0  2  0  0  0  0  0  0  0  0  0
   41.8940   36.2010   41.0990 N   0  0  0  0  0  0  0  0  0  0  0  0
   42.2240   34.8930   40.6110 C   0  0  0  0  0  0  0  0  0  0  0  0
   42.8660   34.1390   41.7450 C   0  0  0  0  0  0  0  0  0  0  0  0
   43.4440   35.2280   42.6050 C   0  0  0  0  0  0  0  0  0  0  0  0
   42.5770   36.4350   42.3310 C   0  0  0  0  0  0  0  0  0  0  0  0
   38.6803   30.0228   38.9964 H   0  0  0  0  0  0  0  0  0  0  0  0
   35.5351   27.6659   41.3503 H   0  0  0  0  0  0  0  0  0  0  0  0
   38.5106   30.5360   42.5479 H   0  0  0  0  0  0  0  0  0  0  0  0
   38.4852   26.5779   44.1360 H   0  0  0  0  0  0  0  0  0  0  0  0
   40.0388   35.0028   39.2169 H   0  0  0  0  0  0  0  0  0  0  0  0
   40.2858   37.8438   39.4980 H   0  0  0  0  0  0  0  0  0  0  0  0
   38.9346   37.9714   40.2516 H   0  0  0  0  0  0  0  0  0  0  0  0
   40.4236   36.2154   42.2834 H   0  0  0  0  0  0  0  0  0  0  0  0
   41.3121   34.3731   40.2822 H   0  0  0  0  0  0  0  0  0  0  0  0
   42.9079   34.9597   39.7521 H   0  0  0  0  0  0  0  0  0  0  0  0
   42.1191   33.5533   42.3009 H   0  0  0  0  0  0  0  0  0  0  0  0
   43.6205   33.4140   41.4057 H   0  0  0  0  0  0  0  0  0  0  0  0
   43.3960   34.9493   43.6680 H   0  0  0  0  0  0  0  0  0  0  0  0
   44.5039   35.4175   42.3797 H   0  0  0  0  0  0  0  0  0  0  0  0
   43.2026   37.3360   42.2486 H   0  0  0  0  0  0  0  0  0  0  0  0
   41.8585   36.5902   43.1493 H   0  0  0  0  0  0  0  0  0  0  0  0
  1  5  1  0
  1  6  1  0
  2  1  2  0
  3  2  1  0
  3  4  1  0
  4 13  1  0
  4  5  2  0
  6  8  1  0
  7 12  2  0
  8  7  1  0
  8  9  2  0
  9 10  1  0
 10 11  2  0
 12 11  1  0
 14 15  1  0
 14 13  1  0
 14 16  1  0
 15 16  1  0
 17 18  1  0
 17 16  1  0
 17 21  1  0
 18 19  1  0
 19 20  1  0
 21 20  1  0
  2 22  1  0
  7 23  1  0
  9 24  1  0
 11 25  1  0
 14 26  1  6
 15 27  1  0
 15 28  1  0
 16 29  1  1
 18 30  1  0
 18 31  1  0
 19 32  1  0
 19 33  1  0
 20 34  1  0
 20 35  1  0
 21 36  1  0
 21 37  1  0
M  ISO  8  22  14  23  14  24  14  25  14  26  13  27  13  28  13  29  13
M  ISO  8  30  13  31  13  32  13  33  13  34  13  35  13  36  13  37  13
M  END
>  <minimizedAffinity>  (1) 
-5.46723032

>  <minimizedRMSD>  (1) 
1.51554561

$$$$
