
     RDKit          3D

 38 41  0  0  1  0  0  0  0  0999 V2000
   37.0430   29.0620   42.1230 C   0  0  0  0  0  0  0  0  0  0  0  0
   36.0110   28.7500   41.2110 C   0  0  0  0  0  0  0  0  0  0  0  0
   36.2870   30.0990   39.9780 S   0  0  0  0  0  0  0  0  0  0  0  0
   37.7660   30.8190   40.9720 C   0  0  0  0  0  0  0  0  0  0  0  0
   37.7880   30.1060   41.8280 N   0  0  0  0  0  0  0  0  0  0  0  0
   37.1970   27.9780   43.5840 S   0  0  0  0  0  0  0  0  0  0  0  0
   38.1520   25.6440   42.3750 C   0  0  0  0  0  0  0  0  0  0  0  0
   38.3820   26.7060   43.2770 C   0  0  0  0  0  0  0  0  0  0  0  0
   39.6100   26.7040   43.9240 C   0  0  0  0  0  0  0  0  0  0  0  0
   40.5120   25.7150   43.6750 N   0  0  0  0  0  0  0  0  0  0  0  0
   40.2360   24.7110   42.7920 C   0  0  0  0  0  0  0  0  0  0  0  0
   39.0890   24.6780   42.1620 N   0  0  0  0  0  0  0  0  0  0  0  0
   38.5490   31.9500   40.6310 O   0  0  0  0  0  0  0  0  0  0  0  0
   39.9260   31.9730   41.0320 C   0  0  1  0  0  0  0  0  0  0  0  0
   40.9000   31.8190   39.8800 C   0  0  0  0  0  0  0  0  0  0  0  0
   40.7280   33.1530   40.6200 C   0  0  1  0  0  0  0  0  0  0  0  0
   40.1310   34.3200   39.9340 C   0  0  0  0  0  0  0  0  0  0  0  0
   41.0940   35.3220   39.3980 C   0  0  0  0  0  0  0  0  0  0  0  0
   40.6110   36.6890   39.8990 C   0  0  0  0  0  0  0  0  0  0  0  0
   39.1070   36.4140   39.9910 C   0  0  0  0  0  0  0  0  0  0  0  0
   39.1410   35.0950   40.7540 C   0  0  0  0  0  0  0  0  0  0  0  0
   35.2639   27.9429   41.2290 H   0  0  0  0  0  0  0  0  0  0  0  0
   37.1961   25.5956   41.8329 H   0  0  0  0  0  0  0  0  0  0  0  0
   39.8549   27.5030   44.6393 H   0  0  0  0  0  0  0  0  0  0  0  0
   40.9827   23.9243   42.6087 H   0  0  0  0  0  0  0  0  0  0  0  0
   39.7626   31.4756   41.9994 H   0  0  0  0  0  0  0  0  0  0  0  0
   40.5286   31.7034   38.8511 H   0  0  0  0  0  0  0  0  0  0  0  0
   41.7420   31.1517   39.6438 H   0  0  0  0  0  0  0  0  0  0  0  0
   41.3910   33.8505   41.1528 H   0  0  0  0  0  0  0  0  0  0  0  0
   39.6301   33.8066   39.1000 H   0  0  0  0  0  0  0  0  0  0  0  0
   41.0969   35.2980   38.2983 H   0  0  0  0  0  0  0  0  0  0  0  0
   42.1203   35.1115   39.7334 H   0  0  0  0  0  0  0  0  0  0  0  0
   41.0418   36.9414   40.8792 H   0  0  0  0  0  0  0  0  0  0  0  0
   40.8907   37.5432   39.2649 H   0  0  0  0  0  0  0  0  0  0  0  0
   38.5794   37.1995   40.5519 H   0  0  0  0  0  0  0  0  0  0  0  0
   38.5756   36.3854   39.0283 H   0  0  0  0  0  0  0  0  0  0  0  0
   38.1548   34.6080   40.7643 H   0  0  0  0  0  0  0  0  0  0  0  0
   39.4068   35.1910   41.8171 H   0  0  0  0  0  0  0  0  0  0  0  0
  1  6  1  0
  2  1  2  0
  3  4  1  0
  3  2  1  0
  4  5  2  0
  5  1  1  0
  7  8  2  0
  8  6  1  0
  8  9  1  0
 10  9  2  0
 11 10  1  0
 12  7  1  0
 12 11  2  0
 13  4  1  0
 13 14  1  0
 15 16  1  0
 15 14  1  0
 16 14  1  0
 17 16  1  0
 17 21  1  0
 18 19  1  0
 18 17  1  0
 19 20  1  0
 20 21  1  0
  2 22  1  0
  7 23  1  0
  9 24  1  0
 11 25  1  0
 14 26  1  1
 15 27  1  0
 15 28  1  0
 16 29  1  1
 17 30  1  0
 18 31  1  0
 18 32  1  0
 19 33  1  0
 19 34  1  0
 20 35  1  0
 20 36  1  0
 21 37  1  0
 21 38  1  0
M  ISO  8  22  14  23  14  24  14  25  14  26  13  27  13  28  13  29  13
M  ISO  8  30  13  31  13  32  13  33  13  34  13  35  13  36  13  37  13
M  ISO  1  38  13
M  END
>  <minimizedAffinity>  (1) 
-5.39259958

>  <minimizedRMSD>  (1) 
3.59944129

$$$$
