
     RDKit          3D

 38 41  0  0  1  0  0  0  0  0999 V2000
   36.9430   30.7500   39.2850 C   0  0  0  0  0  0  0  0  0  0  0  0
   36.2150   29.9960   38.3410 C   0  0  0  0  0  0  0  0  0  0  0  0
   37.2280   30.3370   36.8350 S   0  0  0  0  0  0  0  0  0  0  0  0
   38.4520   31.4540   37.8100 C   0  0  0  0  0  0  0  0  0  0  0  0
   37.9770   31.3630   38.8020 N   0  0  0  0  0  0  0  0  0  0  0  0
   36.3290   30.7480   41.0040 S   0  0  0  0  0  0  0  0  0  0  0  0
   36.5030   28.1510   42.0390 C   0  0  0  0  0  0  0  0  0  0  0  0
   37.0860   29.4340   41.9110 C   0  0  0  0  0  0  0  0  0  0  0  0
   38.3110   29.6120   42.5480 C   0  0  0  0  0  0  0  0  0  0  0  0
   38.8800   28.5830   43.2430 N   0  0  0  0  0  0  0  0  0  0  0  0
   38.2590   27.3780   43.3230 C   0  0  0  0  0  0  0  0  0  0  0  0
   37.1040   27.1540   42.7420 N   0  0  0  0  0  0  0  0  0  0  0  0
   39.5770   32.1310   37.3010 O   0  0  0  0  0  0  0  0  0  0  0  0
   40.8650   31.8770   37.8770 C   0  0  1  0  0  0  0  0  0  0  0  0
   41.9520   32.8020   37.3630 C   0  0  0  0  0  0  0  0  0  0  0  0
   41.4150   32.9370   38.7750 C   0  0  1  0  0  0  0  0  0  0  0  0
   40.5810   34.0480   39.1500 N   0  0  0  0  0  0  0  0  0  0  0  0
   41.3350   35.3010   39.1690 C   0  0  0  0  0  0  0  0  0  0  0  0
   40.5580   36.2210   40.1160 C   0  0  0  0  0  0  0  0  0  0  0  0
   39.2030   35.9740   39.9010 O   0  0  0  0  0  0  0  0  0  0  0  0
   38.8530   34.8210   40.6420 C   0  0  0  0  0  0  0  0  0  0  0  0
   39.9550   33.8310   40.4490 C   0  0  0  0  0  0  0  0  0  0  0  0
   35.3093   29.3842   38.4654 H   0  0  0  0  0  0  0  0  0  0  0  0
   35.5348   27.9542   41.5554 H   0  0  0  0  0  0  0  0  0  0  0  0
   38.8223   30.5843   42.4914 H   0  0  0  0  0  0  0  0  0  0  0  0
   38.7378   26.5667   43.8910 H   0  0  0  0  0  0  0  0  0  0  0  0
   40.7297   30.7901   37.9784 H   0  0  0  0  0  0  0  0  0  0  0  0
   42.9689   32.4188   37.1927 H   0  0  0  0  0  0  0  0  0  0  0  0
   42.0651   33.4747   36.5000 H   0  0  0  0  0  0  0  0  0  0  0  0
   41.8803   32.9576   39.7715 H   0  0  0  0  0  0  0  0  0  0  0  0
   42.3548   35.1322   39.5452 H   0  0  0  0  0  0  0  0  0  0  0  0
   41.4365   35.7358   38.1637 H   0  0  0  0  0  0  0  0  0  0  0  0
   40.8218   35.9983   41.1604 H   0  0  0  0  0  0  0  0  0  0  0  0
   40.8004   37.2769   39.9252 H   0  0  0  0  0  0  0  0  0  0  0  0
   38.7526   35.0724   41.7082 H   0  0  0  0  0  0  0  0  0  0  0  0
   37.8908   34.4109   40.3016 H   0  0  0  0  0  0  0  0  0  0  0  0
   39.5439   32.8116   40.4923 H   0  0  0  0  0  0  0  0  0  0  0  0
   40.7052   33.9577   41.2434 H   0  0  0  0  0  0  0  0  0  0  0  0
  1  6  1  0
  2  1  2  0
  3  4  1  0
  3  2  1  0
  4  5  2  0
  5  1  1  0
  6  8  1  0
  7 12  2  0
  8  7  1  0
  8  9  2  0
  9 10  1  0
 10 11  2  0
 12 11  1  0
 13  4  1  0
 13 14  1  0
 14 16  1  0
 15 14  1  0
 15 16  1  0
 16 17  1  0
 17 18  1  0
 17 22  1  0
 18 19  1  0
 20 19  1  0
 20 21  1  0
 22 21  1  0
  2 23  1  0
  7 24  1  0
  9 25  1  0
 11 26  1  0
 14 27  1  1
 15 28  1  0
 15 29  1  0
 16 30  1  1
 18 31  1  0
 18 32  1  0
 19 33  1  0
 19 34  1  0
 21 35  1  0
 21 36  1  0
 22 37  1  0
 22 38  1  0
M  ISO  8  23  14  24  14  25  14  26  14  27  13  28  13  29  13  30  13
M  ISO  8  31  13  32  13  33  13  34  13  35  13  36  13  37  13  38  13
M  END
>  <minimizedAffinity>  (1) 
-5.36529589

>  <minimizedRMSD>  (1) 
3.26407719

$$$$
