
     RDKit          3D

 33 36  0  0  1  0  0  0  0  0999 V2000
   37.2130   31.1930   39.7700 C   0  0  0  0  0  0  0  0  0  0  0  0
   36.9200   30.7850   38.4520 C   0  0  0  0  0  0  0  0  0  0  0  0
   38.2290   31.7310   37.5460 S   0  0  0  0  0  0  0  0  0  0  0  0
   38.9100   32.4950   39.1730 C   0  0  0  0  0  0  0  0  0  0  0  0
   38.2070   32.0150   39.8830 N   0  0  0  0  0  0  0  0  0  0  0  0
   36.1480   30.5080   41.0830 S   0  0  0  0  0  0  0  0  0  0  0  0
   36.5060   27.9560   42.1590 C   0  0  0  0  0  0  0  0  0  0  0  0
   37.0120   29.2580   41.9820 C   0  0  0  0  0  0  0  0  0  0  0  0
   38.2460   29.5140   42.5640 C   0  0  0  0  0  0  0  0  0  0  0  0
   38.8940   28.5410   43.2540 N   0  0  0  0  0  0  0  0  0  0  0  0
   38.3580   27.2950   43.3960 C   0  0  0  0  0  0  0  0  0  0  0  0
   37.1870   27.0070   42.8590 N   0  0  0  0  0  0  0  0  0  0  0  0
   39.9920   33.3960   39.2930 O   0  0  0  0  0  0  0  0  0  0  0  0
   41.2780   32.9930   38.8410 C   0  0  1  0  0  0  0  0  0  0  0  0
   42.0090   34.0420   38.0190 C   0  0  0  0  0  0  0  0  0  0  0  0
   42.4540   33.7050   39.4340 C   0  0  1  0  0  0  0  0  0  0  0  0
   42.2160   34.7980   40.4130 C   0  0  0  0  0  0  0  0  0  0  0  0
   41.1840   35.7110   40.3770 C   0  0  0  0  0  0  0  0  0  0  0  0
   41.0190   36.7000   41.3240 C   0  0  0  0  0  0  0  0  0  0  0  0
   41.9030   36.7970   42.3510 N   0  0  0  0  0  0  0  0  0  0  0  0
   42.9020   35.8830   42.3520 C   0  0  0  0  0  0  0  0  0  0  0  0
   43.0960   34.9080   41.4500 N   0  0  0  0  0  0  0  0  0  0  0  0
   36.1426   30.1049   38.0736 H   0  0  0  0  0  0  0  0  0  0  0  0
   35.5316   27.6977   41.7187 H   0  0  0  0  0  0  0  0  0  0  0  0
   38.7011   30.5106   42.4655 H   0  0  0  0  0  0  0  0  0  0  0  0
   38.9045   26.5257   43.9612 H   0  0  0  0  0  0  0  0  0  0  0  0
   41.0134   31.9328   38.7142 H   0  0  0  0  0  0  0  0  0  0  0  0
   42.6249   33.7400   37.1591 H   0  0  0  0  0  0  0  0  0  0  0  0
   41.7214   34.9600   37.4856 H   0  0  0  0  0  0  0  0  0  0  0  0
   43.3701   33.3489   39.9280 H   0  0  0  0  0  0  0  0  0  0  0  0
   40.4573   35.6478   39.5536 H   0  0  0  0  0  0  0  0  0  0  0  0
   40.1780   37.4049   41.2483 H   0  0  0  0  0  0  0  0  0  0  0  0
   43.6284   35.9458   43.1756 H   0  0  0  0  0  0  0  0  0  0  0  0
  1  5  1  0
  1  6  1  0
  2  1  2  0
  3  2  1  0
  3  4  1  0
  4 13  1  0
  4  5  2  0
  6  8  1  0
  7 12  2  0
  8  7  1  0
  8  9  2  0
  9 10  1  0
 10 11  2  0
 12 11  1  0
 14 13  1  0
 14 16  1  0
 15 14  1  0
 15 16  1  0
 16 17  1  0
 17 22  1  0
 18 17  2  0
 18 19  1  0
 19 20  2  0
 20 21  1  0
 22 21  2  0
  2 23  1  0
  7 24  1  0
  9 25  1  0
 11 26  1  0
 14 27  1  6
 15 28  1  0
 15 29  1  0
 16 30  1  6
 18 31  1  0
 19 32  1  0
 21 33  1  0
M  ISO  8  23  14  24  14  25  14  26  14  27  13  28  13  29  13  30  13
M  ISO  3  31  14  32  14  33  14
M  END
>  <minimizedAffinity>  (1) 
-5.35622168

>  <minimizedRMSD>  (1) 
3.42357135

$$$$
