
     RDKit          3D

 39 42  0  0  1  0  0  0  0  0999 V2000
   37.0360   29.1770   41.3180 C   0  0  0  0  0  0  0  0  0  0  0  0
   36.7570   28.7980   40.0140 C   0  0  0  0  0  0  0  0  0  0  0  0
   37.2980   30.3250   39.1090 S   0  0  0  0  0  0  0  0  0  0  0  0
   37.8050   31.1890   40.7530 C   0  0  0  0  0  0  0  0  0  0  0  0
   37.5320   30.3620   41.4250 N   0  0  0  0  0  0  0  0  0  0  0  0
   36.6470   27.9570   42.6020 S   0  0  0  0  0  0  0  0  0  0  0  0
   38.1510   25.6120   42.2890 C   0  0  0  0  0  0  0  0  0  0  0  0
   38.0270   26.8930   42.8840 C   0  0  0  0  0  0  0  0  0  0  0  0
   39.0690   27.2820   43.7190 C   0  0  0  0  0  0  0  0  0  0  0  0
   40.1240   26.4470   43.9220 N   0  0  0  0  0  0  0  0  0  0  0  0
   40.1790   25.2220   43.3150 C   0  0  0  0  0  0  0  0  0  0  0  0
   39.2170   24.8200   42.5220 N   0  0  0  0  0  0  0  0  0  0  0  0
   38.3410   32.4880   40.8840 O   0  0  0  0  0  0  0  0  0  0  0  0
   39.6740   32.7390   40.4780 C   0  0  1  0  0  0  0  0  0  0  0  0
   39.9080   32.6490   38.9820 C   0  0  0  0  0  0  0  0  0  0  0  0
   39.8960   34.0030   39.7050 C   0  0  2  0  0  0  0  0  0  0  0  0
   41.1660   34.6960   39.8220 N   0  0  0  0  0  0  0  0  0  0  0  0
   41.7950   34.4160   41.1030 C   0  0  0  0  0  0  0  0  0  0  0  0
   42.4370   35.6470   41.7090 C   0  0  0  0  0  0  0  0  0  0  0  0
   41.4500   36.6580   42.0320 N   0  0  0  0  0  0  0  0  0  0  0  0
   40.3090   36.5030   41.1230 C   0  0  0  0  0  0  0  0  0  0  0  0
   40.8810   36.1250   39.7730 C   0  0  0  0  0  0  0  0  0  0  0  0
   36.3350   27.8591   39.6261 H   0  0  0  0  0  0  0  0  0  0  0  0
   37.3555   25.2544   41.6187 H   0  0  0  0  0  0  0  0  0  0  0  0
   39.0403   28.2635   44.2147 H   0  0  0  0  0  0  0  0  0  0  0  0
   41.0431   24.5656   43.4954 H   0  0  0  0  0  0  0  0  0  0  0  0
   40.1422   32.2942   41.3685 H   0  0  0  0  0  0  0  0  0  0  0  0
   39.0829   32.3741   38.3085 H   0  0  0  0  0  0  0  0  0  0  0  0
   40.6132   32.1144   38.3287 H   0  0  0  0  0  0  0  0  0  0  0  0
   39.3402   34.9475   39.6100 H   0  0  0  0  0  0  0  0  0  0  0  0
   41.0304   34.0375   41.7974 H   0  0  0  0  0  0  0  0  0  0  0  0
   42.5872   33.6719   40.9336 H   0  0  0  0  0  0  0  0  0  0  0  0
   42.9662   35.3577   42.6289 H   0  0  0  0  0  0  0  0  0  0  0  0
   43.1349   36.0701   40.9715 H   0  0  0  0  0  0  0  0  0  0  0  0
   41.1368   36.5389   43.0060 H   0  0  0  0  0  0  0  0  0  0  0  0
   39.6386   35.7104   41.4868 H   0  0  0  0  0  0  0  0  0  0  0  0
   39.7225   37.4315   41.0599 H   0  0  0  0  0  0  0  0  0  0  0  0
   41.8057   36.6893   39.5820 H   0  0  0  0  0  0  0  0  0  0  0  0
   40.1728   36.3589   38.9645 H   0  0  0  0  0  0  0  0  0  0  0  0
  1  5  1  0
  1  6  1  0
  2  1  2  0
  3  2  1  0
  3  4  1  0
  4 13  1  0
  4  5  2  0
  6  8  1  0
  7 12  2  0
  7  8  1  0
  8  9  2  0
  9 10  1  0
 11 10  2  0
 12 11  1  0
 14 13  1  0
 15 16  1  0
 15 14  1  0
 16 17  1  0
 16 14  1  0
 17 18  1  0
 18 19  1  0
 19 20  1  0
 21 20  1  0
 22 17  1  0
 22 21  1  0
  2 23  1  0
  7 24  1  0
  9 25  1  0
 11 26  1  0
 14 27  1  1
 15 28  1  0
 15 29  1  0
 16 30  1  6
 18 31  1  0
 18 32  1  0
 19 33  1  0
 19 34  1  0
 20 35  1  0
 21 36  1  0
 21 37  1  0
 22 38  1  0
 22 39  1  0
M  ISO  8  23  14  24  14  25  14  26  14  27  13  28  13  29  13  30  13
M  ISO  8  31  13  32  13  33  13  34  13  35   5  36  13  37  13  38  13
M  ISO  1  39  13
M  END
>  <minimizedAffinity>  (1) 
-5.17932367

>  <minimizedRMSD>  (1) 
2.87909818

$$$$
