
     RDKit          3D

 31 33  0  0  1  0  0  0  0  0999 V2000
   37.5620   31.6810   40.1650 C   0  0  0  0  0  0  0  0  0  0  0  0
   38.5300   31.0770   39.3360 C   0  0  0  0  0  0  0  0  0  0  0  0
   39.5710   32.5550   38.9650 S   0  0  0  0  0  0  0  0  0  0  0  0
   38.4600   33.7110   40.0270 C   0  0  0  0  0  0  0  0  0  0  0  0
   37.7020   32.9740   40.3810 N   0  0  0  0  0  0  0  0  0  0  0  0
   36.2410   30.6020   40.8210 S   0  0  0  0  0  0  0  0  0  0  0  0
   36.4090   28.0270   41.9160 C   0  0  0  0  0  0  0  0  0  0  0  0
   36.9420   29.3350   41.8290 C   0  0  0  0  0  0  0  0  0  0  0  0
   38.0720   29.5830   42.5960 C   0  0  0  0  0  0  0  0  0  0  0  0
   38.6020   28.5920   43.3720 N   0  0  0  0  0  0  0  0  0  0  0  0
   38.0360   27.3540   43.4070 C   0  0  0  0  0  0  0  0  0  0  0  0
   36.9610   27.0700   42.6970 N   0  0  0  0  0  0  0  0  0  0  0  0
   38.6420   35.0960   40.2300 O   0  0  0  0  0  0  0  0  0  0  0  0
   39.9600   35.6490   40.1000 C   0  0  1  0  0  0  0  0  0  0  0  0
   39.9870   37.1650   40.0970 C   0  0  0  0  0  0  0  0  0  0  0  0
   40.4850   36.3620   41.3080 C   0  0  2  0  0  0  0  0  0  0  0  0
   41.9740   36.3780   41.5740 C   0  0  0  0  0  0  0  0  0  0  0  0
   42.2990   36.9220   42.9420 C   0  0  0  0  0  0  0  0  0  0  0  0
   38.6339   30.0324   39.0073 H   0  0  0  0  0  0  0  0  0  0  0  0
   35.5134   27.7793   41.3273 H   0  0  0  0  0  0  0  0  0  0  0  0
   38.5407   30.5780   42.5788 H   0  0  0  0  0  0  0  0  0  0  0  0
   38.4845   26.5745   44.0405 H   0  0  0  0  0  0  0  0  0  0  0  0
   40.3595   34.8568   39.4498 H   0  0  0  0  0  0  0  0  0  0  0  0
   40.7022   37.7045   39.4587 H   0  0  0  0  0  0  0  0  0  0  0  0
   39.2475   37.9630   39.9346 H   0  0  0  0  0  0  0  0  0  0  0  0
   40.2507   36.3186   42.3819 H   0  0  0  0  0  0  0  0  0  0  0  0
   42.3587   35.3501   41.5003 H   0  0  0  0  0  0  0  0  0  0  0  0
   42.4448   37.0344   40.8274 H   0  0  0  0  0  0  0  0  0  0  0  0
   41.8954   36.2465   43.7106 H   0  0  0  0  0  0  0  0  0  0  0  0
   43.3904   36.9976   43.0568 H   0  0  0  0  0  0  0  0  0  0  0  0
   41.8483   37.9189   43.0568 H   0  0  0  0  0  0  0  0  0  0  0  0
  1  5  1  0
  1  6  1  0
  2  1  2  0
  3  2  1  0
  3  4  1  0
  4 13  1  0
  4  5  2  0
  6  8  1  0
  7 12  2  0
  8  7  1  0
  8  9  2  0
  9 10  1  0
 10 11  2  0
 12 11  1  0
 14 13  1  0
 14 16  1  0
 15 14  1  0
 15 16  1  0
 16 17  1  0
 17 18  1  0
  2 19  1  0
  7 20  1  0
  9 21  1  0
 11 22  1  0
 14 23  1  6
 15 24  1  0
 15 25  1  0
 16 26  1  1
 17 27  1  0
 17 28  1  0
 18 29  1  0
 18 30  1  0
 18 31  1  0
M  ISO  8  19  14  20  14  21  14  22  14  23  13  24  13  25  13  26  13
M  ISO  5  27   8  28   8  29   8  30   8  31   8
M  END
>  <minimizedAffinity>  (1) 
-5.1615839

>  <minimizedRMSD>  (1) 
0.80961895

$$$$
