
     RDKit          3D

 32 35  0  0  1  0  0  0  0  0999 V2000
   37.3560   31.2030   39.6950 C   0  0  0  0  0  0  0  0  0  0  0  0
   36.8410   30.8660   38.4260 C   0  0  0  0  0  0  0  0  0  0  0  0
   38.1720   31.5810   37.3640 S   0  0  0  0  0  0  0  0  0  0  0  0
   39.1680   32.2020   38.8870 C   0  0  0  0  0  0  0  0  0  0  0  0
   38.4860   31.8430   39.6830 N   0  0  0  0  0  0  0  0  0  0  0  0
   36.3610   30.6990   41.1400 S   0  0  0  0  0  0  0  0  0  0  0  0
   36.5620   28.0860   42.1300 C   0  0  0  0  0  0  0  0  0  0  0  0
   37.1530   29.3710   41.9920 C   0  0  0  0  0  0  0  0  0  0  0  0
   38.4010   29.5350   42.5710 C   0  0  0  0  0  0  0  0  0  0  0  0
   38.9950   28.4990   43.2260 N   0  0  0  0  0  0  0  0  0  0  0  0
   38.3790   27.2840   43.3270 C   0  0  0  0  0  0  0  0  0  0  0  0
   37.2000   27.0890   42.7930 N   0  0  0  0  0  0  0  0  0  0  0  0
   40.3940   32.9030   38.8650 O   0  0  0  0  0  0  0  0  0  0  0  0
   41.0880   33.1180   40.0960 C   0  0  1  0  0  0  0  0  0  0  0  0
   42.3790   33.9010   39.9420 C   0  0  0  0  0  0  0  0  0  0  0  0
   41.1550   34.5320   40.5780 C   0  0  1  0  0  0  0  0  0  0  0  0
   40.4800   35.6150   39.7700 C   0  0  0  0  0  0  0  0  0  0  0  0
   40.1660   36.9290   40.3310 C   0  0  0  0  0  0  0  0  0  0  0  0
   39.0450   35.9090   40.0650 C   0  0  0  0  0  0  0  0  0  0  0  0
   35.9185   30.3341   38.1501 H   0  0  0  0  0  0  0  0  0  0  0  0
   35.5709   27.8966   41.6920 H   0  0  0  0  0  0  0  0  0  0  0  0
   38.9140   30.5055   42.5014 H   0  0  0  0  0  0  0  0  0  0  0  0
   38.8781   26.4624   43.8617 H   0  0  0  0  0  0  0  0  0  0  0  0
   40.7905   32.1664   40.5608 H   0  0  0  0  0  0  0  0  0  0  0  0
   43.2546   33.6497   40.5585 H   0  0  0  0  0  0  0  0  0  0  0  0
   43.0459   34.1552   39.1050 H   0  0  0  0  0  0  0  0  0  0  0  0
   40.9182   35.0162   41.5369 H   0  0  0  0  0  0  0  0  0  0  0  0
   41.0583   35.3148   38.8837 H   0  0  0  0  0  0  0  0  0  0  0  0
   40.4571   37.1710   41.3638 H   0  0  0  0  0  0  0  0  0  0  0  0
   40.3595   37.9703   40.0340 H   0  0  0  0  0  0  0  0  0  0  0  0
   38.3299   36.0695   39.2447 H   0  0  0  0  0  0  0  0  0  0  0  0
   38.2463   35.4385   40.6572 H   0  0  0  0  0  0  0  0  0  0  0  0
  1  6  1  0
  2  1  2  0
  3  2  1  0
  3  4  1  0
  4  5  2  0
  5  1  1  0
  6  8  1  0
  7 12  2  0
  8  7  1  0
  8  9  2  0
  9 10  1  0
 10 11  2  0
 12 11  1  0
 13  4  1  0
 13 14  1  0
 14 16  1  0
 15 14  1  0
 15 16  1  0
 17 19  1  0
 17 18  1  0
 17 16  1  0
 19 18  1  0
  2 20  1  0
  7 21  1  0
  9 22  1  0
 11 23  1  0
 14 24  1  1
 15 25  1  0
 15 26  1  0
 16 27  1  1
 17 28  1  0
 18 29  1  0
 18 30  1  0
 19 31  1  0
 19 32  1  0
M  ISO  8  20  14  21  14  22  14  23  14  24  13  25  13  26  13  27  13
M  ISO  5  28  13  29  13  30  13  31  13  32  13
M  END
>  <minimizedAffinity>  (1) 
-4.85895205

>  <minimizedRMSD>  (1) 
1.92884076

$$$$
