
     RDKit          3D

 26 28  0  0  1  0  0  0  0  0999 V2000
   37.5380   31.6360   40.1930 C   0  0  0  0  0  0  0  0  0  0  0  0
   38.4880   30.9900   39.3700 C   0  0  0  0  0  0  0  0  0  0  0  0
   39.5250   32.4500   38.9110 S   0  0  0  0  0  0  0  0  0  0  0  0
   38.4400   33.6540   39.9450 C   0  0  0  0  0  0  0  0  0  0  0  0
   37.6970   32.9270   40.3390 N   0  0  0  0  0  0  0  0  0  0  0  0
   36.2370   30.5840   40.9220 S   0  0  0  0  0  0  0  0  0  0  0  0
   36.4900   27.9450   41.7940 C   0  0  0  0  0  0  0  0  0  0  0  0
   36.9670   29.2700   41.8490 C   0  0  0  0  0  0  0  0  0  0  0  0
   38.0540   29.5020   42.6830 C   0  0  0  0  0  0  0  0  0  0  0  0
   38.6030   28.4780   43.3910 N   0  0  0  0  0  0  0  0  0  0  0  0
   38.1040   27.2110   43.3030 C   0  0  0  0  0  0  0  0  0  0  0  0
   37.0630   26.9440   42.5180 N   0  0  0  0  0  0  0  0  0  0  0  0
   38.6280   35.0460   40.0840 O   0  0  0  0  0  0  0  0  0  0  0  0
   39.8620   35.5260   40.6380 C   0  0  1  0  0  0  0  0  0  0  0  0
   40.8670   35.9550   39.5830 C   0  0  0  0  0  0  0  0  0  0  0  0
   40.1380   36.9840   40.4640 C   0  0  1  0  0  0  0  0  0  0  0  0
   39.1990   37.8140   39.8970 O   0  0  0  0  0  0  0  0  0  0  0  0
   38.5825   29.9314   39.0864 H   0  0  0  0  0  0  0  0  0  0  0  0
   35.6305   27.7128   41.1480 H   0  0  0  0  0  0  0  0  0  0  0  0
   38.4716   30.5158   42.7710 H   0  0  0  0  0  0  0  0  0  0  0  0
   38.5670   26.4019   43.8870 H   0  0  0  0  0  0  0  0  0  0  0  0
   39.8717   34.8539   41.5088 H   0  0  0  0  0  0  0  0  0  0  0  0
   40.6205   35.8668   38.5146 H   0  0  0  0  0  0  0  0  0  0  0  0
   41.9167   35.7185   39.3545 H   0  0  0  0  0  0  0  0  0  0  0  0
   40.4446   37.7953   41.1406 H   0  0  0  0  0  0  0  0  0  0  0  0
   38.6855   38.2679   40.6114 H   0  0  0  0  0  0  0  0  0  0  0  0
  1  5  1  0
  1  6  1  0
  2  1  2  0
  3  2  1  0
  3  4  1  0
  4 13  1  0
  4  5  2  0
  6  8  1  0
  7  8  2  0
  7 12  1  0
  8  9  1  0
  9 10  2  0
 11 10  1  0
 12 11  2  0
 13 14  1  0
 15 16  1  0
 15 14  1  0
 16 14  1  0
 17 16  1  0
  2 18  1  0
  7 19  1  0
  9 20  1  0
 11 21  1  0
 14 22  1  1
 15 23  1  0
 15 24  1  0
 16 25  1  1
 17 26  1  0
M  ISO  8  18  14  19  14  20  14  21  14  22  13  23  13  24  13  25  13
M  ISO  1  26   3
M  END
>  <minimizedAffinity>  (1) 
-4.82774973

>  <minimizedRMSD>  (1) 
0.167731002

$$$$
