
     RDKit          3D

 37 39  0  0  1  0  0  0  0  0999 V2000
   37.1600   31.1070   39.6580 C   0  0  0  0  0  0  0  0  0  0  0  0
   36.8220   30.6960   38.3500 C   0  0  0  0  0  0  0  0  0  0  0  0
   38.1430   31.5830   37.4090 S   0  0  0  0  0  0  0  0  0  0  0  0
   38.8910   32.3410   39.0090 C   0  0  0  0  0  0  0  0  0  0  0  0
   38.1940   31.9020   39.7550 N   0  0  0  0  0  0  0  0  0  0  0  0
   36.1150   30.4810   41.0180 S   0  0  0  0  0  0  0  0  0  0  0  0
   36.5060   27.9360   42.1250 C   0  0  0  0  0  0  0  0  0  0  0  0
   36.9930   29.2570   41.9390 C   0  0  0  0  0  0  0  0  0  0  0  0
   38.2200   29.5460   42.5300 C   0  0  0  0  0  0  0  0  0  0  0  0
   38.8800   28.5900   43.2350 N   0  0  0  0  0  0  0  0  0  0  0  0
   38.3590   27.3360   43.3790 C   0  0  0  0  0  0  0  0  0  0  0  0
   37.1910   27.0150   42.8320 N   0  0  0  0  0  0  0  0  0  0  0  0
   40.0090   33.2030   39.0920 O   0  0  0  0  0  0  0  0  0  0  0  0
   40.9950   32.9530   40.1070 C   0  0  1  0  0  0  0  0  0  0  0  0
   42.3640   33.5070   39.7610 C   0  0  0  0  0  0  0  0  0  0  0  0
   41.5060   34.1500   40.8360 C   0  0  1  0  0  0  0  0  0  0  0  0
   40.8140   35.4560   40.6190 C   0  0  0  0  0  0  0  0  0  0  0  0
   41.0350   35.8500   39.1660 C   0  0  0  0  0  0  0  0  0  0  0  0
   41.3130   36.6030   41.4380 C   0  0  0  0  0  0  0  0  0  0  0  0
   39.3250   35.2440   40.7950 C   0  0  0  0  0  0  0  0  0  0  0  0
   36.0120   30.0415   37.9957 H   0  0  0  0  0  0  0  0  0  0  0  0
   35.5405   27.6558   41.6786 H   0  0  0  0  0  0  0  0  0  0  0  0
   38.6562   30.5505   42.4260 H   0  0  0  0  0  0  0  0  0  0  0  0
   38.9136   26.5811   43.9557 H   0  0  0  0  0  0  0  0  0  0  0  0
   40.5906   31.9822   40.4295 H   0  0  0  0  0  0  0  0  0  0  0  0
   43.2718   32.9506   40.0372 H   0  0  0  0  0  0  0  0  0  0  0  0
   42.8609   33.8532   38.8427 H   0  0  0  0  0  0  0  0  0  0  0  0
   41.6940   34.4247   41.8844 H   0  0  0  0  0  0  0  0  0  0  0  0
   41.5727   36.8087   39.1238 H   0  0  0  0  0  0  0  0  0  0  0  0
   41.6293   35.0737   38.6619 H   0  0  0  0  0  0  0  0  0  0  0  0
   40.0627   35.9525   38.6619 H   0  0  0  0  0  0  0  0  0  0  0  0
   41.2087   36.3634   42.5065 H   0  0  0  0  0  0  0  0  0  0  0  0
   42.3723   36.7865   41.2050 H   0  0  0  0  0  0  0  0  0  0  0  0
   40.7251   37.5031   41.2050 H   0  0  0  0  0  0  0  0  0  0  0  0
   39.0838   35.2097   41.8677 H   0  0  0  0  0  0  0  0  0  0  0  0
   38.7782   36.0733   40.3226 H   0  0  0  0  0  0  0  0  0  0  0  0
   39.0314   34.2950   40.3226 H   0  0  0  0  0  0  0  0  0  0  0  0
  1  5  1  0
  1  6  1  0
  2  1  2  0
  3  2  1  0
  3  4  1  0
  4 13  1  0
  4  5  2  0
  6  8  1  0
  7 12  2  0
  8  7  1  0
  8  9  2  0
  9 10  1  0
 10 11  2  0
 12 11  1  0
 13 14  1  0
 14 16  1  0
 15 14  1  0
 15 16  1  0
 17 20  1  0
 17 16  1  0
 17 19  1  0
 18 17  1  0
  2 21  1  0
  7 22  1  0
  9 23  1  0
 11 24  1  0
 14 25  1  1
 15 26  1  0
 15 27  1  0
 16 28  1  1
 18 29  1  0
 18 30  1  0
 18 31  1  0
 19 32  1  0
 19 33  1  0
 19 34  1  0
 20 35  1  0
 20 36  1  0
 20 37  1  0
M  ISO  8  21  14  22  14  23  14  24  14  25  13  26  13  27  13  28  13
M  ISO  8  29   8  30   8  31   8  32   8  33   8  34   8  35   8  36   8
M  ISO  1  37   8
M  END
>  <minimizedAffinity>  (1) 
-4.77351236

>  <minimizedRMSD>  (1) 
2.19689345

$$$$
