
     RDKit          3D

 34 37  0  0  1  0  0  0  0  0999 V2000
   38.7090   31.6150   41.1180 O   0  0  0  0  0  0  0  0  0  0  0  0
   40.0090   31.5580   41.7570 C   0  0  1  0  0  0  0  0  0  0  0  0
   40.9850   30.7830   40.8560 C   0  0  0  0  0  0  0  0  0  0  0  0
   41.1110   32.3020   41.0990 C   0  0  1  0  0  0  0  0  0  0  0  0
   40.8030   33.1800   39.9990 N   0  0  0  0  0  0  0  0  0  0  0  0
   40.3320   34.5070   39.9690 C   0  0  0  0  0  0  0  0  0  0  0  0
   40.9680   35.7240   39.9530 C   0  0  0  0  0  0  0  0  0  0  0  0
   39.9800   36.6850   39.9250 C   0  0  0  0  0  0  0  0  0  0  0  0
   38.7740   36.0470   39.9250 N   0  0  0  0  0  0  0  0  0  0  0  0
   39.0030   34.7480   39.9520 N   0  0  0  0  0  0  0  0  0  0  0  0
   36.7420   28.7230   41.8920 C   0  0  0  0  0  0  0  0  0  0  0  0
   35.7240   28.8160   40.9020 C   0  0  0  0  0  0  0  0  0  0  0  0
   36.2940   30.3470   40.0670 S   0  0  0  0  0  0  0  0  0  0  0  0
   37.8150   30.5580   41.2430 C   0  0  0  0  0  0  0  0  0  0  0  0
   37.6310   29.6700   41.8590 N   0  0  0  0  0  0  0  0  0  0  0  0
   36.6710   27.3190   43.0720 S   0  0  0  0  0  0  0  0  0  0  0  0
   38.4070   25.2870   42.2320 C   0  0  0  0  0  0  0  0  0  0  0  0
   38.1840   26.4320   43.0350 C   0  0  0  0  0  0  0  0  0  0  0  0
   39.2450   26.8350   43.8170 C   0  0  0  0  0  0  0  0  0  0  0  0
   40.4270   26.1420   43.7890 N   0  0  0  0  0  0  0  0  0  0  0  0
   40.5860   25.0410   42.9920 C   0  0  0  0  0  0  0  0  0  0  0  0
   39.5860   24.6390   42.2380 N   0  0  0  0  0  0  0  0  0  0  0  0
   39.6672   31.5318   42.8022 H   0  0  0  0  0  0  0  0  0  0  0  0
   40.6562   30.4011   39.8782 H   0  0  0  0  0  0  0  0  0  0  0  0
   41.6397   29.9062   40.9679 H   0  0  0  0  0  0  0  0  0  0  0  0
   41.9041   32.9713   41.4637 H   0  0  0  0  0  0  0  0  0  0  0  0
   40.9541   32.7632   39.0693 H   0  0  0  0  0  0  0  0  0  0  0  0
   42.0541   35.8981   39.9610 H   0  0  0  0  0  0  0  0  0  0  0  0
   40.1363   37.7737   39.9060 H   0  0  0  0  0  0  0  0  0  0  0  0
   37.8488   36.4993   39.9071 H   0  0  0  0  0  0  0  0  0  0  0  0
   34.8589   28.1675   40.6992 H   0  0  0  0  0  0  0  0  0  0  0  0
   37.5958   24.9182   41.5871 H   0  0  0  0  0  0  0  0  0  0  0  0
   39.1426   27.7168   44.4665 H   0  0  0  0  0  0  0  0  0  0  0  0
   41.5419   24.4968   42.9820 H   0  0  0  0  0  0  0  0  0  0  0  0
  1 14  1  0
  1  2  1  0
  3  4  1  0
  3  2  1  0
  4  2  1  0
  5  4  1  0
  6  5  1  0
  7  6  1  0
  8  9  1  0
  8  7  2  0
  9 10  1  0
 10  6  2  0
 11 16  1  0
 12 11  2  0
 13 12  1  0
 13 14  1  0
 14 15  2  0
 15 11  1  0
 17 22  2  0
 17 18  1  0
 18 16  1  0
 18 19  2  0
 20 19  1  0
 21 20  2  0
 22 21  1  0
  2 23  1  1
  3 24  1  0
  3 25  1  0
  4 26  1  1
  5 27  1  0
  7 28  1  0
  8 29  1  0
  9 30  1  0
 12 31  1  0
 17 32  1  0
 19 33  1  0
 21 34  1  0
M  ISO  8  23  13  24  13  25  13  26  13  28  14  29  14  30   9  31  14
M  ISO  3  32  14  33  14  34  14
M  END
>  <minimizedAffinity>  (1) 
-5.29621315

>  <minimizedRMSD>  (1) 
3.95928597

$$$$
