
     RDKit          3D

 31 33  0  0  1  0  0  0  0  0999 V2000
   36.5010   30.5340   39.5410 C   0  0  0  0  0  0  0  0  0  0  0  0
   36.8060   30.1710   38.2240 C   0  0  0  0  0  0  0  0  0  0  0  0
   37.7030   31.6920   37.6960 S   0  0  0  0  0  0  0  0  0  0  0  0
   37.4770   32.5410   39.4210 C   0  0  0  0  0  0  0  0  0  0  0  0
   36.9300   31.7110   39.8700 N   0  0  0  0  0  0  0  0  0  0  0  0
   35.5760   29.3370   40.5480 S   0  0  0  0  0  0  0  0  0  0  0  0
   36.8060   27.1520   41.8160 C   0  0  0  0  0  0  0  0  0  0  0  0
   36.6510   28.5630   41.7070 C   0  0  0  0  0  0  0  0  0  0  0  0
   37.4060   29.3200   42.5750 C   0  0  0  0  0  0  0  0  0  0  0  0
   38.2390   28.7080   43.4700 N   0  0  0  0  0  0  0  0  0  0  0  0
   38.3430   27.3540   43.5260 C   0  0  0  0  0  0  0  0  0  0  0  0
   37.6440   26.6040   42.7190 N   0  0  0  0  0  0  0  0  0  0  0  0
   37.9630   33.8120   39.6990 O   0  0  0  0  0  0  0  0  0  0  0  0
   38.9720   34.0120   40.7100 C   0  0  1  0  0  0  0  0  0  0  0  0
   39.8620   32.7590   40.8030 C   0  0  0  0  0  0  0  0  0  0  0  0
   40.3790   34.1090   40.2490 C   0  0  1  0  0  0  0  0  0  0  0  0
   40.6410   34.1640   38.8300 N   0  0  0  0  0  0  0  0  0  0  0  0
   41.9650   34.1490   38.3330 C   0  0  0  0  0  0  0  0  0  0  0  0
   42.4180   35.4140   37.8710 N   0  0  0  0  0  0  0  0  0  0  0  0
   42.7220   33.1640   38.2740 O   0  0  0  0  0  0  0  0  0  0  0  0
   36.5777   29.2497   37.6681 H   0  0  0  0  0  0  0  0  0  0  0  0
   36.2294   26.4944   41.1488 H   0  0  0  0  0  0  0  0  0  0  0  0
   37.3389   30.4176   42.5483 H   0  0  0  0  0  0  0  0  0  0  0  0
   39.0207   26.8876   44.2562 H   0  0  0  0  0  0  0  0  0  0  0  0
   38.3820   34.6451   41.3890 H   0  0  0  0  0  0  0  0  0  0  0  0
   40.2046   32.3905   41.7812 H   0  0  0  0  0  0  0  0  0  0  0  0
   39.8103   31.7215   40.4412 H   0  0  0  0  0  0  0  0  0  0  0  0
   41.2108   34.7886   40.4864 H   0  0  0  0  0  0  0  0  0  0  0  0
   39.8519   34.2149   38.1700 H   0  0  0  0  0  0  0  0  0  0  0  0
   43.3694   35.5122   37.4888 H   0  0  0  0  0  0  0  0  0  0  0  0
   41.7950   36.2328   37.9183 H   0  0  0  0  0  0  0  0  0  0  0  0
  1  5  1  0
  1  6  1  0
  2  1  2  0
  3  2  1  0
  3  4  1  0
  4 13  1  0
  4  5  2  0
  6  8  1  0
  7 12  2  0
  8  7  1  0
  8  9  2  0
  9 10  1  0
 10 11  2  0
 12 11  1  0
 13 14  1  0
 14 15  1  0
 16 14  1  0
 16 15  1  0
 17 16  1  0
 18 17  1  0
 19 18  1  0
 20 18  2  0
  2 21  1  0
  7 22  1  0
  9 23  1  0
 11 24  1  0
 14 25  1  1
 15 26  1  0
 15 27  1  0
 16 28  1  1
 17 29  1  0
 19 30  1  0
 19 31  1  0
M  ISO  8  21  14  22  14  23  14  24  14  25  13  26  13  27  13  28  13
M  END
>  <minimizedAffinity>  (1) 
-5.27932119

>  <minimizedRMSD>  (1) 
3.23777413

$$$$
