
     RDKit          3D

 40 43  0  0  1  0  0  0  0  0999 V2000
   36.9980   29.1860   41.8640 C   0  0  0  0  0  0  0  0  0  0  0  0
   36.0430   29.7150   40.9540 C   0  0  0  0  0  0  0  0  0  0  0  0
   36.9360   31.2520   40.4850 S   0  0  0  0  0  0  0  0  0  0  0  0
   38.4420   30.8570   41.6350 C   0  0  0  0  0  0  0  0  0  0  0  0
   38.0740   29.9060   42.0340 N   0  0  0  0  0  0  0  0  0  0  0  0
   36.5970   27.5930   42.6680 S   0  0  0  0  0  0  0  0  0  0  0  0
   38.3270   25.4690   42.0640 C   0  0  0  0  0  0  0  0  0  0  0  0
   38.0510   26.6220   42.8360 C   0  0  0  0  0  0  0  0  0  0  0  0
   39.0290   26.9640   43.7740 C   0  0  0  0  0  0  0  0  0  0  0  0
   40.1650   26.2080   43.9090 N   0  0  0  0  0  0  0  0  0  0  0  0
   40.3660   25.1030   43.1280 C   0  0  0  0  0  0  0  0  0  0  0  0
   39.4580   24.7540   42.2300 N   0  0  0  0  0  0  0  0  0  0  0  0
   39.5330   31.7070   41.7300 O   0  0  0  0  0  0  0  0  0  0  0  0
   40.8240   31.3440   41.2490 C   0  0  1  0  0  0  0  0  0  0  0  0
   40.9580   31.6830   39.7620 C   0  0  0  0  0  0  0  0  0  0  0  0
   41.7150   32.4680   40.8750 C   0  0  1  0  0  0  0  0  0  0  0  0
   41.3820   33.7970   41.1000 N   0  0  0  0  0  0  0  0  0  0  0  0
   41.9400   34.9080   40.5080 C   0  0  0  0  0  0  0  0  0  0  0  0
   41.2410   35.4660   39.3140 C   0  0  0  0  0  0  0  0  0  0  0  0
   39.8920   35.7930   39.9340 C   0  0  0  0  0  0  0  0  0  0  0  0
   40.3320   36.4840   41.2330 C   0  0  0  0  0  0  0  0  0  0  0  0
   41.7530   36.1070   41.4700 C   0  0  0  0  0  0  0  0  0  0  0  0
   35.0674   29.3241   40.6294 H   0  0  0  0  0  0  0  0  0  0  0  0
   37.5977   25.1465   41.3063 H   0  0  0  0  0  0  0  0  0  0  0  0
   38.8859   27.8493   44.4109 H   0  0  0  0  0  0  0  0  0  0  0  0
   41.2815   24.5048   43.2461 H   0  0  0  0  0  0  0  0  0  0  0  0
   40.9799   30.4593   41.8839 H   0  0  0  0  0  0  0  0  0  0  0  0
   40.1231   32.1509   39.2197 H   0  0  0  0  0  0  0  0  0  0  0  0
   41.2349   31.1397   38.8465 H   0  0  0  0  0  0  0  0  0  0  0  0
   42.7620   32.7086   41.1117 H   0  0  0  0  0  0  0  0  0  0  0  0
   40.3772   33.8581   40.8820 H   0  0  0  0  0  0  0  0  0  0  0  0
   42.9520   34.5605   40.2528 H   0  0  0  0  0  0  0  0  0  0  0  0
   41.1515   34.7229   38.5079 H   0  0  0  0  0  0  0  0  0  0  0  0
   41.7491   36.3137   38.8311 H   0  0  0  0  0  0  0  0  0  0  0  0
   39.3057   36.4691   39.2944 H   0  0  0  0  0  0  0  0  0  0  0  0
   39.2354   34.9227   40.0810 H   0  0  0  0  0  0  0  0  0  0  0  0
   40.2436   37.5754   41.1284 H   0  0  0  0  0  0  0  0  0  0  0  0
   39.6984   36.1721   42.0763 H   0  0  0  0  0  0  0  0  0  0  0  0
   41.9169   35.8082   42.5159 H   0  0  0  0  0  0  0  0  0  0  0  0
   42.4625   36.9288   41.2934 H   0  0  0  0  0  0  0  0  0  0  0  0
  1  5  1  0
  1  6  1  0
  2  1  2  0
  3  2  1  0
  3  4  1  0
  4 13  1  0
  4  5  2  0
  6  8  1  0
  7 12  2  0
  7  8  1  0
  8  9  2  0
  9 10  1  0
 11 10  2  0
 12 11  1  0
 14 13  1  0
 15 16  1  0
 15 14  1  0
 16 17  1  0
 16 14  1  0
 18 17  1  0
 18 22  1  0
 19 20  1  0
 19 18  1  0
 20 21  1  0
 21 22  1  0
  2 23  1  0
  7 24  1  0
  9 25  1  0
 11 26  1  0
 14 27  1  6
 15 28  1  0
 15 29  1  0
 16 30  1  6
 17 31  1  0
 18 32  1  0
 19 33  1  0
 19 34  1  0
 20 35  1  0
 20 36  1  0
 21 37  1  0
 21 38  1  0
 22 39  1  0
 22 40  1  0
M  ISO  8  23  14  24  14  25  14  26  14  27  13  28  13  29  13  30  13
M  ISO  8  31   5  32  13  33  13  34  13  35  13  36  13  37  13  38  13
M  ISO  2  39  13  40  13
M  END
>  <minimizedAffinity>  (1) 
-5.11754465

>  <minimizedRMSD>  (1) 
3.89213109

$$$$
