
     RDKit          3D

 39 41  0  0  1  0  0  0  0  0999 V2000
   41.1890   34.5660   39.0760 C   0  0  0  0  0  0  0  0  0  0  0  0
   40.8220   35.8140   39.6160 C   0  0  0  0  0  0  0  0  0  0  0  0
   39.4030   35.2630   40.6340 S   0  0  0  0  0  0  0  0  0  0  0  0
   39.5940   33.4110   40.1110 C   0  0  0  0  0  0  0  0  0  0  0  0
   40.4590   33.5630   39.4560 N   0  0  0  0  0  0  0  0  0  0  0  0
   42.6150   34.5140   37.9220 S   0  0  0  0  0  0  0  0  0  0  0  0
   42.0300   31.9670   36.9040 C   0  0  0  0  0  0  0  0  0  0  0  0
   42.9730   32.8530   37.4860 C   0  0  0  0  0  0  0  0  0  0  0  0
   44.2280   32.3320   37.7040 C   0  0  0  0  0  0  0  0  0  0  0  0
   44.5060   31.0330   37.3640 N   0  0  0  0  0  0  0  0  0  0  0  0
   43.5480   30.2320   36.8050 C   0  0  0  0  0  0  0  0  0  0  0  0
   42.3440   30.7020   36.5860 N   0  0  0  0  0  0  0  0  0  0  0  0
   38.7470   32.4280   40.5850 O   0  0  0  0  0  0  0  0  0  0  0  0
   37.3300   32.4430   40.2810 C   0  0  1  0  0  0  0  0  0  0  0  0
   37.0850   31.5580   39.0410 C   0  0  0  0  0  0  0  0  0  0  0  0
   36.6200   31.1520   40.4370 C   0  0  1  0  0  0  0  0  0  0  0  0
   37.2400   30.0620   41.0890 N   0  0  0  0  0  0  0  0  0  0  0  0
   36.6300   28.8060   41.0930 C   0  0  0  0  0  0  0  0  0  0  0  0
   35.1880   28.9760   40.5730 C   0  0  0  0  0  0  0  0  0  0  0  0
   36.5770   27.9950   42.3280 C   0  0  0  0  0  0  0  0  0  0  0  0
   37.3080   27.9790   39.9740 C   0  0  0  0  0  0  0  0  0  0  0  0
   41.2555   36.8145   39.4706 H   0  0  0  0  0  0  0  0  0  0  0  0
   41.0098   32.3284   36.7074 H   0  0  0  0  0  0  0  0  0  0  0  0
   45.0114   32.9603   38.1529 H   0  0  0  0  0  0  0  0  0  0  0  0
   43.7884   29.1921   36.5389 H   0  0  0  0  0  0  0  0  0  0  0  0
   37.0923   33.4612   40.6228 H   0  0  0  0  0  0  0  0  0  0  0  0
   36.3536   31.8608   38.2773 H   0  0  0  0  0  0  0  0  0  0  0  0
   37.7086   31.1097   38.2535 H   0  0  0  0  0  0  0  0  0  0  0  0
   35.6547   30.8629   40.8781 H   0  0  0  0  0  0  0  0  0  0  0  0
   38.1642   29.9412   40.6506 H   0  0  0  0  0  0  0  0  0  0  0  0
   34.4979   29.0574   41.4257 H   0  0  0  0  0  0  0  0  0  0  0  0
   35.1240   29.8879   39.9612 H   0  0  0  0  0  0  0  0  0  0  0  0
   34.9136   28.1040   39.9612 H   0  0  0  0  0  0  0  0  0  0  0  0
   36.6204   28.6584   43.2044 H   0  0  0  0  0  0  0  0  0  0  0  0
   35.6394   27.4202   42.3492 H   0  0  0  0  0  0  0  0  0  0  0  0
   37.4318   27.3030   42.3492 H   0  0  0  0  0  0  0  0  0  0  0  0
   37.9440   27.2033   40.4255 H   0  0  0  0  0  0  0  0  0  0  0  0
   36.5364   27.5036   39.3507 H   0  0  0  0  0  0  0  0  0  0  0  0
   37.9255   28.6424   39.3507 H   0  0  0  0  0  0  0  0  0  0  0  0
  1  5  1  0
  1  2  2  0
  2  3  1  0
  4 13  1  0
  4  3  1  0
  5  4  2  0
  6  1  1  0
  7  8  2  0
  8  9  1  0
  8  6  1  0
 10  9  2  0
 11 10  1  0
 12 11  2  0
 12  7  1  0
 14 16  1  0
 14 13  1  0
 15 14  1  0
 15 16  1  0
 16 17  1  0
 17 18  1  0
 18 20  1  0
 19 18  1  0
 21 18  1  0
  2 22  1  0
  7 23  1  0
  9 24  1  0
 11 25  1  0
 14 26  1  6
 15 27  1  0
 15 28  1  0
 16 29  1  6
 17 30  1  0
 19 31  1  0
 19 32  1  0
 19 33  1  0
 20 34  1  0
 20 35  1  0
 20 36  1  0
 21 37  1  0
 21 38  1  0
 21 39  1  0
M  ISO  8  22  14  23  14  24  14  25  14  26  13  27  13  28  13  29  13
M  ISO  8  30   5  31   8  32   8  33   8  34   8  35   8  36   8  37   8
M  ISO  2  38   8  39   8
M  END
>  <minimizedAffinity>  (1) 
-4.83181143

>  <minimizedRMSD>  (1) 
7.46142673

$$$$
