
     RDKit          3D

 34 37  0  0  1  0  0  0  0  0999 V2000
   36.5780   30.2060   39.3310 C   0  0  0  0  0  0  0  0  0  0  0  0
   36.3490   29.9530   37.9500 C   0  0  0  0  0  0  0  0  0  0  0  0
   37.5400   31.1630   37.2460 S   0  0  0  0  0  0  0  0  0  0  0  0
   38.1150   31.7740   38.9910 C   0  0  0  0  0  0  0  0  0  0  0  0
   37.4720   31.1230   39.5930 N   0  0  0  0  0  0  0  0  0  0  0  0
   35.6050   29.2330   40.5370 S   0  0  0  0  0  0  0  0  0  0  0  0
   36.8820   27.0950   41.8250 C   0  0  0  0  0  0  0  0  0  0  0  0
   36.6760   28.4960   41.7150 C   0  0  0  0  0  0  0  0  0  0  0  0
   37.3850   29.2840   42.6140 C   0  0  0  0  0  0  0  0  0  0  0  0
   38.2220   28.7070   43.5370 N   0  0  0  0  0  0  0  0  0  0  0  0
   38.3780   27.3490   43.5900 C   0  0  0  0  0  0  0  0  0  0  0  0
   37.7220   26.5770   42.7530 N   0  0  0  0  0  0  0  0  0  0  0  0
   39.0780   32.7650   39.1420 O   0  0  0  0  0  0  0  0  0  0  0  0
   40.4700   32.4450   39.1880 C   0  0  1  0  0  0  0  0  0  0  0  0
   41.2930   33.4860   38.4270 C   0  0  0  0  0  0  0  0  0  0  0  0
   41.3230   33.3640   39.9770 C   0  0  1  0  0  0  0  0  0  0  0  0
   40.7860   34.3830   40.7600 N   0  0  0  0  0  0  0  0  0  0  0  0
   41.3240   35.6720   40.5980 C   0  0  0  0  0  0  0  0  0  0  0  0
   40.6030   36.9590   40.5330 C   0  0  0  0  0  0  0  0  0  0  0  0
   41.4250   36.6270   41.7430 C   0  0  0  0  0  0  0  0  0  0  0  0
   35.6663   29.2474   37.4540 H   0  0  0  0  0  0  0  0  0  0  0  0
   36.3486   26.4168   41.1427 H   0  0  0  0  0  0  0  0  0  0  0  0
   37.2748   30.3781   42.5859 H   0  0  0  0  0  0  0  0  0  0  0  0
   39.0536   26.9025   44.3344 H   0  0  0  0  0  0  0  0  0  0  0  0
   40.3696   31.3496   39.1859 H   0  0  0  0  0  0  0  0  0  0  0  0
   42.1623   33.1788   37.8271 H   0  0  0  0  0  0  0  0  0  0  0  0
   41.0844   34.2833   37.6984 H   0  0  0  0  0  0  0  0  0  0  0  0
   42.0989   33.2139   40.7422 H   0  0  0  0  0  0  0  0  0  0  0  0
   39.7797   34.4388   40.5477 H   0  0  0  0  0  0  0  0  0  0  0  0
   42.0019   35.1708   39.8914 H   0  0  0  0  0  0  0  0  0  0  0  0
   40.9397   37.7427   39.8384 H   0  0  0  0  0  0  0  0  0  0  0  0
   39.5575   37.2553   40.3622 H   0  0  0  0  0  0  0  0  0  0  0  0
   40.9326   36.3970   42.6994 H   0  0  0  0  0  0  0  0  0  0  0  0
   42.2483   37.1123   42.2877 H   0  0  0  0  0  0  0  0  0  0  0  0
  1  5  1  0
  1  6  1  0
  2  1  2  0
  3  2  1  0
  3  4  1  0
  4 13  1  0
  4  5  2  0
  6  8  1  0
  7 12  2  0
  8  7  1  0
  8  9  2  0
  9 10  1  0
 10 11  2  0
 12 11  1  0
 13 14  1  0
 14 16  1  0
 15 14  1  0
 15 16  1  0
 16 17  1  0
 18 17  1  0
 18 20  1  0
 19 18  1  0
 19 20  1  0
  2 21  1  0
  7 22  1  0
  9 23  1  0
 11 24  1  0
 14 25  1  6
 15 26  1  0
 15 27  1  0
 16 28  1  1
 17 29  1  0
 18 30  1  0
 19 31  1  0
 19 32  1  0
 20 33  1  0
 20 34  1  0
M  ISO  8  21  14  22  14  23  14  24  14  25  13  26  13  27  13  28  13
M  ISO  6  29   5  30  13  31  13  32  13  33  13  34  13
M  END
>  <minimizedAffinity>  (1) 
-4.65649605

>  <minimizedRMSD>  (1) 
2.6182363

$$$$
