
     RDKit          3D

 29 31  0  0  1  0  0  0  0  0999 V2000
   36.3620   30.2230   39.4580 C   0  0  0  0  0  0  0  0  0  0  0  0
   36.6000   29.8800   38.1150 C   0  0  0  0  0  0  0  0  0  0  0  0
   37.4380   31.4280   37.5850 S   0  0  0  0  0  0  0  0  0  0  0  0
   37.2890   32.2420   39.3330 C   0  0  0  0  0  0  0  0  0  0  0  0
   36.7790   31.4010   39.8130 N   0  0  0  0  0  0  0  0  0  0  0  0
   35.5070   28.9980   40.5240 S   0  0  0  0  0  0  0  0  0  0  0  0
   36.9080   26.9790   41.8750 C   0  0  0  0  0  0  0  0  0  0  0  0
   36.6270   28.3620   41.7160 C   0  0  0  0  0  0  0  0  0  0  0  0
   37.2950   29.2140   42.5690 C   0  0  0  0  0  0  0  0  0  0  0  0
   38.1690   28.7150   43.5000 N   0  0  0  0  0  0  0  0  0  0  0  0
   38.3960   27.3690   43.6010 C   0  0  0  0  0  0  0  0  0  0  0  0
   37.7680   26.5300   42.7950 N   0  0  0  0  0  0  0  0  0  0  0  0
   37.7700   33.5120   39.5980 O   0  0  0  0  0  0  0  0  0  0  0  0
   38.7540   33.7420   40.6290 C   0  0  1  0  0  0  0  0  0  0  0  0
   40.1380   33.9160   39.9890 C   0  0  0  0  0  0  0  0  0  0  0  0
   39.3950   35.0800   40.6390 C   0  0  1  0  0  0  0  0  0  0  0  0
   38.8620   36.1340   39.8390 N   0  0  0  0  0  0  0  0  0  0  0  0
   39.3530   37.4750   40.0010 C   0  0  0  0  0  0  0  0  0  0  0  0
   38.7460   38.5390   39.8250 O   0  0  0  0  0  0  0  0  0  0  0  0
   36.3586   28.9654   37.5536 H   0  0  0  0  0  0  0  0  0  0  0  0
   36.4020   26.2541   41.2204 H   0  0  0  0  0  0  0  0  0  0  0  0
   37.1262   30.2989   42.5025 H   0  0  0  0  0  0  0  0  0  0  0  0
   39.1011   26.9852   44.3530 H   0  0  0  0  0  0  0  0  0  0  0  0
   38.2930   33.1371   41.4237 H   0  0  0  0  0  0  0  0  0  0  0  0
   41.0301   33.4885   40.4700 H   0  0  0  0  0  0  0  0  0  0  0  0
   40.5828   33.7153   39.0032 H   0  0  0  0  0  0  0  0  0  0  0  0
   39.6465   35.8100   41.4225 H   0  0  0  0  0  0  0  0  0  0  0  0
   38.1264   35.9343   39.1463 H   0  0  0  0  0  0  0  0  0  0  0  0
   40.4010   37.5673   40.3221 H   0  0  0  0  0  0  0  0  0  0  0  0
  1  5  1  0
  1  6  1  0
  2  1  2  0
  3  2  1  0
  3  4  1  0
  4 13  1  0
  4  5  2  0
  6  8  1  0
  7 12  2  0
  8  7  1  0
  8  9  2  0
  9 10  1  0
 10 11  2  0
 12 11  1  0
 13 14  1  0
 14 16  1  0
 15 14  1  0
 15 16  1  0
 17 18  1  0
 17 16  1  0
 19 18  2  0
  2 20  1  0
  7 21  1  0
  9 22  1  0
 11 23  1  0
 14 24  1  1
 15 25  1  0
 15 26  1  0
 16 27  1  1
 17 28  1  0
 18 29  1  0
M  ISO  8  20  14  21  14  22  14  23  14  24  13  25  13  26  13  27  13
M  ISO  1  29   6
M  END
>  <minimizedAffinity>  (1) 
-5.02148533

>  <minimizedRMSD>  (1) 
1.72687757

$$$$
