
     RDKit          3D

 43 47  0  0  1  0  0  0  0  0999 V2000
   37.6140   33.1250   40.4770 C   0  0  1  0  0  0  0  0  0  0  0  0
   39.0000   32.4750   40.6890 C   0  0  0  0  0  0  0  0  0  0  0  0
   38.7600   34.0100   40.7270 C   0  0  1  0  0  0  0  0  0  0  0  0
   39.4220   34.6580   39.6490 N   0  0  0  0  0  0  0  0  0  0  0  0
   40.5420   35.5470   39.6680 C   0  0  0  0  0  0  0  0  0  0  0  0
   40.7460   36.7310   39.9610 O   0  0  0  0  0  0  0  0  0  0  0  0
   41.8690   34.9930   39.2260 C   0  0  0  0  0  0  0  0  0  0  0  0
   42.3620   35.0750   37.9560 C   0  0  0  0  0  0  0  0  0  0  0  0
   43.5760   34.4550   37.9440 N   0  0  0  0  0  0  0  0  0  0  0  0
   43.8720   33.9810   39.1550 C   0  0  0  0  0  0  0  0  0  0  0  0
   44.9130   33.2930   39.7410 C   0  0  0  0  0  0  0  0  0  0  0  0
   44.8390   32.9710   41.0990 C   0  0  0  0  0  0  0  0  0  0  0  0
   43.7640   33.3100   41.9070 C   0  0  0  0  0  0  0  0  0  0  0  0
   42.7400   33.9980   41.2950 C   0  0  0  0  0  0  0  0  0  0  0  0
   42.8190   34.3090   39.9680 C   0  0  0  0  0  0  0  0  0  0  0  0
   37.2190   32.9040   39.1080 O   0  0  0  0  0  0  0  0  0  0  0  0
   36.5570   29.4970   38.2200 C   0  0  0  0  0  0  0  0  0  0  0  0
   37.1950   29.4490   36.9590 C   0  0  0  0  0  0  0  0  0  0  0  0
   37.7950   31.1840   36.9000 S   0  0  0  0  0  0  0  0  0  0  0  0
   37.0460   31.6310   38.6270 C   0  0  0  0  0  0  0  0  0  0  0  0
   36.6310   30.6490   38.8030 N   0  0  0  0  0  0  0  0  0  0  0  0
   35.7570   27.9780   38.8380 S   0  0  0  0  0  0  0  0  0  0  0  0
   37.2200   26.3390   40.6180 C   0  0  0  0  0  0  0  0  0  0  0  0
   36.4470   27.5210   40.3780 C   0  0  0  0  0  0  0  0  0  0  0  0
   36.2550   28.3310   41.4760 C   0  0  0  0  0  0  0  0  0  0  0  0
   36.7900   27.9840   42.6950 N   0  0  0  0  0  0  0  0  0  0  0  0
   37.5220   26.8300   42.8460 C   0  0  0  0  0  0  0  0  0  0  0  0
   37.7230   26.0300   41.8050 N   0  0  0  0  0  0  0  0  0  0  0  0
   36.6140   33.1047   40.9348 H   0  0  0  0  0  0  0  0  0  0  0  0
   39.2223   31.9207   41.6128 H   0  0  0  0  0  0  0  0  0  0  0  0
   39.6496   31.7831   40.1328 H   0  0  0  0  0  0  0  0  0  0  0  0
   38.8779   34.8473   41.4306 H   0  0  0  0  0  0  0  0  0  0  0  0
   39.0377   34.4573   38.7147 H   0  0  0  0  0  0  0  0  0  0  0  0
   41.8690   35.5546   37.0975 H   0  0  0  0  0  0  0  0  0  0  0  0
   44.1806   34.3651   37.1150 H   0  0  0  0  0  0  0  0  0  0  0  0
   45.7914   33.0009   39.1468 H   0  0  0  0  0  0  0  0  0  0  0  0
   45.6771   32.4199   41.5505 H   0  0  0  0  0  0  0  0  0  0  0  0
   43.7312   33.0449   42.9741 H   0  0  0  0  0  0  0  0  0  0  0  0
   41.8560   34.2978   41.8769 H   0  0  0  0  0  0  0  0  0  0  0  0
   37.2997   28.6264   36.2363 H   0  0  0  0  0  0  0  0  0  0  0  0
   37.4051   25.6548   39.7768 H   0  0  0  0  0  0  0  0  0  0  0  0
   35.6718   29.2585   41.3775 H   0  0  0  0  0  0  0  0  0  0  0  0
   37.9412   26.5693   43.8290 H   0  0  0  0  0  0  0  0  0  0  0  0
  1  2  1  0
  1  3  1  0
  2  3  1  0
  4  5  1  0
  4  3  1  0
  5  6  2  0
  7  5  1  0
  7 15  1  0
  8  7  2  0
  9  8  1  0
  9 10  1  0
 10 11  2  0
 10 15  1  0
 11 12  1  0
 12 13  2  0
 14 13  1  0
 15 14  2  0
 16  1  1  0
 17 21  1  0
 17 22  1  0
 18 17  2  0
 19 18  1  0
 19 20  1  0
 20 21  2  0
 20 16  1  0
 22 24  1  0
 23 28  2  0
 24 23  1  0
 24 25  2  0
 25 26  1  0
 26 27  2  0
 28 27  1  0
  1 29  1  1
  2 30  1  0
  2 31  1  0
  3 32  1  1
  4 33  1  0
  8 34  1  0
  9 35  1  0
 11 36  1  0
 12 37  1  0
 13 38  1  0
 14 39  1  0
 18 40  1  0
 23 41  1  0
 25 42  1  0
 27 43  1  0
M  ISO  8  29  13  30  13  31  13  32  13  34  14  35   9  36  14  37  14
M  ISO  6  38  14  39  14  40  14  41  14  42  14  43  14
M  END
>  <minimizedAffinity>  (1) 
-5.7544055

>  <minimizedRMSD>  (1) 
2.78256321

$$$$
