
     RDKit          3D

 40 44  0  0  1  0  0  0  0  0999 V2000
   38.5740   34.2060   40.6390 C   0  0  1  0  0  0  0  0  0  0  0  0
   39.3910   32.9430   40.9690 C   0  0  0  0  0  0  0  0  0  0  0  0
   39.9910   34.1810   40.2490 C   0  0  1  0  0  0  0  0  0  0  0  0
   40.3520   33.8640   38.8950 N   0  0  0  0  0  0  0  0  0  0  0  0
   41.6300   33.8790   38.2670 C   0  0  0  0  0  0  0  0  0  0  0  0
   42.4180   34.7900   37.8790 O   0  0  0  0  0  0  0  0  0  0  0  0
   43.7110   29.9660   39.9370 N   0  0  0  0  0  0  0  0  0  0  0  0
   43.3300   30.8020   40.9090 C   0  0  0  0  0  0  0  0  0  0  0  0
   42.7560   31.8570   40.3170 N   0  0  0  0  0  0  0  0  0  0  0  0
   42.7390   31.7540   38.9790 C   0  0  0  0  0  0  0  0  0  0  0  0
   42.2740   32.5460   37.9360 C   0  0  0  0  0  0  0  0  0  0  0  0
   42.4840   32.0170   36.7440 N   0  0  0  0  0  0  0  0  0  0  0  0
   43.0730   30.8530   36.5160 C   0  0  0  0  0  0  0  0  0  0  0  0
   43.5250   30.0810   37.5160 N   0  0  0  0  0  0  0  0  0  0  0  0
   43.3650   30.5200   38.7670 C   0  0  0  0  0  0  0  0  0  0  0  0
   37.5960   33.8530   39.6290 O   0  0  0  0  0  0  0  0  0  0  0  0
   36.4310   30.4660   39.5780 C   0  0  0  0  0  0  0  0  0  0  0  0
   36.8180   30.0920   38.2830 C   0  0  0  0  0  0  0  0  0  0  0  0
   37.5840   31.6870   37.7590 S   0  0  0  0  0  0  0  0  0  0  0  0
   37.2090   32.5480   39.4500 C   0  0  0  0  0  0  0  0  0  0  0  0
   36.7300   31.6850   39.8930 N   0  0  0  0  0  0  0  0  0  0  0  0
   35.5910   29.2180   40.6120 S   0  0  0  0  0  0  0  0  0  0  0  0
   36.9160   27.1160   41.9220 C   0  0  0  0  0  0  0  0  0  0  0  0
   36.7400   28.5140   41.7440 C   0  0  0  0  0  0  0  0  0  0  0  0
   37.5320   29.3280   42.5150 C   0  0  0  0  0  0  0  0  0  0  0  0
   38.4310   28.7790   43.3980 N   0  0  0  0  0  0  0  0  0  0  0  0
   38.5590   27.4190   43.5290 C   0  0  0  0  0  0  0  0  0  0  0  0
   37.8060   26.6140   42.7950 N   0  0  0  0  0  0  0  0  0  0  0  0
   37.9918   34.9735   41.1701 H   0  0  0  0  0  0  0  0  0  0  0  0
   39.6679   32.7124   42.0083 H   0  0  0  0  0  0  0  0  0  0  0  0
   39.3086   31.8653   40.7647 H   0  0  0  0  0  0  0  0  0  0  0  0
   40.7961   34.9141   40.4053 H   0  0  0  0  0  0  0  0  0  0  0  0
   39.5689   33.5839   38.2873 H   0  0  0  0  0  0  0  0  0  0  0  0
   44.1846   29.0603   40.0647 H   0  0  0  0  0  0  0  0  0  0  0  0
   43.4631   30.6513   41.9905 H   0  0  0  0  0  0  0  0  0  0  0  0
   43.1950   30.5096   35.4781 H   0  0  0  0  0  0  0  0  0  0  0  0
   36.7009   29.1399   37.7447 H   0  0  0  0  0  0  0  0  0  0  0  0
   36.3045   26.4221   41.3265 H   0  0  0  0  0  0  0  0  0  0  0  0
   37.4471   30.4211   42.4261 H   0  0  0  0  0  0  0  0  0  0  0  0
   39.2845   26.9990   44.2412 H   0  0  0  0  0  0  0  0  0  0  0  0
  1  2  1  0
  3  1  1  0
  3  2  1  0
  4  3  1  0
  5  4  1  0
  6  5  2  0
  7  8  1  0
  9  8  2  0
 10  9  1  0
 11  5  1  0
 11 10  2  0
 12 11  1  0
 13 12  2  0
 13 14  1  0
 14 15  2  0
 15 10  1  0
 15  7  1  0
 16  1  1  0
 17 21  1  0
 17 22  1  0
 18 17  2  0
 19 18  1  0
 19 20  1  0
 20 16  1  0
 20 21  2  0
 22 24  1  0
 23 28  2  0
 24 23  1  0
 24 25  2  0
 25 26  1  0
 26 27  2  0
 28 27  1  0
  1 29  1  1
  2 30  1  0
  2 31  1  0
  3 32  1  1
  4 33  1  0
  7 34  1  0
  8 35  1  0
 13 36  1  0
 18 37  1  0
 23 38  1  0
 25 39  1  0
 27 40  1  0
M  ISO  8  29  13  30  13  31  13  32  13  34   9  35  14  36  14  37  14
M  ISO  3  38  14  39  14  40  14
M  END
>  <minimizedAffinity>  (1) 
-5.69725418

>  <minimizedRMSD>  (1) 
4.20752478

$$$$
