
     RDKit          3D

 34 37  0  0  1  0  0  0  0  0999 V2000
   37.8450   33.7830   39.8080 O   0  0  0  0  0  0  0  0  0  0  0  0
   38.9170   33.9970   40.7550 C   0  0  1  0  0  0  0  0  0  0  0  0
   39.7840   32.7190   40.7830 C   0  0  0  0  0  0  0  0  0  0  0  0
   40.2840   34.0860   40.2320 C   0  0  1  0  0  0  0  0  0  0  0  0
   40.5160   34.0020   38.8220 N   0  0  0  0  0  0  0  0  0  0  0  0
   41.7480   33.9920   38.1020 C   0  0  0  0  0  0  0  0  0  0  0  0
   42.6230   34.8690   37.8170 O   0  0  0  0  0  0  0  0  0  0  0  0
   42.2480   32.6920   37.4670 C   0  0  0  0  0  0  0  0  0  0  0  0
   43.5450   32.5080   37.2410 N   0  0  0  0  0  0  0  0  0  0  0  0
   43.7060   31.3220   36.6800 O   0  0  0  0  0  0  0  0  0  0  0  0
   42.5390   30.7580   36.5500 C   0  0  0  0  0  0  0  0  0  0  0  0
   41.5980   31.5690   37.0240 N   0  0  0  0  0  0  0  0  0  0  0  0
   36.4430   30.4940   39.5880 C   0  0  0  0  0  0  0  0  0  0  0  0
   36.7580   30.1810   38.2600 C   0  0  0  0  0  0  0  0  0  0  0  0
   37.6160   31.7510   37.8090 S   0  0  0  0  0  0  0  0  0  0  0  0
   37.3600   32.5240   39.5640 C   0  0  0  0  0  0  0  0  0  0  0  0
   36.8360   31.6670   39.9720 N   0  0  0  0  0  0  0  0  0  0  0  0
   35.5530   29.2410   40.5760 S   0  0  0  0  0  0  0  0  0  0  0  0
   36.8510   27.0990   41.8630 C   0  0  0  0  0  0  0  0  0  0  0  0
   36.6510   28.5040   41.7320 C   0  0  0  0  0  0  0  0  0  0  0  0
   37.3860   29.2950   42.5830 C   0  0  0  0  0  0  0  0  0  0  0  0
   38.2510   28.7210   43.4910 N   0  0  0  0  0  0  0  0  0  0  0  0
   38.3970   27.3610   43.5660 C   0  0  0  0  0  0  0  0  0  0  0  0
   37.7000   26.5790   42.7580 N   0  0  0  0  0  0  0  0  0  0  0  0
   38.3816   34.6479   41.4619 H   0  0  0  0  0  0  0  0  0  0  0  0
   40.1691   32.3248   41.7350 H   0  0  0  0  0  0  0  0  0  0  0  0
   39.6999   31.6891   40.4059 H   0  0  0  0  0  0  0  0  0  0  0  0
   41.0823   34.8157   40.4326 H   0  0  0  0  0  0  0  0  0  0  0  0
   39.6679   33.9395   38.2409 H   0  0  0  0  0  0  0  0  0  0  0  0
   42.3596   29.7637   36.1150 H   0  0  0  0  0  0  0  0  0  0  0  0
   36.5559   29.2766   37.6674 H   0  0  0  0  0  0  0  0  0  0  0  0
   36.2887   26.4188   41.2064 H   0  0  0  0  0  0  0  0  0  0  0  0
   37.2838   30.3894   42.5396 H   0  0  0  0  0  0  0  0  0  0  0  0
   39.0919   26.9203   44.2961 H   0  0  0  0  0  0  0  0  0  0  0  0
  1  2  1  0
  2  3  1  0
  4  2  1  0
  4  3  1  0
  5  4  1  0
  6  5  1  0
  7  6  2  0
  8  6  1  0
  9  8  2  0
 10  9  1  0
 11 10  1  0
 11 12  2  0
 12  8  1  0
 13 17  1  0
 13 18  1  0
 14 13  2  0
 15 14  1  0
 15 16  1  0
 16  1  1  0
 16 17  2  0
 18 20  1  0
 19 24  2  0
 20 19  1  0
 20 21  2  0
 21 22  1  0
 22 23  2  0
 24 23  1  0
  2 25  1  1
  3 26  1  0
  3 27  1  0
  4 28  1  1
  5 29  1  0
 11 30  1  0
 14 31  1  0
 19 32  1  0
 21 33  1  0
 23 34  1  0
M  ISO  8  25  13  26  13  27  13  28  13  30  14  31  14  32  14  33  14
M  ISO  1  34  14
M  END
>  <minimizedAffinity>  (1) 
-5.60345793

>  <minimizedRMSD>  (1) 
3.68708467

$$$$
