
     RDKit          3D

 36 39  0  0  1  0  0  0  0  0999 V2000
   37.8230   33.7720   39.7750 O   0  0  0  0  0  0  0  0  0  0  0  0
   38.8860   34.0010   40.7360 C   0  0  1  0  0  0  0  0  0  0  0  0
   39.7380   32.7170   40.8050 C   0  0  0  0  0  0  0  0  0  0  0  0
   40.2600   34.0650   40.2260 C   0  0  1  0  0  0  0  0  0  0  0  0
   40.5070   33.9480   38.8190 N   0  0  0  0  0  0  0  0  0  0  0  0
   41.7280   34.0290   38.0910 C   0  0  0  0  0  0  0  0  0  0  0  0
   42.5160   34.9850   37.7890 O   0  0  0  0  0  0  0  0  0  0  0  0
   42.3040   32.7560   37.4960 C   0  0  0  0  0  0  0  0  0  0  0  0
   43.6140   32.3370   37.2710 C   0  0  0  0  0  0  0  0  0  0  0  0
   43.6960   31.0960   36.7020 C   0  0  0  0  0  0  0  0  0  0  0  0
   42.3690   30.7700   36.5860 C   0  0  0  0  0  0  0  0  0  0  0  0
   41.6290   31.7280   37.0420 O   0  0  0  0  0  0  0  0  0  0  0  0
   36.4360   30.4770   39.5740 C   0  0  0  0  0  0  0  0  0  0  0  0
   36.7580   30.1540   38.2460 C   0  0  0  0  0  0  0  0  0  0  0  0
   37.6100   31.7250   37.7870 S   0  0  0  0  0  0  0  0  0  0  0  0
   37.3470   32.5100   39.5350 C   0  0  0  0  0  0  0  0  0  0  0  0
   36.8270   31.6520   39.9380 N   0  0  0  0  0  0  0  0  0  0  0  0
   35.5480   29.2280   40.5750 S   0  0  0  0  0  0  0  0  0  0  0  0
   36.8460   27.0960   41.8740 C   0  0  0  0  0  0  0  0  0  0  0  0
   36.6490   28.5020   41.7300 C   0  0  0  0  0  0  0  0  0  0  0  0
   37.3950   29.2980   42.5670 C   0  0  0  0  0  0  0  0  0  0  0  0
   38.2640   28.7320   43.4730 N   0  0  0  0  0  0  0  0  0  0  0  0
   38.4030   27.3860   43.5580 C   0  0  0  0  0  0  0  0  0  0  0  0
   37.6980   26.5790   42.7650 N   0  0  0  0  0  0  0  0  0  0  0  0
   38.3489   34.6732   41.4213 H   0  0  0  0  0  0  0  0  0  0  0  0
   40.1080   32.3423   41.7708 H   0  0  0  0  0  0  0  0  0  0  0  0
   39.6469   31.6791   40.4522 H   0  0  0  0  0  0  0  0  0  0  0  0
   41.0646   34.7901   40.4179 H   0  0  0  0  0  0  0  0  0  0  0  0
   39.6694   33.7787   38.2440 H   0  0  0  0  0  0  0  0  0  0  0  0
   44.4950   32.9444   37.5259 H   0  0  0  0  0  0  0  0  0  0  0  0
   44.5857   30.5162   36.4150 H   0  0  0  0  0  0  0  0  0  0  0  0
   41.9880   29.8278   36.1650 H   0  0  0  0  0  0  0  0  0  0  0  0
   36.5625   29.2441   37.6596 H   0  0  0  0  0  0  0  0  0  0  0  0
   36.2757   26.4123   41.2280 H   0  0  0  0  0  0  0  0  0  0  0  0
   37.2972   30.3923   42.5126 H   0  0  0  0  0  0  0  0  0  0  0  0
   39.1042   26.9558   44.2883 H   0  0  0  0  0  0  0  0  0  0  0  0
  1  2  1  0
  2  3  1  0
  4  2  1  0
  4  3  1  0
  5  4  1  0
  6  5  1  0
  7  6  2  0
  8  6  1  0
  9  8  2  0
 10  9  1  0
 11 10  2  0
 11 12  1  0
 12  8  1  0
 13 17  1  0
 13 18  1  0
 14 13  2  0
 15 14  1  0
 15 16  1  0
 16  1  1  0
 16 17  2  0
 18 20  1  0
 19 24  2  0
 20 19  1  0
 20 21  2  0
 21 22  1  0
 22 23  2  0
 24 23  1  0
  2 25  1  1
  3 26  1  0
  3 27  1  0
  4 28  1  1
  5 29  1  0
  9 30  1  0
 10 31  1  0
 11 32  1  0
 14 33  1  0
 19 34  1  0
 21 35  1  0
 23 36  1  0
M  ISO  8  25  13  26  13  27  13  28  13  30  14  31  14  32  14  33  14
M  ISO  3  34  14  35  14  36  14
M  END
>  <minimizedAffinity>  (1) 
-5.59586334

>  <minimizedRMSD>  (1) 
3.57601881

$$$$
