
     RDKit          3D

 42 45  0  0  1  0  0  0  0  0999 V2000
   37.3830   32.6730   39.0610 O   0  0  0  0  0  0  0  0  0  0  0  0
   37.6130   33.0800   40.4390 C   0  0  1  0  0  0  0  0  0  0  0  0
   38.9910   32.5310   40.8620 C   0  0  0  0  0  0  0  0  0  0  0  0
   38.6980   34.0430   40.6700 C   0  0  1  0  0  0  0  0  0  0  0  0
   39.4240   34.5880   39.5610 N   0  0  0  0  0  0  0  0  0  0  0  0
   40.6520   35.3030   39.5540 C   0  0  0  0  0  0  0  0  0  0  0  0
   41.0480   36.4290   39.8660 O   0  0  0  0  0  0  0  0  0  0  0  0
   41.8990   34.6970   39.0730 N   0  0  0  0  0  0  0  0  0  0  0  0
   42.6920   34.0090   40.0730 C   0  0  0  0  0  0  0  0  0  0  0  0
   42.6730   32.5250   39.6930 C   0  0  0  0  0  0  0  0  0  0  0  0
   42.2130   32.3760   38.3860 O   0  0  0  0  0  0  0  0  0  0  0  0
   42.8900   33.2000   37.4990 C   0  0  0  0  0  0  0  0  0  0  0  0
   42.5320   34.6420   37.7690 C   0  0  0  0  0  0  0  0  0  0  0  0
   36.6700   29.1880   38.6570 C   0  0  0  0  0  0  0  0  0  0  0  0
   37.0000   29.0290   37.2960 C   0  0  0  0  0  0  0  0  0  0  0  0
   37.5040   30.7600   36.9370 S   0  0  0  0  0  0  0  0  0  0  0  0
   37.1570   31.3590   38.7410 C   0  0  0  0  0  0  0  0  0  0  0  0
   36.8300   30.3890   39.1120 N   0  0  0  0  0  0  0  0  0  0  0  0
   36.0850   27.7210   39.5840 S   0  0  0  0  0  0  0  0  0  0  0  0
   37.8640   26.5750   41.4350 C   0  0  0  0  0  0  0  0  0  0  0  0
   36.9400   27.6120   41.1090 C   0  0  0  0  0  0  0  0  0  0  0  0
   36.7450   28.5630   42.0840 C   0  0  0  0  0  0  0  0  0  0  0  0
   37.4180   28.4820   43.2840 N   0  0  0  0  0  0  0  0  0  0  0  0
   38.2920   27.4620   43.5380 C   0  0  0  0  0  0  0  0  0  0  0  0
   38.5000   26.5300   42.6170 N   0  0  0  0  0  0  0  0  0  0  0  0
   36.5748   33.0660   40.8021 H   0  0  0  0  0  0  0  0  0  0  0  0
   39.1416   32.1143   41.8688 H   0  0  0  0  0  0  0  0  0  0  0  0
   39.7144   31.8030   40.4661 H   0  0  0  0  0  0  0  0  0  0  0  0
   38.7300   34.9665   41.2667 H   0  0  0  0  0  0  0  0  0  0  0  0
   38.9941   34.4403   38.6367 H   0  0  0  0  0  0  0  0  0  0  0  0
   43.7240   34.3898   40.0685 H   0  0  0  0  0  0  0  0  0  0  0  0
   42.2858   34.1676   41.0829 H   0  0  0  0  0  0  0  0  0  0  0  0
   43.6911   32.1156   39.7703 H   0  0  0  0  0  0  0  0  0  0  0  0
   42.0021   31.9846   40.3769 H   0  0  0  0  0  0  0  0  0  0  0  0
   42.6061   32.9396   36.4687 H   0  0  0  0  0  0  0  0  0  0  0  0
   43.9736   33.0632   37.6295 H   0  0  0  0  0  0  0  0  0  0  0  0
   43.4409   35.2615   37.7663 H   0  0  0  0  0  0  0  0  0  0  0  0
   41.8535   35.0248   36.9924 H   0  0  0  0  0  0  0  0  0  0  0  0
   36.9663   28.1412   36.6474 H   0  0  0  0  0  0  0  0  0  0  0  0
   38.0620   25.7865   40.6940 H   0  0  0  0  0  0  0  0  0  0  0  0
   36.0469   29.3939   41.9045 H   0  0  0  0  0  0  0  0  0  0  0  0
   38.8204   27.4142   44.5016 H   0  0  0  0  0  0  0  0  0  0  0  0
  1  2  1  0
  2  4  1  0
  2  3  1  0
  4  3  1  0
  5  4  1  0
  6  5  1  0
  6  7  2  0
  8  6  1  0
  8  9  1  0
 10  9  1  0
 11 10  1  0
 12 13  1  0
 12 11  1  0
 13  8  1  0
 14 18  1  0
 14 19  1  0
 15 14  2  0
 16 15  1  0
 16 17  1  0
 17  1  1  0
 17 18  2  0
 19 21  1  0
 20 25  2  0
 21 20  1  0
 21 22  2  0
 22 23  1  0
 23 24  2  0
 25 24  1  0
  2 26  1  1
  3 27  1  0
  3 28  1  0
  4 29  1  1
  5 30  1  0
  9 31  1  0
  9 32  1  0
 10 33  1  0
 10 34  1  0
 12 35  1  0
 12 36  1  0
 13 37  1  0
 13 38  1  0
 15 39  1  0
 20 40  1  0
 22 41  1  0
 24 42  1  0
M  ISO  8  26  13  27  13  28  13  29  13  31  13  32  13  33  13  34  13
M  ISO  8  35  13  36  13  37  13  38  13  39  14  40  14  41  14  42  14
M  END
>  <minimizedAffinity>  (1) 
-5.4084754

>  <minimizedRMSD>  (1) 
2.54293752

$$$$
