
     RDKit          3D

 17 18  0  0  0  0  0  0  0  0999 V2000
   38.3370   28.5790   43.3700 C   0  0  0  0  0  0  0  0  0  0  0  0
   37.3210   27.6180   43.1040 C   0  0  0  0  0  0  0  0  0  0  0  0
   36.4000   27.9140   42.0930 C   0  0  0  0  0  0  0  0  0  0  0  0
   36.5220   29.0970   41.4220 N   0  0  0  0  0  0  0  0  0  0  0  0
   37.4990   29.9800   41.7060 C   0  0  0  0  0  0  0  0  0  0  0  0
   38.3960   29.7250   42.6680 N   0  0  0  0  0  0  0  0  0  0  0  0
   37.6440   31.2180   41.0180 N   0  0  0  0  0  0  0  0  0  0  0  0
   38.7390   31.9150   41.3150 N   0  0  0  0  0  0  0  0  0  0  0  0
   38.7440   33.0630   40.5910 C   0  0  0  0  0  0  0  0  0  0  0  0
   37.5840   33.0200   39.8350 C   0  0  0  0  0  0  0  0  0  0  0  0
   36.8770   31.8480   40.1010 C   0  0  0  0  0  0  0  0  0  0  0  0
   39.0805   28.3827   44.1566 H   0  0  0  0  0  0  0  0  0  0  0  0
   37.2621   26.6778   43.6720 H   0  0  0  0  0  0  0  0  0  0  0  0
   35.5941   27.2080   41.8438 H   0  0  0  0  0  0  0  0  0  0  0  0
   39.5054   33.8568   40.6021 H   0  0  0  0  0  0  0  0  0  0  0  0
   37.2661   33.7989   39.1263 H   0  0  0  0  0  0  0  0  0  0  0  0
   35.9222   31.5154   39.6676 H   0  0  0  0  0  0  0  0  0  0  0  0
  2  1  2  0
  3  2  1  0
  4  5  1  0
  4  3  2  0
  5  6  2  0
  6  1  1  0
  7  8  1  0
  7  5  1  0
  9  8  2  0
 10 11  2  0
 10  9  1  0
 11  7  1  0
  1 12  1  0
  2 13  1  0
  3 14  1  0
  9 15  1  0
 10 16  1  0
 11 17  1  0
M  ISO  6  12  14  13  14  14  14  15  14  16  14  17  14
M  END
>  <minimizedAffinity>  (1) 
-3.81818461

>  <minimizedRMSD>  (1) 
1.78369105

$$$$
