
     RDKit          3D

 36 39  0  0  1  0  0  0  0  0999 V2000
   37.2010   32.9190   39.0890 O   0  0  0  0  0  0  0  0  0  0  0  0
   37.5850   33.1480   40.4690 C   0  0  1  0  0  0  0  0  0  0  0  0
   38.9730   32.5100   40.6890 C   0  0  0  0  0  0  0  0  0  0  0  0
   38.7210   34.0440   40.7140 C   0  0  1  0  0  0  0  0  0  0  0  0
   39.3900   34.6860   39.6340 N   0  0  0  0  0  0  0  0  0  0  0  0
   40.5950   35.4360   39.6280 C   0  0  0  0  0  0  0  0  0  0  0  0
   40.9680   36.5940   39.9740 O   0  0  0  0  0  0  0  0  0  0  0  0
   41.9210   34.7560   39.0400 C   0  0  0  0  0  0  0  0  0  0  0  0
   42.4120   34.5790   37.8870 C   0  0  0  0  0  0  0  0  0  0  0  0
   43.6070   33.9600   37.7020 C   0  0  0  0  0  0  0  0  0  0  0  0
   44.2620   33.5300   38.8620 C   0  0  0  0  0  0  0  0  0  0  0  0
   42.9940   34.1070   40.1900 S   0  0  0  0  0  0  0  0  0  0  0  0
   36.5460   29.5080   38.2130 C   0  0  0  0  0  0  0  0  0  0  0  0
   37.1810   29.4450   36.9690 C   0  0  0  0  0  0  0  0  0  0  0  0
   37.7880   31.1850   36.8920 S   0  0  0  0  0  0  0  0  0  0  0  0
   37.0340   31.6450   38.6100 C   0  0  0  0  0  0  0  0  0  0  0  0
   36.6070   30.6600   38.8100 N   0  0  0  0  0  0  0  0  0  0  0  0
   35.7360   27.9930   38.8360 S   0  0  0  0  0  0  0  0  0  0  0  0
   37.2030   26.3580   40.5950 C   0  0  0  0  0  0  0  0  0  0  0  0
   36.4340   27.5340   40.3810 C   0  0  0  0  0  0  0  0  0  0  0  0
   36.2490   28.3360   41.4830 C   0  0  0  0  0  0  0  0  0  0  0  0
   36.7930   27.9830   42.6990 N   0  0  0  0  0  0  0  0  0  0  0  0
   37.5260   26.8300   42.8360 C   0  0  0  0  0  0  0  0  0  0  0  0
   37.7170   26.0450   41.7910 N   0  0  0  0  0  0  0  0  0  0  0  0
   36.5843   33.1200   40.9249 H   0  0  0  0  0  0  0  0  0  0  0  0
   39.1971   31.9648   41.6177 H   0  0  0  0  0  0  0  0  0  0  0  0
   39.6289   31.8183   40.1400 H   0  0  0  0  0  0  0  0  0  0  0  0
   38.8259   34.8900   41.4091 H   0  0  0  0  0  0  0  0  0  0  0  0
   38.9296   34.5920   38.7174 H   0  0  0  0  0  0  0  0  0  0  0  0
   41.8547   34.9370   37.0088 H   0  0  0  0  0  0  0  0  0  0  0  0
   44.0345   33.8058   36.7003 H   0  0  0  0  0  0  0  0  0  0  0  0
   45.2248   33.0113   38.9805 H   0  0  0  0  0  0  0  0  0  0  0  0
   37.2862   28.6140   36.2560 H   0  0  0  0  0  0  0  0  0  0  0  0
   37.3824   25.6804   39.7472 H   0  0  0  0  0  0  0  0  0  0  0  0
   35.6642   29.2633   41.3933 H   0  0  0  0  0  0  0  0  0  0  0  0
   37.9530   26.5608   43.8134 H   0  0  0  0  0  0  0  0  0  0  0  0
  1  2  1  0
  2  3  1  0
  2  4  1  0
  3  4  1  0
  5  4  1  0
  6  5  1  0
  6  7  2  0
  8  6  1  0
  8 12  1  0
  9  8  2  0
 10  9  1  0
 10 11  2  0
 11 12  1  0
 13 17  1  0
 13 18  1  0
 14 13  2  0
 15 14  1  0
 15 16  1  0
 16 17  2  0
 16  1  1  0
 18 20  1  0
 19 24  2  0
 20 19  1  0
 20 21  2  0
 21 22  1  0
 22 23  2  0
 24 23  1  0
  2 25  1  1
  3 26  1  0
  3 27  1  0
  4 28  1  1
  5 29  1  0
  9 30  1  0
 10 31  1  0
 11 32  1  0
 14 33  1  0
 19 34  1  0
 21 35  1  0
 23 36  1  0
M  ISO  8  25  13  26  13  27  13  28  13  30  14  31  14  32  14  33  14
M  ISO  3  34  14  35  14  36  14
M  END
>  <minimizedAffinity>  (1) 
-5.12500668

>  <minimizedRMSD>  (1) 
2.57666898

$$$$
