
     RDKit          3D

 31 33  0  0  1  0  0  0  0  0999 V2000
   36.7430   29.3210   38.7600 C   0  0  0  0  0  0  0  0  0  0  0  0
   36.9290   29.2430   37.3760 C   0  0  0  0  0  0  0  0  0  0  0  0
   37.5340   30.9590   37.0960 S   0  0  0  0  0  0  0  0  0  0  0  0
   37.4040   31.4350   38.9620 C   0  0  0  0  0  0  0  0  0  0  0  0
   37.0380   30.4690   39.2840 N   0  0  0  0  0  0  0  0  0  0  0  0
   36.1330   27.8330   39.6490 S   0  0  0  0  0  0  0  0  0  0  0  0
   37.8910   26.6160   41.4890 C   0  0  0  0  0  0  0  0  0  0  0  0
   36.9780   27.6750   41.1840 C   0  0  0  0  0  0  0  0  0  0  0  0
   36.7820   28.6040   42.1760 C   0  0  0  0  0  0  0  0  0  0  0  0
   37.4430   28.4860   43.3810 N   0  0  0  0  0  0  0  0  0  0  0  0
   38.3070   27.4420   43.6090 C   0  0  0  0  0  0  0  0  0  0  0  0
   38.5100   26.5380   42.6670 N   0  0  0  0  0  0  0  0  0  0  0  0
   37.7650   32.7040   39.3380 O   0  0  0  0  0  0  0  0  0  0  0  0
   38.2590   32.9670   40.6760 C   0  0  1  0  0  0  0  0  0  0  0  0
   39.7970   32.8140   40.6450 C   0  0  0  0  0  0  0  0  0  0  0  0
   39.0760   34.1710   40.8650 C   0  0  1  0  0  0  0  0  0  0  0  0
   39.3130   35.0650   39.7860 N   0  0  0  0  0  0  0  0  0  0  0  0
   39.9100   36.3630   39.8090 C   0  0  0  0  0  0  0  0  0  0  0  0
   39.5900   37.5080   40.1430 O   0  0  0  0  0  0  0  0  0  0  0  0
   41.2780   36.5920   39.3360 N   0  0  0  0  0  0  0  0  0  0  0  0
   36.7647   28.4133   36.6727 H   0  0  0  0  0  0  0  0  0  0  0  0
   38.0875   25.8446   40.7299 H   0  0  0  0  0  0  0  0  0  0  0  0
   36.0946   29.4464   42.0090 H   0  0  0  0  0  0  0  0  0  0  0  0
   38.8286   27.3591   44.5739 H   0  0  0  0  0  0  0  0  0  0  0  0
   37.4028   32.5850   41.2513 H   0  0  0  0  0  0  0  0  0  0  0  0
   40.3269   32.3214   41.4735 H   0  0  0  0  0  0  0  0  0  0  0  0
   40.5446   32.4123   39.9452 H   0  0  0  0  0  0  0  0  0  0  0  0
   39.0208   34.9610   41.6284 H   0  0  0  0  0  0  0  0  0  0  0  0
   39.0129   34.7310   38.8590 H   0  0  0  0  0  0  0  0  0  0  0  0
   41.6812   37.5394   39.3651 H   0  0  0  0  0  0  0  0  0  0  0  0
   41.8363   35.8056   38.9745 H   0  0  0  0  0  0  0  0  0  0  0  0
  1  5  1  0
  1  6  1  0
  2  1  2  0
  3  2  1  0
  3  4  1  0
  4  5  2  0
  4 13  1  0
  6  8  1  0
  7 12  2  0
  8  7  1  0
  8  9  2  0
  9 10  1  0
 10 11  2  0
 12 11  1  0
 13 14  1  0
 14 16  1  0
 15 14  1  0
 15 16  1  0
 17 18  1  0
 17 16  1  0
 18 19  2  0
 20 18  1  0
  2 21  1  0
  7 22  1  0
  9 23  1  0
 11 24  1  0
 14 25  1  1
 15 26  1  0
 15 27  1  0
 16 28  1  1
 17 29  1  0
 20 30  1  0
 20 31  1  0
M  ISO  8  21  14  22  14  23  14  24  14  25  13  26  13  27  13  28  13
M  END
>  <minimizedAffinity>  (1) 
-4.8878026

>  <minimizedRMSD>  (1) 
1.07982159

$$$$
