
     RDKit          3D

 32 34  0  0  1  0  0  0  0  0999 V2000
   36.7100   29.0930   38.7230 C   0  0  0  0  0  0  0  0  0  0  0  0
   36.9070   28.9440   37.3390 C   0  0  0  0  0  0  0  0  0  0  0  0
   37.3630   30.6840   36.9530 S   0  0  0  0  0  0  0  0  0  0  0  0
   37.1900   31.2660   38.7890 C   0  0  0  0  0  0  0  0  0  0  0  0
   36.9090   30.2910   39.1490 N   0  0  0  0  0  0  0  0  0  0  0  0
   36.2300   27.6240   39.7020 S   0  0  0  0  0  0  0  0  0  0  0  0
   38.5190   27.1430   41.2980 C   0  0  0  0  0  0  0  0  0  0  0  0
   37.1560   27.5790   41.1960 C   0  0  0  0  0  0  0  0  0  0  0  0
   36.5680   27.9740   42.3620 C   0  0  0  0  0  0  0  0  0  0  0  0
   37.2830   27.9400   43.5440 N   0  0  0  0  0  0  0  0  0  0  0  0
   38.5770   27.5160   43.5840 C   0  0  0  0  0  0  0  0  0  0  0  0
   39.1770   27.1250   42.4630 N   0  0  0  0  0  0  0  0  0  0  0  0
   37.4490   32.5690   39.0290 O   0  0  0  0  0  0  0  0  0  0  0  0
   37.6500   33.0430   40.3960 C   0  0  1  0  0  0  0  0  0  0  0  0
   38.9900   32.4090   40.8640 C   0  0  0  0  0  0  0  0  0  0  0  0
   38.7700   33.9350   40.6260 C   0  0  1  0  0  0  0  0  0  0  0  0
   39.5830   34.3890   39.5250 N   0  0  0  0  0  0  0  0  0  0  0  0
   40.6820   35.3010   39.5120 C   0  0  0  0  0  0  0  0  0  0  0  0
   40.8480   36.5210   39.7410 O   0  0  0  0  0  0  0  0  0  0  0  0
   41.9560   34.7570   39.1540 O   0  0  0  0  0  0  0  0  0  0  0  0
   42.4690   34.7050   37.8990 C   0  0  0  0  0  0  0  0  0  0  0  0
   42.2270   33.6940   37.1910 O   0  0  0  0  0  0  0  0  0  0  0  0
   36.8166   28.0613   36.6889 H   0  0  0  0  0  0  0  0  0  0  0  0
   39.0407   26.8123   40.3878 H   0  0  0  0  0  0  0  0  0  0  0  0
   35.5238   28.3199   42.3612 H   0  0  0  0  0  0  0  0  0  0  0  0
   39.1231   27.4971   44.5387 H   0  0  0  0  0  0  0  0  0  0  0  0
   36.6047   33.1249   40.7286 H   0  0  0  0  0  0  0  0  0  0  0  0
   39.0968   32.0087   41.8830 H   0  0  0  0  0  0  0  0  0  0  0  0
   39.6795   31.6311   40.5042 H   0  0  0  0  0  0  0  0  0  0  0  0
   38.8197   34.8765   41.1927 H   0  0  0  0  0  0  0  0  0  0  0  0
   39.3327   33.9950   38.6068 H   0  0  0  0  0  0  0  0  0  0  0  0
   43.0836   35.5297   37.5089 H   0  0  0  0  0  0  0  0  0  0  0  0
  1  5  1  0
  1  6  1  0
  2  1  2  0
  3  2  1  0
  3  4  1  0
  4 13  1  0
  4  5  2  0
  6  8  1  0
  7 12  2  0
  8  7  1  0
  8  9  2  0
  9 10  1  0
 10 11  2  0
 12 11  1  0
 13 14  1  0
 14 16  1  0
 14 15  1  0
 16 15  1  0
 17 16  1  0
 18 17  1  0
 18 19  2  0
 20 18  1  0
 21 20  1  0
 22 21  2  0
  2 23  1  0
  7 24  1  0
  9 25  1  0
 11 26  1  0
 14 27  1  1
 15 28  1  0
 15 29  1  0
 16 30  1  1
 17 31  1  0
 21 32  1  0
M  ISO  8  23  14  24  14  25  14  26  14  27  13  28  13  29  13  30  13
M  ISO  1  32   6
M  END
>  <minimizedAffinity>  (1) 
-4.70243454

>  <minimizedRMSD>  (1) 
1.57640481

$$$$
