
     RDKit          3D

 33 35  0  0  1  0  0  0  0  0999 V2000
   36.7010   29.1650   38.7270 C   0  0  0  0  0  0  0  0  0  0  0  0
   36.8580   28.9960   37.3500 C   0  0  0  0  0  0  0  0  0  0  0  0
   37.3680   30.7150   36.9280 S   0  0  0  0  0  0  0  0  0  0  0  0
   37.2610   31.3200   38.7560 C   0  0  0  0  0  0  0  0  0  0  0  0
   36.9570   30.3570   39.1140 N   0  0  0  0  0  0  0  0  0  0  0  0
   36.1910   27.7230   39.7180 S   0  0  0  0  0  0  0  0  0  0  0  0
   38.5310   27.2810   41.2590 C   0  0  0  0  0  0  0  0  0  0  0  0
   37.1470   27.6530   41.2050 C   0  0  0  0  0  0  0  0  0  0  0  0
   36.5560   27.9670   42.3980 C   0  0  0  0  0  0  0  0  0  0  0  0
   37.2920   27.9160   43.5610 N   0  0  0  0  0  0  0  0  0  0  0  0
   38.6060   27.5560   43.5630 C   0  0  0  0  0  0  0  0  0  0  0  0
   39.2050   27.2440   42.4110 N   0  0  0  0  0  0  0  0  0  0  0  0
   37.5740   32.6180   38.9790 O   0  0  0  0  0  0  0  0  0  0  0  0
   37.6510   33.1330   40.3420 C   0  0  1  0  0  0  0  0  0  0  0  0
   38.9920   32.6050   40.9200 C   0  0  0  0  0  0  0  0  0  0  0  0
   38.6890   34.1060   40.6240 C   0  0  1  0  0  0  0  0  0  0  0  0
   39.5310   34.5940   39.5690 N   0  0  0  0  0  0  0  0  0  0  0  0
   40.6140   35.5230   39.6080 C   0  0  0  0  0  0  0  0  0  0  0  0
   40.7620   36.7370   39.8580 O   0  0  0  0  0  0  0  0  0  0  0  0
   41.9110   35.0120   39.2890 O   0  0  0  0  0  0  0  0  0  0  0  0
   42.3140   34.6290   38.0140 C   0  0  0  0  0  0  0  0  0  0  0  0
   36.7198   28.1096   36.7134 H   0  0  0  0  0  0  0  0  0  0  0  0
   39.0514   27.0190   40.3260 H   0  0  0  0  0  0  0  0  0  0  0  0
   35.4960   28.2594   42.4284 H   0  0  0  0  0  0  0  0  0  0  0  0
   39.1696   27.5226   44.5071 H   0  0  0  0  0  0  0  0  0  0  0  0
   36.5817   33.1485   40.5994 H   0  0  0  0  0  0  0  0  0  0  0  0
   39.0518   32.2373   41.9550 H   0  0  0  0  0  0  0  0  0  0  0  0
   39.7559   31.8680   40.6316 H   0  0  0  0  0  0  0  0  0  0  0  0
   38.6409   35.0599   41.1696 H   0  0  0  0  0  0  0  0  0  0  0  0
   39.3202   34.2133   38.6354 H   0  0  0  0  0  0  0  0  0  0  0  0
   43.1093   33.8731   38.0924 H   0  0  0  0  0  0  0  0  0  0  0  0
   41.4570   34.2044   37.4706 H   0  0  0  0  0  0  0  0  0  0  0  0
   42.6944   35.5065   37.4706 H   0  0  0  0  0  0  0  0  0  0  0  0
  1  5  1  0
  1  6  1  0
  2  1  2  0
  3  2  1  0
  3  4  1  0
  4 13  1  0
  4  5  2  0
  6  8  1  0
  7 12  2  0
  8  7  1  0
  8  9  2  0
  9 10  1  0
 10 11  2  0
 12 11  1  0
 13 14  1  0
 14 16  1  0
 14 15  1  0
 16 15  1  0
 17 18  1  0
 17 16  1  0
 18 19  2  0
 20 18  1  0
 21 20  1  0
  2 22  1  0
  7 23  1  0
  9 24  1  0
 11 25  1  0
 14 26  1  1
 15 27  1  0
 15 28  1  0
 16 29  1  1
 17 30  1  0
 21 31  1  0
 21 32  1  0
 21 33  1  0
M  ISO  8  22  14  23  14  24  14  25  14  26  13  27  13  28  13  29  13
M  ISO  3  31   8  32   8  33   8
M  END
>  <minimizedAffinity>  (1) 
-4.67388058

>  <minimizedRMSD>  (1) 
1.18549645

$$$$
