
     RDKit          3D

 11 11  0  0  0  0  0  0  0  0999 V2000
   38.2640   29.1610   43.2020 C   0  0  0  0  0  0  0  0  0  0  0  0
   38.0140   27.7790   43.3190 C   0  0  0  0  0  0  0  0  0  0  0  0
   37.0810   27.1940   42.4650 C   0  0  0  0  0  0  0  0  0  0  0  0
   36.4560   27.9930   41.5540 N   0  0  0  0  0  0  0  0  0  0  0  0
   36.7120   29.3140   41.4610 C   0  0  0  0  0  0  0  0  0  0  0  0
   37.6070   29.8900   42.2760 N   0  0  0  0  0  0  0  0  0  0  0  0
   36.8640   25.8440   42.6100 O   0  0  0  0  0  0  0  0  0  0  0  0
   38.9951   29.6456   43.8659 H   0  0  0  0  0  0  0  0  0  0  0  0
   38.5446   27.1743   44.0692 H   0  0  0  0  0  0  0  0  0  0  0  0
   36.1834   29.9221   40.7122 H   0  0  0  0  0  0  0  0  0  0  0  0
   36.2107   25.3822   42.0268 H   0  0  0  0  0  0  0  0  0  0  0  0
  1  2  2  0
  3  7  1  0
  3  2  1  0
  4  3  2  0
  5  4  1  0
  5  6  2  0
  6  1  1  0
  1  8  1  0
  2  9  1  0
  5 10  1  0
  7 11  1  0
M  ISO  4   8  14   9  14  10  14  11   3
M  END
>  <minimizedAffinity>  (1) 
-2.48512602

>  <minimizedRMSD>  (1) 
0.604853213

$$$$
