
     RDKit          3D

 31 33  0  0  1  0  0  0  0  0999 V2000
   38.9070   28.7200   42.4840 C   0  0  0  0  0  0  0  0  0  0  0  0
   38.1940   27.9760   43.4470 C   0  0  0  0  0  0  0  0  0  0  0  0
   36.8280   27.7130   43.2050 C   0  0  0  0  0  0  0  0  0  0  0  0
   36.2550   28.1940   42.0460 N   0  0  0  0  0  0  0  0  0  0  0  0
   36.9870   28.9030   41.1620 C   0  0  0  0  0  0  0  0  0  0  0  0
   38.2890   29.1510   41.3960 N   0  0  0  0  0  0  0  0  0  0  0  0
   36.3600   29.3740   40.0130 N   0  0  0  0  0  0  0  0  0  0  0  0
   35.2710   28.6750   39.3350 C   0  0  0  0  0  0  0  0  0  0  0  0
   35.4270   29.0660   37.8950 C   0  0  0  0  0  0  0  0  0  0  0  0
   36.5290   30.1100   37.8370 C   0  0  0  0  0  0  0  0  0  0  0  0
   36.6160   30.5710   39.2840 C   0  0  2  0  0  0  0  0  0  0  0  0
   37.8330   31.3020   39.5830 C   0  0  0  0  0  0  0  0  0  0  0  0
   37.6770   32.4290   40.4000 C   0  0  0  0  0  0  0  0  0  0  0  0
   38.6920   33.2610   40.8180 C   0  0  0  0  0  0  0  0  0  0  0  0
   39.9830   32.9900   40.4180 C   0  0  0  0  0  0  0  0  0  0  0  0
   40.1420   31.8810   39.6140 C   0  0  0  0  0  0  0  0  0  0  0  0
   39.1160   31.1240   39.2490 N   0  0  0  0  0  0  0  0  0  0  0  0
   39.9736   28.9414   42.6368 H   0  0  0  0  0  0  0  0  0  0  0  0
   38.6876   27.6113   44.3599 H   0  0  0  0  0  0  0  0  0  0  0  0
   36.2320   27.1355   43.9270 H   0  0  0  0  0  0  0  0  0  0  0  0
   35.3698   27.5863   39.4571 H   0  0  0  0  0  0  0  0  0  0  0  0
   34.2828   28.9387   39.7398 H   0  0  0  0  0  0  0  0  0  0  0  0
   35.7055   28.1885   37.2930 H   0  0  0  0  0  0  0  0  0  0  0  0
   34.4849   29.4658   37.4917 H   0  0  0  0  0  0  0  0  0  0  0  0
   37.4790   29.6681   37.5020 H   0  0  0  0  0  0  0  0  0  0  0  0
   36.3263   30.9251   37.1267 H   0  0  0  0  0  0  0  0  0  0  0  0
   35.8873   31.3450   39.5666 H   0  0  0  0  0  0  0  0  0  0  0  0
   36.6577   32.6700   40.7362 H   0  0  0  0  0  0  0  0  0  0  0  0
   38.4760   34.1274   41.4604 H   0  0  0  0  0  0  0  0  0  0  0  0
   40.8330   33.6189   40.7211 H   0  0  0  0  0  0  0  0  0  0  0  0
   41.1508   31.6161   39.2646 H   0  0  0  0  0  0  0  0  0  0  0  0
  1  2  2  0
  3  2  1  0
  4  3  2  0
  5  6  2  0
  5  4  1  0
  6  1  1  0
  7  5  1  0
  8  7  1  0
  9  8  1  0
 10  9  1  0
 10 11  1  0
 11 12  1  0
 11  7  1  0
 12 13  2  0
 13 14  1  0
 15 14  2  0
 16 15  1  0
 17 12  1  0
 17 16  2  0
  1 18  1  0
  2 19  1  0
  3 20  1  0
  8 21  1  0
  8 22  1  0
  9 23  1  0
  9 24  1  0
 10 25  1  0
 10 26  1  0
 11 27  1  6
 13 28  1  0
 14 29  1  0
 15 30  1  0
 16 31  1  0
M  ISO  8  18  14  19  14  20  14  21  13  22  13  23  13  24  13  25  13
M  ISO  6  26  13  27  13  28  14  29  14  30  14  31  14
M  END
>  <minimizedAffinity>  (1) 
-4.75018644

>  <minimizedRMSD>  (1) 
1.97346723

$$$$
