
     RDKit          3D

 29 31  0  0  1  0  0  0  0  0999 V2000
   38.5760   29.2300   42.8990 C   0  0  0  0  0  0  0  0  0  0  0  0
   37.7590   28.2580   43.5180 C   0  0  0  0  0  0  0  0  0  0  0  0
   36.5930   27.8880   42.8520 C   0  0  0  0  0  0  0  0  0  0  0  0
   36.3070   28.4790   41.6470 N   0  0  0  0  0  0  0  0  0  0  0  0
   37.1130   29.3930   41.1040 C   0  0  0  0  0  0  0  0  0  0  0  0
   38.2430   29.7620   41.7350 N   0  0  0  0  0  0  0  0  0  0  0  0
   36.7650   29.9660   39.8650 N   0  0  0  0  0  0  0  0  0  0  0  0
   35.9900   29.2470   38.8540 C   0  0  0  0  0  0  0  0  0  0  0  0
   36.4940   29.8190   37.5590 C   0  0  0  0  0  0  0  0  0  0  0  0
   37.3540   30.9940   37.9030 C   0  0  0  0  0  0  0  0  0  0  0  0
   37.0680   31.2700   39.3750 C   0  0  2  0  0  0  0  0  0  0  0  0
   38.1820   31.9830   39.9890 C   0  0  0  0  0  0  0  0  0  0  0  0
   39.5160   31.8160   39.5870 C   0  0  0  0  0  0  0  0  0  0  0  0
   40.3540   32.6050   40.3460 C   0  0  0  0  0  0  0  0  0  0  0  0
   39.5290   33.2400   41.1980 N   0  0  0  0  0  0  0  0  0  0  0  0
   38.2800   32.8770   40.9860 N   0  0  0  0  0  0  0  0  0  0  0  0
   39.5050   29.5498   43.3936 H   0  0  0  0  0  0  0  0  0  0  0  0
   38.0323   27.8119   44.4856 H   0  0  0  0  0  0  0  0  0  0  0  0
   35.9149   27.1370   43.2834 H   0  0  0  0  0  0  0  0  0  0  0  0
   36.1808   28.1650   38.9074 H   0  0  0  0  0  0  0  0  0  0  0  0
   34.9037   29.3636   38.9817 H   0  0  0  0  0  0  0  0  0  0  0  0
   35.6480   30.1406   36.9338 H   0  0  0  0  0  0  0  0  0  0  0  0
   37.0652   29.0672   36.9946 H   0  0  0  0  0  0  0  0  0  0  0  0
   38.4168   30.7530   37.7535 H   0  0  0  0  0  0  0  0  0  0  0  0
   37.1382   31.8659   37.2680 H   0  0  0  0  0  0  0  0  0  0  0  0
   36.2360   31.9532   39.6009 H   0  0  0  0  0  0  0  0  0  0  0  0
   39.8473   31.1480   38.7782 H   0  0  0  0  0  0  0  0  0  0  0  0
   41.4478   32.6948   40.2718 H   0  0  0  0  0  0  0  0  0  0  0  0
   39.8310   33.9149   41.9151 H   0  0  0  0  0  0  0  0  0  0  0  0
  1  2  2  0
  3  2  1  0
  4  3  2  0
  5  4  1  0
  5  6  2  0
  6  1  1  0
  7  5  1  0
  8  7  1  0
  9 10  1  0
  9  8  1  0
 10 11  1  0
 11  7  1  0
 11 12  1  0
 12 16  2  0
 13 12  1  0
 13 14  2  0
 14 15  1  0
 16 15  1  0
  1 17  1  0
  2 18  1  0
  3 19  1  0
  8 20  1  0
  8 21  1  0
  9 22  1  0
  9 23  1  0
 10 24  1  0
 10 25  1  0
 11 26  1  6
 13 27  1  0
 14 28  1  0
 15 29  1  0
M  ISO  8  17  14  18  14  19  14  20  13  21  13  22  13  23  13  24  13
M  ISO  5  25  13  26  13  27  14  28  14  29   9
M  END
>  <minimizedAffinity>  (1) 
-4.63938093

>  <minimizedRMSD>  (1) 
1.08423388

$$$$
