
     RDKit          3D

 34 36  0  0  1  0  0  0  0  0999 V2000
   39.0070   29.3490   42.8850 C   0  0  0  0  0  0  0  0  0  0  0  0
   37.9800   28.4850   43.3610 C   0  0  0  0  0  0  0  0  0  0  0  0
   36.7990   28.4040   42.6260 C   0  0  0  0  0  0  0  0  0  0  0  0
   36.7070   29.1580   41.5000 N   0  0  0  0  0  0  0  0  0  0  0  0
   37.6740   29.9610   41.0650 C   0  0  0  0  0  0  0  0  0  0  0  0
   38.8130   30.0420   41.7700 N   0  0  0  0  0  0  0  0  0  0  0  0
   37.5020   30.7000   39.8980 N   0  0  0  0  0  0  0  0  0  0  0  0
   36.6250   30.2740   38.8080 C   0  0  0  0  0  0  0  0  0  0  0  0
   37.2730   30.8620   37.5820 C   0  0  0  0  0  0  0  0  0  0  0  0
   38.3190   31.8350   38.0830 C   0  0  0  0  0  0  0  0  0  0  0  0
   38.0950   31.9410   39.5410 C   0  0  2  0  0  0  0  0  0  0  0  0
   39.1670   32.4370   40.3160 N   0  0  0  0  0  0  0  0  0  0  0  0
   38.6930   33.6830   40.9400 C   0  0  0  0  0  0  0  0  0  0  0  0
   39.2570   34.8210   40.1580 C   0  0  0  0  0  0  0  0  0  0  0  0
   40.4920   34.2640   39.5400 C   0  0  0  0  0  0  0  0  0  0  0  0
   40.3700   32.7580   39.6130 C   0  0  0  0  0  0  0  0  0  0  0  0
   39.9538   29.4413   43.4373 H   0  0  0  0  0  0  0  0  0  0  0  0
   38.1150   27.8987   44.2819 H   0  0  0  0  0  0  0  0  0  0  0  0
   35.9717   27.7534   42.9459 H   0  0  0  0  0  0  0  0  0  0  0  0
   36.5842   29.1767   38.7427 H   0  0  0  0  0  0  0  0  0  0  0  0
   35.5846   30.6050   38.9421 H   0  0  0  0  0  0  0  0  0  0  0  0
   36.5251   31.3877   36.9702 H   0  0  0  0  0  0  0  0  0  0  0  0
   37.7218   30.0802   36.9517 H   0  0  0  0  0  0  0  0  0  0  0  0
   39.3296   31.4530   37.8762 H   0  0  0  0  0  0  0  0  0  0  0  0
   38.2377   32.8128   37.5858 H   0  0  0  0  0  0  0  0  0  0  0  0
   37.4120   32.7639   39.7988 H   0  0  0  0  0  0  0  0  0  0  0  0
   37.5939   33.7199   40.9166 H   0  0  0  0  0  0  0  0  0  0  0  0
   39.0168   33.7372   41.9899 H   0  0  0  0  0  0  0  0  0  0  0  0
   38.5486   35.1515   39.3841 H   0  0  0  0  0  0  0  0  0  0  0  0
   39.4601   35.7024   40.7841 H   0  0  0  0  0  0  0  0  0  0  0  0
   41.3796   34.6003   40.0959 H   0  0  0  0  0  0  0  0  0  0  0  0
   40.6028   34.6032   38.4995 H   0  0  0  0  0  0  0  0  0  0  0  0
   40.3298   32.3387   38.5968 H   0  0  0  0  0  0  0  0  0  0  0  0
   41.2390   32.3330   40.1366 H   0  0  0  0  0  0  0  0  0  0  0  0
  1  2  2  0
  3  2  1  0
  4  3  2  0
  5  4  1  0
  5  6  2  0
  6  1  1  0
  7  5  1  0
  8  7  1  0
  9 10  1  0
  9  8  1  0
 10 11  1  0
 11  7  1  0
 11 12  1  0
 12 13  1  0
 14 13  1  0
 15 16  1  0
 15 14  1  0
 16 12  1  0
  1 17  1  0
  2 18  1  0
  3 19  1  0
  8 20  1  0
  8 21  1  0
  9 22  1  0
  9 23  1  0
 10 24  1  0
 10 25  1  0
 11 26  1  6
 13 27  1  0
 13 28  1  0
 14 29  1  0
 14 30  1  0
 15 31  1  0
 15 32  1  0
 16 33  1  0
 16 34  1  0
M  ISO  8  17  14  18  14  19  14  20  13  21  13  22  13  23  13  24  13
M  ISO  8  25  13  26  13  27  13  28  13  29  13  30  13  31  13  32  13
M  ISO  2  33  13  34  13
M  END
>  <minimizedAffinity>  (1) 
-4.5278616

>  <minimizedRMSD>  (1) 
1.3203131

$$$$
