
     RDKit          3D

 27 29  0  0  1  0  0  0  0  0999 V2000
   38.5090   29.1770   42.8700 C   0  0  0  0  0  0  0  0  0  0  0  0
   37.8350   28.2350   43.6760 C   0  0  0  0  0  0  0  0  0  0  0  0
   36.6590   27.6840   43.1720 C   0  0  0  0  0  0  0  0  0  0  0  0
   36.2360   28.0860   41.9370 N   0  0  0  0  0  0  0  0  0  0  0  0
   36.9130   28.9910   41.1970 C   0  0  0  0  0  0  0  0  0  0  0  0
   38.0490   29.5250   41.6810 N   0  0  0  0  0  0  0  0  0  0  0  0
   36.4100   29.3470   39.9400 N   0  0  0  0  0  0  0  0  0  0  0  0
   35.6410   28.4280   39.0960 C   0  0  0  0  0  0  0  0  0  0  0  0
   35.9940   28.8750   37.7010 C   0  0  0  0  0  0  0  0  0  0  0  0
   36.7150   30.1770   37.8320 C   0  0  0  0  0  0  0  0  0  0  0  0
   36.5380   30.6090   39.2840 C   0  0  2  0  0  0  0  0  0  0  0  0
   37.6790   31.4380   39.7200 C   0  0  0  0  0  0  0  0  0  0  0  0
   38.9970   31.4020   39.4620 N   0  0  0  0  0  0  0  0  0  0  0  0
   39.6070   32.3670   40.0960 O   0  0  0  0  0  0  0  0  0  0  0  0
   38.7310   33.0540   40.7780 C   0  0  0  0  0  0  0  0  0  0  0  0
   37.5350   32.5030   40.5640 N   0  0  0  0  0  0  0  0  0  0  0  0
   39.4393   29.6324   43.2402 H   0  0  0  0  0  0  0  0  0  0  0  0
   38.2232   27.9469   44.6641 H   0  0  0  0  0  0  0  0  0  0  0  0
   36.0868   26.9455   43.7526 H   0  0  0  0  0  0  0  0  0  0  0  0
   35.9465   27.3851   39.2664 H   0  0  0  0  0  0  0  0  0  0  0  0
   34.5603   28.4535   39.2994 H   0  0  0  0  0  0  0  0  0  0  0  0
   35.0800   29.0072   37.1035 H   0  0  0  0  0  0  0  0  0  0  0  0
   36.6214   28.1267   37.1946 H   0  0  0  0  0  0  0  0  0  0  0  0
   37.7822   30.0485   37.5985 H   0  0  0  0  0  0  0  0  0  0  0  0
   36.3181   30.9302   37.1355 H   0  0  0  0  0  0  0  0  0  0  0  0
   35.6776   31.2606   39.4964 H   0  0  0  0  0  0  0  0  0  0  0  0
   38.9407   33.9274   41.4130 H   0  0  0  0  0  0  0  0  0  0  0  0
  1  2  2  0
  3  2  1  0
  4  3  2  0
  5  6  2  0
  5  4  1  0
  6  1  1  0
  7  5  1  0
  8  7  1  0
  9 10  1  0
  9  8  1  0
 10 11  1  0
 11 12  1  0
 11  7  1  0
 12 16  1  0
 13 12  2  0
 13 14  1  0
 14 15  1  0
 16 15  2  0
  1 17  1  0
  2 18  1  0
  3 19  1  0
  8 20  1  0
  8 21  1  0
  9 22  1  0
  9 23  1  0
 10 24  1  0
 10 25  1  0
 11 26  1  6
 15 27  1  0
M  ISO  8  17  14  18  14  19  14  20  13  21  13  22  13  23  13  24  13
M  ISO  3  25  13  26  13  27  14
M  END
>  <minimizedAffinity>  (1) 
-4.468256

>  <minimizedRMSD>  (1) 
1.36198843

$$$$
