
     RDKit          3D

 25 26  0  0  1  0  0  0  0  0999 V2000
   39.0140   27.8990   42.8220 C   0  0  0  0  0  0  0  0  0  0  0  0
   38.0770   27.3540   43.7310 C   0  0  0  0  0  0  0  0  0  0  0  0
   36.7240   27.4470   43.4030 C   0  0  0  0  0  0  0  0  0  0  0  0
   36.3770   28.0580   42.2220 N   0  0  0  0  0  0  0  0  0  0  0  0
   37.2960   28.5620   41.3860 C   0  0  0  0  0  0  0  0  0  0  0  0
   38.6030   28.4770   41.6940 N   0  0  0  0  0  0  0  0  0  0  0  0
   36.8340   29.1650   40.2080 N   0  0  0  0  0  0  0  0  0  0  0  0
   35.6300   28.8060   39.4960 C   0  0  0  0  0  0  0  0  0  0  0  0
   35.9680   29.1190   38.0670 C   0  0  0  0  0  0  0  0  0  0  0  0
   37.2580   29.9050   38.0710 C   0  0  0  0  0  0  0  0  0  0  0  0
   37.4970   30.2450   39.5210 C   0  0  1  0  0  0  0  0  0  0  0  0
   36.8510   31.5170   39.9150 C   0  0  0  0  0  0  0  0  0  0  0  0
   36.9100   32.6210   39.3160 O   0  0  0  0  0  0  0  0  0  0  0  0
   36.0480   31.7030   41.0530 O   0  0  0  0  0  0  0  0  0  0  0  0
   40.0892   27.8452   43.0480 H   0  0  0  0  0  0  0  0  0  0  0  0
   38.4040   26.8732   44.6648 H   0  0  0  0  0  0  0  0  0  0  0  0
   35.9530   27.0407   44.0742 H   0  0  0  0  0  0  0  0  0  0  0  0
   35.4014   27.7374   39.6220 H   0  0  0  0  0  0  0  0  0  0  0  0
   34.7404   29.3437   39.8558 H   0  0  0  0  0  0  0  0  0  0  0  0
   35.1644   29.7172   37.6127 H   0  0  0  0  0  0  0  0  0  0  0  0
   36.0779   28.1941   37.4818 H   0  0  0  0  0  0  0  0  0  0  0  0
   38.0840   29.2963   37.6744 H   0  0  0  0  0  0  0  0  0  0  0  0
   37.1994   30.8027   37.4380 H   0  0  0  0  0  0  0  0  0  0  0  0
   38.5680   30.3620   39.7429 H   0  0  0  0  0  0  0  0  0  0  0  0
   35.6540   32.5916   41.2409 H   0  0  0  0  0  0  0  0  0  0  0  0
  1  2  2  0
  3  2  1  0
  4  3  2  0
  5  6  2  0
  5  4  1  0
  6  1  1  0
  7  5  1  0
  8  7  1  0
  9 10  1  0
  9  8  1  0
 10 11  1  0
 11 12  1  0
 11  7  1  0
 12 14  1  0
 13 12  2  0
  1 15  1  0
  2 16  1  0
  3 17  1  0
  8 18  1  0
  8 19  1  0
  9 20  1  0
  9 21  1  0
 10 22  1  0
 10 23  1  0
 11 24  1  6
 14 25  1  0
M  ISO  8  15  14  16  14  17  14  18  13  19  13  20  13  21  13  22  13
M  ISO  3  23  13  24  13  25   3
M  END
>  <minimizedAffinity>  (1) 
-4.4351964

>  <minimizedRMSD>  (1) 
1.38427055

$$$$
