
     RDKit          3D

 24 25  0  0  1  0  0  0  0  0999 V2000
   38.2550   29.0740   43.4020 C   0  0  0  0  0  0  0  0  0  0  0  0
   37.5520   27.8920   43.7940 C   0  0  0  0  0  0  0  0  0  0  0  0
   36.5150   27.4300   42.9860 C   0  0  0  0  0  0  0  0  0  0  0  0
   36.2430   28.1510   41.8640 N   0  0  0  0  0  0  0  0  0  0  0  0
   36.9110   29.2510   41.5150 C   0  0  0  0  0  0  0  0  0  0  0  0
   37.9180   29.7160   42.2820 N   0  0  0  0  0  0  0  0  0  0  0  0
   36.5420   29.9180   40.3280 N   0  0  0  0  0  0  0  0  0  0  0  0
   35.9740   29.2560   39.1780 C   0  0  0  0  0  0  0  0  0  0  0  0
   36.3960   30.1160   38.0270 C   0  0  0  0  0  0  0  0  0  0  0  0
   37.0580   31.3370   38.6050 C   0  0  0  0  0  0  0  0  0  0  0  0
   36.6650   31.3340   40.0640 C   0  0  2  0  0  0  0  0  0  0  0  0
   37.8550   31.7970   40.7940 N   0  0  0  0  0  0  0  0  0  0  0  0
   39.0766   29.4553   44.0261 H   0  0  0  0  0  0  0  0  0  0  0  0
   37.8247   27.3576   44.7160 H   0  0  0  0  0  0  0  0  0  0  0  0
   35.9435   26.5258   43.2426 H   0  0  0  0  0  0  0  0  0  0  0  0
   36.3757   28.2372   39.0741 H   0  0  0  0  0  0  0  0  0  0  0  0
   34.8819   29.1439   39.2477 H   0  0  0  0  0  0  0  0  0  0  0  0
   35.5176   30.4088   37.4331 H   0  0  0  0  0  0  0  0  0  0  0  0
   37.0869   29.5727   37.3656 H   0  0  0  0  0  0  0  0  0  0  0  0
   38.1509   31.2728   38.4978 H   0  0  0  0  0  0  0  0  0  0  0  0
   36.7475   32.2597   38.0929 H   0  0  0  0  0  0  0  0  0  0  0  0
   35.7781   31.9313   40.3223 H   0  0  0  0  0  0  0  0  0  0  0  0
   37.6836   31.7303   41.8074 H   0  0  0  0  0  0  0  0  0  0  0  0
   38.6623   31.2087   40.5429 H   0  0  0  0  0  0  0  0  0  0  0  0
  1  2  2  0
  3  2  1  0
  4  3  2  0
  5  4  1  0
  5  6  2  0
  6  1  1  0
  7  5  1  0
  8  7  1  0
  9 10  1  0
  9  8  1  0
 10 11  1  0
 11  7  1  0
 11 12  1  0
  1 13  1  0
  2 14  1  0
  3 15  1  0
  8 16  1  0
  8 17  1  0
  9 18  1  0
  9 19  1  0
 10 20  1  0
 10 21  1  0
 11 22  1  6
 12 23  1  0
 12 24  1  0
M  ISO  8  13  14  14  14  15  14  16  13  17  13  18  13  19  13  20  13
M  ISO  4  21  13  22  13  23   5  24   5
M  END
>  <minimizedAffinity>  (1) 
-4.08803034

>  <minimizedRMSD>  (1) 
0.2411827

$$$$
