
     RDKit          3D

 38 41  0  0  1  0  0  0  0  0999 V2000
   41.1320   28.2420   40.4160 C   0  0  0  0  0  0  0  0  0  0  0  0
   41.9510   28.3730   39.2760 C   0  0  0  0  0  0  0  0  0  0  0  0
   41.4660   29.1460   38.2240 C   0  0  0  0  0  0  0  0  0  0  0  0
   40.2260   29.7400   38.3420 N   0  0  0  0  0  0  0  0  0  0  0  0
   39.4870   29.5890   39.4380 C   0  0  0  0  0  0  0  0  0  0  0  0
   39.9520   28.8440   40.4540 N   0  0  0  0  0  0  0  0  0  0  0  0
   38.2350   30.1980   39.5220 N   0  0  0  0  0  0  0  0  0  0  0  0
   37.8960   31.4200   38.7910 C   0  0  0  0  0  0  0  0  0  0  0  0
   36.9240   32.1110   39.7020 C   0  0  0  0  0  0  0  0  0  0  0  0
   36.5590   31.1400   40.7800 C   0  0  0  0  0  0  0  0  0  0  0  0
   37.0880   29.8000   40.2630 C   0  0  2  0  0  0  0  0  0  0  0  0
   37.2040   28.8060   41.2930 C   0  0  0  0  0  0  0  0  0  0  0  0
   37.4570   29.3200   42.5760 C   0  0  0  0  0  0  0  0  0  0  0  0
   37.5580   28.5160   43.7010 C   0  0  0  0  0  0  0  0  0  0  0  0
   37.4060   27.1410   43.5860 C   0  0  0  0  0  0  0  0  0  0  0  0
   37.1570   26.5830   42.3490 C   0  0  0  0  0  0  0  0  0  0  0  0
   36.9980   25.2260   42.1550 C   0  0  0  0  0  0  0  0  0  0  0  0
   36.7490   24.6580   40.9100 C   0  0  0  0  0  0  0  0  0  0  0  0
   36.6670   25.5560   39.8410 C   0  0  0  0  0  0  0  0  0  0  0  0
   36.8260   26.9100   40.0370 C   0  0  0  0  0  0  0  0  0  0  0  0
   37.0690   27.4390   41.2750 C   0  0  0  0  0  0  0  0  0  0  0  0
   41.4718   27.6412   41.2724 H   0  0  0  0  0  0  0  0  0  0  0  0
   42.9346   27.8838   39.2197 H   0  0  0  0  0  0  0  0  0  0  0  0
   42.0638   29.2814   37.3106 H   0  0  0  0  0  0  0  0  0  0  0  0
   38.7892   32.0401   38.6250 H   0  0  0  0  0  0  0  0  0  0  0  0
   37.4818   31.2219   37.7914 H   0  0  0  0  0  0  0  0  0  0  0  0
   37.3904   33.0047   40.1422 H   0  0  0  0  0  0  0  0  0  0  0  0
   36.0300   32.4318   39.1471 H   0  0  0  0  0  0  0  0  0  0  0  0
   37.0418   31.4109   41.7306 H   0  0  0  0  0  0  0  0  0  0  0  0
   35.4783   31.1192   40.9841 H   0  0  0  0  0  0  0  0  0  0  0  0
   36.4190   29.2279   39.6033 H   0  0  0  0  0  0  0  0  0  0  0  0
   37.5802   30.4068   42.6929 H   0  0  0  0  0  0  0  0  0  0  0  0
   37.7584   28.9673   44.6839 H   0  0  0  0  0  0  0  0  0  0  0  0
   37.4837   26.4997   44.4764 H   0  0  0  0  0  0  0  0  0  0  0  0
   37.0718   24.5608   43.0279 H   0  0  0  0  0  0  0  0  0  0  0  0
   36.6247   23.5734   40.7750 H   0  0  0  0  0  0  0  0  0  0  0  0
   36.4724   25.1749   38.8276 H   0  0  0  0  0  0  0  0  0  0  0  0
   36.7555   27.5862   39.1723 H   0  0  0  0  0  0  0  0  0  0  0  0
  1  6  2  0
  2  1  1  0
  3  4  1  0
  3  2  2  0
  4  5  2  0
  5  7  1  0
  5  6  1  0
  7 11  1  0
  8  7  1  0
  8  9  1  0
  9 10  1  0
 11 10  1  0
 11 12  1  0
 12 13  2  0
 13 14  1  0
 15 14  2  0
 16 15  1  0
 17 16  2  0
 18 17  1  0
 19 20  1  0
 19 18  2  0
 20 21  2  0
 21 12  1  0
 21 16  1  0
  1 22  1  0
  2 23  1  0
  3 24  1  0
  8 25  1  0
  8 26  1  0
  9 27  1  0
  9 28  1  0
 10 29  1  0
 10 30  1  0
 11 31  1  6
 13 32  1  0
 14 33  1  0
 15 34  1  0
 17 35  1  0
 18 36  1  0
 19 37  1  0
 20 38  1  0
M  ISO  8  22  14  23  14  24  14  25  13  26  13  27  13  28  13  29  13
M  ISO  8  30  13  31  13  32  14  33  14  34  14  35  14  36  14  37  14
M  ISO  1  38  14
M  END
>  <minimizedAffinity>  (1) 
-5.88186836

>  <minimizedRMSD>  (1) 
5.26460075

$$$$
