
     RDKit          3D

 47 51  0  0  1  0  0  0  0  0999 V2000
   37.2680   28.8780   41.2780 C   0  0  0  0  0  0  0  0  0  0  0  0
   37.5100   29.3790   42.5780 C   0  0  0  0  0  0  0  0  0  0  0  0
   37.5370   28.5720   43.7280 C   0  0  0  0  0  0  0  0  0  0  0  0
   37.3230   27.2000   43.5900 C   0  0  0  0  0  0  0  0  0  0  0  0
   37.0890   26.6690   42.3420 C   0  0  0  0  0  0  0  0  0  0  0  0
   36.9290   25.3140   42.1550 C   0  0  0  0  0  0  0  0  0  0  0  0
   36.7410   24.7520   40.8880 C   0  0  0  0  0  0  0  0  0  0  0  0
   36.7200   25.6490   39.8240 C   0  0  0  0  0  0  0  0  0  0  0  0
   36.8840   27.0100   40.0390 C   0  0  0  0  0  0  0  0  0  0  0  0
   37.0730   27.5320   41.2780 C   0  0  0  0  0  0  0  0  0  0  0  0
   41.2900   28.5270   40.9190 C   0  0  0  0  0  0  0  0  0  0  0  0
   42.2370   28.7190   39.8850 C   0  0  0  0  0  0  0  0  0  0  0  0
   41.8470   29.4940   38.7920 C   0  0  0  0  0  0  0  0  0  0  0  0
   40.5710   30.0320   38.7680 N   0  0  0  0  0  0  0  0  0  0  0  0
   39.7260   29.8140   39.7740 C   0  0  0  0  0  0  0  0  0  0  0  0
   40.0850   29.0780   40.8200 N   0  0  0  0  0  0  0  0  0  0  0  0
   38.4610   30.3620   39.7170 N   0  0  0  0  0  0  0  0  0  0  0  0
   38.1440   31.5900   38.9650 C   0  0  0  0  0  0  0  0  0  0  0  0
   36.9760   32.1660   39.6780 C   0  0  0  0  0  0  0  0  0  0  0  0
   36.6480   31.2150   40.7970 C   0  0  0  0  0  0  0  0  0  0  0  0
   37.1870   29.8930   40.2980 C   0  0  2  0  0  0  0  0  0  0  0  0
   36.7120   27.6430   38.7450 C   0  0  0  0  0  0  0  0  0  0  0  0
   35.7610   28.4170   38.1120 C   0  0  0  0  0  0  0  0  0  0  0  0
   35.9860   28.9370   36.8580 C   0  0  0  0  0  0  0  0  0  0  0  0
   37.1720   28.7030   36.1940 C   0  0  0  0  0  0  0  0  0  0  0  0
   38.1140   27.9310   36.8370 C   0  0  0  0  0  0  0  0  0  0  0  0
   37.9080   27.4050   38.0780 N   0  0  0  0  0  0  0  0  0  0  0  0
   37.6866   30.4584   42.6953 H   0  0  0  0  0  0  0  0  0  0  0  0
   37.7233   29.0134   44.7182 H   0  0  0  0  0  0  0  0  0  0  0  0
   37.3412   26.5461   44.4743 H   0  0  0  0  0  0  0  0  0  0  0  0
   36.9498   24.6508   43.0323 H   0  0  0  0  0  0  0  0  0  0  0  0
   36.6175   23.6688   40.7417 H   0  0  0  0  0  0  0  0  0  0  0  0
   36.5716   25.2745   38.8004 H   0  0  0  0  0  0  0  0  0  0  0  0
   41.5505   27.9239   41.8013 H   0  0  0  0  0  0  0  0  0  0  0  0
   43.2417   28.2745   39.9407 H   0  0  0  0  0  0  0  0  0  0  0  0
   42.5439   29.6752   37.9604 H   0  0  0  0  0  0  0  0  0  0  0  0
   37.8858   31.3527   37.9224 H   0  0  0  0  0  0  0  0  0  0  0  0
   38.9942   32.2865   38.9203 H   0  0  0  0  0  0  0  0  0  0  0  0
   37.2288   33.1570   40.0831 H   0  0  0  0  0  0  0  0  0  0  0  0
   36.1192   32.2938   39.0001 H   0  0  0  0  0  0  0  0  0  0  0  0
   37.1464   31.5171   41.7299 H   0  0  0  0  0  0  0  0  0  0  0  0
   35.5741   31.1811   41.0327 H   0  0  0  0  0  0  0  0  0  0  0  0
   36.5471   29.3554   39.5828 H   0  0  0  0  0  0  0  0  0  0  0  0
   34.8064   28.6219   38.6187 H   0  0  0  0  0  0  0  0  0  0  0  0
   35.2080   29.5487   36.3778 H   0  0  0  0  0  0  0  0  0  0  0  0
   37.3580   29.1162   35.1916 H   0  0  0  0  0  0  0  0  0  0  0  0
   39.0694   27.7310   36.3298 H   0  0  0  0  0  0  0  0  0  0  0  0
  1 10  1  0
  1  2  2  0
  2  3  1  0
  4  3  2  0
  5  4  1  0
  6  5  2  0
  7  6  1  0
  8  9  1  0
  8  7  2  0
  9 10  2  0
 10  5  1  0
 12 11  2  0
 13 12  1  0
 14 13  2  0
 14 15  1  0
 15 16  2  0
 16 11  1  0
 17 15  1  0
 17 21  1  0
 18 19  1  0
 18 17  1  0
 19 20  1  0
 21 20  1  0
 21  1  1  0
 22  9  1  0
 23 22  2  0
 24 23  1  0
 25 26  1  0
 25 24  2  0
 26 27  2  0
 27 22  1  0
  2 28  1  0
  3 29  1  0
  4 30  1  0
  6 31  1  0
  7 32  1  0
  8 33  1  0
 11 34  1  0
 12 35  1  0
 13 36  1  0
 18 37  1  0
 18 38  1  0
 19 39  1  0
 19 40  1  0
 20 41  1  0
 20 42  1  0
 21 43  1  6
 23 44  1  0
 24 45  1  0
 25 46  1  0
 26 47  1  0
M  ISO  8  28  14  29  14  30  14  31  14  32  14  33  14  34  14  35  14
M  ISO  8  36  14  37  13  38  13  39  13  40  13  41  13  42  13  43  13
M  ISO  4  44  14  45  14  46  14  47  14
M  END
>  <minimizedAffinity>  (1) 
-6.54867458

>  <minimizedRMSD>  (1) 
0.534884036

$$$$
