
     RDKit          3D

 46 50  0  0  1  0  0  0  0  0999 V2000
   37.2650   28.8640   41.2910 C   0  0  0  0  0  0  0  0  0  0  0  0
   37.4950   29.3700   42.5880 C   0  0  0  0  0  0  0  0  0  0  0  0
   37.5120   28.5680   43.7440 C   0  0  0  0  0  0  0  0  0  0  0  0
   37.2990   27.1920   43.6070 C   0  0  0  0  0  0  0  0  0  0  0  0
   37.0770   26.6530   42.3530 C   0  0  0  0  0  0  0  0  0  0  0  0
   36.9210   25.3000   42.1770 C   0  0  0  0  0  0  0  0  0  0  0  0
   36.7480   24.7340   40.9090 C   0  0  0  0  0  0  0  0  0  0  0  0
   36.7380   25.6280   39.8420 C   0  0  0  0  0  0  0  0  0  0  0  0
   36.8970   26.9900   40.0510 C   0  0  0  0  0  0  0  0  0  0  0  0
   37.0720   27.5160   41.2880 C   0  0  0  0  0  0  0  0  0  0  0  0
   41.2870   28.5010   40.9510 C   0  0  0  0  0  0  0  0  0  0  0  0
   42.2390   28.6870   39.9210 C   0  0  0  0  0  0  0  0  0  0  0  0
   41.8570   29.4610   38.8250 C   0  0  0  0  0  0  0  0  0  0  0  0
   40.5840   30.0050   38.7940 N   0  0  0  0  0  0  0  0  0  0  0  0
   39.7340   29.7930   39.7980 C   0  0  0  0  0  0  0  0  0  0  0  0
   40.0850   29.0580   40.8470 N   0  0  0  0  0  0  0  0  0  0  0  0
   38.4710   30.3440   39.7340 N   0  0  0  0  0  0  0  0  0  0  0  0
   38.1610   31.5710   38.9820 C   0  0  0  0  0  0  0  0  0  0  0  0
   36.9980   32.1580   39.6950 C   0  0  0  0  0  0  0  0  0  0  0  0
   36.6260   31.1910   40.7840 C   0  0  0  0  0  0  0  0  0  0  0  0
   37.1930   29.8720   40.3050 C   0  0  2  0  0  0  0  0  0  0  0  0
   36.7400   27.6140   38.7520 C   0  0  0  0  0  0  0  0  0  0  0  0
   35.7900   28.3880   38.1120 C   0  0  0  0  0  0  0  0  0  0  0  0
   36.0120   28.9090   36.8580 C   0  0  0  0  0  0  0  0  0  0  0  0
   37.1920   28.6530   36.2470 N   0  0  0  0  0  0  0  0  0  0  0  0
   38.1400   27.8960   36.8600 C   0  0  0  0  0  0  0  0  0  0  0  0
   37.9450   27.3670   38.1020 N   0  0  0  0  0  0  0  0  0  0  0  0
   37.6705   30.4500   42.7015 H   0  0  0  0  0  0  0  0  0  0  0  0
   37.6890   29.0133   44.7342 H   0  0  0  0  0  0  0  0  0  0  0  0
   37.3081   26.5411   44.4937 H   0  0  0  0  0  0  0  0  0  0  0  0
   36.9324   24.6420   43.0584 H   0  0  0  0  0  0  0  0  0  0  0  0
   36.6274   23.6502   40.7644 H   0  0  0  0  0  0  0  0  0  0  0  0
   36.6021   25.2489   38.8184 H   0  0  0  0  0  0  0  0  0  0  0  0
   41.5410   27.8974   41.8348 H   0  0  0  0  0  0  0  0  0  0  0  0
   43.2416   28.2386   39.9820 H   0  0  0  0  0  0  0  0  0  0  0  0
   42.5582   29.6369   37.9959 H   0  0  0  0  0  0  0  0  0  0  0  0
   37.8994   31.3334   37.9403 H   0  0  0  0  0  0  0  0  0  0  0  0
   39.0161   32.2614   38.9356 H   0  0  0  0  0  0  0  0  0  0  0  0
   37.2712   33.1311   40.1291 H   0  0  0  0  0  0  0  0  0  0  0  0
   36.1551   32.3235   39.0079 H   0  0  0  0  0  0  0  0  0  0  0  0
   37.0781   31.4870   41.7421 H   0  0  0  0  0  0  0  0  0  0  0  0
   35.5414   31.1480   40.9624 H   0  0  0  0  0  0  0  0  0  0  0  0
   36.5705   29.3236   39.5827 H   0  0  0  0  0  0  0  0  0  0  0  0
   34.8343   28.5921   38.6170 H   0  0  0  0  0  0  0  0  0  0  0  0
   35.2451   29.5218   36.3617 H   0  0  0  0  0  0  0  0  0  0  0  0
   39.0904   27.7048   36.3403 H   0  0  0  0  0  0  0  0  0  0  0  0
  1  2  2  0
  2  3  1  0
  4  3  2  0
  5  4  1  0
  6  5  2  0
  7  6  1  0
  8  9  1  0
  8  7  2  0
  9 10  2  0
 10  1  1  0
 10  5  1  0
 12 11  2  0
 13 12  1  0
 14 13  2  0
 14 15  1  0
 15 16  2  0
 16 11  1  0
 17 15  1  0
 17 21  1  0
 18 19  1  0
 18 17  1  0
 19 20  1  0
 21 20  1  0
 21  1  1  0
 22  9  1  0
 23 22  2  0
 24 23  1  0
 25 24  2  0
 25 26  1  0
 26 27  2  0
 27 22  1  0
  2 28  1  0
  3 29  1  0
  4 30  1  0
  6 31  1  0
  7 32  1  0
  8 33  1  0
 11 34  1  0
 12 35  1  0
 13 36  1  0
 18 37  1  0
 18 38  1  0
 19 39  1  0
 19 40  1  0
 20 41  1  0
 20 42  1  0
 21 43  1  6
 23 44  1  0
 24 45  1  0
 26 46  1  0
M  ISO  8  28  14  29  14  30  14  31  14  32  14  33  14  34  14  35  14
M  ISO  8  36  14  37  13  38  13  39  13  40  13  41  13  42  13  43  13
M  ISO  3  44  14  45  14  46  14
M  END
>  <minimizedAffinity>  (1) 
-6.44462681

>  <minimizedRMSD>  (1) 
0.502840757

$$$$
