
     RDKit          3D

 53 57  0  0  1  0  0  0  0  0999 V2000
   37.2900   28.7730   41.3570 C   0  0  0  0  0  0  0  0  0  0  0  0
   37.5760   29.2390   42.6620 C   0  0  0  0  0  0  0  0  0  0  0  0
   37.6210   28.4060   43.7910 C   0  0  0  0  0  0  0  0  0  0  0  0
   37.3810   27.0380   43.6250 C   0  0  0  0  0  0  0  0  0  0  0  0
   37.1030   26.5350   42.3600 C   0  0  0  0  0  0  0  0  0  0  0  0
   36.9130   25.1980   42.1510 C   0  0  0  0  0  0  0  0  0  0  0  0
   36.6780   24.6660   40.8950 C   0  0  0  0  0  0  0  0  0  0  0  0
   36.6430   25.5930   39.8400 C   0  0  0  0  0  0  0  0  0  0  0  0
   36.8420   26.9480   40.0850 C   0  0  0  0  0  0  0  0  0  0  0  0
   37.0750   27.4290   41.3280 C   0  0  0  0  0  0  0  0  0  0  0  0
   41.3410   28.8150   41.3350 C   0  0  0  0  0  0  0  0  0  0  0  0
   42.3470   29.1300   40.3910 C   0  0  0  0  0  0  0  0  0  0  0  0
   41.9770   29.9040   39.2940 C   0  0  0  0  0  0  0  0  0  0  0  0
   40.6640   30.3250   39.1770 N   0  0  0  0  0  0  0  0  0  0  0  0
   39.7610   29.9940   40.1020 C   0  0  0  0  0  0  0  0  0  0  0  0
   40.1030   29.2550   41.1530 N   0  0  0  0  0  0  0  0  0  0  0  0
   38.4570   30.4270   39.9470 N   0  0  0  0  0  0  0  0  0  0  0  0
   38.0860   31.6410   39.2140 C   0  0  0  0  0  0  0  0  0  0  0  0
   36.8290   32.0990   39.8670 C   0  0  0  0  0  0  0  0  0  0  0  0
   36.4590   31.0430   40.8630 C   0  0  0  0  0  0  0  0  0  0  0  0
   37.1970   29.8050   40.3940 C   0  0  2  0  0  0  0  0  0  0  0  0
   36.7030   27.5320   38.8050 N   0  0  0  0  0  0  0  0  0  0  0  0
   35.7700   28.2650   37.9780 C   0  0  0  0  0  0  0  0  0  0  0  0
   36.3860   29.5930   37.5280 C   0  0  0  0  0  0  0  0  0  0  0  0
   37.6990   29.3780   36.8290 C   0  0  0  0  0  0  0  0  0  0  0  0
   37.9550   27.8720   36.7520 C   0  0  0  0  0  0  0  0  0  0  0  0
   38.0370   27.3770   38.1580 C   0  0  0  0  0  0  0  0  0  0  0  0
   37.7738   30.3123   42.7993 H   0  0  0  0  0  0  0  0  0  0  0  0
   37.8405   28.8206   44.7859 H   0  0  0  0  0  0  0  0  0  0  0  0
   37.4122   26.3628   44.4929 H   0  0  0  0  0  0  0  0  0  0  0  0
   36.9482   24.5179   43.0148 H   0  0  0  0  0  0  0  0  0  0  0  0
   36.5285   23.5882   40.7335 H   0  0  0  0  0  0  0  0  0  0  0  0
   36.4570   25.2451   38.8132 H   0  0  0  0  0  0  0  0  0  0  0  0
   41.5852   28.2064   42.2181 H   0  0  0  0  0  0  0  0  0  0  0  0
   43.3810   28.7772   40.5187 H   0  0  0  0  0  0  0  0  0  0  0  0
   42.7195   30.1774   38.5298 H   0  0  0  0  0  0  0  0  0  0  0  0
   37.9129   31.4162   38.1512 H   0  0  0  0  0  0  0  0  0  0  0  0
   38.8760   32.4059   39.2430 H   0  0  0  0  0  0  0  0  0  0  0  0
   36.9933   33.0604   40.3756 H   0  0  0  0  0  0  0  0  0  0  0  0
   36.0278   32.2477   39.1281 H   0  0  0  0  0  0  0  0  0  0  0  0
   36.7845   31.3304   41.8737 H   0  0  0  0  0  0  0  0  0  0  0  0
   35.3719   30.8853   40.9216 H   0  0  0  0  0  0  0  0  0  0  0  0
   36.6998   29.2208   39.6056 H   0  0  0  0  0  0  0  0  0  0  0  0
   35.5199   27.6627   37.0922 H   0  0  0  0  0  0  0  0  0  0  0  0
   34.8614   28.4725   38.5623 H   0  0  0  0  0  0  0  0  0  0  0  0
   35.6911   30.0947   36.8385 H   0  0  0  0  0  0  0  0  0  0  0  0
   36.5651   30.2119   38.4195 H   0  0  0  0  0  0  0  0  0  0  0  0
   37.6551   29.8011   35.8146 H   0  0  0  0  0  0  0  0  0  0  0  0
   38.5105   29.8749   37.3809 H   0  0  0  0  0  0  0  0  0  0  0  0
   37.1294   27.3739   36.2225 H   0  0  0  0  0  0  0  0  0  0  0  0
   38.8833   27.6566   36.2025 H   0  0  0  0  0  0  0  0  0  0  0  0
   38.3265   26.3158   38.1592 H   0  0  0  0  0  0  0  0  0  0  0  0
   38.7892   27.9567   38.7131 H   0  0  0  0  0  0  0  0  0  0  0  0
  1  2  2  0
  2  3  1  0
  4  3  2  0
  5  4  1  0
  6  5  2  0
  7  6  1  0
  8  9  1  0
  8  7  2  0
  9 10  2  0
 10  1  1  0
 10  5  1  0
 12 11  2  0
 13 12  1  0
 14 13  2  0
 14 15  1  0
 15 16  2  0
 16 11  1  0
 17 15  1  0
 17 21  1  0
 18 19  1  0
 18 17  1  0
 19 20  1  0
 21 20  1  0
 21  1  1  0
 22  9  1  0
 23 22  1  0
 24 23  1  0
 25 24  1  0
 26 25  1  0
 26 27  1  0
 27 22  1  0
  2 28  1  0
  3 29  1  0
  4 30  1  0
  6 31  1  0
  7 32  1  0
  8 33  1  0
 11 34  1  0
 12 35  1  0
 13 36  1  0
 18 37  1  0
 18 38  1  0
 19 39  1  0
 19 40  1  0
 20 41  1  0
 20 42  1  0
 21 43  1  6
 23 44  1  0
 23 45  1  0
 24 46  1  0
 24 47  1  0
 25 48  1  0
 25 49  1  0
 26 50  1  0
 26 51  1  0
 27 52  1  0
 27 53  1  0
M  ISO  8  28  14  29  14  30  14  31  14  32  14  33  14  34  14  35  14
M  ISO  8  36  14  37  13  38  13  39  13  40  13  41  13  42  13  43  13
M  ISO  8  44  13  45  13  46  13  47  13  48  13  49  13  50  13  51  13
M  ISO  2  52  13  53  13
M  END
>  <minimizedAffinity>  (1) 
-6.43977547

>  <minimizedRMSD>  (1) 
0.656573296

$$$$
