
     RDKit          3D

 51 55  0  0  1  0  0  0  0  0999 V2000
   37.3060   28.7770   41.3600 C   0  0  0  0  0  0  0  0  0  0  0  0
   37.5420   29.2480   42.6700 C   0  0  0  0  0  0  0  0  0  0  0  0
   37.5400   28.4210   43.8040 C   0  0  0  0  0  0  0  0  0  0  0  0
   37.2990   27.0550   43.6390 C   0  0  0  0  0  0  0  0  0  0  0  0
   37.0690   26.5490   42.3680 C   0  0  0  0  0  0  0  0  0  0  0  0
   36.8840   25.2050   42.1620 C   0  0  0  0  0  0  0  0  0  0  0  0
   36.7000   24.6710   40.8800 C   0  0  0  0  0  0  0  0  0  0  0  0
   36.7130   25.5910   39.8300 C   0  0  0  0  0  0  0  0  0  0  0  0
   36.9020   26.9450   40.0820 C   0  0  0  0  0  0  0  0  0  0  0  0
   37.0850   27.4350   41.3280 C   0  0  0  0  0  0  0  0  0  0  0  0
   41.3550   28.8800   41.5920 C   0  0  0  0  0  0  0  0  0  0  0  0
   42.4130   29.2090   40.7140 C   0  0  0  0  0  0  0  0  0  0  0  0
   42.1010   29.9740   39.5910 C   0  0  0  0  0  0  0  0  0  0  0  0
   40.7890   30.3740   39.3900 N   0  0  0  0  0  0  0  0  0  0  0  0
   39.8380   30.0300   40.2570 C   0  0  0  0  0  0  0  0  0  0  0  0
   40.1220   29.3000   41.3300 N   0  0  0  0  0  0  0  0  0  0  0  0
   38.5440   30.4450   40.0220 N   0  0  0  0  0  0  0  0  0  0  0  0
   38.2020   31.6550   39.2660 C   0  0  0  0  0  0  0  0  0  0  0  0
   36.8930   32.0870   39.8210 C   0  0  0  0  0  0  0  0  0  0  0  0
   36.4650   31.0290   40.7940 C   0  0  0  0  0  0  0  0  0  0  0  0
   37.2620   29.8060   40.3920 C   0  0  2  0  0  0  0  0  0  0  0  0
   36.7250   27.5470   38.8100 N   0  0  0  0  0  0  0  0  0  0  0  0
   37.6960   27.2500   37.7200 C   0  0  0  0  0  0  0  0  0  0  0  0
   38.4580   28.5080   37.3530 C   0  0  0  0  0  0  0  0  0  0  0  0
   37.5390   29.3450   36.7260 O   0  0  0  0  0  0  0  0  0  0  0  0
   36.6270   29.7250   37.6830 C   0  0  0  0  0  0  0  0  0  0  0  0
   35.8280   28.5590   38.2270 C   0  0  0  0  0  0  0  0  0  0  0  0
   37.7381   30.3214   42.8094 H   0  0  0  0  0  0  0  0  0  0  0  0
   37.7247   28.8406   44.8039 H   0  0  0  0  0  0  0  0  0  0  0  0
   37.2916   26.3849   44.5113 H   0  0  0  0  0  0  0  0  0  0  0  0
   36.8801   24.5274   43.0285 H   0  0  0  0  0  0  0  0  0  0  0  0
   36.5543   23.5938   40.7112 H   0  0  0  0  0  0  0  0  0  0  0  0
   36.5727   25.2421   38.7963 H   0  0  0  0  0  0  0  0  0  0  0  0
   41.5523   28.2772   42.4907 H   0  0  0  0  0  0  0  0  0  0  0  0
   43.4425   28.8744   40.9093 H   0  0  0  0  0  0  0  0  0  0  0  0
   42.8857   30.2565   38.8738 H   0  0  0  0  0  0  0  0  0  0  0  0
   38.1135   31.4302   38.1928 H   0  0  0  0  0  0  0  0  0  0  0  0
   38.9717   32.4354   39.3578 H   0  0  0  0  0  0  0  0  0  0  0  0
   37.0000   33.0535   40.3352 H   0  0  0  0  0  0  0  0  0  0  0  0
   36.1477   32.2134   39.0219 H   0  0  0  0  0  0  0  0  0  0  0  0
   36.7042   31.3283   41.8251 H   0  0  0  0  0  0  0  0  0  0  0  0
   35.3799   30.8500   40.7696 H   0  0  0  0  0  0  0  0  0  0  0  0
   36.8291   29.2094   39.5755 H   0  0  0  0  0  0  0  0  0  0  0  0
   38.4043   26.4808   38.0617 H   0  0  0  0  0  0  0  0  0  0  0  0
   37.1501   26.8859   36.8371 H   0  0  0  0  0  0  0  0  0  0  0  0
   38.8585   28.9896   38.2572 H   0  0  0  0  0  0  0  0  0  0  0  0
   39.3120   28.2844   36.6967 H   0  0  0  0  0  0  0  0  0  0  0  0
   37.1677   30.1995   38.5152 H   0  0  0  0  0  0  0  0  0  0  0  0
   35.9184   30.4198   37.2084 H   0  0  0  0  0  0  0  0  0  0  0  0
   35.1394   28.9230   39.0037 H   0  0  0  0  0  0  0  0  0  0  0  0
   35.2616   28.1003   37.4031 H   0  0  0  0  0  0  0  0  0  0  0  0
  1  2  2  0
  2  3  1  0
  4  3  2  0
  5  4  1  0
  6  5  2  0
  7  6  1  0
  8  9  1  0
  8  7  2  0
  9 10  2  0
 10  1  1  0
 10  5  1  0
 12 11  2  0
 13 12  1  0
 14 13  2  0
 14 15  1  0
 15 16  2  0
 16 11  1  0
 17 15  1  0
 17 21  1  0
 18 19  1  0
 18 17  1  0
 19 20  1  0
 21 20  1  0
 21  1  1  0
 22  9  1  0
 23 22  1  0
 24 23  1  0
 25 24  1  0
 25 26  1  0
 26 27  1  0
 27 22  1  0
  2 28  1  0
  3 29  1  0
  4 30  1  0
  6 31  1  0
  7 32  1  0
  8 33  1  0
 11 34  1  0
 12 35  1  0
 13 36  1  0
 18 37  1  0
 18 38  1  0
 19 39  1  0
 19 40  1  0
 20 41  1  0
 20 42  1  0
 21 43  1  6
 23 44  1  0
 23 45  1  0
 24 46  1  0
 24 47  1  0
 26 48  1  0
 26 49  1  0
 27 50  1  0
 27 51  1  0
M  ISO  8  28  14  29  14  30  14  31  14  32  14  33  14  34  14  35  14
M  ISO  8  36  14  37  13  38  13  39  13  40  13  41  13  42  13  43  13
M  ISO  8  44  13  45  13  46  13  47  13  48  13  49  13  50  13  51  13
M  END
>  <minimizedAffinity>  (1) 
-6.35968781

>  <minimizedRMSD>  (1) 
0.983660996

$$$$
