
     RDKit          3D

 44 48  0  0  1  0  0  0  0  0999 V2000
   37.2510   28.7460   41.3380 C   0  0  0  0  0  0  0  0  0  0  0  0
   37.4800   29.2450   42.6480 C   0  0  0  0  0  0  0  0  0  0  0  0
   37.5030   28.4300   43.7880 C   0  0  0  0  0  0  0  0  0  0  0  0
   37.2960   27.0550   43.6330 C   0  0  0  0  0  0  0  0  0  0  0  0
   37.0740   26.5280   42.3690 C   0  0  0  0  0  0  0  0  0  0  0  0
   36.9110   25.1820   42.1730 C   0  0  0  0  0  0  0  0  0  0  0  0
   36.7250   24.6250   40.9200 C   0  0  0  0  0  0  0  0  0  0  0  0
   36.7120   25.5370   39.8570 C   0  0  0  0  0  0  0  0  0  0  0  0
   36.8770   26.8970   40.0760 C   0  0  0  0  0  0  0  0  0  0  0  0
   37.0630   27.4020   41.3130 C   0  0  0  0  0  0  0  0  0  0  0  0
   41.2740   28.4410   40.9940 C   0  0  0  0  0  0  0  0  0  0  0  0
   42.2210   28.6490   39.9640 C   0  0  0  0  0  0  0  0  0  0  0  0
   41.8300   29.4360   38.8820 C   0  0  0  0  0  0  0  0  0  0  0  0
   40.5540   29.9640   38.8730 N   0  0  0  0  0  0  0  0  0  0  0  0
   39.7060   29.7370   39.8660 C   0  0  0  0  0  0  0  0  0  0  0  0
   40.0640   28.9910   40.9010 N   0  0  0  0  0  0  0  0  0  0  0  0
   38.4280   30.2540   39.7890 N   0  0  0  0  0  0  0  0  0  0  0  0
   38.0940   31.4680   39.0240 C   0  0  0  0  0  0  0  0  0  0  0  0
   36.9170   32.0330   39.7310 C   0  0  0  0  0  0  0  0  0  0  0  0
   36.6010   31.0810   40.8500 C   0  0  0  0  0  0  0  0  0  0  0  0
   37.1610   29.7670   40.3560 C   0  0  2  0  0  0  0  0  0  0  0  0
   36.6870   27.5200   38.7810 C   0  0  0  0  0  0  0  0  0  0  0  0
   37.6770   27.7280   37.5860 C   0  0  0  0  0  0  0  0  0  0  0  0
   36.5790   28.4710   36.3490 S   0  0  0  0  0  0  0  0  0  0  0  0
   35.0750   28.4080   37.4880 C   0  0  0  0  0  0  0  0  0  0  0  0
   35.3850   27.9240   38.5610 N   0  0  0  0  0  0  0  0  0  0  0  0
   37.6476   30.3248   42.7741 H   0  0  0  0  0  0  0  0  0  0  0  0
   37.6801   28.8624   44.7838 H   0  0  0  0  0  0  0  0  0  0  0  0
   37.3092   26.3932   44.5115 H   0  0  0  0  0  0  0  0  0  0  0  0
   36.9287   24.5161   43.0483 H   0  0  0  0  0  0  0  0  0  0  0  0
   36.5965   23.5430   40.7695 H   0  0  0  0  0  0  0  0  0  0  0  0
   36.5685   25.1685   38.8306 H   0  0  0  0  0  0  0  0  0  0  0  0
   41.5356   27.8274   41.8686 H   0  0  0  0  0  0  0  0  0  0  0  0
   43.2269   28.2068   40.0149 H   0  0  0  0  0  0  0  0  0  0  0  0
   42.5242   29.6326   38.0517 H   0  0  0  0  0  0  0  0  0  0  0  0
   37.8401   31.2159   37.9838 H   0  0  0  0  0  0  0  0  0  0  0  0
   38.9336   32.1767   38.9715 H   0  0  0  0  0  0  0  0  0  0  0  0
   37.1561   33.0284   40.1336 H   0  0  0  0  0  0  0  0  0  0  0  0
   36.0601   32.1500   39.0512 H   0  0  0  0  0  0  0  0  0  0  0  0
   37.0923   31.3929   41.7835 H   0  0  0  0  0  0  0  0  0  0  0  0
   35.5271   31.0313   41.0830 H   0  0  0  0  0  0  0  0  0  0  0  0
   36.5321   29.2210   39.6374 H   0  0  0  0  0  0  0  0  0  0  0  0
   38.7483   27.4883   37.5159 H   0  0  0  0  0  0  0  0  0  0  0  0
   34.0666   28.7573   37.2213 H   0  0  0  0  0  0  0  0  0  0  0  0
  1  2  2  0
  2  3  1  0
  4  3  2  0
  5  4  1  0
  6  5  2  0
  7  6  1  0
  8  9  1  0
  8  7  2  0
  9 10  2  0
 10  1  1  0
 10  5  1  0
 12 11  2  0
 13 12  1  0
 14 13  2  0
 14 15  1  0
 15 16  2  0
 16 11  1  0
 17 15  1  0
 17 21  1  0
 18 19  1  0
 18 17  1  0
 19 20  1  0
 21 20  1  0
 21  1  1  0
 22  9  1  0
 23 22  2  0
 24 25  1  0
 24 23  1  0
 25 26  2  0
 26 22  1  0
  2 27  1  0
  3 28  1  0
  4 29  1  0
  6 30  1  0
  7 31  1  0
  8 32  1  0
 11 33  1  0
 12 34  1  0
 13 35  1  0
 18 36  1  0
 18 37  1  0
 19 38  1  0
 19 39  1  0
 20 40  1  0
 20 41  1  0
 21 42  1  6
 23 43  1  0
 25 44  1  0
M  ISO  8  27  14  28  14  29  14  30  14  31  14  32  14  33  14  34  14
M  ISO  8  35  14  36  13  37  13  38  13  39  13  40  13  41  13  42  13
M  ISO  2  43  14  44  14
M  END
>  <minimizedAffinity>  (1) 
-6.23338842

>  <minimizedRMSD>  (1) 
0.676361442

$$$$
