
     RDKit          3D

 41 44  0  0  1  0  0  0  0  0999 V2000
   41.2800   28.4290   40.9950 C   0  0  0  0  0  0  0  0  0  0  0  0
   42.2150   28.6280   39.9500 C   0  0  0  0  0  0  0  0  0  0  0  0
   41.8120   29.4080   38.8790 C   0  0  0  0  0  0  0  0  0  0  0  0
   40.5380   29.9410   38.8900 N   0  0  0  0  0  0  0  0  0  0  0  0
   39.7020   29.7260   39.8890 C   0  0  0  0  0  0  0  0  0  0  0  0
   40.0740   28.9770   40.9280 N   0  0  0  0  0  0  0  0  0  0  0  0
   38.4030   30.2390   39.8130 N   0  0  0  0  0  0  0  0  0  0  0  0
   38.0770   31.4230   39.0320 C   0  0  0  0  0  0  0  0  0  0  0  0
   36.8880   31.9840   39.7220 C   0  0  0  0  0  0  0  0  0  0  0  0
   36.5460   31.0010   40.7980 C   0  0  0  0  0  0  0  0  0  0  0  0
   37.1620   29.6970   40.3570 C   0  0  2  0  0  0  0  0  0  0  0  0
   37.2720   28.7150   41.3820 C   0  0  0  0  0  0  0  0  0  0  0  0
   37.4800   29.2430   42.6570 C   0  0  0  0  0  0  0  0  0  0  0  0
   37.4960   28.4380   43.8080 C   0  0  0  0  0  0  0  0  0  0  0  0
   37.3050   27.0630   43.6790 C   0  0  0  0  0  0  0  0  0  0  0  0
   37.1010   26.5210   42.4150 C   0  0  0  0  0  0  0  0  0  0  0  0
   36.9230   25.1900   42.2280 C   0  0  0  0  0  0  0  0  0  0  0  0
   36.7300   24.5910   41.0410 C   0  0  0  0  0  0  0  0  0  0  0  0
   36.7270   25.4730   39.9760 C   0  0  0  0  0  0  0  0  0  0  0  0
   36.9060   26.8630   40.0730 C   0  0  0  0  0  0  0  0  0  0  0  0
   37.0950   27.3620   41.3530 C   0  0  0  0  0  0  0  0  0  0  0  0
   37.0500   27.4570   38.8150 C   0  0  0  0  0  0  0  0  0  0  0  0
   37.7090   26.2980   38.2160 F   0  0  0  0  0  0  0  0  0  0  0  0
   35.7350   27.5500   38.3370 F   0  0  0  0  0  0  0  0  0  0  0  0
   37.4590   28.0330   37.8100 F   0  0  0  0  0  0  0  0  0  0  0  0
   41.5553   27.8169   41.8665 H   0  0  0  0  0  0  0  0  0  0  0  0
   43.2196   28.1815   39.9875 H   0  0  0  0  0  0  0  0  0  0  0  0
   42.4929   29.5992   38.0365 H   0  0  0  0  0  0  0  0  0  0  0  0
   37.8366   31.1535   37.9930 H   0  0  0  0  0  0  0  0  0  0  0  0
   38.9115   32.1372   38.9724 H   0  0  0  0  0  0  0  0  0  0  0  0
   37.1252   32.9650   40.1594 H   0  0  0  0  0  0  0  0  0  0  0  0
   36.0485   32.1360   39.0277 H   0  0  0  0  0  0  0  0  0  0  0  0
   36.9701   31.3211   41.7611 H   0  0  0  0  0  0  0  0  0  0  0  0
   35.4591   30.9128   40.9421 H   0  0  0  0  0  0  0  0  0  0  0  0
   36.5843   29.0890   39.6452 H   0  0  0  0  0  0  0  0  0  0  0  0
   37.6368   30.3265   42.7643 H   0  0  0  0  0  0  0  0  0  0  0  0
   37.6573   28.8870   44.7991 H   0  0  0  0  0  0  0  0  0  0  0  0
   37.3156   26.4142   44.5673 H   0  0  0  0  0  0  0  0  0  0  0  0
   36.9378   24.5481   43.1212 H   0  0  0  0  0  0  0  0  0  0  0  0
   36.5884   23.5061   40.9275 H   0  0  0  0  0  0  0  0  0  0  0  0
   36.5719   25.0522   38.9716 H   0  0  0  0  0  0  0  0  0  0  0  0
  2  1  2  0
  3  4  2  0
  3  2  1  0
  4  5  1  0
  5  6  2  0
  6  1  1  0
  7  5  1  0
  7 11  1  0
  8  9  1  0
  8  7  1  0
  9 10  1  0
 11 10  1  0
 11 12  1  0
 12 13  2  0
 13 14  1  0
 15 14  2  0
 16 15  1  0
 17 16  2  0
 18 17  1  0
 19 20  1  0
 19 18  2  0
 20 21  2  0
 21 12  1  0
 21 16  1  0
 22 20  1  0
 23 22  1  0
 24 22  1  0
 25 22  1  0
  1 26  1  0
  2 27  1  0
  3 28  1  0
  8 29  1  0
  8 30  1  0
  9 31  1  0
  9 32  1  0
 10 33  1  0
 10 34  1  0
 11 35  1  6
 13 36  1  0
 14 37  1  0
 15 38  1  0
 17 39  1  0
 18 40  1  0
 19 41  1  0
M  ISO  8  26  14  27  14  28  14  29  13  30  13  31  13  32  13  33  13
M  ISO  8  34  13  35  13  36  14  37  14  38  14  39  14  40  14  41  14
M  END
>  <minimizedAffinity>  (1) 
-6.07919788

>  <minimizedRMSD>  (1) 
0.366474897

$$$$
