
     RDKit          3D

 41 44  0  0  1  0  0  0  0  0999 V2000
   41.2850   28.4830   40.9870 C   0  0  0  0  0  0  0  0  0  0  0  0
   42.2400   28.6500   39.9560 C   0  0  0  0  0  0  0  0  0  0  0  0
   41.8560   29.3840   38.8410 C   0  0  0  0  0  0  0  0  0  0  0  0
   40.5770   29.9120   38.7880 N   0  0  0  0  0  0  0  0  0  0  0  0
   39.7250   29.7190   39.7920 C   0  0  0  0  0  0  0  0  0  0  0  0
   40.0790   29.0190   40.8650 N   0  0  0  0  0  0  0  0  0  0  0  0
   38.4520   30.2610   39.7020 N   0  0  0  0  0  0  0  0  0  0  0  0
   38.1310   31.4370   38.8890 C   0  0  0  0  0  0  0  0  0  0  0  0
   36.9140   31.9970   39.5380 C   0  0  0  0  0  0  0  0  0  0  0  0
   36.6890   31.1330   40.7460 C   0  0  0  0  0  0  0  0  0  0  0  0
   37.1780   29.7830   40.2750 C   0  0  2  0  0  0  0  0  0  0  0  0
   37.2590   28.8040   41.2930 C   0  0  0  0  0  0  0  0  0  0  0  0
   37.4750   29.3570   42.5690 C   0  0  0  0  0  0  0  0  0  0  0  0
   37.4910   28.5890   43.7540 C   0  0  0  0  0  0  0  0  0  0  0  0
   37.2890   27.2120   43.6650 C   0  0  0  0  0  0  0  0  0  0  0  0
   37.0810   26.6420   42.4320 C   0  0  0  0  0  0  0  0  0  0  0  0
   36.9330   25.2840   42.2880 C   0  0  0  0  0  0  0  0  0  0  0  0
   36.7700   24.6660   41.0680 C   0  0  0  0  0  0  0  0  0  0  0  0
   36.7630   25.5150   39.9770 C   0  0  0  0  0  0  0  0  0  0  0  0
   36.9100   26.8950   40.0810 C   0  0  0  0  0  0  0  0  0  0  0  0
   37.0730   27.4560   41.3250 C   0  0  0  0  0  0  0  0  0  0  0  0
   36.8070   27.6240   38.8150 C   0  0  0  0  0  0  0  0  0  0  0  0
   41.5434   27.9088   41.8889 H   0  0  0  0  0  0  0  0  0  0  0  0
   43.2474   28.2153   40.0346 H   0  0  0  0  0  0  0  0  0  0  0  0
   42.5592   29.5439   38.0104 H   0  0  0  0  0  0  0  0  0  0  0  0
   37.9224   31.1486   37.8482 H   0  0  0  0  0  0  0  0  0  0  0  0
   38.9586   32.1601   38.8421 H   0  0  0  0  0  0  0  0  0  0  0  0
   37.0804   33.0428   39.8356 H   0  0  0  0  0  0  0  0  0  0  0  0
   36.0466   31.9977   38.8615 H   0  0  0  0  0  0  0  0  0  0  0  0
   37.2747   31.4906   41.6057 H   0  0  0  0  0  0  0  0  0  0  0  0
   35.6452   31.1258   41.0930 H   0  0  0  0  0  0  0  0  0  0  0  0
   36.5362   29.2180   39.5830 H   0  0  0  0  0  0  0  0  0  0  0  0
   37.6396   30.4418   42.6472 H   0  0  0  0  0  0  0  0  0  0  0  0
   37.6597   29.0683   44.7296 H   0  0  0  0  0  0  0  0  0  0  0  0
   37.2961   26.5891   44.5716 H   0  0  0  0  0  0  0  0  0  0  0  0
   36.9453   24.6585   43.1928 H   0  0  0  0  0  0  0  0  0  0  0  0
   36.6539   23.5766   40.9690 H   0  0  0  0  0  0  0  0  0  0  0  0
   36.6347   25.0776   38.9759 H   0  0  0  0  0  0  0  0  0  0  0  0
   36.6558   28.6942   39.0194 H   0  0  0  0  0  0  0  0  0  0  0  0
   37.7332   27.4883   38.2374 H   0  0  0  0  0  0  0  0  0  0  0  0
   35.9546   27.2370   38.2374 H   0  0  0  0  0  0  0  0  0  0  0  0
  2  1  2  0
  3  2  1  0
  4  3  2  0
  4  5  1  0
  5  6  2  0
  6  1  1  0
  7  5  1  0
  7 11  1  0
  8  9  1  0
  8  7  1  0
  9 10  1  0
 11 10  1  0
 11 12  1  0
 12 21  1  0
 12 13  2  0
 13 14  1  0
 15 14  2  0
 16 15  1  0
 17 16  2  0
 18 17  1  0
 19 20  1  0
 19 18  2  0
 20 21  2  0
 21 16  1  0
 22 20  1  0
  1 23  1  0
  2 24  1  0
  3 25  1  0
  8 26  1  0
  8 27  1  0
  9 28  1  0
  9 29  1  0
 10 30  1  0
 10 31  1  0
 11 32  1  6
 13 33  1  0
 14 34  1  0
 15 35  1  0
 17 36  1  0
 18 37  1  0
 19 38  1  0
 22 39  1  0
 22 40  1  0
 22 41  1  0
M  ISO  8  23  14  24  14  25  14  26  13  27  13  28  13  29  13  30  13
M  ISO  8  31  13  32  13  33  14  34  14  35  14  36  14  37  14  38  14
M  ISO  3  39   8  40   8  41   8
M  END
>  <minimizedAffinity>  (1) 
-6.0706172

>  <minimizedRMSD>  (1) 
0.351313502

$$$$
