
     RDKit          3D

 39 42  0  0  1  0  0  0  0  0999 V2000
   41.1960   28.3450   40.6310 C   0  0  0  0  0  0  0  0  0  0  0  0
   42.0600   28.5170   39.5260 C   0  0  0  0  0  0  0  0  0  0  0  0
   41.6020   29.2970   38.4660 C   0  0  0  0  0  0  0  0  0  0  0  0
   40.3410   29.8590   38.5430 N   0  0  0  0  0  0  0  0  0  0  0  0
   39.5680   29.6660   39.6050 C   0  0  0  0  0  0  0  0  0  0  0  0
   39.9990   28.9220   40.6230 N   0  0  0  0  0  0  0  0  0  0  0  0
   38.3060   30.2300   39.6340 N   0  0  0  0  0  0  0  0  0  0  0  0
   37.9430   31.4390   38.8860 C   0  0  0  0  0  0  0  0  0  0  0  0
   36.9190   32.0930   39.7400 C   0  0  0  0  0  0  0  0  0  0  0  0
   36.5210   31.1000   40.7910 C   0  0  0  0  0  0  0  0  0  0  0  0
   37.0940   29.7920   40.3250 C   0  0  2  0  0  0  0  0  0  0  0  0
   37.2330   28.7810   41.3200 C   0  0  0  0  0  0  0  0  0  0  0  0
   37.4920   29.2910   42.6080 C   0  0  0  0  0  0  0  0  0  0  0  0
   37.5630   28.4840   43.7420 C   0  0  0  0  0  0  0  0  0  0  0  0
   37.3730   27.1040   43.6160 C   0  0  0  0  0  0  0  0  0  0  0  0
   37.1190   26.5660   42.3630 C   0  0  0  0  0  0  0  0  0  0  0  0
   36.9600   25.2140   42.1660 C   0  0  0  0  0  0  0  0  0  0  0  0
   36.7400   24.6490   40.9210 C   0  0  0  0  0  0  0  0  0  0  0  0
   36.6890   25.5500   39.8570 C   0  0  0  0  0  0  0  0  0  0  0  0
   36.8510   26.9030   40.0680 C   0  0  0  0  0  0  0  0  0  0  0  0
   37.0660   27.4300   41.3110 C   0  0  0  0  0  0  0  0  0  0  0  0
   36.7760   27.6370   38.9170 O   0  0  0  0  0  0  0  0  0  0  0  0
   41.5122   27.7376   41.4919 H   0  0  0  0  0  0  0  0  0  0  0  0
   43.0569   28.0525   39.5035 H   0  0  0  0  0  0  0  0  0  0  0  0
   42.2342   29.4631   37.5813 H   0  0  0  0  0  0  0  0  0  0  0  0
   38.8169   32.0935   38.7519 H   0  0  0  0  0  0  0  0  0  0  0  0
   37.5728   31.2169   37.8743 H   0  0  0  0  0  0  0  0  0  0  0  0
   37.3401   32.9931   40.2116 H   0  0  0  0  0  0  0  0  0  0  0  0
   36.0484   32.3996   39.1417 H   0  0  0  0  0  0  0  0  0  0  0  0
   36.9420   31.3807   41.7677 H   0  0  0  0  0  0  0  0  0  0  0  0
   35.4299   31.0506   40.9215 H   0  0  0  0  0  0  0  0  0  0  0  0
   36.4224   29.2238   39.6646 H   0  0  0  0  0  0  0  0  0  0  0  0
   37.6449   30.3742   42.7234 H   0  0  0  0  0  0  0  0  0  0  0  0
   37.7667   28.9284   44.7274 H   0  0  0  0  0  0  0  0  0  0  0  0
   37.4244   26.4525   44.5008 H   0  0  0  0  0  0  0  0  0  0  0  0
   37.0101   24.5487   43.0406 H   0  0  0  0  0  0  0  0  0  0  0  0
   36.6142   23.5653   40.7807 H   0  0  0  0  0  0  0  0  0  0  0  0
   36.5174   25.1763   38.8368 H   0  0  0  0  0  0  0  0  0  0  0  0
   36.8783   28.6211   38.9500 H   0  0  0  0  0  0  0  0  0  0  0  0
  2  1  2  0
  3  4  2  0
  3  2  1  0
  4  5  1  0
  5  7  1  0
  5  6  2  0
  6  1  1  0
  7 11  1  0
  8  7  1  0
  8  9  1  0
  9 10  1  0
 11 10  1  0
 11 12  1  0
 12 13  2  0
 13 14  1  0
 15 14  2  0
 16 15  1  0
 17 16  2  0
 18 17  1  0
 19 20  1  0
 19 18  2  0
 20 21  2  0
 21 12  1  0
 21 16  1  0
 22 20  1  0
  1 23  1  0
  2 24  1  0
  3 25  1  0
  8 26  1  0
  8 27  1  0
  9 28  1  0
  9 29  1  0
 10 30  1  0
 10 31  1  0
 11 32  1  6
 13 33  1  0
 14 34  1  0
 15 35  1  0
 17 36  1  0
 18 37  1  0
 19 38  1  0
 22 39  1  0
M  ISO  8  23  14  24  14  25  14  26  13  27  13  28  13  29  13  30  13
M  ISO  8  31  13  32  13  33  14  34  14  35  14  36  14  37  14  38  14
M  ISO  1  39   3
M  END
>  <minimizedAffinity>  (1) 
-5.94368267

>  <minimizedRMSD>  (1) 
0.142450407

$$$$
