
     RDKit          3D

 37 41  0  0  0  0  0  0  0  0999 V2000
   40.1070   28.5560   43.0400 C   0  0  0  0  0  0  0  0  0  0  0  0
   39.5510   27.2990   42.7120 C   0  0  0  0  0  0  0  0  0  0  0  0
   38.4570   27.2830   41.8330 C   0  0  0  0  0  0  0  0  0  0  0  0
   37.9900   28.4600   41.3440 N   0  0  0  0  0  0  0  0  0  0  0  0
   38.5480   29.6430   41.6810 C   0  0  0  0  0  0  0  0  0  0  0  0
   39.6010   29.6830   42.5250 N   0  0  0  0  0  0  0  0  0  0  0  0
   37.8730   26.0590   41.4790 N   0  0  0  0  0  0  0  0  0  0  0  0
   37.1000   25.2870   42.2310 C   0  0  0  0  0  0  0  0  0  0  0  0
   36.7000   24.1610   41.5770 N   0  0  0  0  0  0  0  0  0  0  0  0
   37.2610   24.2510   40.3550 C   0  0  0  0  0  0  0  0  0  0  0  0
   37.2530   23.4550   39.2290 C   0  0  0  0  0  0  0  0  0  0  0  0
   37.9130   23.7690   38.0930 N   0  0  0  0  0  0  0  0  0  0  0  0
   38.6080   24.9440   38.1080 C   0  0  0  0  0  0  0  0  0  0  0  0
   38.6420   25.7520   39.1870 N   0  0  0  0  0  0  0  0  0  0  0  0
   37.9930   25.4370   40.2960 C   0  0  0  0  0  0  0  0  0  0  0  0
   38.0370   30.8990   41.1480 C   0  0  0  0  0  0  0  0  0  0  0  0
   36.7120   31.2160   40.8460 C   0  0  0  0  0  0  0  0  0  0  0  0
   36.6930   32.4600   40.3870 N   0  0  0  0  0  0  0  0  0  0  0  0
   37.9410   33.0000   40.3650 C   0  0  0  0  0  0  0  0  0  0  0  0
   38.3440   34.2570   39.9610 C   0  0  0  0  0  0  0  0  0  0  0  0
   39.6990   34.5360   40.0490 C   0  0  0  0  0  0  0  0  0  0  0  0
   40.5840   33.5840   40.5210 C   0  0  0  0  0  0  0  0  0  0  0  0
   40.1650   32.3320   40.9220 C   0  0  0  0  0  0  0  0  0  0  0  0
   38.8170   32.0300   40.8430 C   0  0  0  0  0  0  0  0  0  0  0  0
   36.4980   22.2590   39.3290 N   0  0  0  0  0  0  0  0  0  0  0  0
   40.9651   28.6089   43.7262 H   0  0  0  0  0  0  0  0  0  0  0  0
   39.9604   26.3676   43.1301 H   0  0  0  0  0  0  0  0  0  0  0  0
   36.8143   25.5286   43.2654 H   0  0  0  0  0  0  0  0  0  0  0  0
   39.1613   25.2430   37.2055 H   0  0  0  0  0  0  0  0  0  0  0  0
   35.8416   30.5543   40.9667 H   0  0  0  0  0  0  0  0  0  0  0  0
   35.8412   32.9545   40.0855 H   0  0  0  0  0  0  0  0  0  0  0  0
   37.6250   35.0009   39.5875 H   0  0  0  0  0  0  0  0  0  0  0  0
   40.0735   35.5233   39.7407 H   0  0  0  0  0  0  0  0  0  0  0  0
   41.6541   33.8323   40.5785 H   0  0  0  0  0  0  0  0  0  0  0  0
   40.8864   31.5906   41.2961 H   0  0  0  0  0  0  0  0  0  0  0  0
   36.4458   21.6144   38.5274 H   0  0  0  0  0  0  0  0  0  0  0  0
   36.0017   22.0348   40.2033 H   0  0  0  0  0  0  0  0  0  0  0  0
  2  1  2  0
  3  2  1  0
  4  5  1  0
  4  3  2  0
  5  6  2  0
  6  1  1  0
  7  3  1  0
  7  8  1  0
  9  8  2  0
 10  9  1  0
 11 25  1  0
 11 10  2  0
 12 13  2  0
 12 11  1  0
 13 14  1  0
 14 15  2  0
 15 10  1  0
 15  7  1  0
 16  5  1  0
 17 16  2  0
 18 17  1  0
 19 18  1  0
 19 24  2  0
 20 21  2  0
 20 19  1  0
 21 22  1  0
 22 23  2  0
 24 23  1  0
 24 16  1  0
  1 26  1  0
  2 27  1  0
  8 28  1  0
 13 29  1  0
 17 30  1  0
 18 31  1  0
 20 32  1  0
 21 33  1  0
 22 34  1  0
 23 35  1  0
 25 36  1  0
 25 37  1  0
M  ISO  8  26  14  27  14  28  14  29  14  30  14  31   9  32  14  33  14
M  ISO  2  34  14  35  14
M  END
>  <minimizedAffinity>  (1) 
-6.4359684

>  <minimizedRMSD>  (1) 
3.63185835

$$$$
