
     RDKit          3D

 30 33  0  0  0  0  0  0  0  0999 V2000
   38.2470   30.4860   41.2930 C   0  0  0  0  0  0  0  0  0  0  0  0
   36.8820   30.5310   41.5760 C   0  0  0  0  0  0  0  0  0  0  0  0
   36.6280   29.5860   42.4760 N   0  0  0  0  0  0  0  0  0  0  0  0
   37.7480   28.9090   42.8120 C   0  0  0  0  0  0  0  0  0  0  0  0
   37.9040   27.8660   43.7010 C   0  0  0  0  0  0  0  0  0  0  0  0
   39.1920   27.3550   43.8510 C   0  0  0  0  0  0  0  0  0  0  0  0
   40.2540   27.8820   43.1310 C   0  0  0  0  0  0  0  0  0  0  0  0
   40.0860   28.9280   42.2400 C   0  0  0  0  0  0  0  0  0  0  0  0
   38.8030   29.4570   42.0760 C   0  0  0  0  0  0  0  0  0  0  0  0
   40.2800   31.5070   38.4320 C   0  0  0  0  0  0  0  0  0  0  0  0
   40.4420   32.9110   38.6390 C   0  0  0  0  0  0  0  0  0  0  0  0
   39.8360   33.4570   39.7720 C   0  0  0  0  0  0  0  0  0  0  0  0
   39.1390   32.6440   40.6000 N   0  0  0  0  0  0  0  0  0  0  0  0
   39.0090   31.3220   40.3690 C   0  0  0  0  0  0  0  0  0  0  0  0
   39.5740   30.7490   39.2930 N   0  0  0  0  0  0  0  0  0  0  0  0
   39.9930   34.8520   39.9830 N   0  0  0  0  0  0  0  0  0  0  0  0
   41.1420   35.4660   40.3050 C   0  0  0  0  0  0  0  0  0  0  0  0
   40.8920   36.7860   40.4200 N   0  0  0  0  0  0  0  0  0  0  0  0
   39.5820   36.9620   40.1630 C   0  0  0  0  0  0  0  0  0  0  0  0
   39.0210   35.7600   39.8910 N   0  0  0  0  0  0  0  0  0  0  0  0
   36.1490   31.2225   41.1349 H   0  0  0  0  0  0  0  0  0  0  0  0
   35.6949   29.3941   42.8678 H   0  0  0  0  0  0  0  0  0  0  0  0
   37.0525   27.4570   44.2647 H   0  0  0  0  0  0  0  0  0  0  0  0
   39.3685   26.5234   44.5491 H   0  0  0  0  0  0  0  0  0  0  0  0
   41.2585   27.4565   43.2721 H   0  0  0  0  0  0  0  0  0  0  0  0
   40.9397   29.3320   41.6761 H   0  0  0  0  0  0  0  0  0  0  0  0
   40.7411   31.0353   37.5517 H   0  0  0  0  0  0  0  0  0  0  0  0
   41.0177   33.5333   37.9380 H   0  0  0  0  0  0  0  0  0  0  0  0
   42.1171   34.9779   40.4498 H   0  0  0  0  0  0  0  0  0  0  0  0
   39.0530   37.9264   40.1725 H   0  0  0  0  0  0  0  0  0  0  0  0
  1  2  2  0
  1  9  1  0
  2  3  1  0
  3  4  1  0
  4  5  2  0
  5  6  1  0
  7  6  2  0
  8  7  1  0
  9  8  2  0
  9  4  1  0
 10 11  2  0
 10 15  1  0
 11 12  1  0
 12 16  1  0
 12 13  2  0
 14 13  1  0
 14  1  1  0
 15 14  2  0
 16 17  1  0
 17 18  2  0
 19 18  1  0
 20 16  1  0
 20 19  2  0
  2 21  1  0
  3 22  1  0
  5 23  1  0
  6 24  1  0
  7 25  1  0
  8 26  1  0
 10 27  1  0
 11 28  1  0
 17 29  1  0
 19 30  1  0
M  ISO  8  21  14  22   9  23  14  24  14  25  14  26  14  27  14  28  14
M  ISO  2  29  14  30  14
M  END
>  <minimizedAffinity>  (1) 
-6.35749197

>  <minimizedRMSD>  (1) 
8.15526485

$$$$
