
     RDKit          3D

 35 38  0  0  0  0  0  0  0  0999 V2000
   40.1010   28.4070   43.1680 C   0  0  0  0  0  0  0  0  0  0  0  0
   39.7030   27.1190   42.6920 C   0  0  0  0  0  0  0  0  0  0  0  0
   38.7220   27.0740   41.7050 C   0  0  0  0  0  0  0  0  0  0  0  0
   38.2060   28.2410   41.2580 N   0  0  0  0  0  0  0  0  0  0  0  0
   38.5960   29.4380   41.7210 C   0  0  0  0  0  0  0  0  0  0  0  0
   39.5390   29.5230   42.6710 N   0  0  0  0  0  0  0  0  0  0  0  0
   38.3400   25.8050   41.2480 N   0  0  0  0  0  0  0  0  0  0  0  0
   37.1270   25.3410   41.5600 C   0  0  0  0  0  0  0  0  0  0  0  0
   36.6880   24.0980   41.1400 C   0  0  0  0  0  0  0  0  0  0  0  0
   37.5930   23.3810   40.3800 C   0  0  0  0  0  0  0  0  0  0  0  0
   37.2420   22.0820   39.8940 N   0  0  0  0  0  0  0  0  0  0  0  0
   38.8190   23.8410   40.0600 N   0  0  0  0  0  0  0  0  0  0  0  0
   39.1890   25.0690   40.5040 C   0  0  0  0  0  0  0  0  0  0  0  0
   40.3300   25.5160   40.2160 O   0  0  0  0  0  0  0  0  0  0  0  0
   38.0120   30.6770   41.2080 C   0  0  0  0  0  0  0  0  0  0  0  0
   36.6610   30.9390   40.9730 C   0  0  0  0  0  0  0  0  0  0  0  0
   36.5770   32.1850   40.5100 N   0  0  0  0  0  0  0  0  0  0  0  0
   37.7950   32.7680   40.4250 C   0  0  0  0  0  0  0  0  0  0  0  0
   38.1520   34.0340   40.0000 C   0  0  0  0  0  0  0  0  0  0  0  0
   39.4990   34.3660   40.0190 C   0  0  0  0  0  0  0  0  0  0  0  0
   40.4250   33.4480   40.4500 C   0  0  0  0  0  0  0  0  0  0  0  0
   40.0690   32.1790   40.8750 C   0  0  0  0  0  0  0  0  0  0  0  0
   38.7220   31.8290   40.8620 C   0  0  0  0  0  0  0  0  0  0  0  0
   40.8734   28.4858   43.9473 H   0  0  0  0  0  0  0  0  0  0  0  0
   40.1547   26.1985   43.0904 H   0  0  0  0  0  0  0  0  0  0  0  0
   36.4571   25.9658   42.1690 H   0  0  0  0  0  0  0  0  0  0  0  0
   35.6908   23.7084   41.3926 H   0  0  0  0  0  0  0  0  0  0  0  0
   37.9141   21.5452   39.3274 H   0  0  0  0  0  0  0  0  0  0  0  0
   36.3172   21.6836   40.1107 H   0  0  0  0  0  0  0  0  0  0  0  0
   35.8229   30.2462   41.1391 H   0  0  0  0  0  0  0  0  0  0  0  0
   35.6944   32.6474   40.2490 H   0  0  0  0  0  0  0  0  0  0  0  0
   37.3937   34.7539   39.6583 H   0  0  0  0  0  0  0  0  0  0  0  0
   39.8249   35.3635   39.6892 H   0  0  0  0  0  0  0  0  0  0  0  0
   41.4880   33.7309   40.4579 H   0  0  0  0  0  0  0  0  0  0  0  0
   40.8330   31.4643   41.2149 H   0  0  0  0  0  0  0  0  0  0  0  0
  2  1  2  0
  3  2  1  0
  4  3  2  0
  4  5  1  0
  5  6  2  0
  6  1  1  0
  7  8  1  0
  7  3  1  0
  9  8  2  0
 10  9  1  0
 11 10  1  0
 12 10  2  0
 12 13  1  0
 13  7  1  0
 14 13  2  0
 15  5  1  0
 16 15  2  0
 17 16  1  0
 18 17  1  0
 18 23  2  0
 19 20  2  0
 19 18  1  0
 20 21  1  0
 21 22  2  0
 23 22  1  0
 23 15  1  0
  1 24  1  0
  2 25  1  0
  8 26  1  0
  9 27  1  0
 11 28  1  0
 11 29  1  0
 16 30  1  0
 17 31  1  0
 19 32  1  0
 20 33  1  0
 21 34  1  0
 22 35  1  0
M  ISO  8  24  14  25  14  26  14  27  14  30  14  31   9  32  14  33  14
M  ISO  2  34  14  35  14
M  END
>  <minimizedAffinity>  (1) 
-6.33224726

>  <minimizedRMSD>  (1) 
3.32680392

$$$$
