
     RDKit          3D

 36 38  0  0  0  0  0  0  0  0999 V2000
   37.4440   30.5690   41.2590 C   0  0  0  0  0  0  0  0  0  0  0  0
   36.3030   31.2470   40.8160 C   0  0  0  0  0  0  0  0  0  0  0  0
   36.7050   32.4320   40.3670 N   0  0  0  0  0  0  0  0  0  0  0  0
   38.0380   32.5850   40.4830 C   0  0  0  0  0  0  0  0  0  0  0  0
   38.8410   33.6520   40.1380 C   0  0  0  0  0  0  0  0  0  0  0  0
   40.2160   33.5130   40.3840 C   0  0  0  0  0  0  0  0  0  0  0  0
   40.7290   32.3670   40.9410 C   0  0  0  0  0  0  0  0  0  0  0  0
   39.9120   31.3010   41.2830 C   0  0  0  0  0  0  0  0  0  0  0  0
   38.5310   31.4080   41.0500 C   0  0  0  0  0  0  0  0  0  0  0  0
   37.6660   27.9150   43.7640 C   0  0  0  0  0  0  0  0  0  0  0  0
   37.6120   26.7190   42.9760 C   0  0  0  0  0  0  0  0  0  0  0  0
   37.5000   26.8730   41.5880 C   0  0  0  0  0  0  0  0  0  0  0  0
   37.4490   28.1210   41.0810 N   0  0  0  0  0  0  0  0  0  0  0  0
   37.5020   29.2220   41.8400 C   0  0  0  0  0  0  0  0  0  0  0  0
   37.6090   29.1230   43.1810 N   0  0  0  0  0  0  0  0  0  0  0  0
   37.4450   25.6550   40.7840 C   0  0  0  0  0  0  0  0  0  0  0  0
   38.8050   25.2010   40.3030 C   0  0  0  0  0  0  0  0  0  0  0  0
   36.5180   25.9290   39.6150 C   0  0  0  0  0  0  0  0  0  0  0  0
   36.8490   24.5400   41.6200 C   0  0  0  0  0  0  0  0  0  0  0  0
   35.2695   30.8709   40.8355 H   0  0  0  0  0  0  0  0  0  0  0  0
   36.0735   33.1465   39.9776 H   0  0  0  0  0  0  0  0  0  0  0  0
   38.4243   34.5671   39.6919 H   0  0  0  0  0  0  0  0  0  0  0  0
   40.8961   34.3381   40.1256 H   0  0  0  0  0  0  0  0  0  0  0  0
   41.8119   32.2937   41.1195 H   0  0  0  0  0  0  0  0  0  0  0  0
   40.3367   30.3891   41.7281 H   0  0  0  0  0  0  0  0  0  0  0  0
   37.7551   27.8424   44.8580 H   0  0  0  0  0  0  0  0  0  0  0  0
   37.6566   25.7231   43.4410 H   0  0  0  0  0  0  0  0  0  0  0  0
   39.4476   24.9865   41.1696 H   0  0  0  0  0  0  0  0  0  0  0  0
   38.6939   24.2912   39.6948 H   0  0  0  0  0  0  0  0  0  0  0  0
   39.2627   25.9951   39.6948 H   0  0  0  0  0  0  0  0  0  0  0  0
   35.5275   26.2218   39.9933 H   0  0  0  0  0  0  0  0  0  0  0  0
   36.9317   26.7433   39.0020 H   0  0  0  0  0  0  0  0  0  0  0  0
   36.4226   25.0207   39.0020 H   0  0  0  0  0  0  0  0  0  0  0  0
   36.9745   24.7747   42.6873 H   0  0  0  0  0  0  0  0  0  0  0  0
   35.7779   24.4414   41.3897 H   0  0  0  0  0  0  0  0  0  0  0  0
   37.3621   23.5946   41.3897 H   0  0  0  0  0  0  0  0  0  0  0  0
  1 14  1  0
  2  1  2  0
  3  4  1  0
  3  2  1  0
  4  9  2  0
  5  6  2  0
  5  4  1  0
  6  7  1  0
  7  8  2  0
  9  1  1  0
  9  8  1  0
 11 10  2  0
 12 11  1  0
 13 12  2  0
 13 14  1  0
 14 15  2  0
 15 10  1  0
 16 12  1  0
 16 19  1  0
 17 16  1  0
 18 16  1  0
  2 20  1  0
  3 21  1  0
  5 22  1  0
  6 23  1  0
  7 24  1  0
  8 25  1  0
 10 26  1  0
 11 27  1  0
 17 28  1  0
 17 29  1  0
 17 30  1  0
 18 31  1  0
 18 32  1  0
 18 33  1  0
 19 34  1  0
 19 35  1  0
 19 36  1  0
M  ISO  8  20  14  21   9  22  14  23  14  24  14  25  14  26  14  27  14
M  ISO  8  28   8  29   8  30   8  31   8  32   8  33   8  34   8  35   8
M  ISO  1  36   8
M  END
>  <minimizedAffinity>  (1) 
-5.82731915

>  <minimizedRMSD>  (1) 
3.45110559

$$$$
