
     RDKit          3D

 31 34  0  0  0  0  0  0  0  0999 V2000
   37.2610   29.1610   41.3340 C   0  0  0  0  0  0  0  0  0  0  0  0
   37.1720   29.3710   42.7020 C   0  0  0  0  0  0  0  0  0  0  0  0
   37.0590   28.1890   43.2820 N   0  0  0  0  0  0  0  0  0  0  0  0
   37.0660   27.1980   42.3770 C   0  0  0  0  0  0  0  0  0  0  0  0
   36.9690   25.8220   42.5730 C   0  0  0  0  0  0  0  0  0  0  0  0
   37.0050   25.0160   41.4250 C   0  0  0  0  0  0  0  0  0  0  0  0
   37.1310   25.5760   40.1760 C   0  0  0  0  0  0  0  0  0  0  0  0
   37.2270   26.9460   39.9850 C   0  0  0  0  0  0  0  0  0  0  0  0
   37.1930   27.7760   41.1100 C   0  0  0  0  0  0  0  0  0  0  0  0
   36.9250   30.8120   38.0770 C   0  0  0  0  0  0  0  0  0  0  0  0
   37.6650   32.0260   38.2580 C   0  0  0  0  0  0  0  0  0  0  0  0
   38.2510   32.2220   39.5060 C   0  0  0  0  0  0  0  0  0  0  0  0
   38.1040   31.2860   40.4730 N   0  0  0  0  0  0  0  0  0  0  0  0
   37.3980   30.1530   40.2630 C   0  0  0  0  0  0  0  0  0  0  0  0
   36.8150   29.9240   39.0680 N   0  0  0  0  0  0  0  0  0  0  0  0
   39.0100   33.4260   39.7500 C   0  0  0  0  0  0  0  0  0  0  0  0
   38.7050   34.4270   40.6490 C   0  0  0  0  0  0  0  0  0  0  0  0
   39.6450   35.3870   40.5970 N   0  0  0  0  0  0  0  0  0  0  0  0
   40.5490   34.9910   39.6590 C   0  0  0  0  0  0  0  0  0  0  0  0
   40.1530   33.7990   39.1510 N   0  0  0  0  0  0  0  0  0  0  0  0
   37.1919   30.3454   43.2121 H   0  0  0  0  0  0  0  0  0  0  0  0
   36.9761   28.0465   44.2987 H   0  0  0  0  0  0  0  0  0  0  0  0
   36.8690   25.3885   43.5790 H   0  0  0  0  0  0  0  0  0  0  0  0
   36.9315   23.9231   41.5257 H   0  0  0  0  0  0  0  0  0  0  0  0
   37.1566   24.9144   39.2976 H   0  0  0  0  0  0  0  0  0  0  0  0
   37.3273   27.3691   38.9746 H   0  0  0  0  0  0  0  0  0  0  0  0
   36.4418   30.6094   37.1098 H   0  0  0  0  0  0  0  0  0  0  0  0
   37.7651   32.7665   37.4508 H   0  0  0  0  0  0  0  0  0  0  0  0
   37.8251   34.4381   41.3091 H   0  0  0  0  0  0  0  0  0  0  0  0
   41.4510   35.5466   39.3628 H   0  0  0  0  0  0  0  0  0  0  0  0
   40.6485   33.2649   38.4229 H   0  0  0  0  0  0  0  0  0  0  0  0
  1  2  2  0
  2  3  1  0
  4  5  2  0
  4  3  1  0
  6  5  1  0
  7  6  2  0
  8  7  1  0
  8  9  2  0
  9  1  1  0
  9  4  1  0
 10 11  2  0
 10 15  1  0
 11 12  1  0
 12 16  1  0
 12 13  2  0
 14 13  1  0
 14  1  1  0
 15 14  2  0
 16 17  2  0
 18 17  1  0
 19 18  2  0
 20 19  1  0
 20 16  1  0
  2 21  1  0
  3 22  1  0
  5 23  1  0
  6 24  1  0
  7 25  1  0
  8 26  1  0
 10 27  1  0
 11 28  1  0
 17 29  1  0
 19 30  1  0
 20 31  1  0
M  ISO  8  21  14  22   9  23  14  24  14  25  14  26  14  27  14  28  14
M  ISO  3  29  14  30  14  31   9
M  END
>  <minimizedAffinity>  (1) 
-5.72468424

>  <minimizedRMSD>  (1) 
7.75070047

$$$$
