
     RDKit          3D

 27 29  0  0  0  0  0  0  0  0999 V2000
   37.3830   28.9350   41.8820 C   0  0  0  0  0  0  0  0  0  0  0  0
   37.5450   28.8910   43.2650 C   0  0  0  0  0  0  0  0  0  0  0  0
   37.4660   27.6090   43.6270 N   0  0  0  0  0  0  0  0  0  0  0  0
   37.2630   26.8070   42.5690 C   0  0  0  0  0  0  0  0  0  0  0  0
   37.1270   25.4340   42.5210 C   0  0  0  0  0  0  0  0  0  0  0  0
   36.9210   24.8590   41.2650 C   0  0  0  0  0  0  0  0  0  0  0  0
   36.8610   25.6550   40.1360 C   0  0  0  0  0  0  0  0  0  0  0  0
   36.9960   27.0320   40.1770 C   0  0  0  0  0  0  0  0  0  0  0  0
   37.2040   27.6250   41.4330 C   0  0  0  0  0  0  0  0  0  0  0  0
   36.5580   31.2270   39.1610 C   0  0  0  0  0  0  0  0  0  0  0  0
   37.3990   32.3400   39.3950 C   0  0  0  0  0  0  0  0  0  0  0  0
   38.2370   32.2640   40.5040 C   0  0  0  0  0  0  0  0  0  0  0  0
   38.2070   31.1610   41.2770 N   0  0  0  0  0  0  0  0  0  0  0  0
   37.3900   30.1160   41.0230 C   0  0  0  0  0  0  0  0  0  0  0  0
   36.5630   30.1500   39.9580 N   0  0  0  0  0  0  0  0  0  0  0  0
   39.1510   33.3480   40.8520 C   0  0  0  0  0  0  0  0  0  0  0  0
   40.3830   33.3580   40.5880 O   0  0  0  0  0  0  0  0  0  0  0  0
   38.6910   34.4740   41.5210 O   0  0  0  0  0  0  0  0  0  0  0  0
   37.7073   29.7503   43.9323 H   0  0  0  0  0  0  0  0  0  0  0  0
   37.5503   27.2757   44.5979 H   0  0  0  0  0  0  0  0  0  0  0  0
   37.1786   24.8198   43.4321 H   0  0  0  0  0  0  0  0  0  0  0  0
   36.8061   23.7688   41.1736 H   0  0  0  0  0  0  0  0  0  0  0  0
   36.6986   25.1721   39.1611 H   0  0  0  0  0  0  0  0  0  0  0  0
   36.9424   27.6386   39.2609 H   0  0  0  0  0  0  0  0  0  0  0  0
   35.8778   31.2463   38.2967 H   0  0  0  0  0  0  0  0  0  0  0  0
   37.3912   33.2199   38.7349 H   0  0  0  0  0  0  0  0  0  0  0  0
   39.3191   35.2034   41.7523 H   0  0  0  0  0  0  0  0  0  0  0  0
  1  2  2  0
  2  3  1  0
  4  3  1  0
  5  4  2  0
  6  5  1  0
  7  8  1  0
  7  6  2  0
  8  9  2  0
  9  1  1  0
  9  4  1  0
 10 11  2  0
 10 15  1  0
 11 12  1  0
 12 16  1  0
 12 13  2  0
 14 13  1  0
 14  1  1  0
 15 14  2  0
 16 18  1  0
 17 16  2  0
  2 19  1  0
  3 20  1  0
  5 21  1  0
  6 22  1  0
  7 23  1  0
  8 24  1  0
 10 25  1  0
 11 26  1  0
 18 27  1  0
M  ISO  8  19  14  20   9  21  14  22  14  23  14  24  14  25  14  26  14
M  ISO  1  27   3
M  END
>  <minimizedAffinity>  (1) 
-5.60762835

>  <minimizedRMSD>  (1) 
6.52575874

$$$$
