
     RDKit          3D

 33 35  0  0  0  0  0  0  0  0999 V2000
   37.5990   30.3050   41.3880 C   0  0  0  0  0  0  0  0  0  0  0  0
   36.3170   30.7700   41.1460 C   0  0  0  0  0  0  0  0  0  0  0  0
   36.4320   31.9850   40.6070 N   0  0  0  0  0  0  0  0  0  0  0  0
   37.7230   32.3420   40.4820 C   0  0  0  0  0  0  0  0  0  0  0  0
   38.2580   33.5070   39.9750 C   0  0  0  0  0  0  0  0  0  0  0  0
   39.6480   33.6170   39.9640 C   0  0  0  0  0  0  0  0  0  0  0  0
   40.4360   32.5940   40.4410 C   0  0  0  0  0  0  0  0  0  0  0  0
   39.8970   31.4270   40.9480 C   0  0  0  0  0  0  0  0  0  0  0  0
   38.5000   31.2950   40.9690 C   0  0  0  0  0  0  0  0  0  0  0  0
   39.4000   27.8190   43.3950 C   0  0  0  0  0  0  0  0  0  0  0  0
   38.7760   26.5980   43.0190 C   0  0  0  0  0  0  0  0  0  0  0  0
   37.7450   26.6740   42.0760 C   0  0  0  0  0  0  0  0  0  0  0  0
   37.3910   27.8840   41.5730 N   0  0  0  0  0  0  0  0  0  0  0  0
   38.0200   29.0210   41.9670 C   0  0  0  0  0  0  0  0  0  0  0  0
   39.0080   28.9750   42.8660 N   0  0  0  0  0  0  0  0  0  0  0  0
   37.0650   25.4310   41.6530 C   0  0  0  0  0  0  0  0  0  0  0  0
   36.7880   25.4170   40.1500 C   0  0  0  0  0  0  0  0  0  0  0  0
   37.7860   24.1780   42.0410 C   0  0  0  0  0  0  0  0  0  0  0  0
   35.3787   30.2368   41.3586 H   0  0  0  0  0  0  0  0  0  0  0  0
   35.6356   32.5734   40.3234 H   0  0  0  0  0  0  0  0  0  0  0  0
   37.6158   34.3153   39.5953 H   0  0  0  0  0  0  0  0  0  0  0  0
   40.1193   34.5297   39.5705 H   0  0  0  0  0  0  0  0  0  0  0  0
   41.5297   32.7092   40.4178 H   0  0  0  0  0  0  0  0  0  0  0  0
   40.5458   30.6227   41.3252 H   0  0  0  0  0  0  0  0  0  0  0  0
   40.2165   27.8077   44.1320 H   0  0  0  0  0  0  0  0  0  0  0  0
   39.0899   25.6360   43.4504 H   0  0  0  0  0  0  0  0  0  0  0  0
   36.1119   25.4381   42.2022 H   0  0  0  0  0  0  0  0  0  0  0  0
   35.7030   25.3622   39.9776 H   0  0  0  0  0  0  0  0  0  0  0  0
   37.1855   26.3364   39.6953 H   0  0  0  0  0  0  0  0  0  0  0  0
   37.2762   24.5424   39.6953 H   0  0  0  0  0  0  0  0  0  0  0  0
   37.8285   24.1041   43.1377 H   0  0  0  0  0  0  0  0  0  0  0  0
   37.2512   23.3066   41.6352 H   0  0  0  0  0  0  0  0  0  0  0  0
   38.8081   24.2025   41.6352 H   0  0  0  0  0  0  0  0  0  0  0  0
  1 14  1  0
  2  1  2  0
  3  2  1  0
  4  3  1  0
  4  9  2  0
  5  4  1  0
  6  5  2  0
  6  7  1  0
  7  8  2  0
  8  9  1  0
  9  1  1  0
 11 10  2  0
 12 11  1  0
 13 14  1  0
 13 12  2  0
 14 15  2  0
 15 10  1  0
 16 18  1  0
 16 12  1  0
 17 16  1  0
  2 19  1  0
  3 20  1  0
  5 21  1  0
  6 22  1  0
  7 23  1  0
  8 24  1  0
 10 25  1  0
 11 26  1  0
 16 27  1  0
 17 28  1  0
 17 29  1  0
 17 30  1  0
 18 31  1  0
 18 32  1  0
 18 33  1  0
M  ISO  8  19  14  20   9  21  14  22  14  23  14  24  14  25  14  26  14
M  ISO  7  27   8  28   8  29   8  30   8  31   8  32   8  33   8
M  END
>  <minimizedAffinity>  (1) 
-5.60148239

>  <minimizedRMSD>  (1) 
2.77898073

$$$$
