
     RDKit          3D

 31 34  0  0  0  0  0  0  0  0999 V2000
   37.7460   29.0590   41.8630 C   0  0  0  0  0  0  0  0  0  0  0  0
   36.6980   28.2310   42.2880 C   0  0  0  0  0  0  0  0  0  0  0  0
   37.2340   27.3020   43.0700 N   0  0  0  0  0  0  0  0  0  0  0  0
   38.5740   27.4640   43.1900 C   0  0  0  0  0  0  0  0  0  0  0  0
   39.4750   26.7060   43.9090 C   0  0  0  0  0  0  0  0  0  0  0  0
   40.8130   27.1140   43.8470 C   0  0  0  0  0  0  0  0  0  0  0  0
   41.1850   28.2100   43.1060 C   0  0  0  0  0  0  0  0  0  0  0  0
   40.2690   28.9640   42.3850 C   0  0  0  0  0  0  0  0  0  0  0  0
   38.9240   28.5770   42.4300 C   0  0  0  0  0  0  0  0  0  0  0  0
   36.8400   31.1630   39.0200 C   0  0  0  0  0  0  0  0  0  0  0  0
   37.4500   32.4020   39.3090 C   0  0  0  0  0  0  0  0  0  0  0  0
   38.1710   32.4830   40.4970 C   0  0  0  0  0  0  0  0  0  0  0  0
   38.2370   31.3880   41.2810 N   0  0  0  0  0  0  0  0  0  0  0  0
   37.6510   30.2210   40.9890 C   0  0  0  0  0  0  0  0  0  0  0  0
   36.9510   30.1180   39.8500 N   0  0  0  0  0  0  0  0  0  0  0  0
   38.8530   33.7460   40.8960 C   0  0  0  0  0  0  0  0  0  0  0  0
   38.6620   34.9790   40.0960 C   0  0  0  0  0  0  0  0  0  0  0  0
   39.9880   34.2870   40.0820 C   0  0  0  0  0  0  0  0  0  0  0  0
   35.6349   28.3318   42.0240 H   0  0  0  0  0  0  0  0  0  0  0  0
   36.6981   26.5514   43.5285 H   0  0  0  0  0  0  0  0  0  0  0  0
   39.1603   25.8313   44.4972 H   0  0  0  0  0  0  0  0  0  0  0  0
   41.5779   26.5488   44.3997 H   0  0  0  0  0  0  0  0  0  0  0  0
   42.2458   28.5000   43.0834 H   0  0  0  0  0  0  0  0  0  0  0  0
   40.5894   29.8370   41.7975 H   0  0  0  0  0  0  0  0  0  0  0  0
   36.2601   31.0529   38.0918 H   0  0  0  0  0  0  0  0  0  0  0  0
   37.3602   33.2618   38.6288 H   0  0  0  0  0  0  0  0  0  0  0  0
   38.7190   33.4756   41.9538 H   0  0  0  0  0  0  0  0  0  0  0  0
   38.0230   34.9591   39.2009 H   0  0  0  0  0  0  0  0  0  0  0  0
   38.3234   36.0020   40.3168 H   0  0  0  0  0  0  0  0  0  0  0  0
   40.3229   33.7544   39.1797 H   0  0  0  0  0  0  0  0  0  0  0  0
   41.0267   34.5837   40.2894 H   0  0  0  0  0  0  0  0  0  0  0  0
  1  2  2  0
  1  9  1  0
  2  3  1  0
  3  4  1  0
  4  5  2  0
  6  5  1  0
  7  6  2  0
  8  9  2  0
  8  7  1  0
  9  4  1  0
 10 11  2  0
 10 15  1  0
 11 12  1  0
 12 16  1  0
 12 13  2  0
 14 13  1  0
 14  1  1  0
 15 14  2  0
 17 16  1  0
 18 17  1  0
 18 16  1  0
  2 19  1  0
  3 20  1  0
  5 21  1  0
  6 22  1  0
  7 23  1  0
  8 24  1  0
 10 25  1  0
 11 26  1  0
 16 27  1  0
 17 28  1  0
 17 29  1  0
 18 30  1  0
 18 31  1  0
M  ISO  8  19  14  20   9  21  14  22  14  23  14  24  14  25  14  26  14
M  ISO  5  27  13  28  13  29  13  30  13  31  13
M  END
>  <minimizedAffinity>  (1) 
-5.4086237

>  <minimizedRMSD>  (1) 
6.65026999

$$$$
