
     RDKit          3D

 26 28  0  0  0  0  0  0  0  0999 V2000
   37.8480   28.2150   42.2680 C   0  0  0  0  0  0  0  0  0  0  0  0
   36.4950   27.9070   42.1780 C   0  0  0  0  0  0  0  0  0  0  0  0
   35.8800   28.9440   41.6220 N   0  0  0  0  0  0  0  0  0  0  0  0
   36.7620   29.9390   41.3330 C   0  0  0  0  0  0  0  0  0  0  0  0
   36.5270   31.1680   40.7560 C   0  0  0  0  0  0  0  0  0  0  0  0
   37.6310   31.9900   40.5800 C   0  0  0  0  0  0  0  0  0  0  0  0
   38.8910   31.5830   40.9670 C   0  0  0  0  0  0  0  0  0  0  0  0
   39.1170   30.3520   41.5440 C   0  0  0  0  0  0  0  0  0  0  0  0
   38.0340   29.5040   41.7350 C   0  0  0  0  0  0  0  0  0  0  0  0
   41.0340   27.2530   43.8010 C   0  0  0  0  0  0  0  0  0  0  0  0
   40.9750   25.8400   43.8150 C   0  0  0  0  0  0  0  0  0  0  0  0
   39.8250   25.2590   43.2880 C   0  0  0  0  0  0  0  0  0  0  0  0
   38.8380   26.0440   42.7990 N   0  0  0  0  0  0  0  0  0  0  0  0
   38.9370   27.3960   42.8070 C   0  0  0  0  0  0  0  0  0  0  0  0
   40.0240   27.9830   43.3040 N   0  0  0  0  0  0  0  0  0  0  0  0
   39.6480   23.8420   43.2460 N   0  0  0  0  0  0  0  0  0  0  0  0
   36.0194   26.9717   42.5083 H   0  0  0  0  0  0  0  0  0  0  0  0
   34.8683   28.9893   41.4341 H   0  0  0  0  0  0  0  0  0  0  0  0
   35.5175   31.4810   40.4510 H   0  0  0  0  0  0  0  0  0  0  0  0
   37.4993   32.9825   40.1244 H   0  0  0  0  0  0  0  0  0  0  0  0
   39.7419   32.2622   40.8102 H   0  0  0  0  0  0  0  0  0  0  0  0
   40.1303   30.0486   41.8458 H   0  0  0  0  0  0  0  0  0  0  0  0
   41.9222   27.7616   44.2040 H   0  0  0  0  0  0  0  0  0  0  0  0
   41.7960   25.2312   44.2216 H   0  0  0  0  0  0  0  0  0  0  0  0
   38.7854   23.4423   42.8497 H   0  0  0  0  0  0  0  0  0  0  0  0
   40.3830   23.2201   43.6121 H   0  0  0  0  0  0  0  0  0  0  0  0
  1 14  1  0
  2  1  2  0
  3  2  1  0
  4  3  1  0
  4  9  2  0
  5  4  1  0
  6  5  2  0
  6  7  1  0
  7  8  2  0
  8  9  1  0
  9  1  1  0
 10 11  2  0
 12 11  1  0
 13 14  1  0
 13 12  2  0
 14 15  2  0
 15 10  1  0
 16 12  1  0
  2 17  1  0
  3 18  1  0
  5 19  1  0
  6 20  1  0
  7 21  1  0
  8 22  1  0
 10 23  1  0
 11 24  1  0
 16 25  1  0
 16 26  1  0
M  ISO  8  17  14  18   9  19  14  20  14  21  14  22  14  23  14  24  14
M  END
>  <minimizedAffinity>  (1) 
-5.31313181

>  <minimizedRMSD>  (1) 
0.221431017

$$$$
