
     RDKit          3D

 35 39  0  0  0  0  0  0  0  0999 V2000
   40.7580   26.9120   43.8180 C   0  0  0  0  0  0  0  0  0  0  0  0
   39.9050   25.9100   43.2610 C   0  0  0  0  0  0  0  0  0  0  0  0
   39.0260   26.3140   42.2590 C   0  0  0  0  0  0  0  0  0  0  0  0
   39.0330   27.6090   41.8780 N   0  0  0  0  0  0  0  0  0  0  0  0
   39.8440   28.5280   42.4170 C   0  0  0  0  0  0  0  0  0  0  0  0
   40.7070   28.1720   43.3890 N   0  0  0  0  0  0  0  0  0  0  0  0
   38.1390   25.3700   41.6510 N   0  0  0  0  0  0  0  0  0  0  0  0
   36.9920   24.8920   42.1940 C   0  0  0  0  0  0  0  0  0  0  0  0
   36.4370   24.0280   41.3240 N   0  0  0  0  0  0  0  0  0  0  0  0
   37.2260   23.9460   40.2200 C   0  0  0  0  0  0  0  0  0  0  0  0
   37.0730   23.1900   39.0540 C   0  0  0  0  0  0  0  0  0  0  0  0
   38.0270   23.3130   38.1120 N   0  0  0  0  0  0  0  0  0  0  0  0
   39.0540   24.1460   38.3500 C   0  0  0  0  0  0  0  0  0  0  0  0
   39.2290   24.8960   39.4780 N   0  0  0  0  0  0  0  0  0  0  0  0
   38.2840   24.8000   40.4560 C   0  0  0  0  0  0  0  0  0  0  0  0
   39.8130   29.9190   41.9690 C   0  0  0  0  0  0  0  0  0  0  0  0
   39.8850   31.0780   42.7450 C   0  0  0  0  0  0  0  0  0  0  0  0
   39.8200   32.1130   41.9170 N   0  0  0  0  0  0  0  0  0  0  0  0
   39.7070   31.7130   40.6200 C   0  0  0  0  0  0  0  0  0  0  0  0
   39.6140   32.4840   39.4850 C   0  0  0  0  0  0  0  0  0  0  0  0
   39.5060   31.7950   38.2710 C   0  0  0  0  0  0  0  0  0  0  0  0
   39.4980   30.4200   38.2560 C   0  0  0  0  0  0  0  0  0  0  0  0
   39.5920   29.6550   39.4040 C   0  0  0  0  0  0  0  0  0  0  0  0
   39.7000   30.3180   40.6310 C   0  0  0  0  0  0  0  0  0  0  0  0
   41.4674   26.6387   44.6130 H   0  0  0  0  0  0  0  0  0  0  0  0
   39.9410   24.8668   43.6079 H   0  0  0  0  0  0  0  0  0  0  0  0
   36.5843   25.1643   43.1787 H   0  0  0  0  0  0  0  0  0  0  0  0
   36.2098   22.5230   38.9122 H   0  0  0  0  0  0  0  0  0  0  0  0
   39.8219   24.2315   37.5670 H   0  0  0  0  0  0  0  0  0  0  0  0
   39.9783   31.1243   43.8401 H   0  0  0  0  0  0  0  0  0  0  0  0
   39.8512   33.0975   42.2181 H   0  0  0  0  0  0  0  0  0  0  0  0
   39.6239   33.5831   39.5286 H   0  0  0  0  0  0  0  0  0  0  0  0
   39.4274   32.3547   37.3273 H   0  0  0  0  0  0  0  0  0  0  0  0
   39.4130   29.9056   37.2874 H   0  0  0  0  0  0  0  0  0  0  0  0
   39.5821   28.5562   39.3538 H   0  0  0  0  0  0  0  0  0  0  0  0
  2  1  2  0
  3  2  1  0
  4  3  2  0
  4  5  1  0
  5  6  2  0
  6  1  1  0
  7  8  1  0
  7  3  1  0
  9  8  2  0
 10 15  2  0
 10  9  1  0
 11 10  1  0
 12 13  1  0
 12 11  2  0
 13 14  2  0
 14 15  1  0
 15  7  1  0
 16  5  1  0
 16 17  2  0
 18 17  1  0
 19 24  2  0
 19 18  1  0
 20 19  1  0
 21 20  2  0
 22 21  1  0
 22 23  2  0
 23 24  1  0
 24 16  1  0
  1 25  1  0
  2 26  1  0
  8 27  1  0
 11 28  1  0
 13 29  1  0
 17 30  1  0
 18 31  1  0
 20 32  1  0
 21 33  1  0
 22 34  1  0
 23 35  1  0
M  ISO  8  25  14  26  14  27  14  28  14  29  14  30  14  31   9  32  14
M  ISO  3  33  14  34  14  35  14
M  END
>  <minimizedAffinity>  (1) 
-5.20133495

>  <minimizedRMSD>  (1) 
3.32644606

$$$$
