
     RDKit          3D

 36 39  0  0  0  0  0  0  0  0999 V2000
   36.8960   28.5720   41.2430 C   0  0  0  0  0  0  0  0  0  0  0  0
   35.5400   28.8270   41.0930 C   0  0  0  0  0  0  0  0  0  0  0  0
   35.4070   30.1160   40.7930 N   0  0  0  0  0  0  0  0  0  0  0  0
   36.5980   30.7330   40.7350 C   0  0  0  0  0  0  0  0  0  0  0  0
   36.9250   32.0610   40.4570 C   0  0  0  0  0  0  0  0  0  0  0  0
   38.2650   32.4180   40.4680 C   0  0  0  0  0  0  0  0  0  0  0  0
   39.2300   31.4820   40.7450 C   0  0  0  0  0  0  0  0  0  0  0  0
   38.9130   30.1670   41.0200 C   0  0  0  0  0  0  0  0  0  0  0  0
   37.5650   29.7750   41.0170 C   0  0  0  0  0  0  0  0  0  0  0  0
   38.9570   26.1070   42.9630 C   0  0  0  0  0  0  0  0  0  0  0  0
   38.7340   24.9120   42.2160 C   0  0  0  0  0  0  0  0  0  0  0  0
   37.8680   25.0010   41.1300 C   0  0  0  0  0  0  0  0  0  0  0  0
   37.3010   26.1890   40.8520 N   0  0  0  0  0  0  0  0  0  0  0  0
   37.5270   27.3040   41.5730 C   0  0  0  0  0  0  0  0  0  0  0  0
   38.3610   27.2610   42.6350 N   0  0  0  0  0  0  0  0  0  0  0  0
   37.5930   23.8550   40.3350 N   0  0  0  0  0  0  0  0  0  0  0  0
   38.1480   22.5310   40.5440 C   0  0  0  0  0  0  0  0  0  0  0  0
   38.2230   21.9930   39.1310 C   0  0  0  0  0  0  0  0  0  0  0  0
   37.5510   23.0050   38.2260 C   0  0  0  0  0  0  0  0  0  0  0  0
   36.7090   23.8330   39.1840 C   0  0  0  0  0  0  0  0  0  0  0  0
   34.7246   28.0968   41.2022 H   0  0  0  0  0  0  0  0  0  0  0  0
   34.5038   30.5822   40.6262 H   0  0  0  0  0  0  0  0  0  0  0  0
   36.1431   32.8024   40.2358 H   0  0  0  0  0  0  0  0  0  0  0  0
   38.5561   33.4569   40.2536 H   0  0  0  0  0  0  0  0  0  0  0  0
   40.2864   31.7887   40.7479 H   0  0  0  0  0  0  0  0  0  0  0  0
   39.7057   29.4363   41.2385 H   0  0  0  0  0  0  0  0  0  0  0  0
   39.6346   26.0800   43.8291 H   0  0  0  0  0  0  0  0  0  0  0  0
   39.2236   23.9646   42.4858 H   0  0  0  0  0  0  0  0  0  0  0  0
   39.1455   22.5842   41.0046 H   0  0  0  0  0  0  0  0  0  0  0  0
   37.5542   21.9043   41.2257 H   0  0  0  0  0  0  0  0  0  0  0  0
   39.2739   21.8618   38.8337 H   0  0  0  0  0  0  0  0  0  0  0  0
   37.7234   21.0156   39.0600 H   0  0  0  0  0  0  0  0  0  0  0  0
   38.2966   23.6320   37.7152 H   0  0  0  0  0  0  0  0  0  0  0  0
   36.9566   22.5376   37.4271 H   0  0  0  0  0  0  0  0  0  0  0  0
   36.5205   24.8440   38.7937 H   0  0  0  0  0  0  0  0  0  0  0  0
   35.7015   23.4369   39.3789 H   0  0  0  0  0  0  0  0  0  0  0  0
  1 14  1  0
  2  1  2  0
  3  2  1  0
  4  3  1  0
  4  9  2  0
  5  6  2  0
  5  4  1  0
  6  7  1  0
  7  8  2  0
  9  8  1  0
  9  1  1  0
 11 10  2  0
 12 11  1  0
 13 12  2  0
 13 14  1  0
 14 15  2  0
 15 10  1  0
 16 17  1  0
 16 12  1  0
 18 17  1  0
 19 18  1  0
 19 20  1  0
 20 16  1  0
  2 21  1  0
  3 22  1  0
  5 23  1  0
  6 24  1  0
  7 25  1  0
  8 26  1  0
 10 27  1  0
 11 28  1  0
 17 29  1  0
 17 30  1  0
 18 31  1  0
 18 32  1  0
 19 33  1  0
 19 34  1  0
 20 35  1  0
 20 36  1  0
M  ISO  8  21  14  22   9  23  14  24  14  25  14  26  14  27  14  28  14
M  ISO  8  29  13  30  13  31  13  32  13  33  13  34  13  35  13  36  13
M  END
>  <minimizedAffinity>  (1) 
-5.10415792

>  <minimizedRMSD>  (1) 
2.82831073

$$$$
