
     RDKit          3D

 39 42  0  0  0  0  0  0  0  0999 V2000
   37.3480   29.8600   40.6510 C   0  0  0  0  0  0  0  0  0  0  0  0
   36.0750   30.0240   41.2090 C   0  0  0  0  0  0  0  0  0  0  0  0
   35.1790   29.8740   40.2400 N   0  0  0  0  0  0  0  0  0  0  0  0
   35.7840   29.6160   39.0530 C   0  0  0  0  0  0  0  0  0  0  0  0
   35.2170   29.3980   37.8110 C   0  0  0  0  0  0  0  0  0  0  0  0
   36.0910   29.1530   36.7520 C   0  0  0  0  0  0  0  0  0  0  0  0
   37.4630   29.1340   36.9640 C   0  0  0  0  0  0  0  0  0  0  0  0
   38.0130   29.3550   38.2130 C   0  0  0  0  0  0  0  0  0  0  0  0
   37.1600   29.6020   39.2880 C   0  0  0  0  0  0  0  0  0  0  0  0
   40.3050   31.2440   42.2700 C   0  0  0  0  0  0  0  0  0  0  0  0
   41.0700   30.0980   42.5910 C   0  0  0  0  0  0  0  0  0  0  0  0
   40.5380   28.8620   42.2350 C   0  0  0  0  0  0  0  0  0  0  0  0
   39.3430   28.8350   41.6160 N   0  0  0  0  0  0  0  0  0  0  0  0
   38.6350   29.9350   41.3220 C   0  0  0  0  0  0  0  0  0  0  0  0
   39.1150   31.1500   41.6490 N   0  0  0  0  0  0  0  0  0  0  0  0
   41.2910   27.6940   42.5480 N   0  0  0  0  0  0  0  0  0  0  0  0
   42.2250   27.2060   41.5890 C   0  0  0  0  0  0  0  0  0  0  0  0
   42.7620   25.8440   41.8680 C   0  0  0  0  0  0  0  0  0  0  0  0
   42.7490   25.4240   43.2980 C   0  0  0  0  0  0  0  0  0  0  0  0
   41.3690   25.6240   43.8920 C   0  0  0  0  0  0  0  0  0  0  0  0
   41.0510   27.0880   43.8180 C   0  0  0  0  0  0  0  0  0  0  0  0
   35.8550   30.2394   42.2650 H   0  0  0  0  0  0  0  0  0  0  0  0
   34.1599   29.9442   40.3720 H   0  0  0  0  0  0  0  0  0  0  0  0
   34.1269   29.4169   37.6648 H   0  0  0  0  0  0  0  0  0  0  0  0
   35.6910   28.9738   35.7431 H   0  0  0  0  0  0  0  0  0  0  0  0
   38.1320   28.9373   36.1133 H   0  0  0  0  0  0  0  0  0  0  0  0
   39.1035   29.3363   38.3561 H   0  0  0  0  0  0  0  0  0  0  0  0
   40.6934   32.2384   42.5352 H   0  0  0  0  0  0  0  0  0  0  0  0
   42.0420   30.1801   43.0993 H   0  0  0  0  0  0  0  0  0  0  0  0
   43.0728   27.9059   41.5518 H   0  0  0  0  0  0  0  0  0  0  0  0
   41.6777   27.1313   40.6378 H   0  0  0  0  0  0  0  0  0  0  0  0
   42.1608   25.1205   41.2979 H   0  0  0  0  0  0  0  0  0  0  0  0
   43.8216   25.8737   41.5741 H   0  0  0  0  0  0  0  0  0  0  0  0
   43.0231   24.3609   43.3666 H   0  0  0  0  0  0  0  0  0  0  0  0
   43.4717   26.0361   43.8575 H   0  0  0  0  0  0  0  0  0  0  0  0
   40.6269   25.0495   43.3182 H   0  0  0  0  0  0  0  0  0  0  0  0
   41.3432   25.2754   44.9350 H   0  0  0  0  0  0  0  0  0  0  0  0
   41.6661   27.6091   44.5664 H   0  0  0  0  0  0  0  0  0  0  0  0
   39.9702   27.1775   44.0020 H   0  0  0  0  0  0  0  0  0  0  0  0
  1  2  2  0
  1 14  1  0
  3  2  1  0
  4  9  2  0
  4  3  1  0
  5  4  1  0
  6  7  1  0
  6  5  2  0
  7  8  2  0
  8  9  1  0
  9  1  1  0
 10 11  2  0
 12 16  1  0
 12 11  1  0
 13 12  2  0
 14 13  1  0
 14 15  2  0
 15 10  1  0
 16 21  1  0
 17 18  1  0
 17 16  1  0
 18 19  1  0
 19 20  1  0
 21 20  1  0
  2 22  1  0
  3 23  1  0
  5 24  1  0
  6 25  1  0
  7 26  1  0
  8 27  1  0
 10 28  1  0
 11 29  1  0
 17 30  1  0
 17 31  1  0
 18 32  1  0
 18 33  1  0
 19 34  1  0
 19 35  1  0
 20 36  1  0
 20 37  1  0
 21 38  1  0
 21 39  1  0
M  ISO  8  22  14  23   9  24  14  25  14  26  14  27  14  28  14  29  14
M  ISO  8  30  13  31  13  32  13  33  13  34  13  35  13  36  13  37  13
M  ISO  2  38  13  39  13
M  END
>  <minimizedAffinity>  (1) 
-4.72426081

>  <minimizedRMSD>  (1) 
3.81756902

$$$$
