
     RDKit          3D

 25 27  0  0  0  0  0  0  0  0999 V2000
   37.2830   29.3200   41.3900 C   0  0  0  0  0  0  0  0  0  0  0  0
   36.1500   28.6740   41.8690 C   0  0  0  0  0  0  0  0  0  0  0  0
   36.5460   27.7830   42.7720 N   0  0  0  0  0  0  0  0  0  0  0  0
   37.8840   27.8000   42.9220 C   0  0  0  0  0  0  0  0  0  0  0  0
   38.6790   27.0400   43.7500 C   0  0  0  0  0  0  0  0  0  0  0  0
   40.0560   27.2760   43.6940 C   0  0  0  0  0  0  0  0  0  0  0  0
   40.5800   28.2240   42.8480 C   0  0  0  0  0  0  0  0  0  0  0  0
   39.7770   28.9840   42.0190 C   0  0  0  0  0  0  0  0  0  0  0  0
   38.3870   28.7730   42.0510 C   0  0  0  0  0  0  0  0  0  0  0  0
   37.1180   31.1040   38.1880 C   0  0  0  0  0  0  0  0  0  0  0  0
   37.5940   32.3880   38.5320 C   0  0  0  0  0  0  0  0  0  0  0  0
   37.9660   32.6210   39.8760 C   0  0  0  0  0  0  0  0  0  0  0  0
   37.8470   31.6050   40.7600 N   0  0  0  0  0  0  0  0  0  0  0  0
   37.3850   30.3860   40.3830 C   0  0  0  0  0  0  0  0  0  0  0  0
   37.0290   30.1480   39.1200 N   0  0  0  0  0  0  0  0  0  0  0  0
   38.5780   34.2070   40.4160 S   0  0  0  0  0  0  0  0  0  0  0  0
   35.1127   28.8655   41.5571 H   0  0  0  0  0  0  0  0  0  0  0  0
   35.9110   27.1595   43.2905 H   0  0  0  0  0  0  0  0  0  0  0  0
   38.2512   26.2830   44.4237 H   0  0  0  0  0  0  0  0  0  0  0  0
   40.7312   26.6932   44.3378 H   0  0  0  0  0  0  0  0  0  0  0  0
   41.6684   28.3821   42.8303 H   0  0  0  0  0  0  0  0  0  0  0  0
   40.2156   29.7377   41.3486 H   0  0  0  0  0  0  0  0  0  0  0  0
   36.8196   30.8890   37.1513 H   0  0  0  0  0  0  0  0  0  0  0  0
   37.6731   33.1837   37.7766 H   0  0  0  0  0  0  0  0  0  0  0  0
   38.5939   34.2482   41.7853 H   0  0  0  0  0  0  0  0  0  0  0  0
  1  2  2  0
  1  9  1  0
  2  3  1  0
  3  4  1  0
  4  5  2  0
  6  5  1  0
  7  6  2  0
  8  9  2  0
  8  7  1  0
  9  4  1  0
 10 11  2  0
 10 15  1  0
 11 12  1  0
 12 16  1  0
 12 13  2  0
 14 13  1  0
 14  1  1  0
 15 14  2  0
  2 17  1  0
  3 18  1  0
  5 19  1  0
  6 20  1  0
  7 21  1  0
  8 22  1  0
 10 23  1  0
 11 24  1  0
 16 25  1  0
M  ISO  8  17  14  18   9  19  14  20  14  21  14  22  14  23  14  24  14
M  ISO  1  25  11
M  END
>  <minimizedAffinity>  (1) 
-4.61325645

>  <minimizedRMSD>  (1) 
5.71418285

$$$$
