
     RDKit          3D

 37 40  0  0  0  0  0  0  0  0999 V2000
   40.9430   28.0260   43.3720 C   0  0  0  0  0  0  0  0  0  0  0  0
   40.3670   26.8810   42.7310 C   0  0  0  0  0  0  0  0  0  0  0  0
   39.7460   27.0820   41.4870 C   0  0  0  0  0  0  0  0  0  0  0  0
   39.7310   28.3320   40.9790 N   0  0  0  0  0  0  0  0  0  0  0  0
   40.2810   29.3890   41.6060 C   0  0  0  0  0  0  0  0  0  0  0  0
   40.8790   29.2330   42.7890 N   0  0  0  0  0  0  0  0  0  0  0  0
   39.1660   25.9620   40.8260 N   0  0  0  0  0  0  0  0  0  0  0  0
   37.9290   25.4980   41.0380 C   0  0  0  0  0  0  0  0  0  0  0  0
   37.4860   24.3850   40.3140 C   0  0  0  0  0  0  0  0  0  0  0  0
   36.1350   23.8550   40.5260 C   0  0  0  0  0  0  0  0  0  0  0  0
   38.3160   23.7730   39.3950 C   0  0  0  0  0  0  0  0  0  0  0  0
   37.8790   22.7740   38.7650 O   0  0  0  0  0  0  0  0  0  0  0  0
   39.5590   24.2790   39.2160 N   0  0  0  0  0  0  0  0  0  0  0  0
   39.9810   25.3620   39.9230 C   0  0  0  0  0  0  0  0  0  0  0  0
   41.1420   25.7270   39.6660 O   0  0  0  0  0  0  0  0  0  0  0  0
   40.2350   30.7200   41.0110 C   0  0  0  0  0  0  0  0  0  0  0  0
   39.2740   31.2360   40.1380 C   0  0  0  0  0  0  0  0  0  0  0  0
   39.6320   32.4880   39.8500 N   0  0  0  0  0  0  0  0  0  0  0  0
   40.7730   32.8350   40.4810 C   0  0  0  0  0  0  0  0  0  0  0  0
   41.4810   34.0300   40.4570 C   0  0  0  0  0  0  0  0  0  0  0  0
   42.6450   34.1020   41.2180 C   0  0  0  0  0  0  0  0  0  0  0  0
   43.0590   33.0210   41.9580 C   0  0  0  0  0  0  0  0  0  0  0  0
   42.3620   31.8240   41.9910 C   0  0  0  0  0  0  0  0  0  0  0  0
   41.1850   31.7270   41.2310 C   0  0  0  0  0  0  0  0  0  0  0  0
   41.4402   27.9149   44.3469 H   0  0  0  0  0  0  0  0  0  0  0  0
   40.4094   25.8844   43.1946 H   0  0  0  0  0  0  0  0  0  0  0  0
   37.2692   25.9846   41.7713 H   0  0  0  0  0  0  0  0  0  0  0  0
   35.9368   23.7772   41.6052 H   0  0  0  0  0  0  0  0  0  0  0  0
   35.3995   24.5312   40.0659 H   0  0  0  0  0  0  0  0  0  0  0  0
   36.0555   22.8590   40.0659 H   0  0  0  0  0  0  0  0  0  0  0  0
   40.1938   23.8380   38.5352 H   0  0  0  0  0  0  0  0  0  0  0  0
   38.3869   30.7077   39.7587 H   0  0  0  0  0  0  0  0  0  0  0  0
   39.1034   33.1122   39.2240 H   0  0  0  0  0  0  0  0  0  0  0  0
   41.1354   34.8866   39.8597 H   0  0  0  0  0  0  0  0  0  0  0  0
   43.2363   35.0295   41.2267 H   0  0  0  0  0  0  0  0  0  0  0  0
   43.9825   33.1095   42.5490 H   0  0  0  0  0  0  0  0  0  0  0  0
   42.7194   30.9761   42.5937 H   0  0  0  0  0  0  0  0  0  0  0  0
  2  1  2  0
  3  2  1  0
  4  3  2  0
  4  5  1  0
  5  6  2  0
  6  1  1  0
  7  8  1  0
  7  3  1  0
  9 10  1  0
  9  8  2  0
 11  9  1  0
 12 11  2  0
 13 11  1  0
 13 14  1  0
 14  7  1  0
 15 14  2  0
 16 24  1  0
 16  5  1  0
 17 16  2  0
 18 17  1  0
 18 19  1  0
 19 24  2  0
 20 19  1  0
 20 21  2  0
 21 22  1  0
 22 23  2  0
 24 23  1  0
  1 25  1  0
  2 26  1  0
  8 27  1  0
 10 28  1  0
 10 29  1  0
 10 30  1  0
 13 31  1  0
 17 32  1  0
 18 33  1  0
 20 34  1  0
 21 35  1  0
 22 36  1  0
 23 37  1  0
M  ISO  8  25  14  26  14  27  14  28   8  29   8  30   8  31   9  32  14
M  ISO  5  33   9  34  14  35  14  36  14  37  14
M  END
>  <minimizedAffinity>  (1) 
-4.48399544

>  <minimizedRMSD>  (1) 
4.31669807

$$$$
