
     RDKit          3D

 38 41  0  0  0  0  0  0  0  0999 V2000
   38.5740   32.0370   39.9400 C   0  0  0  0  0  0  0  0  0  0  0  0
   37.2470   32.4300   39.9350 C   0  0  0  0  0  0  0  0  0  0  0  0
   37.2220   33.7470   40.0080 N   0  0  0  0  0  0  0  0  0  0  0  0
   38.4500   34.2590   40.0620 C   0  0  0  0  0  0  0  0  0  0  0  0
   38.8560   35.5760   40.1480 C   0  0  0  0  0  0  0  0  0  0  0  0
   40.2390   35.8220   40.1930 C   0  0  0  0  0  0  0  0  0  0  0  0
   41.1450   34.7850   40.1530 C   0  0  0  0  0  0  0  0  0  0  0  0
   40.7250   33.4700   40.0670 C   0  0  0  0  0  0  0  0  0  0  0  0
   39.3440   33.1990   40.0200 C   0  0  0  0  0  0  0  0  0  0  0  0
   40.4190   29.0930   38.7510 C   0  0  0  0  0  0  0  0  0  0  0  0
   40.1850   28.1520   39.7910 C   0  0  0  0  0  0  0  0  0  0  0  0
   39.3880   28.5450   40.9020 C   0  0  0  0  0  0  0  0  0  0  0  0
   38.9010   29.8120   40.8900 N   0  0  0  0  0  0  0  0  0  0  0  0
   39.1540   30.6750   39.8710 C   0  0  0  0  0  0  0  0  0  0  0  0
   39.8960   30.3210   38.8260 N   0  0  0  0  0  0  0  0  0  0  0  0
   39.1170   27.6970   41.9410 O   0  0  0  0  0  0  0  0  0  0  0  0
   38.6090   26.4200   41.6520 C   0  0  0  0  0  0  0  0  0  0  0  0
   39.1210   25.3460   42.5870 C   0  0  0  0  0  0  0  0  0  0  0  0
   38.2090   24.1850   42.2510 C   0  0  0  0  0  0  0  0  0  0  0  0
   36.8600   24.8530   42.1610 C   0  0  0  0  0  0  0  0  0  0  0  0
   37.1090   26.3360   41.9470 C   0  0  0  0  0  0  0  0  0  0  0  0
   36.3723   31.7652   39.8801 H   0  0  0  0  0  0  0  0  0  0  0  0
   36.3593   34.3096   40.0215 H   0  0  0  0  0  0  0  0  0  0  0  0
   38.1268   36.3989   40.1800 H   0  0  0  0  0  0  0  0  0  0  0  0
   40.6033   36.8577   40.2612 H   0  0  0  0  0  0  0  0  0  0  0  0
   42.2218   35.0068   40.1901 H   0  0  0  0  0  0  0  0  0  0  0  0
   41.4573   32.6498   40.0358 H   0  0  0  0  0  0  0  0  0  0  0  0
   41.0319   28.8098   37.8826 H   0  0  0  0  0  0  0  0  0  0  0  0
   40.6120   27.1397   39.7376 H   0  0  0  0  0  0  0  0  0  0  0  0
   38.8981   26.2704   40.6013 H   0  0  0  0  0  0  0  0  0  0  0  0
   40.1734   25.1022   42.3794 H   0  0  0  0  0  0  0  0  0  0  0  0
   39.1045   25.6337   43.6486 H   0  0  0  0  0  0  0  0  0  0  0  0
   38.4893   23.7223   41.2932 H   0  0  0  0  0  0  0  0  0  0  0  0
   38.2478   23.3670   42.9854 H   0  0  0  0  0  0  0  0  0  0  0  0
   36.2903   24.4402   41.3154 H   0  0  0  0  0  0  0  0  0  0  0  0
   36.2768   24.6824   43.0779 H   0  0  0  0  0  0  0  0  0  0  0  0
   36.8554   26.9096   42.8507 H   0  0  0  0  0  0  0  0  0  0  0  0
   36.4938   26.7565   41.1378 H   0  0  0  0  0  0  0  0  0  0  0  0
  1  9  1  0
  2  1  2  0
  2  3  1  0
  3  4  1  0
  4  5  2  0
  5  6  1  0
  7  6  2  0
  8  7  1  0
  9  4  1  0
  9  8  2  0
 10 15  2  0
 10 11  1  0
 11 12  2  0
 12 16  1  0
 13 12  1  0
 14  1  1  0
 14 13  2  0
 15 14  1  0
 17 16  1  0
 17 21  1  0
 17 18  1  0
 19 18  1  0
 20 19  1  0
 21 20  1  0
  2 22  1  0
  3 23  1  0
  5 24  1  0
  6 25  1  0
  7 26  1  0
  8 27  1  0
 10 28  1  0
 11 29  1  0
 17 30  1  0
 18 31  1  0
 18 32  1  0
 19 33  1  0
 19 34  1  0
 20 35  1  0
 20 36  1  0
 21 37  1  0
 21 38  1  0
M  ISO  8  22  14  23   9  24  14  25  14  26  14  27  14  28  14  29  14
M  ISO  8  30  13  31  13  32  13  33  13  34  13  35  13  36  13  37  13
M  ISO  1  38  13
M  END
>  <minimizedAffinity>  (1) 
-5.75694323

>  <minimizedRMSD>  (1) 
4.33797216

$$$$
