
     RDKit          3D

 32 35  0  0  0  0  0  0  0  0999 V2000
   37.3510   30.9150   41.0490 C   0  0  0  0  0  0  0  0  0  0  0  0
   36.0430   30.6870   40.5990 C   0  0  0  0  0  0  0  0  0  0  0  0
   35.6530   29.5240   41.1170 N   0  0  0  0  0  0  0  0  0  0  0  0
   36.6200   28.9680   41.8810 C   0  0  0  0  0  0  0  0  0  0  0  0
   36.6050   27.7850   42.5790 C   0  0  0  0  0  0  0  0  0  0  0  0
   37.7570   27.4630   43.2870 C   0  0  0  0  0  0  0  0  0  0  0  0
   38.8420   28.2910   43.2780 C   0  0  0  0  0  0  0  0  0  0  0  0
   38.8550   29.4820   42.5740 C   0  0  0  0  0  0  0  0  0  0  0  0
   37.7040   29.8300   41.8520 C   0  0  0  0  0  0  0  0  0  0  0  0
   38.4180   34.2680   40.0360 C   0  0  0  0  0  0  0  0  0  0  0  0
   39.8300   34.2010   40.2020 C   0  0  0  0  0  0  0  0  0  0  0  0
   40.3890   32.9980   40.6590 C   0  0  0  0  0  0  0  0  0  0  0  0
   39.5520   31.9530   40.9240 N   0  0  0  0  0  0  0  0  0  0  0  0
   38.2180   32.0580   40.7540 C   0  0  0  0  0  0  0  0  0  0  0  0
   37.6580   33.2000   40.3160 N   0  0  0  0  0  0  0  0  0  0  0  0
   41.7490   32.8650   40.8410 O   0  0  0  0  0  0  0  0  0  0  0  0
   42.5660   33.2060   39.7720 C   0  0  0  0  0  0  0  0  0  0  0  0
   42.6530   32.2380   38.7880 C   0  0  0  0  0  0  0  0  0  0  0  0
   43.5040   32.7240   37.7890 C   0  0  0  0  0  0  0  0  0  0  0  0
   43.8740   33.9690   38.2480 C   0  0  0  0  0  0  0  0  0  0  0  0
   43.3120   34.2300   39.4120 O   0  0  0  0  0  0  0  0  0  0  0  0
   35.4519   31.3433   39.9434 H   0  0  0  0  0  0  0  0  0  0  0  0
   34.7283   29.1001   40.9555 H   0  0  0  0  0  0  0  0  0  0  0  0
   35.7249   27.1252   42.5777 H   0  0  0  0  0  0  0  0  0  0  0  0
   37.7948   26.5268   43.8632 H   0  0  0  0  0  0  0  0  0  0  0  0
   39.7361   28.0017   43.8497 H   0  0  0  0  0  0  0  0  0  0  0  0
   39.7400   30.1353   42.5803 H   0  0  0  0  0  0  0  0  0  0  0  0
   37.9501   35.1968   39.6777 H   0  0  0  0  0  0  0  0  0  0  0  0
   40.4664   35.0697   39.9778 H   0  0  0  0  0  0  0  0  0  0  0  0
   42.1450   31.2623   38.7902 H   0  0  0  0  0  0  0  0  0  0  0  0
   43.8068   32.2277   36.8552 H   0  0  0  0  0  0  0  0  0  0  0  0
   44.5487   34.6545   37.7143 H   0  0  0  0  0  0  0  0  0  0  0  0
  1  9  1  0
  2  1  2  0
  2  3  1  0
  3  4  1  0
  4  5  2  0
  5  6  1  0
  7  6  2  0
  8  7  1  0
  9  4  1  0
  9  8  2  0
 10 11  2  0
 10 15  1  0
 11 12  1  0
 12 16  1  0
 12 13  2  0
 14 13  1  0
 14  1  1  0
 15 14  2  0
 17 16  1  0
 18 17  2  0
 19 20  2  0
 19 18  1  0
 20 21  1  0
 21 17  1  0
  2 22  1  0
  3 23  1  0
  5 24  1  0
  6 25  1  0
  7 26  1  0
  8 27  1  0
 10 28  1  0
 11 29  1  0
 18 30  1  0
 19 31  1  0
 20 32  1  0
M  ISO  8  22  14  23   9  24  14  25  14  26  14  27  14  28  14  29  14
M  ISO  3  30  14  31  14  32  14
M  END
>  <minimizedAffinity>  (1) 
-5.71286917

>  <minimizedRMSD>  (1) 
7.85683298

$$$$
