
     RDKit          3D

 32 35  0  0  0  0  0  0  0  0999 V2000
   40.3390   28.9890   42.9270 C   0  0  0  0  0  0  0  0  0  0  0  0
   40.1350   27.7610   42.2390 C   0  0  0  0  0  0  0  0  0  0  0  0
   39.3110   27.7680   41.1020 C   0  0  0  0  0  0  0  0  0  0  0  0
   38.7480   28.9450   40.7080 N   0  0  0  0  0  0  0  0  0  0  0  0
   38.9710   30.0880   41.3920 C   0  0  0  0  0  0  0  0  0  0  0  0
   39.7540   30.1140   42.4870 N   0  0  0  0  0  0  0  0  0  0  0  0
   38.3530   31.3380   40.9490 C   0  0  0  0  0  0  0  0  0  0  0  0
   36.9970   31.5900   40.6990 C   0  0  0  0  0  0  0  0  0  0  0  0
   36.8850   32.8540   40.3170 N   0  0  0  0  0  0  0  0  0  0  0  0
   38.0850   33.4630   40.2970 C   0  0  0  0  0  0  0  0  0  0  0  0
   38.4100   34.7660   39.9610 C   0  0  0  0  0  0  0  0  0  0  0  0
   39.7520   35.1240   40.0320 C   0  0  0  0  0  0  0  0  0  0  0  0
   40.7000   34.2220   40.4170 C   0  0  0  0  0  0  0  0  0  0  0  0
   40.3870   32.9170   40.7540 C   0  0  0  0  0  0  0  0  0  0  0  0
   39.0390   32.5290   40.6920 C   0  0  0  0  0  0  0  0  0  0  0  0
   39.0690   26.6130   40.3840 O   0  0  0  0  0  0  0  0  0  0  0  0
   38.1590   23.5410   41.7970 N   0  0  0  0  0  0  0  0  0  0  0  0
   38.9930   24.3710   41.1640 N   0  0  0  0  0  0  0  0  0  0  0  0
   38.4380   25.5690   41.0020 C   0  0  0  0  0  0  0  0  0  0  0  0
   37.1870   25.4610   41.5730 C   0  0  0  0  0  0  0  0  0  0  0  0
   37.0070   24.1940   42.0730 C   0  0  0  0  0  0  0  0  0  0  0  0
   40.9779   29.0168   43.8220 H   0  0  0  0  0  0  0  0  0  0  0  0
   40.6094   26.8319   42.5878 H   0  0  0  0  0  0  0  0  0  0  0  0
   36.1735   30.8680   40.8015 H   0  0  0  0  0  0  0  0  0  0  0  0
   35.9959   33.3106   40.0680 H   0  0  0  0  0  0  0  0  0  0  0  0
   37.6397   35.4875   39.6511 H   0  0  0  0  0  0  0  0  0  0  0  0
   40.0534   36.1499   39.7738 H   0  0  0  0  0  0  0  0  0  0  0  0
   41.7510   34.5436   40.4612 H   0  0  0  0  0  0  0  0  0  0  0  0
   41.1689   32.2066   41.0605 H   0  0  0  0  0  0  0  0  0  0  0  0
   38.3611   22.5599   42.0367 H   0  0  0  0  0  0  0  0  0  0  0  0
   36.4432   26.2700   41.6210 H   0  0  0  0  0  0  0  0  0  0  0  0
   36.1189   23.7969   42.5863 H   0  0  0  0  0  0  0  0  0  0  0  0
  2  1  2  0
  3  2  1  0
  4  3  2  0
  4  5  1  0
  5  6  2  0
  6  1  1  0
  7  5  1  0
  8  7  2  0
  9  8  1  0
 10  9  1  0
 10 15  2  0
 11 12  2  0
 11 10  1  0
 12 13  1  0
 13 14  2  0
 15 14  1  0
 15  7  1  0
 16 19  1  0
 16  3  1  0
 17 21  1  0
 18 17  1  0
 19 18  2  0
 19 20  1  0
 20 21  2  0
  1 22  1  0
  2 23  1  0
  8 24  1  0
  9 25  1  0
 11 26  1  0
 12 27  1  0
 13 28  1  0
 14 29  1  0
 17 30  1  0
 20 31  1  0
 21 32  1  0
M  ISO  8  22  14  23  14  24  14  25   9  26  14  27  14  28  14  29  14
M  ISO  3  30   9  31  14  32  14
M  END
>  <minimizedAffinity>  (1) 
-5.53639793

>  <minimizedRMSD>  (1) 
3.37569046

$$$$
