
     RDKit          3D

 28 30  0  0  0  0  0  0  0  0999 V2000
   37.2810   28.8390   41.7440 C   0  0  0  0  0  0  0  0  0  0  0  0
   35.9270   28.8170   41.4330 C   0  0  0  0  0  0  0  0  0  0  0  0
   35.6300   30.0060   40.9140 N   0  0  0  0  0  0  0  0  0  0  0  0
   36.7040   30.8090   40.8630 C   0  0  0  0  0  0  0  0  0  0  0  0
   36.8030   32.1060   40.3960 C   0  0  0  0  0  0  0  0  0  0  0  0
   38.0770   32.7000   40.4720 C   0  0  0  0  0  0  0  0  0  0  0  0
   39.1540   32.0190   40.9820 C   0  0  0  0  0  0  0  0  0  0  0  0
   39.0380   30.7230   41.4450 C   0  0  0  0  0  0  0  0  0  0  0  0
   37.7750   30.0940   41.3860 C   0  0  0  0  0  0  0  0  0  0  0  0
   39.9450   27.1500   43.6140 C   0  0  0  0  0  0  0  0  0  0  0  0
   39.6240   25.7760   43.4390 C   0  0  0  0  0  0  0  0  0  0  0  0
   38.4870   25.4570   42.6760 C   0  0  0  0  0  0  0  0  0  0  0  0
   37.7500   26.4800   42.1400 N   0  0  0  0  0  0  0  0  0  0  0  0
   38.1040   27.7750   42.3400 C   0  0  0  0  0  0  0  0  0  0  0  0
   39.1850   28.0970   43.0660 N   0  0  0  0  0  0  0  0  0  0  0  0
   38.0910   24.1430   42.4480 O   0  0  0  0  0  0  0  0  0  0  0  0
   38.5040   23.5280   41.2740 C   0  0  0  0  0  0  0  0  0  0  0  0
   39.2770   24.1280   40.5120 O   0  0  0  0  0  0  0  0  0  0  0  0
   38.1150   22.2550   40.8600 O   0  0  0  0  0  0  0  0  0  0  0  0
   35.2331   27.9773   41.5864 H   0  0  0  0  0  0  0  0  0  0  0  0
   34.6903   30.2769   40.5908 H   0  0  0  0  0  0  0  0  0  0  0  0
   35.9348   32.6441   39.9877 H   0  0  0  0  0  0  0  0  0  0  0  0
   38.2122   33.7317   40.1151 H   0  0  0  0  0  0  0  0  0  0  0  0
   40.1336   32.5177   41.0230 H   0  0  0  0  0  0  0  0  0  0  0  0
   39.9113   30.1917   41.8513 H   0  0  0  0  0  0  0  0  0  0  0  0
   40.8276   27.4332   44.2064 H   0  0  0  0  0  0  0  0  0  0  0  0
   40.2460   24.9869   43.8867 H   0  0  0  0  0  0  0  0  0  0  0  0
   38.4552   21.8866   40.0064 H   0  0  0  0  0  0  0  0  0  0  0  0
  1 14  1  0
  2  1  2  0
  3  2  1  0
  4  3  1  0
  4  9  2  0
  5  6  2  0
  5  4  1  0
  6  7  1  0
  7  8  2  0
  9  8  1  0
  9  1  1  0
 11 10  2  0
 12 11  1  0
 13 14  1  0
 13 12  2  0
 14 15  2  0
 15 10  1  0
 16 12  1  0
 17 16  1  0
 18 17  2  0
 19 17  1  0
  2 20  1  0
  3 21  1  0
  5 22  1  0
  6 23  1  0
  7 24  1  0
  8 25  1  0
 10 26  1  0
 11 27  1  0
 19 28  1  0
M  ISO  8  20  14  21   9  22  14  23  14  24  14  25  14  26  14  27  14
M  ISO  1  28   3
M  END
>  <minimizedAffinity>  (1) 
-5.22543573

>  <minimizedRMSD>  (1) 
1.3662535

$$$$
