
     RDKit          3D

 30 31  0  0  1  0  0  0  0  0999 V2000
   38.4140   28.3510   41.8880 C   0  0  1  0  0  0  0  0  0  0  0  0
   38.9900   27.8280   43.2060 C   0  0  0  0  0  0  0  0  0  0  0  0
   37.7970   27.5610   44.0720 C   0  0  0  0  0  0  0  0  0  0  0  0
   36.6710   27.3890   43.0620 C   0  0  0  0  0  0  0  0  0  0  0  0
   36.9520   28.5850   42.1640 C   0  0  2  0  0  0  0  0  0  0  0  0
   40.0000   31.7760   41.5700 C   0  0  0  0  0  0  0  0  0  0  0  0
   39.2770   30.7290   42.1690 C   0  0  0  0  0  0  0  0  0  0  0  0
   39.1300   29.5390   41.4040 C   0  0  0  0  0  0  0  0  0  0  0  0
   39.6740   29.4480   40.1570 N   0  0  0  0  0  0  0  0  0  0  0  0
   40.3650   30.5000   39.6340 C   0  0  0  0  0  0  0  0  0  0  0  0
   40.5250   31.6450   40.3310 N   0  0  0  0  0  0  0  0  0  0  0  0
   36.1780   28.4720   40.9450 N   0  0  0  0  0  0  0  0  0  0  0  0
   35.2750   29.5370   40.6470 C   0  0  0  0  0  0  0  0  0  0  0  0
   35.5860   30.7240   41.0550 N   0  0  0  0  0  0  0  0  0  0  0  0
   34.0600   29.2930   39.9180 N   0  0  0  0  0  0  0  0  0  0  0  0
   34.9180   31.5070   40.8330 H   0  0  0  0  0  0  0  0  0  0  0  0
   38.5374   27.6334   41.0635 H   0  0  0  0  0  0  0  0  0  0  0  0
   39.5608   26.9028   43.0383 H   0  0  0  0  0  0  0  0  0  0  0  0
   39.6832   28.5465   43.6678 H   0  0  0  0  0  0  0  0  0  0  0  0
   37.9373   26.6465   44.6670 H   0  0  0  0  0  0  0  0  0  0  0  0
   37.6048   28.3603   44.8029 H   0  0  0  0  0  0  0  0  0  0  0  0
   36.7521   26.4378   42.5155 H   0  0  0  0  0  0  0  0  0  0  0  0
   35.6589   27.3543   43.4915 H   0  0  0  0  0  0  0  0  0  0  0  0
   36.7084   29.5717   42.5849 H   0  0  0  0  0  0  0  0  0  0  0  0
   40.1409   32.7185   42.1194 H   0  0  0  0  0  0  0  0  0  0  0  0
   38.8474   30.8254   43.1770 H   0  0  0  0  0  0  0  0  0  0  0  0
   40.7996   30.4146   38.6271 H   0  0  0  0  0  0  0  0  0  0  0  0
   36.2748   27.6588   40.3203 H   0  0  0  0  0  0  0  0  0  0  0  0
   33.4186   30.0718   39.7107 H   0  0  0  0  0  0  0  0  0  0  0  0
   33.8310   28.3394   39.6031 H   0  0  0  0  0  0  0  0  0  0  0  0
  1  5  1  0
  1  2  1  0
  2  3  1  0
  4  3  1  0
  5  4  1  0
  6  7  2  0
  8  1  1  0
  8  7  1  0
  9  8  2  0
 10  9  1  0
 10 11  2  0
 11  6  1  0
 12  5  1  0
 13 12  1  0
 13 14  2  0
 15 13  1  0
 16 14  1  0
  1 17  1  6
  2 18  1  0
  2 19  1  0
  3 20  1  0
  3 21  1  0
  4 22  1  0
  4 23  1  0
  5 24  1  1
  6 25  1  0
  7 26  1  0
 10 27  1  0
 12 28  1  0
 15 29  1  0
 15 30  1  0
M  ISO  8  17  13  18  13  19  13  20  13  21  13  22  13  23  13  24  13
M  ISO  3  25  14  26  14  27  14
M  END
>  <minimizedAffinity>  (1) 
-4.8983984

>  <minimizedRMSD>  (1) 
2.79355383

$$$$
