
     RDKit          3D

 35 38  0  0  0  0  0  0  0  0999 V2000
   40.8400   31.2110   38.7320 C   0  0  0  0  0  0  0  0  0  0  0  0
   41.2670   32.5070   39.1040 C   0  0  0  0  0  0  0  0  0  0  0  0
   40.6550   33.1180   40.2000 C   0  0  0  0  0  0  0  0  0  0  0  0
   39.6680   32.4560   40.8830 N   0  0  0  0  0  0  0  0  0  0  0  0
   39.2940   31.2100   40.4850 C   0  0  0  0  0  0  0  0  0  0  0  0
   39.8630   30.5900   39.4310 N   0  0  0  0  0  0  0  0  0  0  0  0
   38.2450   30.4940   41.2010 C   0  0  0  0  0  0  0  0  0  0  0  0
   36.8610   30.7460   41.1520 C   0  0  0  0  0  0  0  0  0  0  0  0
   36.2820   29.8550   41.9590 N   0  0  0  0  0  0  0  0  0  0  0  0
   37.1870   29.0400   42.5300 C   0  0  0  0  0  0  0  0  0  0  0  0
   37.0110   28.0000   43.4130 C   0  0  0  0  0  0  0  0  0  0  0  0
   38.1310   27.3260   43.8440 C   0  0  0  0  0  0  0  0  0  0  0  0
   39.3750   27.6790   43.4060 C   0  0  0  0  0  0  0  0  0  0  0  0
   39.5560   28.7270   42.5150 C   0  0  0  0  0  0  0  0  0  0  0  0
   38.4330   29.4240   42.0670 C   0  0  0  0  0  0  0  0  0  0  0  0
   42.3000   33.2120   38.3970 C   0  0  0  0  0  0  0  0  0  0  0  0
   43.6530   33.2090   38.7520 C   0  0  0  0  0  0  0  0  0  0  0  0
   44.2450   34.0130   37.7920 C   0  0  0  0  0  0  0  0  0  0  0  0
   43.3220   34.4700   36.9200 N   0  0  0  0  0  0  0  0  0  0  0  0
   42.1690   33.9780   37.3000 N   0  0  0  0  0  0  0  0  0  0  0  0
   41.0260   34.3800   40.6120 O   0  0  0  0  0  0  0  0  0  0  0  0
   40.2570   35.4940   40.2890 C   0  0  0  0  0  0  0  0  0  0  0  0
   40.1060   36.2670   41.4130 F   0  0  0  0  0  0  0  0  0  0  0  0
   39.0120   35.1300   39.7670 F   0  0  0  0  0  0  0  0  0  0  0  0
   40.9660   36.1940   39.3220 F   0  0  0  0  0  0  0  0  0  0  0  0
   41.3040   30.7067   37.8716 H   0  0  0  0  0  0  0  0  0  0  0  0
   36.3553   31.5255   40.5632 H   0  0  0  0  0  0  0  0  0  0  0  0
   35.2669   29.7983   42.1244 H   0  0  0  0  0  0  0  0  0  0  0  0
   36.0076   27.7162   43.7633 H   0  0  0  0  0  0  0  0  0  0  0  0
   38.0222   26.4908   44.5516 H   0  0  0  0  0  0  0  0  0  0  0  0
   40.2517   27.1211   43.7669 H   0  0  0  0  0  0  0  0  0  0  0  0
   40.5632   29.0026   42.1691 H   0  0  0  0  0  0  0  0  0  0  0  0
   44.1335   32.6905   39.5948 H   0  0  0  0  0  0  0  0  0  0  0  0
   45.3189   34.2467   37.7466 H   0  0  0  0  0  0  0  0  0  0  0  0
   43.4913   35.0862   36.1122 H   0  0  0  0  0  0  0  0  0  0  0  0
  1  2  2  0
  1  6  1  0
  2  3  1  0
  3 21  1  0
  3  4  2  0
  5  4  1  0
  5  7  1  0
  6  5  2  0
  7 15  1  0
  8  7  2  0
  8  9  1  0
  9 10  1  0
 10 11  2  0
 11 12  1  0
 13 12  2  0
 14 13  1  0
 15 14  2  0
 15 10  1  0
 16 17  1  0
 16  2  1  0
 18 17  2  0
 19 20  1  0
 19 18  1  0
 20 16  2  0
 22 21  1  0
 22 23  1  0
 24 22  1  0
 25 22  1  0
  1 26  1  0
  8 27  1  0
  9 28  1  0
 11 29  1  0
 12 30  1  0
 13 31  1  0
 14 32  1  0
 17 33  1  0
 18 34  1  0
 19 35  1  0
M  ISO  8  26  14  27  14  28   9  29  14  30  14  31  14  32  14  33  14
M  ISO  2  34  14  35   9
M  END
>  <minimizedAffinity>  (1) 
-6.95440483

>  <minimizedRMSD>  (1) 
1.59680343

$$$$
