
     RDKit          3D

 31 33  0  0  0  0  0  0  0  0999 V2000
   40.7560   31.8320   38.3880 C   0  0  0  0  0  0  0  0  0  0  0  0
   41.2150   33.0970   38.8200 C   0  0  0  0  0  0  0  0  0  0  0  0
   40.6320   33.6820   39.9450 C   0  0  0  0  0  0  0  0  0  0  0  0
   39.6240   33.0110   40.6080 N   0  0  0  0  0  0  0  0  0  0  0  0
   39.2190   31.7990   40.1560 C   0  0  0  0  0  0  0  0  0  0  0  0
   39.7680   31.2070   39.0630 N   0  0  0  0  0  0  0  0  0  0  0  0
   38.1510   31.0690   40.8420 C   0  0  0  0  0  0  0  0  0  0  0  0
   36.7660   31.3090   40.7480 C   0  0  0  0  0  0  0  0  0  0  0  0
   36.1720   30.4130   41.5350 N   0  0  0  0  0  0  0  0  0  0  0  0
   37.0630   29.6080   42.1330 C   0  0  0  0  0  0  0  0  0  0  0  0
   36.8850   28.5540   43.0170 C   0  0  0  0  0  0  0  0  0  0  0  0
   38.0020   27.8900   43.4820 C   0  0  0  0  0  0  0  0  0  0  0  0
   39.2360   28.2640   43.0770 C   0  0  0  0  0  0  0  0  0  0  0  0
   39.4370   29.3110   42.1960 C   0  0  0  0  0  0  0  0  0  0  0  0
   38.3200   30.0010   41.7110 C   0  0  0  0  0  0  0  0  0  0  0  0
   42.2690   33.8110   38.1370 C   0  0  0  0  0  0  0  0  0  0  0  0
   43.2860   34.0770   38.8250 O   0  0  0  0  0  0  0  0  0  0  0  0
   42.1760   34.1820   36.8130 O   0  0  0  0  0  0  0  0  0  0  0  0
   41.0260   34.9150   40.4280 O   0  0  0  0  0  0  0  0  0  0  0  0
   40.3090   36.0740   40.1010 C   0  0  0  0  0  0  0  0  0  0  0  0
   40.9590   36.6840   39.0480 F   0  0  0  0  0  0  0  0  0  0  0  0
   40.1940   36.9260   41.1900 F   0  0  0  0  0  0  0  0  0  0  0  0
   39.0430   35.6610   39.6970 F   0  0  0  0  0  0  0  0  0  0  0  0
   41.2035   31.3571   37.5024 H   0  0  0  0  0  0  0  0  0  0  0  0
   36.2720   32.0840   40.1435 H   0  0  0  0  0  0  0  0  0  0  0  0
   35.1528   30.3465   41.6681 H   0  0  0  0  0  0  0  0  0  0  0  0
   35.8771   28.2544   43.3399 H   0  0  0  0  0  0  0  0  0  0  0  0
   37.8874   27.0523   44.1857 H   0  0  0  0  0  0  0  0  0  0  0  0
   40.1099   27.7173   43.4610 H   0  0  0  0  0  0  0  0  0  0  0  0
   40.4526   29.5953   41.8833 H   0  0  0  0  0  0  0  0  0  0  0  0
   42.9216   34.6706   36.3823 H   0  0  0  0  0  0  0  0  0  0  0  0
  1  2  2  0
  1  6  1  0
  2  3  1  0
  3 19  1  0
  3  4  2  0
  5  4  1  0
  5  7  1  0
  6  5  2  0
  7 15  1  0
  8  7  2  0
  8  9  1  0
  9 10  1  0
 10 11  2  0
 11 12  1  0
 13 12  2  0
 14 13  1  0
 15 10  1  0
 15 14  2  0
 16  2  1  0
 16 17  2  0
 18 16  1  0
 20 19  1  0
 20 22  1  0
 21 20  1  0
 23 20  1  0
  1 24  1  0
  8 25  1  0
  9 26  1  0
 11 27  1  0
 12 28  1  0
 13 29  1  0
 14 30  1  0
 18 31  1  0
M  ISO  8  24  14  25  14  26   9  27  14  28  14  29  14  30  14  31   3
M  END
>  <minimizedAffinity>  (1) 
-6.76289368

>  <minimizedRMSD>  (1) 
1.42004585

$$$$
