
     RDKit          3D

 41 44  0  0  0  0  0  0  0  0999 V2000
   41.2950   31.3880   39.2860 C   0  0  0  0  0  0  0  0  0  0  0  0
   41.2680   32.7930   39.1920 C   0  0  0  0  0  0  0  0  0  0  0  0
   40.1920   33.4840   39.7830 C   0  0  0  0  0  0  0  0  0  0  0  0
   39.2230   32.7680   40.4190 N   0  0  0  0  0  0  0  0  0  0  0  0
   39.2940   31.4110   40.4830 C   0  0  0  0  0  0  0  0  0  0  0  0
   40.3130   30.7220   39.9270 N   0  0  0  0  0  0  0  0  0  0  0  0
   38.2520   30.6490   41.1670 C   0  0  0  0  0  0  0  0  0  0  0  0
   36.8600   30.8440   41.1090 C   0  0  0  0  0  0  0  0  0  0  0  0
   36.3020   29.9260   41.8840 N   0  0  0  0  0  0  0  0  0  0  0  0
   37.2300   29.1250   42.4600 C   0  0  0  0  0  0  0  0  0  0  0  0
   37.0890   28.0670   43.3180 C   0  0  0  0  0  0  0  0  0  0  0  0
   38.2270   27.4190   43.7570 C   0  0  0  0  0  0  0  0  0  0  0  0
   39.4520   27.8320   43.3400 C   0  0  0  0  0  0  0  0  0  0  0  0
   39.6160   28.8950   42.4750 C   0  0  0  0  0  0  0  0  0  0  0  0
   38.4690   29.5600   42.0240 C   0  0  0  0  0  0  0  0  0  0  0  0
   42.2890   33.6070   38.5160 C   0  0  0  0  0  0  0  0  0  0  0  0
   42.9010   32.8480   37.3780 C   0  0  0  0  0  0  0  0  0  0  0  0
   44.4000   33.0780   37.4780 C   0  0  0  0  0  0  0  0  0  0  0  0
   44.5680   33.1340   38.9990 C   0  0  0  0  0  0  0  0  0  0  0  0
   43.4220   33.9950   39.4160 C   0  0  0  0  0  0  0  0  0  0  0  0
   40.1020   34.8560   39.7290 O   0  0  0  0  0  0  0  0  0  0  0  0
   38.9640   35.5040   40.2440 C   0  0  0  0  0  0  0  0  0  0  0  0
   39.0840   36.8490   39.9650 F   0  0  0  0  0  0  0  0  0  0  0  0
   38.8610   35.2970   41.6250 F   0  0  0  0  0  0  0  0  0  0  0  0
   37.8660   34.9760   39.6040 F   0  0  0  0  0  0  0  0  0  0  0  0
   42.1258   30.8280   38.8318 H   0  0  0  0  0  0  0  0  0  0  0  0
   36.3330   31.6153   40.5282 H   0  0  0  0  0  0  0  0  0  0  0  0
   35.2868   29.8327   42.0306 H   0  0  0  0  0  0  0  0  0  0  0  0
   36.0923   27.7407   43.6499 H   0  0  0  0  0  0  0  0  0  0  0  0
   38.1411   26.5661   44.4463 H   0  0  0  0  0  0  0  0  0  0  0  0
   40.3439   27.3011   43.7042 H   0  0  0  0  0  0  0  0  0  0  0  0
   40.6182   29.2106   42.1494 H   0  0  0  0  0  0  0  0  0  0  0  0
   41.7592   34.5094   38.1768 H   0  0  0  0  0  0  0  0  0  0  0  0
   42.5197   33.2258   36.4179 H   0  0  0  0  0  0  0  0  0  0  0  0
   42.6537   31.7774   37.4290 H   0  0  0  0  0  0  0  0  0  0  0  0
   44.9695   32.2471   37.0361 H   0  0  0  0  0  0  0  0  0  0  0  0
   44.7661   33.9658   36.9416 H   0  0  0  0  0  0  0  0  0  0  0  0
   44.4951   32.1310   39.4447 H   0  0  0  0  0  0  0  0  0  0  0  0
   45.5471   33.5196   39.3194 H   0  0  0  0  0  0  0  0  0  0  0  0
   43.6713   35.0584   39.2853 H   0  0  0  0  0  0  0  0  0  0  0  0
   43.1691   33.8559   40.4775 H   0  0  0  0  0  0  0  0  0  0  0  0
  1  6  2  0
  2  1  1  0
  2  3  2  0
  3  4  1  0
  4  5  2  0
  5  7  1  0
  6  5  1  0
  7 15  1  0
  8  7  2  0
  8  9  1  0
  9 10  1  0
 10 11  2  0
 11 12  1  0
 13 12  2  0
 14 13  1  0
 15 10  1  0
 15 14  2  0
 16  2  1  0
 16 20  1  0
 17 18  1  0
 17 16  1  0
 18 19  1  0
 19 20  1  0
 21  3  1  0
 21 22  1  0
 22 24  1  0
 23 22  1  0
 25 22  1  0
  1 26  1  0
  8 27  1  0
  9 28  1  0
 11 29  1  0
 12 30  1  0
 13 31  1  0
 14 32  1  0
 16 33  1  0
 17 34  1  0
 17 35  1  0
 18 36  1  0
 18 37  1  0
 19 38  1  0
 19 39  1  0
 20 40  1  0
 20 41  1  0
M  ISO  8  26  14  27  14  28   9  29  14  30  14  31  14  32  14  33  13
M  ISO  8  34  13  35  13  36  13  37  13  38  13  39  13  40  13  41  13
M  END
>  <minimizedAffinity>  (1) 
-6.59837055

>  <minimizedRMSD>  (1) 
1.54174566

$$$$
