
     RDKit          3D

 37 40  0  0  1  0  0  0  0  0999 V2000
   38.7320   26.5600   42.9150 C   0  0  1  0  0  0  0  0  0  0  0  0
   38.7370   27.7580   43.8790 C   0  0  0  0  0  0  0  0  0  0  0  0
   37.3570   28.3560   43.7950 C   0  0  0  0  0  0  0  0  0  0  0  0
   36.5240   27.1480   43.2990 C   0  0  0  0  0  0  0  0  0  0  0  0
   37.4400   26.7080   42.1970 C   0  0  2  0  0  0  0  0  0  0  0  0
   36.9820   25.6710   41.3110 C   0  0  0  0  0  0  0  0  0  0  0  0
   36.8780   24.2830   41.5150 C   0  0  0  0  0  0  0  0  0  0  0  0
   36.4330   23.6210   40.4600 N   0  0  0  0  0  0  0  0  0  0  0  0
   36.2050   24.4920   39.4830 C   0  0  0  0  0  0  0  0  0  0  0  0
   35.7390   24.3330   38.1950 C   0  0  0  0  0  0  0  0  0  0  0  0
   35.5810   25.4030   37.3600 C   0  0  0  0  0  0  0  0  0  0  0  0
   35.8990   26.6500   37.8330 C   0  0  0  0  0  0  0  0  0  0  0  0
   36.3620   26.7930   39.1150 C   0  0  0  0  0  0  0  0  0  0  0  0
   36.5360   25.7570   39.9870 C   0  0  0  0  0  0  0  0  0  0  0  0
   41.4690   27.5580   40.4740 C   0  0  0  0  0  0  0  0  0  0  0  0
   40.3190   27.6290   41.2570 C   0  0  0  0  0  0  0  0  0  0  0  0
   39.9180   26.5630   42.0640 C   0  0  0  0  0  0  0  0  0  0  0  0
   40.7020   25.4700   42.0400 N   0  0  0  0  0  0  0  0  0  0  0  0
   41.8130   25.3840   41.2920 C   0  0  0  0  0  0  0  0  0  0  0  0
   42.1960   26.4200   40.5120 N   0  0  0  0  0  0  0  0  0  0  0  0
   38.7923   25.5772   43.4053 H   0  0  0  0  0  0  0  0  0  0  0  0
   38.9479   27.4232   44.9054 H   0  0  0  0  0  0  0  0  0  0  0  0
   39.5132   28.4902   43.6119 H   0  0  0  0  0  0  0  0  0  0  0  0
   37.0105   28.7058   44.7787 H   0  0  0  0  0  0  0  0  0  0  0  0
   37.2917   29.2415   43.1457 H   0  0  0  0  0  0  0  0  0  0  0  0
   36.4036   26.3773   44.0746 H   0  0  0  0  0  0  0  0  0  0  0  0
   35.4848   27.3623   43.0089 H   0  0  0  0  0  0  0  0  0  0  0  0
   37.5217   27.4300   41.3711 H   0  0  0  0  0  0  0  0  0  0  0  0
   37.1423   23.7936   42.4640 H   0  0  0  0  0  0  0  0  0  0  0  0
   36.2878   22.6028   40.4051 H   0  0  0  0  0  0  0  0  0  0  0  0
   35.4895   23.3248   37.8325 H   0  0  0  0  0  0  0  0  0  0  0  0
   35.2080   25.2673   36.3341 H   0  0  0  0  0  0  0  0  0  0  0  0
   35.7830   27.5321   37.1861 H   0  0  0  0  0  0  0  0  0  0  0  0
   36.6091   27.8067   39.4634 H   0  0  0  0  0  0  0  0  0  0  0  0
   41.7764   28.4047   39.8426 H   0  0  0  0  0  0  0  0  0  0  0  0
   39.7127   28.5467   41.2389 H   0  0  0  0  0  0  0  0  0  0  0  0
   42.4162   24.4644   41.3136 H   0  0  0  0  0  0  0  0  0  0  0  0
  1  2  1  0
  3  2  1  0
  4  3  1  0
  5  1  1  0
  5  4  1  0
  6  7  2  0
  6  5  1  0
  8  7  1  0
  9 14  2  0
  9  8  1  0
 10  9  1  0
 11 12  1  0
 11 10  2  0
 12 13  2  0
 13 14  1  0
 14  6  1  0
 15 20  2  0
 15 16  1  0
 16 17  2  0
 17  1  1  0
 18 17  1  0
 19 18  2  0
 20 19  1  0
  1 21  1  1
  2 22  1  0
  2 23  1  0
  3 24  1  0
  3 25  1  0
  4 26  1  0
  4 27  1  0
  5 28  1  6
  7 29  1  0
  8 30  1  0
 10 31  1  0
 11 32  1  0
 12 33  1  0
 13 34  1  0
 15 35  1  0
 16 36  1  0
 19 37  1  0
M  ISO  8  21  13  22  13  23  13  24  13  25  13  26  13  27  13  28  13
M  ISO  8  29  14  30   9  31  14  32  14  33  14  34  14  35  14  36  14
M  ISO  1  37  14
M  END
>  <minimizedAffinity>  (1) 
-4.80739498

>  <minimizedRMSD>  (1) 
6.82719564

$$$$
