
     RDKit          3D

 35 38  0  0  0  0  0  0  0  0999 V2000
   41.0150   31.2930   39.0060 C   0  0  0  0  0  0  0  0  0  0  0  0
   41.3540   32.6200   39.3640 C   0  0  0  0  0  0  0  0  0  0  0  0
   40.6200   33.2510   40.3820 C   0  0  0  0  0  0  0  0  0  0  0  0
   39.6050   32.5640   40.9920 N   0  0  0  0  0  0  0  0  0  0  0  0
   39.3190   31.2910   40.6120 C   0  0  0  0  0  0  0  0  0  0  0  0
   40.0100   30.6560   39.6330 N   0  0  0  0  0  0  0  0  0  0  0  0
   38.2340   30.5490   41.2610 C   0  0  0  0  0  0  0  0  0  0  0  0
   36.8570   30.7870   41.1620 C   0  0  0  0  0  0  0  0  0  0  0  0
   36.2590   29.8670   41.9190 N   0  0  0  0  0  0  0  0  0  0  0  0
   37.1540   29.0380   42.5110 C   0  0  0  0  0  0  0  0  0  0  0  0
   36.9420   27.9770   43.3570 C   0  0  0  0  0  0  0  0  0  0  0  0
   38.0680   27.2970   43.8170 C   0  0  0  0  0  0  0  0  0  0  0  0
   39.3060   27.6770   43.4410 C   0  0  0  0  0  0  0  0  0  0  0  0
   39.5120   28.7510   42.5880 C   0  0  0  0  0  0  0  0  0  0  0  0
   38.3970   29.4580   42.1050 C   0  0  0  0  0  0  0  0  0  0  0  0
   42.4240   33.3180   38.7080 N   0  0  0  0  0  0  0  0  0  0  0  0
   43.6400   33.3370   39.2860 C   0  0  0  0  0  0  0  0  0  0  0  0
   44.4520   34.0690   38.4450 C   0  0  0  0  0  0  0  0  0  0  0  0
   43.7070   34.4660   37.3950 N   0  0  0  0  0  0  0  0  0  0  0  0
   42.4530   34.0060   37.5510 C   0  0  0  0  0  0  0  0  0  0  0  0
   40.9020   34.5300   40.7700 O   0  0  0  0  0  0  0  0  0  0  0  0
   40.1260   35.6040   40.2940 C   0  0  0  0  0  0  0  0  0  0  0  0
   39.9810   36.5180   41.3090 F   0  0  0  0  0  0  0  0  0  0  0  0
   38.8820   35.1680   39.8220 F   0  0  0  0  0  0  0  0  0  0  0  0
   40.8270   36.1750   39.2490 F   0  0  0  0  0  0  0  0  0  0  0  0
   41.5764   30.7803   38.2110 H   0  0  0  0  0  0  0  0  0  0  0  0
   36.3660   31.5773   40.5752 H   0  0  0  0  0  0  0  0  0  0  0  0
   35.2387   29.7945   42.0398 H   0  0  0  0  0  0  0  0  0  0  0  0
   35.9275   27.6771   43.6583 H   0  0  0  0  0  0  0  0  0  0  0  0
   37.9454   26.4397   44.4952 H   0  0  0  0  0  0  0  0  0  0  0  0
   40.1755   27.1205   43.8209 H   0  0  0  0  0  0  0  0  0  0  0  0
   40.5306   29.0447   42.2944 H   0  0  0  0  0  0  0  0  0  0  0  0
   43.9276   32.8643   40.2367 H   0  0  0  0  0  0  0  0  0  0  0  0
   45.5180   34.2894   38.6034 H   0  0  0  0  0  0  0  0  0  0  0  0
   41.6094   34.1624   36.8626 H   0  0  0  0  0  0  0  0  0  0  0  0
  1  2  2  0
  1  6  1  0
  2  3  1  0
  3 21  1  0
  3  4  2  0
  5  4  1  0
  5  7  1  0
  6  5  2  0
  7 15  1  0
  8  7  2  0
  8  9  1  0
  9 10  1  0
 10 11  2  0
 11 12  1  0
 13 12  2  0
 14 13  1  0
 15 10  1  0
 15 14  2  0
 16 17  1  0
 16  2  1  0
 18 17  2  0
 19 20  2  0
 19 18  1  0
 20 16  1  0
 22 21  1  0
 22 23  1  0
 24 22  1  0
 25 22  1  0
  1 26  1  0
  8 27  1  0
  9 28  1  0
 11 29  1  0
 12 30  1  0
 13 31  1  0
 14 32  1  0
 17 33  1  0
 18 34  1  0
 20 35  1  0
M  ISO  8  26  14  27  14  28   9  29  14  30  14  31  14  32  14  33  14
M  ISO  2  34  14  35  14
M  END
>  <minimizedAffinity>  (1) 
-6.27193689

>  <minimizedRMSD>  (1) 
1.5944984

$$$$
