
     RDKit          3D

 30 32  0  0  0  0  0  0  0  0999 V2000
   37.9610   30.9460   40.9040 C   0  0  0  0  0  0  0  0  0  0  0  0
   36.5600   31.1090   40.8710 C   0  0  0  0  0  0  0  0  0  0  0  0
   36.0570   30.1820   41.6890 N   0  0  0  0  0  0  0  0  0  0  0  0
   37.0320   29.4290   42.2490 C   0  0  0  0  0  0  0  0  0  0  0  0
   36.9420   28.3790   43.1380 C   0  0  0  0  0  0  0  0  0  0  0  0
   38.1340   27.7840   43.5480 C   0  0  0  0  0  0  0  0  0  0  0  0
   39.3250   28.2260   43.0870 C   0  0  0  0  0  0  0  0  0  0  0  0
   39.4110   29.2880   42.1900 C   0  0  0  0  0  0  0  0  0  0  0  0
   38.2340   29.8950   41.7670 C   0  0  0  0  0  0  0  0  0  0  0  0
   40.2690   31.9260   38.2460 C   0  0  0  0  0  0  0  0  0  0  0  0
   40.7940   33.1570   38.7170 C   0  0  0  0  0  0  0  0  0  0  0  0
   40.3390   33.6310   39.9520 C   0  0  0  0  0  0  0  0  0  0  0  0
   39.4140   32.9030   40.6600 N   0  0  0  0  0  0  0  0  0  0  0  0
   38.9420   31.7320   40.1670 C   0  0  0  0  0  0  0  0  0  0  0  0
   39.3660   31.2460   38.9690 N   0  0  0  0  0  0  0  0  0  0  0  0
   41.7750   33.9150   37.9490 C   0  0  0  0  0  0  0  0  0  0  0  0
   42.3010   33.2590   37.0100 O   0  0  0  0  0  0  0  0  0  0  0  0
   40.7990   34.8180   40.4790 O   0  0  0  0  0  0  0  0  0  0  0  0
   40.0750   36.0090   40.3020 C   0  0  0  0  0  0  0  0  0  0  0  0
   40.0960   36.7170   41.4770 F   0  0  0  0  0  0  0  0  0  0  0  0
   38.7710   35.7630   39.8830 F   0  0  0  0  0  0  0  0  0  0  0  0
   40.7310   36.7310   39.3180 F   0  0  0  0  0  0  0  0  0  0  0  0
   35.9953   31.8514   40.2879 H   0  0  0  0  0  0  0  0  0  0  0  0
   35.0512   30.0554   41.8714 H   0  0  0  0  0  0  0  0  0  0  0  0
   35.9687   28.0251   43.5088 H   0  0  0  0  0  0  0  0  0  0  0  0
   38.1048   26.9431   44.2565 H   0  0  0  0  0  0  0  0  0  0  0  0
   40.2485   27.7353   43.4283 H   0  0  0  0  0  0  0  0  0  0  0  0
   40.3876   29.6384   41.8247 H   0  0  0  0  0  0  0  0  0  0  0  0
   40.6055   31.5250   37.2785 H   0  0  0  0  0  0  0  0  0  0  0  0
   42.0320   34.9618   38.1687 H   0  0  0  0  0  0  0  0  0  0  0  0
  1  9  1  0
  2  1  2  0
  2  3  1  0
  3  4  1  0
  4  5  2  0
  5  6  1  0
  7  6  2  0
  8  7  1  0
  9  8  2  0
  9  4  1  0
 10 11  2  0
 10 15  1  0
 11 12  1  0
 12 18  1  0
 12 13  2  0
 14 13  1  0
 14  1  1  0
 15 14  2  0
 16 11  1  0
 17 16  2  0
 19 18  1  0
 19 20  1  0
 21 19  1  0
 22 19  1  0
  2 23  1  0
  3 24  1  0
  5 25  1  0
  6 26  1  0
  7 27  1  0
  8 28  1  0
 10 29  1  0
 16 30  1  0
M  ISO  8  23  14  24   9  25  14  26  14  27  14  28  14  29  14  30   6
M  END
>  <minimizedAffinity>  (1) 
-6.25525284

>  <minimizedRMSD>  (1) 
1.39014566

$$$$
