
     RDKit          3D

 26 27  0  0  1  0  0  0  0  0999 V2000
   36.7250   27.6490   41.0110 C   0  0  1  0  0  0  0  0  0  0  0  0
   36.6520   26.4930   40.0100 C   0  0  0  0  0  0  0  0  0  0  0  0
   37.2460   25.3200   40.7280 C   0  0  0  0  0  0  0  0  0  0  0  0
   37.0450   25.6970   42.1920 C   0  0  0  0  0  0  0  0  0  0  0  0
   37.5680   27.1320   42.1450 C   0  0  2  0  0  0  0  0  0  0  0  0
   39.0060   30.3150   39.5500 C   0  0  0  0  0  0  0  0  0  0  0  0
   38.5960   29.1320   40.1710 C   0  0  0  0  0  0  0  0  0  0  0  0
   37.2380   28.8680   40.3880 C   0  0  0  0  0  0  0  0  0  0  0  0
   36.3530   29.8080   39.9670 N   0  0  0  0  0  0  0  0  0  0  0  0
   36.7490   30.9420   39.3710 C   0  0  0  0  0  0  0  0  0  0  0  0
   38.0560   31.2010   39.1610 N   0  0  0  0  0  0  0  0  0  0  0  0
   37.2300   27.7860   43.4610 C   0  0  0  0  0  0  0  0  0  0  0  0
   38.0700   27.3770   44.4760 F   0  0  0  0  0  0  0  0  0  0  0  0
   35.9480   27.4200   43.8230 F   0  0  0  0  0  0  0  0  0  0  0  0
   37.2550   29.1620   43.3200 F   0  0  0  0  0  0  0  0  0  0  0  0
   35.7359   27.9524   41.3848 H   0  0  0  0  0  0  0  0  0  0  0  0
   37.2329   26.7274   39.1058 H   0  0  0  0  0  0  0  0  0  0  0  0
   35.6211   26.2967   39.6802 H   0  0  0  0  0  0  0  0  0  0  0  0
   36.7136   24.3900   40.4797 H   0  0  0  0  0  0  0  0  0  0  0  0
   38.2964   25.1283   40.4635 H   0  0  0  0  0  0  0  0  0  0  0  0
   35.9862   25.6536   42.4872 H   0  0  0  0  0  0  0  0  0  0  0  0
   37.5383   25.0380   42.9216 H   0  0  0  0  0  0  0  0  0  0  0  0
   38.6475   27.2870   42.0015 H   0  0  0  0  0  0  0  0  0  0  0  0
   40.0730   30.5223   39.3810 H   0  0  0  0  0  0  0  0  0  0  0  0
   39.3499   28.3987   40.4935 H   0  0  0  0  0  0  0  0  0  0  0  0
   35.9945   31.6742   39.0475 H   0  0  0  0  0  0  0  0  0  0  0  0
  1  5  1  0
  2  3  1  0
  2  1  1  0
  3  4  1  0
  5  4  1  0
  5 12  1  0
  6  7  2  0
  7  8  1  0
  8  1  1  0
  9  8  2  0
 10  9  1  0
 11 10  2  0
 11  6  1  0
 12 14  1  0
 12 13  1  0
 15 12  1  0
  1 16  1  1
  2 17  1  0
  2 18  1  0
  3 19  1  0
  3 20  1  0
  4 21  1  0
  4 22  1  0
  5 23  1  6
  6 24  1  0
  7 25  1  0
 10 26  1  0
M  ISO  8  16  13  17  13  18  13  19  13  20  13  21  13  22  13  23  13
M  ISO  3  24  14  25  14  26  14
M  END
>  <minimizedAffinity>  (1) 
-4.53194094

>  <minimizedRMSD>  (1) 
2.43256259

$$$$
