
     RDKit          3D

 37 39  0  0  0  0  0  0  0  0999 V2000
   38.3500   30.9560   41.1110 C   0  0  0  0  0  0  0  0  0  0  0  0
   36.9720   31.1670   40.9300 C   0  0  0  0  0  0  0  0  0  0  0  0
   36.3420   30.2070   41.6100 N   0  0  0  0  0  0  0  0  0  0  0  0
   37.2090   29.3850   42.2230 C   0  0  0  0  0  0  0  0  0  0  0  0
   36.9840   28.2800   43.0110 C   0  0  0  0  0  0  0  0  0  0  0  0
   38.0900   27.5990   43.5220 C   0  0  0  0  0  0  0  0  0  0  0  0
   39.3310   28.0340   43.2350 C   0  0  0  0  0  0  0  0  0  0  0  0
   39.5930   29.1340   42.4500 C   0  0  0  0  0  0  0  0  0  0  0  0
   38.4970   29.8250   41.9320 C   0  0  0  0  0  0  0  0  0  0  0  0
   41.2800   31.8010   39.1030 C   0  0  0  0  0  0  0  0  0  0  0  0
   41.5280   33.1540   39.4660 C   0  0  0  0  0  0  0  0  0  0  0  0
   40.6740   33.7490   40.4030 C   0  0  0  0  0  0  0  0  0  0  0  0
   39.6310   33.0270   40.9430 N   0  0  0  0  0  0  0  0  0  0  0  0
   39.4430   31.7380   40.5580 C   0  0  0  0  0  0  0  0  0  0  0  0
   40.2540   31.1300   39.6510 N   0  0  0  0  0  0  0  0  0  0  0  0
   42.6590   33.9240   38.8740 C   0  0  0  0  0  0  0  0  0  0  0  0
   42.4770   34.0800   37.3780 C   0  0  0  0  0  0  0  0  0  0  0  0
   43.9910   33.3010   39.2330 C   0  0  0  0  0  0  0  0  0  0  0  0
   40.8510   35.0550   40.8020 O   0  0  0  0  0  0  0  0  0  0  0  0
   40.1410   36.0910   40.1860 C   0  0  0  0  0  0  0  0  0  0  0  0
   40.0230   37.1260   41.0790 F   0  0  0  0  0  0  0  0  0  0  0  0
   38.8790   35.6590   39.7400 F   0  0  0  0  0  0  0  0  0  0  0  0
   40.8820   36.4970   39.0890 F   0  0  0  0  0  0  0  0  0  0  0  0
   36.5032   31.9691   40.3411 H   0  0  0  0  0  0  0  0  0  0  0  0
   35.3178   30.1088   41.6586 H   0  0  0  0  0  0  0  0  0  0  0  0
   35.9607   27.9425   43.2322 H   0  0  0  0  0  0  0  0  0  0  0  0
   37.9482   26.7114   44.1560 H   0  0  0  0  0  0  0  0  0  0  0  0
   40.1845   27.4789   43.6515 H   0  0  0  0  0  0  0  0  0  0  0  0
   40.6239   29.4550   42.2397 H   0  0  0  0  0  0  0  0  0  0  0  0
   41.9315   31.3024   38.3703 H   0  0  0  0  0  0  0  0  0  0  0  0
   42.6575   34.9353   39.3068 H   0  0  0  0  0  0  0  0  0  0  0  0
   41.6555   34.7842   37.1800 H   0  0  0  0  0  0  0  0  0  0  0  0
   43.4062   34.4665   36.9339 H   0  0  0  0  0  0  0  0  0  0  0  0
   42.2372   33.1026   36.9339 H   0  0  0  0  0  0  0  0  0  0  0  0
   44.0909   33.2543   40.3275 H   0  0  0  0  0  0  0  0  0  0  0  0
   44.0445   32.2844   38.8162 H   0  0  0  0  0  0  0  0  0  0  0  0
   44.8056   33.9115   38.8162 H   0  0  0  0  0  0  0  0  0  0  0  0
  1  9  1  0
  2  1  2  0
  2  3  1  0
  3  4  1  0
  4  5  2  0
  5  6  1  0
  7  6  2  0
  8  7  1  0
  9  4  1  0
  9  8  2  0
 10 11  2  0
 10 15  1  0
 11 12  1  0
 12 19  1  0
 12 13  2  0
 14 13  1  0
 14  1  1  0
 15 14  2  0
 16 18  1  0
 16 11  1  0
 17 16  1  0
 20 19  1  0
 20 21  1  0
 22 20  1  0
 23 20  1  0
  2 24  1  0
  3 25  1  0
  5 26  1  0
  6 27  1  0
  7 28  1  0
  8 29  1  0
 10 30  1  0
 16 31  1  0
 17 32  1  0
 17 33  1  0
 17 34  1  0
 18 35  1  0
 18 36  1  0
 18 37  1  0
M  ISO  8  24  14  25   9  26  14  27  14  28  14  29  14  30  14  31   8
M  ISO  6  32   8  33   8  34   8  35   8  36   8  37   8
M  END
>  <minimizedAffinity>  (1) 
-6.23507357

>  <minimizedRMSD>  (1) 
1.66476786

$$$$
