
     RDKit          3D

 40 43  0  0  0  0  0  0  0  0999 V2000
   40.9850   31.3640   39.1010 C   0  0  0  0  0  0  0  0  0  0  0  0
   41.3140   32.6980   39.4700 C   0  0  0  0  0  0  0  0  0  0  0  0
   40.5000   33.3410   40.4270 C   0  0  0  0  0  0  0  0  0  0  0  0
   39.4370   32.6610   40.9540 N   0  0  0  0  0  0  0  0  0  0  0  0
   39.1620   31.3910   40.5720 C   0  0  0  0  0  0  0  0  0  0  0  0
   39.9290   30.7510   39.6540 N   0  0  0  0  0  0  0  0  0  0  0  0
   38.0310   30.6670   41.1330 C   0  0  0  0  0  0  0  0  0  0  0  0
   36.6670   30.9480   40.9400 C   0  0  0  0  0  0  0  0  0  0  0  0
   35.9850   30.0350   41.6370 N   0  0  0  0  0  0  0  0  0  0  0  0
   36.8080   29.1770   42.2710 C   0  0  0  0  0  0  0  0  0  0  0  0
   36.5310   28.1010   43.0860 C   0  0  0  0  0  0  0  0  0  0  0  0
   37.5890   27.3930   43.6050 C   0  0  0  0  0  0  0  0  0  0  0  0
   38.8710   27.7440   43.3240 C   0  0  0  0  0  0  0  0  0  0  0  0
   39.1580   28.8220   42.5070 C   0  0  0  0  0  0  0  0  0  0  0  0
   38.0950   29.5590   41.9670 C   0  0  0  0  0  0  0  0  0  0  0  0
   42.4080   33.4270   38.9410 N   0  0  0  0  0  0  0  0  0  0  0  0
   42.5800   33.9740   37.6130 C   0  0  0  0  0  0  0  0  0  0  0  0
   44.0450   34.2890   37.4920 C   0  0  0  0  0  0  0  0  0  0  0  0
   44.7310   33.7150   38.7100 C   0  0  0  0  0  0  0  0  0  0  0  0
   43.6090   33.7540   39.7240 C   0  0  0  0  0  0  0  0  0  0  0  0
   40.7580   34.6290   40.8320 O   0  0  0  0  0  0  0  0  0  0  0  0
   40.0510   35.6990   40.2650 C   0  0  0  0  0  0  0  0  0  0  0  0
   39.9140   36.6880   41.2120 F   0  0  0  0  0  0  0  0  0  0  0  0
   38.7970   35.2910   39.8090 F   0  0  0  0  0  0  0  0  0  0  0  0
   40.7900   36.1600   39.1990 F   0  0  0  0  0  0  0  0  0  0  0  0
   41.5997   30.8335   38.3589 H   0  0  0  0  0  0  0  0  0  0  0  0
   36.2436   31.7617   40.3329 H   0  0  0  0  0  0  0  0  0  0  0  0
   34.9570   29.9922   41.6840 H   0  0  0  0  0  0  0  0  0  0  0  0
   35.4933   27.8167   43.3147 H   0  0  0  0  0  0  0  0  0  0  0  0
   37.3946   26.5292   44.2577 H   0  0  0  0  0  0  0  0  0  0  0  0
   39.6970   27.1591   43.7549 H   0  0  0  0  0  0  0  0  0  0  0  0
   40.2000   29.0958   42.2852 H   0  0  0  0  0  0  0  0  0  0  0  0
   42.2816   33.2372   36.8527 H   0  0  0  0  0  0  0  0  0  0  0  0
   41.9574   34.8673   37.4570 H   0  0  0  0  0  0  0  0  0  0  0  0
   44.4541   33.8315   36.5791 H   0  0  0  0  0  0  0  0  0  0  0  0
   44.2056   35.3755   37.4308 H   0  0  0  0  0  0  0  0  0  0  0  0
   45.0769   32.6863   38.5307 H   0  0  0  0  0  0  0  0  0  0  0  0
   45.6364   34.2591   39.0169 H   0  0  0  0  0  0  0  0  0  0  0  0
   43.5224   34.7546   40.1726 H   0  0  0  0  0  0  0  0  0  0  0  0
   43.7708   33.0580   40.5603 H   0  0  0  0  0  0  0  0  0  0  0  0
  1  2  2  0
  1  6  1  0
  2  3  1  0
  3 21  1  0
  3  4  2  0
  5  4  1  0
  5  7  1  0
  6  5  2  0
  7 15  1  0
  8  7  2  0
  8  9  1  0
  9 10  1  0
 10 11  2  0
 11 12  1  0
 13 12  2  0
 14 13  1  0
 15 10  1  0
 15 14  2  0
 16  2  1  0
 16 20  1  0
 17 16  1  0
 18 17  1  0
 18 19  1  0
 19 20  1  0
 22 21  1  0
 22 23  1  0
 24 22  1  0
 25 22  1  0
  1 26  1  0
  8 27  1  0
  9 28  1  0
 11 29  1  0
 12 30  1  0
 13 31  1  0
 14 32  1  0
 17 33  1  0
 17 34  1  0
 18 35  1  0
 18 36  1  0
 19 37  1  0
 19 38  1  0
 20 39  1  0
 20 40  1  0
M  ISO  8  26  14  27  14  28   9  29  14  30  14  31  14  32  14  33  13
M  ISO  7  34  13  35  13  36  13  37  13  38  13  39  13  40  13
M  END
>  <minimizedAffinity>  (1) 
-6.146348

>  <minimizedRMSD>  (1) 
1.9382993

$$$$
