
     RDKit          3D

 29 31  0  0  0  0  0  0  0  0999 V2000
   38.1230   30.4910   41.0520 C   0  0  0  0  0  0  0  0  0  0  0  0
   36.7210   30.6300   41.1270 C   0  0  0  0  0  0  0  0  0  0  0  0
   36.2920   29.7260   42.0070 N   0  0  0  0  0  0  0  0  0  0  0  0
   37.3070   29.0000   42.5180 C   0  0  0  0  0  0  0  0  0  0  0  0
   37.3180   27.9780   43.4420 C   0  0  0  0  0  0  0  0  0  0  0  0
   38.5230   27.4050   43.7870 C   0  0  0  0  0  0  0  0  0  0  0  0
   39.6640   27.8520   43.2190 C   0  0  0  0  0  0  0  0  0  0  0  0
   39.6870   28.8770   42.2870 C   0  0  0  0  0  0  0  0  0  0  0  0
   38.4710   29.4610   41.9340 C   0  0  0  0  0  0  0  0  0  0  0  0
   40.5410   31.2590   38.4280 C   0  0  0  0  0  0  0  0  0  0  0  0
   40.7770   32.6550   38.6300 C   0  0  0  0  0  0  0  0  0  0  0  0
   40.0990   33.3000   39.6660 C   0  0  0  0  0  0  0  0  0  0  0  0
   39.2340   32.5850   40.4530 N   0  0  0  0  0  0  0  0  0  0  0  0
   39.0420   31.2620   40.2210 C   0  0  0  0  0  0  0  0  0  0  0  0
   39.6790   30.6090   39.2330 N   0  0  0  0  0  0  0  0  0  0  0  0
   41.9020   33.5630   37.6010 S   0  0  0  0  0  0  0  0  0  0  0  0
   40.2740   34.6410   39.9210 O   0  0  0  0  0  0  0  0  0  0  0  0
   39.2030   35.4590   40.2600 C   0  0  0  0  0  0  0  0  0  0  0  0
   39.4650   36.7400   39.8570 F   0  0  0  0  0  0  0  0  0  0  0  0
   38.9380   35.4160   41.6310 F   0  0  0  0  0  0  0  0  0  0  0  0
   38.0940   34.9640   39.5770 F   0  0  0  0  0  0  0  0  0  0  0  0
   36.1017   31.3463   40.5672 H   0  0  0  0  0  0  0  0  0  0  0  0
   35.3034   29.5972   42.2659 H   0  0  0  0  0  0  0  0  0  0  0  0
   36.3806   27.6253   43.8968 H   0  0  0  0  0  0  0  0  0  0  0  0
   38.5554   26.5871   44.5218 H   0  0  0  0  0  0  0  0  0  0  0  0
   40.6155   27.3823   43.5087 H   0  0  0  0  0  0  0  0  0  0  0  0
   40.6326   29.2185   41.8406 H   0  0  0  0  0  0  0  0  0  0  0  0
   41.0596   30.7203   37.6213 H   0  0  0  0  0  0  0  0  0  0  0  0
   42.7744   34.2671   38.3885 H   0  0  0  0  0  0  0  0  0  0  0  0
  1  2  2  0
  1  9  1  0
  2  3  1  0
  3  4  1  0
  4  5  2  0
  5  6  1  0
  7  6  2  0
  8  7  1  0
  9  8  2  0
  9  4  1  0
 10 11  2  0
 10 15  1  0
 11 12  1  0
 12 17  1  0
 12 13  2  0
 14 13  1  0
 14  1  1  0
 15 14  2  0
 16 11  1  0
 17 18  1  0
 18 20  1  0
 19 18  1  0
 21 18  1  0
  2 22  1  0
  3 23  1  0
  5 24  1  0
  6 25  1  0
  7 26  1  0
  8 27  1  0
 10 28  1  0
 16 29  1  0
M  ISO  8  22  14  23   9  24  14  25  14  26  14  27  14  28  14  29  11
M  END
>  <minimizedAffinity>  (1) 
-6.13617659

>  <minimizedRMSD>  (1) 
0.536515534

$$$$
