
     RDKit          3D

 20 21  0  0  0  0  0  0  0  0999 V2000
   37.9920   30.1600   41.3410 C   0  0  0  0  0  0  0  0  0  0  0  0
   39.2130   30.7990   41.6730 C   0  0  0  0  0  0  0  0  0  0  0  0
   39.3670   32.1370   41.3080 C   0  0  0  0  0  0  0  0  0  0  0  0
   38.3480   32.7540   40.6590 N   0  0  0  0  0  0  0  0  0  0  0  0
   37.1900   32.1230   40.3530 C   0  0  0  0  0  0  0  0  0  0  0  0
   37.0200   30.8390   40.6930 N   0  0  0  0  0  0  0  0  0  0  0  0
   37.6810   28.8050   41.6430 N   0  0  0  0  0  0  0  0  0  0  0  0
   37.1060   28.4330   42.7790 C   0  0  0  0  0  0  0  0  0  0  0  0
   36.7990   27.1220   43.0840 C   0  0  0  0  0  0  0  0  0  0  0  0
   37.0950   26.1070   42.1750 C   0  0  0  0  0  0  0  0  0  0  0  0
   36.8360   24.9100   42.4090 O   0  0  0  0  0  0  0  0  0  0  0  0
   37.6830   26.5350   41.0260 N   0  0  0  0  0  0  0  0  0  0  0  0
   37.9650   27.8240   40.7680 C   0  0  0  0  0  0  0  0  0  0  0  0
   38.5120   28.1200   39.6720 O   0  0  0  0  0  0  0  0  0  0  0  0
   40.0124   30.2582   42.2007 H   0  0  0  0  0  0  0  0  0  0  0  0
   40.2948   32.6798   41.5415 H   0  0  0  0  0  0  0  0  0  0  0  0
   36.3902   32.6640   39.8261 H   0  0  0  0  0  0  0  0  0  0  0  0
   36.8607   29.2105   43.5174 H   0  0  0  0  0  0  0  0  0  0  0  0
   36.3209   26.8782   44.0442 H   0  0  0  0  0  0  0  0  0  0  0  0
   37.9260   25.8322   40.3133 H   0  0  0  0  0  0  0  0  0  0  0  0
  1  7  1  0
  1  2  2  0
  3  2  1  0
  4  3  2  0
  5  4  1  0
  5  6  2  0
  6  1  1  0
  7  8  1  0
  8  9  2  0
 10 11  2  0
 10  9  1  0
 12 10  1  0
 13 12  1  0
 13  7  1  0
 14 13  2  0
  2 15  1  0
  3 16  1  0
  5 17  1  0
  8 18  1  0
  9 19  1  0
 12 20  1  0
M  ISO  6  15  14  16  14  17  14  18  14  19  14  20   9
M  END
>  <minimizedAffinity>  (1) 
-3.92407799

>  <minimizedRMSD>  (1) 
5.24952507

$$$$
