
     RDKit          3D

 26 27  0  0  1  0  0  0  0  0999 V2000
   37.7010   26.1750   42.4950 C   0  0  1  0  0  0  0  0  0  0  0  0
   38.7520   25.0800   42.6660 C   0  0  0  0  0  0  0  0  0  0  0  0
   39.9220   25.7640   43.3040 C   0  0  0  0  0  0  0  0  0  0  0  0
   39.3010   26.9620   43.9680 C   0  0  0  0  0  0  0  0  0  0  0  0
   38.3670   27.4500   42.8800 C   0  0  2  0  0  0  0  0  0  0  0  0
   36.2850   27.2210   39.1360 C   0  0  0  0  0  0  0  0  0  0  0  0
   36.8430   27.3280   40.4130 C   0  0  0  0  0  0  0  0  0  0  0  0
   37.1060   26.1710   41.1580 C   0  0  0  0  0  0  0  0  0  0  0  0
   36.8010   24.9890   40.5930 N   0  0  0  0  0  0  0  0  0  0  0  0
   36.2650   24.8850   39.3640 C   0  0  0  0  0  0  0  0  0  0  0  0
   36.0080   25.9960   38.6400 N   0  0  0  0  0  0  0  0  0  0  0  0
   37.3430   28.2710   43.6060 C   0  0  0  0  0  0  0  0  0  0  0  0
   36.7880   27.8060   44.6370 O   0  0  0  0  0  0  0  0  0  0  0  0
   37.0240   29.5350   43.1230 O   0  0  0  0  0  0  0  0  0  0  0  0
   36.8288   26.0115   43.1450 H   0  0  0  0  0  0  0  0  0  0  0  0
   38.3722   24.2771   43.3149 H   0  0  0  0  0  0  0  0  0  0  0  0
   39.0194   24.6099   41.7081 H   0  0  0  0  0  0  0  0  0  0  0  0
   40.4057   25.1096   44.0441 H   0  0  0  0  0  0  0  0  0  0  0  0
   40.7103   26.0304   42.5845 H   0  0  0  0  0  0  0  0  0  0  0  0
   38.7488   26.6785   44.8761 H   0  0  0  0  0  0  0  0  0  0  0  0
   40.0262   27.7144   44.3115 H   0  0  0  0  0  0  0  0  0  0  0  0
   38.8202   28.0071   42.0468 H   0  0  0  0  0  0  0  0  0  0  0  0
   36.0742   28.1230   38.5427 H   0  0  0  0  0  0  0  0  0  0  0  0
   37.0751   28.3182   40.8321 H   0  0  0  0  0  0  0  0  0  0  0  0
   36.0354   23.8931   38.9475 H   0  0  0  0  0  0  0  0  0  0  0  0
   36.3500   30.0884   43.5916 H   0  0  0  0  0  0  0  0  0  0  0  0
  1  2  1  0
  1  5  1  0
  2  3  1  0
  3  4  1  0
  5 12  1  0
  5  4  1  0
  6  7  2  0
  7  8  1  0
  8  1  1  0
  9  8  2  0
 10  9  1  0
 11  6  1  0
 11 10  2  0
 12 13  2  0
 14 12  1  0
  1 15  1  1
  2 16  1  0
  2 17  1  0
  3 18  1  0
  3 19  1  0
  4 20  1  0
  4 21  1  0
  5 22  1  6
  6 23  1  0
  7 24  1  0
 10 25  1  0
 14 26  1  0
M  ISO  8  15  13  16  13  17  13  18  13  19  13  20  13  21  13  22  13
M  ISO  4  23  14  24  14  25  14  26   3
M  END
>  <minimizedAffinity>  (1) 
-4.4408741

>  <minimizedRMSD>  (1) 
4.49768877

$$$$
