
     RDKit          3D

 36 39  0  0  0  0  0  0  0  0999 V2000
   37.6810   28.9650   41.6580 N   0  0  0  0  0  0  0  0  0  0  0  0
   37.0320   28.6190   42.7530 C   0  0  0  0  0  0  0  0  0  0  0  0
   36.7390   27.3150   43.0950 C   0  0  0  0  0  0  0  0  0  0  0  0
   37.1350   26.2780   42.2620 C   0  0  0  0  0  0  0  0  0  0  0  0
   36.9060   25.0770   42.5040 O   0  0  0  0  0  0  0  0  0  0  0  0
   37.7970   26.6720   41.1520 N   0  0  0  0  0  0  0  0  0  0  0  0
   38.0710   27.9570   40.8390 C   0  0  0  0  0  0  0  0  0  0  0  0
   38.6930   28.2280   39.7850 O   0  0  0  0  0  0  0  0  0  0  0  0
   38.2540   25.6710   40.2170 C   0  0  0  0  0  0  0  0  0  0  0  0
   39.5320   25.2190   40.4740 C   0  0  0  0  0  0  0  0  0  0  0  0
   40.0660   24.2460   39.6230 C   0  0  0  0  0  0  0  0  0  0  0  0
   39.2960   23.7750   38.5590 C   0  0  0  0  0  0  0  0  0  0  0  0
   38.0070   24.2770   38.3550 C   0  0  0  0  0  0  0  0  0  0  0  0
   37.2490   23.7930   37.2830 C   0  0  0  0  0  0  0  0  0  0  0  0
   35.9800   24.3220   37.1250 C   0  0  0  0  0  0  0  0  0  0  0  0
   35.4170   25.2830   37.9450 C   0  0  0  0  0  0  0  0  0  0  0  0
   36.1910   25.7530   39.0090 C   0  0  0  0  0  0  0  0  0  0  0  0
   37.4580   25.2360   39.1810 C   0  0  0  0  0  0  0  0  0  0  0  0
   37.9770   30.3240   41.3190 C   0  0  0  0  0  0  0  0  0  0  0  0
   39.1700   30.9870   41.6590 C   0  0  0  0  0  0  0  0  0  0  0  0
   39.3180   32.3180   41.2590 C   0  0  0  0  0  0  0  0  0  0  0  0
   38.3130   32.8990   40.5690 N   0  0  0  0  0  0  0  0  0  0  0  0
   37.1740   32.2380   40.2530 C   0  0  0  0  0  0  0  0  0  0  0  0
   37.0170   30.9620   40.6290 N   0  0  0  0  0  0  0  0  0  0  0  0
   36.7048   29.4182   43.4344 H   0  0  0  0  0  0  0  0  0  0  0  0
   36.1932   27.0979   44.0250 H   0  0  0  0  0  0  0  0  0  0  0  0
   40.1127   25.6116   41.3217 H   0  0  0  0  0  0  0  0  0  0  0  0
   41.0811   23.8566   39.7905 H   0  0  0  0  0  0  0  0  0  0  0  0
   39.7025   23.0097   37.8815 H   0  0  0  0  0  0  0  0  0  0  0  0
   37.6433   23.0279   36.5980 H   0  0  0  0  0  0  0  0  0  0  0  0
   35.3743   23.9507   36.2852 H   0  0  0  0  0  0  0  0  0  0  0  0
   34.4000   25.6623   37.7665 H   0  0  0  0  0  0  0  0  0  0  0  0
   35.7985   26.5186   39.6945 H   0  0  0  0  0  0  0  0  0  0  0  0
   39.9627   30.4734   42.2228 H   0  0  0  0  0  0  0  0  0  0  0  0
   40.2324   32.8796   41.5008 H   0  0  0  0  0  0  0  0  0  0  0  0
   36.3794   32.7480   39.6887 H   0  0  0  0  0  0  0  0  0  0  0  0
  1  2  1  0
  2  3  2  0
  4  5  2  0
  4  3  1  0
  6  4  1  0
  7  6  1  0
  7  1  1  0
  8  7  2  0
  9 10  2  0
  9  6  1  0
 11 10  1  0
 12 11  2  0
 13 12  1  0
 13 18  2  0
 14 13  1  0
 15 14  2  0
 15 16  1  0
 16 17  2  0
 17 18  1  0
 18  9  1  0
 19  1  1  0
 19 20  2  0
 21 20  1  0
 22 21  2  0
 23 22  1  0
 23 24  2  0
 24 19  1  0
  2 25  1  0
  3 26  1  0
 10 27  1  0
 11 28  1  0
 12 29  1  0
 14 30  1  0
 15 31  1  0
 16 32  1  0
 17 33  1  0
 20 34  1  0
 21 35  1  0
 23 36  1  0
M  ISO  8  25  14  26  14  27  14  28  14  29  14  30  14  31  14  32  14
M  ISO  4  33  14  34  14  35  14  36  14
M  END
>  <minimizedAffinity>  (1) 
-5.17976618

>  <minimizedRMSD>  (1) 
1.44651926

$$$$
