
     RDKit          3D

 34 37  0  0  0  0  0  0  0  0999 V2000
   37.7040   28.9690   41.7220 N   0  0  0  0  0  0  0  0  0  0  0  0
   37.0870   28.6260   42.8370 C   0  0  0  0  0  0  0  0  0  0  0  0
   36.7630   27.3300   43.1770 C   0  0  0  0  0  0  0  0  0  0  0  0
   37.0930   26.2920   42.3180 C   0  0  0  0  0  0  0  0  0  0  0  0
   36.8310   25.0990   42.5620 O   0  0  0  0  0  0  0  0  0  0  0  0
   37.7220   26.6840   41.1890 N   0  0  0  0  0  0  0  0  0  0  0  0
   38.0200   27.9660   40.8950 C   0  0  0  0  0  0  0  0  0  0  0  0
   38.6130   28.2220   39.8080 O   0  0  0  0  0  0  0  0  0  0  0  0
   38.1060   25.6780   40.2320 C   0  0  0  0  0  0  0  0  0  0  0  0
   39.3100   24.9960   40.2770 C   0  0  0  0  0  0  0  0  0  0  0  0
   39.2870   24.1440   39.2120 N   0  0  0  0  0  0  0  0  0  0  0  0
   38.1330   24.2780   38.5290 C   0  0  0  0  0  0  0  0  0  0  0  0
   37.6220   23.6620   37.3950 C   0  0  0  0  0  0  0  0  0  0  0  0
   36.3740   24.0330   36.9360 C   0  0  0  0  0  0  0  0  0  0  0  0
   35.6140   24.9990   37.5660 C   0  0  0  0  0  0  0  0  0  0  0  0
   36.0950   25.6430   38.7120 C   0  0  0  0  0  0  0  0  0  0  0  0
   37.3590   25.2410   39.1450 C   0  0  0  0  0  0  0  0  0  0  0  0
   38.0280   30.3140   41.3880 C   0  0  0  0  0  0  0  0  0  0  0  0
   39.2600   30.9500   41.7250 C   0  0  0  0  0  0  0  0  0  0  0  0
   39.4340   32.2720   41.3310 C   0  0  0  0  0  0  0  0  0  0  0  0
   38.4350   32.8860   40.6490 N   0  0  0  0  0  0  0  0  0  0  0  0
   37.2800   32.2550   40.3450 C   0  0  0  0  0  0  0  0  0  0  0  0
   37.0820   30.9800   40.7130 N   0  0  0  0  0  0  0  0  0  0  0  0
   36.8136   29.4261   43.5406 H   0  0  0  0  0  0  0  0  0  0  0  0
   36.2454   27.1200   44.1246 H   0  0  0  0  0  0  0  0  0  0  0  0
   40.1157   25.1160   41.0162 H   0  0  0  0  0  0  0  0  0  0  0  0
   40.0442   23.4909   38.9649 H   0  0  0  0  0  0  0  0  0  0  0  0
   38.2029   22.8896   36.8697 H   0  0  0  0  0  0  0  0  0  0  0  0
   35.9710   23.5424   36.0377 H   0  0  0  0  0  0  0  0  0  0  0  0
   34.6247   25.2639   37.1647 H   0  0  0  0  0  0  0  0  0  0  0  0
   35.5143   26.4157   39.2370 H   0  0  0  0  0  0  0  0  0  0  0  0
   40.0451   30.4129   42.2775 H   0  0  0  0  0  0  0  0  0  0  0  0
   40.3639   32.8097   41.5678 H   0  0  0  0  0  0  0  0  0  0  0  0
   36.4952   32.7909   39.7911 H   0  0  0  0  0  0  0  0  0  0  0  0
  1  2  1  0
  2  3  2  0
  4  5  2  0
  4  3  1  0
  6  4  1  0
  7  6  1  0
  7  1  1  0
  8  7  2  0
  9 10  2  0
  9  6  1  0
 11 10  1  0
 12 17  2  0
 12 11  1  0
 13 12  1  0
 14 13  2  0
 14 15  1  0
 15 16  2  0
 16 17  1  0
 17  9  1  0
 18  1  1  0
 18 19  2  0
 20 19  1  0
 21 20  2  0
 22 21  1  0
 22 23  2  0
 23 18  1  0
  2 24  1  0
  3 25  1  0
 10 26  1  0
 11 27  1  0
 13 28  1  0
 14 29  1  0
 15 30  1  0
 16 31  1  0
 19 32  1  0
 20 33  1  0
 22 34  1  0
M  ISO  8  24  14  25  14  26  14  27   9  28  14  29  14  30  14  31  14
M  ISO  3  32  14  33  14  34  14
M  END
>  <minimizedAffinity>  (1) 
-4.96104717

>  <minimizedRMSD>  (1) 
1.2583189

$$$$
