
     RDKit          3D

 31 34  0  0  0  0  0  0  0  0999 V2000
   37.8370   29.5870   41.5980 N   0  0  0  0  0  0  0  0  0  0  0  0
   37.5290   29.3220   42.8690 C   0  0  0  0  0  0  0  0  0  0  0  0
   37.1690   28.0660   43.3230 C   0  0  0  0  0  0  0  0  0  0  0  0
   37.1190   26.9970   42.4230 C   0  0  0  0  0  0  0  0  0  0  0  0
   36.8000   25.8490   42.7930 O   0  0  0  0  0  0  0  0  0  0  0  0
   37.4400   27.3110   41.1450 N   0  0  0  0  0  0  0  0  0  0  0  0
   37.7850   28.5530   40.7480 C   0  0  0  0  0  0  0  0  0  0  0  0
   38.0640   28.7430   39.5430 O   0  0  0  0  0  0  0  0  0  0  0  0
   39.7850   24.0040   38.9430 N   0  0  0  0  0  0  0  0  0  0  0  0
   40.5640   24.6640   39.8470 C   0  0  0  0  0  0  0  0  0  0  0  0
   39.8280   25.6180   40.4610 N   0  0  0  0  0  0  0  0  0  0  0  0
   38.5860   25.5690   39.9520 C   0  0  0  0  0  0  0  0  0  0  0  0
   37.4120   26.2720   40.1670 C   0  0  0  0  0  0  0  0  0  0  0  0
   36.3040   25.9420   39.4480 N   0  0  0  0  0  0  0  0  0  0  0  0
   36.3360   24.9480   38.5340 C   0  0  0  0  0  0  0  0  0  0  0  0
   37.4580   24.2140   38.2710 N   0  0  0  0  0  0  0  0  0  0  0  0
   38.5560   24.5630   39.0050 C   0  0  0  0  0  0  0  0  0  0  0  0
   38.2020   30.8790   41.1550 C   0  0  0  0  0  0  0  0  0  0  0  0
   39.4960   31.4380   41.2810 C   0  0  0  0  0  0  0  0  0  0  0  0
   39.6970   32.7310   40.7920 C   0  0  0  0  0  0  0  0  0  0  0  0
   38.6510   33.3850   40.2240 N   0  0  0  0  0  0  0  0  0  0  0  0
   37.4290   32.8290   40.1170 C   0  0  0  0  0  0  0  0  0  0  0  0
   37.2140   31.5920   40.5780 N   0  0  0  0  0  0  0  0  0  0  0  0
   37.5633   30.1474   43.5953 H   0  0  0  0  0  0  0  0  0  0  0  0
   36.9239   27.9093   44.3838 H   0  0  0  0  0  0  0  0  0  0  0  0
   40.0770   23.2288   38.3309 H   0  0  0  0  0  0  0  0  0  0  0  0
   41.6252   24.4533   40.0457 H   0  0  0  0  0  0  0  0  0  0  0  0
   35.4164   24.7189   37.9757 H   0  0  0  0  0  0  0  0  0  0  0  0
   40.3161   30.8732   41.7484 H   0  0  0  0  0  0  0  0  0  0  0  0
   40.6842   33.2106   40.8656 H   0  0  0  0  0  0  0  0  0  0  0  0
   36.6075   33.3924   39.6503 H   0  0  0  0  0  0  0  0  0  0  0  0
  1  2  1  0
  2  3  2  0
  4  5  2  0
  4  3  1  0
  6  4  1  0
  7  6  1  0
  7  1  1  0
  8  7  2  0
  9 17  1  0
  9 10  1  0
 10 11  2  0
 12 13  2  0
 12 11  1  0
 13  6  1  0
 14 13  1  0
 15 14  2  0
 16 15  1  0
 16 17  2  0
 17 12  1  0
 18 19  2  0
 18  1  1  0
 20 19  1  0
 21 20  2  0
 22 21  1  0
 22 23  2  0
 23 18  1  0
  2 24  1  0
  3 25  1  0
  9 26  1  0
 10 27  1  0
 15 28  1  0
 19 29  1  0
 20 30  1  0
 22 31  1  0
M  ISO  8  24  14  25  14  26   9  27  14  28  14  29  14  30  14  31  14
M  END
>  <minimizedAffinity>  (1) 
-4.91656685

>  <minimizedRMSD>  (1) 
1.55177677

$$$$
