
     RDKit          3D

 27 29  0  0  0  0  0  0  0  0999 V2000
   37.5850   28.9220   41.6970 N   0  0  0  0  0  0  0  0  0  0  0  0
   37.1590   28.5690   42.8950 C   0  0  0  0  0  0  0  0  0  0  0  0
   36.8510   27.2790   43.2630 C   0  0  0  0  0  0  0  0  0  0  0  0
   36.9880   26.2480   42.3320 C   0  0  0  0  0  0  0  0  0  0  0  0
   36.7270   25.0630   42.6020 O   0  0  0  0  0  0  0  0  0  0  0  0
   37.4300   26.6460   41.1030 N   0  0  0  0  0  0  0  0  0  0  0  0
   37.7150   27.9240   40.8030 C   0  0  0  0  0  0  0  0  0  0  0  0
   38.1200   28.1960   39.6300 O   0  0  0  0  0  0  0  0  0  0  0  0
   38.1830   23.9990   38.7870 N   0  0  0  0  0  0  0  0  0  0  0  0
   38.5920   24.7870   39.7920 N   0  0  0  0  0  0  0  0  0  0  0  0
   37.5790   25.6160   40.1300 C   0  0  0  0  0  0  0  0  0  0  0  0
   36.4890   25.3360   39.3020 C   0  0  0  0  0  0  0  0  0  0  0  0
   36.8940   24.3060   38.4570 C   0  0  0  0  0  0  0  0  0  0  0  0
   37.8950   30.2540   41.3390 C   0  0  0  0  0  0  0  0  0  0  0  0
   39.1340   30.8990   41.6170 C   0  0  0  0  0  0  0  0  0  0  0  0
   39.2900   32.2160   41.2010 C   0  0  0  0  0  0  0  0  0  0  0  0
   38.2640   32.8260   40.5540 N   0  0  0  0  0  0  0  0  0  0  0  0
   37.0960   32.1930   40.3040 C   0  0  0  0  0  0  0  0  0  0  0  0
   36.9070   30.9230   40.6880 N   0  0  0  0  0  0  0  0  0  0  0  0
   37.0421   29.3595   43.6510 H   0  0  0  0  0  0  0  0  0  0  0  0
   36.4997   27.0622   44.2826 H   0  0  0  0  0  0  0  0  0  0  0  0
   38.7545   23.2723   38.3328 H   0  0  0  0  0  0  0  0  0  0  0  0
   35.5066   25.8307   39.3150 H   0  0  0  0  0  0  0  0  0  0  0  0
   36.2893   23.8293   37.6714 H   0  0  0  0  0  0  0  0  0  0  0  0
   39.9423   30.3713   42.1445 H   0  0  0  0  0  0  0  0  0  0  0  0
   40.2294   32.7553   41.3928 H   0  0  0  0  0  0  0  0  0  0  0  0
   36.2905   32.7271   39.7787 H   0  0  0  0  0  0  0  0  0  0  0  0
  1  2  1  0
  2  3  2  0
  4  5  2  0
  4  3  1  0
  6  4  1  0
  7  6  1  0
  7  1  1  0
  8  7  2  0
  9 10  1  0
 10 11  2  0
 11  6  1  0
 12 11  1  0
 13  9  1  0
 13 12  2  0
 14 15  2  0
 14  1  1  0
 16 15  1  0
 17 16  2  0
 18 17  1  0
 18 19  2  0
 19 14  1  0
  2 20  1  0
  3 21  1  0
  9 22  1  0
 12 23  1  0
 13 24  1  0
 15 25  1  0
 16 26  1  0
 18 27  1  0
M  ISO  8  20  14  21  14  22   9  23  14  24  14  25  14  26  14  27  14
M  END
>  <minimizedAffinity>  (1) 
-4.75758457

>  <minimizedRMSD>  (1) 
0.359238237

$$$$
