
     RDKit          3D

 25 26  0  0  1  0  0  0  0  0999 V2000
   37.0090   28.8590   42.2660 C   0  0  1  0  0  0  0  0  0  0  0  0
   37.0190   27.7950   41.1660 C   0  0  0  0  0  0  0  0  0  0  0  0
   37.1750   26.4940   41.8930 C   0  0  0  0  0  0  0  0  0  0  0  0
   36.6060   26.8180   43.2640 C   0  0  0  0  0  0  0  0  0  0  0  0
   37.3330   28.1310   43.5330 C   0  0  2  0  0  0  0  0  0  0  0  0
   39.9110   31.2870   42.1750 C   0  0  0  0  0  0  0  0  0  0  0  0
   39.1500   30.1740   42.5590 C   0  0  0  0  0  0  0  0  0  0  0  0
   37.8880   29.9870   41.9640 C   0  0  0  0  0  0  0  0  0  0  0  0
   37.4770   30.8910   41.0540 N   0  0  0  0  0  0  0  0  0  0  0  0
   38.2140   31.9530   40.6950 C   0  0  0  0  0  0  0  0  0  0  0  0
   39.4250   32.1510   41.2520 N   0  0  0  0  0  0  0  0  0  0  0  0
   36.6650   28.7050   44.6880 N   0  0  0  0  0  0  0  0  0  0  0  0
   36.0276   29.3469   42.3599 H   0  0  0  0  0  0  0  0  0  0  0  0
   37.8613   27.9575   40.4774 H   0  0  0  0  0  0  0  0  0  0  0  0
   36.1052   27.8217   40.5543 H   0  0  0  0  0  0  0  0  0  0  0  0
   36.6020   25.6929   41.4032 H   0  0  0  0  0  0  0  0  0  0  0  0
   38.2118   26.1276   41.9221 H   0  0  0  0  0  0  0  0  0  0  0  0
   35.5146   26.9517   43.2344 H   0  0  0  0  0  0  0  0  0  0  0  0
   36.7488   26.0384   44.0268 H   0  0  0  0  0  0  0  0  0  0  0  0
   38.4120   28.1119   43.7461 H   0  0  0  0  0  0  0  0  0  0  0  0
   40.9011   31.4583   42.6225 H   0  0  0  0  0  0  0  0  0  0  0  0
   39.5301   29.4634   43.3077 H   0  0  0  0  0  0  0  0  0  0  0  0
   37.8300   32.6617   39.9465 H   0  0  0  0  0  0  0  0  0  0  0  0
   37.0928   28.3374   45.5498 H   0  0  0  0  0  0  0  0  0  0  0  0
   36.7624   29.7302   44.6666 H   0  0  0  0  0  0  0  0  0  0  0  0
  1  5  1  0
  2  3  1  0
  2  1  1  0
  3  4  1  0
  4  5  1  0
  5 12  1  0
  6  7  2  0
  8  1  1  0
  8  7  1  0
  9  8  2  0
 10  9  1  0
 10 11  2  0
 11  6  1  0
  1 13  1  1
  2 14  1  0
  2 15  1  0
  3 16  1  0
  3 17  1  0
  4 18  1  0
  4 19  1  0
  5 20  1  1
  6 21  1  0
  7 22  1  0
 10 23  1  0
 12 24  1  0
 12 25  1  0
M  ISO  8  13  13  14  13  15  13  16  13  17  13  18  13  19  13  20  13
M  ISO  5  21  14  22  14  23  14  24   5  25   5
M  END
>  <minimizedAffinity>  (1) 
-4.42850351

>  <minimizedRMSD>  (1) 
0.421803594

$$$$
