
     RDKit          3D

 33 35  0  0  0  0  0  0  0  0999 V2000
   37.7110   29.0360   41.8110 N   0  0  0  0  0  0  0  0  0  0  0  0
   37.2210   28.7390   43.0160 C   0  0  0  0  0  0  0  0  0  0  0  0
   36.8570   27.4660   43.3990 C   0  0  0  0  0  0  0  0  0  0  0  0
   36.9910   26.4080   42.5120 C   0  0  0  0  0  0  0  0  0  0  0  0
   36.6780   25.2320   42.8000 O   0  0  0  0  0  0  0  0  0  0  0  0
   37.4890   26.7480   41.3050 N   0  0  0  0  0  0  0  0  0  0  0  0
   37.8370   28.0010   40.9540 C   0  0  0  0  0  0  0  0  0  0  0  0
   38.2980   28.2250   39.7950 O   0  0  0  0  0  0  0  0  0  0  0  0
   38.0840   30.3540   41.4230 C   0  0  0  0  0  0  0  0  0  0  0  0
   39.3580   30.9220   41.6460 C   0  0  0  0  0  0  0  0  0  0  0  0
   39.5590   32.2340   41.1990 C   0  0  0  0  0  0  0  0  0  0  0  0
   38.5370   32.8790   40.5870 N   0  0  0  0  0  0  0  0  0  0  0  0
   37.3360   32.3100   40.3900 C   0  0  0  0  0  0  0  0  0  0  0  0
   37.0990   31.0530   40.8010 N   0  0  0  0  0  0  0  0  0  0  0  0
   37.7580   23.8800   38.3720 C   0  0  0  0  0  0  0  0  0  0  0  0
   36.6290   24.6310   38.4850 C   0  0  0  0  0  0  0  0  0  0  0  0
   36.5640   25.5850   39.4760 C   0  0  0  0  0  0  0  0  0  0  0  0
   37.6670   25.7250   40.3100 C   0  0  0  0  0  0  0  0  0  0  0  0
   38.8030   24.9800   40.2070 C   0  0  0  0  0  0  0  0  0  0  0  0
   38.8400   24.0350   39.2090 C   0  0  0  0  0  0  0  0  0  0  0  0
   37.8590   22.6590   37.1150 S   0  0  0  0  0  0  0  0  0  0  0  0
   38.4230   21.3990   37.7200 O   0  0  0  0  0  0  0  0  0  0  0  0
   36.4800   22.3500   36.6060 O   0  0  0  0  0  0  0  0  0  0  0  0
   37.1009   29.5550   43.7438 H   0  0  0  0  0  0  0  0  0  0  0  0
   36.4597   27.2888   44.4093 H   0  0  0  0  0  0  0  0  0  0  0  0
   40.1576   30.3583   42.1489 H   0  0  0  0  0  0  0  0  0  0  0  0
   40.5294   32.7318   41.3423 H   0  0  0  0  0  0  0  0  0  0  0  0
   36.5394   32.8784   39.8876 H   0  0  0  0  0  0  0  0  0  0  0  0
   35.7839   24.4789   37.7975 H   0  0  0  0  0  0  0  0  0  0  0  0
   35.6706   26.2141   39.6031 H   0  0  0  0  0  0  0  0  0  0  0  0
   39.6517   25.1278   40.8910 H   0  0  0  0  0  0  0  0  0  0  0  0
   39.7319   23.4044   39.0796 H   0  0  0  0  0  0  0  0  0  0  0  0
   38.6490   23.1136   36.0922 H   0  0  0  0  0  0  0  0  0  0  0  0
  1  2  1  0
  2  3  2  0
  4  5  2  0
  4  3  1  0
  6  4  1  0
  7  6  1  0
  7  1  1  0
  8  7  2  0
  9 10  2  0
  9  1  1  0
 11 10  1  0
 12 11  2  0
 13 12  1  0
 13 14  2  0
 14  9  1  0
 15 16  2  0
 15 20  1  0
 16 17  1  0
 17 18  2  0
 18  6  1  0
 19 18  1  0
 20 19  2  0
 21 22  2  0
 21 15  1  0
 23 21  2  0
  2 24  1  0
  3 25  1  0
 10 26  1  0
 11 27  1  0
 13 28  1  0
 16 29  1  0
 17 30  1  0
 19 31  1  0
 20 32  1  0
 21 33  1  0
M  ISO  8  24  14  25  14  26  14  27  14  28  14  29  14  30  14  31  14
M  ISO  2  32  14  33  11
M  END
>  <minimizedAffinity>  (1) 
-4.64065266

>  <minimizedRMSD>  (1) 
0.691030085

$$$$
