
     RDKit          3D

 28 30  0  0  0  0  0  0  0  0999 V2000
   37.5910   28.9240   41.7630 N   0  0  0  0  0  0  0  0  0  0  0  0
   37.0800   28.6170   42.9370 C   0  0  0  0  0  0  0  0  0  0  0  0
   36.7720   27.3210   43.3130 C   0  0  0  0  0  0  0  0  0  0  0  0
   36.9990   26.2630   42.4320 C   0  0  0  0  0  0  0  0  0  0  0  0
   36.7350   25.0880   42.7380 O   0  0  0  0  0  0  0  0  0  0  0  0
   37.5260   26.6340   41.2390 N   0  0  0  0  0  0  0  0  0  0  0  0
   37.8150   27.9050   40.9040 C   0  0  0  0  0  0  0  0  0  0  0  0
   38.3020   28.1440   39.7690 O   0  0  0  0  0  0  0  0  0  0  0  0
   37.9070   30.2620   41.3800 C   0  0  0  0  0  0  0  0  0  0  0  0
   39.1330   30.9110   41.6620 C   0  0  0  0  0  0  0  0  0  0  0  0
   39.2980   32.2210   41.2250 C   0  0  0  0  0  0  0  0  0  0  0  0
   38.2810   32.8120   40.5520 N   0  0  0  0  0  0  0  0  0  0  0  0
   37.1220   32.1710   40.2960 C   0  0  0  0  0  0  0  0  0  0  0  0
   36.9360   30.9080   40.7060 N   0  0  0  0  0  0  0  0  0  0  0  0
   37.7830   25.5990   40.2940 C   0  0  0  0  0  0  0  0  0  0  0  0
   36.7100   25.3430   39.4480 C   0  0  0  0  0  0  0  0  0  0  0  0
   36.7740   24.3750   38.4700 C   0  0  0  0  0  0  0  0  0  0  0  0
   37.9250   23.6570   38.3380 N   0  0  0  0  0  0  0  0  0  0  0  0
   38.9610   23.9320   39.1830 C   0  0  0  0  0  0  0  0  0  0  0  0
   38.9040   24.8760   40.1400 N   0  0  0  0  0  0  0  0  0  0  0  0
   36.8887   29.4295   43.6534 H   0  0  0  0  0  0  0  0  0  0  0  0
   36.3473   27.1247   44.3085 H   0  0  0  0  0  0  0  0  0  0  0  0
   39.9331   30.3935   42.2116 H   0  0  0  0  0  0  0  0  0  0  0  0
   40.2334   32.7654   41.4213 H   0  0  0  0  0  0  0  0  0  0  0  0
   36.3225   32.6890   39.7461 H   0  0  0  0  0  0  0  0  0  0  0  0
   35.7859   25.9286   39.5625 H   0  0  0  0  0  0  0  0  0  0  0  0
   35.9148   24.1856   37.8098 H   0  0  0  0  0  0  0  0  0  0  0  0
   39.8898   23.3524   39.0762 H   0  0  0  0  0  0  0  0  0  0  0  0
  1  2  1  0
  2  3  2  0
  4  5  2  0
  4  3  1  0
  6  4  1  0
  7  6  1  0
  7  1  1  0
  8  7  2  0
  9 10  2  0
  9  1  1  0
 11 10  1  0
 12 11  2  0
 13 12  1  0
 13 14  2  0
 14  9  1  0
 15  6  1  0
 16 15  2  0
 17 16  1  0
 18 17  2  0
 18 19  1  0
 19 20  2  0
 20 15  1  0
  2 21  1  0
  3 22  1  0
 10 23  1  0
 11 24  1  0
 13 25  1  0
 16 26  1  0
 17 27  1  0
 19 28  1  0
M  ISO  8  21  14  22  14  23  14  24  14  25  14  26  14  27  14  28  14
M  END
>  <minimizedAffinity>  (1) 
-4.60089016

>  <minimizedRMSD>  (1) 
0.806133807

$$$$
