
     RDKit          3D

 32 34  0  0  1  0  0  0  0  0999 V2000
   37.6350   28.9530   41.7240 N   0  0  0  0  0  0  0  0  0  0  0  0
   37.0970   28.6290   42.9010 C   0  0  0  0  0  0  0  0  0  0  0  0
   36.7920   27.3260   43.2690 C   0  0  0  0  0  0  0  0  0  0  0  0
   37.0450   26.2780   42.3990 C   0  0  0  0  0  0  0  0  0  0  0  0
   36.7880   25.0960   42.6910 O   0  0  0  0  0  0  0  0  0  0  0  0
   37.5920   26.6510   41.2170 N   0  0  0  0  0  0  0  0  0  0  0  0
   37.8770   27.9260   40.8840 C   0  0  0  0  0  0  0  0  0  0  0  0
   38.3870   28.1710   39.7550 O   0  0  0  0  0  0  0  0  0  0  0  0
   37.9430   30.2860   41.3570 C   0  0  0  0  0  0  0  0  0  0  0  0
   39.1550   30.9390   41.6410 C   0  0  0  0  0  0  0  0  0  0  0  0
   39.3050   32.2570   41.2090 C   0  0  0  0  0  0  0  0  0  0  0  0
   38.2870   32.8450   40.5430 N   0  0  0  0  0  0  0  0  0  0  0  0
   37.1270   32.1960   40.2800 C   0  0  0  0  0  0  0  0  0  0  0  0
   36.9660   30.9330   40.6860 N   0  0  0  0  0  0  0  0  0  0  0  0
   38.6720   24.5340   40.7490 N   0  0  0  0  0  0  0  0  0  0  0  0
   38.5530   23.5510   39.6740 C   0  0  0  0  0  0  0  0  0  0  0  0
   37.1810   23.7050   39.0770 C   0  0  0  0  0  0  0  0  0  0  0  0
   36.6130   24.9130   39.7930 C   0  0  0  0  0  0  0  0  0  0  0  0
   37.8970   25.6160   40.2290 C   0  0  1  0  0  0  0  0  0  0  0  0
   36.8841   29.4365   43.6170 H   0  0  0  0  0  0  0  0  0  0  0  0
   36.3478   27.1247   44.2550 H   0  0  0  0  0  0  0  0  0  0  0  0
   39.9606   30.4264   42.1872 H   0  0  0  0  0  0  0  0  0  0  0  0
   40.2361   32.8081   41.4072 H   0  0  0  0  0  0  0  0  0  0  0  0
   36.3204   32.7071   39.7340 H   0  0  0  0  0  0  0  0  0  0  0  0
   38.2770   24.1775   41.6309 H   0  0  0  0  0  0  0  0  0  0  0  0
   39.3200   23.7365   38.9076 H   0  0  0  0  0  0  0  0  0  0  0  0
   38.6972   22.5314   40.0609 H   0  0  0  0  0  0  0  0  0  0  0  0
   37.2423   23.8839   37.9934 H   0  0  0  0  0  0  0  0  0  0  0  0
   36.5593   22.8056   39.1981 H   0  0  0  0  0  0  0  0  0  0  0  0
   36.0169   25.5421   39.1156 H   0  0  0  0  0  0  0  0  0  0  0  0
   35.9231   24.6727   40.6154 H   0  0  0  0  0  0  0  0  0  0  0  0
   38.4321   26.1546   39.4330 H   0  0  0  0  0  0  0  0  0  0  0  0
  1  2  1  0
  2  3  2  0
  4  5  2  0
  4  3  1  0
  6  4  1  0
  7  6  1  0
  7  1  1  0
  8  7  2  0
  9 10  2  0
  9  1  1  0
 11 10  1  0
 12 11  2  0
 13 12  1  0
 13 14  2  0
 14  9  1  0
 16 15  1  0
 17 16  1  0
 17 18  1  0
 19 18  1  0
 19 15  1  0
 19  6  1  0
  2 20  1  0
  3 21  1  0
 10 22  1  0
 11 23  1  0
 13 24  1  0
 15 25  1  0
 16 26  1  0
 16 27  1  0
 17 28  1  0
 17 29  1  0
 18 30  1  0
 18 31  1  0
 19 32  1  6
M  ISO  8  20  14  21  14  22  14  23  14  24  14  25   5  26  13  27  13
M  ISO  5  28  13  29  13  30  13  31  13  32  13
M  END
>  <minimizedAffinity>  (1) 
-4.59868336

>  <minimizedRMSD>  (1) 
0.835385025

$$$$
