
     RDKit          3D

 27 29  0  0  0  0  0  0  0  0999 V2000
   37.6080   28.9450   41.7340 N   0  0  0  0  0  0  0  0  0  0  0  0
   37.2180   28.6110   42.9550 C   0  0  0  0  0  0  0  0  0  0  0  0
   36.9070   27.3260   43.3370 C   0  0  0  0  0  0  0  0  0  0  0  0
   37.0000   26.2950   42.4070 C   0  0  0  0  0  0  0  0  0  0  0  0
   36.7280   25.1100   42.7100 O   0  0  0  0  0  0  0  0  0  0  0  0
   37.4020   26.6750   41.1700 N   0  0  0  0  0  0  0  0  0  0  0  0
   37.6940   27.9470   40.8450 C   0  0  0  0  0  0  0  0  0  0  0  0
   38.0600   28.2050   39.6660 O   0  0  0  0  0  0  0  0  0  0  0  0
   37.9240   30.2830   41.3580 C   0  0  0  0  0  0  0  0  0  0  0  0
   39.1590   30.9220   41.6180 C   0  0  0  0  0  0  0  0  0  0  0  0
   39.3050   32.2390   41.1810 C   0  0  0  0  0  0  0  0  0  0  0  0
   38.2730   32.8400   40.5370 N   0  0  0  0  0  0  0  0  0  0  0  0
   37.1050   32.2050   40.3030 C   0  0  0  0  0  0  0  0  0  0  0  0
   36.9440   30.9450   40.7110 N   0  0  0  0  0  0  0  0  0  0  0  0
   37.4930   25.5990   40.2170 C   0  0  0  0  0  0  0  0  0  0  0  0
   36.4330   25.3460   39.4780 C   0  0  0  0  0  0  0  0  0  0  0  0
   36.3030   24.3830   38.5260 C   0  0  0  0  0  0  0  0  0  0  0  0
   37.5250   23.6390   38.4180 C   0  0  0  0  0  0  0  0  0  0  0  0
   38.7090   24.4200   39.7050 S   0  0  0  0  0  0  0  0  0  0  0  0
   37.1379   29.4083   43.7086 H   0  0  0  0  0  0  0  0  0  0  0  0
   36.5877   27.1157   44.3684 H   0  0  0  0  0  0  0  0  0  0  0  0
   39.9724   30.4009   42.1441 H   0  0  0  0  0  0  0  0  0  0  0  0
   40.2448   32.7831   41.3563 H   0  0  0  0  0  0  0  0  0  0  0  0
   36.2895   32.7242   39.7782 H   0  0  0  0  0  0  0  0  0  0  0  0
   35.5542   25.9849   39.6496 H   0  0  0  0  0  0  0  0  0  0  0  0
   35.3972   24.2019   37.9288 H   0  0  0  0  0  0  0  0  0  0  0  0
   37.7368   22.7989   37.7403 H   0  0  0  0  0  0  0  0  0  0  0  0
  1  2  1  0
  2  3  2  0
  4  5  2  0
  4  3  1  0
  6  4  1  0
  7  6  1  0
  7  1  1  0
  8  7  2  0
  9 10  2  0
  9  1  1  0
 11 10  1  0
 12 11  2  0
 13 12  1  0
 13 14  2  0
 14  9  1  0
 15  6  1  0
 16 15  2  0
 17 16  1  0
 18 17  2  0
 18 19  1  0
 19 15  1  0
  2 20  1  0
  3 21  1  0
 10 22  1  0
 11 23  1  0
 13 24  1  0
 16 25  1  0
 17 26  1  0
 18 27  1  0
M  ISO  8  20  14  21  14  22  14  23  14  24  14  25  14  26  14  27  14
M  END
>  <minimizedAffinity>  (1) 
-4.56442499

>  <minimizedRMSD>  (1) 
0.637829185

$$$$
