
     RDKit          3D

 26 28  0  0  0  0  0  0  0  0999 V2000
   37.6120   28.9140   41.6700 N   0  0  0  0  0  0  0  0  0  0  0  0
   37.1650   28.5580   42.8640 C   0  0  0  0  0  0  0  0  0  0  0  0
   36.8630   27.2680   43.2230 C   0  0  0  0  0  0  0  0  0  0  0  0
   37.0250   26.2390   42.2980 C   0  0  0  0  0  0  0  0  0  0  0  0
   36.7710   25.0400   42.5550 O   0  0  0  0  0  0  0  0  0  0  0  0
   37.4840   26.6360   41.0900 N   0  0  0  0  0  0  0  0  0  0  0  0
   37.7690   27.9200   40.7760 C   0  0  0  0  0  0  0  0  0  0  0  0
   38.1930   28.2070   39.6210 O   0  0  0  0  0  0  0  0  0  0  0  0
   37.9180   30.2620   41.3250 C   0  0  0  0  0  0  0  0  0  0  0  0
   39.1490   30.9020   41.6150 C   0  0  0  0  0  0  0  0  0  0  0  0
   39.2780   32.2300   41.2030 C   0  0  0  0  0  0  0  0  0  0  0  0
   38.2420   32.8350   40.5580 N   0  0  0  0  0  0  0  0  0  0  0  0
   37.0880   32.1940   40.3010 C   0  0  0  0  0  0  0  0  0  0  0  0
   36.9190   30.9190   40.6780 N   0  0  0  0  0  0  0  0  0  0  0  0
   37.6920   25.6560   40.0480 C   0  0  0  0  0  0  0  0  0  0  0  0
   36.5510   25.4810   39.3410 C   0  0  0  0  0  0  0  0  0  0  0  0
   36.9910   24.1820   38.0310 S   0  0  0  0  0  0  0  0  0  0  0  0
   38.7590   24.1550   38.7790 C   0  0  0  0  0  0  0  0  0  0  0  0
   38.6750   24.9020   39.6090 N   0  0  0  0  0  0  0  0  0  0  0  0
   37.0265   29.3473   43.6176 H   0  0  0  0  0  0  0  0  0  0  0  0
   36.4949   27.0479   44.2359 H   0  0  0  0  0  0  0  0  0  0  0  0
   39.9624   30.3785   42.1387 H   0  0  0  0  0  0  0  0  0  0  0  0
   40.2087   32.7830   41.3978 H   0  0  0  0  0  0  0  0  0  0  0  0
   36.2764   32.7203   39.7772 H   0  0  0  0  0  0  0  0  0  0  0  0
   35.5832   25.9813   39.4926 H   0  0  0  0  0  0  0  0  0  0  0  0
   39.6307   23.5588   38.4713 H   0  0  0  0  0  0  0  0  0  0  0  0
  1  2  1  0
  2  3  2  0
  4  5  2  0
  4  3  1  0
  6  4  1  0
  7  6  1  0
  7  1  1  0
  8  7  2  0
  9 10  2  0
  9  1  1  0
 11 10  1  0
 12 11  2  0
 13 12  1  0
 13 14  2  0
 14  9  1  0
 15  6  1  0
 16 15  2  0
 17 18  1  0
 17 16  1  0
 18 19  2  0
 19 15  1  0
  2 20  1  0
  3 21  1  0
 10 22  1  0
 11 23  1  0
 13 24  1  0
 16 25  1  0
 18 26  1  0
M  ISO  7  20  14  21  14  22  14  23  14  24  14  25  14  26  14
M  END
>  <minimizedAffinity>  (1) 
-4.42960215

>  <minimizedRMSD>  (1) 
0.298474759

$$$$
