
     RDKit          3D

 23 24  0  0  0  0  0  0  0  0999 V2000
   37.5990   28.9200   41.6800 N   0  0  0  0  0  0  0  0  0  0  0  0
   37.1950   28.5690   42.9000 C   0  0  0  0  0  0  0  0  0  0  0  0
   36.8840   27.2680   43.2510 C   0  0  0  0  0  0  0  0  0  0  0  0
   36.9860   26.2440   42.3050 C   0  0  0  0  0  0  0  0  0  0  0  0
   36.7130   25.0640   42.5940 O   0  0  0  0  0  0  0  0  0  0  0  0
   37.4010   26.6500   41.0810 N   0  0  0  0  0  0  0  0  0  0  0  0
   37.6930   27.9300   40.7830 C   0  0  0  0  0  0  0  0  0  0  0  0
   38.0720   28.2070   39.6130 O   0  0  0  0  0  0  0  0  0  0  0  0
   37.9160   30.2590   41.3340 C   0  0  0  0  0  0  0  0  0  0  0  0
   39.1390   30.8980   41.6070 C   0  0  0  0  0  0  0  0  0  0  0  0
   39.2820   32.2260   41.1950 C   0  0  0  0  0  0  0  0  0  0  0  0
   38.2480   32.8330   40.5550 N   0  0  0  0  0  0  0  0  0  0  0  0
   37.0870   32.2000   40.3040 C   0  0  0  0  0  0  0  0  0  0  0  0
   36.9260   30.9240   40.6930 N   0  0  0  0  0  0  0  0  0  0  0  0
   37.5300   25.6340   40.0470 C   0  0  0  0  0  0  0  0  0  0  0  0
   38.6040   25.8850   39.2360 F   0  0  0  0  0  0  0  0  0  0  0  0
   36.3530   25.6460   39.3230 F   0  0  0  0  0  0  0  0  0  0  0  0
   37.6940   24.3710   40.6240 F   0  0  0  0  0  0  0  0  0  0  0  0
   37.1043   29.3530   43.6662 H   0  0  0  0  0  0  0  0  0  0  0  0
   36.5560   27.0388   44.2756 H   0  0  0  0  0  0  0  0  0  0  0  0
   39.9535   30.3716   42.1260 H   0  0  0  0  0  0  0  0  0  0  0  0
   40.2177   32.7718   41.3860 H   0  0  0  0  0  0  0  0  0  0  0  0
   36.2732   32.7252   39.7825 H   0  0  0  0  0  0  0  0  0  0  0  0
  1  2  1  0
  2  3  2  0
  4  5  2  0
  4  3  1  0
  6  4  1  0
  7  6  1  0
  7  1  1  0
  8  7  2  0
  9 10  2  0
  9  1  1  0
 11 10  1  0
 12 11  2  0
 13 12  1  0
 13 14  2  0
 14  9  1  0
 15 18  1  0
 15  6  1  0
 16 15  1  0
 17 15  1  0
  2 19  1  0
  3 20  1  0
 10 21  1  0
 11 22  1  0
 13 23  1  0
M  ISO  5  19  14  20  14  21  14  22  14  23  14
M  END
>  <minimizedAffinity>  (1) 
-4.38379097

>  <minimizedRMSD>  (1) 
0.363202542

$$$$
