
     RDKit          3D

 26 27  0  0  0  0  0  0  0  0999 V2000
   37.6290   28.9020   41.6380 N   0  0  0  0  0  0  0  0  0  0  0  0
   37.1590   28.5370   42.8190 C   0  0  0  0  0  0  0  0  0  0  0  0
   36.8600   27.2430   43.1650 C   0  0  0  0  0  0  0  0  0  0  0  0
   37.0560   26.2220   42.2250 C   0  0  0  0  0  0  0  0  0  0  0  0
   36.8050   25.0220   42.4700 O   0  0  0  0  0  0  0  0  0  0  0  0
   37.5370   26.6400   41.0350 N   0  0  0  0  0  0  0  0  0  0  0  0
   37.8130   27.9210   40.7460 C   0  0  0  0  0  0  0  0  0  0  0  0
   38.2620   28.2140   39.5980 O   0  0  0  0  0  0  0  0  0  0  0  0
   37.9310   30.2560   41.3060 C   0  0  0  0  0  0  0  0  0  0  0  0
   39.1440   30.9080   41.6000 C   0  0  0  0  0  0  0  0  0  0  0  0
   39.2870   32.2400   41.2070 C   0  0  0  0  0  0  0  0  0  0  0  0
   38.2560   32.8360   40.5650 N   0  0  0  0  0  0  0  0  0  0  0  0
   37.1040   32.1940   40.2940 C   0  0  0  0  0  0  0  0  0  0  0  0
   36.9360   30.9150   40.6580 N   0  0  0  0  0  0  0  0  0  0  0  0
   37.7720   25.6370   39.9880 C   0  0  0  0  0  0  0  0  0  0  0  0
   36.4450   25.4570   39.2430 C   0  0  0  0  0  0  0  0  0  0  0  0
   36.9972   29.3215   43.5730 H   0  0  0  0  0  0  0  0  0  0  0  0
   36.4714   27.0101   44.1674 H   0  0  0  0  0  0  0  0  0  0  0  0
   39.9558   30.3827   42.1244 H   0  0  0  0  0  0  0  0  0  0  0  0
   40.2158   32.7917   41.4144 H   0  0  0  0  0  0  0  0  0  0  0  0
   36.2945   32.7232   39.7699 H   0  0  0  0  0  0  0  0  0  0  0  0
   38.5509   25.9880   39.2951 H   0  0  0  0  0  0  0  0  0  0  0  0
   38.1138   24.6857   40.4217 H   0  0  0  0  0  0  0  0  0  0  0  0
   35.6279   25.3462   39.9710 H   0  0  0  0  0  0  0  0  0  0  0  0
   36.2566   26.3378   38.6116 H   0  0  0  0  0  0  0  0  0  0  0  0
   36.4980   24.5578   38.6116 H   0  0  0  0  0  0  0  0  0  0  0  0
  1  2  1  0
  2  3  2  0
  4  5  2  0
  4  3  1  0
  6  4  1  0
  7  6  1  0
  7  1  1  0
  8  7  2  0
  9 10  2  0
  9  1  1  0
 11 10  1  0
 12 11  2  0
 13 12  1  0
 13 14  2  0
 14  9  1  0
 15  6  1  0
 16 15  1  0
  2 17  1  0
  3 18  1  0
 10 19  1  0
 11 20  1  0
 13 21  1  0
 15 22  1  0
 15 23  1  0
 16 24  1  0
 16 25  1  0
 16 26  1  0
M  ISO  8  17  14  18  14  19  14  20  14  21  14  22   8  23   8  24   8
M  ISO  2  25   8  26   8
M  END
>  <minimizedAffinity>  (1) 
-4.15259218

>  <minimizedRMSD>  (1) 
0.565558493

$$$$
