
     RDKit          3D

 23 24  0  0  0  0  0  0  0  0999 V2000
   37.6800   28.8070   41.6370 N   0  0  0  0  0  0  0  0  0  0  0  0
   37.1020   28.4350   42.7810 C   0  0  0  0  0  0  0  0  0  0  0  0
   36.7990   27.1240   43.0850 C   0  0  0  0  0  0  0  0  0  0  0  0
   37.0970   26.1120   42.1750 C   0  0  0  0  0  0  0  0  0  0  0  0
   36.8410   24.9110   42.4050 O   0  0  0  0  0  0  0  0  0  0  0  0
   37.6830   26.5350   41.0280 N   0  0  0  0  0  0  0  0  0  0  0  0
   37.9590   27.8220   40.7770 C   0  0  0  0  0  0  0  0  0  0  0  0
   38.5060   28.1190   39.6800 O   0  0  0  0  0  0  0  0  0  0  0  0
   37.9870   30.1560   41.3390 C   0  0  0  0  0  0  0  0  0  0  0  0
   39.2150   30.7960   41.6730 C   0  0  0  0  0  0  0  0  0  0  0  0
   39.3660   32.1340   41.3090 C   0  0  0  0  0  0  0  0  0  0  0  0
   38.3400   32.7580   40.6570 N   0  0  0  0  0  0  0  0  0  0  0  0
   37.1950   32.1210   40.3580 C   0  0  0  0  0  0  0  0  0  0  0  0
   37.0220   30.8360   40.6950 N   0  0  0  0  0  0  0  0  0  0  0  0
   38.0260   25.5340   40.0270 C   0  0  0  0  0  0  0  0  0  0  0  0
   36.8548   29.2128   43.5185 H   0  0  0  0  0  0  0  0  0  0  0  0
   36.3224   26.8778   44.0453 H   0  0  0  0  0  0  0  0  0  0  0  0
   40.0152   30.2546   42.1989 H   0  0  0  0  0  0  0  0  0  0  0  0
   40.2938   32.6768   41.5425 H   0  0  0  0  0  0  0  0  0  0  0  0
   36.3929   32.6594   39.8320 H   0  0  0  0  0  0  0  0  0  0  0  0
   38.3434   24.6078   40.5284 H   0  0  0  0  0  0  0  0  0  0  0  0
   37.1472   25.3280   39.3983 H   0  0  0  0  0  0  0  0  0  0  0  0
   38.8465   25.9103   39.3983 H   0  0  0  0  0  0  0  0  0  0  0  0
  1  2  1  0
  2  3  2  0
  4  5  2  0
  4  3  1  0
  6  4  1  0
  7  6  1  0
  7  1  1  0
  8  7  2  0
  9  1  1  0
  9 10  2  0
 11 10  1  0
 12 11  2  0
 13 12  1  0
 13 14  2  0
 14  9  1  0
 15  6  1  0
  2 16  1  0
  3 17  1  0
 10 18  1  0
 11 19  1  0
 13 20  1  0
 15 21  1  0
 15 22  1  0
 15 23  1  0
M  ISO  8  16  14  17  14  18  14  19  14  20  14  21   8  22   8  23   8
M  END
>  <minimizedAffinity>  (1) 
-4.08803177

>  <minimizedRMSD>  (1) 
0.00462889578

$$$$
