
     RDKit          3D

 46 49  0  0  1  0  0  0  0  0999 V2000
   38.0870   25.6330   40.4810 C   0  0  2  0  0  0  0  0  0  0  0  0
   36.9930   24.8490   39.8920 C   0  0  0  0  0  0  0  0  0  0  0  0
   37.6700   23.5400   39.4970 C   0  0  0  0  0  0  0  0  0  0  0  0
   38.5330   23.2690   40.6660 C   0  0  0  0  0  0  0  0  0  0  0  0
   38.9670   24.6140   41.1790 C   0  0  1  0  0  0  0  0  0  0  0  0
   37.6770   29.0260   41.8120 N   0  0  0  0  0  0  0  0  0  0  0  0
   37.0040   28.7450   42.9200 C   0  0  0  0  0  0  0  0  0  0  0  0
   36.6580   27.4640   43.2820 C   0  0  0  0  0  0  0  0  0  0  0  0
   37.0090   26.3790   42.4770 C   0  0  0  0  0  0  0  0  0  0  0  0
   36.6990   25.2270   42.7990 O   0  0  0  0  0  0  0  0  0  0  0  0
   37.6930   26.7170   41.3600 N   0  0  0  0  0  0  0  0  0  0  0  0
   38.0110   27.9790   41.0430 C   0  0  0  0  0  0  0  0  0  0  0  0
   38.6570   28.1770   39.9660 O   0  0  0  0  0  0  0  0  0  0  0  0
   38.0380   30.3450   41.4320 C   0  0  0  0  0  0  0  0  0  0  0  0
   39.2810   30.9550   41.7210 C   0  0  0  0  0  0  0  0  0  0  0  0
   39.4930   32.2550   41.2850 C   0  0  0  0  0  0  0  0  0  0  0  0
   38.5080   32.8730   40.6100 N   0  0  0  0  0  0  0  0  0  0  0  0
   37.3250   32.2840   40.3380 C   0  0  0  0  0  0  0  0  0  0  0  0
   37.1200   31.0320   40.7580 N   0  0  0  0  0  0  0  0  0  0  0  0
   40.3640   24.8560   41.0740 N   0  0  0  0  0  0  0  0  0  0  0  0
   41.0250   24.9710   39.9200 C   0  0  0  0  0  0  0  0  0  0  0  0
   42.4000   25.2090   39.8330 C   0  0  0  0  0  0  0  0  0  0  0  0
   43.1220   25.3350   38.5390 C   0  0  0  0  0  0  0  0  0  0  0  0
   43.0850   25.3280   41.0270 C   0  0  0  0  0  0  0  0  0  0  0  0
   44.3350   25.5440   41.0190 O   0  0  0  0  0  0  0  0  0  0  0  0
   42.4700   25.2210   42.2190 N   0  0  0  0  0  0  0  0  0  0  0  0
   41.1460   24.9920   42.1830 C   0  0  0  0  0  0  0  0  0  0  0  0
   40.5330   24.8860   43.2990 O   0  0  0  0  0  0  0  0  0  0  0  0
   38.6095   26.1818   39.6836 H   0  0  0  0  0  0  0  0  0  0  0  0
   36.1944   24.6729   40.6276 H   0  0  0  0  0  0  0  0  0  0  0  0
   36.5094   25.3557   39.0439 H   0  0  0  0  0  0  0  0  0  0  0  0
   36.9320   22.7374   39.3516 H   0  0  0  0  0  0  0  0  0  0  0  0
   38.2201   23.5970   38.5461 H   0  0  0  0  0  0  0  0  0  0  0  0
   37.9694   22.7279   41.4403 H   0  0  0  0  0  0  0  0  0  0  0  0
   39.3957   22.6430   40.3944 H   0  0  0  0  0  0  0  0  0  0  0  0
   38.8255   24.6792   42.2679 H   0  0  0  0  0  0  0  0  0  0  0  0
   36.7091   29.5745   43.5795 H   0  0  0  0  0  0  0  0  0  0  0  0
   36.0997   27.2930   44.2142 H   0  0  0  0  0  0  0  0  0  0  0  0
   40.0597   30.4126   42.2772 H   0  0  0  0  0  0  0  0  0  0  0  0
   40.4448   32.7681   41.4869 H   0  0  0  0  0  0  0  0  0  0  0  0
   36.5446   32.8237   39.7815 H   0  0  0  0  0  0  0  0  0  0  0  0
   40.4554   24.8729   38.9841 H   0  0  0  0  0  0  0  0  0  0  0  0
   44.1890   25.5212   38.7311 H   0  0  0  0  0  0  0  0  0  0  0  0
   43.0099   24.4037   37.9644 H   0  0  0  0  0  0  0  0  0  0  0  0
   42.7011   26.1733   37.9644 H   0  0  0  0  0  0  0  0  0  0  0  0
   42.9839   25.3094   43.1073 H   0  0  0  0  0  0  0  0  0  0  0  0
  1  5  1  0
  1 11  1  0
  2  1  1  0
  3  2  1  0
  3  4  1  0
  4  5  1  0
  6  7  1  0
  7  8  2  0
  9 10  2  0
  9  8  1  0
 11  9  1  0
 12 11  1  0
 12  6  1  0
 13 12  2  0
 14 15  2  0
 14  6  1  0
 16 15  1  0
 17 16  2  0
 18 17  1  0
 18 19  2  0
 19 14  1  0
 20  5  1  0
 20 27  1  0
 21 20  1  0
 22 21  2  0
 22 24  1  0
 23 22  1  0
 24 26  1  0
 25 24  2  0
 27 26  1  0
 27 28  2  0
  1 29  1  6
  2 30  1  0
  2 31  1  0
  3 32  1  0
  3 33  1  0
  4 34  1  0
  4 35  1  0
  5 36  1  1
  7 37  1  0
  8 38  1  0
 15 39  1  0
 16 40  1  0
 18 41  1  0
 21 42  1  0
 23 43  1  0
 23 44  1  0
 23 45  1  0
 26 46  1  0
M  ISO  8  29  13  30  13  31  13  32  13  33  13  34  13  35  13  36  13
M  ISO  8  37  14  38  14  39  14  40  14  41  14  42  14  43   8  44   8
M  ISO  2  45   8  46   9
M  END
>  <minimizedAffinity>  (1) 
-5.77246809

>  <minimizedRMSD>  (1) 
0.687315524

$$$$
