
     RDKit          3D

 44 47  0  0  1  0  0  0  0  0999 V2000
   38.0710   25.8440   40.4210 C   0  0  2  0  0  0  0  0  0  0  0  0
   36.9970   25.1460   39.7210 C   0  0  0  0  0  0  0  0  0  0  0  0
   37.6400   23.8000   39.3500 C   0  0  0  0  0  0  0  0  0  0  0  0
   38.3390   23.4420   40.6180 C   0  0  0  0  0  0  0  0  0  0  0  0
   38.8050   24.7460   41.1790 C   0  0  1  0  0  0  0  0  0  0  0  0
   37.6640   29.2580   41.7080 N   0  0  0  0  0  0  0  0  0  0  0  0
   36.9990   28.9800   42.8330 C   0  0  0  0  0  0  0  0  0  0  0  0
   36.6620   27.7030   43.2110 C   0  0  0  0  0  0  0  0  0  0  0  0
   37.0120   26.6160   42.4150 C   0  0  0  0  0  0  0  0  0  0  0  0
   36.7070   25.4590   42.7560 O   0  0  0  0  0  0  0  0  0  0  0  0
   37.6870   26.9350   41.2800 N   0  0  0  0  0  0  0  0  0  0  0  0
   37.9890   28.1950   40.9580 C   0  0  0  0  0  0  0  0  0  0  0  0
   38.6240   28.3790   39.8710 O   0  0  0  0  0  0  0  0  0  0  0  0
   38.0160   30.5690   41.3090 C   0  0  0  0  0  0  0  0  0  0  0  0
   39.2740   31.1810   41.6040 C   0  0  0  0  0  0  0  0  0  0  0  0
   39.4370   32.4910   41.1220 C   0  0  0  0  0  0  0  0  0  0  0  0
   38.4490   33.0860   40.4370 N   0  0  0  0  0  0  0  0  0  0  0  0
   37.2710   32.4810   40.1740 C   0  0  0  0  0  0  0  0  0  0  0  0
   37.0980   31.2390   40.6220 N   0  0  0  0  0  0  0  0  0  0  0  0
   40.2180   24.9270   41.2530 N   0  0  0  0  0  0  0  0  0  0  0  0
   40.9790   25.0170   40.1390 C   0  0  0  0  0  0  0  0  0  0  0  0
   42.3500   25.1940   40.3360 C   0  0  0  0  0  0  0  0  0  0  0  0
   42.9600   25.2790   41.5710 C   0  0  0  0  0  0  0  0  0  0  0  0
   44.3680   25.4590   41.6120 N   0  0  0  0  0  0  0  0  0  0  0  0
   42.1590   25.1850   42.6520 N   0  0  0  0  0  0  0  0  0  0  0  0
   40.8340   25.0140   42.4690 C   0  0  0  0  0  0  0  0  0  0  0  0
   40.1080   24.9280   43.4980 O   0  0  0  0  0  0  0  0  0  0  0  0
   38.6941   26.3733   39.6851 H   0  0  0  0  0  0  0  0  0  0  0  0
   36.1268   25.0002   40.3779 H   0  0  0  0  0  0  0  0  0  0  0  0
   36.6181   25.6992   38.8490 H   0  0  0  0  0  0  0  0  0  0  0  0
   36.8790   23.0509   39.0858 H   0  0  0  0  0  0  0  0  0  0  0  0
   38.3013   23.8468   38.4722 H   0  0  0  0  0  0  0  0  0  0  0  0
   37.6475   22.9455   41.3147 H   0  0  0  0  0  0  0  0  0  0  0  0
   39.1705   22.7417   40.4500 H   0  0  0  0  0  0  0  0  0  0  0  0
   38.5490   24.7783   42.2483 H   0  0  0  0  0  0  0  0  0  0  0  0
   36.7072   29.8140   43.4882 H   0  0  0  0  0  0  0  0  0  0  0  0
   36.1118   27.5383   44.1492 H   0  0  0  0  0  0  0  0  0  0  0  0
   40.0612   30.6615   42.1701 H   0  0  0  0  0  0  0  0  0  0  0  0
   40.3778   33.0302   41.3070 H   0  0  0  0  0  0  0  0  0  0  0  0
   36.4808   32.9967   39.6087 H   0  0  0  0  0  0  0  0  0  0  0  0
   40.5416   24.9542   39.1317 H   0  0  0  0  0  0  0  0  0  0  0  0
   42.9889   25.2711   39.4439 H   0  0  0  0  0  0  0  0  0  0  0  0
   44.8524   25.5261   42.5185 H   0  0  0  0  0  0  0  0  0  0  0  0
   44.9048   25.5225   40.7352 H   0  0  0  0  0  0  0  0  0  0  0  0
  1  5  1  0
  1 11  1  0
  2  1  1  0
  3  2  1  0
  3  4  1  0
  4  5  1  0
  5 20  1  0
  6  7  1  0
  7  8  2  0
  9 10  2  0
  9  8  1  0
 11  9  1  0
 12 11  1  0
 12  6  1  0
 13 12  2  0
 14 15  2  0
 14  6  1  0
 16 15  1  0
 17 16  2  0
 18 17  1  0
 18 19  2  0
 19 14  1  0
 20 26  1  0
 21 22  2  0
 21 20  1  0
 22 23  1  0
 23 24  1  0
 23 25  2  0
 26 25  1  0
 26 27  2  0
  1 28  1  6
  2 29  1  0
  2 30  1  0
  3 31  1  0
  3 32  1  0
  4 33  1  0
  4 34  1  0
  5 35  1  1
  7 36  1  0
  8 37  1  0
 15 38  1  0
 16 39  1  0
 18 40  1  0
 21 41  1  0
 22 42  1  0
 24 43  1  0
 24 44  1  0
M  ISO  8  28  13  29  13  30  13  31  13  32  13  33  13  34  13  35  13
M  ISO  7  36  14  37  14  38  14  39  14  40  14  41  14  42  14
M  END
>  <minimizedAffinity>  (1) 
-5.71408176

>  <minimizedRMSD>  (1) 
1.25774062

$$$$
