
     RDKit          3D

 40 42  0  0  1  0  0  0  0  0999 V2000
   38.2650   25.6590   40.5480 C   0  0  2  0  0  0  0  0  0  0  0  0
   37.2490   24.9100   39.8160 C   0  0  0  0  0  0  0  0  0  0  0  0
   37.9440   23.5860   39.5000 C   0  0  0  0  0  0  0  0  0  0  0  0
   38.6190   23.2780   40.8000 C   0  0  0  0  0  0  0  0  0  0  0  0
   38.9990   24.6080   41.3730 C   0  0  1  0  0  0  0  0  0  0  0  0
   37.6990   29.0680   41.7930 N   0  0  0  0  0  0  0  0  0  0  0  0
   36.9510   28.7880   42.8550 C   0  0  0  0  0  0  0  0  0  0  0  0
   36.5980   27.5000   43.2160 C   0  0  0  0  0  0  0  0  0  0  0  0
   37.0300   26.4210   42.4520 C   0  0  0  0  0  0  0  0  0  0  0  0
   36.7120   25.2540   42.7750 O   0  0  0  0  0  0  0  0  0  0  0  0
   37.7870   26.7470   41.3810 N   0  0  0  0  0  0  0  0  0  0  0  0
   38.1020   28.0140   41.0730 C   0  0  0  0  0  0  0  0  0  0  0  0
   38.8170   28.2100   40.0490 O   0  0  0  0  0  0  0  0  0  0  0  0
   38.0610   30.3850   41.4210 C   0  0  0  0  0  0  0  0  0  0  0  0
   39.2960   31.0000   41.7370 C   0  0  0  0  0  0  0  0  0  0  0  0
   39.4950   32.3050   41.2960 C   0  0  0  0  0  0  0  0  0  0  0  0
   38.5150   32.9080   40.6010 N   0  0  0  0  0  0  0  0  0  0  0  0
   37.3410   32.3160   40.3050 C   0  0  0  0  0  0  0  0  0  0  0  0
   37.1470   31.0630   40.7260 N   0  0  0  0  0  0  0  0  0  0  0  0
   40.3990   24.8520   41.4930 N   0  0  0  0  0  0  0  0  0  0  0  0
   41.0040   25.0770   42.7810 C   0  0  0  0  0  0  0  0  0  0  0  0
   40.2370   25.5850   43.6880 N   0  0  0  0  0  0  0  0  0  0  0  0
   42.3490   24.7550   43.0100 N   0  0  0  0  0  0  0  0  0  0  0  0
   40.5580   25.7930   44.6550 H   0  0  0  0  0  0  0  0  0  0  0  0
   38.9039   26.1909   39.8277 H   0  0  0  0  0  0  0  0  0  0  0  0
   36.3560   24.7473   40.4373 H   0  0  0  0  0  0  0  0  0  0  0  0
   36.8941   25.4341   38.9164 H   0  0  0  0  0  0  0  0  0  0  0  0
   37.2166   22.8057   39.2314 H   0  0  0  0  0  0  0  0  0  0  0  0
   38.6305   23.6364   38.6420 H   0  0  0  0  0  0  0  0  0  0  0  0
   37.9304   22.7498   41.4760 H   0  0  0  0  0  0  0  0  0  0  0  0
   39.4939   22.6254   40.6632 H   0  0  0  0  0  0  0  0  0  0  0  0
   38.6895   24.6429   42.4280 H   0  0  0  0  0  0  0  0  0  0  0  0
   36.5948   29.6217   43.4780 H   0  0  0  0  0  0  0  0  0  0  0  0
   35.9759   27.3293   44.1070 H   0  0  0  0  0  0  0  0  0  0  0  0
   40.0693   30.4668   42.3095 H   0  0  0  0  0  0  0  0  0  0  0  0
   40.4357   32.8326   41.5119 H   0  0  0  0  0  0  0  0  0  0  0  0
   36.5660   32.8484   39.7341 H   0  0  0  0  0  0  0  0  0  0  0  0
   40.9860   24.8676   40.6467 H   0  0  0  0  0  0  0  0  0  0  0  0
   42.7679   24.9215   43.9361 H   0  0  0  0  0  0  0  0  0  0  0  0
   42.9183   24.3519   42.2522 H   0  0  0  0  0  0  0  0  0  0  0  0
  1  5  1  0
  1 11  1  0
  2  1  1  0
  3  2  1  0
  3  4  1  0
  4  5  1  0
  5 20  1  0
  6  7  1  0
  7  8  2  0
  9 10  2  0
  9  8  1  0
 11  9  1  0
 12 11  1  0
 12  6  1  0
 13 12  2  0
 14 15  2  0
 14  6  1  0
 16 15  1  0
 17 16  2  0
 18 17  1  0
 18 19  2  0
 19 14  1  0
 20 21  1  0
 21 23  1  0
 21 22  2  0
 22 24  1  0
  1 25  1  6
  2 26  1  0
  2 27  1  0
  3 28  1  0
  3 29  1  0
  4 30  1  0
  4 31  1  0
  5 32  1  1
  7 33  1  0
  8 34  1  0
 15 35  1  0
 16 36  1  0
 18 37  1  0
 20 38  1  0
 23 39  1  0
 23 40  1  0
M  ISO  8  25  13  26  13  27  13  28  13  29  13  30  13  31  13  32  13
M  ISO  5  33  14  34  14  35  14  36  14  37  14
M  END
>  <minimizedAffinity>  (1) 
-5.64220381

>  <minimizedRMSD>  (1) 
0.762896121

$$$$
