
     RDKit          3D

 46 49  0  0  1  0  0  0  0  0999 V2000
   37.7900   29.4750   41.6020 N   0  0  0  0  0  0  0  0  0  0  0  0
   37.3500   29.2050   42.8230 C   0  0  0  0  0  0  0  0  0  0  0  0
   37.0150   27.9310   43.2410 C   0  0  0  0  0  0  0  0  0  0  0  0
   37.1280   26.8550   42.3780 C   0  0  0  0  0  0  0  0  0  0  0  0
   36.8300   25.7180   42.7500 O   0  0  0  0  0  0  0  0  0  0  0  0
   37.5800   27.1700   41.1430 N   0  0  0  0  0  0  0  0  0  0  0  0
   37.8930   28.4250   40.7840 C   0  0  0  0  0  0  0  0  0  0  0  0
   38.3100   28.6130   39.5950 O   0  0  0  0  0  0  0  0  0  0  0  0
   37.7310   26.1020   40.1830 C   0  0  2  0  0  0  0  0  0  0  0  0
   36.7440   25.0040   40.2910 C   0  0  0  0  0  0  0  0  0  0  0  0
   37.4200   23.8530   39.5570 C   0  0  0  0  0  0  0  0  0  0  0  0
   38.7910   23.9120   40.1660 C   0  0  0  0  0  0  0  0  0  0  0  0
   39.0540   25.3850   40.2830 C   0  0  2  0  0  0  0  0  0  0  0  0
   39.9190   25.8010   41.3340 N   0  0  0  0  0  0  0  0  0  0  0  0
   40.2190   24.7620   42.2970 C   0  0  0  0  0  0  0  0  0  0  0  0
   41.2210   25.3320   43.2800 C   0  0  0  0  0  0  0  0  0  0  0  0
   42.4810   25.4750   42.7150 O   0  0  0  0  0  0  0  0  0  0  0  0
   42.3500   25.3260   41.3500 C   0  0  0  0  0  0  0  0  0  0  0  0
   41.2270   26.1560   40.7530 C   0  0  0  0  0  0  0  0  0  0  0  0
   38.1350   30.7760   41.1700 C   0  0  0  0  0  0  0  0  0  0  0  0
   39.4350   31.3510   41.3350 C   0  0  0  0  0  0  0  0  0  0  0  0
   39.6360   32.6440   40.8600 C   0  0  0  0  0  0  0  0  0  0  0  0
   38.5940   33.2770   40.2740 N   0  0  0  0  0  0  0  0  0  0  0  0
   37.3750   32.7210   40.1270 C   0  0  0  0  0  0  0  0  0  0  0  0
   37.1720   31.4770   40.5800 N   0  0  0  0  0  0  0  0  0  0  0  0
   37.2466   30.0347   43.5377 H   0  0  0  0  0  0  0  0  0  0  0  0
   36.6555   27.7709   44.2682 H   0  0  0  0  0  0  0  0  0  0  0  0
   37.6072   26.6601   39.2432 H   0  0  0  0  0  0  0  0  0  0  0  0
   36.5566   24.7445   41.3434 H   0  0  0  0  0  0  0  0  0  0  0  0
   35.7615   25.2650   39.8709 H   0  0  0  0  0  0  0  0  0  0  0  0
   37.4498   24.0249   38.4709 H   0  0  0  0  0  0  0  0  0  0  0  0
   36.9132   22.8820   39.6589 H   0  0  0  0  0  0  0  0  0  0  0  0
   38.8041   23.4297   41.1545 H   0  0  0  0  0  0  0  0  0  0  0  0
   39.5501   23.3854   39.5690 H   0  0  0  0  0  0  0  0  0  0  0  0
   39.6874   25.6894   39.4368 H   0  0  0  0  0  0  0  0  0  0  0  0
   39.3019   24.4630   42.8256 H   0  0  0  0  0  0  0  0  0  0  0  0
   40.6293   23.8734   41.7949 H   0  0  0  0  0  0  0  0  0  0  0  0
   40.8680   26.3185   43.6149 H   0  0  0  0  0  0  0  0  0  0  0  0
   41.3049   24.6315   44.1240 H   0  0  0  0  0  0  0  0  0  0  0  0
   43.2954   25.6270   40.8750 H   0  0  0  0  0  0  0  0  0  0  0  0
   42.1055   24.2700   41.1627 H   0  0  0  0  0  0  0  0  0  0  0  0
   41.1938   25.9826   39.6673 H   0  0  0  0  0  0  0  0  0  0  0  0
   41.4261   27.2144   40.9770 H   0  0  0  0  0  0  0  0  0  0  0  0
   40.2475   30.7905   41.8205 H   0  0  0  0  0  0  0  0  0  0  0  0
   40.6144   33.1370   40.9584 H   0  0  0  0  0  0  0  0  0  0  0  0
   36.5604   33.2797   39.6430 H   0  0  0  0  0  0  0  0  0  0  0  0
  1  2  1  0
  2  3  2  0
  4  5  2  0
  4  3  1  0
  6  4  1  0
  7  6  1  0
  7  1  1  0
  8  7  2  0
  9 13  1  0
  9 10  1  0
  9  6  1  0
 11 12  1  0
 11 10  1  0
 12 13  1  0
 13 14  1  0
 14 15  1  0
 15 16  1  0
 17 16  1  0
 18 17  1  0
 19 14  1  0
 19 18  1  0
 20 21  2  0
 20  1  1  0
 22 21  1  0
 23 22  2  0
 24 23  1  0
 24 25  2  0
 25 20  1  0
  2 26  1  0
  3 27  1  0
  9 28  1  6
 10 29  1  0
 10 30  1  0
 11 31  1  0
 11 32  1  0
 12 33  1  0
 12 34  1  0
 13 35  1  6
 15 36  1  0
 15 37  1  0
 16 38  1  0
 16 39  1  0
 18 40  1  0
 18 41  1  0
 19 42  1  0
 19 43  1  0
 21 44  1  0
 22 45  1  0
 24 46  1  0
M  ISO  8  26  14  27  14  28  13  29  13  30  13  31  13  32  13  33  13
M  ISO  8  34  13  35  13  36  13  37  13  38  13  39  13  40  13  41  13
M  ISO  5  42  13  43  13  44  14  45  14  46  14
M  END
>  <minimizedAffinity>  (1) 
-5.35849714

>  <minimizedRMSD>  (1) 
1.31173813

$$$$
