
     RDKit          3D

 47 50  0  0  1  0  0  0  0  0999 V2000
   38.0470   25.5730   40.4100 C   0  0  2  0  0  0  0  0  0  0  0  0
   36.9700   24.7110   39.9160 C   0  0  0  0  0  0  0  0  0  0  0  0
   37.7200   23.4530   39.4620 C   0  0  0  0  0  0  0  0  0  0  0  0
   38.6390   23.2420   40.6050 C   0  0  0  0  0  0  0  0  0  0  0  0
   39.0100   24.6170   41.0850 C   0  0  1  0  0  0  0  0  0  0  0  0
   37.5690   28.9520   41.7760 N   0  0  0  0  0  0  0  0  0  0  0  0
   36.9330   28.6480   42.8940 C   0  0  0  0  0  0  0  0  0  0  0  0
   36.6270   27.3570   43.2640 C   0  0  0  0  0  0  0  0  0  0  0  0
   36.9900   26.2870   42.4480 C   0  0  0  0  0  0  0  0  0  0  0  0
   36.7210   25.1240   42.7700 O   0  0  0  0  0  0  0  0  0  0  0  0
   37.6350   26.6360   41.3210 N   0  0  0  0  0  0  0  0  0  0  0  0
   37.9090   27.9150   41.0060 C   0  0  0  0  0  0  0  0  0  0  0  0
   38.5250   28.1370   39.9150 O   0  0  0  0  0  0  0  0  0  0  0  0
   37.8880   30.2790   41.3890 C   0  0  0  0  0  0  0  0  0  0  0  0
   39.1310   30.9190   41.7110 C   0  0  0  0  0  0  0  0  0  0  0  0
   39.2980   32.2350   41.2580 C   0  0  0  0  0  0  0  0  0  0  0  0
   38.2980   32.8170   40.5540 N   0  0  0  0  0  0  0  0  0  0  0  0
   37.1490   32.1910   40.2710 C   0  0  0  0  0  0  0  0  0  0  0  0
   36.9640   30.9320   40.6940 N   0  0  0  0  0  0  0  0  0  0  0  0
   40.3500   24.9850   40.9280 N   0  0  0  0  0  0  0  0  0  0  0  0
   40.9780   25.8110   41.8830 C   0  0  0  0  0  0  0  0  0  0  0  0
   42.4530   25.3850   41.9170 C   0  0  0  0  0  0  0  0  0  0  0  0
   42.8550   24.8690   40.6190 N   0  0  0  0  0  0  0  0  0  0  0  0
   42.1950   25.5910   39.5210 C   0  0  0  0  0  0  0  0  0  0  0  0
   40.7030   25.3620   39.5970 C   0  0  0  0  0  0  0  0  0  0  0  0
   38.4843   26.1347   39.5714 H   0  0  0  0  0  0  0  0  0  0  0  0
   36.2520   24.4768   40.7158 H   0  0  0  0  0  0  0  0  0  0  0  0
   36.3746   25.1747   39.1157 H   0  0  0  0  0  0  0  0  0  0  0  0
   37.0368   22.6010   39.3307 H   0  0  0  0  0  0  0  0  0  0  0  0
   38.2230   23.5521   38.4888 H   0  0  0  0  0  0  0  0  0  0  0  0
   38.1346   22.6794   41.4044 H   0  0  0  0  0  0  0  0  0  0  0  0
   39.5255   22.6603   40.3123 H   0  0  0  0  0  0  0  0  0  0  0  0
   38.9151   24.6432   42.1806 H   0  0  0  0  0  0  0  0  0  0  0  0
   36.6327   29.4678   43.5631 H   0  0  0  0  0  0  0  0  0  0  0  0
   36.0938   27.1697   44.2077 H   0  0  0  0  0  0  0  0  0  0  0  0
   39.9144   30.4025   42.2851 H   0  0  0  0  0  0  0  0  0  0  0  0
   40.2260   32.7860   41.4708 H   0  0  0  0  0  0  0  0  0  0  0  0
   36.3639   32.7046   39.6968 H   0  0  0  0  0  0  0  0  0  0  0  0
   40.8932   26.8672   41.5878 H   0  0  0  0  0  0  0  0  0  0  0  0
   40.5086   25.7070   42.8724 H   0  0  0  0  0  0  0  0  0  0  0  0
   43.0768   26.2545   42.1717 H   0  0  0  0  0  0  0  0  0  0  0  0
   42.5822   24.5966   42.6731 H   0  0  0  0  0  0  0  0  0  0  0  0
   43.8752   24.9708   40.5203 H   0  0  0  0  0  0  0  0  0  0  0  0
   42.5748   25.2207   38.5573 H   0  0  0  0  0  0  0  0  0  0  0  0
   42.4072   26.6668   39.6079 H   0  0  0  0  0  0  0  0  0  0  0  0
   40.1750   26.2879   39.3252 H   0  0  0  0  0  0  0  0  0  0  0  0
   40.4175   24.5608   38.8994 H   0  0  0  0  0  0  0  0  0  0  0  0
  1  5  1  0
  1 11  1  0
  2  1  1  0
  3  2  1  0
  3  4  1  0
  4  5  1  0
  6  7  1  0
  7  8  2  0
  9 10  2  0
  9  8  1  0
 11  9  1  0
 12 11  1  0
 12  6  1  0
 13 12  2  0
 14 15  2  0
 14  6  1  0
 16 15  1  0
 17 16  2  0
 18 17  1  0
 18 19  2  0
 19 14  1  0
 20  5  1  0
 20 21  1  0
 21 22  1  0
 23 22  1  0
 24 25  1  0
 24 23  1  0
 25 20  1  0
  1 26  1  6
  2 27  1  0
  2 28  1  0
  3 29  1  0
  3 30  1  0
  4 31  1  0
  4 32  1  0
  5 33  1  1
  7 34  1  0
  8 35  1  0
 15 36  1  0
 16 37  1  0
 18 38  1  0
 21 39  1  0
 21 40  1  0
 22 41  1  0
 22 42  1  0
 23 43  1  0
 24 44  1  0
 24 45  1  0
 25 46  1  0
 25 47  1  0
M  ISO  8  26  13  27  13  28  13  29  13  30  13  31  13  32  13  33  13
M  ISO  8  34  14  35  14  36  14  37  14  38  14  39  13  40  13  41  13
M  ISO  6  42  13  43   5  44  13  45  13  46  13  47  13
M  END
>  <minimizedAffinity>  (1) 
-5.27387285

>  <minimizedRMSD>  (1) 
0.37774229

$$$$
