
     RDKit          3D

 41 44  0  0  1  0  0  0  0  0999 V2000
   37.6420   25.5390   40.3730 C   0  0  2  0  0  0  0  0  0  0  0  0
   36.4520   24.8320   39.8910 C   0  0  0  0  0  0  0  0  0  0  0  0
   37.0520   23.5090   39.3650 C   0  0  0  0  0  0  0  0  0  0  0  0
   37.9460   23.1320   40.4880 C   0  0  0  0  0  0  0  0  0  0  0  0
   38.5240   24.4490   40.9540 C   0  0  1  0  0  0  0  0  0  0  0  0
   37.5520   28.9040   41.8580 N   0  0  0  0  0  0  0  0  0  0  0  0
   37.0110   28.6130   43.0260 C   0  0  0  0  0  0  0  0  0  0  0  0
   36.6510   27.3260   43.3980 C   0  0  0  0  0  0  0  0  0  0  0  0
   36.8540   26.2590   42.5240 C   0  0  0  0  0  0  0  0  0  0  0  0
   36.5390   25.1090   42.8440 O   0  0  0  0  0  0  0  0  0  0  0  0
   37.4130   26.6100   41.3360 N   0  0  0  0  0  0  0  0  0  0  0  0
   37.7380   27.8630   41.0340 C   0  0  0  0  0  0  0  0  0  0  0  0
   38.2580   28.0800   39.8910 O   0  0  0  0  0  0  0  0  0  0  0  0
   37.9200   30.2090   41.4720 C   0  0  0  0  0  0  0  0  0  0  0  0
   39.1950   30.8000   41.7570 C   0  0  0  0  0  0  0  0  0  0  0  0
   39.3960   32.1130   41.2980 C   0  0  0  0  0  0  0  0  0  0  0  0
   38.4040   32.7320   40.6310 N   0  0  0  0  0  0  0  0  0  0  0  0
   37.2190   32.1560   40.3780 C   0  0  0  0  0  0  0  0  0  0  0  0
   36.9890   30.9080   40.7980 N   0  0  0  0  0  0  0  0  0  0  0  0
   39.8740   24.5740   40.3530 C   0  0  0  0  0  0  0  0  0  0  0  0
   40.2970   24.1590   39.1320 C   0  0  0  0  0  0  0  0  0  0  0  0
   41.5970   24.3500   38.7120 C   0  0  0  0  0  0  0  0  0  0  0  0
   42.4320   24.9600   39.5510 N   0  0  0  0  0  0  0  0  0  0  0  0
   42.0380   25.3760   40.7570 C   0  0  0  0  0  0  0  0  0  0  0  0
   40.7730   25.1930   41.1710 N   0  0  0  0  0  0  0  0  0  0  0  0
   38.0973   26.0863   39.5344 H   0  0  0  0  0  0  0  0  0  0  0  0
   35.7379   24.6497   40.7076 H   0  0  0  0  0  0  0  0  0  0  0  0
   35.8815   25.3907   39.1345 H   0  0  0  0  0  0  0  0  0  0  0  0
   36.2725   22.7510   39.1982 H   0  0  0  0  0  0  0  0  0  0  0  0
   37.5602   23.5982   38.3935 H   0  0  0  0  0  0  0  0  0  0  0  0
   37.3769   22.6475   41.2950 H   0  0  0  0  0  0  0  0  0  0  0  0
   38.7216   22.4120   40.1881 H   0  0  0  0  0  0  0  0  0  0  0  0
   38.5771   24.5177   42.0506 H   0  0  0  0  0  0  0  0  0  0  0  0
   36.8369   29.4315   43.7399 H   0  0  0  0  0  0  0  0  0  0  0  0
   36.2035   27.1466   44.3867 H   0  0  0  0  0  0  0  0  0  0  0  0
   39.9757   30.2537   42.3067 H   0  0  0  0  0  0  0  0  0  0  0  0
   40.3507   32.6278   41.4812 H   0  0  0  0  0  0  0  0  0  0  0  0
   36.4417   32.7072   39.8285 H   0  0  0  0  0  0  0  0  0  0  0  0
   39.5849   23.6575   38.4601 H   0  0  0  0  0  0  0  0  0  0  0  0
   41.9316   24.0109   37.7205 H   0  0  0  0  0  0  0  0  0  0  0  0
   42.7591   25.8755   41.4208 H   0  0  0  0  0  0  0  0  0  0  0  0
  1  5  1  0
  1 11  1  0
  2  1  1  0
  3  2  1  0
  3  4  1  0
  4  5  1  0
  6  7  1  0
  7  8  2  0
  9 10  2  0
  9  8  1  0
 11  9  1  0
 12 11  1  0
 12  6  1  0
 13 12  2  0
 14 15  2  0
 14  6  1  0
 16 15  1  0
 17 16  2  0
 18 17  1  0
 18 19  2  0
 19 14  1  0
 20  5  1  0
 20 25  1  0
 21 20  2  0
 22 21  1  0
 22 23  2  0
 23 24  1  0
 24 25  2  0
  1 26  1  6
  2 27  1  0
  2 28  1  0
  3 29  1  0
  3 30  1  0
  4 31  1  0
  4 32  1  0
  5 33  1  1
  7 34  1  0
  8 35  1  0
 15 36  1  0
 16 37  1  0
 18 38  1  0
 21 39  1  0
 22 40  1  0
 24 41  1  0
M  ISO  8  26  13  27  13  28  13  29  13  30  13  31  13  32  13  33  13
M  ISO  8  34  14  35  14  36  14  37  14  38  14  39  14  40  14  41  14
M  END
>  <minimizedAffinity>  (1) 
-5.26642561

>  <minimizedRMSD>  (1) 
0.630061686

$$$$
