
     RDKit          3D

 45 48  0  0  1  0  0  0  0  0999 V2000
   37.6950   29.0680   41.7860 N   0  0  0  0  0  0  0  0  0  0  0  0
   36.9160   28.7950   42.8190 C   0  0  0  0  0  0  0  0  0  0  0  0
   36.5680   27.5100   43.1840 C   0  0  0  0  0  0  0  0  0  0  0  0
   37.0350   26.4210   42.4600 C   0  0  0  0  0  0  0  0  0  0  0  0
   36.7300   25.2690   42.7800 O   0  0  0  0  0  0  0  0  0  0  0  0
   37.8260   26.7380   41.4160 N   0  0  0  0  0  0  0  0  0  0  0  0
   38.1360   28.0100   41.1020 C   0  0  0  0  0  0  0  0  0  0  0  0
   38.8910   28.2030   40.0950 O   0  0  0  0  0  0  0  0  0  0  0  0
   38.3590   25.6520   40.6020 C   0  0  2  0  0  0  0  0  0  0  0  0
   37.3940   25.0010   39.7130 C   0  0  0  0  0  0  0  0  0  0  0  0
   38.0710   23.6560   39.4180 C   0  0  0  0  0  0  0  0  0  0  0  0
   38.4890   23.2440   40.7830 C   0  0  0  0  0  0  0  0  0  0  0  0
   38.8820   24.5240   41.4590 C   0  0  1  0  0  0  0  0  0  0  0  0
   40.2530   24.6580   41.7560 N   0  0  0  0  0  0  0  0  0  0  0  0
   40.6270   25.2000   43.0110 C   0  0  0  0  0  0  0  0  0  0  0  0
   42.1600   25.1870   42.9020 C   0  0  0  0  0  0  0  0  0  0  0  0
   42.3480   25.6390   41.4680 C   0  0  0  0  0  0  0  0  0  0  0  0
   41.0180   25.3810   40.7900 C   0  0  0  0  0  0  0  0  0  0  0  0
   38.0560   30.3840   41.4070 C   0  0  0  0  0  0  0  0  0  0  0  0
   39.3060   30.9930   41.7530 C   0  0  0  0  0  0  0  0  0  0  0  0
   39.5120   32.3040   41.3020 C   0  0  0  0  0  0  0  0  0  0  0  0
   38.5500   32.9080   40.5840 N   0  0  0  0  0  0  0  0  0  0  0  0
   37.3810   32.3110   40.2730 C   0  0  0  0  0  0  0  0  0  0  0  0
   37.1630   31.0600   40.6940 N   0  0  0  0  0  0  0  0  0  0  0  0
   36.5264   29.6324   43.4164 H   0  0  0  0  0  0  0  0  0  0  0  0
   35.9159   27.3475   44.0548 H   0  0  0  0  0  0  0  0  0  0  0  0
   39.1331   26.1619   40.0097 H   0  0  0  0  0  0  0  0  0  0  0  0
   36.4255   24.8573   40.2143 H   0  0  0  0  0  0  0  0  0  0  0  0
   37.1660   25.5853   38.8093 H   0  0  0  0  0  0  0  0  0  0  0  0
   37.3653   22.9365   38.9772 H   0  0  0  0  0  0  0  0  0  0  0  0
   38.8932   23.7122   38.6894 H   0  0  0  0  0  0  0  0  0  0  0  0
   37.6556   22.7630   41.3160 H   0  0  0  0  0  0  0  0  0  0  0  0
   39.3096   22.5117   40.7655 H   0  0  0  0  0  0  0  0  0  0  0  0
   38.4294   24.5380   42.4615 H   0  0  0  0  0  0  0  0  0  0  0  0
   40.2414   26.2222   43.1389 H   0  0  0  0  0  0  0  0  0  0  0  0
   40.2329   24.6459   43.8757 H   0  0  0  0  0  0  0  0  0  0  0  0
   42.6220   25.8893   43.6114 H   0  0  0  0  0  0  0  0  0  0  0  0
   42.6246   24.2183   43.1382 H   0  0  0  0  0  0  0  0  0  0  0  0
   42.5980   26.7096   41.4311 H   0  0  0  0  0  0  0  0  0  0  0  0
   43.1713   25.1027   40.9735 H   0  0  0  0  0  0  0  0  0  0  0  0
   40.5228   26.3292   40.5337 H   0  0  0  0  0  0  0  0  0  0  0  0
   41.1320   24.8245   39.8480 H   0  0  0  0  0  0  0  0  0  0  0  0
   40.0655   30.4587   42.3427 H   0  0  0  0  0  0  0  0  0  0  0  0
   40.4491   32.8317   41.5328 H   0  0  0  0  0  0  0  0  0  0  0  0
   36.6202   32.8436   39.6835 H   0  0  0  0  0  0  0  0  0  0  0  0
  1  2  1  0
  2  3  2  0
  4  5  2  0
  4  3  1  0
  6  4  1  0
  7  6  1  0
  7  1  1  0
  8  7  2  0
  9  6  1  0
  9 13  1  0
 10  9  1  0
 11 10  1  0
 11 12  1  0
 12 13  1  0
 13 14  1  0
 14 15  1  0
 16 15  1  0
 17 16  1  0
 18 17  1  0
 18 14  1  0
 19 20  2  0
 19  1  1  0
 21 20  1  0
 22 21  2  0
 23 22  1  0
 23 24  2  0
 24 19  1  0
  2 25  1  0
  3 26  1  0
  9 27  1  6
 10 28  1  0
 10 29  1  0
 11 30  1  0
 11 31  1  0
 12 32  1  0
 12 33  1  0
 13 34  1  1
 15 35  1  0
 15 36  1  0
 16 37  1  0
 16 38  1  0
 17 39  1  0
 17 40  1  0
 18 41  1  0
 18 42  1  0
 20 43  1  0
 21 44  1  0
 23 45  1  0
M  ISO  8  25  14  26  14  27  13  28  13  29  13  30  13  31  13  32  13
M  ISO  8  33  13  34  13  35  13  36  13  37  13  38  13  39  13  40  13
M  ISO  5  41  13  42  13  43  14  44  14  45  14
M  END
>  <minimizedAffinity>  (1) 
-5.25069094

>  <minimizedRMSD>  (1) 
0.895129323

$$$$
