
     RDKit          3D

 46 49  0  0  1  0  0  0  0  0999 V2000
   38.4600   29.5300   41.9290 N   0  0  0  0  0  0  0  0  0  0  0  0
   37.8620   29.3900   43.1050 C   0  0  0  0  0  0  0  0  0  0  0  0
   37.2340   28.2260   43.5060 C   0  0  0  0  0  0  0  0  0  0  0  0
   37.2070   27.1200   42.6580 C   0  0  0  0  0  0  0  0  0  0  0  0
   36.6500   26.0720   43.0020 O   0  0  0  0  0  0  0  0  0  0  0  0
   37.8260   27.2990   41.4690 N   0  0  0  0  0  0  0  0  0  0  0  0
   38.4200   28.4560   41.1340 C   0  0  0  0  0  0  0  0  0  0  0  0
   38.9740   28.5210   39.9930 O   0  0  0  0  0  0  0  0  0  0  0  0
   37.8350   26.1890   40.5400 C   0  0  2  0  0  0  0  0  0  0  0  0
   36.5650   25.9180   39.8620 C   0  0  0  0  0  0  0  0  0  0  0  0
   36.7200   24.4570   39.4150 C   0  0  0  0  0  0  0  0  0  0  0  0
   37.3130   23.8270   40.6150 C   0  0  0  0  0  0  0  0  0  0  0  0
   38.1790   24.8830   41.2340 C   0  0  1  0  0  0  0  0  0  0  0  0
   39.5990   24.4790   41.1290 C   0  0  0  0  0  0  0  0  0  0  0  0
   40.2590   24.7880   42.4670 C   0  0  0  0  0  0  0  0  0  0  0  0
   41.4220   25.7010   42.1520 C   0  0  0  0  0  0  0  0  0  0  0  0
   41.8090   25.2250   40.7690 C   0  0  0  0  0  0  0  0  0  0  0  0
   40.4270   25.1620   40.1070 C   0  0  0  0  0  0  0  0  0  0  0  0
   39.1000   30.7170   41.5200 C   0  0  0  0  0  0  0  0  0  0  0  0
   40.5060   30.9540   41.6430 C   0  0  0  0  0  0  0  0  0  0  0  0
   40.9930   32.1830   41.1920 C   0  0  0  0  0  0  0  0  0  0  0  0
   40.1160   33.0690   40.6700 N   0  0  0  0  0  0  0  0  0  0  0  0
   38.8020   32.8280   40.5650 C   0  0  0  0  0  0  0  0  0  0  0  0
   38.3200   31.6530   40.9930 N   0  0  0  0  0  0  0  0  0  0  0  0
   37.8662   30.2450   43.7970 H   0  0  0  0  0  0  0  0  0  0  0  0
   36.7552   28.1723   44.4949 H   0  0  0  0  0  0  0  0  0  0  0  0
   38.5847   26.5116   39.8025 H   0  0  0  0  0  0  0  0  0  0  0  0
   35.7158   26.0329   40.5516 H   0  0  0  0  0  0  0  0  0  0  0  0
   36.3609   26.6077   39.0297 H   0  0  0  0  0  0  0  0  0  0  0  0
   35.7458   24.0092   39.1691 H   0  0  0  0  0  0  0  0  0  0  0  0
   37.3263   24.3344   38.5054 H   0  0  0  0  0  0  0  0  0  0  0  0
   36.5242   23.5168   41.3161 H   0  0  0  0  0  0  0  0  0  0  0  0
   37.8881   22.9245   40.3606 H   0  0  0  0  0  0  0  0  0  0  0  0
   38.0012   25.0171   42.3112 H   0  0  0  0  0  0  0  0  0  0  0  0
   39.5623   23.4195   40.8354 H   0  0  0  0  0  0  0  0  0  0  0  0
   39.5474   25.2917   43.1378 H   0  0  0  0  0  0  0  0  0  0  0  0
   40.5907   23.8710   42.9759 H   0  0  0  0  0  0  0  0  0  0  0  0
   41.1136   26.7568   42.1425 H   0  0  0  0  0  0  0  0  0  0  0  0
   42.2391   25.6585   42.8872 H   0  0  0  0  0  0  0  0  0  0  0  0
   42.4713   25.9420   40.2619 H   0  0  0  0  0  0  0  0  0  0  0  0
   42.3745   24.2817   40.7471 H   0  0  0  0  0  0  0  0  0  0  0  0
   40.0429   26.1711   39.8968 H   0  0  0  0  0  0  0  0  0  0  0  0
   40.4340   24.6431   39.1371 H   0  0  0  0  0  0  0  0  0  0  0  0
   41.1772   30.1976   42.0759 H   0  0  0  0  0  0  0  0  0  0  0  0
   42.0641   32.4239   41.2600 H   0  0  0  0  0  0  0  0  0  0  0  0
   38.1288   33.5836   40.1338 H   0  0  0  0  0  0  0  0  0  0  0  0
  1  2  1  0
  2  3  2  0
  4  5  2  0
  4  3  1  0
  6  4  1  0
  7  6  1  0
  7  1  1  0
  8  7  2  0
  9 13  1  0
  9  6  1  0
 10  9  1  0
 11 10  1  0
 11 12  1  0
 12 13  1  0
 14 13  1  0
 14 15  1  0
 16 15  1  0
 17 16  1  0
 18 17  1  0
 18 14  1  0
 19 20  2  0
 19  1  1  0
 21 20  1  0
 22 21  2  0
 23 22  1  0
 23 24  2  0
 24 19  1  0
  2 25  1  0
  3 26  1  0
  9 27  1  6
 10 28  1  0
 10 29  1  0
 11 30  1  0
 11 31  1  0
 12 32  1  0
 12 33  1  0
 13 34  1  1
 14 35  1  0
 15 36  1  0
 15 37  1  0
 16 38  1  0
 16 39  1  0
 17 40  1  0
 17 41  1  0
 18 42  1  0
 18 43  1  0
 20 44  1  0
 21 45  1  0
 23 46  1  0
M  ISO  8  25  14  26  14  27  13  28  13  29  13  30  13  31  13  32  13
M  ISO  8  33  13  34  13  35  13  36  13  37  13  38  13  39  13  40  13
M  ISO  6  41  13  42  13  43  13  44  14  45  14  46  14
M  END
>  <minimizedAffinity>  (1) 
-5.2288723

>  <minimizedRMSD>  (1) 
1.24232566

$$$$
