
     RDKit          3D

 40 43  0  0  1  0  0  0  0  0999 V2000
   37.5590   28.9000   41.8440 N   0  0  0  0  0  0  0  0  0  0  0  0
   37.0150   28.6040   43.0240 C   0  0  0  0  0  0  0  0  0  0  0  0
   36.6620   27.3250   43.3900 C   0  0  0  0  0  0  0  0  0  0  0  0
   36.8630   26.2570   42.5140 C   0  0  0  0  0  0  0  0  0  0  0  0
   36.5460   25.1000   42.8390 O   0  0  0  0  0  0  0  0  0  0  0  0
   37.4170   26.5960   41.3260 N   0  0  0  0  0  0  0  0  0  0  0  0
   37.7460   27.8620   41.0150 C   0  0  0  0  0  0  0  0  0  0  0  0
   38.2600   28.0730   39.8730 O   0  0  0  0  0  0  0  0  0  0  0  0
   37.6540   25.5340   40.3690 C   0  0  2  0  0  0  0  0  0  0  0  0
   36.4820   24.7820   39.9380 C   0  0  0  0  0  0  0  0  0  0  0  0
   37.0880   23.4730   39.4120 C   0  0  0  0  0  0  0  0  0  0  0  0
   38.0850   23.1550   40.4580 C   0  0  0  0  0  0  0  0  0  0  0  0
   38.6130   24.4850   40.9320 C   0  0  1  0  0  0  0  0  0  0  0  0
   40.0100   24.7470   40.5850 C   0  0  0  0  0  0  0  0  0  0  0  0
   40.8980   25.3320   41.4610 C   0  0  0  0  0  0  0  0  0  0  0  0
   42.1060   25.4120   40.7750 C   0  0  0  0  0  0  0  0  0  0  0  0
   41.8450   24.8590   39.5160 C   0  0  0  0  0  0  0  0  0  0  0  0
   40.5860   24.4780   39.4510 O   0  0  0  0  0  0  0  0  0  0  0  0
   37.9210   30.2060   41.4660 C   0  0  0  0  0  0  0  0  0  0  0  0
   39.1810   30.8120   41.7490 C   0  0  0  0  0  0  0  0  0  0  0  0
   39.3750   32.1180   41.2990 C   0  0  0  0  0  0  0  0  0  0  0  0
   38.3750   32.7390   40.6260 N   0  0  0  0  0  0  0  0  0  0  0  0
   37.1980   32.1480   40.3720 C   0  0  0  0  0  0  0  0  0  0  0  0
   37.0060   30.8980   40.7980 N   0  0  0  0  0  0  0  0  0  0  0  0
   36.8397   29.4208   43.7396 H   0  0  0  0  0  0  0  0  0  0  0  0
   36.2183   27.1431   44.3800 H   0  0  0  0  0  0  0  0  0  0  0  0
   38.0545   26.0863   39.5061 H   0  0  0  0  0  0  0  0  0  0  0  0
   35.8016   24.5922   40.7812 H   0  0  0  0  0  0  0  0  0  0  0  0
   35.8773   25.3127   39.1879 H   0  0  0  0  0  0  0  0  0  0  0  0
   36.3263   22.6834   39.3322 H   0  0  0  0  0  0  0  0  0  0  0  0
   37.5153   23.5559   38.4018 H   0  0  0  0  0  0  0  0  0  0  0  0
   37.6103   22.6121   41.2886 H   0  0  0  0  0  0  0  0  0  0  0  0
   38.8894   22.5118   40.0717 H   0  0  0  0  0  0  0  0  0  0  0  0
   38.6402   24.5054   42.0315 H   0  0  0  0  0  0  0  0  0  0  0  0
   40.6944   25.6663   42.4890 H   0  0  0  0  0  0  0  0  0  0  0  0
   43.0588   25.8209   41.1423 H   0  0  0  0  0  0  0  0  0  0  0  0
   42.5800   24.7579   38.7039 H   0  0  0  0  0  0  0  0  0  0  0  0
   39.9662   30.2724   42.2987 H   0  0  0  0  0  0  0  0  0  0  0  0
   40.3263   32.6371   41.4875 H   0  0  0  0  0  0  0  0  0  0  0  0
   36.4078   32.6823   39.8242 H   0  0  0  0  0  0  0  0  0  0  0  0
  1  2  1  0
  2  3  2  0
  4  5  2  0
  4  3  1  0
  6  4  1  0
  7  6  1  0
  7  1  1  0
  8  7  2  0
  9 13  1  0
  9  6  1  0
 10  9  1  0
 11 10  1  0
 11 12  1  0
 12 13  1  0
 14 13  1  0
 14 15  2  0
 16 15  1  0
 17 16  2  0
 18 17  1  0
 18 14  1  0
 19 20  2  0
 19  1  1  0
 21 20  1  0
 22 21  2  0
 23 22  1  0
 23 24  2  0
 24 19  1  0
  2 25  1  0
  3 26  1  0
  9 27  1  6
 10 28  1  0
 10 29  1  0
 11 30  1  0
 11 31  1  0
 12 32  1  0
 12 33  1  0
 13 34  1  1
 15 35  1  0
 16 36  1  0
 17 37  1  0
 20 38  1  0
 21 39  1  0
 23 40  1  0
M  ISO  8  25  14  26  14  27  13  28  13  29  13  30  13  31  13  32  13
M  ISO  8  33  13  34  13  35  14  36  14  37  14  38  14  39  14  40  14
M  END
>  <minimizedAffinity>  (1) 
-5.21294928

>  <minimizedRMSD>  (1) 
0.474765658

$$$$
