
     RDKit          3D

 40 43  0  0  1  0  0  0  0  0999 V2000
   38.0160   25.5680   40.4430 C   0  0  2  0  0  0  0  0  0  0  0  0
   36.9380   24.7490   39.9070 C   0  0  0  0  0  0  0  0  0  0  0  0
   37.6720   23.4660   39.4590 C   0  0  0  0  0  0  0  0  0  0  0  0
   38.5460   23.2060   40.6310 C   0  0  0  0  0  0  0  0  0  0  0  0
   38.9530   24.5640   41.1020 C   0  0  1  0  0  0  0  0  0  0  0  0
   37.6610   28.9450   41.8140 N   0  0  0  0  0  0  0  0  0  0  0  0
   36.9960   28.6520   42.9390 C   0  0  0  0  0  0  0  0  0  0  0  0
   36.6430   27.3600   43.2890 C   0  0  0  0  0  0  0  0  0  0  0  0
   36.9740   26.2880   42.4630 C   0  0  0  0  0  0  0  0  0  0  0  0
   36.6630   25.1300   42.7670 O   0  0  0  0  0  0  0  0  0  0  0  0
   37.6470   26.6410   41.3370 N   0  0  0  0  0  0  0  0  0  0  0  0
   37.9680   27.9000   41.0370 C   0  0  0  0  0  0  0  0  0  0  0  0
   38.5990   28.1190   39.9560 O   0  0  0  0  0  0  0  0  0  0  0  0
   38.0210   30.2580   41.4590 C   0  0  0  0  0  0  0  0  0  0  0  0
   39.2670   30.8660   41.7690 C   0  0  0  0  0  0  0  0  0  0  0  0
   39.4590   32.1860   41.3370 C   0  0  0  0  0  0  0  0  0  0  0  0
   38.4700   32.8030   40.6600 N   0  0  0  0  0  0  0  0  0  0  0  0
   37.2920   32.2050   40.3740 C   0  0  0  0  0  0  0  0  0  0  0  0
   37.0870   30.9470   40.7770 N   0  0  0  0  0  0  0  0  0  0  0  0
   40.3340   24.8740   40.9390 N   0  0  0  0  0  0  0  0  0  0  0  0
   41.1730   25.1670   41.9450 N   0  0  0  0  0  0  0  0  0  0  0  0
   42.3990   25.4080   41.4480 C   0  0  0  0  0  0  0  0  0  0  0  0
   42.3280   25.2620   40.0800 C   0  0  0  0  0  0  0  0  0  0  0  0
   41.0210   24.9250   39.7900 C   0  0  0  0  0  0  0  0  0  0  0  0
   38.4725   26.1423   39.6234 H   0  0  0  0  0  0  0  0  0  0  0  0
   36.1877   24.5266   40.6800 H   0  0  0  0  0  0  0  0  0  0  0  0
   36.3824   25.2389   39.0938 H   0  0  0  0  0  0  0  0  0  0  0  0
   36.9682   22.6377   39.2900 H   0  0  0  0  0  0  0  0  0  0  0  0
   38.2136   23.5662   38.5068 H   0  0  0  0  0  0  0  0  0  0  0  0
   37.9932   22.6711   41.4173 H   0  0  0  0  0  0  0  0  0  0  0  0
   39.4103   22.5748   40.3767 H   0  0  0  0  0  0  0  0  0  0  0  0
   38.8493   24.6050   42.1963 H   0  0  0  0  0  0  0  0  0  0  0  0
   36.7180   29.4743   43.6147 H   0  0  0  0  0  0  0  0  0  0  0  0
   36.0970   27.1784   44.2265 H   0  0  0  0  0  0  0  0  0  0  0  0
   40.0474   30.3246   42.3239 H   0  0  0  0  0  0  0  0  0  0  0  0
   40.4028   32.7104   41.5474 H   0  0  0  0  0  0  0  0  0  0  0  0
   36.5127   32.7461   39.8173 H   0  0  0  0  0  0  0  0  0  0  0  0
   43.2952   25.6733   42.0280 H   0  0  0  0  0  0  0  0  0  0  0  0
   43.1505   25.3889   39.3606 H   0  0  0  0  0  0  0  0  0  0  0  0
   40.6133   24.7314   38.7868 H   0  0  0  0  0  0  0  0  0  0  0  0
  1  5  1  0
  1 11  1  0
  2  1  1  0
  3  2  1  0
  3  4  1  0
  4  5  1  0
  6  7  1  0
  7  8  2  0
  9 10  2  0
  9  8  1  0
 11  9  1  0
 12 11  1  0
 12  6  1  0
 13 12  2  0
 14 15  2  0
 14  6  1  0
 16 15  1  0
 17 16  2  0
 18 17  1  0
 18 19  2  0
 19 14  1  0
 20  5  1  0
 20 21  1  0
 22 21  2  0
 23 22  1  0
 24 23  2  0
 24 20  1  0
  1 25  1  6
  2 26  1  0
  2 27  1  0
  3 28  1  0
  3 29  1  0
  4 30  1  0
  4 31  1  0
  5 32  1  1
  7 33  1  0
  8 34  1  0
 15 35  1  0
 16 36  1  0
 18 37  1  0
 22 38  1  0
 23 39  1  0
 24 40  1  0
M  ISO  8  25  13  26  13  27  13  28  13  29  13  30  13  31  13  32  13
M  ISO  8  33  14  34  14  35  14  36  14  37  14  38  14  39  14  40  14
M  END
>  <minimizedAffinity>  (1) 
-5.17605305

>  <minimizedRMSD>  (1) 
0.348906428

$$$$
