
     RDKit          3D

 40 43  0  0  1  0  0  0  0  0999 V2000
   37.7120   29.0980   41.9160 N   0  0  0  0  0  0  0  0  0  0  0  0
   37.1240   28.8720   43.0900 C   0  0  0  0  0  0  0  0  0  0  0  0
   36.7040   27.6250   43.4900 C   0  0  0  0  0  0  0  0  0  0  0  0
   36.8830   26.5230   42.6590 C   0  0  0  0  0  0  0  0  0  0  0  0
   36.5070   25.3830   43.0100 O   0  0  0  0  0  0  0  0  0  0  0  0
   37.4780   26.7950   41.4860 N   0  0  0  0  0  0  0  0  0  0  0  0
   37.8700   28.0150   41.1380 C   0  0  0  0  0  0  0  0  0  0  0  0
   38.4260   28.1680   40.0050 O   0  0  0  0  0  0  0  0  0  0  0  0
   37.6850   25.6950   40.5750 C   0  0  2  0  0  0  0  0  0  0  0  0
   36.5360   25.2820   39.7620 C   0  0  0  0  0  0  0  0  0  0  0  0
   36.8940   23.8530   39.3390 C   0  0  0  0  0  0  0  0  0  0  0  0
   37.4050   23.2820   40.6310 C   0  0  0  0  0  0  0  0  0  0  0  0
   38.0860   24.4050   41.3050 C   0  0  1  0  0  0  0  0  0  0  0  0
   39.5360   24.3600   41.5130 C   0  0  0  0  0  0  0  0  0  0  0  0
   40.4050   25.5010   41.7840 C   0  0  0  0  0  0  0  0  0  0  0  0
   40.0700   24.5210   42.9050 C   0  0  0  0  0  0  0  0  0  0  0  0
   38.1470   30.3740   41.4980 C   0  0  0  0  0  0  0  0  0  0  0  0
   39.4640   30.8770   41.7130 C   0  0  0  0  0  0  0  0  0  0  0  0
   39.7390   32.1640   41.2370 C   0  0  0  0  0  0  0  0  0  0  0  0
   38.7660   32.8510   40.6130 N   0  0  0  0  0  0  0  0  0  0  0  0
   37.5220   32.3520   40.4200 C   0  0  0  0  0  0  0  0  0  0  0  0
   37.2470   31.1250   40.8690 N   0  0  0  0  0  0  0  0  0  0  0  0
   36.9673   29.7218   43.7706 H   0  0  0  0  0  0  0  0  0  0  0  0
   36.2242   27.4980   44.4717 H   0  0  0  0  0  0  0  0  0  0  0  0
   38.4666   26.1171   39.9263 H   0  0  0  0  0  0  0  0  0  0  0  0
   35.6093   25.2964   40.3545 H   0  0  0  0  0  0  0  0  0  0  0  0
   36.3534   25.9495   38.9069 H   0  0  0  0  0  0  0  0  0  0  0  0
   36.0099   23.3063   38.9790 H   0  0  0  0  0  0  0  0  0  0  0  0
   37.6112   23.7962   38.5069 H   0  0  0  0  0  0  0  0  0  0  0  0
   36.5716   22.9109   41.2456 H   0  0  0  0  0  0  0  0  0  0  0  0
   38.0803   22.4295   40.4663 H   0  0  0  0  0  0  0  0  0  0  0  0
   37.7345   24.3409   42.3454 H   0  0  0  0  0  0  0  0  0  0  0  0
   39.5672   23.6042   40.7143 H   0  0  0  0  0  0  0  0  0  0  0  0
   41.4215   25.5292   41.3645 H   0  0  0  0  0  0  0  0  0  0  0  0
   40.3199   26.5899   41.6536 H   0  0  0  0  0  0  0  0  0  0  0  0
   39.4022   24.8217   43.7257 H   0  0  0  0  0  0  0  0  0  0  0  0
   40.6419   23.8996   43.6099 H   0  0  0  0  0  0  0  0  0  0  0  0
   40.2297   30.2799   42.2300 H   0  0  0  0  0  0  0  0  0  0  0  0
   40.7368   32.6072   41.3714 H   0  0  0  0  0  0  0  0  0  0  0  0
   36.7533   32.9457   39.9036 H   0  0  0  0  0  0  0  0  0  0  0  0
  1  2  1  0
  2  3  2  0
  4  5  2  0
  4  3  1  0
  6  4  1  0
  7  6  1  0
  7  1  1  0
  8  7  2  0
  9 13  1  0
  9  6  1  0
 10  9  1  0
 11 10  1  0
 11 12  1  0
 12 13  1  0
 13 14  1  0
 14 15  1  0
 14 16  1  0
 15 16  1  0
 17 18  2  0
 17  1  1  0
 19 18  1  0
 20 19  2  0
 21 20  1  0
 21 22  2  0
 22 17  1  0
  2 23  1  0
  3 24  1  0
  9 25  1  6
 10 26  1  0
 10 27  1  0
 11 28  1  0
 11 29  1  0
 12 30  1  0
 12 31  1  0
 13 32  1  1
 14 33  1  0
 15 34  1  0
 15 35  1  0
 16 36  1  0
 16 37  1  0
 18 38  1  0
 19 39  1  0
 21 40  1  0
M  ISO  8  23  14  24  14  25  13  26  13  27  13  28  13  29  13  30  13
M  ISO  8  31  13  32  13  33  13  34  13  35  13  36  13  37  13  38  14
M  ISO  2  39  14  40  14
M  END
>  <minimizedAffinity>  (1) 
-5.12991667

>  <minimizedRMSD>  (1) 
0.861184895

$$$$
