
     RDKit          3D

 36 38  0  0  1  0  0  0  0  0999 V2000
   37.6420   29.0250   41.7800 N   0  0  0  0  0  0  0  0  0  0  0  0
   37.1960   28.7050   42.9970 C   0  0  0  0  0  0  0  0  0  0  0  0
   36.8810   27.4150   43.3730 C   0  0  0  0  0  0  0  0  0  0  0  0
   37.0180   26.3610   42.4760 C   0  0  0  0  0  0  0  0  0  0  0  0
   36.7410   25.2020   42.7980 O   0  0  0  0  0  0  0  0  0  0  0  0
   37.4730   26.7330   41.2590 N   0  0  0  0  0  0  0  0  0  0  0  0
   37.7650   27.9930   40.9390 C   0  0  0  0  0  0  0  0  0  0  0  0
   38.1860   28.2280   39.7590 O   0  0  0  0  0  0  0  0  0  0  0  0
   37.6400   25.6750   40.2670 C   0  0  2  0  0  0  0  0  0  0  0  0
   36.4380   24.9310   39.9030 C   0  0  0  0  0  0  0  0  0  0  0  0
   37.0080   23.6310   39.3100 C   0  0  0  0  0  0  0  0  0  0  0  0
   38.0690   23.2920   40.2900 C   0  0  0  0  0  0  0  0  0  0  0  0
   38.6180   24.6110   40.7390 C   0  0  1  0  0  0  0  0  0  0  0  0
   40.0340   24.8770   40.3400 C   0  0  0  0  0  0  0  0  0  0  0  0
   40.8040   24.8380   41.4810 F   0  0  0  0  0  0  0  0  0  0  0  0
   40.4340   23.8500   39.5320 F   0  0  0  0  0  0  0  0  0  0  0  0
   40.2030   26.0540   39.6490 F   0  0  0  0  0  0  0  0  0  0  0  0
   37.9650   30.3370   41.3900 C   0  0  0  0  0  0  0  0  0  0  0  0
   39.2000   30.9780   41.6470 C   0  0  0  0  0  0  0  0  0  0  0  0
   39.3370   32.2910   41.1800 C   0  0  0  0  0  0  0  0  0  0  0  0
   38.3180   32.8710   40.5240 N   0  0  0  0  0  0  0  0  0  0  0  0
   37.1490   32.2520   40.2850 C   0  0  0  0  0  0  0  0  0  0  0  0
   36.9990   30.9980   40.7230 N   0  0  0  0  0  0  0  0  0  0  0  0
   37.0735   29.5097   43.7369 H   0  0  0  0  0  0  0  0  0  0  0  0
   36.5179   27.2184   44.3926 H   0  0  0  0  0  0  0  0  0  0  0  0
   37.9873   26.2467   39.3937 H   0  0  0  0  0  0  0  0  0  0  0  0
   35.8171   24.7243   40.7872 H   0  0  0  0  0  0  0  0  0  0  0  0
   35.7825   25.4759   39.2078 H   0  0  0  0  0  0  0  0  0  0  0  0
   36.2417   22.8434   39.2604 H   0  0  0  0  0  0  0  0  0  0  0  0
   37.3713   23.7337   38.2768 H   0  0  0  0  0  0  0  0  0  0  0  0
   37.6461   22.7391   41.1418 H   0  0  0  0  0  0  0  0  0  0  0  0
   38.8462   22.6488   39.8515 H   0  0  0  0  0  0  0  0  0  0  0  0
   38.6964   24.6147   41.8362 H   0  0  0  0  0  0  0  0  0  0  0  0
   40.0125   30.4699   42.1871 H   0  0  0  0  0  0  0  0  0  0  0  0
   40.2728   32.8439   41.3491 H   0  0  0  0  0  0  0  0  0  0  0  0
   36.3387   32.7629   39.7443 H   0  0  0  0  0  0  0  0  0  0  0  0
  1  2  1  0
  2  3  2  0
  4  5  2  0
  4  3  1  0
  6  4  1  0
  7  6  1  0
  7  1  1  0
  8  7  2  0
  9 13  1  0
  9  6  1  0
 10  9  1  0
 11 10  1  0
 11 12  1  0
 12 13  1  0
 14 13  1  0
 14 15  1  0
 16 14  1  0
 17 14  1  0
 18 19  2  0
 18  1  1  0
 20 19  1  0
 21 20  2  0
 22 21  1  0
 22 23  2  0
 23 18  1  0
  2 24  1  0
  3 25  1  0
  9 26  1  6
 10 27  1  0
 10 28  1  0
 11 29  1  0
 11 30  1  0
 12 31  1  0
 12 32  1  0
 13 33  1  1
 19 34  1  0
 20 35  1  0
 22 36  1  0
M  ISO  8  24  14  25  14  26  13  27  13  28  13  29  13  30  13  31  13
M  ISO  5  32  13  33  13  34  14  35  14  36  14
M  END
>  <minimizedAffinity>  (1) 
-5.03132534

>  <minimizedRMSD>  (1) 
0.34662658

$$$$
