
     RDKit          3D

 42 44  0  0  1  0  0  0  0  0999 V2000
   37.5570   28.9230   41.8230 N   0  0  0  0  0  0  0  0  0  0  0  0
   37.0440   28.6140   43.0000 C   0  0  0  0  0  0  0  0  0  0  0  0
   36.7030   27.3320   43.3730 C   0  0  0  0  0  0  0  0  0  0  0  0
   36.8960   26.2720   42.4820 C   0  0  0  0  0  0  0  0  0  0  0  0
   36.5920   25.1160   42.8100 O   0  0  0  0  0  0  0  0  0  0  0  0
   37.4260   26.6330   41.2830 N   0  0  0  0  0  0  0  0  0  0  0  0
   37.7330   27.8920   40.9890 C   0  0  0  0  0  0  0  0  0  0  0  0
   38.2240   28.1180   39.8360 O   0  0  0  0  0  0  0  0  0  0  0  0
   37.6520   25.5690   40.3140 C   0  0  2  0  0  0  0  0  0  0  0  0
   36.4690   24.7780   39.9500 C   0  0  0  0  0  0  0  0  0  0  0  0
   37.0940   23.4940   39.3730 C   0  0  0  0  0  0  0  0  0  0  0  0
   38.1500   23.2020   40.3810 C   0  0  0  0  0  0  0  0  0  0  0  0
   38.6510   24.5530   40.8040 C   0  0  1  0  0  0  0  0  0  0  0  0
   40.0560   24.7720   40.4030 C   0  0  0  0  0  0  0  0  0  0  0  0
   40.3150   25.3690   39.0770 C   0  0  0  0  0  0  0  0  0  0  0  0
   40.8240   25.5520   41.4520 C   0  0  0  0  0  0  0  0  0  0  0  0
   37.9080   30.2410   41.4380 C   0  0  0  0  0  0  0  0  0  0  0  0
   39.1740   30.8470   41.7320 C   0  0  0  0  0  0  0  0  0  0  0  0
   39.3470   32.1580   41.2720 C   0  0  0  0  0  0  0  0  0  0  0  0
   38.3580   32.7700   40.6030 N   0  0  0  0  0  0  0  0  0  0  0  0
   37.1730   32.1670   40.3420 C   0  0  0  0  0  0  0  0  0  0  0  0
   36.9640   30.9120   40.7630 N   0  0  0  0  0  0  0  0  0  0  0  0
   36.8796   29.4260   43.7236 H   0  0  0  0  0  0  0  0  0  0  0  0
   36.2795   27.1429   44.3704 H   0  0  0  0  0  0  0  0  0  0  0  0
   38.0023   26.1370   39.4396 H   0  0  0  0  0  0  0  0  0  0  0  0
   35.8507   24.5577   40.8327 H   0  0  0  0  0  0  0  0  0  0  0  0
   35.7953   25.2923   39.2488 H   0  0  0  0  0  0  0  0  0  0  0  0
   36.3574   22.6792   39.3146 H   0  0  0  0  0  0  0  0  0  0  0  0
   37.4709   23.6003   38.3451 H   0  0  0  0  0  0  0  0  0  0  0  0
   37.7285   22.6577   41.2389 H   0  0  0  0  0  0  0  0  0  0  0  0
   38.9514   22.5674   39.9749 H   0  0  0  0  0  0  0  0  0  0  0  0
   38.7079   24.6491   41.8983 H   0  0  0  0  0  0  0  0  0  0  0  0
   40.4175   23.7369   40.3149 H   0  0  0  0  0  0  0  0  0  0  0  0
   40.7498   26.3713   39.2048 H   0  0  0  0  0  0  0  0  0  0  0  0
   41.0180   24.7327   38.5194 H   0  0  0  0  0  0  0  0  0  0  0  0
   39.3701   25.4476   38.5194 H   0  0  0  0  0  0  0  0  0  0  0  0
   40.5063   25.2293   42.4545 H   0  0  0  0  0  0  0  0  0  0  0  0
   41.9014   25.3662   41.3313 H   0  0  0  0  0  0  0  0  0  0  0  0
   40.6215   26.6264   41.3313 H   0  0  0  0  0  0  0  0  0  0  0  0
   39.9614   30.3142   42.2853 H   0  0  0  0  0  0  0  0  0  0  0  0
   40.2936   32.6862   41.4590 H   0  0  0  0  0  0  0  0  0  0  0  0
   36.3883   32.7037   39.7886 H   0  0  0  0  0  0  0  0  0  0  0  0
  1  2  1  0
  2  3  2  0
  4  5  2  0
  4  3  1  0
  6  4  1  0
  7  6  1  0
  7  1  1  0
  8  7  2  0
  9 13  1  0
  9  6  1  0
 10  9  1  0
 11 10  1  0
 11 12  1  0
 12 13  1  0
 14 13  1  0
 14 16  1  0
 15 14  1  0
 17 18  2  0
 17  1  1  0
 19 18  1  0
 20 19  2  0
 21 20  1  0
 21 22  2  0
 22 17  1  0
  2 23  1  0
  3 24  1  0
  9 25  1  6
 10 26  1  0
 10 27  1  0
 11 28  1  0
 11 29  1  0
 12 30  1  0
 12 31  1  0
 13 32  1  1
 14 33  1  0
 15 34  1  0
 15 35  1  0
 15 36  1  0
 16 37  1  0
 16 38  1  0
 16 39  1  0
 18 40  1  0
 19 41  1  0
 21 42  1  0
M  ISO  8  23  14  24  14  25  13  26  13  27  13  28  13  29  13  30  13
M  ISO  8  31  13  32  13  33   8  34   8  35   8  36   8  37   8  38   8
M  ISO  4  39   8  40  14  41  14  42  14
M  END
>  <minimizedAffinity>  (1) 
-4.96129942

>  <minimizedRMSD>  (1) 
0.28903234

$$$$
