
     RDKit          3D

 34 36  0  0  1  0  0  0  0  0999 V2000
   37.6200   28.8370   41.8110 N   0  0  0  0  0  0  0  0  0  0  0  0
   37.1080   28.5210   42.9960 C   0  0  0  0  0  0  0  0  0  0  0  0
   36.7710   27.2220   43.3370 C   0  0  0  0  0  0  0  0  0  0  0  0
   36.9610   26.1790   42.4340 C   0  0  0  0  0  0  0  0  0  0  0  0
   36.6570   25.0210   42.7460 O   0  0  0  0  0  0  0  0  0  0  0  0
   37.4800   26.5540   41.2540 N   0  0  0  0  0  0  0  0  0  0  0  0
   37.7950   27.8250   40.9560 C   0  0  0  0  0  0  0  0  0  0  0  0
   38.2830   28.0660   39.8050 O   0  0  0  0  0  0  0  0  0  0  0  0
   37.7040   25.5130   40.2640 C   0  0  2  0  0  0  0  0  0  0  0  0
   36.6520   24.5080   40.1300 C   0  0  0  0  0  0  0  0  0  0  0  0
   37.3870   23.3340   39.4540 C   0  0  0  0  0  0  0  0  0  0  0  0
   38.6350   23.2670   40.2690 C   0  0  0  0  0  0  0  0  0  0  0  0
   38.9670   24.7120   40.5440 C   0  0  2  0  0  0  0  0  0  0  0  0
   39.4950   24.9140   41.7990 O   0  0  0  0  0  0  0  0  0  0  0  0
   37.9690   30.1610   41.4490 C   0  0  0  0  0  0  0  0  0  0  0  0
   39.2250   30.7690   41.7410 C   0  0  0  0  0  0  0  0  0  0  0  0
   39.3970   32.0990   41.3040 C   0  0  0  0  0  0  0  0  0  0  0  0
   38.3920   32.7110   40.6500 N   0  0  0  0  0  0  0  0  0  0  0  0
   37.2140   32.1170   40.3840 C   0  0  0  0  0  0  0  0  0  0  0  0
   37.0320   30.8520   40.7930 N   0  0  0  0  0  0  0  0  0  0  0  0
   36.9459   29.3211   43.7333 H   0  0  0  0  0  0  0  0  0  0  0  0
   36.3491   27.0118   44.3309 H   0  0  0  0  0  0  0  0  0  0  0  0
   37.7566   26.1082   39.3404 H   0  0  0  0  0  0  0  0  0  0  0  0
   36.2566   24.2145   41.1136 H   0  0  0  0  0  0  0  0  0  0  0  0
   35.7804   24.8626   39.5603 H   0  0  0  0  0  0  0  0  0  0  0  0
   36.8083   22.4013   39.5252 H   0  0  0  0  0  0  0  0  0  0  0  0
   37.5581   23.4687   38.3758 H   0  0  0  0  0  0  0  0  0  0  0  0
   38.4607   22.7201   41.2074 H   0  0  0  0  0  0  0  0  0  0  0  0
   39.4492   22.7352   39.7549 H   0  0  0  0  0  0  0  0  0  0  0  0
   39.7753   25.0576   39.8828 H   0  0  0  0  0  0  0  0  0  0  0  0
   38.8267   24.6583   42.4832 H   0  0  0  0  0  0  0  0  0  0  0  0
   40.0183   30.2292   42.2789 H   0  0  0  0  0  0  0  0  0  0  0  0
   40.3412   32.6299   41.4953 H   0  0  0  0  0  0  0  0  0  0  0  0
   36.4203   32.6550   39.8449 H   0  0  0  0  0  0  0  0  0  0  0  0
  1  2  1  0
  2  3  2  0
  4  5  2  0
  4  3  1  0
  6  4  1  0
  7  6  1  0
  7  1  1  0
  8  7  2  0
  9 13  1  0
  9  6  1  0
 10  9  1  0
 11 10  1  0
 11 12  1  0
 12 13  1  0
 13 14  1  0
 15 16  2  0
 15  1  1  0
 17 16  1  0
 18 17  2  0
 19 18  1  0
 19 20  2  0
 20 15  1  0
  2 21  1  0
  3 22  1  0
  9 23  1  6
 10 24  1  0
 10 25  1  0
 11 26  1  0
 11 27  1  0
 12 28  1  0
 12 29  1  0
 13 30  1  6
 14 31  1  0
 16 32  1  0
 17 33  1  0
 19 34  1  0
M  ISO  8  21  14  22  14  23  13  24  13  25  13  26  13  27  13  28  13
M  ISO  6  29  13  30  13  31   3  32  14  33  14  34  14
M  END
>  <minimizedAffinity>  (1) 
-4.88188219

>  <minimizedRMSD>  (1) 
0.162874386

$$$$
