
     RDKit          3D

 36 38  0  0  1  0  0  0  0  0999 V2000
   36.7290   25.6510   40.1070 C   0  0  1  0  0  0  0  0  0  0  0  0
   36.7650   24.2950   40.8310 C   0  0  0  0  0  0  0  0  0  0  0  0
   37.2650   24.6090   42.2100 C   0  0  0  0  0  0  0  0  0  0  0  0
   36.8860   26.0990   42.3630 C   0  0  0  0  0  0  0  0  0  0  0  0
   37.4580   26.5750   41.0470 C   0  0  2  0  0  0  0  0  0  0  0  0
   39.0780   25.0670   37.1890 C   0  0  0  0  0  0  0  0  0  0  0  0
   38.6350   25.1180   38.5190 C   0  0  0  0  0  0  0  0  0  0  0  0
   37.3140   25.5700   38.7700 C   0  0  0  0  0  0  0  0  0  0  0  0
   36.5550   25.9270   37.7120 N   0  0  0  0  0  0  0  0  0  0  0  0
   36.9980   25.8710   36.4480 C   0  0  0  0  0  0  0  0  0  0  0  0
   38.2520   25.4430   36.1880 N   0  0  0  0  0  0  0  0  0  0  0  0
   37.2780   28.0260   40.7910 C   0  0  0  0  0  0  0  0  0  0  0  0
   37.4370   28.7510   42.1360 C   0  0  0  0  0  0  0  0  0  0  0  0
   37.0750   30.1560   41.7150 C   0  0  0  0  0  0  0  0  0  0  0  0
   35.8690   29.9420   40.8260 C   0  0  0  0  0  0  0  0  0  0  0  0
   35.8880   28.4560   40.4350 C   0  0  0  0  0  0  0  0  0  0  0  0
   35.7106   26.0144   39.9048 H   0  0  0  0  0  0  0  0  0  0  0  0
   35.7588   23.8527   40.8752 H   0  0  0  0  0  0  0  0  0  0  0  0
   37.4054   23.5654   40.3137 H   0  0  0  0  0  0  0  0  0  0  0  0
   36.7620   23.9897   42.9673 H   0  0  0  0  0  0  0  0  0  0  0  0
   38.3382   24.4100   42.3466 H   0  0  0  0  0  0  0  0  0  0  0  0
   35.7986   26.2514   42.4281 H   0  0  0  0  0  0  0  0  0  0  0  0
   37.2490   26.6073   43.2685 H   0  0  0  0  0  0  0  0  0  0  0  0
   38.5535   26.5202   40.9646 H   0  0  0  0  0  0  0  0  0  0  0  0
   40.0971   24.7212   36.9612 H   0  0  0  0  0  0  0  0  0  0  0  0
   39.2947   24.8154   39.3456 H   0  0  0  0  0  0  0  0  0  0  0  0
   36.3388   26.1742   35.6212 H   0  0  0  0  0  0  0  0  0  0  0  0
   37.9845   28.2455   39.9769 H   0  0  0  0  0  0  0  0  0  0  0  0
   36.7441   28.3603   42.8958 H   0  0  0  0  0  0  0  0  0  0  0  0
   38.4256   28.6465   42.6069 H   0  0  0  0  0  0  0  0  0  0  0  0
   36.8193   30.7768   42.5863 H   0  0  0  0  0  0  0  0  0  0  0  0
   37.8979   30.6843   41.2113 H   0  0  0  0  0  0  0  0  0  0  0  0
   34.9446   30.1816   41.3720 H   0  0  0  0  0  0  0  0  0  0  0  0
   35.9023   30.5920   39.9392 H   0  0  0  0  0  0  0  0  0  0  0  0
   35.6993   28.3289   39.3588 H   0  0  0  0  0  0  0  0  0  0  0  0
   35.1107   27.8664   40.9430 H   0  0  0  0  0  0  0  0  0  0  0  0
  1  2  1  0
  1  5  1  0
  2  3  1  0
  3  4  1  0
  5  4  1  0
  6  7  2  0
  7  8  1  0
  8  1  1  0
  9  8  2  0
 10  9  1  0
 11 10  2  0
 11  6  1  0
 12  5  1  0
 12 13  1  0
 14 13  1  0
 15 14  1  0
 16 12  1  0
 16 15  1  0
  1 17  1  6
  2 18  1  0
  2 19  1  0
  3 20  1  0
  3 21  1  0
  4 22  1  0
  4 23  1  0
  5 24  1  1
  6 25  1  0
  7 26  1  0
 10 27  1  0
 12 28  1  0
 13 29  1  0
 13 30  1  0
 14 31  1  0
 14 32  1  0
 15 33  1  0
 15 34  1  0
 16 35  1  0
 16 36  1  0
M  ISO  8  17  13  18  13  19  13  20  13  21  13  22  13  23  13  24  13
M  ISO  8  25  14  26  14  27  14  28  13  29  13  30  13  31  13  32  13
M  ISO  4  33  13  34  13  35  13  36  13
M  END
>  <minimizedAffinity>  (1) 
-3.86307597

>  <minimizedRMSD>  (1) 
5.50893116

$$$$
