
     RDKit          3D

 34 36  0  0  1  0  0  0  0  0999 V2000
   37.6320   28.8630   41.7920 N   0  0  0  0  0  0  0  0  0  0  0  0
   37.0710   28.5360   42.9580 C   0  0  0  0  0  0  0  0  0  0  0  0
   36.7410   27.2390   43.3080 C   0  0  0  0  0  0  0  0  0  0  0  0
   36.9890   26.1880   42.4260 C   0  0  0  0  0  0  0  0  0  0  0  0
   36.6950   25.0290   42.7340 O   0  0  0  0  0  0  0  0  0  0  0  0
   37.5590   26.5600   41.2520 N   0  0  0  0  0  0  0  0  0  0  0  0
   37.8590   27.8270   40.9620 C   0  0  0  0  0  0  0  0  0  0  0  0
   38.3890   28.0710   39.8400 O   0  0  0  0  0  0  0  0  0  0  0  0
   37.8350   25.5100   40.3060 C   0  0  2  0  0  0  0  0  0  0  0  0
   36.7420   24.6030   39.9740 C   0  0  0  0  0  0  0  0  0  0  0  0
   37.4780   23.3860   39.3870 C   0  0  0  0  0  0  0  0  0  0  0  0
   38.5540   23.1880   40.4030 C   0  0  0  0  0  0  0  0  0  0  0  0
   38.9680   24.5990   40.7740 C   0  0  1  0  0  0  0  0  0  0  0  0
   40.5290   24.9950   39.9730 S   0  0  0  0  0  0  0  0  0  0  0  0
   37.9700   30.1860   41.4320 C   0  0  0  0  0  0  0  0  0  0  0  0
   39.2220   30.7980   41.7350 C   0  0  0  0  0  0  0  0  0  0  0  0
   39.3850   32.1260   41.2990 C   0  0  0  0  0  0  0  0  0  0  0  0
   38.3830   32.7290   40.6390 N   0  0  0  0  0  0  0  0  0  0  0  0
   37.2060   32.1240   40.3660 C   0  0  0  0  0  0  0  0  0  0  0  0
   37.0260   30.8610   40.7700 N   0  0  0  0  0  0  0  0  0  0  0  0
   36.8600   29.3400   43.6785 H   0  0  0  0  0  0  0  0  0  0  0  0
   36.2810   27.0360   44.2863 H   0  0  0  0  0  0  0  0  0  0  0  0
   38.0769   26.1041   39.4124 H   0  0  0  0  0  0  0  0  0  0  0  0
   36.1703   24.3255   40.8719 H   0  0  0  0  0  0  0  0  0  0  0  0
   36.0053   25.0415   39.2848 H   0  0  0  0  0  0  0  0  0  0  0  0
   36.8184   22.5082   39.3205 H   0  0  0  0  0  0  0  0  0  0  0  0
   37.8445   23.5292   38.3598 H   0  0  0  0  0  0  0  0  0  0  0  0
   38.1688   22.6492   41.2813 H   0  0  0  0  0  0  0  0  0  0  0  0
   39.3921   22.5859   40.0221 H   0  0  0  0  0  0  0  0  0  0  0  0
   39.1275   24.7224   41.8554 H   0  0  0  0  0  0  0  0  0  0  0  0
   41.4829   25.2370   40.9261 H   0  0  0  0  0  0  0  0  0  0  0  0
   40.0147   30.2627   42.2783 H   0  0  0  0  0  0  0  0  0  0  0  0
   40.3235   32.6646   41.4968 H   0  0  0  0  0  0  0  0  0  0  0  0
   36.4125   32.6584   39.8231 H   0  0  0  0  0  0  0  0  0  0  0  0
  1  2  1  0
  2  3  2  0
  4  5  2  0
  4  3  1  0
  6  4  1  0
  7  6  1  0
  7  1  1  0
  8  7  2  0
  9 13  1  0
  9  6  1  0
 10  9  1  0
 11 10  1  0
 11 12  1  0
 12 13  1  0
 14 13  1  0
 15 16  2  0
 15  1  1  0
 17 16  1  0
 18 17  2  0
 19 18  1  0
 19 20  2  0
 20 15  1  0
  2 21  1  0
  3 22  1  0
  9 23  1  6
 10 24  1  0
 10 25  1  0
 11 26  1  0
 11 27  1  0
 12 28  1  0
 12 29  1  0
 13 30  1  1
 14 31  1  0
 16 32  1  0
 17 33  1  0
 19 34  1  0
M  ISO  8  21  14  22  14  23  13  24  13  25  13  26  13  27  13  28  13
M  ISO  6  29  13  30  13  31  11  32  14  33  14  34  14
M  END
>  <minimizedAffinity>  (1) 
-4.84242725

>  <minimizedRMSD>  (1) 
0.0433705561

$$$$
