
     RDKit          3D

 45 47  0  0  1  0  0  0  0  0999 V2000
   37.6030   28.9220   41.6340 N   0  0  0  0  0  0  0  0  0  0  0  0
   37.2840   28.5250   42.8630 C   0  0  0  0  0  0  0  0  0  0  0  0
   37.0130   27.2100   43.1850 C   0  0  0  0  0  0  0  0  0  0  0  0
   37.0670   26.2200   42.2060 C   0  0  0  0  0  0  0  0  0  0  0  0
   36.8270   25.0430   42.4920 O   0  0  0  0  0  0  0  0  0  0  0  0
   37.3980   26.6680   40.9620 N   0  0  0  0  0  0  0  0  0  0  0  0
   37.6480   27.9540   40.7160 C   0  0  0  0  0  0  0  0  0  0  0  0
   37.9470   28.2740   39.5240 O   0  0  0  0  0  0  0  0  0  0  0  0
   37.4690   25.6830   39.8940 C   0  0  2  0  0  0  0  0  0  0  0  0
   36.3310   24.7540   39.8200 C   0  0  0  0  0  0  0  0  0  0  0  0
   36.9170   23.5900   38.9950 C   0  0  0  0  0  0  0  0  0  0  0  0
   38.2250   23.3960   39.6650 C   0  0  0  0  0  0  0  0  0  0  0  0
   38.6680   24.7930   40.0200 C   0  0  1  0  0  0  0  0  0  0  0  0
   39.9170   25.2140   39.3540 C   0  0  0  0  0  0  0  0  0  0  0  0
   40.6200   23.8910   38.9890 C   0  0  0  0  0  0  0  0  0  0  0  0
   40.8440   25.8860   40.3450 C   0  0  0  0  0  0  0  0  0  0  0  0
   39.7900   25.9500   38.0720 C   0  0  0  0  0  0  0  0  0  0  0  0
   37.8800   30.2670   41.2990 C   0  0  0  0  0  0  0  0  0  0  0  0
   39.1240   30.9140   41.5840 C   0  0  0  0  0  0  0  0  0  0  0  0
   39.2470   32.2560   41.1870 C   0  0  0  0  0  0  0  0  0  0  0  0
   38.2090   32.8490   40.5730 N   0  0  0  0  0  0  0  0  0  0  0  0
   37.0410   32.2110   40.3150 C   0  0  0  0  0  0  0  0  0  0  0  0
   36.9090   30.9340   40.6860 N   0  0  0  0  0  0  0  0  0  0  0  0
   37.2337   29.2806   43.6609 H   0  0  0  0  0  0  0  0  0  0  0  0
   36.7531   26.9425   44.2198 H   0  0  0  0  0  0  0  0  0  0  0  0
   37.4951   26.3220   38.9990 H   0  0  0  0  0  0  0  0  0  0  0  0
   36.0237   24.4185   40.8215 H   0  0  0  0  0  0  0  0  0  0  0  0
   35.4259   25.1972   39.3791 H   0  0  0  0  0  0  0  0  0  0  0  0
   37.0422   23.8674   37.9379 H   0  0  0  0  0  0  0  0  0  0  0  0
   36.2843   22.6906   38.9684 H   0  0  0  0  0  0  0  0  0  0  0  0
   38.1127   22.7804   40.5696 H   0  0  0  0  0  0  0  0  0  0  0  0
   38.9521   22.8721   39.0272 H   0  0  0  0  0  0  0  0  0  0  0  0
   39.0046   24.8573   41.0653 H   0  0  0  0  0  0  0  0  0  0  0  0
   40.9024   23.3596   39.9098 H   0  0  0  0  0  0  0  0  0  0  0  0
   39.9364   23.2634   38.3984 H   0  0  0  0  0  0  0  0  0  0  0  0
   41.5227   24.1062   38.3984 H   0  0  0  0  0  0  0  0  0  0  0  0
   40.5189   25.6504   41.3691 H   0  0  0  0  0  0  0  0  0  0  0  0
   41.8704   25.5207   40.1929 H   0  0  0  0  0  0  0  0  0  0  0  0
   40.8161   26.9751   40.1929 H   0  0  0  0  0  0  0  0  0  0  0  0
   39.6062   27.0149   38.2772 H   0  0  0  0  0  0  0  0  0  0  0  0
   40.7199   25.8431   37.4941 H   0  0  0  0  0  0  0  0  0  0  0  0
   38.9497   25.5376   37.4941 H   0  0  0  0  0  0  0  0  0  0  0  0
   39.9453   30.3855   42.0901 H   0  0  0  0  0  0  0  0  0  0  0  0
   40.1772   32.8120   41.3755 H   0  0  0  0  0  0  0  0  0  0  0  0
   36.2166   32.7351   39.8093 H   0  0  0  0  0  0  0  0  0  0  0  0
  1  2  1  0
  2  3  2  0
  4  5  2  0
  4  3  1  0
  6  4  1  0
  7  6  1  0
  7  1  1  0
  8  7  2  0
  9 13  1  0
  9  6  1  0
 10  9  1  0
 11 12  1  0
 11 10  1  0
 12 13  1  0
 14 13  1  0
 14 16  1  0
 15 14  1  0
 17 14  1  0
 18 19  2  0
 18  1  1  0
 20 19  1  0
 21 20  2  0
 22 21  1  0
 22 23  2  0
 23 18  1  0
  2 24  1  0
  3 25  1  0
  9 26  1  6
 10 27  1  0
 10 28  1  0
 11 29  1  0
 11 30  1  0
 12 31  1  0
 12 32  1  0
 13 33  1  1
 15 34  1  0
 15 35  1  0
 15 36  1  0
 16 37  1  0
 16 38  1  0
 16 39  1  0
 17 40  1  0
 17 41  1  0
 17 42  1  0
 19 43  1  0
 20 44  1  0
 22 45  1  0
M  ISO  8  24  14  25  14  26  13  27  13  28  13  29  13  30  13  31  13
M  ISO  8  32  13  33  13  34   8  35   8  36   8  37   8  38   8  39   8
M  ISO  6  40   8  41   8  42   8  43  14  44  14  45  14
M  END
>  <minimizedAffinity>  (1) 
-4.79492092

>  <minimizedRMSD>  (1) 
0.793960154

$$$$
