
     RDKit          3D

 35 37  0  0  1  0  0  0  0  0999 V2000
   37.5730   28.8920   41.8700 N   0  0  0  0  0  0  0  0  0  0  0  0
   37.0370   28.6040   43.0420 C   0  0  0  0  0  0  0  0  0  0  0  0
   36.6790   27.3260   43.4160 C   0  0  0  0  0  0  0  0  0  0  0  0
   36.8710   26.2480   42.5520 C   0  0  0  0  0  0  0  0  0  0  0  0
   36.5570   25.0970   42.8700 O   0  0  0  0  0  0  0  0  0  0  0  0
   37.4250   26.5880   41.3580 N   0  0  0  0  0  0  0  0  0  0  0  0
   37.7530   27.8530   41.0490 C   0  0  0  0  0  0  0  0  0  0  0  0
   38.2670   28.0630   39.9020 O   0  0  0  0  0  0  0  0  0  0  0  0
   37.6530   25.5240   40.4100 C   0  0  2  0  0  0  0  0  0  0  0  0
   36.5020   24.6970   40.0620 C   0  0  0  0  0  0  0  0  0  0  0  0
   37.1590   23.4140   39.5170 C   0  0  0  0  0  0  0  0  0  0  0  0
   38.2250   23.1710   40.5160 C   0  0  0  0  0  0  0  0  0  0  0  0
   38.7010   24.5400   40.9100 C   0  0  1  0  0  0  0  0  0  0  0  0
   40.0600   24.8710   40.4570 C   0  0  0  0  0  0  0  0  0  0  0  0
   40.7640   25.6150   41.1400 O   0  0  0  0  0  0  0  0  0  0  0  0
   37.9410   30.2010   41.4810 C   0  0  0  0  0  0  0  0  0  0  0  0
   39.1890   30.8070   41.7540 C   0  0  0  0  0  0  0  0  0  0  0  0
   39.3700   32.1130   41.2870 C   0  0  0  0  0  0  0  0  0  0  0  0
   38.3780   32.7230   40.6170 N   0  0  0  0  0  0  0  0  0  0  0  0
   37.1900   32.1320   40.3640 C   0  0  0  0  0  0  0  0  0  0  0  0
   36.9980   30.8840   40.8020 N   0  0  0  0  0  0  0  0  0  0  0  0
   36.8677   29.4242   43.7552 H   0  0  0  0  0  0  0  0  0  0  0  0
   36.2364   27.1545   44.4083 H   0  0  0  0  0  0  0  0  0  0  0  0
   37.9608   26.0915   39.5194 H   0  0  0  0  0  0  0  0  0  0  0  0
   35.8860   24.4818   40.9475 H   0  0  0  0  0  0  0  0  0  0  0  0
   35.8206   25.1772   39.3443 H   0  0  0  0  0  0  0  0  0  0  0  0
   36.4426   22.5799   39.4849 H   0  0  0  0  0  0  0  0  0  0  0  0
   37.5286   23.5068   38.4851 H   0  0  0  0  0  0  0  0  0  0  0  0
   37.8235   22.6344   41.3883 H   0  0  0  0  0  0  0  0  0  0  0  0
   39.0377   22.5489   40.1129 H   0  0  0  0  0  0  0  0  0  0  0  0
   38.7998   24.5885   42.0045 H   0  0  0  0  0  0  0  0  0  0  0  0
   40.4453   24.4565   39.5138 H   0  0  0  0  0  0  0  0  0  0  0  0
   39.9789   30.2773   42.3066 H   0  0  0  0  0  0  0  0  0  0  0  0
   40.3197   32.6379   41.4674 H   0  0  0  0  0  0  0  0  0  0  0  0
   36.4012   32.6640   39.8119 H   0  0  0  0  0  0  0  0  0  0  0  0
  1  2  1  0
  2  3  2  0
  4  5  2  0
  4  3  1  0
  6  4  1  0
  7  6  1  0
  7  1  1  0
  8  7  2  0
  9 13  1  0
  9  6  1  0
 10  9  1  0
 11 10  1  0
 11 12  1  0
 12 13  1  0
 14 13  1  0
 14 15  2  0
 16 17  2  0
 16  1  1  0
 18 17  1  0
 19 18  2  0
 20 19  1  0
 20 21  2  0
 21 16  1  0
  2 22  1  0
  3 23  1  0
  9 24  1  6
 10 25  1  0
 10 26  1  0
 11 27  1  0
 11 28  1  0
 12 29  1  0
 12 30  1  0
 13 31  1  1
 14 32  1  0
 17 33  1  0
 18 34  1  0
 20 35  1  0
M  ISO  8  22  14  23  14  24  13  25  13  26  13  27  13  28  13  29  13
M  ISO  6  30  13  31  13  32   6  33  14  34  14  35  14
M  END
>  <minimizedAffinity>  (1) 
-4.78307486

>  <minimizedRMSD>  (1) 
0.316423565

$$$$
