
     RDKit          3D

 35 37  0  0  1  0  0  0  0  0999 V2000
   38.3060   27.7260   39.8870 C   0  0  1  0  0  0  0  0  0  0  0  0
   39.2990   26.7640   39.2380 C   0  0  0  0  0  0  0  0  0  0  0  0
   40.2130   26.3510   40.3500 C   0  0  0  0  0  0  0  0  0  0  0  0
   39.3670   26.6030   41.5990 C   0  0  0  0  0  0  0  0  0  0  0  0
   38.8420   27.9860   41.2620 C   0  0  2  0  0  0  0  0  0  0  0  0
   38.8100   30.8920   37.8790 C   0  0  0  0  0  0  0  0  0  0  0  0
   39.1520   29.7830   38.6580 C   0  0  0  0  0  0  0  0  0  0  0  0
   38.0890   28.9330   39.0750 C   0  0  0  0  0  0  0  0  0  0  0  0
   36.8260   29.2210   38.7130 N   0  0  0  0  0  0  0  0  0  0  0  0
   36.5370   30.3130   37.9530 C   0  0  0  0  0  0  0  0  0  0  0  0
   37.5240   31.1350   37.5440 N   0  0  0  0  0  0  0  0  0  0  0  0
   37.7850   28.4410   42.1130 N   0  0  0  0  0  0  0  0  0  0  0  0
   36.5840   27.6950   42.1110 C   0  0  0  0  0  0  0  0  0  0  0  0
   36.3450   27.2370   43.5560 C   0  0  0  0  0  0  0  0  0  0  0  0
   37.0750   28.2700   44.3850 C   0  0  0  0  0  0  0  0  0  0  0  0
   38.2080   28.6710   43.4710 C   0  0  0  0  0  0  0  0  0  0  0  0
   37.2951   27.2980   39.9568 H   0  0  0  0  0  0  0  0  0  0  0  0
   38.7764   25.8904   38.8211 H   0  0  0  0  0  0  0  0  0  0  0  0
   39.8439   27.2297   38.4036 H   0  0  0  0  0  0  0  0  0  0  0  0
   40.4856   25.2888   40.2644 H   0  0  0  0  0  0  0  0  0  0  0  0
   41.1672   26.8982   40.3540 H   0  0  0  0  0  0  0  0  0  0  0  0
   38.5549   25.8681   41.7011 H   0  0  0  0  0  0  0  0  0  0  0  0
   39.9042   26.5234   42.5556 H   0  0  0  0  0  0  0  0  0  0  0  0
   39.6077   28.7690   41.3650 H   0  0  0  0  0  0  0  0  0  0  0  0
   39.5990   31.5764   37.5339 H   0  0  0  0  0  0  0  0  0  0  0  0
   40.1959   29.5763   38.9364 H   0  0  0  0  0  0  0  0  0  0  0  0
   35.4949   30.5252   37.6718 H   0  0  0  0  0  0  0  0  0  0  0  0
   35.7482   28.3235   41.7697 H   0  0  0  0  0  0  0  0  0  0  0  0
   36.6551   26.8338   41.4303 H   0  0  0  0  0  0  0  0  0  0  0  0
   35.2709   27.2315   43.7931 H   0  0  0  0  0  0  0  0  0  0  0  0
   36.6996   26.2126   43.7426 H   0  0  0  0  0  0  0  0  0  0  0  0
   36.4259   29.1277   44.6152 H   0  0  0  0  0  0  0  0  0  0  0  0
   37.4092   27.8946   45.3635 H   0  0  0  0  0  0  0  0  0  0  0  0
   39.0990   28.0651   43.6925 H   0  0  0  0  0  0  0  0  0  0  0  0
   38.4621   29.7310   43.6185 H   0  0  0  0  0  0  0  0  0  0  0  0
  1  5  1  0
  2  1  1  0
  2  3  1  0
  3  4  1  0
  5  4  1  0
  5 12  1  0
  6  7  2  0
  7  8  1  0
  8  1  1  0
  9  8  2  0
 10  9  1  0
 11  6  1  0
 11 10  2  0
 12 13  1  0
 12 16  1  0
 13 14  1  0
 14 15  1  0
 16 15  1  0
  1 17  1  1
  2 18  1  0
  2 19  1  0
  3 20  1  0
  3 21  1  0
  4 22  1  0
  4 23  1  0
  5 24  1  6
  6 25  1  0
  7 26  1  0
 10 27  1  0
 13 28  1  0
 13 29  1  0
 14 30  1  0
 14 31  1  0
 15 32  1  0
 15 33  1  0
 16 34  1  0
 16 35  1  0
M  ISO  8  17  13  18  13  19  13  20  13  21  13  22  13  23  13  24  13
M  ISO  8  25  14  26  14  27  14  28  13  29  13  30  13  31  13  32  13
M  ISO  3  33  13  34  13  35  13
M  END
>  <minimizedAffinity>  (1) 
-3.85600877

>  <minimizedRMSD>  (1) 
3.54552317

$$$$
