
     RDKit          3D

 36 38  0  0  1  0  0  0  0  0999 V2000
   37.6160   28.8610   41.7930 N   0  0  0  0  0  0  0  0  0  0  0  0
   37.0440   28.5340   42.9420 C   0  0  0  0  0  0  0  0  0  0  0  0
   36.7240   27.2420   43.2910 C   0  0  0  0  0  0  0  0  0  0  0  0
   36.9970   26.1920   42.4180 C   0  0  0  0  0  0  0  0  0  0  0  0
   36.7130   25.0190   42.7230 O   0  0  0  0  0  0  0  0  0  0  0  0
   37.5840   26.5680   41.2480 N   0  0  0  0  0  0  0  0  0  0  0  0
   37.8730   27.8320   40.9590 C   0  0  0  0  0  0  0  0  0  0  0  0
   38.4170   28.0750   39.8430 O   0  0  0  0  0  0  0  0  0  0  0  0
   37.8860   25.5150   40.3110 C   0  0  2  0  0  0  0  0  0  0  0  0
   36.7900   24.6380   39.9170 C   0  0  0  0  0  0  0  0  0  0  0  0
   37.5260   23.3930   39.3900 C   0  0  0  0  0  0  0  0  0  0  0  0
   38.5730   23.1930   40.4150 C   0  0  0  0  0  0  0  0  0  0  0  0
   38.9690   24.5680   40.8490 C   0  0  1  0  0  0  0  0  0  0  0  0
   40.3470   24.9850   40.4570 C   0  0  0  0  0  0  0  0  0  0  0  0
   37.9470   30.1850   41.4280 C   0  0  0  0  0  0  0  0  0  0  0  0
   39.2010   30.8060   41.7310 C   0  0  0  0  0  0  0  0  0  0  0  0
   39.3850   32.1220   41.3070 C   0  0  0  0  0  0  0  0  0  0  0  0
   38.3870   32.7270   40.6440 N   0  0  0  0  0  0  0  0  0  0  0  0
   37.2160   32.1330   40.3670 C   0  0  0  0  0  0  0  0  0  0  0  0
   37.0160   30.8660   40.7660 N   0  0  0  0  0  0  0  0  0  0  0  0
   36.8123   29.3385   43.6556 H   0  0  0  0  0  0  0  0  0  0  0  0
   36.2509   27.0379   44.2629 H   0  0  0  0  0  0  0  0  0  0  0  0
   38.1941   26.1015   39.4329 H   0  0  0  0  0  0  0  0  0  0  0  0
   36.1532   24.3875   40.7782 H   0  0  0  0  0  0  0  0  0  0  0  0
   36.1129   25.0905   39.1776 H   0  0  0  0  0  0  0  0  0  0  0  0
   36.8522   22.5254   39.3333 H   0  0  0  0  0  0  0  0  0  0  0  0
   37.9223   23.5123   38.3708 H   0  0  0  0  0  0  0  0  0  0  0  0
   38.1749   22.6203   41.2656 H   0  0  0  0  0  0  0  0  0  0  0  0
   39.4288   22.6251   40.0212 H   0  0  0  0  0  0  0  0  0  0  0  0
   39.0254   24.5966   41.9472 H   0  0  0  0  0  0  0  0  0  0  0  0
   40.9464   25.1664   41.3613 H   0  0  0  0  0  0  0  0  0  0  0  0
   40.8154   24.1884   39.8603 H   0  0  0  0  0  0  0  0  0  0  0  0
   40.2951   25.9077   39.8603 H   0  0  0  0  0  0  0  0  0  0  0  0
   39.9887   30.2662   42.2770 H   0  0  0  0  0  0  0  0  0  0  0  0
   40.3269   32.6522   41.5114 H   0  0  0  0  0  0  0  0  0  0  0  0
   36.4307   32.6761   39.8207 H   0  0  0  0  0  0  0  0  0  0  0  0
  1  2  1  0
  2  3  2  0
  4  5  2  0
  4  3  1  0
  6  4  1  0
  7  6  1  0
  7  1  1  0
  8  7  2  0
  9 13  1  0
  9  6  1  0
 10  9  1  0
 11 10  1  0
 11 12  1  0
 12 13  1  0
 14 13  1  0
 15 16  2  0
 15  1  1  0
 17 16  1  0
 18 17  2  0
 19 18  1  0
 19 20  2  0
 20 15  1  0
  2 21  1  0
  3 22  1  0
  9 23  1  6
 10 24  1  0
 10 25  1  0
 11 26  1  0
 11 27  1  0
 12 28  1  0
 12 29  1  0
 13 30  1  1
 14 31  1  0
 14 32  1  0
 14 33  1  0
 16 34  1  0
 17 35  1  0
 19 36  1  0
M  ISO  8  21  14  22  14  23  13  24  13  25  13  26  13  27  13  28  13
M  ISO  8  29  13  30  13  31   8  32   8  33   8  34  14  35  14  36  14
M  END
>  <minimizedAffinity>  (1) 
-4.92969131

>  <minimizedRMSD>  (1) 
0.0321192518

$$$$
