
     RDKit          3D

 24 25  0  0  1  0  0  0  0  0999 V2000
   36.5390   29.8400   40.4240 C   0  0  1  0  0  0  0  0  0  0  0  0
   36.4860   31.3470   40.7240 C   0  0  0  0  0  0  0  0  0  0  0  0
   37.0620   32.0020   39.5120 C   0  0  0  0  0  0  0  0  0  0  0  0
   36.8610   30.9320   38.4220 C   0  0  0  0  0  0  0  0  0  0  0  0
   37.4100   29.7410   39.1970 C   0  0  2  0  0  0  0  0  0  0  0  0
   38.6520   28.5490   43.2990 C   0  0  0  0  0  0  0  0  0  0  0  0
   38.2650   29.3290   42.2040 C   0  0  0  0  0  0  0  0  0  0  0  0
   37.0430   29.0770   41.5670 C   0  0  0  0  0  0  0  0  0  0  0  0
   36.2820   28.0750   42.0480 N   0  0  0  0  0  0  0  0  0  0  0  0
   36.6580   27.3260   43.1040 C   0  0  0  0  0  0  0  0  0  0  0  0
   37.8380   27.5640   43.7230 N   0  0  0  0  0  0  0  0  0  0  0  0
   37.2680   28.1870   38.3380 S   0  0  0  0  0  0  0  0  0  0  0  0
   35.5471   29.4004   40.2426 H   0  0  0  0  0  0  0  0  0  0  0  0
   35.4477   31.6733   40.8834 H   0  0  0  0  0  0  0  0  0  0  0  0
   37.0411   31.6065   41.6375 H   0  0  0  0  0  0  0  0  0  0  0  0
   36.5197   32.9267   39.2651 H   0  0  0  0  0  0  0  0  0  0  0  0
   38.1116   32.3063   39.6371 H   0  0  0  0  0  0  0  0  0  0  0  0
   37.4457   31.1452   37.5150 H   0  0  0  0  0  0  0  0  0  0  0  0
   35.8386   30.8255   38.0303 H   0  0  0  0  0  0  0  0  0  0  0  0
   38.4934   29.7675   39.3858 H   0  0  0  0  0  0  0  0  0  0  0  0
   39.6091   28.7381   43.8071 H   0  0  0  0  0  0  0  0  0  0  0  0
   38.9182   30.1377   41.8443 H   0  0  0  0  0  0  0  0  0  0  0  0
   36.0035   26.5185   43.4639 H   0  0  0  0  0  0  0  0  0  0  0  0
   37.1749   27.1683   39.2493 H   0  0  0  0  0  0  0  0  0  0  0  0
  1  2  1  0
  1  8  1  0
  3  2  1  0
  4  5  1  0
  4  3  1  0
  5  1  1  0
  6 11  2  0
  7  6  1  0
  8  9  1  0
  8  7  2  0
  9 10  2  0
 10 11  1  0
 12  5  1  0
  1 13  1  6
  2 14  1  0
  2 15  1  0
  3 16  1  0
  3 17  1  0
  4 18  1  0
  4 19  1  0
  5 20  1  1
  6 21  1  0
  7 22  1  0
 10 23  1  0
 12 24  1  0
M  ISO  8  13  13  14  13  15  13  16  13  17  13  18  13  19  13  20  13
M  ISO  4  21  14  22  14  23  14  24  11
M  END
>  <minimizedAffinity>  (1) 
-3.75823569

>  <minimizedRMSD>  (1) 
4.59492064

$$$$
