
     RDKit          3D

 50 53  0  0  1  0  0  0  0  0999 V2000
   39.3940   29.3780   42.3960 N   0  0  0  0  0  0  0  0  0  0  0  0
   38.3690   29.5840   43.2220 C   0  0  0  0  0  0  0  0  0  0  0  0
   37.3960   28.6490   43.4770 C   0  0  0  0  0  0  0  0  0  0  0  0
   37.4580   27.4000   42.8490 C   0  0  0  0  0  0  0  0  0  0  0  0
   36.5810   26.5440   43.0730 O   0  0  0  0  0  0  0  0  0  0  0  0
   38.5260   27.2290   42.0090 N   0  0  0  0  0  0  0  0  0  0  0  0
   39.4260   28.1750   41.8110 C   0  0  0  0  0  0  0  0  0  0  0  0
   40.3740   27.9170   41.0150 O   0  0  0  0  0  0  0  0  0  0  0  0
   40.3930   30.3440   42.1360 C   0  0  0  0  0  0  0  0  0  0  0  0
   41.5560   30.5260   42.9510 C   0  0  0  0  0  0  0  0  0  0  0  0
   42.4580   31.5140   42.5810 C   0  0  0  0  0  0  0  0  0  0  0  0
   42.1890   32.2340   41.4910 N   0  0  0  0  0  0  0  0  0  0  0  0
   41.1010   32.0620   40.7330 C   0  0  0  0  0  0  0  0  0  0  0  0
   40.2200   31.1160   41.0710 N   0  0  0  0  0  0  0  0  0  0  0  0
   40.8590   32.8600   39.5740 N   0  0  0  0  0  0  0  0  0  0  0  0
   41.7620   33.9110   39.1300 C   0  0  0  0  0  0  0  0  0  0  0  0
   41.9780   33.6410   37.6460 C   0  0  0  0  0  0  0  0  0  0  0  0
   41.5610   32.3040   37.2600 N   0  0  0  0  0  0  0  0  0  0  0  0
   40.1690   32.0410   37.4750 C   0  0  0  0  0  0  0  0  0  0  0  0
   39.6660   32.6510   38.7670 C   0  0  0  0  0  0  0  0  0  0  0  0
   38.6170   25.9560   41.3480 C   0  0  2  0  0  0  0  0  0  0  0  0
   37.6410   25.6740   40.3000 C   0  0  0  0  0  0  0  0  0  0  0  0
   37.6710   24.1390   40.2150 C   0  0  0  0  0  0  0  0  0  0  0  0
   37.6990   23.7370   41.6390 C   0  0  0  0  0  0  0  0  0  0  0  0
   38.4920   24.7910   42.3400 C   0  0  1  0  0  0  0  0  0  0  0  0
   39.8150   24.3450   42.8600 C   0  0  0  0  0  0  0  0  0  0  0  0
   38.2982   30.5580   43.7283 H   0  0  0  0  0  0  0  0  0  0  0  0
   36.5737   28.8803   44.1700 H   0  0  0  0  0  0  0  0  0  0  0  0
   41.7290   29.9033   43.8411 H   0  0  0  0  0  0  0  0  0  0  0  0
   43.3687   31.6979   43.1699 H   0  0  0  0  0  0  0  0  0  0  0  0
   41.3074   34.9012   39.2811 H   0  0  0  0  0  0  0  0  0  0  0  0
   42.7070   33.9103   39.6930 H   0  0  0  0  0  0  0  0  0  0  0  0
   41.3978   34.3734   37.0656 H   0  0  0  0  0  0  0  0  0  0  0  0
   43.0555   33.7281   37.4426 H   0  0  0  0  0  0  0  0  0  0  0  0
   42.1072   31.6239   37.8078 H   0  0  0  0  0  0  0  0  0  0  0  0
   39.5949   32.4626   36.6368 H   0  0  0  0  0  0  0  0  0  0  0  0
   40.0369   30.9510   37.5415 H   0  0  0  0  0  0  0  0  0  0  0  0
   39.1590   33.6074   38.5714 H   0  0  0  0  0  0  0  0  0  0  0  0
   38.9336   32.0040   39.2719 H   0  0  0  0  0  0  0  0  0  0  0  0
   39.6071   26.0368   40.8756 H   0  0  0  0  0  0  0  0  0  0  0  0
   36.6411   26.0363   40.5811 H   0  0  0  0  0  0  0  0  0  0  0  0
   37.8706   26.1688   39.3448 H   0  0  0  0  0  0  0  0  0  0  0  0
   36.7734   23.7517   39.7107 H   0  0  0  0  0  0  0  0  0  0  0  0
   38.5199   23.7496   39.6338 H   0  0  0  0  0  0  0  0  0  0  0  0
   36.6777   23.6916   42.0450 H   0  0  0  0  0  0  0  0  0  0  0  0
   38.1430   22.7393   41.7710 H   0  0  0  0  0  0  0  0  0  0  0  0
   37.9658   25.0864   43.2597 H   0  0  0  0  0  0  0  0  0  0  0  0
   39.7976   24.3509   43.9598 H   0  0  0  0  0  0  0  0  0  0  0  0
   40.0252   23.3263   42.5020 H   0  0  0  0  0  0  0  0  0  0  0  0
   40.5990   25.0285   42.5020 H   0  0  0  0  0  0  0  0  0  0  0  0
  1  2  1  0
  2  3  2  0
  4  5  2  0
  4  3  1  0
  6  4  1  0
  7  6  1  0
  7  1  1  0
  8  7  2  0
  9  1  1  0
  9 10  2  0
 11 10  1  0
 12 11  2  0
 13 14  2  0
 13 12  1  0
 14  9  1  0
 15 13  1  0
 16 15  1  0
 17 16  1  0
 18 19  1  0
 18 17  1  0
 19 20  1  0
 20 15  1  0
 21  6  1  0
 21 25  1  0
 22 21  1  0
 23 22  1  0
 23 24  1  0
 24 25  1  0
 25 26  1  0
  2 27  1  0
  3 28  1  0
 10 29  1  0
 11 30  1  0
 16 31  1  0
 16 32  1  0
 17 33  1  0
 17 34  1  0
 18 35  1  0
 19 36  1  0
 19 37  1  0
 20 38  1  0
 20 39  1  0
 21 40  1  6
 22 41  1  0
 22 42  1  0
 23 43  1  0
 23 44  1  0
 24 45  1  0
 24 46  1  0
 25 47  1  1
 26 48  1  0
 26 49  1  0
 26 50  1  0
M  ISO  8  27  14  28  14  29  14  30  14  31  13  32  13  33  13  34  13
M  ISO  8  35   5  36  13  37  13  38  13  39  13  40  13  41  13  42  13
M  ISO  8  43  13  44  13  45  13  46  13  47  13  48   8  49   8  50   8
M  END
>  <minimizedAffinity>  (1) 
-6.07562399

>  <minimizedRMSD>  (1) 
3.27638221

$$$$
