
     RDKit          3D

 38 40  0  0  1  0  0  0  0  0999 V2000
   37.9270   28.9520   41.9020 N   0  0  0  0  0  0  0  0  0  0  0  0
   37.3050   28.6700   43.0400 C   0  0  0  0  0  0  0  0  0  0  0  0
   36.8530   27.4070   43.3660 C   0  0  0  0  0  0  0  0  0  0  0  0
   37.0380   26.3510   42.4870 C   0  0  0  0  0  0  0  0  0  0  0  0
   36.6310   25.2040   42.7760 O   0  0  0  0  0  0  0  0  0  0  0  0
   37.6810   26.6800   41.3280 N   0  0  0  0  0  0  0  0  0  0  0  0
   38.0980   27.9090   41.0580 C   0  0  0  0  0  0  0  0  0  0  0  0
   38.6830   28.1030   39.9520 O   0  0  0  0  0  0  0  0  0  0  0  0
   37.8900   25.6060   40.3920 C   0  0  2  0  0  0  0  0  0  0  0  0
   36.7420   24.7850   40.0250 C   0  0  0  0  0  0  0  0  0  0  0  0
   37.4030   23.5050   39.4800 C   0  0  0  0  0  0  0  0  0  0  0  0
   38.4570   23.2520   40.4810 C   0  0  0  0  0  0  0  0  0  0  0  0
   38.9320   24.5950   40.9020 C   0  0  1  0  0  0  0  0  0  0  0  0
   40.3250   24.9460   40.4570 C   0  0  0  0  0  0  0  0  0  0  0  0
   38.3930   30.2370   41.5550 C   0  0  0  0  0  0  0  0  0  0  0  0
   39.7210   30.6930   41.7840 C   0  0  0  0  0  0  0  0  0  0  0  0
   40.0500   31.9830   41.3950 C   0  0  0  0  0  0  0  0  0  0  0  0
   39.1020   32.7260   40.8250 N   0  0  0  0  0  0  0  0  0  0  0  0
   37.8510   32.2970   40.6090 C   0  0  0  0  0  0  0  0  0  0  0  0
   37.5160   31.0440   40.9830 N   0  0  0  0  0  0  0  0  0  0  0  0
   36.8470   33.1230   39.9920 N   0  0  0  0  0  0  0  0  0  0  0  0
   37.1412   29.4847   43.7607 H   0  0  0  0  0  0  0  0  0  0  0  0
   36.3443   27.2379   44.3265 H   0  0  0  0  0  0  0  0  0  0  0  0
   38.1996   26.1810   39.5068 H   0  0  0  0  0  0  0  0  0  0  0  0
   36.1147   24.5654   40.9015 H   0  0  0  0  0  0  0  0  0  0  0  0
   36.0701   25.2714   39.3026 H   0  0  0  0  0  0  0  0  0  0  0  0
   36.6854   22.6724   39.4364 H   0  0  0  0  0  0  0  0  0  0  0  0
   37.7830   23.6057   38.4526 H   0  0  0  0  0  0  0  0  0  0  0  0
   38.0471   22.7018   41.3408 H   0  0  0  0  0  0  0  0  0  0  0  0
   39.2732   22.6399   40.0697 H   0  0  0  0  0  0  0  0  0  0  0  0
   39.0171   24.6115   41.9986 H   0  0  0  0  0  0  0  0  0  0  0  0
   40.9622   25.1066   41.3392 H   0  0  0  0  0  0  0  0  0  0  0  0
   40.7353   24.1232   39.8532 H   0  0  0  0  0  0  0  0  0  0  0  0
   40.2964   25.8650   39.8532 H   0  0  0  0  0  0  0  0  0  0  0  0
   40.4680   30.0390   42.2576 H   0  0  0  0  0  0  0  0  0  0  0  0
   41.0634   32.3809   41.5523 H   0  0  0  0  0  0  0  0  0  0  0  0
   35.8966   32.7545   39.8440 H   0  0  0  0  0  0  0  0  0  0  0  0
   37.0788   34.0827   39.6984 H   0  0  0  0  0  0  0  0  0  0  0  0
  1  2  1  0
  2  3  2  0
  4  5  2  0
  4  3  1  0
  6  4  1  0
  7  6  1  0
  7  1  1  0
  8  7  2  0
  9 13  1  0
  9  6  1  0
 10  9  1  0
 11 10  1  0
 11 12  1  0
 12 13  1  0
 14 13  1  0
 15 16  2  0
 15  1  1  0
 17 16  1  0
 18 17  2  0
 19 18  1  0
 19 20  2  0
 20 15  1  0
 21 19  1  0
  2 22  1  0
  3 23  1  0
  9 24  1  6
 10 25  1  0
 10 26  1  0
 11 27  1  0
 11 28  1  0
 12 29  1  0
 12 30  1  0
 13 31  1  1
 14 32  1  0
 14 33  1  0
 14 34  1  0
 16 35  1  0
 17 36  1  0
 21 37  1  0
 21 38  1  0
M  ISO  8  22  14  23  14  24  13  25  13  26  13  27  13  28  13  29  13
M  ISO  7  30  13  31  13  32   8  33   8  34   8  35  14  36  14
M  END
>  <minimizedAffinity>  (1) 
-5.55967522

>  <minimizedRMSD>  (1) 
0.414892018

$$$$
