
     RDKit          3D

 45 47  0  0  1  0  0  0  0  0999 V2000
   38.1560   28.7710   42.0740 N   0  0  0  0  0  0  0  0  0  0  0  0
   37.4870   28.5190   43.1810 C   0  0  0  0  0  0  0  0  0  0  0  0
   36.9060   27.2970   43.4590 C   0  0  0  0  0  0  0  0  0  0  0  0
   37.0120   26.2480   42.5460 C   0  0  0  0  0  0  0  0  0  0  0  0
   36.4900   25.1460   42.7950 O   0  0  0  0  0  0  0  0  0  0  0  0
   37.7100   26.5480   41.4170 N   0  0  0  0  0  0  0  0  0  0  0  0
   38.2520   27.7450   41.1940 C   0  0  0  0  0  0  0  0  0  0  0  0
   38.8760   27.9150   40.1190 O   0  0  0  0  0  0  0  0  0  0  0  0
   37.8440   25.4950   40.4460 C   0  0  2  0  0  0  0  0  0  0  0  0
   36.6450   24.7520   40.0860 C   0  0  0  0  0  0  0  0  0  0  0  0
   37.2010   23.4440   39.5210 C   0  0  0  0  0  0  0  0  0  0  0  0
   38.2770   23.1090   40.4630 C   0  0  0  0  0  0  0  0  0  0  0  0
   38.8430   24.4240   40.9050 C   0  0  1  0  0  0  0  0  0  0  0  0
   40.2300   24.7040   40.4210 C   0  0  0  0  0  0  0  0  0  0  0  0
   38.7510   30.0170   41.7820 C   0  0  0  0  0  0  0  0  0  0  0  0
   40.1060   30.3610   42.1370 C   0  0  0  0  0  0  0  0  0  0  0  0
   40.5610   31.6250   41.7860 C   0  0  0  0  0  0  0  0  0  0  0  0
   39.7280   32.4530   41.1420 N   0  0  0  0  0  0  0  0  0  0  0  0
   38.4620   32.1130   40.8170 C   0  0  0  0  0  0  0  0  0  0  0  0
   37.9970   30.9060   41.1410 N   0  0  0  0  0  0  0  0  0  0  0  0
   37.5550   33.0660   40.0950 C   0  0  0  0  0  0  0  0  0  0  0  0
   38.2160   34.4200   39.9330 C   0  0  0  0  0  0  0  0  0  0  0  0
   37.3020   32.5400   38.6770 C   0  0  0  0  0  0  0  0  0  0  0  0
   37.3858   29.3246   43.9232 H   0  0  0  0  0  0  0  0  0  0  0  0
   36.3588   27.1510   44.4020 H   0  0  0  0  0  0  0  0  0  0  0  0
   38.1659   26.0715   39.5662 H   0  0  0  0  0  0  0  0  0  0  0  0
   36.0169   24.5647   40.9694 H   0  0  0  0  0  0  0  0  0  0  0  0
   36.0013   25.2901   39.3746 H   0  0  0  0  0  0  0  0  0  0  0  0
   36.4296   22.6599   39.5066 H   0  0  0  0  0  0  0  0  0  0  0  0
   37.5474   23.5333   38.4808 H   0  0  0  0  0  0  0  0  0  0  0  0
   37.8759   22.5539   41.3238 H   0  0  0  0  0  0  0  0  0  0  0  0
   39.0424   22.4696   39.9990 H   0  0  0  0  0  0  0  0  0  0  0  0
   38.9635   24.4152   41.9983 H   0  0  0  0  0  0  0  0  0  0  0  0
   40.8991   24.8391   41.2836 H   0  0  0  0  0  0  0  0  0  0  0  0
   40.5833   23.8591   39.8117 H   0  0  0  0  0  0  0  0  0  0  0  0
   40.2278   25.6198   39.8117 H   0  0  0  0  0  0  0  0  0  0  0  0
   40.7552   29.6481   42.6664 H   0  0  0  0  0  0  0  0  0  0  0  0
   41.5857   31.9403   42.0320 H   0  0  0  0  0  0  0  0  0  0  0  0
   36.6269   33.1556   40.6786 H   0  0  0  0  0  0  0  0  0  0  0  0
   38.4246   34.8472   40.9250 H   0  0  0  0  0  0  0  0  0  0  0  0
   39.1587   34.3038   39.3782 H   0  0  0  0  0  0  0  0  0  0  0  0
   37.5445   35.0918   39.3782 H   0  0  0  0  0  0  0  0  0  0  0  0
   36.8258   31.5500   38.7327 H   0  0  0  0  0  0  0  0  0  0  0  0
   36.6400   33.2357   38.1406 H   0  0  0  0  0  0  0  0  0  0  0  0
   38.2587   32.4570   38.1406 H   0  0  0  0  0  0  0  0  0  0  0  0
  1  2  1  0
  2  3  2  0
  4  5  2  0
  4  3  1  0
  6  4  1  0
  7  6  1  0
  7  1  1  0
  8  7  2  0
  9 13  1  0
  9  6  1  0
 10  9  1  0
 11 10  1  0
 11 12  1  0
 12 13  1  0
 14 13  1  0
 15  1  1  0
 15 16  2  0
 17 16  1  0
 18 17  2  0
 19 20  2  0
 19 18  1  0
 20 15  1  0
 21 19  1  0
 22 21  1  0
 23 21  1  0
  2 24  1  0
  3 25  1  0
  9 26  1  6
 10 27  1  0
 10 28  1  0
 11 29  1  0
 11 30  1  0
 12 31  1  0
 12 32  1  0
 13 33  1  1
 14 34  1  0
 14 35  1  0
 14 36  1  0
 16 37  1  0
 17 38  1  0
 21 39  1  0
 22 40  1  0
 22 41  1  0
 22 42  1  0
 23 43  1  0
 23 44  1  0
 23 45  1  0
M  ISO  8  24  14  25  14  26  13  27  13  28  13  29  13  30  13  31  13
M  ISO  8  32  13  33  13  34   8  35   8  36   8  37  14  38  14  39   8
M  ISO  6  40   8  41   8  42   8  43   8  44   8  45   8
M  END
>  <minimizedAffinity>  (1) 
-5.54542589

>  <minimizedRMSD>  (1) 
1.02140236

$$$$
