
     RDKit          3D

 43 46  0  0  1  0  0  0  0  0999 V2000
   37.9330   28.3070   41.9290 N   0  0  0  0  0  0  0  0  0  0  0  0
   37.3030   27.9090   43.0360 C   0  0  0  0  0  0  0  0  0  0  0  0
   36.8500   26.6180   43.2160 C   0  0  0  0  0  0  0  0  0  0  0  0
   37.0370   25.6640   42.2240 C   0  0  0  0  0  0  0  0  0  0  0  0
   36.6350   24.5020   42.3740 O   0  0  0  0  0  0  0  0  0  0  0  0
   37.6870   26.1210   41.1110 N   0  0  0  0  0  0  0  0  0  0  0  0
   38.1050   27.3700   40.9830 C   0  0  0  0  0  0  0  0  0  0  0  0
   38.6930   27.6930   39.9160 O   0  0  0  0  0  0  0  0  0  0  0  0
   37.9000   25.1590   40.0600 C   0  0  2  0  0  0  0  0  0  0  0  0
   36.7700   24.3420   39.6480 C   0  0  0  0  0  0  0  0  0  0  0  0
   37.4360   23.1450   38.9550 C   0  0  0  0  0  0  0  0  0  0  0  0
   38.5500   22.8320   39.8810 C   0  0  0  0  0  0  0  0  0  0  0  0
   38.9970   24.1550   40.4080 C   0  0  1  0  0  0  0  0  0  0  0  0
   40.3510   24.5990   39.9580 C   0  0  0  0  0  0  0  0  0  0  0  0
   38.3970   29.6250   41.7410 C   0  0  0  0  0  0  0  0  0  0  0  0
   39.6460   30.1290   42.2410 C   0  0  0  0  0  0  0  0  0  0  0  0
   39.9750   31.4510   41.9800 C   0  0  0  0  0  0  0  0  0  0  0  0
   39.1020   32.1880   41.2710 N   0  0  0  0  0  0  0  0  0  0  0  0
   37.9390   31.7200   40.8060 C   0  0  0  0  0  0  0  0  0  0  0  0
   37.6050   30.4470   41.0480 N   0  0  0  0  0  0  0  0  0  0  0  0
   37.0120   32.5890   40.0240 C   0  0  0  0  0  0  0  0  0  0  0  0
   37.5900   33.9010   39.5990 C   0  0  0  0  0  0  0  0  0  0  0  0
   37.3680   32.7970   38.5710 C   0  0  0  0  0  0  0  0  0  0  0  0
   37.1376   28.6416   43.8397 H   0  0  0  0  0  0  0  0  0  0  0  0
   36.3381   26.3430   44.1500 H   0  0  0  0  0  0  0  0  0  0  0  0
   38.1541   25.8367   39.2317 H   0  0  0  0  0  0  0  0  0  0  0  0
   36.1809   24.0163   40.5180 H   0  0  0  0  0  0  0  0  0  0  0  0
   36.0642   24.8790   38.9972 H   0  0  0  0  0  0  0  0  0  0  0  0
   36.7406   22.2974   38.8658 H   0  0  0  0  0  0  0  0  0  0  0  0
   37.7613   23.3540   37.9252 H   0  0  0  0  0  0  0  0  0  0  0  0
   38.2016   22.1868   40.7010 H   0  0  0  0  0  0  0  0  0  0  0  0
   39.3651   22.2903   39.3789 H   0  0  0  0  0  0  0  0  0  0  0  0
   39.1347   24.0709   41.4961 H   0  0  0  0  0  0  0  0  0  0  0  0
   40.9800   24.8053   40.8365 H   0  0  0  0  0  0  0  0  0  0  0  0
   40.8147   23.8059   39.3531 H   0  0  0  0  0  0  0  0  0  0  0  0
   40.2550   25.5127   39.3531 H   0  0  0  0  0  0  0  0  0  0  0  0
   40.3247   29.4824   42.8166 H   0  0  0  0  0  0  0  0  0  0  0  0
   40.9200   31.8827   42.3415 H   0  0  0  0  0  0  0  0  0  0  0  0
   36.1011   32.2721   40.5529 H   0  0  0  0  0  0  0  0  0  0  0  0
   36.9583   34.8014   39.5842 H   0  0  0  0  0  0  0  0  0  0  0  0
   38.4506   34.5100   39.9128 H   0  0  0  0  0  0  0  0  0  0  0  0
   36.5740   32.8962   37.8162 H   0  0  0  0  0  0  0  0  0  0  0  0
   37.9965   32.2733   37.8356 H   0  0  0  0  0  0  0  0  0  0  0  0
  1  2  1  0
  2  3  2  0
  4  5  2  0
  4  3  1  0
  6  4  1  0
  7  6  1  0
  7  1  1  0
  8  7  2  0
  9 13  1  0
  9  6  1  0
 10  9  1  0
 11 10  1  0
 11 12  1  0
 12 13  1  0
 14 13  1  0
 15  1  1  0
 15 16  2  0
 17 16  1  0
 18 17  2  0
 19 20  2  0
 19 18  1  0
 20 15  1  0
 21 19  1  0
 22 21  1  0
 23 22  1  0
 23 21  1  0
  2 24  1  0
  3 25  1  0
  9 26  1  6
 10 27  1  0
 10 28  1  0
 11 29  1  0
 11 30  1  0
 12 31  1  0
 12 32  1  0
 13 33  1  1
 14 34  1  0
 14 35  1  0
 14 36  1  0
 16 37  1  0
 17 38  1  0
 21 39  1  0
 22 40  1  0
 22 41  1  0
 23 42  1  0
 23 43  1  0
M  ISO  8  24  14  25  14  26  13  27  13  28  13  29  13  30  13  31  13
M  ISO  8  32  13  33  13  34   8  35   8  36   8  37  14  38  14  39  13
M  ISO  4  40  13  41  13  42  13  43  13
M  END
>  <minimizedAffinity>  (1) 
-5.23187304

>  <minimizedRMSD>  (1) 
0.772905171

$$$$
