
     RDKit          3D

 39 41  0  0  1  0  0  0  0  0999 V2000
   37.9740   28.9110   41.9360 N   0  0  0  0  0  0  0  0  0  0  0  0
   37.3330   28.6690   43.0740 C   0  0  0  0  0  0  0  0  0  0  0  0
   36.8310   27.4320   43.4070 C   0  0  0  0  0  0  0  0  0  0  0  0
   36.9820   26.3530   42.5360 C   0  0  0  0  0  0  0  0  0  0  0  0
   36.5300   25.2310   42.8340 O   0  0  0  0  0  0  0  0  0  0  0  0
   37.6460   26.6500   41.3840 N   0  0  0  0  0  0  0  0  0  0  0  0
   38.1150   27.8620   41.1010 C   0  0  0  0  0  0  0  0  0  0  0  0
   38.7140   28.0260   40.0050 O   0  0  0  0  0  0  0  0  0  0  0  0
   37.8220   25.5550   40.4540 C   0  0  2  0  0  0  0  0  0  0  0  0
   36.6560   24.7700   40.1080 C   0  0  0  0  0  0  0  0  0  0  0  0
   37.2780   23.4560   39.5830 C   0  0  0  0  0  0  0  0  0  0  0  0
   38.3410   23.1930   40.5820 C   0  0  0  0  0  0  0  0  0  0  0  0
   38.8470   24.5360   40.9690 C   0  0  1  0  0  0  0  0  0  0  0  0
   40.2390   24.8480   40.5060 C   0  0  0  0  0  0  0  0  0  0  0  0
   38.4920   30.1750   41.5850 C   0  0  0  0  0  0  0  0  0  0  0  0
   39.7870   30.6430   41.9750 C   0  0  0  0  0  0  0  0  0  0  0  0
   40.1740   31.9120   41.5610 C   0  0  0  0  0  0  0  0  0  0  0  0
   39.3210   32.6220   40.8240 N   0  0  0  0  0  0  0  0  0  0  0  0
   38.1090   32.1740   40.4630 C   0  0  0  0  0  0  0  0  0  0  0  0
   37.7020   30.9600   40.8420 N   0  0  0  0  0  0  0  0  0  0  0  0
   37.2080   33.0390   39.6300 C   0  0  0  0  0  0  0  0  0  0  0  0
   37.1969   29.4976   43.7845 H   0  0  0  0  0  0  0  0  0  0  0  0
   36.3080   27.2933   44.3647 H   0  0  0  0  0  0  0  0  0  0  0  0
   38.1375   26.1029   39.5538 H   0  0  0  0  0  0  0  0  0  0  0  0
   36.0251   24.5860   40.9901 H   0  0  0  0  0  0  0  0  0  0  0  0
   35.9966   25.2638   39.3791 H   0  0  0  0  0  0  0  0  0  0  0  0
   36.5372   22.6431   39.5652 H   0  0  0  0  0  0  0  0  0  0  0  0
   37.6496   23.5247   38.5499 H   0  0  0  0  0  0  0  0  0  0  0  0
   37.9283   22.6687   41.4565 H   0  0  0  0  0  0  0  0  0  0  0  0
   39.1383   22.5522   40.1775 H   0  0  0  0  0  0  0  0  0  0  0  0
   38.9442   24.5740   42.0640 H   0  0  0  0  0  0  0  0  0  0  0  0
   40.8917   24.9943   41.3792 H   0  0  0  0  0  0  0  0  0  0  0  0
   40.6195   24.0129   39.8996 H   0  0  0  0  0  0  0  0  0  0  0  0
   40.2267   25.7657   39.8996 H   0  0  0  0  0  0  0  0  0  0  0  0
   40.4559   30.0172   42.5841 H   0  0  0  0  0  0  0  0  0  0  0  0
   41.1585   32.3194   41.8346 H   0  0  0  0  0  0  0  0  0  0  0  0
   36.5728   33.6488   40.2894 H   0  0  0  0  0  0  0  0  0  0  0  0
   37.8175   33.6989   38.9951 H   0  0  0  0  0  0  0  0  0  0  0  0
   36.5735   32.4031   38.9951 H   0  0  0  0  0  0  0  0  0  0  0  0
  1  2  1  0
  2  3  2  0
  4  5  2  0
  4  3  1  0
  6  4  1  0
  7  6  1  0
  7  1  1  0
  8  7  2  0
  9 13  1  0
  9  6  1  0
 10  9  1  0
 11 10  1  0
 11 12  1  0
 12 13  1  0
 14 13  1  0
 15  1  1  0
 15 16  2  0
 17 16  1  0
 18 17  2  0
 19 18  1  0
 19 20  2  0
 20 15  1  0
 21 19  1  0
  2 22  1  0
  3 23  1  0
  9 24  1  6
 10 25  1  0
 10 26  1  0
 11 27  1  0
 11 28  1  0
 12 29  1  0
 12 30  1  0
 13 31  1  1
 14 32  1  0
 14 33  1  0
 14 34  1  0
 16 35  1  0
 17 36  1  0
 21 37  1  0
 21 38  1  0
 21 39  1  0
M  ISO  8  22  14  23  14  24  13  25  13  26  13  27  13  28  13  29  13
M  ISO  8  30  13  31  13  32   8  33   8  34   8  35  14  36  14  37   8
M  ISO  2  38   8  39   8
M  END
>  <minimizedAffinity>  (1) 
-5.20633316

>  <minimizedRMSD>  (1) 
0.527406693

$$$$
