
     RDKit          3D

 37 39  0  0  1  0  0  0  0  0999 V2000
   38.0810   28.7830   42.0510 N   0  0  0  0  0  0  0  0  0  0  0  0
   37.4140   28.5300   43.1580 C   0  0  0  0  0  0  0  0  0  0  0  0
   36.8620   27.3020   43.4330 C   0  0  0  0  0  0  0  0  0  0  0  0
   36.9870   26.2470   42.5320 C   0  0  0  0  0  0  0  0  0  0  0  0
   36.4870   25.1320   42.7780 O   0  0  0  0  0  0  0  0  0  0  0  0
   37.6800   26.5500   41.4090 N   0  0  0  0  0  0  0  0  0  0  0  0
   38.1970   27.7520   41.1850 C   0  0  0  0  0  0  0  0  0  0  0  0
   38.8270   27.9320   40.1010 O   0  0  0  0  0  0  0  0  0  0  0  0
   37.8390   25.4930   40.4400 C   0  0  2  0  0  0  0  0  0  0  0  0
   36.6670   24.7170   40.0880 C   0  0  0  0  0  0  0  0  0  0  0  0
   37.2650   23.4160   39.5300 C   0  0  0  0  0  0  0  0  0  0  0  0
   38.3460   23.1160   40.4910 C   0  0  0  0  0  0  0  0  0  0  0  0
   38.8730   24.4460   40.9100 C   0  0  1  0  0  0  0  0  0  0  0  0
   40.2610   24.7550   40.4540 C   0  0  0  0  0  0  0  0  0  0  0  0
   38.6590   30.0450   41.7490 C   0  0  0  0  0  0  0  0  0  0  0  0
   39.9450   30.4650   42.2220 C   0  0  0  0  0  0  0  0  0  0  0  0
   40.3770   31.7390   41.8400 C   0  0  0  0  0  0  0  0  0  0  0  0
   39.5860   32.4860   41.0690 N   0  0  0  0  0  0  0  0  0  0  0  0
   38.3830   32.0730   40.6350 C   0  0  0  0  0  0  0  0  0  0  0  0
   37.9320   30.8530   40.9830 N   0  0  0  0  0  0  0  0  0  0  0  0
   37.3500   33.1150   39.5980 S   0  0  0  0  0  0  0  0  0  0  0  0
   37.2934   29.3375   43.8952 H   0  0  0  0  0  0  0  0  0  0  0  0
   36.3152   27.1504   44.3753 H   0  0  0  0  0  0  0  0  0  0  0  0
   38.1403   26.0732   39.5553 H   0  0  0  0  0  0  0  0  0  0  0  0
   36.0448   24.5179   40.9730 H   0  0  0  0  0  0  0  0  0  0  0  0
   36.0069   25.2307   39.3736 H   0  0  0  0  0  0  0  0  0  0  0  0
   36.5157   22.6109   39.5121 H   0  0  0  0  0  0  0  0  0  0  0  0
   37.6173   23.5080   38.4920 H   0  0  0  0  0  0  0  0  0  0  0  0
   37.9505   22.5667   41.3581 H   0  0  0  0  0  0  0  0  0  0  0  0
   39.1288   22.4837   40.0467 H   0  0  0  0  0  0  0  0  0  0  0  0
   38.9877   24.4552   42.0040 H   0  0  0  0  0  0  0  0  0  0  0  0
   40.9109   24.8997   41.3296 H   0  0  0  0  0  0  0  0  0  0  0  0
   40.6424   23.9198   39.8483 H   0  0  0  0  0  0  0  0  0  0  0  0
   40.2521   25.6731   39.8483 H   0  0  0  0  0  0  0  0  0  0  0  0
   40.5644   29.8145   42.8570 H   0  0  0  0  0  0  0  0  0  0  0  0
   41.3548   32.1193   42.1706 H   0  0  0  0  0  0  0  0  0  0  0  0
   36.5626   33.9093   40.3892 H   0  0  0  0  0  0  0  0  0  0  0  0
  1  2  1  0
  2  3  2  0
  4  5  2  0
  4  3  1  0
  6  4  1  0
  7  6  1  0
  7  1  1  0
  8  7  2  0
  9 13  1  0
  9  6  1  0
 10  9  1  0
 11 10  1  0
 11 12  1  0
 12 13  1  0
 14 13  1  0
 15  1  1  0
 15 16  2  0
 17 16  1  0
 18 17  2  0
 19 20  2  0
 19 18  1  0
 20 15  1  0
 21 19  1  0
  2 22  1  0
  3 23  1  0
  9 24  1  6
 10 25  1  0
 10 26  1  0
 11 27  1  0
 11 28  1  0
 12 29  1  0
 12 30  1  0
 13 31  1  1
 14 32  1  0
 14 33  1  0
 14 34  1  0
 16 35  1  0
 17 36  1  0
 21 37  1  0
M  ISO  8  22  14  23  14  24  13  25  13  26  13  27  13  28  13  29  13
M  ISO  8  30  13  31  13  32   8  33   8  34   8  35  14  36  14  37  11
M  END
>  <minimizedAffinity>  (1) 
-5.05434799

>  <minimizedRMSD>  (1) 
0.703852177

$$$$
