
     RDKit          3D

 37 39  0  0  1  0  0  0  0  0999 V2000
   37.8570   28.8880   41.9200 N   0  0  0  0  0  0  0  0  0  0  0  0
   37.2870   28.5890   43.0700 C   0  0  0  0  0  0  0  0  0  0  0  0
   36.8520   27.3230   43.3880 C   0  0  0  0  0  0  0  0  0  0  0  0
   37.0040   26.2810   42.4720 C   0  0  0  0  0  0  0  0  0  0  0  0
   36.6100   25.1300   42.7590 O   0  0  0  0  0  0  0  0  0  0  0  0
   37.5920   26.6260   41.3040 N   0  0  0  0  0  0  0  0  0  0  0  0
   37.9990   27.8730   41.0400 C   0  0  0  0  0  0  0  0  0  0  0  0
   38.5380   28.0870   39.9150 O   0  0  0  0  0  0  0  0  0  0  0  0
   37.7640   25.5730   40.3390 C   0  0  2  0  0  0  0  0  0  0  0  0
   36.5860   24.8040   39.9610 C   0  0  0  0  0  0  0  0  0  0  0  0
   37.1860   23.5160   39.3800 C   0  0  0  0  0  0  0  0  0  0  0  0
   38.2770   23.2120   40.3430 C   0  0  0  0  0  0  0  0  0  0  0  0
   38.7990   24.5420   40.7930 C   0  0  1  0  0  0  0  0  0  0  0  0
   40.1760   24.8650   40.3230 C   0  0  0  0  0  0  0  0  0  0  0  0
   38.3110   30.1900   41.5770 C   0  0  0  0  0  0  0  0  0  0  0  0
   39.6460   30.6450   41.7970 C   0  0  0  0  0  0  0  0  0  0  0  0
   39.9470   31.9530   41.4070 C   0  0  0  0  0  0  0  0  0  0  0  0
   38.9710   32.6990   40.8560 N   0  0  0  0  0  0  0  0  0  0  0  0
   37.7230   32.2490   40.6600 C   0  0  0  0  0  0  0  0  0  0  0  0
   37.4140   31.0010   41.0240 N   0  0  0  0  0  0  0  0  0  0  0  0
   36.7510   33.0610   40.0840 O   0  0  0  0  0  0  0  0  0  0  0  0
   37.1525   29.3903   43.8115 H   0  0  0  0  0  0  0  0  0  0  0  0
   36.3840   27.1320   44.3650 H   0  0  0  0  0  0  0  0  0  0  0  0
   38.0764   26.1562   39.4602 H   0  0  0  0  0  0  0  0  0  0  0  0
   35.9575   24.5871   40.8374 H   0  0  0  0  0  0  0  0  0  0  0  0
   35.9308   25.3342   39.2542 H   0  0  0  0  0  0  0  0  0  0  0  0
   36.4415   22.7066   39.3530 H   0  0  0  0  0  0  0  0  0  0  0  0
   37.5321   23.6210   38.3412 H   0  0  0  0  0  0  0  0  0  0  0  0
   37.8858   22.6432   41.1994 H   0  0  0  0  0  0  0  0  0  0  0  0
   39.0665   22.5991   39.8836 H   0  0  0  0  0  0  0  0  0  0  0  0
   38.9202   24.5387   41.8863 H   0  0  0  0  0  0  0  0  0  0  0  0
   40.8332   25.0191   41.1915 H   0  0  0  0  0  0  0  0  0  0  0  0
   40.5607   24.0327   39.7153 H   0  0  0  0  0  0  0  0  0  0  0  0
   40.1505   25.7815   39.7153 H   0  0  0  0  0  0  0  0  0  0  0  0
   40.4056   29.9938   42.2541 H   0  0  0  0  0  0  0  0  0  0  0  0
   40.9579   32.3634   41.5470 H   0  0  0  0  0  0  0  0  0  0  0  0
   35.8342   32.7139   39.9460 H   0  0  0  0  0  0  0  0  0  0  0  0
  1  2  1  0
  2  3  2  0
  4  5  2  0
  4  3  1  0
  6  4  1  0
  7  6  1  0
  7  1  1  0
  8  7  2  0
  9 13  1  0
  9  6  1  0
 10  9  1  0
 11 10  1  0
 11 12  1  0
 12 13  1  0
 14 13  1  0
 15 16  2  0
 15  1  1  0
 17 16  1  0
 18 17  2  0
 19 18  1  0
 19 20  2  0
 20 15  1  0
 21 19  1  0
  2 22  1  0
  3 23  1  0
  9 24  1  6
 10 25  1  0
 10 26  1  0
 11 27  1  0
 11 28  1  0
 12 29  1  0
 12 30  1  0
 13 31  1  1
 14 32  1  0
 14 33  1  0
 14 34  1  0
 16 35  1  0
 17 36  1  0
 21 37  1  0
M  ISO  8  22  14  23  14  24  13  25  13  26  13  27  13  28  13  29  13
M  ISO  8  30  13  31  13  32   8  33   8  34   8  35  14  36  14  37   3
M  END
>  <minimizedAffinity>  (1) 
-5.53921032

>  <minimizedRMSD>  (1) 
0.374226362

$$$$
