
     RDKit          3D

 47 50  0  0  1  0  0  0  0  0999 V2000
   39.4920   29.3710   42.3430 N   0  0  0  0  0  0  0  0  0  0  0  0
   38.5030   29.6380   43.1610 C   0  0  0  0  0  0  0  0  0  0  0  0
   37.4850   28.7550   43.4240 C   0  0  0  0  0  0  0  0  0  0  0  0
   37.4650   27.4980   42.8110 C   0  0  0  0  0  0  0  0  0  0  0  0
   36.5410   26.7010   43.0530 O   0  0  0  0  0  0  0  0  0  0  0  0
   38.5030   27.2520   41.9700 N   0  0  0  0  0  0  0  0  0  0  0  0
   39.4630   28.1520   41.7550 C   0  0  0  0  0  0  0  0  0  0  0  0
   40.3920   27.8200   40.9470 O   0  0  0  0  0  0  0  0  0  0  0  0
   38.5070   25.9710   41.3280 C   0  0  2  0  0  0  0  0  0  0  0  0
   37.5060   25.7120   40.3030 C   0  0  0  0  0  0  0  0  0  0  0  0
   37.4660   24.1740   40.2450 C   0  0  0  0  0  0  0  0  0  0  0  0
   37.5270   23.7890   41.6770 C   0  0  0  0  0  0  0  0  0  0  0  0
   38.3760   24.8300   42.3290 C   0  0  1  0  0  0  0  0  0  0  0  0
   39.7080   24.3300   42.8080 C   0  0  0  0  0  0  0  0  0  0  0  0
   40.5590   30.2680   42.0540 C   0  0  0  0  0  0  0  0  0  0  0  0
   41.7540   30.3580   42.8350 C   0  0  0  0  0  0  0  0  0  0  0  0
   42.7160   31.2870   42.4310 C   0  0  0  0  0  0  0  0  0  0  0  0
   42.4550   32.0340   41.3340 N   0  0  0  0  0  0  0  0  0  0  0  0
   41.3290   31.9270   40.6240 C   0  0  0  0  0  0  0  0  0  0  0  0
   40.4020   31.0470   40.9980 N   0  0  0  0  0  0  0  0  0  0  0  0
   41.1350   32.7300   39.5110 O   0  0  0  0  0  0  0  0  0  0  0  0
   40.4900   33.9450   39.7120 C   0  0  0  0  0  0  0  0  0  0  0  0
   41.3380   35.0370   39.5090 C   0  0  0  0  0  0  0  0  0  0  0  0
   40.8550   36.3310   39.6670 C   0  0  0  0  0  0  0  0  0  0  0  0
   39.5340   36.5610   40.0290 C   0  0  0  0  0  0  0  0  0  0  0  0
   38.7230   35.4680   40.2230 C   0  0  0  0  0  0  0  0  0  0  0  0
   39.1760   34.1760   40.0720 C   0  0  0  0  0  0  0  0  0  0  0  0
   38.4880   30.6176   43.6612 H   0  0  0  0  0  0  0  0  0  0  0  0
   36.6814   29.0375   44.1200 H   0  0  0  0  0  0  0  0  0  0  0  0
   39.4836   26.0123   40.8235 H   0  0  0  0  0  0  0  0  0  0  0  0
   36.5275   26.1230   40.5921 H   0  0  0  0  0  0  0  0  0  0  0  0
   37.7434   26.1779   39.3353 H   0  0  0  0  0  0  0  0  0  0  0  0
   36.5350   23.8192   39.7787 H   0  0  0  0  0  0  0  0  0  0  0  0
   38.2774   23.7398   39.6425 H   0  0  0  0  0  0  0  0  0  0  0  0
   36.5191   23.7825   42.1175 H   0  0  0  0  0  0  0  0  0  0  0  0
   37.9402   22.7787   41.8128 H   0  0  0  0  0  0  0  0  0  0  0  0
   37.8911   25.1670   43.2571 H   0  0  0  0  0  0  0  0  0  0  0  0
   39.7235   24.3242   43.9079 H   0  0  0  0  0  0  0  0  0  0  0  0
   39.8726   23.3089   42.4336 H   0  0  0  0  0  0  0  0  0  0  0  0
   40.5039   24.9906   42.4336 H   0  0  0  0  0  0  0  0  0  0  0  0
   41.9093   29.7212   43.7184 H   0  0  0  0  0  0  0  0  0  0  0  0
   43.6569   31.4073   42.9880 H   0  0  0  0  0  0  0  0  0  0  0  0
   42.3877   34.8727   39.2242 H   0  0  0  0  0  0  0  0  0  0  0  0
   41.5287   37.1849   39.5030 H   0  0  0  0  0  0  0  0  0  0  0  0
   39.1495   37.5837   40.1563 H   0  0  0  0  0  0  0  0  0  0  0  0
   37.6736   35.6313   40.5094 H   0  0  0  0  0  0  0  0  0  0  0  0
   38.4931   33.3297   40.2377 H   0  0  0  0  0  0  0  0  0  0  0  0
  1  2  1  0
  2  3  2  0
  4  5  2  0
  4  3  1  0
  6  4  1  0
  7  6  1  0
  7  1  1  0
  8  7  2  0
  9  6  1  0
  9 13  1  0
 10  9  1  0
 11 10  1  0
 11 12  1  0
 12 13  1  0
 13 14  1  0
 15  1  1  0
 15 16  2  0
 17 16  1  0
 18 17  2  0
 19 20  2  0
 19 18  1  0
 20 15  1  0
 21 22  1  0
 21 19  1  0
 22 27  2  0
 23 24  2  0
 23 22  1  0
 24 25  1  0
 25 26  2  0
 27 26  1  0
  2 28  1  0
  3 29  1  0
  9 30  1  6
 10 31  1  0
 10 32  1  0
 11 33  1  0
 11 34  1  0
 12 35  1  0
 12 36  1  0
 13 37  1  1
 14 38  1  0
 14 39  1  0
 14 40  1  0
 16 41  1  0
 17 42  1  0
 23 43  1  0
 24 44  1  0
 25 45  1  0
 26 46  1  0
 27 47  1  0
M  ISO  8  28  14  29  14  30  13  31  13  32  13  33  13  34  13  35  13
M  ISO  8  36  13  37  13  38   8  39   8  40   8  41  14  42  14  43  14
M  ISO  4  44  14  45  14  46  14  47  14
M  END
>  <minimizedAffinity>  (1) 
-6.44821882

>  <minimizedRMSD>  (1) 
2.39833999

$$$$
