
     RDKit          3D

 47 50  0  0  1  0  0  0  0  0999 V2000
   39.4980   29.3390   42.3720 N   0  0  0  0  0  0  0  0  0  0  0  0
   38.4990   29.6070   43.1980 C   0  0  0  0  0  0  0  0  0  0  0  0
   37.4720   28.7210   43.4500 C   0  0  0  0  0  0  0  0  0  0  0  0
   37.4540   27.4740   42.8220 C   0  0  0  0  0  0  0  0  0  0  0  0
   36.5160   26.6780   43.0590 O   0  0  0  0  0  0  0  0  0  0  0  0
   38.4950   27.2380   41.9840 N   0  0  0  0  0  0  0  0  0  0  0  0
   39.4620   28.1310   41.7770 C   0  0  0  0  0  0  0  0  0  0  0  0
   40.3850   27.8030   40.9740 O   0  0  0  0  0  0  0  0  0  0  0  0
   38.4950   25.9580   41.3270 C   0  0  2  0  0  0  0  0  0  0  0  0
   37.4880   25.7090   40.3090 C   0  0  0  0  0  0  0  0  0  0  0  0
   37.4300   24.1830   40.2250 C   0  0  0  0  0  0  0  0  0  0  0  0
   37.4970   23.7840   41.6570 C   0  0  0  0  0  0  0  0  0  0  0  0
   38.3670   24.8060   42.3200 C   0  0  1  0  0  0  0  0  0  0  0  0
   39.6980   24.3040   42.7810 C   0  0  0  0  0  0  0  0  0  0  0  0
   40.5620   30.2400   42.1020 C   0  0  0  0  0  0  0  0  0  0  0  0
   41.7790   30.2640   42.8350 C   0  0  0  0  0  0  0  0  0  0  0  0
   42.7340   31.2050   42.4540 C   0  0  0  0  0  0  0  0  0  0  0  0
   42.4480   32.0300   41.4200 N   0  0  0  0  0  0  0  0  0  0  0  0
   41.2970   31.9840   40.7510 C   0  0  0  0  0  0  0  0  0  0  0  0
   40.3710   31.0930   41.0970 N   0  0  0  0  0  0  0  0  0  0  0  0
   41.0520   32.8510   39.6970 O   0  0  0  0  0  0  0  0  0  0  0  0
   40.4550   34.0740   39.8040 C   0  0  0  0  0  0  0  0  0  0  0  0
   39.1260   34.2820   40.1100 C   0  0  0  0  0  0  0  0  0  0  0  0
   38.6920   35.6000   40.1770 C   0  0  0  0  0  0  0  0  0  0  0  0
   39.5460   36.6790   39.9470 C   0  0  0  0  0  0  0  0  0  0  0  0
   40.8860   36.4520   39.6380 C   0  0  0  0  0  0  0  0  0  0  0  0
   41.3240   35.1300   39.5720 C   0  0  0  0  0  0  0  0  0  0  0  0
   38.4871   30.5819   43.7074 H   0  0  0  0  0  0  0  0  0  0  0  0
   36.6665   28.9972   44.1463 H   0  0  0  0  0  0  0  0  0  0  0  0
   39.4686   26.0037   40.8171 H   0  0  0  0  0  0  0  0  0  0  0  0
   36.5144   26.1229   40.6103 H   0  0  0  0  0  0  0  0  0  0  0  0
   37.7293   26.1809   39.3451 H   0  0  0  0  0  0  0  0  0  0  0  0
   36.4918   23.8449   39.7607 H   0  0  0  0  0  0  0  0  0  0  0  0
   38.2284   23.7451   39.6079 H   0  0  0  0  0  0  0  0  0  0  0  0
   36.4919   23.7875   42.1039 H   0  0  0  0  0  0  0  0  0  0  0  0
   37.8994   22.7674   41.7776 H   0  0  0  0  0  0  0  0  0  0  0  0
   37.8957   25.1224   43.2622 H   0  0  0  0  0  0  0  0  0  0  0  0
   39.7252   24.2937   43.8806 H   0  0  0  0  0  0  0  0  0  0  0  0
   39.8570   23.2841   42.4008 H   0  0  0  0  0  0  0  0  0  0  0  0
   40.4909   24.9649   42.4008 H   0  0  0  0  0  0  0  0  0  0  0  0
   41.9599   29.5690   43.6683 H   0  0  0  0  0  0  0  0  0  0  0  0
   43.6970   31.2754   42.9810 H   0  0  0  0  0  0  0  0  0  0  0  0
   38.4403   33.4415   40.2928 H   0  0  0  0  0  0  0  0  0  0  0  0
   37.6379   35.7999   40.4199 H   0  0  0  0  0  0  0  0  0  0  0  0
   39.1621   37.7079   40.0095 H   0  0  0  0  0  0  0  0  0  0  0  0
   41.5756   37.2887   39.4522 H   0  0  0  0  0  0  0  0  0  0  0  0
   42.3769   34.9208   39.3318 H   0  0  0  0  0  0  0  0  0  0  0  0
  1  2  1  0
  2  3  2  0
  4  5  2  0
  4  3  1  0
  6  4  1  0
  7  6  1  0
  7  1  1  0
  8  7  2  0
  9  6  1  0
  9 13  1  0
 10  9  1  0
 11 10  1  0
 11 12  1  0
 12 13  1  0
 13 14  1  0
 15  1  1  0
 15 16  2  0
 17 16  1  0
 18 17  2  0
 19 20  2  0
 19 18  1  0
 20 15  1  0
 21 22  1  0
 21 19  1  0
 22 23  2  0
 23 24  1  0
 25 24  2  0
 26 25  1  0
 27 26  2  0
 27 22  1  0
  2 28  1  0
  3 29  1  0
  9 30  1  6
 10 31  1  0
 10 32  1  0
 11 33  1  0
 11 34  1  0
 12 35  1  0
 12 36  1  0
 13 37  1  1
 14 38  1  0
 14 39  1  0
 14 40  1  0
 16 41  1  0
 17 42  1  0
 23 43  1  0
 24 44  1  0
 25 45  1  0
 26 46  1  0
 27 47  1  0
M  ISO  8  28  14  29  14  30  13  31  13  32  13  33  13  34  13  35  13
M  ISO  8  36  13  37  13  38   8  39   8  40   8  41  14  42  14  43  14
M  ISO  4  44  14  45  14  46  14  47  14
M  END
>  <minimizedAffinity>  (1) 
-6.40387487

>  <minimizedRMSD>  (1) 
2.53914595

$$$$
