
     RDKit          3D

 52 55  0  0  1  0  0  0  0  0999 V2000
   39.4940   29.3720   41.8690 N   0  0  0  0  0  0  0  0  0  0  0  0
   38.7800   29.6680   42.9380 C   0  0  0  0  0  0  0  0  0  0  0  0
   37.7640   28.8670   43.4060 C   0  0  0  0  0  0  0  0  0  0  0  0
   37.4450   27.6730   42.7390 C   0  0  0  0  0  0  0  0  0  0  0  0
   36.5230   26.9500   43.1660 O   0  0  0  0  0  0  0  0  0  0  0  0
   38.2000   27.4060   41.6480 N   0  0  0  0  0  0  0  0  0  0  0  0
   39.1730   28.2230   41.2440 C   0  0  0  0  0  0  0  0  0  0  0  0
   39.8160   27.8670   40.2030 O   0  0  0  0  0  0  0  0  0  0  0  0
   37.8910   26.1920   40.9520 C   0  0  2  0  0  0  0  0  0  0  0  0
   36.6750   26.1440   40.1610 C   0  0  0  0  0  0  0  0  0  0  0  0
   36.3970   24.6430   40.0290 C   0  0  0  0  0  0  0  0  0  0  0  0
   36.7130   24.1260   41.3820 C   0  0  0  0  0  0  0  0  0  0  0  0
   37.8210   24.9890   41.8980 C   0  0  1  0  0  0  0  0  0  0  0  0
   39.1290   24.2900   42.0350 C   0  0  0  0  0  0  0  0  0  0  0  0
   40.5500   30.1870   41.3700 C   0  0  0  0  0  0  0  0  0  0  0  0
   41.9150   29.7560   41.3280 C   0  0  0  0  0  0  0  0  0  0  0  0
   42.8300   30.6700   40.8120 C   0  0  0  0  0  0  0  0  0  0  0  0
   42.3960   31.8780   40.3900 N   0  0  0  0  0  0  0  0  0  0  0  0
   41.1050   32.2470   40.4450 C   0  0  0  0  0  0  0  0  0  0  0  0
   40.2150   31.3920   40.9340 N   0  0  0  0  0  0  0  0  0  0  0  0
   40.6940   33.4880   40.0070 O   0  0  0  0  0  0  0  0  0  0  0  0
   40.5990   37.4950   40.9890 N   0  0  0  0  0  0  0  0  0  0  0  0
   41.5220   36.6730   41.7190 C   0  0  0  0  0  0  0  0  0  0  0  0
   41.8230   35.3500   41.0750 C   0  0  0  0  0  0  0  0  0  0  0  0
   40.5250   34.6340   40.7700 C   0  0  0  0  0  0  0  0  0  0  0  0
   39.5110   35.5670   40.1380 C   0  0  0  0  0  0  0  0  0  0  0  0
   40.2150   36.8620   39.7630 C   0  0  0  0  0  0  0  0  0  0  0  0
   39.0073   30.5978   43.4800 H   0  0  0  0  0  0  0  0  0  0  0  0
   37.2009   29.1621   44.3037 H   0  0  0  0  0  0  0  0  0  0  0  0
   38.7346   26.1556   40.2470 H   0  0  0  0  0  0  0  0  0  0  0  0
   35.8486   26.6535   40.6781 H   0  0  0  0  0  0  0  0  0  0  0  0
   36.7743   26.6497   39.1892 H   0  0  0  0  0  0  0  0  0  0  0  0
   35.3441   24.4570   39.7705 H   0  0  0  0  0  0  0  0  0  0  0  0
   36.9835   24.1615   39.2327 H   0  0  0  0  0  0  0  0  0  0  0  0
   35.8321   24.2012   42.0365 H   0  0  0  0  0  0  0  0  0  0  0  0
   37.0047   23.0658   41.3530 H   0  0  0  0  0  0  0  0  0  0  0  0
   37.6034   25.2986   42.9309 H   0  0  0  0  0  0  0  0  0  0  0  0
   39.3669   24.1629   43.1014 H   0  0  0  0  0  0  0  0  0  0  0  0
   39.0698   23.3033   41.5524 H   0  0  0  0  0  0  0  0  0  0  0  0
   39.9164   24.8876   41.5524 H   0  0  0  0  0  0  0  0  0  0  0  0
   42.2226   28.7612   41.6826 H   0  0  0  0  0  0  0  0  0  0  0  0
   43.8971   30.4108   40.7485 H   0  0  0  0  0  0  0  0  0  0  0  0
   39.7597   37.6536   41.5646 H   0  0  0  0  0  0  0  0  0  0  0  0
   42.4666   37.2269   41.8236 H   0  0  0  0  0  0  0  0  0  0  0  0
   41.0449   36.4492   42.6846 H   0  0  0  0  0  0  0  0  0  0  0  0
   42.3799   35.5146   40.1408 H   0  0  0  0  0  0  0  0  0  0  0  0
   42.4293   34.7375   41.7585 H   0  0  0  0  0  0  0  0  0  0  0  0
   40.1308   34.3010   41.7415 H   0  0  0  0  0  0  0  0  0  0  0  0
   39.0884   35.0998   39.2363 H   0  0  0  0  0  0  0  0  0  0  0  0
   38.6953   35.7729   40.8466 H   0  0  0  0  0  0  0  0  0  0  0  0
   41.1049   36.6463   39.1534 H   0  0  0  0  0  0  0  0  0  0  0  0
   39.5540   37.5137   39.1728 H   0  0  0  0  0  0  0  0  0  0  0  0
  1  2  1  0
  2  3  2  0
  4  5  2  0
  4  3  1  0
  6  4  1  0
  7  6  1  0
  7  1  1  0
  8  7  2  0
  9  6  1  0
  9 13  1  0
 10  9  1  0
 11 10  1  0
 11 12  1  0
 12 13  1  0
 13 14  1  0
 15  1  1  0
 16 15  2  0
 17 16  1  0
 18 19  1  0
 18 17  2  0
 19 20  2  0
 20 15  1  0
 21 19  1  0
 21 25  1  0
 22 23  1  0
 24 23  1  0
 25 24  1  0
 26 25  1  0
 27 26  1  0
 27 22  1  0
  2 28  1  0
  3 29  1  0
  9 30  1  6
 10 31  1  0
 10 32  1  0
 11 33  1  0
 11 34  1  0
 12 35  1  0
 12 36  1  0
 13 37  1  1
 14 38  1  0
 14 39  1  0
 14 40  1  0
 16 41  1  0
 17 42  1  0
 22 43  1  0
 23 44  1  0
 23 45  1  0
 24 46  1  0
 24 47  1  0
 25 48  1  0
 26 49  1  0
 26 50  1  0
 27 51  1  0
 27 52  1  0
M  ISO  8  28  14  29  14  30  13  31  13  32  13  33  13  34  13  35  13
M  ISO  8  36  13  37  13  38   8  39   8  40   8  41  14  42  14  43   5
M  ISO  8  44  13  45  13  46  13  47  13  48  13  49  13  50  13  51  13
M  ISO  1  52  13
M  END
>  <minimizedAffinity>  (1) 
-6.27169132

>  <minimizedRMSD>  (1) 
2.98799992

$$$$
