
     RDKit          3D

 44 47  0  0  1  0  0  0  0  0999 V2000
   38.7980   29.5500   41.9410 N   0  0  0  0  0  0  0  0  0  0  0  0
   38.2290   29.4150   43.1280 C   0  0  0  0  0  0  0  0  0  0  0  0
   37.5290   28.2810   43.4920 C   0  0  0  0  0  0  0  0  0  0  0  0
   37.4010   27.2200   42.5940 C   0  0  0  0  0  0  0  0  0  0  0  0
   36.7620   26.1920   42.9340 O   0  0  0  0  0  0  0  0  0  0  0  0
   37.9950   27.4010   41.4000 N   0  0  0  0  0  0  0  0  0  0  0  0
   38.6660   28.5200   41.0850 C   0  0  0  0  0  0  0  0  0  0  0  0
   39.1880   28.5830   39.9310 O   0  0  0  0  0  0  0  0  0  0  0  0
   37.8730   26.3210   40.4640 C   0  0  2  0  0  0  0  0  0  0  0  0
   36.5570   26.0000   39.9470 C   0  0  0  0  0  0  0  0  0  0  0  0
   36.7160   24.5540   39.4600 C   0  0  0  0  0  0  0  0  0  0  0  0
   37.5390   23.9290   40.5210 C   0  0  0  0  0  0  0  0  0  0  0  0
   38.4340   25.0050   41.0260 C   0  0  1  0  0  0  0  0  0  0  0  0
   39.8790   24.8120   40.7090 C   0  0  0  0  0  0  0  0  0  0  0  0
   39.5230   30.7090   41.5480 C   0  0  0  0  0  0  0  0  0  0  0  0
   40.9430   30.7820   41.5330 C   0  0  0  0  0  0  0  0  0  0  0  0
   41.5140   31.9860   41.1230 C   0  0  0  0  0  0  0  0  0  0  0  0
   40.7090   32.9960   40.7710 N   0  0  0  0  0  0  0  0  0  0  0  0
   39.3610   32.9100   40.7910 C   0  0  0  0  0  0  0  0  0  0  0  0
   38.7870   31.7590   41.1830 N   0  0  0  0  0  0  0  0  0  0  0  0
   38.5650   33.9780   40.4200 O   0  0  0  0  0  0  0  0  0  0  0  0
   39.1900   35.2370   40.3790 C   0  0  0  0  0  0  0  0  0  0  0  0
   40.4170   35.5760   40.9110 C   0  0  0  0  0  0  0  0  0  0  0  0
   40.6280   36.9140   40.6340 C   0  0  0  0  0  0  0  0  0  0  0  0
   39.4920   37.3300   39.9330 C   0  0  0  0  0  0  0  0  0  0  0  0
   38.6710   36.3190   39.8020 O   0  0  0  0  0  0  0  0  0  0  0  0
   38.3168   30.2376   43.8530 H   0  0  0  0  0  0  0  0  0  0  0  0
   37.0721   28.2141   44.4904 H   0  0  0  0  0  0  0  0  0  0  0  0
   38.4533   26.7327   39.6250 H   0  0  0  0  0  0  0  0  0  0  0  0
   35.7950   26.0687   40.7373 H   0  0  0  0  0  0  0  0  0  0  0  0
   36.2243   26.6880   39.1558 H   0  0  0  0  0  0  0  0  0  0  0  0
   35.7386   24.0567   39.3744 H   0  0  0  0  0  0  0  0  0  0  0  0
   37.1720   24.4824   38.4615 H   0  0  0  0  0  0  0  0  0  0  0  0
   36.8976   23.5524   41.3314 H   0  0  0  0  0  0  0  0  0  0  0  0
   38.1123   23.0723   40.1370 H   0  0  0  0  0  0  0  0  0  0  0  0
   38.4315   25.0006   42.1260 H   0  0  0  0  0  0  0  0  0  0  0  0
   40.4526   24.7354   41.6445 H   0  0  0  0  0  0  0  0  0  0  0  0
   40.0060   23.8889   40.1244 H   0  0  0  0  0  0  0  0  0  0  0  0
   40.2438   25.6694   40.1244 H   0  0  0  0  0  0  0  0  0  0  0  0
   41.5645   29.9251   41.8321 H   0  0  0  0  0  0  0  0  0  0  0  0
   42.6071   32.1040   41.0893 H   0  0  0  0  0  0  0  0  0  0  0  0
   41.1001   34.9065   41.4543 H   0  0  0  0  0  0  0  0  0  0  0  0
   41.5032   37.5218   40.9070 H   0  0  0  0  0  0  0  0  0  0  0  0
   39.3160   38.3467   39.5517 H   0  0  0  0  0  0  0  0  0  0  0  0
  1  2  1  0
  2  3  2  0
  4  5  2  0
  4  3  1  0
  6  4  1  0
  7  6  1  0
  7  1  1  0
  8  7  2  0
  9 13  1  0
  9  6  1  0
 10  9  1  0
 11 10  1  0
 11 12  1  0
 12 13  1  0
 14 13  1  0
 15  1  1  0
 16 15  2  0
 17 16  1  0
 18 19  1  0
 18 17  2  0
 19 20  2  0
 20 15  1  0
 21 19  1  0
 22 21  1  0
 22 23  2  0
 24 23  1  0
 25 24  2  0
 26 25  1  0
 26 22  1  0
  2 27  1  0
  3 28  1  0
  9 29  1  6
 10 30  1  0
 10 31  1  0
 11 32  1  0
 11 33  1  0
 12 34  1  0
 12 35  1  0
 13 36  1  1
 14 37  1  0
 14 38  1  0
 14 39  1  0
 16 40  1  0
 17 41  1  0
 23 42  1  0
 24 43  1  0
 25 44  1  0
M  ISO  8  27  14  28  14  29  13  30  13  31  13  32  13  33  13  34  13
M  ISO  8  35  13  36  13  37   8  38   8  39   8  40  14  41  14  42  14
M  ISO  2  43  14  44  14
M  END
>  <minimizedAffinity>  (1) 
-6.17666769

>  <minimizedRMSD>  (1) 
1.61664844

$$$$
