
     RDKit          3D

 42 45  0  0  1  0  0  0  0  0999 V2000
   38.9860   29.3900   42.3610 N   0  0  0  0  0  0  0  0  0  0  0  0
   38.1500   29.4590   43.3700 C   0  0  0  0  0  0  0  0  0  0  0  0
   37.2520   28.4550   43.6840 C   0  0  0  0  0  0  0  0  0  0  0  0
   37.2060   27.2970   42.9080 C   0  0  0  0  0  0  0  0  0  0  0  0
   36.3930   26.3930   43.1950 O   0  0  0  0  0  0  0  0  0  0  0  0
   38.0780   27.2600   41.8810 N   0  0  0  0  0  0  0  0  0  0  0  0
   38.9220   28.2610   41.6270 C   0  0  0  0  0  0  0  0  0  0  0  0
   39.7010   28.1190   40.6310 O   0  0  0  0  0  0  0  0  0  0  0  0
   38.0510   26.0790   41.0660 C   0  0  2  0  0  0  0  0  0  0  0  0
   36.8890   25.8500   40.2270 C   0  0  0  0  0  0  0  0  0  0  0  0
   36.9400   24.3450   39.9570 C   0  0  0  0  0  0  0  0  0  0  0  0
   37.3320   23.7770   41.2800 C   0  0  0  0  0  0  0  0  0  0  0  0
   38.2210   24.8040   41.9120 C   0  0  1  0  0  0  0  0  0  0  0  0
   39.6430   24.3870   42.0440 C   0  0  0  0  0  0  0  0  0  0  0  0
   39.9150   30.4120   42.0250 C   0  0  0  0  0  0  0  0  0  0  0  0
   41.1900   30.5490   42.6400 C   0  0  0  0  0  0  0  0  0  0  0  0
   41.9960   31.6010   42.2110 C   0  0  0  0  0  0  0  0  0  0  0  0
   41.5350   32.4180   41.2520 N   0  0  0  0  0  0  0  0  0  0  0  0
   40.3240   32.2630   40.6890 C   0  0  0  0  0  0  0  0  0  0  0  0
   39.5350   31.2690   41.0800 N   0  0  0  0  0  0  0  0  0  0  0  0
   39.8820   33.1330   39.6970 O   0  0  0  0  0  0  0  0  0  0  0  0
   40.0190   34.5080   39.7810 C   0  0  0  0  0  0  0  0  0  0  0  0
   41.0400   35.2600   39.3280 N   0  0  0  0  0  0  0  0  0  0  0  0
   40.8530   36.5070   39.5680 O   0  0  0  0  0  0  0  0  0  0  0  0
   39.6930   36.5990   40.1910 C   0  0  0  0  0  0  0  0  0  0  0  0
   39.1680   35.3670   40.3280 N   0  0  0  0  0  0  0  0  0  0  0  0
   38.1641   30.3617   43.9984 H   0  0  0  0  0  0  0  0  0  0  0  0
   36.5756   28.5696   44.5439 H   0  0  0  0  0  0  0  0  0  0  0  0
   38.8936   26.2836   40.3891 H   0  0  0  0  0  0  0  0  0  0  0  0
   35.9629   26.1246   40.7532 H   0  0  0  0  0  0  0  0  0  0  0  0
   36.8973   26.4526   39.3068 H   0  0  0  0  0  0  0  0  0  0  0  0
   35.9566   23.9670   39.6407 H   0  0  0  0  0  0  0  0  0  0  0  0
   37.6338   24.0742   39.1475 H   0  0  0  0  0  0  0  0  0  0  0  0
   36.4418   23.6043   41.9027 H   0  0  0  0  0  0  0  0  0  0  0  0
   37.8419   22.8083   41.1721 H   0  0  0  0  0  0  0  0  0  0  0  0
   37.9224   24.9671   42.9580 H   0  0  0  0  0  0  0  0  0  0  0  0
   39.9052   24.3101   43.1095 H   0  0  0  0  0  0  0  0  0  0  0  0
   39.7849   23.4094   41.5600 H   0  0  0  0  0  0  0  0  0  0  0  0
   40.2904   25.1331   41.5600 H   0  0  0  0  0  0  0  0  0  0  0  0
   41.5260   29.8527   43.4225 H   0  0  0  0  0  0  0  0  0  0  0  0
   42.9920   31.7589   42.6504 H   0  0  0  0  0  0  0  0  0  0  0  0
   39.2295   37.5328   40.5420 H   0  0  0  0  0  0  0  0  0  0  0  0
  1  2  1  0
  2  3  2  0
  4  5  2  0
  4  3  1  0
  6  4  1  0
  7  6  1  0
  7  1  1  0
  8  7  2  0
  9  6  1  0
  9 13  1  0
 10  9  1  0
 11 10  1  0
 11 12  1  0
 12 13  1  0
 13 14  1  0
 15  1  1  0
 15 16  2  0
 17 16  1  0
 18 17  2  0
 19 20  2  0
 19 18  1  0
 20 15  1  0
 21 22  1  0
 21 19  1  0
 22 26  1  0
 23 24  1  0
 23 22  2  0
 24 25  1  0
 25 26  2  0
  2 27  1  0
  3 28  1  0
  9 29  1  6
 10 30  1  0
 10 31  1  0
 11 32  1  0
 11 33  1  0
 12 34  1  0
 12 35  1  0
 13 36  1  1
 14 37  1  0
 14 38  1  0
 14 39  1  0
 16 40  1  0
 17 41  1  0
 25 42  1  0
M  ISO  8  27  14  28  14  29  13  30  13  31  13  32  13  33  13  34  13
M  ISO  8  35  13  36  13  37   8  38   8  39   8  40  14  41  14  42  14
M  END
>  <minimizedAffinity>  (1) 
-6.09926414

>  <minimizedRMSD>  (1) 
2.05228734

$$$$
