
     RDKit          3D

 50 53  0  0  1  0  0  0  0  0999 V2000
   39.5560   29.2350   42.3370 N   0  0  0  0  0  0  0  0  0  0  0  0
   38.6990   29.5450   43.2980 C   0  0  0  0  0  0  0  0  0  0  0  0
   37.5740   28.8010   43.5650 C   0  0  0  0  0  0  0  0  0  0  0  0
   37.2880   27.6640   42.8120 C   0  0  0  0  0  0  0  0  0  0  0  0
   36.2670   26.9870   43.0540 O   0  0  0  0  0  0  0  0  0  0  0  0
   38.1870   27.3780   41.8380 N   0  0  0  0  0  0  0  0  0  0  0  0
   39.2730   28.1360   41.6170 C   0  0  0  0  0  0  0  0  0  0  0  0
   40.0440   27.7850   40.6900 O   0  0  0  0  0  0  0  0  0  0  0  0
   37.9220   26.2160   41.0490 C   0  0  2  0  0  0  0  0  0  0  0  0
   36.7520   26.2250   40.1890 C   0  0  0  0  0  0  0  0  0  0  0  0
   36.4890   24.7350   39.9280 C   0  0  0  0  0  0  0  0  0  0  0  0
   36.7100   24.1400   41.2670 C   0  0  0  0  0  0  0  0  0  0  0  0
   37.8070   24.9500   41.9020 C   0  0  1  0  0  0  0  0  0  0  0  0
   39.1070   24.2450   42.0530 C   0  0  0  0  0  0  0  0  0  0  0  0
   40.7250   29.9930   42.0460 C   0  0  0  0  0  0  0  0  0  0  0  0
   42.0530   29.4640   42.1430 C   0  0  0  0  0  0  0  0  0  0  0  0
   43.1020   30.3280   41.8260 C   0  0  0  0  0  0  0  0  0  0  0  0
   42.8110   31.5830   41.4560 N   0  0  0  0  0  0  0  0  0  0  0  0
   41.5580   32.0520   41.3730 C   0  0  0  0  0  0  0  0  0  0  0  0
   40.5370   31.2490   41.6710 N   0  0  0  0  0  0  0  0  0  0  0  0
   41.2970   33.3670   40.9840 O   0  0  0  0  0  0  0  0  0  0  0  0
   40.6380   33.7670   39.8400 C   0  0  0  0  0  0  0  0  0  0  0  0
   41.2040   34.9710   39.1440 C   0  0  0  0  0  0  0  0  0  0  0  0
   40.6540   36.1160   39.9570 C   0  0  0  0  0  0  0  0  0  0  0  0
   39.2120   35.6660   40.1780 C   0  0  0  0  0  0  0  0  0  0  0  0
   39.2050   34.1750   40.0500 C   0  0  0  0  0  0  0  0  0  0  0  0
   38.8961   30.4376   43.9099 H   0  0  0  0  0  0  0  0  0  0  0  0
   36.8967   29.1047   44.3768 H   0  0  0  0  0  0  0  0  0  0  0  0
   38.8048   26.2259   40.3928 H   0  0  0  0  0  0  0  0  0  0  0  0
   35.8950   26.6929   40.6956 H   0  0  0  0  0  0  0  0  0  0  0  0
   36.9034   26.8021   39.2649 H   0  0  0  0  0  0  0  0  0  0  0  0
   35.4587   24.5664   39.5815 H   0  0  0  0  0  0  0  0  0  0  0  0
   37.1272   24.3045   39.1423 H   0  0  0  0  0  0  0  0  0  0  0  0
   35.7915   24.2012   41.8692 H   0  0  0  0  0  0  0  0  0  0  0  0
   36.9822   23.0765   41.1965 H   0  0  0  0  0  0  0  0  0  0  0  0
   37.5446   25.1712   42.9471 H   0  0  0  0  0  0  0  0  0  0  0  0
   39.3350   24.1213   43.1220 H   0  0  0  0  0  0  0  0  0  0  0  0
   39.0458   23.2565   41.5744 H   0  0  0  0  0  0  0  0  0  0  0  0
   39.9021   24.8355   41.5744 H   0  0  0  0  0  0  0  0  0  0  0  0
   42.2372   28.4248   42.4530 H   0  0  0  0  0  0  0  0  0  0  0  0
   44.1462   29.9862   41.8787 H   0  0  0  0  0  0  0  0  0  0  0  0
   40.7527   32.8478   39.2468 H   0  0  0  0  0  0  0  0  0  0  0  0
   42.3037   34.9613   39.1666 H   0  0  0  0  0  0  0  0  0  0  0  0
   40.9353   35.0247   38.0787 H   0  0  0  0  0  0  0  0  0  0  0  0
   41.1912   36.2265   40.9105 H   0  0  0  0  0  0  0  0  0  0  0  0
   40.7482   37.0980   39.4704 H   0  0  0  0  0  0  0  0  0  0  0  0
   38.8714   35.9624   41.1811 H   0  0  0  0  0  0  0  0  0  0  0  0
   38.5349   36.1302   39.4458 H   0  0  0  0  0  0  0  0  0  0  0  0
   38.5910   33.8686   39.1903 H   0  0  0  0  0  0  0  0  0  0  0  0
   38.7782   33.6971   40.9441 H   0  0  0  0  0  0  0  0  0  0  0  0
  1  2  1  0
  2  3  2  0
  4  5  2  0
  4  3  1  0
  6  4  1  0
  7  6  1  0
  7  1  1  0
  8  7  2  0
  9  6  1  0
  9 13  1  0
 10  9  1  0
 11 10  1  0
 11 12  1  0
 12 13  1  0
 13 14  1  0
 15 16  2  0
 15  1  1  0
 17 16  1  0
 18 17  2  0
 19 18  1  0
 19 20  2  0
 20 15  1  0
 21 19  1  0
 22 26  1  0
 22 21  1  0
 23 22  1  0
 23 24  1  0
 24 25  1  0
 26 25  1  0
  2 27  1  0
  3 28  1  0
  9 29  1  6
 10 30  1  0
 10 31  1  0
 11 32  1  0
 11 33  1  0
 12 34  1  0
 12 35  1  0
 13 36  1  1
 14 37  1  0
 14 38  1  0
 14 39  1  0
 16 40  1  0
 17 41  1  0
 22 42  1  0
 23 43  1  0
 23 44  1  0
 24 45  1  0
 24 46  1  0
 25 47  1  0
 25 48  1  0
 26 49  1  0
 26 50  1  0
M  ISO  8  27  14  28  14  29  13  30  13  31  13  32  13  33  13  34  13
M  ISO  8  35  13  36  13  37   8  38   8  39   8  40  14  41  14  42  13
M  ISO  8  43  13  44  13  45  13  46  13  47  13  48  13  49  13  50  13
M  END
>  <minimizedAffinity>  (1) 
-5.92946434

>  <minimizedRMSD>  (1) 
3.00231838

$$$$
