
     RDKit          3D

 43 46  0  0  1  0  0  0  0  0999 V2000
   39.5490   29.3950   42.1120 N   0  0  0  0  0  0  0  0  0  0  0  0
   38.7020   29.7400   43.0460 C   0  0  0  0  0  0  0  0  0  0  0  0
   37.6500   28.9520   43.4440 C   0  0  0  0  0  0  0  0  0  0  0  0
   37.4490   27.7080   42.8360 C   0  0  0  0  0  0  0  0  0  0  0  0
   36.4910   26.9870   43.1960 O   0  0  0  0  0  0  0  0  0  0  0  0
   38.3360   27.3840   41.8820 N   0  0  0  0  0  0  0  0  0  0  0  0
   39.3470   28.1960   41.5340 C   0  0  0  0  0  0  0  0  0  0  0  0
   40.1270   27.7900   40.6200 O   0  0  0  0  0  0  0  0  0  0  0  0
   38.1500   26.1130   41.2450 C   0  0  2  0  0  0  0  0  0  0  0  0
   36.9400   25.9090   40.4580 C   0  0  0  0  0  0  0  0  0  0  0  0
   36.8340   24.3800   40.3780 C   0  0  0  0  0  0  0  0  0  0  0  0
   37.1810   23.9660   41.7520 C   0  0  0  0  0  0  0  0  0  0  0  0
   38.2110   24.9520   42.2350 C   0  0  1  0  0  0  0  0  0  0  0  0
   39.5840   24.3960   42.3720 C   0  0  0  0  0  0  0  0  0  0  0  0
   40.6460   30.2040   41.6910 C   0  0  0  0  0  0  0  0  0  0  0  0
   41.9470   30.1440   42.2970 C   0  0  0  0  0  0  0  0  0  0  0  0
   42.9210   30.9940   41.7820 C   0  0  0  0  0  0  0  0  0  0  0  0
   42.5970   31.8050   40.7670 N   0  0  0  0  0  0  0  0  0  0  0  0
   41.3680   31.8420   40.2170 C   0  0  0  0  0  0  0  0  0  0  0  0
   40.3960   31.0410   40.6800 N   0  0  0  0  0  0  0  0  0  0  0  0
   41.0750   32.7080   39.1560 O   0  0  0  0  0  0  0  0  0  0  0  0
   40.5050   33.9390   39.5480 C   0  0  0  0  0  0  0  0  0  0  0  0
   41.3960   34.9250   39.3550 C   0  0  0  0  0  0  0  0  0  0  0  0
   40.5150   36.4290   39.9040 S   0  0  0  0  0  0  0  0  0  0  0  0
   38.9860   35.3800   40.3300 C   0  0  0  0  0  0  0  0  0  0  0  0
   39.3650   34.3650   40.0400 N   0  0  0  0  0  0  0  0  0  0  0  0
   38.8392   30.7135   43.5395 H   0  0  0  0  0  0  0  0  0  0  0  0
   36.9693   29.2969   44.2363 H   0  0  0  0  0  0  0  0  0  0  0  0
   38.9934   26.1306   40.5391 H   0  0  0  0  0  0  0  0  0  0  0  0
   36.0628   26.3403   40.9625 H   0  0  0  0  0  0  0  0  0  0  0  0
   36.9780   26.3932   39.4710 H   0  0  0  0  0  0  0  0  0  0  0  0
   35.8139   24.0651   40.1131 H   0  0  0  0  0  0  0  0  0  0  0  0
   37.4808   23.9342   39.6080 H   0  0  0  0  0  0  0  0  0  0  0  0
   36.2904   23.9969   42.3969 H   0  0  0  0  0  0  0  0  0  0  0  0
   37.5664   22.9360   41.7772 H   0  0  0  0  0  0  0  0  0  0  0  0
   37.9780   25.2666   43.2630 H   0  0  0  0  0  0  0  0  0  0  0  0
   39.8339   24.2948   43.4385 H   0  0  0  0  0  0  0  0  0  0  0  0
   39.6296   23.4086   41.8894 H   0  0  0  0  0  0  0  0  0  0  0  0
   40.3038   25.0735   41.8894 H   0  0  0  0  0  0  0  0  0  0  0  0
   42.1632   29.4581   43.1293 H   0  0  0  0  0  0  0  0  0  0  0  0
   43.9381   30.9996   42.2009 H   0  0  0  0  0  0  0  0  0  0  0  0
   42.4190   34.8457   38.9584 H   0  0  0  0  0  0  0  0  0  0  0  0
   38.0117   35.6818   40.7418 H   0  0  0  0  0  0  0  0  0  0  0  0
  1  2  1  0
  2  3  2  0
  4  5  2  0
  4  3  1  0
  6  4  1  0
  7  6  1  0
  7  1  1  0
  8  7  2  0
  9  6  1  0
  9 13  1  0
 10  9  1  0
 11 10  1  0
 11 12  1  0
 12 13  1  0
 13 14  1  0
 15  1  1  0
 15 16  2  0
 17 16  1  0
 18 17  2  0
 19 20  2  0
 19 18  1  0
 20 15  1  0
 21 22  1  0
 21 19  1  0
 22 26  1  0
 23 22  2  0
 23 24  1  0
 24 25  1  0
 26 25  2  0
  2 27  1  0
  3 28  1  0
  9 29  1  6
 10 30  1  0
 10 31  1  0
 11 32  1  0
 11 33  1  0
 12 34  1  0
 12 35  1  0
 13 36  1  1
 14 37  1  0
 14 38  1  0
 14 39  1  0
 16 40  1  0
 17 41  1  0
 23 42  1  0
 25 43  1  0
M  ISO  8  27  14  28  14  29  13  30  13  31  13  32  13  33  13  34  13
M  ISO  8  35  13  36  13  37   8  38   8  39   8  40  14  41  14  42  14
M  ISO  1  43  14
M  END
>  <minimizedAffinity>  (1) 
-5.85845566

>  <minimizedRMSD>  (1) 
2.44436908

$$$$
