
     RDKit          3D

 32 33  0  0  1  0  0  0  0  0999 V2000
   39.1900   25.9980   42.2480 C   0  0  1  0  0  0  0  0  0  0  0  0
   38.9820   24.6090   41.6310 C   0  0  0  0  0  0  0  0  0  0  0  0
   37.5840   24.2240   41.9940 C   0  0  0  0  0  0  0  0  0  0  0  0
   36.9210   25.5710   42.2110 C   0  0  0  0  0  0  0  0  0  0  0  0
   37.9850   26.2370   43.0930 C   0  0  2  0  0  0  0  0  0  0  0  0
   41.9600   26.9220   44.6630 C   0  0  0  0  0  0  0  0  0  0  0  0
   40.6880   26.9660   44.0700 C   0  0  0  0  0  0  0  0  0  0  0  0
   40.4600   26.0910   42.9720 C   0  0  0  0  0  0  0  0  0  0  0  0
   41.4690   25.2670   42.5590 N   0  0  0  0  0  0  0  0  0  0  0  0
   42.6720   25.2650   43.1670 C   0  0  0  0  0  0  0  0  0  0  0  0
   42.9160   26.0870   44.2120 N   0  0  0  0  0  0  0  0  0  0  0  0
   37.5350   27.6700   43.1640 C   0  0  0  0  0  0  0  0  0  0  0  0
   36.8540   28.0390   44.4440 C   0  0  0  0  0  0  0  0  0  0  0  0
   36.5390   27.8720   42.0380 C   0  0  0  0  0  0  0  0  0  0  0  0
   39.2788   26.7864   41.4861 H   0  0  0  0  0  0  0  0  0  0  0  0
   39.7012   23.8895   42.0494 H   0  0  0  0  0  0  0  0  0  0  0  0
   39.1369   24.6156   40.5420 H   0  0  0  0  0  0  0  0  0  0  0  0
   37.0993   23.6689   41.1773 H   0  0  0  0  0  0  0  0  0  0  0  0
   37.5242   23.5589   42.8681 H   0  0  0  0  0  0  0  0  0  0  0  0
   36.7738   26.1131   41.2653 H   0  0  0  0  0  0  0  0  0  0  0  0
   35.9108   25.5315   42.6446 H   0  0  0  0  0  0  0  0  0  0  0  0
   38.1591   25.8988   44.1251 H   0  0  0  0  0  0  0  0  0  0  0  0
   42.1805   27.5834   45.5139 H   0  0  0  0  0  0  0  0  0  0  0  0
   39.9046   27.6453   44.4373 H   0  0  0  0  0  0  0  0  0  0  0  0
   43.4622   24.5884   42.8096 H   0  0  0  0  0  0  0  0  0  0  0  0
   38.4319   28.3027   43.0912 H   0  0  0  0  0  0  0  0  0  0  0  0
   37.4672   27.7067   45.2946 H   0  0  0  0  0  0  0  0  0  0  0  0
   36.7249   29.1305   44.4892 H   0  0  0  0  0  0  0  0  0  0  0  0
   35.8692   27.5511   44.4892 H   0  0  0  0  0  0  0  0  0  0  0  0
   35.5437   28.0739   42.4607 H   0  0  0  0  0  0  0  0  0  0  0  0
   36.8540   28.7245   41.4184 H   0  0  0  0  0  0  0  0  0  0  0  0
   36.4970   26.9641   41.4184 H   0  0  0  0  0  0  0  0  0  0  0  0
  1  8  1  0
  1  5  1  0
  2  3  1  0
  2  1  1  0
  3  4  1  0
  4  5  1  0
  5 12  1  0
  7  6  2  0
  8  7  1  0
  9  8  2  0
  9 10  1  0
 10 11  2  0
 11  6  1  0
 12 13  1  0
 14 12  1  0
  1 15  1  6
  2 16  1  0
  2 17  1  0
  3 18  1  0
  3 19  1  0
  4 20  1  0
  4 21  1  0
  5 22  1  1
  6 23  1  0
  7 24  1  0
 10 25  1  0
 12 26  1  0
 13 27  1  0
 13 28  1  0
 13 29  1  0
 14 30  1  0
 14 31  1  0
 14 32  1  0
M  ISO  8  15  13  16  13  17  13  18  13  19  13  20  13  21  13  22  13
M  ISO  8  23  14  24  14  25  14  26   8  27   8  28   8  29   8  30   8
M  ISO  2  31   8  32   8
M  END
>  <minimizedAffinity>  (1) 
-4.45404482

>  <minimizedRMSD>  (1) 
4.58186197

$$$$
