
     RDKit          3D

 51 54  0  0  1  0  0  0  0  0999 V2000
   39.8920   32.3010   39.5620 N   0  0  0  0  0  0  0  0  0  0  0  0
   38.9340   33.2140   39.7630 C   0  0  0  0  0  0  0  0  0  0  0  0
   37.6900   32.8950   40.2650 C   0  0  0  0  0  0  0  0  0  0  0  0
   37.3850   31.5710   40.5890 C   0  0  0  0  0  0  0  0  0  0  0  0
   36.2690   31.2800   41.0390 O   0  0  0  0  0  0  0  0  0  0  0  0
   38.3900   30.6750   40.3680 N   0  0  0  0  0  0  0  0  0  0  0  0
   39.5720   31.0480   39.8790 C   0  0  0  0  0  0  0  0  0  0  0  0
   40.4440   30.1300   39.7100 O   0  0  0  0  0  0  0  0  0  0  0  0
   38.0910   29.3180   40.6940 C   0  0  2  0  0  0  0  0  0  0  0  0
   37.0390   28.6500   39.9720 C   0  0  0  0  0  0  0  0  0  0  0  0
   36.6680   27.4740   40.8860 C   0  0  0  0  0  0  0  0  0  0  0  0
   36.7000   28.0910   42.2320 C   0  0  0  0  0  0  0  0  0  0  0  0
   37.7710   29.1400   42.1900 C   0  0  1  0  0  0  0  0  0  0  0  0
   38.9880   28.8140   42.9930 C   0  0  0  0  0  0  0  0  0  0  0  0
   41.1640   32.6240   39.0510 C   0  0  0  0  0  0  0  0  0  0  0  0
   41.3780   33.3010   37.8130 C   0  0  0  0  0  0  0  0  0  0  0  0
   42.6930   33.5480   37.4300 C   0  0  0  0  0  0  0  0  0  0  0  0
   43.6740   33.1410   38.2400 N   0  0  0  0  0  0  0  0  0  0  0  0
   43.4670   32.5160   39.3840 C   0  0  0  0  0  0  0  0  0  0  0  0
   42.2160   32.2780   39.7530 N   0  0  0  0  0  0  0  0  0  0  0  0
   44.5190   32.0950   40.2170 O   0  0  0  0  0  0  0  0  0  0  0  0
   45.1360   33.0400   40.9960 C   0  0  0  0  0  0  0  0  0  0  0  0
   46.3500   33.1320   40.5330 O   0  0  0  0  0  0  0  0  0  0  0  0
   45.0520   33.9850   42.0960 N   0  0  0  0  0  0  0  0  0  0  0  0
   46.0470   34.7010   42.8730 C   0  0  0  0  0  0  0  0  0  0  0  0
   45.6780   36.1420   42.4910 C   0  0  0  0  0  0  0  0  0  0  0  0
   44.1650   36.0690   42.7490 C   0  0  0  0  0  0  0  0  0  0  0  0
   43.9430   34.5620   42.8100 C   0  0  0  0  0  0  0  0  0  0  0  0
   39.1485   34.2645   39.5170 H   0  0  0  0  0  0  0  0  0  0  0  0
   36.9372   33.6838   40.4104 H   0  0  0  0  0  0  0  0  0  0  0  0
   39.0309   28.8390   40.3824 H   0  0  0  0  0  0  0  0  0  0  0  0
   36.1785   29.3187   39.8228 H   0  0  0  0  0  0  0  0  0  0  0  0
   37.3464   28.3300   38.9655 H   0  0  0  0  0  0  0  0  0  0  0  0
   35.6655   27.0878   40.6496 H   0  0  0  0  0  0  0  0  0  0  0  0
   37.3412   26.6101   40.7837 H   0  0  0  0  0  0  0  0  0  0  0  0
   35.7272   28.5492   42.4640 H   0  0  0  0  0  0  0  0  0  0  0  0
   36.9056   27.3413   43.0102 H   0  0  0  0  0  0  0  0  0  0  0  0
   37.4142   30.0684   42.6598 H   0  0  0  0  0  0  0  0  0  0  0  0
   38.7483   28.8782   44.0646 H   0  0  0  0  0  0  0  0  0  0  0  0
   39.3235   27.7943   42.7528 H   0  0  0  0  0  0  0  0  0  0  0  0
   39.7883   29.5294   42.7528 H   0  0  0  0  0  0  0  0  0  0  0  0
   40.5330   33.6166   37.1834 H   0  0  0  0  0  0  0  0  0  0  0  0
   42.9185   34.0646   36.4854 H   0  0  0  0  0  0  0  0  0  0  0  0
   45.9328   34.5205   43.9521 H   0  0  0  0  0  0  0  0  0  0  0  0
   47.0906   34.4163   42.6735 H   0  0  0  0  0  0  0  0  0  0  0  0
   45.9082   36.3631   41.4383 H   0  0  0  0  0  0  0  0  0  0  0  0
   46.2166   36.9320   43.0349 H   0  0  0  0  0  0  0  0  0  0  0  0
   43.8948   36.5543   43.6985 H   0  0  0  0  0  0  0  0  0  0  0  0
   43.5543   36.5834   41.9924 H   0  0  0  0  0  0  0  0  0  0  0  0
   42.9920   34.2929   42.3271 H   0  0  0  0  0  0  0  0  0  0  0  0
   43.8884   34.1973   43.8464 H   0  0  0  0  0  0  0  0  0  0  0  0
  1  2  1  0
  1  7  1  0
  2  3  2  0
  3  4  1  0
  4  5  2  0
  6  4  1  0
  6  9  1  0
  7  6  1  0
  8  7  2  0
  9 13  1  0
 10  9  1  0
 10 11  1  0
 11 12  1  0
 13 12  1  0
 13 14  1  0
 15  1  1  0
 15 20  1  0
 16 15  2  0
 17 16  1  0
 17 18  2  0
 18 19  1  0
 19 20  2  0
 19 21  1  0
 21 22  1  0
 22 24  1  0
 23 22  2  0
 24 28  1  0
 24 25  1  0
 26 27  1  0
 26 25  1  0
 27 28  1  0
  2 29  1  0
  3 30  1  0
  9 31  1  1
 10 32  1  0
 10 33  1  0
 11 34  1  0
 11 35  1  0
 12 36  1  0
 12 37  1  0
 13 38  1  1
 14 39  1  0
 14 40  1  0
 14 41  1  0
 16 42  1  0
 17 43  1  0
 25 44  1  0
 25 45  1  0
 26 46  1  0
 26 47  1  0
 27 48  1  0
 27 49  1  0
 28 50  1  0
 28 51  1  0
M  ISO  8  29  14  30  14  31  13  32  13  33  13  34  13  35  13  36  13
M  ISO  8  37  13  38  13  39   8  40   8  41   8  42  14  43  14  44  13
M  ISO  7  45  13  46  13  47  13  48  13  49  13  50  13  51  13
M  END
>  <minimizedAffinity>  (1) 
-6.22021008

>  <minimizedRMSD>  (1) 
5.78196478

$$$$
