
     RDKit          3D

 40 42  0  0  1  0  0  0  0  0999 V2000
   39.0030   29.3410   42.3680 N   0  0  0  0  0  0  0  0  0  0  0  0
   38.1710   29.4190   43.4120 C   0  0  0  0  0  0  0  0  0  0  0  0
   37.2620   28.4240   43.7150 C   0  0  0  0  0  0  0  0  0  0  0  0
   37.1870   27.2830   42.9200 C   0  0  0  0  0  0  0  0  0  0  0  0
   36.3700   26.3900   43.1930 O   0  0  0  0  0  0  0  0  0  0  0  0
   38.0510   27.2470   41.8720 N   0  0  0  0  0  0  0  0  0  0  0  0
   38.9090   28.2380   41.6270 C   0  0  0  0  0  0  0  0  0  0  0  0
   39.6790   28.1080   40.6170 O   0  0  0  0  0  0  0  0  0  0  0  0
   37.9830   26.0760   41.0500 C   0  0  2  0  0  0  0  0  0  0  0  0
   36.8190   25.8870   40.2200 C   0  0  0  0  0  0  0  0  0  0  0  0
   36.8550   24.3910   39.8990 C   0  0  0  0  0  0  0  0  0  0  0  0
   37.2280   23.8020   41.2060 C   0  0  0  0  0  0  0  0  0  0  0  0
   38.1390   24.7860   41.8700 C   0  0  1  0  0  0  0  0  0  0  0  0
   39.5690   24.3510   41.9700 C   0  0  0  0  0  0  0  0  0  0  0  0
   39.9310   30.3580   42.0590 C   0  0  0  0  0  0  0  0  0  0  0  0
   41.2710   30.3900   42.5610 C   0  0  0  0  0  0  0  0  0  0  0  0
   42.0770   31.4620   42.1680 C   0  0  0  0  0  0  0  0  0  0  0  0
   41.5520   32.3840   41.3550 N   0  0  0  0  0  0  0  0  0  0  0  0
   40.3110   32.3380   40.9000 C   0  0  0  0  0  0  0  0  0  0  0  0
   39.5180   31.3290   41.2570 N   0  0  0  0  0  0  0  0  0  0  0  0
   39.8020   33.3270   40.0500 O   0  0  0  0  0  0  0  0  0  0  0  0
   38.4130   33.4580   40.0030 C   0  0  0  0  0  0  0  0  0  0  0  0
   38.2010   34.7290   40.0760 O   0  0  0  0  0  0  0  0  0  0  0  0
   37.0180   33.6880   39.9630 O   0  0  0  0  0  0  0  0  0  0  0  0
   38.2121   30.3107   44.0548 H   0  0  0  0  0  0  0  0  0  0  0  0
   36.5971   28.5329   44.5845 H   0  0  0  0  0  0  0  0  0  0  0  0
   38.8248   26.2718   40.3696 H   0  0  0  0  0  0  0  0  0  0  0  0
   35.9001   26.1514   40.7638 H   0  0  0  0  0  0  0  0  0  0  0  0
   36.8239   26.5206   39.3208 H   0  0  0  0  0  0  0  0  0  0  0  0
   35.8709   24.0305   39.5649 H   0  0  0  0  0  0  0  0  0  0  0  0
   37.5448   24.1300   39.0829 H   0  0  0  0  0  0  0  0  0  0  0  0
   36.3300   23.6407   41.8204 H   0  0  0  0  0  0  0  0  0  0  0  0
   37.7209   22.8271   41.0772 H   0  0  0  0  0  0  0  0  0  0  0  0
   37.8559   24.9116   42.9255 H   0  0  0  0  0  0  0  0  0  0  0  0
   39.8528   24.2647   43.0293 H   0  0  0  0  0  0  0  0  0  0  0  0
   39.6907   23.3752   41.4771 H   0  0  0  0  0  0  0  0  0  0  0  0
   40.2135   25.0937   41.4771 H   0  0  0  0  0  0  0  0  0  0  0  0
   41.6510   29.6029   43.2289 H   0  0  0  0  0  0  0  0  0  0  0  0
   43.1163   31.5448   42.5186 H   0  0  0  0  0  0  0  0  0  0  0  0
   36.3926   32.9249   39.8817 H   0  0  0  0  0  0  0  0  0  0  0  0
  1  2  1  0
  2  3  2  0
  4  5  2  0
  4  3  1  0
  6  4  1  0
  7  6  1  0
  7  1  1  0
  8  7  2  0
  9 13  1  0
  9  6  1  0
 10  9  1  0
 11 10  1  0
 11 12  1  0
 12 13  1  0
 13 14  1  0
 15  1  1  0
 15 16  2  0
 17 16  1  0
 18 17  2  0
 19 20  2  0
 19 18  1  0
 20 15  1  0
 21 19  1  0
 22 21  1  0
 22 23  2  0
 24 22  1  0
  2 25  1  0
  3 26  1  0
  9 27  1  6
 10 28  1  0
 10 29  1  0
 11 30  1  0
 11 31  1  0
 12 32  1  0
 12 33  1  0
 13 34  1  1
 14 35  1  0
 14 36  1  0
 14 37  1  0
 16 38  1  0
 17 39  1  0
 24 40  1  0
M  ISO  8  25  14  26  14  27  13  28  13  29  13  30  13  31  13  32  13
M  ISO  8  33  13  34  13  35   8  36   8  37   8  38  14  39  14  40   3
M  END
>  <minimizedAffinity>  (1) 
-5.7323842

>  <minimizedRMSD>  (1) 
0.515718162

$$$$
