
     RDKit          3D

 46 50  0  0  1  0  0  0  0  0999 V2000
   41.1570   29.8890   40.9750 N   0  0  0  0  0  0  0  0  0  0  0  0
   41.2320   29.5670   39.6790 C   0  0  0  0  0  0  0  0  0  0  0  0
   40.9790   30.4670   38.6690 C   0  0  0  0  0  0  0  0  0  0  0  0
   40.6260   31.7810   38.9760 C   0  0  0  0  0  0  0  0  0  0  0  0
   40.3980   32.5920   38.0660 O   0  0  0  0  0  0  0  0  0  0  0  0
   40.5600   32.0690   40.3080 N   0  0  0  0  0  0  0  0  0  0  0  0
   40.8200   31.1480   41.2470 C   0  0  0  0  0  0  0  0  0  0  0  0
   40.7290   31.5220   42.4660 O   0  0  0  0  0  0  0  0  0  0  0  0
   40.2010   33.4110   40.6430 C   0  0  2  0  0  0  0  0  0  0  0  0
   38.9130   33.8990   40.2280 C   0  0  0  0  0  0  0  0  0  0  0  0
   39.0700   35.4210   40.2630 C   0  0  0  0  0  0  0  0  0  0  0  0
   40.4350   35.6170   39.6950 C   0  0  0  0  0  0  0  0  0  0  0  0
   41.2410   34.4230   40.1180 C   0  0  1  0  0  0  0  0  0  0  0  0
   42.2960   34.7200   41.1270 C   0  0  0  0  0  0  0  0  0  0  0  0
   41.4170   28.9670   42.0140 C   0  0  0  0  0  0  0  0  0  0  0  0
   42.5180   29.0800   42.9200 C   0  0  0  0  0  0  0  0  0  0  0  0
   42.6430   28.0820   43.9010 C   0  0  0  0  0  0  0  0  0  0  0  0
   41.7400   27.0960   43.9340 N   0  0  0  0  0  0  0  0  0  0  0  0
   40.7230   27.0120   43.0800 C   0  0  0  0  0  0  0  0  0  0  0  0
   40.5850   27.9460   42.1440 N   0  0  0  0  0  0  0  0  0  0  0  0
   39.8010   25.9710   43.1430 O   0  0  0  0  0  0  0  0  0  0  0  0
   38.4680   26.3100   42.9420 C   0  0  0  0  0  0  0  0  0  0  0  0
   38.0300   25.5400   42.0140 O   0  0  0  0  0  0  0  0  0  0  0  0
   37.0140   26.5780   42.6240 C   0  0  0  0  0  0  0  0  0  0  0  0
   36.3350   27.4830   43.6630 C   0  0  0  0  0  0  0  0  0  0  0  0
   36.5990   27.9540   42.3000 C   0  0  0  0  0  0  0  0  0  0  0  0
   41.5081   28.5372   39.4084 H   0  0  0  0  0  0  0  0  0  0  0  0
   41.0553   30.1497   37.6185 H   0  0  0  0  0  0  0  0  0  0  0  0
   40.1631   33.3399   41.7400 H   0  0  0  0  0  0  0  0  0  0  0  0
   38.1268   33.5702   40.9235 H   0  0  0  0  0  0  0  0  0  0  0  0
   38.6157   33.5249   39.2372 H   0  0  0  0  0  0  0  0  0  0  0  0
   38.3067   35.9139   39.6429 H   0  0  0  0  0  0  0  0  0  0  0  0
   38.9467   35.8519   41.2675 H   0  0  0  0  0  0  0  0  0  0  0  0
   40.8839   36.5397   40.0913 H   0  0  0  0  0  0  0  0  0  0  0  0
   40.4032   35.7111   38.5995 H   0  0  0  0  0  0  0  0  0  0  0  0
   41.8209   34.0320   39.2690 H   0  0  0  0  0  0  0  0  0  0  0  0
   41.8795   34.6028   42.1383 H   0  0  0  0  0  0  0  0  0  0  0  0
   43.1371   34.0237   40.9938 H   0  0  0  0  0  0  0  0  0  0  0  0
   42.6504   35.7528   40.9938 H   0  0  0  0  0  0  0  0  0  0  0  0
   43.2351   29.9114   42.8517 H   0  0  0  0  0  0  0  0  0  0  0  0
   43.4679   28.1111   44.6281 H   0  0  0  0  0  0  0  0  0  0  0  0
   38.7701   27.0495   42.1858 H   0  0  0  0  0  0  0  0  0  0  0  0
   35.3044   27.2767   43.9875 H   0  0  0  0  0  0  0  0  0  0  0  0
   36.5783   27.8350   44.6764 H   0  0  0  0  0  0  0  0  0  0  0  0
   37.3651   28.7254   42.1325 H   0  0  0  0  0  0  0  0  0  0  0  0
   35.9685   28.3917   41.5120 H   0  0  0  0  0  0  0  0  0  0  0  0
  1  7  1  0
  1 15  1  0
  2  1  1  0
  3  4  1  0
  3  2  2  0
  4  6  1  0
  5  4  2  0
  6  9  1  0
  6  7  1  0
  7  8  2  0
 10 11  1  0
 10  9  1  0
 12 13  1  0
 12 11  1  0
 13  9  1  0
 13 14  1  0
 15 20  1  0
 15 16  2  0
 16 17  1  0
 17 18  2  0
 19 21  1  0
 19 18  1  0
 20 19  2  0
 22 21  1  0
 23 24  1  0
 23 22  1  0
 24 22  1  0
 24 25  1  0
 26 24  1  0
 26 25  1  0
  2 27  1  0
  3 28  1  0
  9 29  1  1
 10 30  1  0
 10 31  1  0
 11 32  1  0
 11 33  1  0
 12 34  1  0
 12 35  1  0
 13 36  1  6
 14 37  1  0
 14 38  1  0
 14 39  1  0
 16 40  1  0
 17 41  1  0
 22 42  1  0
 25 43  1  0
 25 44  1  0
 26 45  1  0
 26 46  1  0
M  ISO  8  27  14  28  14  29  13  30  13  31  13  32  13  33  13  34  13
M  ISO  8  35  13  36  13  37   8  38   8  39   8  40  14  41  14  42  13
M  ISO  4  43  13  44  13  45  13  46  13
M  END
>  <minimizedAffinity>  (1) 
-5.45432997

>  <minimizedRMSD>  (1) 
7.47079229

$$$$
