
     RDKit          3D

 30 33  0  0  0  0  0  0  0  0999 V2000
   38.0910   29.6600   41.9860 N   0  0  0  0  0  0  0  0  0  0  0  0
   38.3070   29.3190   43.2690 C   0  0  0  0  0  0  0  0  0  0  0  0
   38.2570   27.9690   43.3800 N   0  0  0  0  0  0  0  0  0  0  0  0
   38.0100   27.4710   42.1720 C   0  0  0  0  0  0  0  0  0  0  0  0
   37.9150   28.5270   41.3510 N   0  0  0  0  0  0  0  0  0  0  0  0
   37.8660   26.1100   41.7800 N   0  0  0  0  0  0  0  0  0  0  0  0
   36.9420   25.2440   42.2420 C   0  0  0  0  0  0  0  0  0  0  0  0
   37.1010   24.0340   41.6480 N   0  0  0  0  0  0  0  0  0  0  0  0
   38.1380   24.1060   40.7900 C   0  0  0  0  0  0  0  0  0  0  0  0
   38.7060   23.1690   39.9510 C   0  0  0  0  0  0  0  0  0  0  0  0
   38.2090   22.0000   39.9340 O   0  0  0  0  0  0  0  0  0  0  0  0
   39.7530   23.5580   39.2040 N   0  0  0  0  0  0  0  0  0  0  0  0
   40.2190   24.8340   39.2890 C   0  0  0  0  0  0  0  0  0  0  0  0
   41.3220   25.0740   38.4370 N   0  0  0  0  0  0  0  0  0  0  0  0
   39.6380   25.7360   40.1260 N   0  0  0  0  0  0  0  0  0  0  0  0
   38.5900   25.4060   40.8950 C   0  0  0  0  0  0  0  0  0  0  0  0
   36.9240   31.2090   40.4170 C   0  0  0  0  0  0  0  0  0  0  0  0
   38.0190   30.8710   41.2510 C   0  0  0  0  0  0  0  0  0  0  0  0
   39.0560   31.8040   41.3220 C   0  0  0  0  0  0  0  0  0  0  0  0
   38.9450   32.9530   40.5980 N   0  0  0  0  0  0  0  0  0  0  0  0
   37.8880   33.2300   39.8210 C   0  0  0  0  0  0  0  0  0  0  0  0
   36.8760   32.3540   39.7320 N   0  0  0  0  0  0  0  0  0  0  0  0
   38.4939   30.0217   44.0944 H   0  0  0  0  0  0  0  0  0  0  0  0
   36.1722   25.4829   42.9905 H   0  0  0  0  0  0  0  0  0  0  0  0
   40.2045   22.8883   38.5649 H   0  0  0  0  0  0  0  0  0  0  0  0
   41.7618   26.0051   38.4138 H   0  0  0  0  0  0  0  0  0  0  0  0
   41.6855   24.3177   37.8397 H   0  0  0  0  0  0  0  0  0  0  0  0
   36.0845   30.5034   40.3311 H   0  0  0  0  0  0  0  0  0  0  0  0
   39.9411   31.6157   41.9474 H   0  0  0  0  0  0  0  0  0  0  0  0
   37.8507   34.1740   39.2575 H   0  0  0  0  0  0  0  0  0  0  0  0
  1  2  1  0
  2  3  2  0
  4  3  1  0
  5  1  1  0
  5  4  2  0
  6  4  1  0
  6  7  1  0
  8  7  2  0
  9 16  2  0
  9  8  1  0
 10  9  1  0
 11 10  2  0
 12 13  1  0
 12 10  1  0
 13 15  2  0
 14 13  1  0
 15 16  1  0
 16  6  1  0
 17 18  2  0
 18 19  1  0
 18  1  1  0
 20 19  2  0
 21 20  1  0
 22 21  2  0
 22 17  1  0
  2 23  1  0
  7 24  1  0
 12 25  1  0
 14 26  1  0
 14 27  1  0
 17 28  1  0
 19 29  1  0
 21 30  1  0
M  ISO  6  23  14  24  14  25   9  28  14  29  14  30  14
M  END
>  <minimizedAffinity>  (1) 
-5.09916496

>  <minimizedRMSD>  (1) 
3.26276541

$$$$
