
     RDKit          3D

 27 30  0  0  0  0  0  0  0  0999 V2000
   38.7180   29.5690   41.4960 N   0  0  0  0  0  0  0  0  0  0  0  0
   39.0390   29.9170   42.7650 C   0  0  0  0  0  0  0  0  0  0  0  0
   39.7630   31.0560   42.7400 N   0  0  0  0  0  0  0  0  0  0  0  0
   39.8890   31.4100   41.4520 C   0  0  0  0  0  0  0  0  0  0  0  0
   39.2470   30.4920   40.7300 N   0  0  0  0  0  0  0  0  0  0  0  0
   40.6040   32.5780   41.0690 N   0  0  0  0  0  0  0  0  0  0  0  0
   41.9520   32.6700   41.0360 C   0  0  0  0  0  0  0  0  0  0  0  0
   42.3090   33.9120   40.6290 N   0  0  0  0  0  0  0  0  0  0  0  0
   41.2110   34.6360   40.3940 C   0  0  0  0  0  0  0  0  0  0  0  0
   40.9360   35.9400   39.9680 C   0  0  0  0  0  0  0  0  0  0  0  0
   39.6580   36.3140   39.8480 N   0  0  0  0  0  0  0  0  0  0  0  0
   38.6240   35.4740   40.1240 C   0  0  0  0  0  0  0  0  0  0  0  0
   38.8950   34.2060   40.5390 N   0  0  0  0  0  0  0  0  0  0  0  0
   40.1590   33.7840   40.6750 C   0  0  0  0  0  0  0  0  0  0  0  0
   37.5940   28.5140   39.5290 C   0  0  0  0  0  0  0  0  0  0  0  0
   37.9970   28.5160   40.8810 C   0  0  0  0  0  0  0  0  0  0  0  0
   37.6430   27.3820   41.6360 C   0  0  0  0  0  0  0  0  0  0  0  0
   36.9510   26.3760   41.0370 N   0  0  0  0  0  0  0  0  0  0  0  0
   36.5960   26.4340   39.7430 C   0  0  0  0  0  0  0  0  0  0  0  0
   36.9190   27.5080   38.9850 N   0  0  0  0  0  0  0  0  0  0  0  0
   38.7553   29.3608   43.6706 H   0  0  0  0  0  0  0  0  0  0  0  0
   42.6507   31.8621   41.2988 H   0  0  0  0  0  0  0  0  0  0  0  0
   41.7518   36.6408   39.7373 H   0  0  0  0  0  0  0  0  0  0  0  0
   37.5839   35.8145   40.0134 H   0  0  0  0  0  0  0  0  0  0  0  0
   37.8490   29.3800   38.9005 H   0  0  0  0  0  0  0  0  0  0  0  0
   37.9226   27.3103   42.6975 H   0  0  0  0  0  0  0  0  0  0  0  0
   36.0368   25.5998   39.2943 H   0  0  0  0  0  0  0  0  0  0  0  0
  1  2  1  0
  3  2  2  0
  4  3  1  0
  5  4  2  0
  5  1  1  0
  6  4  1  0
  7  6  1  0
  8  7  2  0
  9  8  1  0
  9 14  2  0
 10  9  1  0
 11 10  2  0
 11 12  1  0
 12 13  2  0
 13 14  1  0
 14  6  1  0
 15 16  2  0
 16  1  1  0
 16 17  1  0
 18 17  2  0
 19 18  1  0
 20 15  1  0
 20 19  2  0
  2 21  1  0
  7 22  1  0
 10 23  1  0
 12 24  1  0
 15 25  1  0
 17 26  1  0
 19 27  1  0
M  ISO  7  21  14  22  14  23  14  24  14  25  14  26  14  27  14
M  END
>  <minimizedAffinity>  (1) 
-5.02811193

>  <minimizedRMSD>  (1) 
8.49574757

$$$$
