
     RDKit          3D

 23 24  0  0  0  0  0  0  0  0999 V2000
   39.5640   30.8960   41.0950 N   0  0  0  0  0  0  0  0  0  0  0  0
   39.0170   32.1370   41.0450 C   0  0  0  0  0  0  0  0  0  0  0  0
   39.7500   32.9010   40.2110 N   0  0  0  0  0  0  0  0  0  0  0  0
   40.7490   32.1610   39.7380 C   0  0  0  0  0  0  0  0  0  0  0  0
   40.5970   30.9430   40.3040 N   0  0  0  0  0  0  0  0  0  0  0  0
   41.7820   32.5200   38.8300 N   0  0  0  0  0  0  0  0  0  0  0  0
   41.4470   32.9630   37.5220 C   0  0  0  0  0  0  0  0  0  0  0  0
   40.4290   32.5050   36.9240 N   0  0  0  0  0  0  0  0  0  0  0  0
   42.2580   33.9320   36.8660 N   0  0  0  0  0  0  0  0  0  0  0  0
   39.7410   31.8160   37.2330 H   0  0  0  0  0  0  0  0  0  0  0  0
   39.9140   28.4480   41.4610 C   0  0  0  0  0  0  0  0  0  0  0  0
   39.2670   29.6840   41.7670 C   0  0  0  0  0  0  0  0  0  0  0  0
   38.2980   29.6710   42.7850 C   0  0  0  0  0  0  0  0  0  0  0  0
   38.0370   28.4890   43.4110 N   0  0  0  0  0  0  0  0  0  0  0  0
   38.6670   27.3510   43.0920 C   0  0  0  0  0  0  0  0  0  0  0  0
   39.6060   27.3310   42.1160 N   0  0  0  0  0  0  0  0  0  0  0  0
   38.1226   32.4653   41.5947 H   0  0  0  0  0  0  0  0  0  0  0  0
   42.7688   32.4593   39.1188 H   0  0  0  0  0  0  0  0  0  0  0  0
   42.0133   34.2517   35.9179 H   0  0  0  0  0  0  0  0  0  0  0  0
   43.0894   34.3134   37.3395 H   0  0  0  0  0  0  0  0  0  0  0  0
   40.6792   28.4187   40.6713 H   0  0  0  0  0  0  0  0  0  0  0  0
   37.7646   30.5902   43.0688 H   0  0  0  0  0  0  0  0  0  0  0  0
   38.4193   26.4230   43.6281 H   0  0  0  0  0  0  0  0  0  0  0  0
  1 12  1  0
  2  1  1  0
  3  2  2  0
  4  3  1  0
  4  5  2  0
  5  1  1  0
  6  4  1  0
  7  6  1  0
  8 10  1  0
  8  7  2  0
  9  7  1  0
 11 12  2  0
 11 16  1  0
 12 13  1  0
 13 14  2  0
 15 14  1  0
 16 15  2  0
  2 17  1  0
  6 18  1  0
  9 19  1  0
  9 20  1  0
 11 21  1  0
 13 22  1  0
 15 23  1  0
M  ISO  4  17  14  21  14  22  14  23  14
M  END
>  <minimizedAffinity>  (1) 
-4.8501091

>  <minimizedRMSD>  (1) 
7.13709354

$$$$
