
     RDKit          3D

 22 24  0  0  0  0  0  0  0  0999 V2000
   40.1550   32.7810   40.8870 N   0  0  0  0  0  0  0  0  0  0  0  0
   41.1700   31.8820   40.9390 C   0  0  0  0  0  0  0  0  0  0  0  0
   40.6840   30.6840   41.3190 N   0  0  0  0  0  0  0  0  0  0  0  0
   39.3690   30.8410   41.5020 C   0  0  0  0  0  0  0  0  0  0  0  0
   39.0700   32.1130   41.2360 N   0  0  0  0  0  0  0  0  0  0  0  0
   38.3540   29.8960   41.9080 N   0  0  0  0  0  0  0  0  0  0  0  0
   38.2270   29.1480   43.0160 C   0  0  0  0  0  0  0  0  0  0  0  0
   37.0950   28.4290   42.9090 N   0  0  0  0  0  0  0  0  0  0  0  0
   36.4980   28.7100   41.7440 C   0  0  0  0  0  0  0  0  0  0  0  0
   37.3050   29.6280   41.1410 N   0  0  0  0  0  0  0  0  0  0  0  0
   38.7940   34.7710   40.2560 C   0  0  0  0  0  0  0  0  0  0  0  0
   40.0490   34.1640   40.5610 C   0  0  0  0  0  0  0  0  0  0  0  0
   41.1930   34.9630   40.5340 C   0  0  0  0  0  0  0  0  0  0  0  0
   41.0330   36.2760   40.2170 N   0  0  0  0  0  0  0  0  0  0  0  0
   39.8340   36.8170   39.9350 C   0  0  0  0  0  0  0  0  0  0  0  0
   38.7180   36.0630   39.9550 N   0  0  0  0  0  0  0  0  0  0  0  0
   42.2236   32.0972   40.7074 H   0  0  0  0  0  0  0  0  0  0  0  0
   38.9272   29.1268   43.8641 H   0  0  0  0  0  0  0  0  0  0  0  0
   35.5580   28.2901   41.3567 H   0  0  0  0  0  0  0  0  0  0  0  0
   37.8782   34.1618   40.2703 H   0  0  0  0  0  0  0  0  0  0  0  0
   42.1858   34.5469   40.7604 H   0  0  0  0  0  0  0  0  0  0  0  0
   39.7643   37.8861   39.6855 H   0  0  0  0  0  0  0  0  0  0  0  0
  1  2  1  0
  1  5  1  0
  2  3  2  0
  3  4  1  0
  4  6  1  0
  5  4  2  0
  6  7  1  0
  8  7  2  0
  9  8  1  0
 10  9  2  0
 10  6  1  0
 11 12  2  0
 12  1  1  0
 13 12  1  0
 14 13  2  0
 15 16  2  0
 15 14  1  0
 16 11  1  0
  2 17  1  0
  7 18  1  0
  9 19  1  0
 11 20  1  0
 13 21  1  0
 15 22  1  0
M  ISO  6  17  14  18  14  19  14  20  14  21  14  22  14
M  END
>  <minimizedAffinity>  (1) 
-4.6234436

>  <minimizedRMSD>  (1) 
4.65492296

$$$$
