
     RDKit          3D

 28 29  0  0  0  0  0  0  0  0999 V2000
   38.8220   30.7640   41.6910 N   0  0  0  0  0  0  0  0  0  0  0  0
   40.0140   30.2930   42.1400 C   0  0  0  0  0  0  0  0  0  0  0  0
   39.8130   29.1500   42.8130 N   0  0  0  0  0  0  0  0  0  0  0  0
   38.5020   28.9080   42.7850 C   0  0  0  0  0  0  0  0  0  0  0  0
   37.9140   29.8980   42.0990 N   0  0  0  0  0  0  0  0  0  0  0  0
   37.3040   31.8390   40.0080 C   0  0  0  0  0  0  0  0  0  0  0  0
   38.3830   31.8920   40.9420 C   0  0  0  0  0  0  0  0  0  0  0  0
   39.0330   33.1200   41.1180 C   0  0  0  0  0  0  0  0  0  0  0  0
   38.6050   34.1860   40.3980 N   0  0  0  0  0  0  0  0  0  0  0  0
   37.5800   34.0820   39.5280 C   0  0  0  0  0  0  0  0  0  0  0  0
   36.9350   32.9270   39.3320 N   0  0  0  0  0  0  0  0  0  0  0  0
   37.9160   27.7090   43.4390 C   0  0  0  0  0  0  0  0  0  0  0  0
   37.0580   27.0170   42.3780 C   0  0  0  0  0  0  0  0  0  0  0  0
   36.9820   28.1230   44.5460 C   0  0  0  0  0  0  0  0  0  0  0  0
   38.9610   26.7580   43.9320 C   0  0  0  0  0  0  0  0  0  0  0  0
   40.9903   30.7730   41.9775 H   0  0  0  0  0  0  0  0  0  0  0  0
   36.7717   30.8903   39.8447 H   0  0  0  0  0  0  0  0  0  0  0  0
   39.8711   33.2173   41.8238 H   0  0  0  0  0  0  0  0  0  0  0  0
   37.2655   34.9723   38.9636 H   0  0  0  0  0  0  0  0  0  0  0  0
   36.2926   26.3996   42.8709 H   0  0  0  0  0  0  0  0  0  0  0  0
   36.5684   27.7760   41.7501 H   0  0  0  0  0  0  0  0  0  0  0  0
   37.6961   26.3778   41.7501 H   0  0  0  0  0  0  0  0  0  0  0  0
   37.4514   27.9149   45.5188 H   0  0  0  0  0  0  0  0  0  0  0  0
   36.7702   29.1993   44.4638 H   0  0  0  0  0  0  0  0  0  0  0  0
   36.0423   27.5571   44.4638 H   0  0  0  0  0  0  0  0  0  0  0  0
   38.9644   26.7549   45.0320 H   0  0  0  0  0  0  0  0  0  0  0  0
   38.7389   25.7458   43.5632 H   0  0  0  0  0  0  0  0  0  0  0  0
   39.9479   27.0743   43.5632 H   0  0  0  0  0  0  0  0  0  0  0  0
  1  5  1  0
  1  2  1  0
  2  3  2  0
  4  3  1  0
  4 12  1  0
  5  4  2  0
  6  7  2  0
  7  8  1  0
  7  1  1  0
  9  8  2  0
 10  9  1  0
 11 10  2  0
 11  6  1  0
 12 15  1  0
 12 14  1  0
 13 12  1  0
  2 16  1  0
  6 17  1  0
  8 18  1  0
 10 19  1  0
 13 20  1  0
 13 21  1  0
 13 22  1  0
 14 23  1  0
 14 24  1  0
 14 25  1  0
 15 26  1  0
 15 27  1  0
 15 28  1  0
M  ISO  8  16  14  17  14  18  14  19  14  20   8  21   8  22   8  23   8
M  ISO  5  24   8  25   8  26   8  27   8  28   8
M  END
>  <minimizedAffinity>  (1) 
-4.62153387

>  <minimizedRMSD>  (1) 
2.26421547

$$$$
