
     RDKit          3D

 23 25  0  0  0  0  0  0  0  0999 V2000
   36.6310   30.4980   41.0520 C   0  0  0  0  0  0  0  0  0  0  0  0
   37.8490   30.0340   41.5970 C   0  0  0  0  0  0  0  0  0  0  0  0
   38.9630   30.8740   41.4980 C   0  0  0  0  0  0  0  0  0  0  0  0
   38.8110   32.0760   40.8880 N   0  0  0  0  0  0  0  0  0  0  0  0
   37.6360   32.4760   40.3850 C   0  0  0  0  0  0  0  0  0  0  0  0
   36.5400   31.6850   40.4660 N   0  0  0  0  0  0  0  0  0  0  0  0
   37.9930   28.7690   42.2350 N   0  0  0  0  0  0  0  0  0  0  0  0
   38.7350   28.2600   43.2520 C   0  0  0  0  0  0  0  0  0  0  0  0
   38.4500   26.9670   43.4200 N   0  0  0  0  0  0  0  0  0  0  0  0
   37.5200   26.6500   42.5060 C   0  0  0  0  0  0  0  0  0  0  0  0
   37.2590   27.7610   41.7960 N   0  0  0  0  0  0  0  0  0  0  0  0
   36.9360   25.2790   42.3710 C   0  0  0  0  0  0  0  0  0  0  0  0
   37.8730   24.1410   42.0780 C   0  0  0  0  0  0  0  0  0  0  0  0
   36.8440   24.6500   41.0430 C   0  0  0  0  0  0  0  0  0  0  0  0
   35.7370   29.8602   41.1149 H   0  0  0  0  0  0  0  0  0  0  0  0
   39.9380   30.5675   41.9047 H   0  0  0  0  0  0  0  0  0  0  0  0
   37.5603   33.4602   39.8996 H   0  0  0  0  0  0  0  0  0  0  0  0
   39.4630   28.8290   43.8489 H   0  0  0  0  0  0  0  0  0  0  0  0
   36.1943   25.4881   43.1560 H   0  0  0  0  0  0  0  0  0  0  0  0
   38.9472   24.3283   41.9328 H   0  0  0  0  0  0  0  0  0  0  0  0
   38.1135   23.1743   42.5446 H   0  0  0  0  0  0  0  0  0  0  0  0
   37.1841   25.1954   40.1503 H   0  0  0  0  0  0  0  0  0  0  0  0
   36.0384   24.1889   40.4528 H   0  0  0  0  0  0  0  0  0  0  0  0
  1  2  2  0
  2  7  1  0
  3  2  1  0
  4  3  2  0
  5  6  2  0
  5  4  1  0
  6  1  1  0
  7  8  1  0
  8  9  2  0
 10  9  1  0
 11  7  1  0
 11 10  2  0
 12 10  1  0
 13 12  1  0
 14 13  1  0
 14 12  1  0
  1 15  1  0
  3 16  1  0
  5 17  1  0
  8 18  1  0
 12 19  1  0
 13 20  1  0
 13 21  1  0
 14 22  1  0
 14 23  1  0
M  ISO  8  15  14  16  14  17  14  18  14  19  13  20  13  21  13  22  13
M  ISO  1  23  13
M  END
>  <minimizedAffinity>  (1) 
-4.16359854

>  <minimizedRMSD>  (1) 
0.985315442

$$$$
