
     RDKit          3D

 18 19  0  0  0  0  0  0  0  0999 V2000
   38.1550   33.8880   40.3040 C   0  0  0  0  0  0  0  0  0  0  0  0
   38.6200   32.6010   40.7170 C   0  0  0  0  0  0  0  0  0  0  0  0
   40.0010   32.4490   40.8720 C   0  0  0  0  0  0  0  0  0  0  0  0
   40.8170   33.5060   40.6290 N   0  0  0  0  0  0  0  0  0  0  0  0
   40.3270   34.6970   40.2410 C   0  0  0  0  0  0  0  0  0  0  0  0
   39.0100   34.8860   40.0800 N   0  0  0  0  0  0  0  0  0  0  0  0
   37.7470   31.5110   40.9650 N   0  0  0  0  0  0  0  0  0  0  0  0
   36.4970   31.1840   40.5880 C   0  0  0  0  0  0  0  0  0  0  0  0
   36.1540   30.0040   41.1300 N   0  0  0  0  0  0  0  0  0  0  0  0
   37.2040   29.5920   41.8540 C   0  0  0  0  0  0  0  0  0  0  0  0
   38.1480   30.5250   41.7320 N   0  0  0  0  0  0  0  0  0  0  0  0
   37.2870   28.3520   42.6270 C   0  0  0  0  0  0  0  0  0  0  0  0
   37.3950   28.4210   43.8970 O   0  0  0  0  0  0  0  0  0  0  0  0
   37.0765   34.0573   40.1691 H   0  0  0  0  0  0  0  0  0  0  0  0
   40.4219   31.4829   41.1876 H   0  0  0  0  0  0  0  0  0  0  0  0
   41.0195   35.5306   40.0525 H   0  0  0  0  0  0  0  0  0  0  0  0
   35.8535   31.7915   39.9346 H   0  0  0  0  0  0  0  0  0  0  0  0
   37.2568   27.3756   42.1213 H   0  0  0  0  0  0  0  0  0  0  0  0
  1  2  2  0
  2  3  1  0
  2  7  1  0
  4  3  2  0
  5  4  1  0
  6  5  2  0
  6  1  1  0
  7 11  1  0
  8  7  1  0
  8  9  2  0
  9 10  1  0
 10 12  1  0
 11 10  2  0
 12 13  2  0
  1 14  1  0
  3 15  1  0
  5 16  1  0
  8 17  1  0
 12 18  1  0
M  ISO  5  14  14  15  14  16  14  17  14  18   6
M  END
>  <minimizedAffinity>  (1) 
-3.8153975

>  <minimizedRMSD>  (1) 
3.16011119

$$$$
