
     RDKit          3D

 19 20  0  0  0  0  0  0  0  0999 V2000
   36.5830   30.8120   40.8800 C   0  0  0  0  0  0  0  0  0  0  0  0
   37.6500   30.2500   41.6350 C   0  0  0  0  0  0  0  0  0  0  0  0
   38.8930   30.9220   41.6510 C   0  0  0  0  0  0  0  0  0  0  0  0
   38.9780   32.0710   40.9330 N   0  0  0  0  0  0  0  0  0  0  0  0
   37.9470   32.5710   40.2320 C   0  0  0  0  0  0  0  0  0  0  0  0
   36.7670   31.9470   40.2080 N   0  0  0  0  0  0  0  0  0  0  0  0
   37.5290   29.0340   42.3830 N   0  0  0  0  0  0  0  0  0  0  0  0
   37.5410   28.6820   43.6780 C   0  0  0  0  0  0  0  0  0  0  0  0
   37.3790   27.3510   43.7800 N   0  0  0  0  0  0  0  0  0  0  0  0
   37.2650   26.8700   42.5430 C   0  0  0  0  0  0  0  0  0  0  0  0
   37.3590   27.9100   41.7040 N   0  0  0  0  0  0  0  0  0  0  0  0
   37.0690   25.4460   42.1590 C   0  0  0  0  0  0  0  0  0  0  0  0
   35.6053   30.3086   40.8513 H   0  0  0  0  0  0  0  0  0  0  0  0
   39.7511   30.5325   42.2184 H   0  0  0  0  0  0  0  0  0  0  0  0
   38.0768   33.5076   39.6699 H   0  0  0  0  0  0  0  0  0  0  0  0
   37.6641   29.3742   44.5240 H   0  0  0  0  0  0  0  0  0  0  0  0
   36.9842   24.8299   43.0663 H   0  0  0  0  0  0  0  0  0  0  0  0
   36.1492   25.3501   41.5634 H   0  0  0  0  0  0  0  0  0  0  0  0
   37.9287   25.1052   41.5634 H   0  0  0  0  0  0  0  0  0  0  0  0
  1  2  2  0
  2  3  1  0
  2  7  1  0
  4  3  2  0
  5  4  1  0
  6  5  2  0
  6  1  1  0
  7  8  1  0
  8  9  2  0
 10  9  1  0
 11  7  1  0
 11 10  2  0
 12 10  1  0
  1 13  1  0
  3 14  1  0
  5 15  1  0
  8 16  1  0
 12 17  1  0
 12 18  1  0
 12 19  1  0
M  ISO  7  13  14  14  14  15  14  16  14  17   8  18   8  19   8
M  END
>  <minimizedAffinity>  (1) 
-3.72495556

>  <minimizedRMSD>  (1) 
0.737252593

$$$$
