
     RDKit          3D

 17 18  0  0  0  0  0  0  0  0999 V2000
   36.5870   30.7990   40.9270 C   0  0  0  0  0  0  0  0  0  0  0  0
   37.6720   30.2200   41.6490 C   0  0  0  0  0  0  0  0  0  0  0  0
   38.8910   30.9120   41.6330 C   0  0  0  0  0  0  0  0  0  0  0  0
   38.9770   32.0820   40.9380 N   0  0  0  0  0  0  0  0  0  0  0  0
   37.9220   32.5940   40.2670 C   0  0  0  0  0  0  0  0  0  0  0  0
   36.7340   31.9440   40.2690 N   0  0  0  0  0  0  0  0  0  0  0  0
   37.5620   29.0030   42.3640 N   0  0  0  0  0  0  0  0  0  0  0  0
   37.5340   28.6620   43.6790 C   0  0  0  0  0  0  0  0  0  0  0  0
   37.4120   27.3190   43.7880 N   0  0  0  0  0  0  0  0  0  0  0  0
   37.3640   26.8320   42.5460 C   0  0  0  0  0  0  0  0  0  0  0  0
   37.4580   27.8780   41.6980 N   0  0  0  0  0  0  0  0  0  0  0  0
   37.2060   25.1240   42.0070 S   0  0  0  0  0  0  0  0  0  0  0  0
   35.6123   30.2893   40.9146 H   0  0  0  0  0  0  0  0  0  0  0  0
   39.7645   30.5173   42.1727 H   0  0  0  0  0  0  0  0  0  0  0  0
   38.0283   33.5411   39.7178 H   0  0  0  0  0  0  0  0  0  0  0  0
   37.6001   29.3663   44.5214 H   0  0  0  0  0  0  0  0  0  0  0  0
   37.1302   24.3046   43.1023 H   0  0  0  0  0  0  0  0  0  0  0  0
  1  2  2  0
  2  7  1  0
  3  2  1  0
  4  3  2  0
  5  6  2  0
  5  4  1  0
  6  1  1  0
  7  8  1  0
  8  9  2  0
 10  9  1  0
 11  7  1  0
 11 10  2  0
 12 10  1  0
  1 13  1  0
  3 14  1  0
  5 15  1  0
  8 16  1  0
 12 17  1  0
M  ISO  5  13  14  14  14  15  14  16  14  17  11
M  END
>  <minimizedAffinity>  (1) 
-3.57585406

>  <minimizedRMSD>  (1) 
0.843077958

$$$$
