
     RDKit          3D

 25 26  0  0  0  0  0  0  0  0999 V2000
   37.3290   32.1640   40.3840 C   0  0  0  0  0  0  0  0  0  0  0  0
   38.4540   31.7170   41.1110 C   0  0  0  0  0  0  0  0  0  0  0  0
   39.5820   32.5690   41.1400 C   0  0  0  0  0  0  0  0  0  0  0  0
   39.5020   33.7490   40.4690 N   0  0  0  0  0  0  0  0  0  0  0  0
   38.4100   34.1250   39.7940 C   0  0  0  0  0  0  0  0  0  0  0  0
   37.3200   33.3340   39.7500 N   0  0  0  0  0  0  0  0  0  0  0  0
   38.5110   30.4780   41.8050 N   0  0  0  0  0  0  0  0  0  0  0  0
   39.4670   29.7120   42.3740 C   0  0  0  0  0  0  0  0  0  0  0  0
   38.9160   28.6050   42.9010 N   0  0  0  0  0  0  0  0  0  0  0  0
   37.5900   28.6760   42.6600 C   0  0  0  0  0  0  0  0  0  0  0  0
   37.3880   29.8240   41.9950 N   0  0  0  0  0  0  0  0  0  0  0  0
   36.6040   27.6390   43.0820 C   0  0  0  0  0  0  0  0  0  0  0  0
   36.5210   27.7530   44.6100 C   0  0  0  0  0  0  0  0  0  0  0  0
   36.9830   26.2580   42.6770 C   0  0  0  0  0  0  0  0  0  0  0  0
   36.4337   31.5263   40.3404 H   0  0  0  0  0  0  0  0  0  0  0  0
   40.4937   32.2868   41.6870 H   0  0  0  0  0  0  0  0  0  0  0  0
   38.4018   35.0914   39.2686 H   0  0  0  0  0  0  0  0  0  0  0  0
   40.5388   29.9579   42.4020 H   0  0  0  0  0  0  0  0  0  0  0  0
   35.6376   27.8169   42.5876 H   0  0  0  0  0  0  0  0  0  0  0  0
   37.1090   26.9454   45.0704 H   0  0  0  0  0  0  0  0  0  0  0  0
   36.9233   28.7263   44.9275 H   0  0  0  0  0  0  0  0  0  0  0  0
   35.4712   27.6690   44.9275 H   0  0  0  0  0  0  0  0  0  0  0  0
   37.1511   25.6456   43.5752 H   0  0  0  0  0  0  0  0  0  0  0  0
   36.1729   25.8161   42.0782 H   0  0  0  0  0  0  0  0  0  0  0  0
   37.9052   26.2915   42.0782 H   0  0  0  0  0  0  0  0  0  0  0  0
  1  2  2  0
  2  3  1  0
  2  7  1  0
  4  3  2  0
  5  4  1  0
  6  5  2  0
  6  1  1  0
  7 11  1  0
  7  8  1  0
  8  9  2  0
 10  9  1  0
 10 12  1  0
 11 10  2  0
 12 13  1  0
 14 12  1  0
  1 15  1  0
  3 16  1  0
  5 17  1  0
  8 18  1  0
 12 19  1  0
 13 20  1  0
 13 21  1  0
 13 22  1  0
 14 23  1  0
 14 24  1  0
 14 25  1  0
M  ISO  8  15  14  16  14  17  14  18  14  19   8  20   8  21   8  22   8
M  ISO  3  23   8  24   8  25   8
M  END
>  <minimizedAffinity>  (1) 
-4.42241478

>  <minimizedRMSD>  (1) 
1.70414603

$$$$
