
     RDKit          3D

 36 38  0  0  1  0  0  0  0  0999 V2000
   36.9130   27.8120   43.0350 C   0  0  2  0  0  0  0  0  0  0  0  0
   38.3360   30.8790   41.6990 N   0  0  0  0  0  0  0  0  0  0  0  0
   39.3710   30.3480   42.4090 C   0  0  0  0  0  0  0  0  0  0  0  0
   38.9720   29.1950   42.9610 N   0  0  0  0  0  0  0  0  0  0  0  0
   37.6820   28.9970   42.6000 C   0  0  0  0  0  0  0  0  0  0  0  0
   37.3340   30.0360   41.8380 N   0  0  0  0  0  0  0  0  0  0  0  0
   37.1480   32.1550   39.9200 C   0  0  0  0  0  0  0  0  0  0  0  0
   38.1360   32.0400   40.9140 C   0  0  0  0  0  0  0  0  0  0  0  0
   38.9550   33.1650   41.1070 C   0  0  0  0  0  0  0  0  0  0  0  0
   38.7480   34.2650   40.3420 N   0  0  0  0  0  0  0  0  0  0  0  0
   37.7920   34.3150   39.4110 C   0  0  0  0  0  0  0  0  0  0  0  0
   36.9870   33.2570   39.1960 N   0  0  0  0  0  0  0  0  0  0  0  0
   36.8790   27.8590   44.5650 C   0  0  0  0  0  0  0  0  0  0  0  0
   37.3860   26.5200   42.5220 C   0  0  0  0  0  0  0  0  0  0  0  0
   38.7270   26.1400   42.8090 N   0  0  0  0  0  0  0  0  0  0  0  0
   39.4530   26.3970   43.9120 C   0  0  0  0  0  0  0  0  0  0  0  0
   40.7570   25.9790   44.0820 C   0  0  0  0  0  0  0  0  0  0  0  0
   41.3870   25.2520   43.0820 C   0  0  0  0  0  0  0  0  0  0  0  0
   42.7280   24.8440   43.3000 N   0  0  0  0  0  0  0  0  0  0  0  0
   40.6540   24.9910   41.9660 N   0  0  0  0  0  0  0  0  0  0  0  0
   39.3820   25.4220   41.8500 C   0  0  0  0  0  0  0  0  0  0  0  0
   38.9130   25.0610   40.7350 O   0  0  0  0  0  0  0  0  0  0  0  0
   35.9052   27.8703   42.5980 H   0  0  0  0  0  0  0  0  0  0  0  0
   40.3713   30.7939   42.5119 H   0  0  0  0  0  0  0  0  0  0  0  0
   36.4825   31.2990   39.7348 H   0  0  0  0  0  0  0  0  0  0  0  0
   39.7510   33.1536   41.8662 H   0  0  0  0  0  0  0  0  0  0  0  0
   37.6607   35.2294   38.8138 H   0  0  0  0  0  0  0  0  0  0  0  0
   37.4783   27.0306   44.9707 H   0  0  0  0  0  0  0  0  0  0  0  0
   37.2948   28.8165   44.9118 H   0  0  0  0  0  0  0  0  0  0  0  0
   35.8394   27.7637   44.9118 H   0  0  0  0  0  0  0  0  0  0  0  0
   37.2793   26.5433   41.4274 H   0  0  0  0  0  0  0  0  0  0  0  0
   36.7700   25.7735   43.0448 H   0  0  0  0  0  0  0  0  0  0  0  0
   38.9814   26.9718   44.7227 H   0  0  0  0  0  0  0  0  0  0  0  0
   41.2965   26.2219   45.0093 H   0  0  0  0  0  0  0  0  0  0  0  0
   43.2255   24.3030   42.5784 H   0  0  0  0  0  0  0  0  0  0  0  0
   43.2042   25.0888   44.1799 H   0  0  0  0  0  0  0  0  0  0  0  0
  1 13  1  0
  2  6  1  0
  2  3  1  0
  3  4  2  0
  5  4  1  0
  5  1  1  0
  6  5  2  0
  7  8  2  0
  8  9  1  0
  8  2  1  0
 10  9  2  0
 11 10  1  0
 12 11  2  0
 12  7  1  0
 14 15  1  0
 14  1  1  0
 15 16  1  0
 16 17  2  0
 18 19  1  0
 18 17  1  0
 20 18  2  0
 21 20  1  0
 21 15  1  0
 22 21  2  0
  1 23  1  6
  3 24  1  0
  7 25  1  0
  9 26  1  0
 11 27  1  0
 13 28  1  0
 13 29  1  0
 13 30  1  0
 14 31  1  0
 14 32  1  0
 16 33  1  0
 17 34  1  0
 19 35  1  0
 19 36  1  0
M  ISO  8  23   8  24  14  25  14  26  14  27  14  28   8  29   8  30   8
M  ISO  4  31   8  32   8  33  14  34  14
M  END
>  <minimizedAffinity>  (1) 
-5.83450508

>  <minimizedRMSD>  (1) 
1.0866245

$$$$
