
     RDKit          3D

 35 37  0  0  1  0  0  0  0  0999 V2000
   37.2340   27.8260   43.0270 C   0  0  2  0  0  0  0  0  0  0  0  0
   39.3060   30.6010   41.9220 N   0  0  0  0  0  0  0  0  0  0  0  0
   40.2050   29.7670   42.5140 C   0  0  0  0  0  0  0  0  0  0  0  0
   39.5660   28.6830   42.9730 N   0  0  0  0  0  0  0  0  0  0  0  0
   38.2670   28.8230   42.6770 C   0  0  0  0  0  0  0  0  0  0  0  0
   38.1550   30.0010   42.0400 N   0  0  0  0  0  0  0  0  0  0  0  0
   38.2140   32.5230   40.7690 C   0  0  0  0  0  0  0  0  0  0  0  0
   39.3460   31.8550   41.2720 C   0  0  0  0  0  0  0  0  0  0  0  0
   40.5960   32.5030   41.0980 C   0  0  0  0  0  0  0  0  0  0  0  0
   40.6140   33.7050   40.4690 N   0  0  0  0  0  0  0  0  0  0  0  0
   39.5120   34.2960   40.0110 C   0  0  0  0  0  0  0  0  0  0  0  0
   38.3180   33.7050   40.1620 N   0  0  0  0  0  0  0  0  0  0  0  0
   36.8420   28.1240   44.4890 C   0  0  0  0  0  0  0  0  0  0  0  0
   37.6160   26.4210   42.8570 C   0  0  0  0  0  0  0  0  0  0  0  0
   37.1060   25.7100   41.6900 C   0  0  0  0  0  0  0  0  0  0  0  0
   36.7660   24.3740   41.5910 C   0  0  0  0  0  0  0  0  0  0  0  0
   36.2850   23.8020   40.4300 C   0  0  0  0  0  0  0  0  0  0  0  0
   36.1180   24.5510   39.2980 C   0  0  0  0  0  0  0  0  0  0  0  0
   36.4390   25.8860   39.3360 C   0  0  0  0  0  0  0  0  0  0  0  0
   36.9180   26.4370   40.5070 C   0  0  0  0  0  0  0  0  0  0  0  0
   36.3970   27.9335   42.3213 H   0  0  0  0  0  0  0  0  0  0  0  0
   41.2855   29.9540   42.6015 H   0  0  0  0  0  0  0  0  0  0  0  0
   37.2224   32.0598   40.8792 H   0  0  0  0  0  0  0  0  0  0  0  0
   41.5260   32.0431   41.4634 H   0  0  0  0  0  0  0  0  0  0  0  0
   39.5815   35.2715   39.5075 H   0  0  0  0  0  0  0  0  0  0  0  0
   37.5313   27.6000   45.1675 H   0  0  0  0  0  0  0  0  0  0  0  0
   36.9012   29.2072   44.6710 H   0  0  0  0  0  0  0  0  0  0  0  0
   35.8141   27.7772   44.6710 H   0  0  0  0  0  0  0  0  0  0  0  0
   38.7143   26.3840   42.8086 H   0  0  0  0  0  0  0  0  0  0  0  0
   37.1587   25.9058   43.7146 H   0  0  0  0  0  0  0  0  0  0  0  0
   36.8842   23.7361   42.4793 H   0  0  0  0  0  0  0  0  0  0  0  0
   36.0332   22.7313   40.4154 H   0  0  0  0  0  0  0  0  0  0  0  0
   35.7339   24.0930   38.3746 H   0  0  0  0  0  0  0  0  0  0  0  0
   36.3151   26.5113   38.4395 H   0  0  0  0  0  0  0  0  0  0  0  0
   37.1665   27.5085   40.5120 H   0  0  0  0  0  0  0  0  0  0  0  0
  1 13  1  0
  2  6  1  0
  2  3  1  0
  3  4  2  0
  5  4  1  0
  5  1  1  0
  6  5  2  0
  7  8  2  0
  8  2  1  0
  9  8  1  0
 10  9  2  0
 11 12  2  0
 11 10  1  0
 12  7  1  0
 14  1  1  0
 15 14  1  0
 16 15  2  0
 17 16  1  0
 18 19  1  0
 18 17  2  0
 19 20  2  0
 20 15  1  0
  1 21  1  6
  3 22  1  0
  7 23  1  0
  9 24  1  0
 11 25  1  0
 13 26  1  0
 13 27  1  0
 13 28  1  0
 14 29  1  0
 14 30  1  0
 16 31  1  0
 17 32  1  0
 18 33  1  0
 19 34  1  0
 20 35  1  0
M  ISO  8  21   8  22  14  23  14  24  14  25  14  26   8  27   8  28   8
M  ISO  7  29   8  30   8  31  14  32  14  33  14  34  14  35  14
M  END
>  <minimizedAffinity>  (1) 
-5.53820658

>  <minimizedRMSD>  (1) 
2.6489985

$$$$
