
     RDKit          3D

 35 37  0  0  1  0  0  0  0  0999 V2000
   37.0650   27.8720   42.9720 C   0  0  2  0  0  0  0  0  0  0  0  0
   38.6670   30.8980   41.7410 N   0  0  0  0  0  0  0  0  0  0  0  0
   39.6780   30.2600   42.3540 C   0  0  0  0  0  0  0  0  0  0  0  0
   39.2380   29.0990   42.8700 N   0  0  0  0  0  0  0  0  0  0  0  0
   37.9160   29.0130   42.5690 C   0  0  0  0  0  0  0  0  0  0  0  0
   37.6100   30.1200   41.8860 N   0  0  0  0  0  0  0  0  0  0  0  0
   37.3560   32.4130   40.2280 C   0  0  0  0  0  0  0  0  0  0  0  0
   38.4720   32.1200   41.0260 C   0  0  0  0  0  0  0  0  0  0  0  0
   39.4820   33.1140   41.1340 C   0  0  0  0  0  0  0  0  0  0  0  0
   39.2990   34.2720   40.4630 N   0  0  0  0  0  0  0  0  0  0  0  0
   38.2130   34.5090   39.7080 C   0  0  0  0  0  0  0  0  0  0  0  0
   37.2400   33.5760   39.5920 N   0  0  0  0  0  0  0  0  0  0  0  0
   36.8340   28.0390   44.4910 C   0  0  0  0  0  0  0  0  0  0  0  0
   37.6260   26.5360   42.6800 C   0  0  0  0  0  0  0  0  0  0  0  0
   37.1270   26.0640   41.4020 N   0  0  0  0  0  0  0  0  0  0  0  0
   36.7720   26.7940   40.3330 C   0  0  0  0  0  0  0  0  0  0  0  0
   36.3170   26.1640   39.1880 C   0  0  0  0  0  0  0  0  0  0  0  0
   36.2040   24.7880   39.0790 C   0  0  0  0  0  0  0  0  0  0  0  0
   35.7870   24.2510   38.0260 O   0  0  0  0  0  0  0  0  0  0  0  0
   36.5780   24.1040   40.1930 N   0  0  0  0  0  0  0  0  0  0  0  0
   37.0210   24.7220   41.3070 C   0  0  0  0  0  0  0  0  0  0  0  0
   37.3280   23.9380   42.2510 O   0  0  0  0  0  0  0  0  0  0  0  0
   36.1375   27.9002   42.3813 H   0  0  0  0  0  0  0  0  0  0  0  0
   40.7110   30.6318   42.4234 H   0  0  0  0  0  0  0  0  0  0  0  0
   36.5576   31.6633   40.1256 H   0  0  0  0  0  0  0  0  0  0  0  0
   40.3823   32.9461   41.7434 H   0  0  0  0  0  0  0  0  0  0  0  0
   38.1143   35.4690   39.1801 H   0  0  0  0  0  0  0  0  0  0  0  0
   37.6052   27.4814   45.0426 H   0  0  0  0  0  0  0  0  0  0  0  0
   36.8924   29.1051   44.7557 H   0  0  0  0  0  0  0  0  0  0  0  0
   35.8400   27.6494   44.7557 H   0  0  0  0  0  0  0  0  0  0  0  0
   38.7235   26.6006   42.6426 H   0  0  0  0  0  0  0  0  0  0  0  0
   37.3237   25.8335   43.4707 H   0  0  0  0  0  0  0  0  0  0  0  0
   36.8426   27.8912   40.3671 H   0  0  0  0  0  0  0  0  0  0  0  0
   36.0322   26.7842   38.3253 H   0  0  0  0  0  0  0  0  0  0  0  0
   36.5209   23.0756   40.1859 H   0  0  0  0  0  0  0  0  0  0  0  0
  1 13  1  0
  2  6  1  0
  2  3  1  0
  3  4  2  0
  5  4  1  0
  5  1  1  0
  6  5  2  0
  7  8  2  0
  8  9  1  0
  8  2  1  0
 10  9  2  0
 11 10  1  0
 12 11  2  0
 12  7  1  0
 14  1  1  0
 15 14  1  0
 16 15  1  0
 17 16  2  0
 18 17  1  0
 18 20  1  0
 19 18  2  0
 20 21  1  0
 21 15  1  0
 21 22  2  0
  1 23  1  6
  3 24  1  0
  7 25  1  0
  9 26  1  0
 11 27  1  0
 13 28  1  0
 13 29  1  0
 13 30  1  0
 14 31  1  0
 14 32  1  0
 16 33  1  0
 17 34  1  0
 20 35  1  0
M  ISO  8  23   8  24  14  25  14  26  14  27  14  28   8  29   8  30   8
M  ISO  5  31   8  32   8  33  14  34  14  35   9
M  END
>  <minimizedAffinity>  (1) 
-5.2314949

>  <minimizedRMSD>  (1) 
0.807091475

$$$$
