
     RDKit          3D

 32 34  0  0  1  0  0  0  0  0999 V2000
   38.4740   30.7540   41.6490 N   0  0  0  0  0  0  0  0  0  0  0  0
   39.5250   30.1320   42.2060 C   0  0  0  0  0  0  0  0  0  0  0  0
   39.1310   28.9930   42.7910 N   0  0  0  0  0  0  0  0  0  0  0  0
   37.7890   28.8920   42.5980 C   0  0  0  0  0  0  0  0  0  0  0  0
   37.4290   29.9850   41.8980 N   0  0  0  0  0  0  0  0  0  0  0  0
   37.1910   32.1210   39.9770 C   0  0  0  0  0  0  0  0  0  0  0  0
   38.2230   31.9510   40.9110 C   0  0  0  0  0  0  0  0  0  0  0  0
   39.0870   33.0590   41.1470 C   0  0  0  0  0  0  0  0  0  0  0  0
   38.8500   34.1990   40.4500 N   0  0  0  0  0  0  0  0  0  0  0  0
   37.8550   34.3120   39.5690 C   0  0  0  0  0  0  0  0  0  0  0  0
   37.0360   33.2760   39.3400 N   0  0  0  0  0  0  0  0  0  0  0  0
   36.9450   27.7740   43.0920 C   0  0  2  0  0  0  0  0  0  0  0  0
   36.7730   28.0400   44.6050 C   0  0  0  0  0  0  0  0  0  0  0  0
   37.5500   26.4420   42.8950 C   0  0  0  0  0  0  0  0  0  0  0  0
   37.0970   25.7220   41.7060 C   0  0  0  0  0  0  0  0  0  0  0  0
   36.7910   24.3750   41.7040 C   0  0  0  0  0  0  0  0  0  0  0  0
   36.4070   24.0640   40.4150 C   0  0  0  0  0  0  0  0  0  0  0  0
   36.4980   25.2400   39.6960 C   0  0  0  0  0  0  0  0  0  0  0  0
   36.9040   26.1790   40.4900 O   0  0  0  0  0  0  0  0  0  0  0  0
   40.5601   30.5037   42.1851 H   0  0  0  0  0  0  0  0  0  0  0  0
   36.5023   31.2887   39.7697 H   0  0  0  0  0  0  0  0  0  0  0  0
   39.9155   32.9928   41.8675 H   0  0  0  0  0  0  0  0  0  0  0  0
   37.7061   35.2585   39.0286 H   0  0  0  0  0  0  0  0  0  0  0  0
   35.9985   27.7495   42.5321 H   0  0  0  0  0  0  0  0  0  0  0  0
   37.2834   27.2507   45.1764 H   0  0  0  0  0  0  0  0  0  0  0  0
   37.2108   29.0170   44.8576 H   0  0  0  0  0  0  0  0  0  0  0  0
   35.7024   28.0416   44.8576 H   0  0  0  0  0  0  0  0  0  0  0  0
   38.6398   26.5710   42.8200 H   0  0  0  0  0  0  0  0  0  0  0  0
   37.2376   25.8344   43.7571 H   0  0  0  0  0  0  0  0  0  0  0  0
   36.8430   23.6863   42.5602 H   0  0  0  0  0  0  0  0  0  0  0  0
   36.0925   23.0799   40.0373 H   0  0  0  0  0  0  0  0  0  0  0  0
   36.2646   25.3590   38.6276 H   0  0  0  0  0  0  0  0  0  0  0  0
  1  5  1  0
  1  2  1  0
  2  3  2  0
  4  3  1  0
  4 12  1  0
  5  4  2  0
  6  7  2  0
  7  8  1  0
  7  1  1  0
  9  8  2  0
 10  9  1  0
 11 10  2  0
 11  6  1  0
 12 13  1  0
 14 12  1  0
 15 14  1  0
 16 15  2  0
 17 16  1  0
 18 17  2  0
 18 19  1  0
 19 15  1  0
  2 20  1  0
  6 21  1  0
  8 22  1  0
 10 23  1  0
 12 24  1  6
 13 25  1  0
 13 26  1  0
 13 27  1  0
 14 28  1  0
 14 29  1  0
 16 30  1  0
 17 31  1  0
 18 32  1  0
M  ISO  8  20  14  21  14  22  14  23  14  24   8  25   8  26   8  27   8
M  ISO  5  28   8  29   8  30  14  31  14  32  14
M  END
>  <minimizedAffinity>  (1) 
-5.19961262

>  <minimizedRMSD>  (1) 
0.829466283

$$$$
