
     RDKit          3D

 37 39  0  0  1  0  0  0  0  0999 V2000
   38.4710   30.8240   41.6740 N   0  0  0  0  0  0  0  0  0  0  0  0
   39.5310   30.2270   42.2750 C   0  0  0  0  0  0  0  0  0  0  0  0
   39.1420   29.0640   42.8320 N   0  0  0  0  0  0  0  0  0  0  0  0
   37.8200   28.9280   42.5780 C   0  0  0  0  0  0  0  0  0  0  0  0
   37.4670   30.0100   41.8810 N   0  0  0  0  0  0  0  0  0  0  0  0
   37.2130   32.1760   39.9950 C   0  0  0  0  0  0  0  0  0  0  0  0
   38.2580   32.0190   40.9450 C   0  0  0  0  0  0  0  0  0  0  0  0
   39.1050   33.1270   41.1550 C   0  0  0  0  0  0  0  0  0  0  0  0
   38.8780   34.2570   40.4490 N   0  0  0  0  0  0  0  0  0  0  0  0
   37.8680   34.3480   39.5590 C   0  0  0  0  0  0  0  0  0  0  0  0
   37.0360   33.3080   39.3310 N   0  0  0  0  0  0  0  0  0  0  0  0
   37.0060   27.7720   43.0290 C   0  0  2  0  0  0  0  0  0  0  0  0
   36.7900   27.9700   44.5290 C   0  0  0  0  0  0  0  0  0  0  0  0
   37.6300   26.4530   42.7510 C   0  0  0  0  0  0  0  0  0  0  0  0
   37.1730   25.7110   41.6830 N   0  0  0  0  0  0  0  0  0  0  0  0
   36.8840   26.2210   40.4290 C   0  0  0  0  0  0  0  0  0  0  0  0
   36.6010   25.0390   39.5330 C   0  0  0  0  0  0  0  0  0  0  0  0
   36.3200   23.9030   40.4760 C   0  0  0  0  0  0  0  0  0  0  0  0
   36.8400   24.3490   41.8250 C   0  0  0  0  0  0  0  0  0  0  0  0
   40.5535   30.6317   42.3031 H   0  0  0  0  0  0  0  0  0  0  0  0
   36.5318   31.3333   39.8058 H   0  0  0  0  0  0  0  0  0  0  0  0
   39.9325   33.0727   41.8777 H   0  0  0  0  0  0  0  0  0  0  0  0
   37.7188   35.2881   39.0077 H   0  0  0  0  0  0  0  0  0  0  0  0
   36.0600   27.7485   42.4682 H   0  0  0  0  0  0  0  0  0  0  0  0
   37.4885   27.3297   45.0877 H   0  0  0  0  0  0  0  0  0  0  0  0
   36.9699   29.0235   44.7895 H   0  0  0  0  0  0  0  0  0  0  0  0
   35.7561   27.6993   44.7895 H   0  0  0  0  0  0  0  0  0  0  0  0
   38.7024   26.6321   42.5841 H   0  0  0  0  0  0  0  0  0  0  0  0
   37.3650   25.8448   43.6284 H   0  0  0  0  0  0  0  0  0  0  0  0
   36.0024   26.8769   40.4807 H   0  0  0  0  0  0  0  0  0  0  0  0
   37.7231   26.8180   40.0423 H   0  0  0  0  0  0  0  0  0  0  0  0
   35.7281   25.2372   38.8937 H   0  0  0  0  0  0  0  0  0  0  0  0
   37.4401   24.8199   38.8563 H   0  0  0  0  0  0  0  0  0  0  0  0
   35.2389   23.7068   40.5280 H   0  0  0  0  0  0  0  0  0  0  0  0
   36.8026   22.9721   40.1436 H   0  0  0  0  0  0  0  0  0  0  0  0
   37.7297   23.7652   42.1035 H   0  0  0  0  0  0  0  0  0  0  0  0
   36.0900   24.1983   42.6154 H   0  0  0  0  0  0  0  0  0  0  0  0
  1  5  1  0
  1  2  1  0
  2  3  2  0
  4  3  1  0
  4 12  1  0
  5  4  2  0
  6  7  2  0
  7  8  1  0
  7  1  1  0
  9  8  2  0
 10  9  1  0
 11 10  2  0
 11  6  1  0
 12 13  1  0
 14 12  1  0
 15 19  1  0
 15 14  1  0
 16 15  1  0
 17 16  1  0
 17 18  1  0
 18 19  1  0
  2 20  1  0
  6 21  1  0
  8 22  1  0
 10 23  1  0
 12 24  1  6
 13 25  1  0
 13 26  1  0
 13 27  1  0
 14 28  1  0
 14 29  1  0
 16 30  1  0
 16 31  1  0
 17 32  1  0
 17 33  1  0
 18 34  1  0
 18 35  1  0
 19 36  1  0
 19 37  1  0
M  ISO  8  20  14  21  14  22  14  23  14  24   8  25   8  26   8  27   8
M  ISO  8  28   8  29   8  30  13  31  13  32  13  33  13  34  13  35  13
M  ISO  2  36  13  37  13
M  END
>  <minimizedAffinity>  (1) 
-5.00908041

>  <minimizedRMSD>  (1) 
0.764872611

$$$$
