
     RDKit          3D

 34 36  0  0  1  0  0  0  0  0999 V2000
   36.9660   27.7840   43.0880 C   0  0  2  0  0  0  0  0  0  0  0  0
   38.4700   30.8130   41.7100 N   0  0  0  0  0  0  0  0  0  0  0  0
   39.5000   30.2470   42.3570 C   0  0  0  0  0  0  0  0  0  0  0  0
   39.1160   29.0990   42.9330 N   0  0  0  0  0  0  0  0  0  0  0  0
   37.7980   28.9350   42.6400 C   0  0  0  0  0  0  0  0  0  0  0  0
   37.4460   29.9980   41.8950 N   0  0  0  0  0  0  0  0  0  0  0  0
   37.1900   32.1290   39.9940 C   0  0  0  0  0  0  0  0  0  0  0  0
   38.2330   31.9940   40.9390 C   0  0  0  0  0  0  0  0  0  0  0  0
   39.0970   33.1070   41.1430 C   0  0  0  0  0  0  0  0  0  0  0  0
   38.8460   34.2160   40.4100 N   0  0  0  0  0  0  0  0  0  0  0  0
   37.8470   34.2910   39.5330 C   0  0  0  0  0  0  0  0  0  0  0  0
   37.0190   33.2610   39.3180 N   0  0  0  0  0  0  0  0  0  0  0  0
   36.7470   27.9980   44.5890 C   0  0  0  0  0  0  0  0  0  0  0  0
   37.6320   26.4640   42.8580 C   0  0  0  0  0  0  0  0  0  0  0  0
   37.1100   25.7410   41.6870 C   0  0  0  0  0  0  0  0  0  0  0  0
   36.8040   24.3970   41.7220 C   0  0  0  0  0  0  0  0  0  0  0  0
   36.3200   23.8570   40.5380 C   0  0  0  0  0  0  0  0  0  0  0  0
   36.1750   24.6530   39.4290 C   0  0  0  0  0  0  0  0  0  0  0  0
   36.4850   25.9970   39.4100 C   0  0  0  0  0  0  0  0  0  0  0  0
   36.9560   26.5040   40.5800 N   0  0  0  0  0  0  0  0  0  0  0  0
   36.0274   27.7509   42.5153 H   0  0  0  0  0  0  0  0  0  0  0  0
   40.5159   30.6657   42.4077 H   0  0  0  0  0  0  0  0  0  0  0  0
   36.5090   31.2838   39.8152 H   0  0  0  0  0  0  0  0  0  0  0  0
   39.9286   33.0671   41.8620 H   0  0  0  0  0  0  0  0  0  0  0  0
   37.6979   35.2242   38.9700 H   0  0  0  0  0  0  0  0  0  0  0  0
   37.4214   27.3390   45.1556 H   0  0  0  0  0  0  0  0  0  0  0  0
   36.9589   29.0467   44.8446 H   0  0  0  0  0  0  0  0  0  0  0  0
   35.7035   27.7619   44.8446 H   0  0  0  0  0  0  0  0  0  0  0  0
   38.7079   26.6378   42.7091 H   0  0  0  0  0  0  0  0  0  0  0  0
   37.4293   25.8403   43.7411 H   0  0  0  0  0  0  0  0  0  0  0  0
   36.9351   23.7909   42.6306 H   0  0  0  0  0  0  0  0  0  0  0  0
   36.0527   22.7911   40.4886 H   0  0  0  0  0  0  0  0  0  0  0  0
   35.7909   24.1944   38.5059 H   0  0  0  0  0  0  0  0  0  0  0  0
   36.3596   26.6162   38.5095 H   0  0  0  0  0  0  0  0  0  0  0  0
  1 13  1  0
  2  6  1  0
  2  3  1  0
  3  4  2  0
  5  4  1  0
  5  1  1  0
  6  5  2  0
  7  8  2  0
  8  9  1  0
  8  2  1  0
 10  9  2  0
 11 10  1  0
 12 11  2  0
 12  7  1  0
 14  1  1  0
 15 16  2  0
 15 14  1  0
 17 16  1  0
 18 17  2  0
 19 18  1  0
 19 20  2  0
 20 15  1  0
  1 21  1  6
  3 22  1  0
  7 23  1  0
  9 24  1  0
 11 25  1  0
 13 26  1  0
 13 27  1  0
 13 28  1  0
 14 29  1  0
 14 30  1  0
 16 31  1  0
 17 32  1  0
 18 33  1  0
 19 34  1  0
M  ISO  8  21   8  22  14  23  14  24  14  25  14  26   8  27   8  28   8
M  ISO  6  29   8  30   8  31  14  32  14  33  14  34  14
M  END
>  <minimizedAffinity>  (1) 
-5.45471811

>  <minimizedRMSD>  (1) 
0.903589904

$$$$
