
     RDKit          3D

 50 53  0  0  1  0  0  0  0  0999 V2000
   36.8900   27.7580   43.2090 C   0  0  2  0  0  0  0  0  0  0  0  0
   38.4670   30.7190   41.7820 N   0  0  0  0  0  0  0  0  0  0  0  0
   39.4770   30.1280   42.4190 C   0  0  0  0  0  0  0  0  0  0  0  0
   39.0690   29.0010   43.0110 N   0  0  0  0  0  0  0  0  0  0  0  0
   37.7350   28.8740   42.7340 C   0  0  0  0  0  0  0  0  0  0  0  0
   37.4150   29.9360   41.9870 N   0  0  0  0  0  0  0  0  0  0  0  0
   37.1910   32.0660   40.0820 C   0  0  0  0  0  0  0  0  0  0  0  0
   38.2480   31.8990   40.9920 C   0  0  0  0  0  0  0  0  0  0  0  0
   39.1900   32.9670   41.1660 C   0  0  0  0  0  0  0  0  0  0  0  0
   38.9750   34.0730   40.4210 N   0  0  0  0  0  0  0  0  0  0  0  0
   37.9500   34.1840   39.5660 C   0  0  0  0  0  0  0  0  0  0  0  0
   37.0720   33.1940   39.4010 N   0  0  0  0  0  0  0  0  0  0  0  0
   36.7120   27.9870   44.7260 C   0  0  0  0  0  0  0  0  0  0  0  0
   37.4830   26.4140   42.9910 C   0  0  0  0  0  0  0  0  0  0  0  0
   37.0400   25.7660   41.7530 C   0  0  0  0  0  0  0  0  0  0  0  0
   36.7690   24.4180   41.6780 C   0  0  0  0  0  0  0  0  0  0  0  0
   36.3590   23.9550   40.4370 C   0  0  0  0  0  0  0  0  0  0  0  0
   36.2450   24.8220   39.3850 C   0  0  0  0  0  0  0  0  0  0  0  0
   36.5210   26.1710   39.4760 C   0  0  0  0  0  0  0  0  0  0  0  0
   36.9200   26.6050   40.6930 N   0  0  0  0  0  0  0  0  0  0  0  0
   36.3890   27.0770   38.3200 C   0  0  0  0  0  0  0  0  0  0  0  0
   36.3340   28.5310   38.7280 C   0  0  0  0  0  0  0  0  0  0  0  0
   35.8650   29.3990   37.5890 C   0  0  0  0  0  0  0  0  0  0  0  0
   34.5220   29.0010   37.0660 C   0  0  0  0  0  0  0  0  0  0  0  0
   34.0840   27.6420   37.5120 C   0  0  0  0  0  0  0  0  0  0  0  0
   35.2290   26.6550   37.4840 C   0  0  0  0  0  0  0  0  0  0  0  0
   35.9471   27.7599   42.6425 H   0  0  0  0  0  0  0  0  0  0  0  0
   40.5062   30.5147   42.4531 H   0  0  0  0  0  0  0  0  0  0  0  0
   36.4604   31.2569   39.9353 H   0  0  0  0  0  0  0  0  0  0  0  0
   40.0365   32.8898   41.8642 H   0  0  0  0  0  0  0  0  0  0  0  0
   37.8299   35.1118   38.9874 H   0  0  0  0  0  0  0  0  0  0  0  0
   37.2949   27.2371   45.2809 H   0  0  0  0  0  0  0  0  0  0  0  0
   37.0663   28.9947   44.9888 H   0  0  0  0  0  0  0  0  0  0  0  0
   35.6481   27.8923   44.9888 H   0  0  0  0  0  0  0  0  0  0  0  0
   38.5773   26.5194   42.9550 H   0  0  0  0  0  0  0  0  0  0  0  0
   37.1487   25.7773   43.8234 H   0  0  0  0  0  0  0  0  0  0  0  0
   36.8712   23.7512   42.5469 H   0  0  0  0  0  0  0  0  0  0  0  0
   36.1251   22.8892   40.2982 H   0  0  0  0  0  0  0  0  0  0  0  0
   35.9157   24.4224   38.4145 H   0  0  0  0  0  0  0  0  0  0  0  0
   37.2961   26.9960   37.7030 H   0  0  0  0  0  0  0  0  0  0  0  0
   35.6381   28.6406   39.5728 H   0  0  0  0  0  0  0  0  0  0  0  0
   37.3464   28.8507   39.0157 H   0  0  0  0  0  0  0  0  0  0  0  0
   35.8098   30.4397   37.9410 H   0  0  0  0  0  0  0  0  0  0  0  0
   36.5864   29.2814   36.7669 H   0  0  0  0  0  0  0  0  0  0  0  0
   34.5601   29.0107   35.9667 H   0  0  0  0  0  0  0  0  0  0  0  0
   33.7937   29.7219   37.4659 H   0  0  0  0  0  0  0  0  0  0  0  0
   33.6959   27.7105   38.5390 H   0  0  0  0  0  0  0  0  0  0  0  0
   33.3044   27.2865   36.8222 H   0  0  0  0  0  0  0  0  0  0  0  0
   34.8644   25.6860   37.8557 H   0  0  0  0  0  0  0  0  0  0  0  0
   35.5813   26.5927   36.4438 H   0  0  0  0  0  0  0  0  0  0  0  0
  1 13  1  0
  2  6  1  0
  2  3  1  0
  3  4  2  0
  5  4  1  0
  5  1  1  0
  6  5  2  0
  7  8  2  0
  8  9  1  0
  8  2  1  0
 10  9  2  0
 11 10  1  0
 12 11  2  0
 12  7  1  0
 14  1  1  0
 15 14  1  0
 16 15  2  0
 17 16  1  0
 18 19  1  0
 18 17  2  0
 19 20  2  0
 20 15  1  0
 21 22  1  0
 21 19  1  0
 23 22  1  0
 24 25  1  0
 24 23  1  0
 26 25  1  0
 26 21  1  0
  1 27  1  6
  3 28  1  0
  7 29  1  0
  9 30  1  0
 11 31  1  0
 13 32  1  0
 13 33  1  0
 13 34  1  0
 14 35  1  0
 14 36  1  0
 16 37  1  0
 17 38  1  0
 18 39  1  0
 21 40  1  0
 22 41  1  0
 22 42  1  0
 23 43  1  0
 23 44  1  0
 24 45  1  0
 24 46  1  0
 25 47  1  0
 25 48  1  0
 26 49  1  0
 26 50  1  0
M  ISO  8  27   8  28  14  29  14  30  14  31  14  32   8  33   8  34   8
M  ISO  8  35   8  36   8  37  14  38  14  39  14  40  13  41  13  42  13
M  ISO  8  43  13  44  13  45  13  46  13  47  13  48  13  49  13  50  13
M  END
>  <minimizedAffinity>  (1) 
-6.38452768

>  <minimizedRMSD>  (1) 
0.927769005

$$$$
