
     RDKit          3D

 41 44  0  0  1  0  0  0  0  0999 V2000
   36.9530   27.7850   43.1260 C   0  0  2  0  0  0  0  0  0  0  0  0
   38.4580   30.8130   41.7570 N   0  0  0  0  0  0  0  0  0  0  0  0
   39.4690   30.2660   42.4340 C   0  0  0  0  0  0  0  0  0  0  0  0
   39.0860   29.1230   43.0120 N   0  0  0  0  0  0  0  0  0  0  0  0
   37.7680   28.9400   42.6820 C   0  0  0  0  0  0  0  0  0  0  0  0
   37.4290   29.9920   41.9170 N   0  0  0  0  0  0  0  0  0  0  0  0
   37.1710   32.1040   40.0160 C   0  0  0  0  0  0  0  0  0  0  0  0
   38.2090   31.9780   40.9550 C   0  0  0  0  0  0  0  0  0  0  0  0
   39.0970   33.0860   41.1480 C   0  0  0  0  0  0  0  0  0  0  0  0
   38.8690   34.1840   40.4030 N   0  0  0  0  0  0  0  0  0  0  0  0
   37.8630   34.2520   39.5180 C   0  0  0  0  0  0  0  0  0  0  0  0
   37.0320   33.2290   39.3320 N   0  0  0  0  0  0  0  0  0  0  0  0
   36.7420   27.9930   44.6390 C   0  0  0  0  0  0  0  0  0  0  0  0
   37.5970   26.4670   42.8990 C   0  0  0  0  0  0  0  0  0  0  0  0
   37.0940   25.7690   41.7050 C   0  0  0  0  0  0  0  0  0  0  0  0
   36.8710   24.4050   41.6930 C   0  0  0  0  0  0  0  0  0  0  0  0
   36.3970   23.8950   40.4970 C   0  0  0  0  0  0  0  0  0  0  0  0
   36.1780   24.7320   39.4180 C   0  0  0  0  0  0  0  0  0  0  0  0
   36.4110   26.0880   39.4640 C   0  0  0  0  0  0  0  0  0  0  0  0
   36.8740   26.5680   40.6380 N   0  0  0  0  0  0  0  0  0  0  0  0
   36.1800   26.9360   38.3440 N   0  0  0  0  0  0  0  0  0  0  0  0
   36.5160   26.6240   37.1030 N   0  0  0  0  0  0  0  0  0  0  0  0
   36.1730   27.6190   36.2640 C   0  0  0  0  0  0  0  0  0  0  0  0
   35.5990   28.5670   37.0920 C   0  0  0  0  0  0  0  0  0  0  0  0
   35.6030   28.1360   38.4040 C   0  0  0  0  0  0  0  0  0  0  0  0
   36.0202   27.7558   42.5437 H   0  0  0  0  0  0  0  0  0  0  0  0
   40.4788   30.6962   42.5066 H   0  0  0  0  0  0  0  0  0  0  0  0
   36.4748   31.2688   39.8495 H   0  0  0  0  0  0  0  0  0  0  0  0
   39.9254   33.0415   41.8704 H   0  0  0  0  0  0  0  0  0  0  0  0
   37.7219   35.1731   38.9335 H   0  0  0  0  0  0  0  0  0  0  0  0
   37.4166   27.3280   45.1981 H   0  0  0  0  0  0  0  0  0  0  0  0
   36.9599   29.0393   44.8992 H   0  0  0  0  0  0  0  0  0  0  0  0
   35.6989   27.7601   44.8992 H   0  0  0  0  0  0  0  0  0  0  0  0
   38.6795   26.6234   42.7814 H   0  0  0  0  0  0  0  0  0  0  0  0
   37.3603   25.8357   43.7682 H   0  0  0  0  0  0  0  0  0  0  0  0
   37.0571   23.7699   42.5717 H   0  0  0  0  0  0  0  0  0  0  0  0
   36.1933   22.8180   40.4040 H   0  0  0  0  0  0  0  0  0  0  0  0
   35.8010   24.2949   38.4816 H   0  0  0  0  0  0  0  0  0  0  0  0
   36.3158   27.6671   35.1744 H   0  0  0  0  0  0  0  0  0  0  0  0
   35.1948   29.5319   36.7519 H   0  0  0  0  0  0  0  0  0  0  0  0
   35.2195   28.6606   39.2915 H   0  0  0  0  0  0  0  0  0  0  0  0
  1 13  1  0
  2  6  1  0
  2  3  1  0
  3  4  2  0
  5  4  1  0
  5  1  1  0
  6  5  2  0
  7  8  2  0
  8  9  1  0
  8  2  1  0
 10  9  2  0
 11 10  1  0
 12 11  2  0
 12  7  1  0
 14  1  1  0
 15 14  1  0
 16 15  2  0
 17 16  1  0
 18 19  1  0
 18 17  2  0
 19 20  2  0
 20 15  1  0
 21 25  1  0
 21 19  1  0
 22 21  1  0
 23 24  1  0
 23 22  2  0
 24 25  2  0
  1 26  1  6
  3 27  1  0
  7 28  1  0
  9 29  1  0
 11 30  1  0
 13 31  1  0
 13 32  1  0
 13 33  1  0
 14 34  1  0
 14 35  1  0
 16 36  1  0
 17 37  1  0
 18 38  1  0
 23 39  1  0
 24 40  1  0
 25 41  1  0
M  ISO  8  26   8  27  14  28  14  29  14  30  14  31   8  32   8  33   8
M  ISO  8  34   8  35   8  36  14  37  14  38  14  39  14  40  14  41  14
M  END
>  <minimizedAffinity>  (1) 
-6.07600403

>  <minimizedRMSD>  (1) 
0.1621584

$$$$
