
     RDKit          3D

 41 43  0  0  1  0  0  0  0  0999 V2000
   36.9580   27.7880   43.1290 C   0  0  2  0  0  0  0  0  0  0  0  0
   38.4590   30.7980   41.7120 N   0  0  0  0  0  0  0  0  0  0  0  0
   39.4840   30.2290   42.3470 C   0  0  0  0  0  0  0  0  0  0  0  0
   39.1080   29.0840   42.9400 N   0  0  0  0  0  0  0  0  0  0  0  0
   37.7770   28.9300   42.6590 C   0  0  0  0  0  0  0  0  0  0  0  0
   37.4260   29.9890   41.9130 N   0  0  0  0  0  0  0  0  0  0  0  0
   37.1710   32.1120   39.9980 C   0  0  0  0  0  0  0  0  0  0  0  0
   38.2100   31.9680   40.9310 C   0  0  0  0  0  0  0  0  0  0  0  0
   39.1000   33.0770   41.1270 C   0  0  0  0  0  0  0  0  0  0  0  0
   38.8500   34.1830   40.3780 N   0  0  0  0  0  0  0  0  0  0  0  0
   37.8510   34.2540   39.5160 C   0  0  0  0  0  0  0  0  0  0  0  0
   37.0160   33.2400   39.3180 N   0  0  0  0  0  0  0  0  0  0  0  0
   36.7630   28.0170   44.6370 C   0  0  0  0  0  0  0  0  0  0  0  0
   37.5860   26.4600   42.9130 C   0  0  0  0  0  0  0  0  0  0  0  0
   37.0880   25.7540   41.7180 C   0  0  0  0  0  0  0  0  0  0  0  0
   36.8680   24.4020   41.7150 C   0  0  0  0  0  0  0  0  0  0  0  0
   36.4000   23.8810   40.5170 C   0  0  0  0  0  0  0  0  0  0  0  0
   36.1880   24.7090   39.4340 C   0  0  0  0  0  0  0  0  0  0  0  0
   36.4150   26.0570   39.4590 C   0  0  0  0  0  0  0  0  0  0  0  0
   36.8750   26.5430   40.6500 N   0  0  0  0  0  0  0  0  0  0  0  0
   36.2070   26.9820   38.4030 N   0  0  0  0  0  0  0  0  0  0  0  0
   35.3740   28.0960   38.5560 C   0  0  0  0  0  0  0  0  0  0  0  0
   35.5330   28.8750   39.5610 N   0  0  0  0  0  0  0  0  0  0  0  0
   34.3470   28.3810   37.5840 N   0  0  0  0  0  0  0  0  0  0  0  0
   36.2400   28.7710   40.3060 H   0  0  0  0  0  0  0  0  0  0  0  0
   36.0193   27.7601   42.5562 H   0  0  0  0  0  0  0  0  0  0  0  0
   40.5027   30.6425   42.3808 H   0  0  0  0  0  0  0  0  0  0  0  0
   36.4753   31.2770   39.8285 H   0  0  0  0  0  0  0  0  0  0  0  0
   39.9353   33.0341   41.8415 H   0  0  0  0  0  0  0  0  0  0  0  0
   37.7062   35.1824   38.9441 H   0  0  0  0  0  0  0  0  0  0  0  0
   37.3759   27.2973   45.1994 H   0  0  0  0  0  0  0  0  0  0  0  0
   37.0706   29.0411   44.8952 H   0  0  0  0  0  0  0  0  0  0  0  0
   35.7030   27.8765   44.8952 H   0  0  0  0  0  0  0  0  0  0  0  0
   38.6712   26.6030   42.8043 H   0  0  0  0  0  0  0  0  0  0  0  0
   37.3286   25.8383   43.7832 H   0  0  0  0  0  0  0  0  0  0  0  0
   37.0494   23.7738   42.5995 H   0  0  0  0  0  0  0  0  0  0  0  0
   36.1972   22.8033   40.4305 H   0  0  0  0  0  0  0  0  0  0  0  0
   35.8165   24.2607   38.5007 H   0  0  0  0  0  0  0  0  0  0  0  0
   36.6810   26.8296   37.5014 H   0  0  0  0  0  0  0  0  0  0  0  0
   33.7381   29.2030   37.7041 H   0  0  0  0  0  0  0  0  0  0  0  0
   34.2226   27.7625   36.7699 H   0  0  0  0  0  0  0  0  0  0  0  0
  1 13  1  0
  2  6  1  0
  2  3  1  0
  3  4  2  0
  5  4  1  0
  5  1  1  0
  6  5  2  0
  7  8  2  0
  8  9  1  0
  8  2  1  0
 10  9  2  0
 11 10  1  0
 12 11  2  0
 12  7  1  0
 14  1  1  0
 15 14  1  0
 16 15  2  0
 17 16  1  0
 18 19  1  0
 18 17  2  0
 19 20  2  0
 20 15  1  0
 21 22  1  0
 21 19  1  0
 22 23  2  0
 23 25  1  0
 24 22  1  0
  1 26  1  6
  3 27  1  0
  7 28  1  0
  9 29  1  0
 11 30  1  0
 13 31  1  0
 13 32  1  0
 13 33  1  0
 14 34  1  0
 14 35  1  0
 16 36  1  0
 17 37  1  0
 18 38  1  0
 21 39  1  0
 24 40  1  0
 24 41  1  0
M  ISO  8  26   8  27  14  28  14  29  14  30  14  31   8  32   8  33   8
M  ISO  5  34   8  35   8  36  14  37  14  38  14
M  END
>  <minimizedAffinity>  (1) 
-6.04165411

>  <minimizedRMSD>  (1) 
0.110815026

$$$$
