
     RDKit          3D

 41 44  0  0  1  0  0  0  0  0999 V2000
   36.9530   27.7900   43.1470 C   0  0  2  0  0  0  0  0  0  0  0  0
   38.4540   30.8080   41.7560 N   0  0  0  0  0  0  0  0  0  0  0  0
   39.4670   30.2620   42.4320 C   0  0  0  0  0  0  0  0  0  0  0  0
   39.0860   29.1220   43.0160 N   0  0  0  0  0  0  0  0  0  0  0  0
   37.7670   28.9380   42.6940 C   0  0  0  0  0  0  0  0  0  0  0  0
   37.4280   29.9830   41.9290 N   0  0  0  0  0  0  0  0  0  0  0  0
   37.1680   32.0920   40.0120 C   0  0  0  0  0  0  0  0  0  0  0  0
   38.2060   31.9720   40.9510 C   0  0  0  0  0  0  0  0  0  0  0  0
   39.0980   33.0770   41.1440 C   0  0  0  0  0  0  0  0  0  0  0  0
   38.8560   34.1770   40.3820 N   0  0  0  0  0  0  0  0  0  0  0  0
   37.8560   34.2390   39.5030 C   0  0  0  0  0  0  0  0  0  0  0  0
   37.0280   33.2150   39.3230 N   0  0  0  0  0  0  0  0  0  0  0  0
   36.7440   28.0010   44.6600 C   0  0  0  0  0  0  0  0  0  0  0  0
   37.5950   26.4700   42.9250 C   0  0  0  0  0  0  0  0  0  0  0  0
   37.1060   25.7680   41.7310 C   0  0  0  0  0  0  0  0  0  0  0  0
   36.9210   24.4010   41.7080 C   0  0  0  0  0  0  0  0  0  0  0  0
   36.4530   23.8850   40.5060 C   0  0  0  0  0  0  0  0  0  0  0  0
   36.2100   24.7160   39.4500 C   0  0  0  0  0  0  0  0  0  0  0  0
   36.4020   26.0830   39.4920 C   0  0  0  0  0  0  0  0  0  0  0  0
   36.8590   26.5710   40.6730 N   0  0  0  0  0  0  0  0  0  0  0  0
   36.1320   26.8970   38.3590 N   0  0  0  0  0  0  0  0  0  0  0  0
   36.6240   28.1500   38.2650 C   0  0  0  0  0  0  0  0  0  0  0  0
   36.2310   28.7420   37.0840 C   0  0  0  0  0  0  0  0  0  0  0  0
   35.4800   27.8040   36.4620 N   0  0  0  0  0  0  0  0  0  0  0  0
   35.4280   26.7020   37.2340 C   0  0  0  0  0  0  0  0  0  0  0  0
   36.0183   27.7633   42.5676 H   0  0  0  0  0  0  0  0  0  0  0  0
   40.4774   30.6916   42.4992 H   0  0  0  0  0  0  0  0  0  0  0  0
   36.4728   31.2552   39.8491 H   0  0  0  0  0  0  0  0  0  0  0  0
   39.9280   33.0377   41.8648 H   0  0  0  0  0  0  0  0  0  0  0  0
   37.7129   35.1570   38.9141 H   0  0  0  0  0  0  0  0  0  0  0  0
   37.4105   27.3282   45.2196 H   0  0  0  0  0  0  0  0  0  0  0  0
   36.9743   29.0447   44.9199 H   0  0  0  0  0  0  0  0  0  0  0  0
   35.6981   27.7806   44.9199 H   0  0  0  0  0  0  0  0  0  0  0  0
   38.6787   26.6248   42.8172 H   0  0  0  0  0  0  0  0  0  0  0  0
   37.3446   25.8413   43.7922 H   0  0  0  0  0  0  0  0  0  0  0  0
   37.1295   23.7642   42.5804 H   0  0  0  0  0  0  0  0  0  0  0  0
   36.2777   22.8038   40.4046 H   0  0  0  0  0  0  0  0  0  0  0  0
   35.8408   24.2719   38.5138 H   0  0  0  0  0  0  0  0  0  0  0  0
   37.2531   28.6331   39.0271 H   0  0  0  0  0  0  0  0  0  0  0  0
   36.4741   29.7534   36.7262 H   0  0  0  0  0  0  0  0  0  0  0  0
   34.8879   25.7781   36.9796 H   0  0  0  0  0  0  0  0  0  0  0  0
  1 13  1  0
  2  6  1  0
  2  3  1  0
  3  4  2  0
  5  4  1  0
  5  1  1  0
  6  5  2  0
  7  8  2  0
  8  9  1  0
  8  2  1  0
 10  9  2  0
 11 10  1  0
 12 11  2  0
 12  7  1  0
 14  1  1  0
 15 14  1  0
 16 15  2  0
 17 16  1  0
 18 19  1  0
 18 17  2  0
 19 20  2  0
 20 15  1  0
 21 19  1  0
 22 21  1  0
 23 22  2  0
 24 23  1  0
 24 25  2  0
 25 21  1  0
  1 26  1  6
  3 27  1  0
  7 28  1  0
  9 29  1  0
 11 30  1  0
 13 31  1  0
 13 32  1  0
 13 33  1  0
 14 34  1  0
 14 35  1  0
 16 36  1  0
 17 37  1  0
 18 38  1  0
 22 39  1  0
 23 40  1  0
 25 41  1  0
M  ISO  8  26   8  27  14  28  14  29  14  30  14  31   8  32   8  33   8
M  ISO  8  34   8  35   8  36  14  37  14  38  14  39  14  40  14  41  14
M  END
>  <minimizedAffinity>  (1) 
-6.03747892

>  <minimizedRMSD>  (1) 
0.175229609

$$$$
