
     RDKit          3D

 42 45  0  0  1  0  0  0  0  0999 V2000
   36.9110   27.7660   43.1930 C   0  0  2  0  0  0  0  0  0  0  0  0
   38.4710   30.7450   41.7810 N   0  0  0  0  0  0  0  0  0  0  0  0
   39.4850   30.1720   42.4380 C   0  0  0  0  0  0  0  0  0  0  0  0
   39.0830   29.0410   43.0260 N   0  0  0  0  0  0  0  0  0  0  0  0
   37.7530   28.8910   42.7300 C   0  0  0  0  0  0  0  0  0  0  0  0
   37.4220   29.9530   41.9680 N   0  0  0  0  0  0  0  0  0  0  0  0
   37.1840   32.0730   40.0750 C   0  0  0  0  0  0  0  0  0  0  0  0
   38.2430   31.9190   40.9850 C   0  0  0  0  0  0  0  0  0  0  0  0
   39.1720   32.9990   41.1490 C   0  0  0  0  0  0  0  0  0  0  0  0
   38.9430   34.1010   40.3930 N   0  0  0  0  0  0  0  0  0  0  0  0
   37.9300   34.2000   39.5490 C   0  0  0  0  0  0  0  0  0  0  0  0
   37.0580   33.1980   39.3890 N   0  0  0  0  0  0  0  0  0  0  0  0
   36.7410   27.9920   44.7100 C   0  0  0  0  0  0  0  0  0  0  0  0
   37.5140   26.4310   42.9630 C   0  0  0  0  0  0  0  0  0  0  0  0
   37.0590   25.7860   41.7200 C   0  0  0  0  0  0  0  0  0  0  0  0
   36.8770   24.4230   41.6190 C   0  0  0  0  0  0  0  0  0  0  0  0
   36.4430   23.9710   40.3800 C   0  0  0  0  0  0  0  0  0  0  0  0
   36.2260   24.8560   39.3660 C   0  0  0  0  0  0  0  0  0  0  0  0
   36.4120   26.2190   39.4820 C   0  0  0  0  0  0  0  0  0  0  0  0
   36.8360   26.6400   40.6970 N   0  0  0  0  0  0  0  0  0  0  0  0
   36.1910   27.2000   38.4250 C   0  0  0  0  0  0  0  0  0  0  0  0
   35.9350   28.5160   38.7170 C   0  0  0  0  0  0  0  0  0  0  0  0
   35.7220   29.4750   37.7470 C   0  0  0  0  0  0  0  0  0  0  0  0
   35.7700   29.0920   36.4380 N   0  0  0  0  0  0  0  0  0  0  0  0
   36.0250   27.7830   36.1690 C   0  0  0  0  0  0  0  0  0  0  0  0
   36.2320   26.8580   37.1290 N   0  0  0  0  0  0  0  0  0  0  0  0
   35.9657   27.7589   42.6306 H   0  0  0  0  0  0  0  0  0  0  0  0
   40.5073   30.5752   42.4876 H   0  0  0  0  0  0  0  0  0  0  0  0
   36.4590   31.2581   39.9324 H   0  0  0  0  0  0  0  0  0  0  0  0
   40.0201   32.9371   41.8468 H   0  0  0  0  0  0  0  0  0  0  0  0
   37.8017   35.1245   38.9669 H   0  0  0  0  0  0  0  0  0  0  0  0
   37.3135   27.2309   45.2605 H   0  0  0  0  0  0  0  0  0  0  0  0
   37.1119   28.9930   44.9754 H   0  0  0  0  0  0  0  0  0  0  0  0
   35.6764   27.9132   44.9754 H   0  0  0  0  0  0  0  0  0  0  0  0
   38.6069   26.5464   42.9152 H   0  0  0  0  0  0  0  0  0  0  0  0
   37.1980   25.7859   43.7961 H   0  0  0  0  0  0  0  0  0  0  0  0
   37.0628   23.7409   42.4617 H   0  0  0  0  0  0  0  0  0  0  0  0
   36.2739   22.8965   40.2162 H   0  0  0  0  0  0  0  0  0  0  0  0
   35.8825   24.4608   38.3986 H   0  0  0  0  0  0  0  0  0  0  0  0
   35.8977   28.8211   39.7732 H   0  0  0  0  0  0  0  0  0  0  0  0
   35.5189   30.5205   38.0220 H   0  0  0  0  0  0  0  0  0  0  0  0
   36.0643   27.4632   35.1173 H   0  0  0  0  0  0  0  0  0  0  0  0
  1 13  1  0
  2  6  1  0
  2  3  1  0
  3  4  2  0
  5  4  1  0
  5  1  1  0
  6  5  2  0
  7  8  2  0
  8  9  1  0
  8  2  1  0
 10  9  2  0
 11 10  1  0
 12 11  2  0
 12  7  1  0
 14  1  1  0
 15 14  1  0
 16 15  2  0
 17 16  1  0
 18 19  1  0
 18 17  2  0
 19 20  2  0
 20 15  1  0
 21 22  2  0
 21 19  1  0
 23 22  1  0
 24 23  2  0
 25 24  1  0
 25 26  2  0
 26 21  1  0
  1 27  1  6
  3 28  1  0
  7 29  1  0
  9 30  1  0
 11 31  1  0
 13 32  1  0
 13 33  1  0
 13 34  1  0
 14 35  1  0
 14 36  1  0
 16 37  1  0
 17 38  1  0
 18 39  1  0
 22 40  1  0
 23 41  1  0
 25 42  1  0
M  ISO  8  27   8  28  14  29  14  30  14  31  14  32   8  33   8  34   8
M  ISO  8  35   8  36   8  37  14  38  14  39  14  40  14  41  14  42  14
M  END
>  <minimizedAffinity>  (1) 
-6.03229141

>  <minimizedRMSD>  (1) 
0.326387733

$$$$
