
     RDKit          3D

 40 43  0  0  1  0  0  0  0  0999 V2000
   36.9390   27.7960   43.1980 C   0  0  2  0  0  0  0  0  0  0  0  0
   38.4730   30.7720   41.7530 N   0  0  0  0  0  0  0  0  0  0  0  0
   39.4950   30.1990   42.3900 C   0  0  0  0  0  0  0  0  0  0  0  0
   39.1040   29.0690   42.9880 N   0  0  0  0  0  0  0  0  0  0  0  0
   37.7690   28.9220   42.7150 C   0  0  0  0  0  0  0  0  0  0  0  0
   37.4300   29.9800   41.9610 N   0  0  0  0  0  0  0  0  0  0  0  0
   37.1800   32.0800   40.0320 C   0  0  0  0  0  0  0  0  0  0  0  0
   38.2270   31.9440   40.9600 C   0  0  0  0  0  0  0  0  0  0  0  0
   39.1240   33.0480   41.1450 C   0  0  0  0  0  0  0  0  0  0  0  0
   38.8820   34.1440   40.3970 N   0  0  0  0  0  0  0  0  0  0  0  0
   37.8810   34.2240   39.5340 C   0  0  0  0  0  0  0  0  0  0  0  0
   37.0410   33.2090   39.3530 N   0  0  0  0  0  0  0  0  0  0  0  0
   36.7830   28.0250   44.7140 C   0  0  0  0  0  0  0  0  0  0  0  0
   37.5410   26.4610   42.9620 C   0  0  0  0  0  0  0  0  0  0  0  0
   37.0770   25.8130   41.7310 C   0  0  0  0  0  0  0  0  0  0  0  0
   36.9150   24.4480   41.6240 C   0  0  0  0  0  0  0  0  0  0  0  0
   36.4700   23.9830   40.4050 C   0  0  0  0  0  0  0  0  0  0  0  0
   36.2160   24.8760   39.3840 C   0  0  0  0  0  0  0  0  0  0  0  0
   36.3800   26.2390   39.4970 C   0  0  0  0  0  0  0  0  0  0  0  0
   36.8210   26.6560   40.7170 N   0  0  0  0  0  0  0  0  0  0  0  0
   36.1120   27.1810   38.4160 C   0  0  0  0  0  0  0  0  0  0  0  0
   35.7800   26.7510   37.1270 C   0  0  0  0  0  0  0  0  0  0  0  0
   35.5530   28.3310   36.1890 S   0  0  0  0  0  0  0  0  0  0  0  0
   35.9620   29.3130   37.7630 C   0  0  0  0  0  0  0  0  0  0  0  0
   36.1470   28.4920   38.5130 N   0  0  0  0  0  0  0  0  0  0  0  0
   35.9857   27.7856   42.6492 H   0  0  0  0  0  0  0  0  0  0  0  0
   40.5186   30.6008   42.4193 H   0  0  0  0  0  0  0  0  0  0  0  0
   36.4768   31.2498   39.8698 H   0  0  0  0  0  0  0  0  0  0  0  0
   39.9617   33.0033   41.8565 H   0  0  0  0  0  0  0  0  0  0  0  0
   37.7414   35.1488   38.9550 H   0  0  0  0  0  0  0  0  0  0  0  0
   37.3203   27.2363   45.2612 H   0  0  0  0  0  0  0  0  0  0  0  0
   37.2010   29.0067   44.9815 H   0  0  0  0  0  0  0  0  0  0  0  0
   35.7164   27.9954   44.9815 H   0  0  0  0  0  0  0  0  0  0  0  0
   38.6331   26.5785   42.9019 H   0  0  0  0  0  0  0  0  0  0  0  0
   37.2328   25.8175   43.7992 H   0  0  0  0  0  0  0  0  0  0  0  0
   37.1285   23.7693   42.4629 H   0  0  0  0  0  0  0  0  0  0  0  0
   36.3181   22.9051   40.2468 H   0  0  0  0  0  0  0  0  0  0  0  0
   35.8615   24.4756   38.4228 H   0  0  0  0  0  0  0  0  0  0  0  0
   35.6781   25.7196   36.7584 H   0  0  0  0  0  0  0  0  0  0  0  0
   36.0068   30.4028   37.9058 H   0  0  0  0  0  0  0  0  0  0  0  0
  1 13  1  0
  2  6  1  0
  2  3  1  0
  3  4  2  0
  5  4  1  0
  5  1  1  0
  6  5  2  0
  7  8  2  0
  8  9  1  0
  8  2  1  0
 10  9  2  0
 11 10  1  0
 12 11  2  0
 12  7  1  0
 14  1  1  0
 15 14  1  0
 16 15  2  0
 17 16  1  0
 18 19  1  0
 18 17  2  0
 19 20  2  0
 20 15  1  0
 21 25  1  0
 21 19  1  0
 22 21  2  0
 23 22  1  0
 23 24  1  0
 24 25  2  0
  1 26  1  6
  3 27  1  0
  7 28  1  0
  9 29  1  0
 11 30  1  0
 13 31  1  0
 13 32  1  0
 13 33  1  0
 14 34  1  0
 14 35  1  0
 16 36  1  0
 17 37  1  0
 18 38  1  0
 22 39  1  0
 24 40  1  0
M  ISO  8  26   8  27  14  28  14  29  14  30  14  31   8  32   8  33   8
M  ISO  7  34   8  35   8  36  14  37  14  38  14  39  14  40  14
M  END
>  <minimizedAffinity>  (1) 
-5.80929041

>  <minimizedRMSD>  (1) 
0.332462281

$$$$
