
     RDKit          3D

 41 44  0  0  1  0  0  0  0  0999 V2000
   36.9680   27.7990   43.1000 C   0  0  2  0  0  0  0  0  0  0  0  0
   38.4650   30.8210   41.7160 N   0  0  0  0  0  0  0  0  0  0  0  0
   39.4870   30.2590   42.3620 C   0  0  0  0  0  0  0  0  0  0  0  0
   39.1070   29.1160   42.9410 N   0  0  0  0  0  0  0  0  0  0  0  0
   37.7800   28.9480   42.6440 C   0  0  0  0  0  0  0  0  0  0  0  0
   37.4350   30.0050   41.9010 N   0  0  0  0  0  0  0  0  0  0  0  0
   37.1750   32.1270   39.9940 C   0  0  0  0  0  0  0  0  0  0  0  0
   38.2110   31.9970   40.9320 C   0  0  0  0  0  0  0  0  0  0  0  0
   39.0920   33.1080   41.1420 C   0  0  0  0  0  0  0  0  0  0  0  0
   38.8510   34.2130   40.4060 N   0  0  0  0  0  0  0  0  0  0  0  0
   37.8580   34.2870   39.5310 C   0  0  0  0  0  0  0  0  0  0  0  0
   37.0220   33.2590   39.3190 N   0  0  0  0  0  0  0  0  0  0  0  0
   36.7530   28.0170   44.6110 C   0  0  0  0  0  0  0  0  0  0  0  0
   37.6150   26.4820   42.8840 C   0  0  0  0  0  0  0  0  0  0  0  0
   37.1060   25.7580   41.7120 C   0  0  0  0  0  0  0  0  0  0  0  0
   36.8460   24.4020   41.7340 C   0  0  0  0  0  0  0  0  0  0  0  0
   36.3710   23.8600   40.5600 C   0  0  0  0  0  0  0  0  0  0  0  0
   36.1830   24.6640   39.4570 C   0  0  0  0  0  0  0  0  0  0  0  0
   36.4460   26.0090   39.4540 C   0  0  0  0  0  0  0  0  0  0  0  0
   36.9130   26.5280   40.6140 N   0  0  0  0  0  0  0  0  0  0  0  0
   36.2500   26.8660   38.2930 C   0  0  0  0  0  0  0  0  0  0  0  0
   35.0730   27.0020   37.5940 C   0  0  0  0  0  0  0  0  0  0  0  0
   35.3440   27.8830   36.6150 N   0  0  0  0  0  0  0  0  0  0  0  0
   36.6510   28.2540   36.7360 C   0  0  0  0  0  0  0  0  0  0  0  0
   37.2240   27.6330   37.7710 N   0  0  0  0  0  0  0  0  0  0  0  0
   36.0344   27.7656   42.5192 H   0  0  0  0  0  0  0  0  0  0  0  0
   40.5028   30.6782   42.4116 H   0  0  0  0  0  0  0  0  0  0  0  0
   36.4871   31.2869   39.8178 H   0  0  0  0  0  0  0  0  0  0  0  0
   39.9202   33.0623   41.8645 H   0  0  0  0  0  0  0  0  0  0  0  0
   37.7152   35.2178   38.9624 H   0  0  0  0  0  0  0  0  0  0  0  0
   37.4156   27.3452   45.1763 H   0  0  0  0  0  0  0  0  0  0  0  0
   36.9845   29.0614   44.8674 H   0  0  0  0  0  0  0  0  0  0  0  0
   35.7055   27.8000   44.8674 H   0  0  0  0  0  0  0  0  0  0  0  0
   38.6948   26.6436   42.7501 H   0  0  0  0  0  0  0  0  0  0  0  0
   37.3885   25.8647   43.7658 H   0  0  0  0  0  0  0  0  0  0  0  0
   37.0084   23.7915   42.6345 H   0  0  0  0  0  0  0  0  0  0  0  0
   36.1419   22.7856   40.5032 H   0  0  0  0  0  0  0  0  0  0  0  0
   35.8030   24.2036   38.5331 H   0  0  0  0  0  0  0  0  0  0  0  0
   34.1157   26.4982   37.7932 H   0  0  0  0  0  0  0  0  0  0  0  0
   37.1630   28.9666   36.0726 H   0  0  0  0  0  0  0  0  0  0  0  0
   38.1969   27.7220   38.0972 H   0  0  0  0  0  0  0  0  0  0  0  0
  1 13  1  0
  2  6  1  0
  2  3  1  0
  3  4  2  0
  5  4  1  0
  5  1  1  0
  6  5  2  0
  7  8  2  0
  8  9  1  0
  8  2  1  0
 10  9  2  0
 11 10  1  0
 12 11  2  0
 12  7  1  0
 14  1  1  0
 15 16  2  0
 15 14  1  0
 17 16  1  0
 18 17  2  0
 19 18  1  0
 19 20  2  0
 20 15  1  0
 21 19  1  0
 22 21  2  0
 23 24  2  0
 23 22  1  0
 24 25  1  0
 25 21  1  0
  1 26  1  6
  3 27  1  0
  7 28  1  0
  9 29  1  0
 11 30  1  0
 13 31  1  0
 13 32  1  0
 13 33  1  0
 14 34  1  0
 14 35  1  0
 16 36  1  0
 17 37  1  0
 18 38  1  0
 22 39  1  0
 24 40  1  0
 25 41  1  0
M  ISO  8  26   8  27  14  28  14  29  14  30  14  31   8  32   8  33   8
M  ISO  8  34   8  35   8  36  14  37  14  38  14  39  14  40  14  41   9
M  END
>  <minimizedAffinity>  (1) 
-5.78797388

>  <minimizedRMSD>  (1) 
0.158271745

$$$$
