
     RDKit          3D

 46 49  0  0  1  0  0  0  0  0999 V2000
   39.0930   26.1200   42.2580 C   0  0  1  0  0  0  0  0  0  0  0  0
   38.8700   24.7950   41.5320 C   0  0  0  0  0  0  0  0  0  0  0  0
   37.5280   24.2970   42.0080 C   0  0  0  0  0  0  0  0  0  0  0  0
   36.8290   25.6060   42.3250 C   0  0  0  0  0  0  0  0  0  0  0  0
   37.9050   26.2810   43.1400 C   0  0  2  0  0  0  0  0  0  0  0  0
   41.9450   26.9440   44.6160 C   0  0  0  0  0  0  0  0  0  0  0  0
   40.6620   27.0210   44.0330 C   0  0  0  0  0  0  0  0  0  0  0  0
   40.3770   26.1510   42.9600 C   0  0  0  0  0  0  0  0  0  0  0  0
   41.3430   25.2920   42.5470 N   0  0  0  0  0  0  0  0  0  0  0  0
   42.5530   25.2430   43.1220 C   0  0  0  0  0  0  0  0  0  0  0  0
   42.8550   26.0660   44.1530 N   0  0  0  0  0  0  0  0  0  0  0  0
   37.4200   27.6580   43.3700 C   0  0  2  0  0  0  0  0  0  0  0  0
   36.7710   27.9260   44.6800 C   0  0  0  0  0  0  0  0  0  0  0  0
   36.3980   27.9350   42.2680 C   0  0  0  0  0  0  0  0  0  0  0  0
   37.0170   29.0820   41.5260 C   0  0  0  0  0  0  0  0  0  0  0  0
   37.8920   29.9980   41.9780 N   0  0  0  0  0  0  0  0  0  0  0  0
   38.3360   30.9540   41.1620 C   0  0  0  0  0  0  0  0  0  0  0  0
   37.9620   31.0760   39.8760 N   0  0  0  0  0  0  0  0  0  0  0  0
   37.0840   30.1810   39.3720 C   0  0  0  0  0  0  0  0  0  0  0  0
   36.7320   30.3470   38.0520 C   0  0  0  0  0  0  0  0  0  0  0  0
   35.8430   29.4590   37.5020 C   0  0  0  0  0  0  0  0  0  0  0  0
   35.3420   28.4440   38.2870 C   0  0  0  0  0  0  0  0  0  0  0  0
   35.7260   28.3170   39.6110 C   0  0  0  0  0  0  0  0  0  0  0  0
   36.6080   29.1800   40.1950 C   0  0  0  0  0  0  0  0  0  0  0  0
   39.1704   26.9733   41.5681 H   0  0  0  0  0  0  0  0  0  0  0  0
   39.6612   24.0762   41.7916 H   0  0  0  0  0  0  0  0  0  0  0  0
   38.8959   24.9184   40.4393 H   0  0  0  0  0  0  0  0  0  0  0  0
   37.0017   23.7385   41.2199 H   0  0  0  0  0  0  0  0  0  0  0  0
   37.5788   23.5940   42.8526 H   0  0  0  0  0  0  0  0  0  0  0  0
   36.5899   26.1733   41.4134 H   0  0  0  0  0  0  0  0  0  0  0  0
   35.8574   25.5041   42.8306 H   0  0  0  0  0  0  0  0  0  0  0  0
   38.1536   25.8959   44.1399 H   0  0  0  0  0  0  0  0  0  0  0  0
   42.2037   27.6064   45.4552 H   0  0  0  0  0  0  0  0  0  0  0  0
   39.9107   27.7345   44.4024 H   0  0  0  0  0  0  0  0  0  0  0  0
   43.3049   24.5296   42.7536 H   0  0  0  0  0  0  0  0  0  0  0  0
   38.3069   28.3086   43.3647 H   0  0  0  0  0  0  0  0  0  0  0  0
   37.4558   27.6432   45.4931 H   0  0  0  0  0  0  0  0  0  0  0  0
   36.5313   28.9967   44.7582 H   0  0  0  0  0  0  0  0  0  0  0  0
   35.8457   27.3364   44.7582 H   0  0  0  0  0  0  0  0  0  0  0  0
   36.2734   27.0599   41.6133 H   0  0  0  0  0  0  0  0  0  0  0  0
   35.3909   28.1555   42.6517 H   0  0  0  0  0  0  0  0  0  0  0  0
   39.0509   31.6868   41.5645 H   0  0  0  0  0  0  0  0  0  0  0  0
   37.1521   31.1694   37.4543 H   0  0  0  0  0  0  0  0  0  0  0  0
   35.5349   29.5559   36.4505 H   0  0  0  0  0  0  0  0  0  0  0  0
   34.6284   27.7259   37.8568 H   0  0  0  0  0  0  0  0  0  0  0  0
   35.3076   27.4954   40.2109 H   0  0  0  0  0  0  0  0  0  0  0  0
  1  8  1  0
  1  5  1  0
  2  3  1  0
  2  1  1  0
  3  4  1  0
  4  5  1  0
  5 12  1  0
  7  6  2  0
  8  7  1  0
  9  8  2  0
  9 10  1  0
 10 11  2  0
 11  6  1  0
 12 13  1  0
 14 12  1  0
 15 16  2  0
 15 14  1  0
 17 16  1  0
 18 17  2  0
 19 18  1  0
 19 24  2  0
 20 19  1  0
 21 20  2  0
 21 22  1  0
 22 23  2  0
 23 24  1  0
 24 15  1  0
  1 25  1  6
  2 26  1  0
  2 27  1  0
  3 28  1  0
  3 29  1  0
  4 30  1  0
  4 31  1  0
  5 32  1  1
  6 33  1  0
  7 34  1  0
 10 35  1  0
 12 36  1  6
 13 37  1  0
 13 38  1  0
 13 39  1  0
 14 40  1  0
 14 41  1  0
 17 42  1  0
 20 43  1  0
 21 44  1  0
 22 45  1  0
 23 46  1  0
M  ISO  8  25  13  26  13  27  13  28  13  29  13  30  13  31  13  32  13
M  ISO  8  33  14  34  14  35  14  36   8  37   8  38   8  39   8  40   8
M  ISO  6  41   8  42  14  43  14  44  14  45  14  46  14
M  END
>  <minimizedAffinity>  (1) 
-6.27597237

>  <minimizedRMSD>  (1) 
2.62956166

$$$$
