
     RDKit          3D

 43 45  0  0  1  0  0  0  0  0999 V2000
   36.9870   27.8010   43.1070 C   0  0  2  0  0  0  0  0  0  0  0  0
   38.4710   30.8190   41.6920 N   0  0  0  0  0  0  0  0  0  0  0  0
   39.5020   30.2530   42.3230 C   0  0  0  0  0  0  0  0  0  0  0  0
   39.1290   29.1100   42.9100 N   0  0  0  0  0  0  0  0  0  0  0  0
   37.7960   28.9460   42.6350 C   0  0  0  0  0  0  0  0  0  0  0  0
   37.4410   30.0060   41.8930 N   0  0  0  0  0  0  0  0  0  0  0  0
   37.1740   32.1160   39.9680 C   0  0  0  0  0  0  0  0  0  0  0  0
   38.2110   31.9960   40.9120 C   0  0  0  0  0  0  0  0  0  0  0  0
   39.0830   33.1130   41.1330 C   0  0  0  0  0  0  0  0  0  0  0  0
   38.8200   34.2170   40.3900 N   0  0  0  0  0  0  0  0  0  0  0  0
   37.8210   34.2810   39.5050 C   0  0  0  0  0  0  0  0  0  0  0  0
   37.0130   33.2460   39.3010 N   0  0  0  0  0  0  0  0  0  0  0  0
   36.7730   28.0410   44.6140 C   0  0  0  0  0  0  0  0  0  0  0  0
   37.6380   26.4820   42.9110 C   0  0  0  0  0  0  0  0  0  0  0  0
   37.1350   25.7450   41.7400 C   0  0  0  0  0  0  0  0  0  0  0  0
   36.9450   24.3800   41.7520 C   0  0  0  0  0  0  0  0  0  0  0  0
   36.4630   23.8320   40.5740 C   0  0  0  0  0  0  0  0  0  0  0  0
   36.2080   24.6410   39.4980 C   0  0  0  0  0  0  0  0  0  0  0  0
   36.4040   26.0030   39.5020 C   0  0  0  0  0  0  0  0  0  0  0  0
   36.8760   26.5210   40.6650 N   0  0  0  0  0  0  0  0  0  0  0  0
   36.1130   26.8360   38.3110 C   0  0  0  0  0  0  0  0  0  0  0  0
   35.7340   28.2560   38.6740 C   0  0  0  0  0  0  0  0  0  0  0  0
   35.0360   26.2030   37.4890 C   0  0  0  0  0  0  0  0  0  0  0  0
   36.0538   27.7559   42.5264 H   0  0  0  0  0  0  0  0  0  0  0  0
   40.5196   30.6695   42.3559 H   0  0  0  0  0  0  0  0  0  0  0  0
   36.4968   31.2687   39.7850 H   0  0  0  0  0  0  0  0  0  0  0  0
   39.9103   33.0769   41.8571 H   0  0  0  0  0  0  0  0  0  0  0  0
   37.6644   35.2083   38.9343 H   0  0  0  0  0  0  0  0  0  0  0  0
   37.3971   27.3411   45.1890 H   0  0  0  0  0  0  0  0  0  0  0  0
   37.0549   29.0744   44.8644 H   0  0  0  0  0  0  0  0  0  0  0  0
   35.7142   27.8789   44.8644 H   0  0  0  0  0  0  0  0  0  0  0  0
   38.7186   26.6431   42.7827 H   0  0  0  0  0  0  0  0  0  0  0  0
   37.4082   25.8737   43.7982 H   0  0  0  0  0  0  0  0  0  0  0  0
   37.1617   23.7659   42.6385 H   0  0  0  0  0  0  0  0  0  0  0  0
   36.2853   22.7488   40.5029 H   0  0  0  0  0  0  0  0  0  0  0  0
   35.8246   24.1750   38.5783 H   0  0  0  0  0  0  0  0  0  0  0  0
   37.0393   26.8926   37.7204 H   0  0  0  0  0  0  0  0  0  0  0  0
   35.7063   28.3597   39.7688 H   0  0  0  0  0  0  0  0  0  0  0  0
   36.4779   28.9517   38.2585 H   0  0  0  0  0  0  0  0  0  0  0  0
   34.7424   28.4885   38.2585 H   0  0  0  0  0  0  0  0  0  0  0  0
   34.2805   25.7589   38.1538 H   0  0  0  0  0  0  0  0  0  0  0  0
   34.5626   26.9665   36.8543 H   0  0  0  0  0  0  0  0  0  0  0  0
   35.4728   25.4179   36.8543 H   0  0  0  0  0  0  0  0  0  0  0  0
  1 13  1  0
  2  6  1  0
  2  3  1  0
  3  4  2  0
  5  4  1  0
  5  1  1  0
  6  5  2  0
  7  8  2  0
  8  9  1  0
  8  2  1  0
 10  9  2  0
 11 10  1  0
 12 11  2  0
 12  7  1  0
 14  1  1  0
 15 16  2  0
 15 14  1  0
 17 16  1  0
 18 19  1  0
 18 17  2  0
 19 20  2  0
 20 15  1  0
 21 22  1  0
 21 19  1  0
 23 21  1  0
  1 24  1  6
  3 25  1  0
  7 26  1  0
  9 27  1  0
 11 28  1  0
 13 29  1  0
 13 30  1  0
 13 31  1  0
 14 32  1  0
 14 33  1  0
 16 34  1  0
 17 35  1  0
 18 36  1  0
 21 37  1  0
 22 38  1  0
 22 39  1  0
 22 40  1  0
 23 41  1  0
 23 42  1  0
 23 43  1  0
M  ISO  8  24   8  25  14  26  14  27  14  28  14  29   8  30   8  31   8
M  ISO  8  32   8  33   8  34  14  35  14  36  14  37   8  38   8  39   8
M  ISO  4  40   8  41   8  42   8  43   8
M  END
>  <minimizedAffinity>  (1) 
-5.74640703

>  <minimizedRMSD>  (1) 
0.378184795

$$$$
