
     RDKit          3D

 40 42  0  0  1  0  0  0  0  0999 V2000
   36.9980   27.8010   43.1010 C   0  0  2  0  0  0  0  0  0  0  0  0
   38.4800   30.8170   41.6880 N   0  0  0  0  0  0  0  0  0  0  0  0
   39.5130   30.2480   42.3090 C   0  0  0  0  0  0  0  0  0  0  0  0
   39.1410   29.1060   42.8940 N   0  0  0  0  0  0  0  0  0  0  0  0
   37.8070   28.9480   42.6280 C   0  0  0  0  0  0  0  0  0  0  0  0
   37.4470   30.0120   41.8910 N   0  0  0  0  0  0  0  0  0  0  0  0
   37.1790   32.1190   39.9660 C   0  0  0  0  0  0  0  0  0  0  0  0
   38.2110   31.9960   40.9090 C   0  0  0  0  0  0  0  0  0  0  0  0
   39.0740   33.1200   41.1280 C   0  0  0  0  0  0  0  0  0  0  0  0
   38.8270   34.2250   40.4060 N   0  0  0  0  0  0  0  0  0  0  0  0
   37.8280   34.2900   39.5180 C   0  0  0  0  0  0  0  0  0  0  0  0
   37.0190   33.2580   39.3030 N   0  0  0  0  0  0  0  0  0  0  0  0
   36.7770   28.0430   44.6030 C   0  0  0  0  0  0  0  0  0  0  0  0
   37.6480   26.4800   42.9060 C   0  0  0  0  0  0  0  0  0  0  0  0
   37.1400   25.7440   41.7390 C   0  0  0  0  0  0  0  0  0  0  0  0
   36.9380   24.3830   41.7460 C   0  0  0  0  0  0  0  0  0  0  0  0
   36.4540   23.8300   40.5760 C   0  0  0  0  0  0  0  0  0  0  0  0
   36.2040   24.6350   39.5000 C   0  0  0  0  0  0  0  0  0  0  0  0
   36.4090   25.9980   39.5030 C   0  0  0  0  0  0  0  0  0  0  0  0
   36.8820   26.5190   40.6540 N   0  0  0  0  0  0  0  0  0  0  0  0
   36.1160   26.8160   38.2960 C   0  0  0  0  0  0  0  0  0  0  0  0
   35.6870   28.2230   38.6450 C   0  0  0  0  0  0  0  0  0  0  0  0
   36.0667   27.7541   42.5175 H   0  0  0  0  0  0  0  0  0  0  0  0
   40.5318   30.6618   42.3361 H   0  0  0  0  0  0  0  0  0  0  0  0
   36.5031   31.2722   39.7763 H   0  0  0  0  0  0  0  0  0  0  0  0
   39.8998   33.0790   41.8535 H   0  0  0  0  0  0  0  0  0  0  0  0
   37.6727   35.2205   38.9522 H   0  0  0  0  0  0  0  0  0  0  0  0
   37.4076   27.3525   45.1823 H   0  0  0  0  0  0  0  0  0  0  0  0
   37.0459   29.0805   44.8507 H   0  0  0  0  0  0  0  0  0  0  0  0
   35.7194   27.8692   44.8507 H   0  0  0  0  0  0  0  0  0  0  0  0
   38.7284   26.6394   42.7740 H   0  0  0  0  0  0  0  0  0  0  0  0
   37.4219   25.8733   43.7952 H   0  0  0  0  0  0  0  0  0  0  0  0
   37.1501   23.7692   42.6339 H   0  0  0  0  0  0  0  0  0  0  0  0
   36.2708   22.7473   40.5108 H   0  0  0  0  0  0  0  0  0  0  0  0
   35.8180   24.1695   38.5812 H   0  0  0  0  0  0  0  0  0  0  0  0
   35.3086   26.3310   37.7278 H   0  0  0  0  0  0  0  0  0  0  0  0
   37.0404   26.8839   37.7037 H   0  0  0  0  0  0  0  0  0  0  0  0
   35.6528   28.3352   39.7387 H   0  0  0  0  0  0  0  0  0  0  0  0
   36.4071   28.9407   38.2251 H   0  0  0  0  0  0  0  0  0  0  0  0
   34.6889   28.4168   38.2251 H   0  0  0  0  0  0  0  0  0  0  0  0
  1 13  1  0
  2  6  1  0
  2  3  1  0
  3  4  2  0
  5  4  1  0
  5  1  1  0
  6  5  2  0
  7  8  2  0
  8  9  1  0
  8  2  1  0
 10  9  2  0
 11 10  1  0
 12 11  2  0
 12  7  1  0
 14  1  1  0
 15 16  2  0
 15 14  1  0
 17 16  1  0
 18 19  1  0
 18 17  2  0
 19 20  2  0
 20 15  1  0
 21 22  1  0
 21 19  1  0
  1 23  1  6
  3 24  1  0
  7 25  1  0
  9 26  1  0
 11 27  1  0
 13 28  1  0
 13 29  1  0
 13 30  1  0
 14 31  1  0
 14 32  1  0
 16 33  1  0
 17 34  1  0
 18 35  1  0
 21 36  1  0
 21 37  1  0
 22 38  1  0
 22 39  1  0
 22 40  1  0
M  ISO  8  23   8  24  14  25  14  26  14  27  14  28   8  29   8  30   8
M  ISO  8  31   8  32   8  33  14  34  14  35  14  36   8  37   8  38   8
M  ISO  2  39   8  40   8
M  END
>  <minimizedAffinity>  (1) 
-5.58992958

>  <minimizedRMSD>  (1) 
0.135082021

$$$$
