
     RDKit          3D

 36 38  0  0  1  0  0  0  0  0999 V2000
   36.9830   27.7920   43.0840 C   0  0  2  0  0  0  0  0  0  0  0  0
   38.4560   30.8310   41.7110 N   0  0  0  0  0  0  0  0  0  0  0  0
   39.4870   30.2730   42.3670 C   0  0  0  0  0  0  0  0  0  0  0  0
   39.1130   29.1260   42.9410 N   0  0  0  0  0  0  0  0  0  0  0  0
   37.7890   28.9500   42.6350 C   0  0  0  0  0  0  0  0  0  0  0  0
   37.4350   30.0070   41.8890 N   0  0  0  0  0  0  0  0  0  0  0  0
   37.1720   32.1300   39.9860 C   0  0  0  0  0  0  0  0  0  0  0  0
   38.2060   32.0060   40.9290 C   0  0  0  0  0  0  0  0  0  0  0  0
   39.0810   33.1230   41.1340 C   0  0  0  0  0  0  0  0  0  0  0  0
   38.8400   34.2210   40.3980 N   0  0  0  0  0  0  0  0  0  0  0  0
   37.8340   34.2840   39.5100 C   0  0  0  0  0  0  0  0  0  0  0  0
   37.0170   33.2570   39.3100 N   0  0  0  0  0  0  0  0  0  0  0  0
   36.7470   28.0140   44.5890 C   0  0  0  0  0  0  0  0  0  0  0  0
   37.6470   26.4820   42.8710 C   0  0  0  0  0  0  0  0  0  0  0  0
   37.1260   25.7380   41.7180 C   0  0  0  0  0  0  0  0  0  0  0  0
   36.8500   24.3890   41.7580 C   0  0  0  0  0  0  0  0  0  0  0  0
   36.3590   23.8410   40.5740 C   0  0  0  0  0  0  0  0  0  0  0  0
   36.1820   24.6340   39.4790 C   0  0  0  0  0  0  0  0  0  0  0  0
   36.4590   25.9800   39.4460 C   0  0  0  0  0  0  0  0  0  0  0  0
   36.9370   26.4990   40.6050 N   0  0  0  0  0  0  0  0  0  0  0  0
   36.2720   26.7890   38.3050 N   0  0  0  0  0  0  0  0  0  0  0  0
   36.0545   27.7437   42.4962 H   0  0  0  0  0  0  0  0  0  0  0  0
   40.4987   30.7010   42.4237 H   0  0  0  0  0  0  0  0  0  0  0  0
   36.4883   31.2867   39.8088 H   0  0  0  0  0  0  0  0  0  0  0  0
   39.9084   33.0831   41.8577 H   0  0  0  0  0  0  0  0  0  0  0  0
   37.6835   35.2093   38.9345 H   0  0  0  0  0  0  0  0  0  0  0  0
   37.4293   27.3722   45.1657 H   0  0  0  0  0  0  0  0  0  0  0  0
   36.9369   29.0684   44.8383 H   0  0  0  0  0  0  0  0  0  0  0  0
   35.7062   27.7600   44.8383 H   0  0  0  0  0  0  0  0  0  0  0  0
   38.7213   26.6585   42.7140 H   0  0  0  0  0  0  0  0  0  0  0  0
   37.4486   25.8716   43.7643 H   0  0  0  0  0  0  0  0  0  0  0  0
   37.0066   23.7846   42.6637 H   0  0  0  0  0  0  0  0  0  0  0  0
   36.1145   22.7697   40.5231 H   0  0  0  0  0  0  0  0  0  0  0  0
   35.7923   24.1664   38.5628 H   0  0  0  0  0  0  0  0  0  0  0  0
   36.4984   27.7931   38.3429 H   0  0  0  0  0  0  0  0  0  0  0  0
   35.9092   26.3754   37.4343 H   0  0  0  0  0  0  0  0  0  0  0  0
  1 13  1  0
  2  6  1  0
  2  3  1  0
  3  4  2  0
  5  4  1  0
  5  1  1  0
  6  5  2  0
  7  8  2  0
  8  9  1  0
  8  2  1  0
 10  9  2  0
 11 10  1  0
 12 11  2  0
 12  7  1  0
 14  1  1  0
 15 16  2  0
 15 14  1  0
 17 16  1  0
 18 17  2  0
 19 18  1  0
 19 20  2  0
 20 15  1  0
 21 19  1  0
  1 22  1  6
  3 23  1  0
  7 24  1  0
  9 25  1  0
 11 26  1  0
 13 27  1  0
 13 28  1  0
 13 29  1  0
 14 30  1  0
 14 31  1  0
 16 32  1  0
 17 33  1  0
 18 34  1  0
 21 35  1  0
 21 36  1  0
M  ISO  8  22   8  23  14  24  14  25  14  26  14  27   8  28   8  29   8
M  ISO  5  30   8  31   8  32  14  33  14  34  14
M  END
>  <minimizedAffinity>  (1) 
-5.57506037

>  <minimizedRMSD>  (1) 
0.0330600813

$$$$
