
     RDKit          3D

 42 45  0  0  1  0  0  0  0  0999 V2000
   36.8820   27.7860   43.2290 C   0  0  2  0  0  0  0  0  0  0  0  0
   38.4700   30.7220   41.7730 N   0  0  0  0  0  0  0  0  0  0  0  0
   39.4770   30.1240   42.3930 C   0  0  0  0  0  0  0  0  0  0  0  0
   39.0720   29.0100   42.9910 N   0  0  0  0  0  0  0  0  0  0  0  0
   37.7200   28.8920   42.7360 C   0  0  0  0  0  0  0  0  0  0  0  0
   37.4030   29.9560   41.9930 N   0  0  0  0  0  0  0  0  0  0  0  0
   37.1870   32.0640   40.0660 C   0  0  0  0  0  0  0  0  0  0  0  0
   38.2330   31.9010   40.9780 C   0  0  0  0  0  0  0  0  0  0  0  0
   39.1690   32.9770   41.1670 C   0  0  0  0  0  0  0  0  0  0  0  0
   38.9670   34.0900   40.4360 N   0  0  0  0  0  0  0  0  0  0  0  0
   37.9480   34.1970   39.5720 C   0  0  0  0  0  0  0  0  0  0  0  0
   37.0830   33.2020   39.3990 N   0  0  0  0  0  0  0  0  0  0  0  0
   36.7640   28.0160   44.7610 C   0  0  0  0  0  0  0  0  0  0  0  0
   37.4330   26.4410   43.0010 C   0  0  0  0  0  0  0  0  0  0  0  0
   37.0230   25.8270   41.7440 C   0  0  0  0  0  0  0  0  0  0  0  0
   36.8060   24.4730   41.6160 C   0  0  0  0  0  0  0  0  0  0  0  0
   36.4190   24.0430   40.3580 C   0  0  0  0  0  0  0  0  0  0  0  0
   36.2760   24.9500   39.3350 C   0  0  0  0  0  0  0  0  0  0  0  0
   36.4970   26.3060   39.4760 C   0  0  0  0  0  0  0  0  0  0  0  0
   36.8740   26.7020   40.7190 N   0  0  0  0  0  0  0  0  0  0  0  0
   36.3480   27.2730   38.4070 C   0  0  0  0  0  0  0  0  0  0  0  0
   35.9970   28.5250   38.7490 N   0  0  0  0  0  0  0  0  0  0  0  0
   35.9050   29.2660   37.7070 O   0  0  0  0  0  0  0  0  0  0  0  0
   36.1950   28.5030   36.6670 C   0  0  0  0  0  0  0  0  0  0  0  0
   36.4770   27.2420   37.0830 N   0  0  0  0  0  0  0  0  0  0  0  0
   36.2010   28.9710   35.3000 C   0  0  0  0  0  0  0  0  0  0  0  0
   35.1940   29.5100   34.8020 O   0  0  0  0  0  0  0  0  0  0  0  0
   37.3590   28.8170   34.5160 O   0  0  0  0  0  0  0  0  0  0  0  0
   35.9273   27.8026   42.6829 H   0  0  0  0  0  0  0  0  0  0  0  0
   40.5105   30.5004   42.4099 H   0  0  0  0  0  0  0  0  0  0  0  0
   36.4586   31.2557   39.9044 H   0  0  0  0  0  0  0  0  0  0  0  0
   40.0081   32.8948   41.8735 H   0  0  0  0  0  0  0  0  0  0  0  0
   37.8249   35.1255   38.9951 H   0  0  0  0  0  0  0  0  0  0  0  0
   37.2030   27.1604   45.2951 H   0  0  0  0  0  0  0  0  0  0  0  0
   37.3019   28.9352   45.0363 H   0  0  0  0  0  0  0  0  0  0  0  0
   35.7036   28.1152   45.0363 H   0  0  0  0  0  0  0  0  0  0  0  0
   38.5306   26.5135   43.0065 H   0  0  0  0  0  0  0  0  0  0  0  0
   37.0413   25.8010   43.8053 H   0  0  0  0  0  0  0  0  0  0  0  0
   36.9320   23.7778   42.4591 H   0  0  0  0  0  0  0  0  0  0  0  0
   36.2259   22.9753   40.1772 H   0  0  0  0  0  0  0  0  0  0  0  0
   35.9681   24.5745   38.3480 H   0  0  0  0  0  0  0  0  0  0  0  0
   37.3683   29.1359   33.5788 H   0  0  0  0  0  0  0  0  0  0  0  0
  1 13  1  0
  2  6  1  0
  2  3  1  0
  3  4  2  0
  5  4  1  0
  5  1  1  0
  6  5  2  0
  7  8  2  0
  8  9  1  0
  8  2  1  0
 10  9  2  0
 11 10  1  0
 12 11  2  0
 12  7  1  0
 14  1  1  0
 15 14  1  0
 16 15  2  0
 17 16  1  0
 18 19  1  0
 18 17  2  0
 19 20  2  0
 20 15  1  0
 21 22  2  0
 21 19  1  0
 23 22  1  0
 24 25  2  0
 24 23  1  0
 25 21  1  0
 26 24  1  0
 27 26  2  0
 28 26  1  0
  1 29  1  6
  3 30  1  0
  7 31  1  0
  9 32  1  0
 11 33  1  0
 13 34  1  0
 13 35  1  0
 13 36  1  0
 14 37  1  0
 14 38  1  0
 16 39  1  0
 17 40  1  0
 18 41  1  0
 28 42  1  0
M  ISO  8  29   8  30  14  31  14  32  14  33  14  34   8  35   8  36   8
M  ISO  6  37   8  38   8  39  14  40  14  41  14  42   3
M  END
>  <minimizedAffinity>  (1) 
-6.38147449

>  <minimizedRMSD>  (1) 
0.65963906

$$$$
