
     RDKit          3D

 42 45  0  0  1  0  0  0  0  0999 V2000
   36.8200   27.7620   43.2180 C   0  0  2  0  0  0  0  0  0  0  0  0
   38.4740   30.6800   41.8160 N   0  0  0  0  0  0  0  0  0  0  0  0
   39.4700   30.0510   42.4240 C   0  0  0  0  0  0  0  0  0  0  0  0
   39.0350   28.9300   43.0050 N   0  0  0  0  0  0  0  0  0  0  0  0
   37.6870   28.8550   42.7450 C   0  0  0  0  0  0  0  0  0  0  0  0
   37.3950   29.9400   42.0210 N   0  0  0  0  0  0  0  0  0  0  0  0
   37.1800   32.1320   40.2140 C   0  0  0  0  0  0  0  0  0  0  0  0
   38.2730   31.8790   41.0440 C   0  0  0  0  0  0  0  0  0  0  0  0
   39.3000   32.8800   41.1570 C   0  0  0  0  0  0  0  0  0  0  0  0
   39.1380   34.0050   40.4480 N   0  0  0  0  0  0  0  0  0  0  0  0
   38.0650   34.1970   39.6650 C   0  0  0  0  0  0  0  0  0  0  0  0
   37.1160   33.2780   39.5570 N   0  0  0  0  0  0  0  0  0  0  0  0
   36.7210   27.9480   44.7570 C   0  0  0  0  0  0  0  0  0  0  0  0
   37.3190   26.4050   42.9420 C   0  0  0  0  0  0  0  0  0  0  0  0
   36.9830   25.9070   41.6080 C   0  0  0  0  0  0  0  0  0  0  0  0
   36.8320   24.5610   41.3420 C   0  0  0  0  0  0  0  0  0  0  0  0
   36.5140   24.2430   40.0370 C   0  0  0  0  0  0  0  0  0  0  0  0
   36.3700   25.2350   39.1070 C   0  0  0  0  0  0  0  0  0  0  0  0
   36.5240   26.5810   39.3850 C   0  0  0  0  0  0  0  0  0  0  0  0
   36.8360   26.8630   40.6750 N   0  0  0  0  0  0  0  0  0  0  0  0
   36.3750   27.6340   38.4100 C   0  0  0  0  0  0  0  0  0  0  0  0
   35.9320   28.8300   38.8430 N   0  0  0  0  0  0  0  0  0  0  0  0
   35.8470   29.6720   37.8750 O   0  0  0  0  0  0  0  0  0  0  0  0
   36.2380   29.0280   36.7880 C   0  0  0  0  0  0  0  0  0  0  0  0
   36.5760   27.7450   37.0940 N   0  0  0  0  0  0  0  0  0  0  0  0
   36.3330   29.5320   35.3920 C   0  0  0  0  0  0  0  0  0  0  0  0
   37.1590   28.7810   34.5970 F   0  0  0  0  0  0  0  0  0  0  0  0
   35.0600   29.5930   34.8250 F   0  0  0  0  0  0  0  0  0  0  0  0
   36.7840   30.8590   35.3760 F   0  0  0  0  0  0  0  0  0  0  0  0
   35.8613   27.8288   42.6829 H   0  0  0  0  0  0  0  0  0  0  0  0
   40.5116   30.4039   42.4468 H   0  0  0  0  0  0  0  0  0  0  0  0
   36.3793   31.3853   40.1072 H   0  0  0  0  0  0  0  0  0  0  0  0
   40.1808   32.7281   41.7982 H   0  0  0  0  0  0  0  0  0  0  0  0
   37.9712   35.1368   39.1010 H   0  0  0  0  0  0  0  0  0  0  0  0
   37.1804   27.0849   45.2610 H   0  0  0  0  0  0  0  0  0  0  0  0
   37.2491   28.8674   45.0499 H   0  0  0  0  0  0  0  0  0  0  0  0
   35.6634   28.0234   45.0499 H   0  0  0  0  0  0  0  0  0  0  0  0
   38.4144   26.4122   43.0427 H   0  0  0  0  0  0  0  0  0  0  0  0
   36.8314   25.7337   43.6643 H   0  0  0  0  0  0  0  0  0  0  0  0
   36.9569   23.7923   42.1189 H   0  0  0  0  0  0  0  0  0  0  0  0
   36.3764   23.1914   39.7451 H   0  0  0  0  0  0  0  0  0  0  0  0
   36.1166   24.9453   38.0765 H   0  0  0  0  0  0  0  0  0  0  0  0
  1 13  1  0
  2  6  1  0
  2  3  1  0
  3  4  2  0
  5  4  1  0
  5  1  1  0
  6  5  2  0
  7  8  2  0
  8  9  1  0
  8  2  1  0
 10  9  2  0
 11 10  1  0
 12 11  2  0
 12  7  1  0
 14  1  1  0
 15 14  1  0
 16 15  2  0
 17 16  1  0
 18 19  1  0
 18 17  2  0
 19 20  2  0
 20 15  1  0
 21 22  2  0
 21 19  1  0
 23 22  1  0
 24 25  2  0
 24 23  1  0
 25 21  1  0
 26 24  1  0
 27 26  1  0
 28 26  1  0
 29 26  1  0
  1 30  1  6
  3 31  1  0
  7 32  1  0
  9 33  1  0
 11 34  1  0
 13 35  1  0
 13 36  1  0
 13 37  1  0
 14 38  1  0
 14 39  1  0
 16 40  1  0
 17 41  1  0
 18 42  1  0
M  ISO  8  30   8  31  14  32  14  33  14  34  14  35   8  36   8  37   8
M  ISO  5  38   8  39   8  40  14  41  14  42  14
M  END
>  <minimizedAffinity>  (1) 
-6.3192625

>  <minimizedRMSD>  (1) 
0.923549056

$$$$
