
     RDKit          3D

 42 44  0  0  1  0  0  0  0  0999 V2000
   39.0900   26.1360   42.2920 C   0  0  1  0  0  0  0  0  0  0  0  0
   38.8530   24.7780   41.5870 C   0  0  0  0  0  0  0  0  0  0  0  0
   37.4910   24.3440   41.9900 C   0  0  0  0  0  0  0  0  0  0  0  0
   36.8200   25.6840   42.3010 C   0  0  0  0  0  0  0  0  0  0  0  0
   37.9050   26.3140   43.1500 C   0  0  2  0  0  0  0  0  0  0  0  0
   41.9530   26.9590   44.6130 C   0  0  0  0  0  0  0  0  0  0  0  0
   40.6740   27.0440   44.0450 C   0  0  0  0  0  0  0  0  0  0  0  0
   40.3770   26.1550   42.9700 C   0  0  0  0  0  0  0  0  0  0  0  0
   41.3270   25.2810   42.5500 N   0  0  0  0  0  0  0  0  0  0  0  0
   42.5410   25.2320   43.1200 C   0  0  0  0  0  0  0  0  0  0  0  0
   42.8580   26.0660   44.1490 N   0  0  0  0  0  0  0  0  0  0  0  0
   37.4460   27.7070   43.3730 C   0  0  2  0  0  0  0  0  0  0  0  0
   36.7190   27.9410   44.6640 C   0  0  0  0  0  0  0  0  0  0  0  0
   36.5170   28.0410   42.2320 C   0  0  0  0  0  0  0  0  0  0  0  0
   36.9900   29.3600   41.6800 C   0  0  0  0  0  0  0  0  0  0  0  0
   38.2860   29.7950   41.8810 C   0  0  0  0  0  0  0  0  0  0  0  0
   38.7880   30.9890   41.4050 C   0  0  0  0  0  0  0  0  0  0  0  0
   37.9330   31.7950   40.6820 C   0  0  0  0  0  0  0  0  0  0  0  0
   36.6290   31.4090   40.4520 C   0  0  0  0  0  0  0  0  0  0  0  0
   36.2010   30.2100   40.9550 C   0  0  0  0  0  0  0  0  0  0  0  0
   39.1736   26.9934   41.6080 H   0  0  0  0  0  0  0  0  0  0  0  0
   39.6018   24.0413   41.9134 H   0  0  0  0  0  0  0  0  0  0  0  0
   38.9419   24.8686   40.4943 H   0  0  0  0  0  0  0  0  0  0  0  0
   36.9782   23.8190   41.1706 H   0  0  0  0  0  0  0  0  0  0  0  0
   37.4781   23.6320   42.8284 H   0  0  0  0  0  0  0  0  0  0  0  0
   36.6227   26.2660   41.3886 H   0  0  0  0  0  0  0  0  0  0  0  0
   35.8320   25.6137   42.7794 H   0  0  0  0  0  0  0  0  0  0  0  0
   38.1279   25.9093   44.1482 H   0  0  0  0  0  0  0  0  0  0  0  0
   42.2240   27.6255   45.4450 H   0  0  0  0  0  0  0  0  0  0  0  0
   39.9305   27.7663   44.4131 H   0  0  0  0  0  0  0  0  0  0  0  0
   43.2868   24.5117   42.7528 H   0  0  0  0  0  0  0  0  0  0  0  0
   38.3419   28.3431   43.4250 H   0  0  0  0  0  0  0  0  0  0  0  0
   37.3910   27.7247   45.5076 H   0  0  0  0  0  0  0  0  0  0  0  0
   36.3916   28.9899   44.7156 H   0  0  0  0  0  0  0  0  0  0  0  0
   35.8413   27.2800   44.7156 H   0  0  0  0  0  0  0  0  0  0  0  0
   36.5691   27.2622   41.4569 H   0  0  0  0  0  0  0  0  0  0  0  0
   35.4714   28.0983   42.5690 H   0  0  0  0  0  0  0  0  0  0  0  0
   38.9619   29.1470   42.4583 H   0  0  0  0  0  0  0  0  0  0  0  0
   39.8298   31.2867   41.5947 H   0  0  0  0  0  0  0  0  0  0  0  0
   38.2949   32.7549   40.2851 H   0  0  0  0  0  0  0  0  0  0  0  0
   35.9468   32.0516   39.8761 H   0  0  0  0  0  0  0  0  0  0  0  0
   35.1594   29.9121   40.7646 H   0  0  0  0  0  0  0  0  0  0  0  0
  1  8  1  0
  1  5  1  0
  2  3  1  0
  2  1  1  0
  3  4  1  0
  4  5  1  0
  5 12  1  0
  7  6  2  0
  8  7  1  0
  9  8  2  0
  9 10  1  0
 10 11  2  0
 11  6  1  0
 12 13  1  0
 14 12  1  0
 15 16  2  0
 15 14  1  0
 17 16  1  0
 18 17  2  0
 19 18  1  0
 19 20  2  0
 20 15  1  0
  1 21  1  6
  2 22  1  0
  2 23  1  0
  3 24  1  0
  3 25  1  0
  4 26  1  0
  4 27  1  0
  5 28  1  1
  6 29  1  0
  7 30  1  0
 10 31  1  0
 12 32  1  1
 13 33  1  0
 13 34  1  0
 13 35  1  0
 14 36  1  0
 14 37  1  0
 16 38  1  0
 17 39  1  0
 18 40  1  0
 19 41  1  0
 20 42  1  0
M  ISO  8  21  13  22  13  23  13  24  13  25  13  26  13  27  13  28  13
M  ISO  8  29  14  30  14  31  14  32   8  33   8  34   8  35   8  36   8
M  ISO  6  37   8  38  14  39  14  40  14  41  14  42  14
M  END
>  <minimizedAffinity>  (1) 
-5.68809938

>  <minimizedRMSD>  (1) 
1.49095094

$$$$
