
     RDKit          3D

 41 44  0  0  1  0  0  0  0  0999 V2000
   36.8330   27.7600   43.2050 C   0  0  2  0  0  0  0  0  0  0  0  0
   38.4890   30.6840   41.8140 N   0  0  0  0  0  0  0  0  0  0  0  0
   39.4860   30.0510   42.4170 C   0  0  0  0  0  0  0  0  0  0  0  0
   39.0500   28.9370   42.9880 N   0  0  0  0  0  0  0  0  0  0  0  0
   37.6950   28.8550   42.7360 C   0  0  0  0  0  0  0  0  0  0  0  0
   37.4040   29.9450   42.0160 N   0  0  0  0  0  0  0  0  0  0  0  0
   37.1810   32.1360   40.2130 C   0  0  0  0  0  0  0  0  0  0  0  0
   38.2790   31.8870   41.0460 C   0  0  0  0  0  0  0  0  0  0  0  0
   39.3000   32.8950   41.1640 C   0  0  0  0  0  0  0  0  0  0  0  0
   39.1220   34.0250   40.4560 N   0  0  0  0  0  0  0  0  0  0  0  0
   38.0530   34.2150   39.6740 C   0  0  0  0  0  0  0  0  0  0  0  0
   37.1090   33.2860   39.5600 N   0  0  0  0  0  0  0  0  0  0  0  0
   36.7240   27.9560   44.7440 C   0  0  0  0  0  0  0  0  0  0  0  0
   37.3500   26.4080   42.9410 C   0  0  0  0  0  0  0  0  0  0  0  0
   36.9830   25.8680   41.6380 C   0  0  0  0  0  0  0  0  0  0  0  0
   36.8370   24.5170   41.4040 C   0  0  0  0  0  0  0  0  0  0  0  0
   36.4860   24.1570   40.1270 C   0  0  0  0  0  0  0  0  0  0  0  0
   36.3020   25.1350   39.1620 C   0  0  0  0  0  0  0  0  0  0  0  0
   36.4510   26.4790   39.4080 C   0  0  0  0  0  0  0  0  0  0  0  0
   36.7980   26.8060   40.6800 N   0  0  0  0  0  0  0  0  0  0  0  0
   36.2600   27.5150   38.4050 C   0  0  0  0  0  0  0  0  0  0  0  0
   35.9570   28.7590   38.8440 N   0  0  0  0  0  0  0  0  0  0  0  0
   35.8170   29.5630   37.8610 O   0  0  0  0  0  0  0  0  0  0  0  0
   36.0260   28.8580   36.7640 C   0  0  0  0  0  0  0  0  0  0  0  0
   36.3100   27.5580   37.0790 N   0  0  0  0  0  0  0  0  0  0  0  0
   35.9760   29.3490   35.3910 C   0  0  0  0  0  0  0  0  0  0  0  0
   36.8040   29.0110   34.5240 O   0  0  0  0  0  0  0  0  0  0  0  0
   35.8769   27.8131   42.6637 H   0  0  0  0  0  0  0  0  0  0  0  0
   40.5285   30.4012   42.4401 H   0  0  0  0  0  0  0  0  0  0  0  0
   36.3861   31.3837   40.1022 H   0  0  0  0  0  0  0  0  0  0  0  0
   40.1835   32.7483   41.8026 H   0  0  0  0  0  0  0  0  0  0  0  0
   37.9535   35.1572   39.1152 H   0  0  0  0  0  0  0  0  0  0  0  0
   37.1971   27.1053   45.2564 H   0  0  0  0  0  0  0  0  0  0  0  0
   37.2338   28.8872   45.0321 H   0  0  0  0  0  0  0  0  0  0  0  0
   35.6640   28.0141   45.0321 H   0  0  0  0  0  0  0  0  0  0  0  0
   38.4477   26.4410   43.0032 H   0  0  0  0  0  0  0  0  0  0  0  0
   36.8981   25.7459   43.6943 H   0  0  0  0  0  0  0  0  0  0  0  0
   36.9931   23.7699   42.1962 H   0  0  0  0  0  0  0  0  0  0  0  0
   36.3511   23.0960   39.8701 H   0  0  0  0  0  0  0  0  0  0  0  0
   36.0221   24.8189   38.1463 H   0  0  0  0  0  0  0  0  0  0  0  0
   35.1736   30.0468   35.1097 H   0  0  0  0  0  0  0  0  0  0  0  0
  1 13  1  0
  2  6  1  0
  2  3  1  0
  3  4  2  0
  5  4  1  0
  5  1  1  0
  6  5  2  0
  7  8  2  0
  8  9  1  0
  8  2  1  0
 10  9  2  0
 11 10  1  0
 12 11  2  0
 12  7  1  0
 14  1  1  0
 15 14  1  0
 16 15  2  0
 17 16  1  0
 18 19  1  0
 18 17  2  0
 19 20  2  0
 20 15  1  0
 21 22  2  0
 21 19  1  0
 23 22  1  0
 24 25  2  0
 24 23  1  0
 25 21  1  0
 26 24  1  0
 27 26  2  0
  1 28  1  6
  3 29  1  0
  7 30  1  0
  9 31  1  0
 11 32  1  0
 13 33  1  0
 13 34  1  0
 13 35  1  0
 14 36  1  0
 14 37  1  0
 16 38  1  0
 17 39  1  0
 18 40  1  0
 26 41  1  0
M  ISO  8  28   8  29  14  30  14  31  14  32  14  33   8  34   8  35   8
M  ISO  6  36   8  37   8  38  14  39  14  40  14  41   6
M  END
>  <minimizedAffinity>  (1) 
-5.90189552

>  <minimizedRMSD>  (1) 
0.745497286

$$$$
