
     RDKit          3D

 12 12  0  0  0  0  0  0  0  0999 V2000
   38.0920   29.0100   43.3220 C   0  0  0  0  0  0  0  0  0  0  0  0
   38.0280   27.5930   43.3910 C   0  0  0  0  0  0  0  0  0  0  0  0
   37.2400   26.9410   42.4170 C   0  0  0  0  0  0  0  0  0  0  0  0
   36.6060   27.7020   41.4920 N   0  0  0  0  0  0  0  0  0  0  0  0
   36.6890   29.0450   41.4560 C   0  0  0  0  0  0  0  0  0  0  0  0
   37.4330   29.6930   42.3730 N   0  0  0  0  0  0  0  0  0  0  0  0
   37.0660   25.5420   42.3390 N   0  0  0  0  0  0  0  0  0  0  0  0
   38.6938   29.5589   44.0613 H   0  0  0  0  0  0  0  0  0  0  0  0
   38.5670   27.0295   44.1669 H   0  0  0  0  0  0  0  0  0  0  0  0
   36.1515   29.6110   40.6809 H   0  0  0  0  0  0  0  0  0  0  0  0
   36.4748   25.1370   41.5991 H   0  0  0  0  0  0  0  0  0  0  0  0
   37.5302   24.9264   43.0220 H   0  0  0  0  0  0  0  0  0  0  0  0
  1  2  2  0
  3  2  1  0
  4  3  2  0
  5  4  1  0
  5  6  2  0
  6  1  1  0
  7  3  1  0
  1  8  1  0
  2  9  1  0
  5 10  1  0
  7 11  1  0
  7 12  1  0
M  ISO  3   8  14   9  14  10  14
M  END
>  <minimizedAffinity>  (1) 
-2.53263259

>  <minimizedRMSD>  (1) 
0.828668714

$$$$
