
     RDKit          3D

 26 28  0  0  0  0  0  0  0  0999 V2000
   38.9020   28.3950   42.2200 C   0  0  0  0  0  0  0  0  0  0  0  0
   39.8260   29.3210   42.5250 N   0  0  0  0  0  0  0  0  0  0  0  0
   39.7040   30.6240   42.2940 C   0  0  0  0  0  0  0  0  0  0  0  0
   38.5990   31.1300   41.7120 N   0  0  0  0  0  0  0  0  0  0  0  0
   37.6030   30.2930   41.3620 C   0  0  0  0  0  0  0  0  0  0  0  0
   36.4900   30.8130   40.7760 C   0  0  0  0  0  0  0  0  0  0  0  0
   35.4550   29.9920   40.4050 C   0  0  0  0  0  0  0  0  0  0  0  0
   35.6020   28.6270   40.6570 C   0  0  0  0  0  0  0  0  0  0  0  0
   36.7430   28.1610   41.2500 C   0  0  0  0  0  0  0  0  0  0  0  0
   37.7920   28.9560   41.6300 C   0  0  0  0  0  0  0  0  0  0  0  0
   40.4250   25.4840   43.6930 C   0  0  0  0  0  0  0  0  0  0  0  0
   39.7220   24.3590   43.2460 C   0  0  0  0  0  0  0  0  0  0  0  0
   38.6560   24.6270   42.3820 C   0  0  0  0  0  0  0  0  0  0  0  0
   38.4370   25.9020   42.0890 N   0  0  0  0  0  0  0  0  0  0  0  0
   39.0790   26.9800   42.4930 C   0  0  0  0  0  0  0  0  0  0  0  0
   40.1070   26.7240   43.3260 N   0  0  0  0  0  0  0  0  0  0  0  0
   37.7680   23.6900   41.7710 N   0  0  0  0  0  0  0  0  0  0  0  0
   40.5203   31.3022   42.5833 H   0  0  0  0  0  0  0  0  0  0  0  0
   36.4199   31.8964   40.5990 H   0  0  0  0  0  0  0  0  0  0  0  0
   34.5478   30.3926   39.9291 H   0  0  0  0  0  0  0  0  0  0  0  0
   34.8007   27.9266   40.3789 H   0  0  0  0  0  0  0  0  0  0  0  0
   36.8235   27.0794   41.4334 H   0  0  0  0  0  0  0  0  0  0  0  0
   41.2751   25.3377   44.3755 H   0  0  0  0  0  0  0  0  0  0  0  0
   39.9893   23.3370   43.5527 H   0  0  0  0  0  0  0  0  0  0  0  0
   37.0172   24.0221   41.1490 H   0  0  0  0  0  0  0  0  0  0  0  0
   37.8784   22.6821   41.9523 H   0  0  0  0  0  0  0  0  0  0  0  0
  1 15  1  0
  1  2  2  0
  3  2  1  0
  4  3  2  0
  5 10  2  0
  5  4  1  0
  6  5  1  0
  7  8  1  0
  7  6  2  0
  8  9  2  0
  9 10  1  0
 10  1  1  0
 12 11  2  0
 13 12  1  0
 14 13  2  0
 14 15  1  0
 15 16  2  0
 16 11  1  0
 17 13  1  0
  3 18  1  0
  6 19  1  0
  7 20  1  0
  8 21  1  0
  9 22  1  0
 11 23  1  0
 12 24  1  0
 17 25  1  0
 17 26  1  0
M  ISO  7  18  14  19  14  20  14  21  14  22  14  23  14  24  14
M  END
>  <minimizedAffinity>  (1) 
-4.98942041

>  <minimizedRMSD>  (1) 
3.75027227

$$$$
