
     RDKit          3D

 23 25  0  0  0  0  0  0  0  0999 V2000
   40.1010   25.6590   43.6790 C   0  0  0  0  0  0  0  0  0  0  0  0
   39.7140   24.3990   43.1740 C   0  0  0  0  0  0  0  0  0  0  0  0
   38.6270   24.3770   42.2690 C   0  0  0  0  0  0  0  0  0  0  0  0
   38.0370   25.5510   41.9490 N   0  0  0  0  0  0  0  0  0  0  0  0
   38.4240   26.7350   42.4410 C   0  0  0  0  0  0  0  0  0  0  0  0
   39.4640   26.7780   43.3110 N   0  0  0  0  0  0  0  0  0  0  0  0
   38.1170   23.2090   41.6760 N   0  0  0  0  0  0  0  0  0  0  0  0
   37.7990   27.9710   42.1010 N   0  0  0  0  0  0  0  0  0  0  0  0
   37.6070   29.1150   42.8050 C   0  0  0  0  0  0  0  0  0  0  0  0
   36.9560   30.0070   42.0300 N   0  0  0  0  0  0  0  0  0  0  0  0
   36.7260   29.4500   40.8320 C   0  0  0  0  0  0  0  0  0  0  0  0
   36.0860   29.9980   39.7210 C   0  0  0  0  0  0  0  0  0  0  0  0
   35.9970   29.1970   38.6420 N   0  0  0  0  0  0  0  0  0  0  0  0
   36.5030   27.9520   38.6600 C   0  0  0  0  0  0  0  0  0  0  0  0
   37.1100   27.4690   39.7500 N   0  0  0  0  0  0  0  0  0  0  0  0
   37.2560   28.1770   40.8870 C   0  0  0  0  0  0  0  0  0  0  0  0
   40.9404   25.7229   44.3871 H   0  0  0  0  0  0  0  0  0  0  0  0
   40.2340   23.4762   43.4707 H   0  0  0  0  0  0  0  0  0  0  0  0
   37.3214   23.2674   41.0244 H   0  0  0  0  0  0  0  0  0  0  0  0
   38.5389   22.2948   41.8930 H   0  0  0  0  0  0  0  0  0  0  0  0
   37.9305   29.2876   43.8421 H   0  0  0  0  0  0  0  0  0  0  0  0
   35.6794   31.0201   39.7256 H   0  0  0  0  0  0  0  0  0  0  0  0
   36.4166   27.3199   37.7639 H   0  0  0  0  0  0  0  0  0  0  0  0
  2  1  2  0
  3  2  1  0
  4  3  2  0
  4  5  1  0
  5  6  2  0
  6  1  1  0
  7  3  1  0
  8  5  1  0
  8  9  1  0
 10  9  2  0
 11 16  2  0
 11 10  1  0
 12 11  1  0
 13 14  1  0
 13 12  2  0
 14 15  2  0
 15 16  1  0
 16  8  1  0
  1 17  1  0
  2 18  1  0
  7 19  1  0
  7 20  1  0
  9 21  1  0
 12 22  1  0
 14 23  1  0
M  ISO  5  17  14  18  14  21  14  22  14  23  14
M  END
>  <minimizedAffinity>  (1) 
-4.67213583

>  <minimizedRMSD>  (1) 
3.00317955

$$$$
