
     RDKit          3D

 24 24  0  0  0  0  0  0  0  0999 V2000
   40.3480   25.7670   43.7550 C   0  0  0  0  0  0  0  0  0  0  0  0
   39.9590   24.5770   43.0840 C   0  0  0  0  0  0  0  0  0  0  0  0
   38.6960   24.5940   42.4680 C   0  0  0  0  0  0  0  0  0  0  0  0
   37.9570   25.7160   42.5560 N   0  0  0  0  0  0  0  0  0  0  0  0
   38.3580   26.8230   43.1990 C   0  0  0  0  0  0  0  0  0  0  0  0
   39.5550   26.8410   43.7970 N   0  0  0  0  0  0  0  0  0  0  0  0
   38.1400   23.5040   41.7540 N   0  0  0  0  0  0  0  0  0  0  0  0
   37.5250   28.0500   43.2820 C   0  0  0  0  0  0  0  0  0  0  0  0
   38.3380   29.3050   43.1240 C   0  0  0  0  0  0  0  0  0  0  0  0
   36.4940   27.9600   42.1520 C   0  0  0  0  0  0  0  0  0  0  0  0
   36.7820   28.0630   44.5800 C   0  0  0  0  0  0  0  0  0  0  0  0
   41.3280   25.8051   44.2531 H   0  0  0  0  0  0  0  0  0  0  0  0
   40.6103   23.6912   43.0485 H   0  0  0  0  0  0  0  0  0  0  0  0
   38.6696   22.6255   41.6609 H   0  0  0  0  0  0  0  0  0  0  0  0
   37.2062   23.5900   41.3280 H   0  0  0  0  0  0  0  0  0  0  0  0
   38.5955   29.7025   44.1168 H   0  0  0  0  0  0  0  0  0  0  0  0
   39.2604   29.0770   42.5698 H   0  0  0  0  0  0  0  0  0  0  0  0
   37.7528   30.0536   42.5698 H   0  0  0  0  0  0  0  0  0  0  0  0
   35.4854   27.8720   42.5821 H   0  0  0  0  0  0  0  0  0  0  0  0
   36.5501   28.8665   41.5314 H   0  0  0  0  0  0  0  0  0  0  0  0
   36.7063   27.0770   41.5314 H   0  0  0  0  0  0  0  0  0  0  0  0
   37.4997   28.0504   45.4135 H   0  0  0  0  0  0  0  0  0  0  0  0
   36.1656   28.9721   44.6406 H   0  0  0  0  0  0  0  0  0  0  0  0
   36.1342   27.1761   44.6406 H   0  0  0  0  0  0  0  0  0  0  0  0
  1  6  2  0
  2  1  1  0
  3  4  1  0
  3  2  2  0
  4  5  2  0
  5  8  1  0
  5  6  1  0
  7  3  1  0
  8 11  1  0
  9  8  1  0
 10  8  1  0
  1 12  1  0
  2 13  1  0
  7 14  1  0
  7 15  1  0
  9 16  1  0
  9 17  1  0
  9 18  1  0
 10 19  1  0
 10 20  1  0
 10 21  1  0
 11 22  1  0
 11 23  1  0
 11 24  1  0
M  ISO  8  12  14  13  14  16   8  17   8  18   8  19   8  20   8  21   8
M  ISO  3  22   8  23   8  24   8
M  END
>  <minimizedAffinity>  (1) 
-4.4890666

>  <minimizedRMSD>  (1) 
3.67537689

$$$$
