
     RDKit          3D

 27 28  0  0  0  0  0  0  0  0999 V2000
   38.0010   28.8370   43.4850 C   0  0  0  0  0  0  0  0  0  0  0  0
   37.9470   27.4240   43.5060 C   0  0  0  0  0  0  0  0  0  0  0  0
   37.2200   26.7940   42.4700 C   0  0  0  0  0  0  0  0  0  0  0  0
   36.6240   27.5830   41.5290 N   0  0  0  0  0  0  0  0  0  0  0  0
   36.7050   28.9180   41.5540 C   0  0  0  0  0  0  0  0  0  0  0  0
   37.3830   29.5510   42.5170 N   0  0  0  0  0  0  0  0  0  0  0  0
   37.0630   25.4050   42.3360 N   0  0  0  0  0  0  0  0  0  0  0  0
   36.0520   29.6600   40.5290 N   0  0  0  0  0  0  0  0  0  0  0  0
   34.8500   29.1470   39.9000 C   0  0  0  0  0  0  0  0  0  0  0  0
   34.9650   29.1950   38.3810 C   0  0  0  0  0  0  0  0  0  0  0  0
   36.4000   29.5540   38.0410 C   0  0  0  0  0  0  0  0  0  0  0  0
   36.7650   30.9260   38.5550 C   0  0  0  0  0  0  0  0  0  0  0  0
   36.4980   30.9330   40.0420 C   0  0  0  0  0  0  0  0  0  0  0  0
   38.5573   29.3664   44.2726 H   0  0  0  0  0  0  0  0  0  0  0  0
   38.4481   26.8413   44.2930 H   0  0  0  0  0  0  0  0  0  0  0  0
   36.5169   25.0218   41.5513 H   0  0  0  0  0  0  0  0  0  0  0  0
   37.4940   24.7694   43.0224 H   0  0  0  0  0  0  0  0  0  0  0  0
   34.6953   28.1049   40.2162 H   0  0  0  0  0  0  0  0  0  0  0  0
   33.9994   29.7733   40.2069 H   0  0  0  0  0  0  0  0  0  0  0  0
   34.7128   28.2129   37.9544 H   0  0  0  0  0  0  0  0  0  0  0  0
   34.2711   29.9398   37.9642 H   0  0  0  0  0  0  0  0  0  0  0  0
   37.0716   28.8115   38.4967 H   0  0  0  0  0  0  0  0  0  0  0  0
   36.5043   29.5572   36.9460 H   0  0  0  0  0  0  0  0  0  0  0  0
   37.8287   31.1297   38.3624 H   0  0  0  0  0  0  0  0  0  0  0  0
   36.1726   31.7024   38.0488 H   0  0  0  0  0  0  0  0  0  0  0  0
   37.4267   31.2045   40.5653 H   0  0  0  0  0  0  0  0  0  0  0  0
   35.6964   31.6617   40.2328 H   0  0  0  0  0  0  0  0  0  0  0  0
  1  2  2  0
  3  2  1  0
  4  5  1  0
  4  3  2  0
  5  6  2  0
  6  1  1  0
  7  3  1  0
  8  5  1  0
  9  8  1  0
 10  9  1  0
 11 10  1  0
 11 12  1  0
 12 13  1  0
 13  8  1  0
  1 14  1  0
  2 15  1  0
  7 16  1  0
  7 17  1  0
  9 18  1  0
  9 19  1  0
 10 20  1  0
 10 21  1  0
 11 22  1  0
 11 23  1  0
 12 24  1  0
 12 25  1  0
 13 26  1  0
 13 27  1  0
M  ISO  8  14  14  15  14  18  13  19  13  20  13  21  13  22  13  23  13
M  ISO  4  24  13  25  13  26  13  27  13
M  END
>  <minimizedAffinity>  (1) 
-4.48577213

>  <minimizedRMSD>  (1) 
0.183097944

$$$$
