
     RDKit          3D

 22 23  0  0  0  0  0  0  0  0999 V2000
   40.0550   26.5610   43.8930 C   0  0  0  0  0  0  0  0  0  0  0  0
   39.8900   25.1860   43.5480 C   0  0  0  0  0  0  0  0  0  0  0  0
   38.8840   24.8990   42.6140 C   0  0  0  0  0  0  0  0  0  0  0  0
   38.1530   25.9140   42.1100 N   0  0  0  0  0  0  0  0  0  0  0  0
   38.3370   27.1980   42.4570 C   0  0  0  0  0  0  0  0  0  0  0  0
   39.2880   27.5130   43.3460 N   0  0  0  0  0  0  0  0  0  0  0  0
   38.5890   23.5960   42.1660 N   0  0  0  0  0  0  0  0  0  0  0  0
   37.5150   28.2570   41.8770 C   0  0  0  0  0  0  0  0  0  0  0  0
   37.9240   29.5740   41.9210 C   0  0  0  0  0  0  0  0  0  0  0  0
   37.1390   30.5830   41.3680 C   0  0  0  0  0  0  0  0  0  0  0  0
   35.9240   30.2540   40.7640 C   0  0  0  0  0  0  0  0  0  0  0  0
   35.5070   28.9330   40.7170 C   0  0  0  0  0  0  0  0  0  0  0  0
   36.3100   27.9590   41.2740 C   0  0  0  0  0  0  0  0  0  0  0  0
   40.8276   26.8446   44.6228 H   0  0  0  0  0  0  0  0  0  0  0  0
   40.5160   24.3966   43.9894 H   0  0  0  0  0  0  0  0  0  0  0  0
   37.8377   23.4458   41.4776 H   0  0  0  0  0  0  0  0  0  0  0  0
   39.1247   22.7937   42.5269 H   0  0  0  0  0  0  0  0  0  0  0  0
   38.8813   29.8302   42.3984 H   0  0  0  0  0  0  0  0  0  0  0  0
   37.4735   31.6302   41.4068 H   0  0  0  0  0  0  0  0  0  0  0  0
   35.2970   31.0440   40.3250 H   0  0  0  0  0  0  0  0  0  0  0  0
   34.5510   28.6654   40.2432 H   0  0  0  0  0  0  0  0  0  0  0  0
   35.9789   26.9107   41.2362 H   0  0  0  0  0  0  0  0  0  0  0  0
  2  1  2  0
  3  2  1  0
  4  5  1  0
  4  3  2  0
  5  6  2  0
  6  1  1  0
  7  3  1  0
  8  9  2  0
  8  5  1  0
 10  9  1  0
 11 10  2  0
 12 11  1  0
 12 13  2  0
 13  8  1  0
  1 14  1  0
  2 15  1  0
  7 16  1  0
  7 17  1  0
  9 18  1  0
 10 19  1  0
 11 20  1  0
 12 21  1  0
 13 22  1  0
M  ISO  7  14  14  15  14  18  14  19  14  20  14  21  14  22  14
M  END
>  <minimizedAffinity>  (1) 
-4.41483116

>  <minimizedRMSD>  (1) 
2.80643153

$$$$
