
     RDKit          3D

 22 23  0  0  0  0  0  0  0  0999 V2000
   40.0420   26.5940   43.8960 C   0  0  0  0  0  0  0  0  0  0  0  0
   39.8820   25.2410   43.5510 C   0  0  0  0  0  0  0  0  0  0  0  0
   38.8730   24.9260   42.6030 C   0  0  0  0  0  0  0  0  0  0  0  0
   38.1410   25.9610   42.1040 N   0  0  0  0  0  0  0  0  0  0  0  0
   38.3290   27.2420   42.4640 C   0  0  0  0  0  0  0  0  0  0  0  0
   39.2820   27.5500   43.3600 N   0  0  0  0  0  0  0  0  0  0  0  0
   38.5760   23.6320   42.1450 N   0  0  0  0  0  0  0  0  0  0  0  0
   37.4850   28.2880   41.8670 C   0  0  0  0  0  0  0  0  0  0  0  0
   37.9210   29.5990   41.9280 C   0  0  0  0  0  0  0  0  0  0  0  0
   37.1540   30.6060   41.3790 C   0  0  0  0  0  0  0  0  0  0  0  0
   35.9670   30.2270   40.7880 C   0  0  0  0  0  0  0  0  0  0  0  0
   35.5250   28.9220   40.7230 C   0  0  0  0  0  0  0  0  0  0  0  0
   36.2980   27.9100   41.2760 C   0  0  0  0  0  0  0  0  0  0  0  0
   40.8148   26.8720   44.6278 H   0  0  0  0  0  0  0  0  0  0  0  0
   40.5127   24.4580   43.9972 H   0  0  0  0  0  0  0  0  0  0  0  0
   37.8257   23.4899   41.4538 H   0  0  0  0  0  0  0  0  0  0  0  0
   39.1085   22.8251   42.5003 H   0  0  0  0  0  0  0  0  0  0  0  0
   38.8784   29.8387   42.4137 H   0  0  0  0  0  0  0  0  0  0  0  0
   37.4732   31.6582   41.4111 H   0  0  0  0  0  0  0  0  0  0  0  0
   35.3363   31.0106   40.3428 H   0  0  0  0  0  0  0  0  0  0  0  0
   34.5673   28.6849   40.2367 H   0  0  0  0  0  0  0  0  0  0  0  0
   35.9790   26.8578   41.2442 H   0  0  0  0  0  0  0  0  0  0  0  0
  2  1  2  0
  3  2  1  0
  4  5  1  0
  4  3  2  0
  5  6  2  0
  6  1  1  0
  7  3  1  0
  8  9  2  0
  8  5  1  0
 10  9  1  0
 11 10  2  0
 12 11  1  0
 12 13  2  0
 13  8  1  0
  1 14  1  0
  2 15  1  0
  7 16  1  0
  7 17  1  0
  9 18  1  0
 10 19  1  0
 11 20  1  0
 12 21  1  0
 13 22  1  0
M  ISO  7  14  14  15  14  18  14  19  14  20  14  21  14  22  14
M  END
>  <minimizedAffinity>  (1) 
-4.4113946

>  <minimizedRMSD>  (1) 
2.81011319

$$$$
