
     RDKit          3D

 25 26  0  0  0  0  0  0  0  0999 V2000
   39.8170   26.6180   43.8860 C   0  0  0  0  0  0  0  0  0  0  0  0
   39.7680   25.2850   43.4260 C   0  0  0  0  0  0  0  0  0  0  0  0
   38.6990   24.9380   42.5750 C   0  0  0  0  0  0  0  0  0  0  0  0
   37.7970   25.8900   42.2580 N   0  0  0  0  0  0  0  0  0  0  0  0
   37.8770   27.1540   42.7200 C   0  0  0  0  0  0  0  0  0  0  0  0
   38.8780   27.5210   43.5300 N   0  0  0  0  0  0  0  0  0  0  0  0
   38.5090   23.6580   42.0330 N   0  0  0  0  0  0  0  0  0  0  0  0
   36.8540   28.1380   42.3300 C   0  0  0  0  0  0  0  0  0  0  0  0
   36.2870   27.9370   40.9660 C   0  0  0  0  0  0  0  0  0  0  0  0
   35.7830   29.3090   40.5730 C   0  0  0  0  0  0  0  0  0  0  0  0
   36.5160   30.3060   41.4680 C   0  0  0  0  0  0  0  0  0  0  0  0
   37.5600   29.4730   42.1850 C   0  0  0  0  0  0  0  0  0  0  0  0
   40.6380   26.9285   44.5491 H   0  0  0  0  0  0  0  0  0  0  0  0
   40.5308   24.5485   43.7187 H   0  0  0  0  0  0  0  0  0  0  0  0
   37.7043   23.4738   41.4171 H   0  0  0  0  0  0  0  0  0  0  0  0
   39.1742   22.9025   42.2510 H   0  0  0  0  0  0  0  0  0  0  0  0
   36.0609   28.0600   43.0882 H   0  0  0  0  0  0  0  0  0  0  0  0
   37.0627   27.5905   40.2673 H   0  0  0  0  0  0  0  0  0  0  0  0
   35.4957   27.1732   40.9448 H   0  0  0  0  0  0  0  0  0  0  0  0
   36.0084   29.5092   39.5151 H   0  0  0  0  0  0  0  0  0  0  0  0
   34.6927   29.3857   40.6973 H   0  0  0  0  0  0  0  0  0  0  0  0
   36.9928   31.0928   40.8650 H   0  0  0  0  0  0  0  0  0  0  0  0
   35.8384   30.8199   42.1656 H   0  0  0  0  0  0  0  0  0  0  0  0
   38.4764   29.3772   41.5842 H   0  0  0  0  0  0  0  0  0  0  0  0
   37.8921   29.9050   43.1406 H   0  0  0  0  0  0  0  0  0  0  0  0
  2  1  2  0
  3  2  1  0
  4  3  2  0
  4  5  1  0
  5  6  2  0
  6  1  1  0
  7  3  1  0
  8  5  1  0
  9  8  1  0
 10  9  1  0
 10 11  1  0
 11 12  1  0
 12  8  1  0
  1 13  1  0
  2 14  1  0
  7 15  1  0
  7 16  1  0
  8 17  1  0
  9 18  1  0
  9 19  1  0
 10 20  1  0
 10 21  1  0
 11 22  1  0
 11 23  1  0
 12 24  1  0
 12 25  1  0
M  ISO  8  13  14  14  14  17  13  18  13  19  13  20  13  21  13  22  13
M  ISO  3  23  13  24  13  25  13
M  END
>  <minimizedAffinity>  (1) 
-4.2478714

>  <minimizedRMSD>  (1) 
2.64908528

$$$$
