
     RDKit          3D

 19 20  0  0  0  0  0  0  0  0999 V2000
   39.9230   26.6370   43.9040 C   0  0  0  0  0  0  0  0  0  0  0  0
   39.8480   25.2780   43.5310 C   0  0  0  0  0  0  0  0  0  0  0  0
   38.8860   24.9240   42.5670 C   0  0  0  0  0  0  0  0  0  0  0  0
   38.1070   25.9120   42.0730 N   0  0  0  0  0  0  0  0  0  0  0  0
   38.1970   27.1950   42.4410 C   0  0  0  0  0  0  0  0  0  0  0  0
   39.1100   27.5450   43.3590 N   0  0  0  0  0  0  0  0  0  0  0  0
   38.6760   23.6220   42.0840 N   0  0  0  0  0  0  0  0  0  0  0  0
   37.2760   28.1540   41.8080 C   0  0  0  0  0  0  0  0  0  0  0  0
   36.1770   28.1050   40.9680 C   0  0  0  0  0  0  0  0  0  0  0  0
   35.8200   29.4470   40.7940 C   0  0  0  0  0  0  0  0  0  0  0  0
   36.7230   30.2160   41.5370 C   0  0  0  0  0  0  0  0  0  0  0  0
   37.5490   29.4030   42.1060 O   0  0  0  0  0  0  0  0  0  0  0  0
   40.6622   26.9528   44.6549 H   0  0  0  0  0  0  0  0  0  0  0  0
   40.5152   24.5252   43.9762 H   0  0  0  0  0  0  0  0  0  0  0  0
   37.9489   23.4464   41.3759 H   0  0  0  0  0  0  0  0  0  0  0  0
   39.2491   22.8427   42.4379 H   0  0  0  0  0  0  0  0  0  0  0  0
   35.6949   27.2155   40.5363 H   0  0  0  0  0  0  0  0  0  0  0  0
   34.9853   29.8266   40.1865 H   0  0  0  0  0  0  0  0  0  0  0  0
   36.7281   31.3128   41.6209 H   0  0  0  0  0  0  0  0  0  0  0  0
  2  1  2  0
  3  2  1  0
  4  5  1  0
  4  3  2  0
  5  6  2  0
  6  1  1  0
  7  3  1  0
  8 12  1  0
  8  5  1  0
  9  8  2  0
 10  9  1  0
 10 11  2  0
 11 12  1  0
  1 13  1  0
  2 14  1  0
  7 15  1  0
  7 16  1  0
  9 17  1  0
 10 18  1  0
 11 19  1  0
M  ISO  5  13  14  14  14  17  14  18  14  19  14
M  END
>  <minimizedAffinity>  (1) 
-3.95664835

>  <minimizedRMSD>  (1) 
2.70521617

$$$$
