
     RDKit          3D

 19 20  0  0  0  0  0  0  0  0999 V2000
   40.4180   27.3390   43.6400 C   0  0  0  0  0  0  0  0  0  0  0  0
   40.5160   25.9460   43.8300 C   0  0  0  0  0  0  0  0  0  0  0  0
   39.5840   25.1370   43.1500 C   0  0  0  0  0  0  0  0  0  0  0  0
   38.6730   25.7510   42.3740 N   0  0  0  0  0  0  0  0  0  0  0  0
   38.5920   27.0770   42.2050 C   0  0  0  0  0  0  0  0  0  0  0  0
   39.4790   27.8670   42.8510 N   0  0  0  0  0  0  0  0  0  0  0  0
   39.5450   23.7320   43.2310 N   0  0  0  0  0  0  0  0  0  0  0  0
   37.5510   27.5600   41.3360 N   0  0  0  0  0  0  0  0  0  0  0  0
   36.6310   28.3200   41.9500 N   0  0  0  0  0  0  0  0  0  0  0  0
   35.7160   28.7000   41.0100 C   0  0  0  0  0  0  0  0  0  0  0  0
   36.1230   28.1360   39.7960 C   0  0  0  0  0  0  0  0  0  0  0  0
   37.2820   27.4150   40.0070 C   0  0  0  0  0  0  0  0  0  0  0  0
   41.1290   28.0043   44.1517 H   0  0  0  0  0  0  0  0  0  0  0  0
   41.2872   25.5089   44.4814 H   0  0  0  0  0  0  0  0  0  0  0  0
   38.8334   23.2053   42.7045 H   0  0  0  0  0  0  0  0  0  0  0  0
   40.2281   23.2308   43.8167 H   0  0  0  0  0  0  0  0  0  0  0  0
   34.8289   29.3290   41.1756 H   0  0  0  0  0  0  0  0  0  0  0  0
   35.6051   28.2483   38.8321 H   0  0  0  0  0  0  0  0  0  0  0  0
   37.8620   26.8473   39.2645 H   0  0  0  0  0  0  0  0  0  0  0  0
  1  2  2  0
  3  7  1  0
  3  2  1  0
  4  3  2  0
  5  4  1  0
  5  6  2  0
  6  1  1  0
  8  9  1  0
  8  5  1  0
 10  9  2  0
 11 12  2  0
 11 10  1  0
 12  8  1  0
  1 13  1  0
  2 14  1  0
  7 15  1  0
  7 16  1  0
 10 17  1  0
 11 18  1  0
 12 19  1  0
M  ISO  5  13  14  14  14  17  14  18  14  19  14
M  END
>  <minimizedAffinity>  (1) 
-3.92549443

>  <minimizedRMSD>  (1) 
2.9332881

$$$$
