
     RDKit          3D

 17 18  0  0  0  0  0  0  0  0999 V2000
   39.9560   25.7820   43.7480 C   0  0  0  0  0  0  0  0  0  0  0  0
   39.6810   24.5040   43.2220 C   0  0  0  0  0  0  0  0  0  0  0  0
   38.6280   24.4000   42.2890 C   0  0  0  0  0  0  0  0  0  0  0  0
   37.9500   25.5310   41.9570 N   0  0  0  0  0  0  0  0  0  0  0  0
   38.2330   26.7390   42.4740 C   0  0  0  0  0  0  0  0  0  0  0  0
   39.2440   26.8540   43.3740 N   0  0  0  0  0  0  0  0  0  0  0  0
   38.2270   23.2020   41.6730 N   0  0  0  0  0  0  0  0  0  0  0  0
   37.4950   27.9440   42.1070 C   0  0  0  0  0  0  0  0  0  0  0  0
   37.5600   29.2420   42.4950 N   0  0  0  0  0  0  0  0  0  0  0  0
   36.6620   29.9310   41.8520 O   0  0  0  0  0  0  0  0  0  0  0  0
   35.9950   29.1450   41.0440 C   0  0  0  0  0  0  0  0  0  0  0  0
   36.4980   27.9090   41.1890 N   0  0  0  0  0  0  0  0  0  0  0  0
   40.7696   25.9019   44.4786 H   0  0  0  0  0  0  0  0  0  0  0  0
   40.2642   23.6225   43.5268 H   0  0  0  0  0  0  0  0  0  0  0  0
   37.4472   23.2048   41.0001 H   0  0  0  0  0  0  0  0  0  0  0  0
   38.7129   22.3212   41.8945 H   0  0  0  0  0  0  0  0  0  0  0  0
   35.1761   29.4421   40.3724 H   0  0  0  0  0  0  0  0  0  0  0  0
  2  1  2  0
  3  2  1  0
  4  3  2  0
  4  5  1  0
  5  6  2  0
  6  1  1  0
  7  3  1  0
  8  5  1  0
  8  9  2  0
 10  9  1  0
 11 12  2  0
 11 10  1  0
 12  8  1  0
  1 13  1  0
  2 14  1  0
  7 15  1  0
  7 16  1  0
 11 17  1  0
M  ISO  3  13  14  14  14  17  14
M  END
>  <minimizedAffinity>  (1) 
-3.89127707

>  <minimizedRMSD>  (1) 
3.14981318

$$$$
