
     RDKit          3D

 14 14  0  0  0  0  0  0  0  0999 V2000
   38.8040   28.8720   43.0480 C   0  0  0  0  0  0  0  0  0  0  0  0
   38.5720   27.4810   43.0540 C   0  0  0  0  0  0  0  0  0  0  0  0
   37.3730   27.0240   42.4690 C   0  0  0  0  0  0  0  0  0  0  0  0
   36.5250   27.9470   41.9420 N   0  0  0  0  0  0  0  0  0  0  0  0
   36.7900   29.2720   41.9580 C   0  0  0  0  0  0  0  0  0  0  0  0
   37.9210   29.7290   42.5080 N   0  0  0  0  0  0  0  0  0  0  0  0
   36.9710   25.6780   42.3830 N   0  0  0  0  0  0  0  0  0  0  0  0
   35.8650   30.1860   41.3900 N   0  0  0  0  0  0  0  0  0  0  0  0
   39.7290   29.2645   43.4956 H   0  0  0  0  0  0  0  0  0  0  0  0
   39.2963   26.7814   43.4967 H   0  0  0  0  0  0  0  0  0  0  0  0
   36.0749   25.4357   41.9366 H   0  0  0  0  0  0  0  0  0  0  0  0
   37.5729   24.9353   42.7664 H   0  0  0  0  0  0  0  0  0  0  0  0
   36.0659   31.1961   41.4016 H   0  0  0  0  0  0  0  0  0  0  0  0
   34.9927   29.8393   40.9661 H   0  0  0  0  0  0  0  0  0  0  0  0
  1  2  2  0
  3  2  1  0
  4  5  1  0
  4  3  2  0
  5  6  2  0
  6  1  1  0
  7  3  1  0
  8  5  1  0
  1  9  1  0
  2 10  1  0
  7 11  1  0
  7 12  1  0
  8 13  1  0
  8 14  1  0
M  ISO  2   9  14  10  14
M  END
>  <minimizedAffinity>  (1) 
-3.14781451

>  <minimizedRMSD>  (1) 
0.608489931

$$$$
