
     RDKit          3D

 14 14  0  0  0  0  0  0  0  0999 V2000
   38.4280   28.7290   43.3840 C   0  0  0  0  0  0  0  0  0  0  0  0
   38.2760   27.3100   43.3630 C   0  0  0  0  0  0  0  0  0  0  0  0
   37.3280   26.7840   42.4670 C   0  0  0  0  0  0  0  0  0  0  0  0
   36.6310   27.6400   41.6950 N   0  0  0  0  0  0  0  0  0  0  0  0
   36.8020   28.9770   41.7400 C   0  0  0  0  0  0  0  0  0  0  0  0
   37.6950   29.5110   42.5810 N   0  0  0  0  0  0  0  0  0  0  0  0
   37.0510   25.4110   42.3180 N   0  0  0  0  0  0  0  0  0  0  0  0
   36.0060   29.8320   40.8690 C   0  0  0  0  0  0  0  0  0  0  0  0
   36.1220   31.0860   40.9360 O   0  0  0  0  0  0  0  0  0  0  0  0
   39.1570   29.1865   44.0690 H   0  0  0  0  0  0  0  0  0  0  0  0
   38.8728   26.6577   44.0175 H   0  0  0  0  0  0  0  0  0  0  0  0
   36.3413   25.0995   41.6396 H   0  0  0  0  0  0  0  0  0  0  0  0
   37.5581   24.7186   42.8874 H   0  0  0  0  0  0  0  0  0  0  0  0
   35.3029   29.3830   40.1520 H   0  0  0  0  0  0  0  0  0  0  0  0
  2  1  2  0
  3  2  1  0
  4  5  1  0
  4  3  2  0
  5  6  2  0
  6  1  1  0
  7  3  1  0
  8  9  2  0
  8  5  1  0
  1 10  1  0
  2 11  1  0
  7 12  1  0
  7 13  1  0
  8 14  1  0
M  ISO  3  10  14  11  14  14   6
M  END
>  <minimizedAffinity>  (1) 
-3.05077529

>  <minimizedRMSD>  (1) 
0.826148927

$$$$
