
     RDKit          3D

 13 13  0  0  0  0  0  0  0  0999 V2000
   38.1660   29.0030   43.2740 C   0  0  0  0  0  0  0  0  0  0  0  0
   38.1270   27.5910   43.3240 C   0  0  0  0  0  0  0  0  0  0  0  0
   37.2600   26.9550   42.4200 C   0  0  0  0  0  0  0  0  0  0  0  0
   36.5330   27.7260   41.5770 N   0  0  0  0  0  0  0  0  0  0  0  0
   36.5920   29.0630   41.5530 C   0  0  0  0  0  0  0  0  0  0  0  0
   37.4140   29.6910   42.4080 N   0  0  0  0  0  0  0  0  0  0  0  0
   37.0950   25.5510   42.3320 N   0  0  0  0  0  0  0  0  0  0  0  0
   35.7810   29.7150   40.6250 O   0  0  0  0  0  0  0  0  0  0  0  0
   38.8291   29.5478   43.9621 H   0  0  0  0  0  0  0  0  0  0  0  0
   38.7434   27.0199   44.0338 H   0  0  0  0  0  0  0  0  0  0  0  0
   36.4405   25.1515   41.6443 H   0  0  0  0  0  0  0  0  0  0  0  0
   37.6295   24.9295   42.9557 H   0  0  0  0  0  0  0  0  0  0  0  0
   35.7892   30.7034   40.5686 H   0  0  0  0  0  0  0  0  0  0  0  0
  1  2  2  0
  3  2  1  0
  4  3  2  0
  5  4  1  0
  5  6  2  0
  6  1  1  0
  7  3  1  0
  8  5  1  0
  1  9  1  0
  2 10  1  0
  7 11  1  0
  7 12  1  0
  8 13  1  0
M  ISO  3   9  14  10  14  13   3
M  END
>  <minimizedAffinity>  (1) 
-2.7943728

>  <minimizedRMSD>  (1) 
0.12743549

$$$$
