
     RDKit          3D

 15 15  0  0  0  0  0  0  0  0999 V2000
   38.1410   29.0220   43.2710 C   0  0  0  0  0  0  0  0  0  0  0  0
   38.1020   27.6080   43.3300 C   0  0  0  0  0  0  0  0  0  0  0  0
   37.2570   26.9570   42.4150 C   0  0  0  0  0  0  0  0  0  0  0  0
   36.5390   27.7040   41.5400 N   0  0  0  0  0  0  0  0  0  0  0  0
   36.6140   29.0530   41.5260 C   0  0  0  0  0  0  0  0  0  0  0  0
   37.4110   29.7060   42.3870 N   0  0  0  0  0  0  0  0  0  0  0  0
   37.0940   25.5470   42.3330 N   0  0  0  0  0  0  0  0  0  0  0  0
   35.7670   29.7470   40.5070 C   0  0  0  0  0  0  0  0  0  0  0  0
   38.7887   29.5705   43.9707 H   0  0  0  0  0  0  0  0  0  0  0  0
   38.7049   27.0453   44.0579 H   0  0  0  0  0  0  0  0  0  0  0  0
   36.4546   25.1423   41.6342 H   0  0  0  0  0  0  0  0  0  0  0  0
   37.6153   24.9303   42.9724 H   0  0  0  0  0  0  0  0  0  0  0  0
   35.0129   30.3649   41.0164 H   0  0  0  0  0  0  0  0  0  0  0  0
   36.4018   30.3880   39.8776 H   0  0  0  0  0  0  0  0  0  0  0  0
   35.2634   28.9985   39.8776 H   0  0  0  0  0  0  0  0  0  0  0  0
  1  2  2  0
  3  2  1  0
  4  3  2  0
  5  4  1  0
  5  6  2  0
  6  1  1  0
  7  3  1  0
  8  5  1  0
  1  9  1  0
  2 10  1  0
  7 11  1  0
  7 12  1  0
  8 13  1  0
  8 14  1  0
  8 15  1  0
M  ISO  5   9  14  10  14  13   8  14   8  15   8
M  END
>  <minimizedAffinity>  (1) 
-2.93626809

>  <minimizedRMSD>  (1) 
0.0988292024

$$$$
