
     RDKit          3D

 25 26  0  0  0  0  0  0  0  0999 V2000
   35.6440   29.7510   40.6570 C   0  0  0  0  0  0  0  0  0  0  0  0
   38.1920   28.9890   43.2480 C   0  0  0  0  0  0  0  0  0  0  0  0
   38.1760   27.5820   43.2820 C   0  0  0  0  0  0  0  0  0  0  0  0
   37.2840   26.9450   42.4070 C   0  0  0  0  0  0  0  0  0  0  0  0
   36.5100   27.6960   41.6010 N   0  0  0  0  0  0  0  0  0  0  0  0
   36.5570   29.0490   41.6010 C   0  0  0  0  0  0  0  0  0  0  0  0
   37.4040   29.6730   42.4310 N   0  0  0  0  0  0  0  0  0  0  0  0
   37.1260   25.5390   42.2970 N   0  0  0  0  0  0  0  0  0  0  0  0
   36.3780   30.4440   39.5660 C   0  0  0  0  0  0  0  0  0  0  0  0
   36.8660   31.7210   39.7600 C   0  0  0  0  0  0  0  0  0  0  0  0
   37.5400   32.2980   38.6910 C   0  0  0  0  0  0  0  0  0  0  0  0
   37.7440   31.6780   37.4720 C   0  0  0  0  0  0  0  0  0  0  0  0
   37.2400   30.3950   37.3110 C   0  0  0  0  0  0  0  0  0  0  0  0
   36.5600   29.7820   38.3560 C   0  0  0  0  0  0  0  0  0  0  0  0
   34.9625   29.0123   40.2101 H   0  0  0  0  0  0  0  0  0  0  0  0
   35.0946   30.5140   41.2279 H   0  0  0  0  0  0  0  0  0  0  0  0
   38.8752   29.5342   43.9158 H   0  0  0  0  0  0  0  0  0  0  0  0
   38.8289   27.0119   43.9593 H   0  0  0  0  0  0  0  0  0  0  0  0
   36.4474   25.1478   41.6281 H   0  0  0  0  0  0  0  0  0  0  0  0
   37.6899   24.9097   42.8860 H   0  0  0  0  0  0  0  0  0  0  0  0
   36.7282   32.2542   40.7122 H   0  0  0  0  0  0  0  0  0  0  0  0
   37.9376   33.3151   38.8230 H   0  0  0  0  0  0  0  0  0  0  0  0
   38.2862   32.1834   36.6592 H   0  0  0  0  0  0  0  0  0  0  0  0
   37.3787   29.8643   36.3575 H   0  0  0  0  0  0  0  0  0  0  0  0
   36.1622   28.7648   38.2256 H   0  0  0  0  0  0  0  0  0  0  0  0
  1  6  1  0
  2  3  2  0
  4  3  1  0
  5  4  2  0
  6  5  1  0
  6  7  2  0
  7  2  1  0
  8  4  1  0
  9 10  2  0
  9  1  1  0
 11 10  1  0
 12 11  2  0
 13 12  1  0
 13 14  2  0
 14  9  1  0
  1 15  1  0
  1 16  1  0
  2 17  1  0
  3 18  1  0
  8 19  1  0
  8 20  1  0
 10 21  1  0
 11 22  1  0
 12 23  1  0
 13 24  1  0
 14 25  1  0
M  ISO  8  15   8  16   8  17  14  18  14  21  14  22  14  23  14  24  14
M  ISO  1  25  14
M  END
>  <minimizedAffinity>  (1) 
-4.65529871

>  <minimizedRMSD>  (1) 
1.00375617

$$$$
