
     RDKit          3D

 39 41  0  0  1  0  0  0  0  0999 V2000
   39.1620   26.1430   42.1890 C   0  0  1  0  0  0  0  0  0  0  0  0
   38.9260   24.8030   41.5010 C   0  0  0  0  0  0  0  0  0  0  0  0
   37.5620   24.3530   41.9680 C   0  0  0  0  0  0  0  0  0  0  0  0
   36.8830   25.6950   42.1960 C   0  0  0  0  0  0  0  0  0  0  0  0
   37.9500   26.3670   43.0300 C   0  0  2  0  0  0  0  0  0  0  0  0
   41.9500   26.9670   44.6160 C   0  0  0  0  0  0  0  0  0  0  0  0
   40.6820   27.0440   44.0040 C   0  0  0  0  0  0  0  0  0  0  0  0
   40.4240   26.1760   42.9230 C   0  0  0  0  0  0  0  0  0  0  0  0
   41.3960   25.3150   42.5250 N   0  0  0  0  0  0  0  0  0  0  0  0
   42.5980   25.2760   43.1430 C   0  0  0  0  0  0  0  0  0  0  0  0
   42.8720   26.0960   44.1790 N   0  0  0  0  0  0  0  0  0  0  0  0
   37.4970   27.7690   43.1850 C   0  0  2  0  0  0  0  0  0  0  0  0
   36.8480   28.1120   44.4780 C   0  0  0  0  0  0  0  0  0  0  0  0
   36.4870   28.0150   42.0640 C   0  0  0  0  0  0  0  0  0  0  0  0
   36.8470   29.3860   41.5800 C   0  0  0  0  0  0  0  0  0  0  0  0
   38.0870   29.9800   41.4540 C   0  0  0  0  0  0  0  0  0  0  0  0
   37.9310   31.2600   40.9650 C   0  0  0  0  0  0  0  0  0  0  0  0
   36.6100   31.4330   40.7980 N   0  0  0  0  0  0  0  0  0  0  0  0
   35.9830   30.3410   41.1560 N   0  0  0  0  0  0  0  0  0  0  0  0
   39.2821   26.9675   41.4709 H   0  0  0  0  0  0  0  0  0  0  0  0
   39.6953   24.0755   41.7992 H   0  0  0  0  0  0  0  0  0  0  0  0
   38.9780   24.8884   40.4056 H   0  0  0  0  0  0  0  0  0  0  0  0
   37.0444   23.7629   41.1974 H   0  0  0  0  0  0  0  0  0  0  0  0
   37.5762   23.6938   42.8485 H   0  0  0  0  0  0  0  0  0  0  0  0
   36.7007   26.2297   41.2522 H   0  0  0  0  0  0  0  0  0  0  0  0
   35.8856   25.6461   42.6573 H   0  0  0  0  0  0  0  0  0  0  0  0
   38.1514   26.0116   44.0513 H   0  0  0  0  0  0  0  0  0  0  0  0
   42.1860   27.6292   45.4620 H   0  0  0  0  0  0  0  0  0  0  0  0
   39.9213   27.7557   44.3572 H   0  0  0  0  0  0  0  0  0  0  0  0
   43.3632   24.5659   42.7964 H   0  0  0  0  0  0  0  0  0  0  0  0
   38.3973   28.4001   43.1489 H   0  0  0  0  0  0  0  0  0  0  0  0
   37.4853   27.7752   45.3089 H   0  0  0  0  0  0  0  0  0  0  0  0
   36.7089   29.2014   44.5409 H   0  0  0  0  0  0  0  0  0  0  0  0
   35.8696   27.6132   44.5409 H   0  0  0  0  0  0  0  0  0  0  0  0
   36.5981   27.2708   41.2616 H   0  0  0  0  0  0  0  0  0  0  0  0
   35.4418   27.9338   42.3971 H   0  0  0  0  0  0  0  0  0  0  0  0
   39.0480   29.5068   41.7042 H   0  0  0  0  0  0  0  0  0  0  0  0
   38.7264   31.9902   40.7547 H   0  0  0  0  0  0  0  0  0  0  0  0
   36.1609   32.2897   40.4441 H   0  0  0  0  0  0  0  0  0  0  0  0
  1  8  1  0
  1  5  1  0
  2  3  1  0
  2  1  1  0
  3  4  1  0
  4  5  1  0
  5 12  1  0
  7  6  2  0
  8  7  1  0
  9  8  2  0
  9 10  1  0
 10 11  2  0
 11  6  1  0
 12 13  1  0
 14 12  1  0
 15 14  1  0
 16 15  1  0
 17 16  2  0
 18 17  1  0
 18 19  1  0
 19 15  2  0
  1 20  1  6
  2 21  1  0
  2 22  1  0
  3 23  1  0
  3 24  1  0
  4 25  1  0
  4 26  1  0
  5 27  1  1
  6 28  1  0
  7 29  1  0
 10 30  1  0
 12 31  1  6
 13 32  1  0
 13 33  1  0
 13 34  1  0
 14 35  1  0
 14 36  1  0
 16 37  1  0
 17 38  1  0
 18 39  1  0
M  ISO  8  20  13  21  13  22  13  23  13  24  13  25  13  26  13  27  13
M  ISO  8  28  14  29  14  30  14  31   8  32   8  33   8  34   8  35   8
M  ISO  4  36   8  37  14  38  14  39   9
M  END
>  <minimizedAffinity>  (1) 
-5.43630695

>  <minimizedRMSD>  (1) 
1.02597618

$$$$
