
     RDKit          3D

 28 29  0  0  0  0  0  0  0  0999 V2000
   37.6510   28.8620   43.6170 C   0  0  0  0  0  0  0  0  0  0  0  0
   37.9250   27.4900   43.7520 C   0  0  0  0  0  0  0  0  0  0  0  0
   38.1140   26.7480   42.5760 C   0  0  0  0  0  0  0  0  0  0  0  0
   38.0210   27.3920   41.3960 N   0  0  0  0  0  0  0  0  0  0  0  0
   37.7570   28.7110   41.3060 C   0  0  0  0  0  0  0  0  0  0  0  0
   37.5720   29.4410   42.4250 N   0  0  0  0  0  0  0  0  0  0  0  0
   38.3980   25.3610   42.5100 N   0  0  0  0  0  0  0  0  0  0  0  0
   37.6830   29.2920   39.9370 C   0  0  0  0  0  0  0  0  0  0  0  0
   36.4880   30.0500   39.7050 N   0  0  0  0  0  0  0  0  0  0  0  0
   35.2780   29.2930   39.7810 C   0  0  0  0  0  0  0  0  0  0  0  0
   34.9330   28.5450   38.5130 C   0  0  0  0  0  0  0  0  0  0  0  0
   35.0330   29.3170   37.3780 O   0  0  0  0  0  0  0  0  0  0  0  0
   36.3530   29.7490   37.2620 C   0  0  0  0  0  0  0  0  0  0  0  0
   36.6270   30.6820   38.4100 C   0  0  0  0  0  0  0  0  0  0  0  0
   37.4984   29.4705   44.5206 H   0  0  0  0  0  0  0  0  0  0  0  0
   37.9889   27.0157   44.7424 H   0  0  0  0  0  0  0  0  0  0  0  0
   38.5207   24.9034   41.5954 H   0  0  0  0  0  0  0  0  0  0  0  0
   38.4817   24.8106   43.3766 H   0  0  0  0  0  0  0  0  0  0  0  0
   38.5496   29.9537   39.7915 H   0  0  0  0  0  0  0  0  0  0  0  0
   37.6782   28.4519   39.2270 H   0  0  0  0  0  0  0  0  0  0  0  0
   35.3797   28.5614   40.5961 H   0  0  0  0  0  0  0  0  0  0  0  0
   34.4651   30.0137   39.9534 H   0  0  0  0  0  0  0  0  0  0  0  0
   35.6187   27.6905   38.4149 H   0  0  0  0  0  0  0  0  0  0  0  0
   33.8831   28.2283   38.5986 H   0  0  0  0  0  0  0  0  0  0  0  0
   37.0353   28.8874   37.3074 H   0  0  0  0  0  0  0  0  0  0  0  0
   36.5096   30.2611   36.3012 H   0  0  0  0  0  0  0  0  0  0  0  0
   37.6553   31.0609   38.3146 H   0  0  0  0  0  0  0  0  0  0  0  0
   35.8822   31.4899   38.3592 H   0  0  0  0  0  0  0  0  0  0  0  0
  1  2  2  0
  3  2  1  0
  4  3  2  0
  5  4  1  0
  5  6  2  0
  6  1  1  0
  7  3  1  0
  8  5  1  0
  9 10  1  0
  9  8  1  0
 11 10  1  0
 12 11  1  0
 13 12  1  0
 13 14  1  0
 14  9  1  0
  1 15  1  0
  2 16  1  0
  7 17  1  0
  7 18  1  0
  8 19  1  0
  8 20  1  0
 10 21  1  0
 10 22  1  0
 11 23  1  0
 11 24  1  0
 13 25  1  0
 13 26  1  0
 14 27  1  0
 14 28  1  0
M  ISO  8  15  14  16  14  19   8  20   8  21  13  22  13  23  13  24  13
M  ISO  4  25  13  26  13  27  13  28  13
M  END
>  <minimizedAffinity>  (1) 
-3.49840665

>  <minimizedRMSD>  (1) 
2.7100482

$$$$
