
     RDKit          3D

 22 23  0  0  0  0  0  0  0  0999 V2000
   37.4810   28.6630   43.5150 C   0  0  0  0  0  0  0  0  0  0  0  0
   37.8340   27.3050   43.2890 C   0  0  0  0  0  0  0  0  0  0  0  0
   38.3430   26.9650   42.0360 C   0  0  0  0  0  0  0  0  0  0  0  0
   38.4730   27.9400   41.1140 N   0  0  0  0  0  0  0  0  0  0  0  0
   38.1280   29.2140   41.3670 C   0  0  0  0  0  0  0  0  0  0  0  0
   37.6320   29.5800   42.5630 N   0  0  0  0  0  0  0  0  0  0  0  0
   38.7380   25.6660   41.6580 N   0  0  0  0  0  0  0  0  0  0  0  0
   38.3230   30.2050   40.2490 C   0  0  0  0  0  0  0  0  0  0  0  0
   37.2290   31.2310   40.2320 C   0  0  0  0  0  0  0  0  0  0  0  0
   37.5200   32.6790   40.1410 C   0  0  0  0  0  0  0  0  0  0  0  0
   37.0660   31.9500   38.9150 C   0  0  0  0  0  0  0  0  0  0  0  0
   37.0761   28.9609   44.4934 H   0  0  0  0  0  0  0  0  0  0  0  0
   37.7098   26.5471   44.0765 H   0  0  0  0  0  0  0  0  0  0  0  0
   39.1054   25.4945   40.7112 H   0  0  0  0  0  0  0  0  0  0  0  0
   38.6593   24.8882   42.3286 H   0  0  0  0  0  0  0  0  0  0  0  0
   39.2888   30.7135   40.3855 H   0  0  0  0  0  0  0  0  0  0  0  0
   38.3015   29.6593   39.2942 H   0  0  0  0  0  0  0  0  0  0  0  0
   36.6103   30.6479   40.9300 H   0  0  0  0  0  0  0  0  0  0  0  0
   36.8499   33.4036   40.6266 H   0  0  0  0  0  0  0  0  0  0  0  0
   38.3868   33.3095   40.3880 H   0  0  0  0  0  0  0  0  0  0  0  0
   36.0616   32.1308   38.5045 H   0  0  0  0  0  0  0  0  0  0  0  0
   37.4543   31.8146   37.8948 H   0  0  0  0  0  0  0  0  0  0  0  0
  2  1  2  0
  3  2  1  0
  4  5  1  0
  4  3  2  0
  5  6  2  0
  6  1  1  0
  7  3  1  0
  8  5  1  0
  9  8  1  0
 10  9  1  0
 11 10  1  0
 11  9  1  0
  1 12  1  0
  2 13  1  0
  7 14  1  0
  7 15  1  0
  8 16  1  0
  8 17  1  0
  9 18  1  0
 10 19  1  0
 10 20  1  0
 11 21  1  0
 11 22  1  0
M  ISO  8  12  14  13  14  16   8  17   8  18  13  19  13  20  13  21  13
M  ISO  1  22  13
M  END
>  <minimizedAffinity>  (1) 
-3.19396234

>  <minimizedRMSD>  (1) 
2.69613957

$$$$
