
     RDKit          3D

 16 16  0  0  0  0  0  0  0  0999 V2000
   38.0850   27.3400   43.2550 C   0  0  0  0  0  0  0  0  0  0  0  0
   36.8690   27.4420   42.5430 C   0  0  0  0  0  0  0  0  0  0  0  0
   36.6280   28.6490   41.8700 C   0  0  0  0  0  0  0  0  0  0  0  0
   37.5450   29.6430   41.9290 N   0  0  0  0  0  0  0  0  0  0  0  0
   38.6960   29.4940   42.6260 C   0  0  0  0  0  0  0  0  0  0  0  0
   38.9690   28.3500   43.2880 N   0  0  0  0  0  0  0  0  0  0  0  0
   35.4590   28.9150   41.1110 N   0  0  0  0  0  0  0  0  0  0  0  0
   39.6390   30.6440   42.6280 C   0  0  0  0  0  0  0  0  0  0  0  0
   39.3090   31.7660   41.2440 S   0  0  0  0  0  0  0  0  0  0  0  0
   38.3132   26.4098   43.7959 H   0  0  0  0  0  0  0  0  0  0  0  0
   36.1453   26.6140   42.5176 H   0  0  0  0  0  0  0  0  0  0  0  0
   34.7243   28.1978   41.0284 H   0  0  0  0  0  0  0  0  0  0  0  0
   35.3451   29.8253   40.6426 H   0  0  0  0  0  0  0  0  0  0  0  0
   39.5281   31.1971   43.5723 H   0  0  0  0  0  0  0  0  0  0  0  0
   40.6625   30.2547   42.5238 H   0  0  0  0  0  0  0  0  0  0  0  0
   38.9475   32.9953   41.7289 H   0  0  0  0  0  0  0  0  0  0  0  0
  1  6  2  0
  2  1  1  0
  3  4  1  0
  3  2  2  0
  4  5  2  0
  5  8  1  0
  5  6  1  0
  7  3  1  0
  9  8  1  0
  1 10  1  0
  2 11  1  0
  7 12  1  0
  7 13  1  0
  8 14  1  0
  8 15  1  0
  9 16  1  0
M  ISO  5  10  14  11  14  14   8  15   8  16  11
M  END
>  <minimizedAffinity>  (1) 
-3.00715184

>  <minimizedRMSD>  (1) 
3.15152121

$$$$
