
     RDKit          3D

 17 17  0  0  0  0  0  0  0  0999 V2000
   38.1600   29.0110   43.2800 C   0  0  0  0  0  0  0  0  0  0  0  0
   38.1060   27.6060   43.3290 C   0  0  0  0  0  0  0  0  0  0  0  0
   37.2530   26.9640   42.4090 C   0  0  0  0  0  0  0  0  0  0  0  0
   36.5440   27.7220   41.5400 N   0  0  0  0  0  0  0  0  0  0  0  0
   36.6390   29.0720   41.5410 C   0  0  0  0  0  0  0  0  0  0  0  0
   37.4390   29.7030   42.4030 N   0  0  0  0  0  0  0  0  0  0  0  0
   37.0820   25.5500   42.3280 N   0  0  0  0  0  0  0  0  0  0  0  0
   35.8010   29.7740   40.5300 C   0  0  0  0  0  0  0  0  0  0  0  0
   36.5560   29.9450   39.3070 N   0  0  0  0  0  0  0  0  0  0  0  0
   38.8132   29.5489   43.9828 H   0  0  0  0  0  0  0  0  0  0  0  0
   38.7035   27.0335   44.0538 H   0  0  0  0  0  0  0  0  0  0  0  0
   36.4405   25.1480   41.6296 H   0  0  0  0  0  0  0  0  0  0  0  0
   37.6000   24.9311   42.9679 H   0  0  0  0  0  0  0  0  0  0  0  0
   34.9001   29.1775   40.3236 H   0  0  0  0  0  0  0  0  0  0  0  0
   35.5087   30.7603   40.9195 H   0  0  0  0  0  0  0  0  0  0  0  0
   37.5354   30.1668   39.5363 H   0  0  0  0  0  0  0  0  0  0  0  0
   36.5207   29.0747   38.7572 H   0  0  0  0  0  0  0  0  0  0  0  0
  1  2  2  0
  3  2  1  0
  4  5  1  0
  4  3  2  0
  5  6  2  0
  6  1  1  0
  7  3  1  0
  8  5  1  0
  9  8  1  0
  1 10  1  0
  2 11  1  0
  7 12  1  0
  7 13  1  0
  8 14  1  0
  8 15  1  0
  9 16  1  0
  9 17  1  0
M  ISO  6  10  14  11  14  14   8  15   8  16   5  17   5
M  END
>  <minimizedAffinity>  (1) 
-2.87135434

>  <minimizedRMSD>  (1) 
0.0318770371

$$$$
