
     RDKit          3D

 39 42  0  0  0  0  0  0  0  0999 V2000
   36.3860   30.3750   39.5980 C   0  0  0  0  0  0  0  0  0  0  0  0
   36.8080   31.6820   39.8000 C   0  0  0  0  0  0  0  0  0  0  0  0
   37.4890   32.2640   38.7450 C   0  0  0  0  0  0  0  0  0  0  0  0
   37.7680   31.6560   37.5450 C   0  0  0  0  0  0  0  0  0  0  0  0
   37.3350   30.3580   37.3730 C   0  0  0  0  0  0  0  0  0  0  0  0
   36.6400   29.7170   38.4080 C   0  0  0  0  0  0  0  0  0  0  0  0
   36.2120   28.3580   38.1000 C   0  0  0  0  0  0  0  0  0  0  0  0
   36.9400   27.2700   38.3740 N   0  0  0  0  0  0  0  0  0  0  0  0
   36.5370   26.0290   38.0860 C   0  0  0  0  0  0  0  0  0  0  0  0
   35.3320   25.8080   37.4850 N   0  0  0  0  0  0  0  0  0  0  0  0
   34.5360   26.8560   37.1760 C   0  0  0  0  0  0  0  0  0  0  0  0
   33.3290   26.5940   36.5630 C   0  0  0  0  0  0  0  0  0  0  0  0
   32.5000   27.6670   36.2300 C   0  0  0  0  0  0  0  0  0  0  0  0
   32.9130   28.9570   36.5240 C   0  0  0  0  0  0  0  0  0  0  0  0
   34.1360   29.1300   37.1390 C   0  0  0  0  0  0  0  0  0  0  0  0
   34.9980   28.1100   37.4930 C   0  0  0  0  0  0  0  0  0  0  0  0
   35.6440   29.6580   40.6670 C   0  0  0  0  0  0  0  0  0  0  0  0
   38.1660   28.9600   43.2920 C   0  0  0  0  0  0  0  0  0  0  0  0
   38.1810   27.5580   43.3560 C   0  0  0  0  0  0  0  0  0  0  0  0
   37.3070   26.8960   42.4770 C   0  0  0  0  0  0  0  0  0  0  0  0
   36.5240   27.6210   41.6430 N   0  0  0  0  0  0  0  0  0  0  0  0
   36.5570   28.9740   41.6310 C   0  0  0  0  0  0  0  0  0  0  0  0
   37.3790   29.6090   42.4580 N   0  0  0  0  0  0  0  0  0  0  0  0
   37.1600   25.4880   42.3760 N   0  0  0  0  0  0  0  0  0  0  0  0
   36.6135   32.2209   40.7390 H   0  0  0  0  0  0  0  0  0  0  0  0
   37.8357   33.2994   38.8784 H   0  0  0  0  0  0  0  0  0  0  0  0
   38.3162   32.1846   36.7512 H   0  0  0  0  0  0  0  0  0  0  0  0
   37.5338   29.8289   36.4293 H   0  0  0  0  0  0  0  0  0  0  0  0
   37.1842   25.1755   38.3363 H   0  0  0  0  0  0  0  0  0  0  0  0
   33.0253   25.5604   36.3408 H   0  0  0  0  0  0  0  0  0  0  0  0
   31.5309   27.4907   35.7403 H   0  0  0  0  0  0  0  0  0  0  0  0
   32.2812   29.8218   36.2732 H   0  0  0  0  0  0  0  0  0  0  0  0
   34.4490   30.1600   37.3650 H   0  0  0  0  0  0  0  0  0  0  0  0
   35.0280   30.3840   41.2178 H   0  0  0  0  0  0  0  0  0  0  0  0
   35.0238   28.8869   40.1865 H   0  0  0  0  0  0  0  0  0  0  0  0
   38.8296   29.5328   43.9565 H   0  0  0  0  0  0  0  0  0  0  0  0
   38.8359   27.0116   44.0507 H   0  0  0  0  0  0  0  0  0  0  0  0
   36.4930   25.0869   41.7014 H   0  0  0  0  0  0  0  0  0  0  0  0
   37.7203   24.8672   42.9773 H   0  0  0  0  0  0  0  0  0  0  0  0
  1  2  2  0
  1 17  1  0
  3  2  1  0
  4  3  2  0
  5  4  1  0
  5  6  2  0
  6  1  1  0
  7  8  2  0
  7  6  1  0
  9  8  1  0
 10  9  2  0
 11 10  1  0
 11 16  2  0
 12 11  1  0
 13 14  1  0
 13 12  2  0
 14 15  2  0
 15 16  1  0
 16  7  1  0
 17 22  1  0
 18 19  2  0
 20 19  1  0
 21 20  2  0
 22 21  1  0
 22 23  2  0
 23 18  1  0
 24 20  1  0
  2 25  1  0
  3 26  1  0
  4 27  1  0
  5 28  1  0
  9 29  1  0
 12 30  1  0
 13 31  1  0
 14 32  1  0
 15 33  1  0
 17 34  1  0
 17 35  1  0
 18 36  1  0
 19 37  1  0
 24 38  1  0
 24 39  1  0
M  ISO  8  25  14  26  14  27  14  28  14  29  14  30  14  31  14  32  14
M  ISO  5  33  14  34   8  35   8  36  14  37  14
M  END
>  <minimizedAffinity>  (1) 
-6.0247345

>  <minimizedRMSD>  (1) 
0.482773304

$$$$
