
     RDKit          3D

 39 42  0  0  0  0  0  0  0  0999 V2000
   36.3360   30.4370   39.5590 C   0  0  0  0  0  0  0  0  0  0  0  0
   37.0610   31.5830   39.8010 C   0  0  0  0  0  0  0  0  0  0  0  0
   37.7050   32.1450   38.7170 C   0  0  0  0  0  0  0  0  0  0  0  0
   37.6620   31.6340   37.4410 C   0  0  0  0  0  0  0  0  0  0  0  0
   36.9230   30.4820   37.2390 C   0  0  0  0  0  0  0  0  0  0  0  0
   36.2610   29.8820   38.2900 C   0  0  0  0  0  0  0  0  0  0  0  0
   35.5110   28.6780   37.9870 C   0  0  0  0  0  0  0  0  0  0  0  0
   34.1790   28.7030   37.5600 C   0  0  0  0  0  0  0  0  0  0  0  0
   33.7480   27.4450   37.3550 N   0  0  0  0  0  0  0  0  0  0  0  0
   34.7210   26.5800   37.6220 C   0  0  0  0  0  0  0  0  0  0  0  0
   34.8530   25.2090   37.5920 C   0  0  0  0  0  0  0  0  0  0  0  0
   36.0580   24.6260   37.9480 C   0  0  0  0  0  0  0  0  0  0  0  0
   37.1590   25.3840   38.3420 C   0  0  0  0  0  0  0  0  0  0  0  0
   37.0260   26.7580   38.3720 C   0  0  0  0  0  0  0  0  0  0  0  0
   35.8190   27.3260   38.0140 C   0  0  0  0  0  0  0  0  0  0  0  0
   35.6120   29.7720   40.6830 C   0  0  0  0  0  0  0  0  0  0  0  0
   38.1590   28.9780   43.2570 C   0  0  0  0  0  0  0  0  0  0  0  0
   38.1410   27.5730   43.2730 C   0  0  0  0  0  0  0  0  0  0  0  0
   37.2520   26.9550   42.3970 C   0  0  0  0  0  0  0  0  0  0  0  0
   36.4870   27.7230   41.6120 N   0  0  0  0  0  0  0  0  0  0  0  0
   36.5220   29.0650   41.6130 C   0  0  0  0  0  0  0  0  0  0  0  0
   37.3670   29.6650   42.4450 N   0  0  0  0  0  0  0  0  0  0  0  0
   37.0840   25.5430   42.2640 N   0  0  0  0  0  0  0  0  0  0  0  0
   37.1235   32.0271   40.8054 H   0  0  0  0  0  0  0  0  0  0  0  0
   38.2905   33.0610   38.8848 H   0  0  0  0  0  0  0  0  0  0  0  0
   38.1951   32.1228   36.6122 H   0  0  0  0  0  0  0  0  0  0  0  0
   36.8629   30.0413   36.2329 H   0  0  0  0  0  0  0  0  0  0  0  0
   33.5765   29.6117   37.4142 H   0  0  0  0  0  0  0  0  0  0  0  0
   32.8020   27.1896   37.0375 H   0  0  0  0  0  0  0  0  0  0  0  0
   34.0043   24.5794   37.2864 H   0  0  0  0  0  0  0  0  0  0  0  0
   36.1487   23.5301   37.9188 H   0  0  0  0  0  0  0  0  0  0  0  0
   38.1072   24.9014   38.6212 H   0  0  0  0  0  0  0  0  0  0  0  0
   37.8711   27.3925   38.6773 H   0  0  0  0  0  0  0  0  0  0  0  0
   35.0589   30.5377   41.2467 H   0  0  0  0  0  0  0  0  0  0  0  0
   34.9377   29.0215   40.2447 H   0  0  0  0  0  0  0  0  0  0  0  0
   38.8420   29.5174   43.9298 H   0  0  0  0  0  0  0  0  0  0  0  0
   38.7939   26.9925   43.9414 H   0  0  0  0  0  0  0  0  0  0  0  0
   36.4023   25.1667   41.5898 H   0  0  0  0  0  0  0  0  0  0  0  0
   37.6446   24.9009   42.8423 H   0  0  0  0  0  0  0  0  0  0  0  0
  1  2  2  0
  1 16  1  0
  3  2  1  0
  4  3  2  0
  5  4  1  0
  5  6  2  0
  6  1  1  0
  7 15  1  0
  7  6  1  0
  8  7  2  0
  9  8  1  0
  9 10  1  0
 10 15  2  0
 11 10  1  0
 11 12  2  0
 12 13  1  0
 13 14  2  0
 15 14  1  0
 16 21  1  0
 17 18  2  0
 19 18  1  0
 20 21  1  0
 20 19  2  0
 21 22  2  0
 22 17  1  0
 23 19  1  0
  2 24  1  0
  3 25  1  0
  4 26  1  0
  5 27  1  0
  8 28  1  0
  9 29  1  0
 11 30  1  0
 12 31  1  0
 13 32  1  0
 14 33  1  0
 16 34  1  0
 16 35  1  0
 17 36  1  0
 18 37  1  0
 23 38  1  0
 23 39  1  0
M  ISO  8  24  14  25  14  26  14  27  14  28  14  29   9  30  14  31  14
M  ISO  6  32  14  33  14  34   8  35   8  36  14  37  14
M  END
>  <minimizedAffinity>  (1) 
-5.91287851

>  <minimizedRMSD>  (1) 
0.807118654

$$$$
