
     RDKit          3D

 39 41  0  0  0  0  0  0  0  0999 V2000
   36.4210   30.3330   39.8380 C   0  0  0  0  0  0  0  0  0  0  0  0
   36.5480   31.5380   40.5200 C   0  0  0  0  0  0  0  0  0  0  0  0
   37.1670   32.5680   39.8440 C   0  0  0  0  0  0  0  0  0  0  0  0
   37.6590   32.4920   38.5650 C   0  0  0  0  0  0  0  0  0  0  0  0
   37.5150   31.2720   37.9130 C   0  0  0  0  0  0  0  0  0  0  0  0
   36.9000   30.2090   38.5520 C   0  0  0  0  0  0  0  0  0  0  0  0
   36.8170   29.0170   37.7690 N   0  0  0  0  0  0  0  0  0  0  0  0
   35.7950   28.4660   36.9010 C   0  0  0  0  0  0  0  0  0  0  0  0
   36.3700   28.0790   35.5830 C   0  0  0  0  0  0  0  0  0  0  0  0
   37.7290   28.5150   35.4050 N   0  0  0  0  0  0  0  0  0  0  0  0
   38.5810   27.9580   36.4380 C   0  0  0  0  0  0  0  0  0  0  0  0
   37.9640   28.1160   37.7970 C   0  0  0  0  0  0  0  0  0  0  0  0
   35.7740   29.1770   40.4900 C   0  0  0  0  0  0  0  0  0  0  0  0
   37.9700   28.6350   43.4170 C   0  0  0  0  0  0  0  0  0  0  0  0
   38.1870   27.2370   43.3930 C   0  0  0  0  0  0  0  0  0  0  0  0
   37.5490   26.5410   42.3450 C   0  0  0  0  0  0  0  0  0  0  0  0
   36.8020   27.2060   41.4580 N   0  0  0  0  0  0  0  0  0  0  0  0
   36.6290   28.5540   41.5320 C   0  0  0  0  0  0  0  0  0  0  0  0
   37.2220   29.2340   42.5150 N   0  0  0  0  0  0  0  0  0  0  0  0
   37.6430   25.1350   42.1470 N   0  0  0  0  0  0  0  0  0  0  0  0
   36.1736   31.6632   41.5467 H   0  0  0  0  0  0  0  0  0  0  0  0
   37.2751   33.5270   40.3718 H   0  0  0  0  0  0  0  0  0  0  0  0
   38.1428   33.3526   38.0800 H   0  0  0  0  0  0  0  0  0  0  0  0
   37.8910   31.1513   36.8863 H   0  0  0  0  0  0  0  0  0  0  0  0
   35.3580   27.5766   37.3785 H   0  0  0  0  0  0  0  0  0  0  0  0
   35.0229   29.2320   36.7365 H   0  0  0  0  0  0  0  0  0  0  0  0
   36.3411   26.9827   35.4978 H   0  0  0  0  0  0  0  0  0  0  0  0
   35.7657   28.5712   34.8068 H   0  0  0  0  0  0  0  0  0  0  0  0
   38.0667   28.2039   34.4830 H   0  0  0  0  0  0  0  0  0  0  0  0
   38.7354   26.8876   36.2367 H   0  0  0  0  0  0  0  0  0  0  0  0
   39.5392   28.4981   36.4266 H   0  0  0  0  0  0  0  0  0  0  0  0
   38.7192   28.5221   38.4860 H   0  0  0  0  0  0  0  0  0  0  0  0
   37.6149   27.1279   38.1314 H   0  0  0  0  0  0  0  0  0  0  0  0
   34.8383   29.5157   40.9588 H   0  0  0  0  0  0  0  0  0  0  0  0
   35.5895   28.4188   39.7147 H   0  0  0  0  0  0  0  0  0  0  0  0
   38.4385   29.2365   44.2099 H   0  0  0  0  0  0  0  0  0  0  0  0
   38.8114   26.7271   44.1414 H   0  0  0  0  0  0  0  0  0  0  0  0
   37.1497   24.6918   41.3589 H   0  0  0  0  0  0  0  0  0  0  0  0
   38.2043   24.5605   42.7918 H   0  0  0  0  0  0  0  0  0  0  0  0
  1 13  1  0
  1  2  2  0
  3  2  1  0
  4  3  2  0
  5  6  2  0
  5  4  1  0
  6  1  1  0
  7 12  1  0
  7  6  1  0
  8  7  1  0
  9  8  1  0
 10  9  1  0
 10 11  1  0
 11 12  1  0
 13 18  1  0
 15 14  2  0
 16 15  1  0
 17 18  1  0
 17 16  2  0
 18 19  2  0
 19 14  1  0
 20 16  1  0
  2 21  1  0
  3 22  1  0
  4 23  1  0
  5 24  1  0
  8 25  1  0
  8 26  1  0
  9 27  1  0
  9 28  1  0
 10 29  1  0
 11 30  1  0
 11 31  1  0
 12 32  1  0
 12 33  1  0
 13 34  1  0
 13 35  1  0
 14 36  1  0
 15 37  1  0
 20 38  1  0
 20 39  1  0
M  ISO  8  21  14  22  14  23  14  24  14  25  13  26  13  27  13  28  13
M  ISO  8  29   5  30  13  31  13  32  13  33  13  34   8  35   8  36  14
M  ISO  1  37  14
M  END
>  <minimizedAffinity>  (1) 
-5.45248795

>  <minimizedRMSD>  (1) 
1.71853423

$$$$
