
     RDKit          3D

 32 34  0  0  0  0  0  0  0  0999 V2000
   35.6030   29.2920   40.8290 C   0  0  0  0  0  0  0  0  0  0  0  0
   37.9970   28.2510   43.4720 C   0  0  0  0  0  0  0  0  0  0  0  0
   38.2540   26.9230   43.1240 C   0  0  0  0  0  0  0  0  0  0  0  0
   37.6100   26.4110   42.0010 C   0  0  0  0  0  0  0  0  0  0  0  0
   36.7910   27.2280   41.3360 N   0  0  0  0  0  0  0  0  0  0  0  0
   36.5460   28.5060   41.6750 C   0  0  0  0  0  0  0  0  0  0  0  0
   37.1630   28.9910   42.7490 N   0  0  0  0  0  0  0  0  0  0  0  0
   37.7540   25.0880   41.5050 N   0  0  0  0  0  0  0  0  0  0  0  0
   36.2940   30.3710   40.0660 C   0  0  0  0  0  0  0  0  0  0  0  0
   36.7490   31.4910   40.7530 C   0  0  0  0  0  0  0  0  0  0  0  0
   37.3830   32.4690   40.0160 C   0  0  0  0  0  0  0  0  0  0  0  0
   37.5820   32.3880   38.6590 C   0  0  0  0  0  0  0  0  0  0  0  0
   37.1170   31.2630   38.0100 C   0  0  0  0  0  0  0  0  0  0  0  0
   36.4750   30.2550   38.7010 C   0  0  0  0  0  0  0  0  0  0  0  0
   35.9770   29.0460   37.9930 C   0  0  0  0  0  0  0  0  0  0  0  0
   34.5680   29.0160   37.4520 C   0  0  0  0  0  0  0  0  0  0  0  0
   35.6840   29.1310   36.5070 C   0  0  0  0  0  0  0  0  0  0  0  0
   35.1153   28.6109   40.1160 H   0  0  0  0  0  0  0  0  0  0  0  0
   34.8687   29.7678   41.4956 H   0  0  0  0  0  0  0  0  0  0  0  0
   38.4896   28.6885   44.3529 H   0  0  0  0  0  0  0  0  0  0  0  0
   38.9420   26.3027   43.7172 H   0  0  0  0  0  0  0  0  0  0  0  0
   37.2368   24.7941   40.6641 H   0  0  0  0  0  0  0  0  0  0  0  0
   38.3756   24.4224   41.9862 H   0  0  0  0  0  0  0  0  0  0  0  0
   36.6090   31.5927   41.8393 H   0  0  0  0  0  0  0  0  0  0  0  0
   37.7492   33.3623   40.5431 H   0  0  0  0  0  0  0  0  0  0  0  0
   38.0940   33.1917   38.1095 H   0  0  0  0  0  0  0  0  0  0  0  0
   37.2602   31.1675   36.9235 H   0  0  0  0  0  0  0  0  0  0  0  0
   36.5792   28.3999   38.6486 H   0  0  0  0  0  0  0  0  0  0  0  0
   33.9847   28.0845   37.4980 H   0  0  0  0  0  0  0  0  0  0  0  0
   33.6569   29.6020   37.6430 H   0  0  0  0  0  0  0  0  0  0  0  0
   35.9348   28.2853   35.8498 H   0  0  0  0  0  0  0  0  0  0  0  0
   35.9492   29.8363   35.7056 H   0  0  0  0  0  0  0  0  0  0  0  0
  1  6  1  0
  3  2  2  0
  4  3  1  0
  5  6  1  0
  5  4  2  0
  6  7  2  0
  7  2  1  0
  8  4  1  0
  9 10  2  0
  9  1  1  0
 11 10  1  0
 12 11  2  0
 13 12  1  0
 13 14  2  0
 14  9  1  0
 15 14  1  0
 16 15  1  0
 17 16  1  0
 17 15  1  0
  1 18  1  0
  1 19  1  0
  2 20  1  0
  3 21  1  0
  8 22  1  0
  8 23  1  0
 10 24  1  0
 11 25  1  0
 12 26  1  0
 13 27  1  0
 15 28  1  0
 16 29  1  0
 16 30  1  0
 17 31  1  0
 17 32  1  0
M  ISO  8  18   8  19   8  20  14  21  14  24  14  25  14  26  14  27  14
M  ISO  5  28  13  29  13  30  13  31  13  32  13
M  END
>  <minimizedAffinity>  (1) 
-5.13276482

>  <minimizedRMSD>  (1) 
1.19556308

$$$$
