
     RDKit          3D

 28 29  0  0  0  0  0  0  0  0999 V2000
   35.5940   29.7250   40.6740 C   0  0  0  0  0  0  0  0  0  0  0  0
   38.1770   28.9780   43.2510 C   0  0  0  0  0  0  0  0  0  0  0  0
   38.1710   27.5770   43.2830 C   0  0  0  0  0  0  0  0  0  0  0  0
   37.2740   26.9560   42.4180 C   0  0  0  0  0  0  0  0  0  0  0  0
   36.5060   27.7100   41.6430 N   0  0  0  0  0  0  0  0  0  0  0  0
   36.5290   29.0470   41.6300 C   0  0  0  0  0  0  0  0  0  0  0  0
   37.3790   29.6530   42.4500 N   0  0  0  0  0  0  0  0  0  0  0  0
   37.1210   25.5390   42.3240 N   0  0  0  0  0  0  0  0  0  0  0  0
   36.3220   30.4210   39.5890 C   0  0  0  0  0  0  0  0  0  0  0  0
   36.9680   31.6340   39.8070 C   0  0  0  0  0  0  0  0  0  0  0  0
   37.6270   32.2210   38.7540 C   0  0  0  0  0  0  0  0  0  0  0  0
   37.6840   31.6790   37.4950 C   0  0  0  0  0  0  0  0  0  0  0  0
   37.0370   30.4800   37.3080 C   0  0  0  0  0  0  0  0  0  0  0  0
   36.3460   29.8260   38.3350 C   0  0  0  0  0  0  0  0  0  0  0  0
   35.7130   28.5450   37.9270 C   0  0  0  0  0  0  0  0  0  0  0  0
   34.3480   28.5210   38.2620 F   0  0  0  0  0  0  0  0  0  0  0  0
   36.2760   27.4440   38.5400 F   0  0  0  0  0  0  0  0  0  0  0  0
   35.6720   28.3900   36.5400 F   0  0  0  0  0  0  0  0  0  0  0  0
   34.9307   28.9688   40.2289 H   0  0  0  0  0  0  0  0  0  0  0  0
   35.0190   30.4764   41.2350 H   0  0  0  0  0  0  0  0  0  0  0  0
   38.8649   29.5270   43.9109 H   0  0  0  0  0  0  0  0  0  0  0  0
   38.8329   27.0043   43.9492 H   0  0  0  0  0  0  0  0  0  0  0  0
   36.4397   25.1372   41.6642 H   0  0  0  0  0  0  0  0  0  0  0  0
   37.6919   24.9190   42.9160 H   0  0  0  0  0  0  0  0  0  0  0  0
   36.9515   32.1112   40.7980 H   0  0  0  0  0  0  0  0  0  0  0  0
   38.1375   33.1793   38.9303 H   0  0  0  0  0  0  0  0  0  0  0  0
   38.2209   32.1789   36.6753 H   0  0  0  0  0  0  0  0  0  0  0  0
   37.0635   30.0160   36.3110 H   0  0  0  0  0  0  0  0  0  0  0  0
  1  6  1  0
  2  3  2  0
  4  3  1  0
  5  4  2  0
  6  5  1  0
  6  7  2  0
  7  2  1  0
  8  4  1  0
  9 10  2  0
  9  1  1  0
 11 10  1  0
 12 11  2  0
 13 12  1  0
 13 14  2  0
 14  9  1  0
 15 16  1  0
 15 14  1  0
 15 17  1  0
 18 15  1  0
  1 19  1  0
  1 20  1  0
  2 21  1  0
  3 22  1  0
  8 23  1  0
  8 24  1  0
 10 25  1  0
 11 26  1  0
 12 27  1  0
 13 28  1  0
M  ISO  8  19   8  20   8  21  14  22  14  25  14  26  14  27  14  28  14
M  END
>  <minimizedAffinity>  (1) 
-5.06714439

>  <minimizedRMSD>  (1) 
0.226511791

$$$$
