
     RDKit          3D

 37 39  0  0  1  0  0  0  0  0999 V2000
   39.1820   26.0160   42.2560 C   0  0  1  0  0  0  0  0  0  0  0  0
   38.9760   24.6230   41.6170 C   0  0  0  0  0  0  0  0  0  0  0  0
   37.5860   24.2180   42.0080 C   0  0  0  0  0  0  0  0  0  0  0  0
   36.9130   25.5620   42.1840 C   0  0  0  0  0  0  0  0  0  0  0  0
   37.9620   26.2550   43.0450 C   0  0  2  0  0  0  0  0  0  0  0  0
   41.9250   26.9800   44.6630 C   0  0  0  0  0  0  0  0  0  0  0  0
   40.6670   26.9960   44.0500 C   0  0  0  0  0  0  0  0  0  0  0  0
   40.4390   26.1020   42.9820 C   0  0  0  0  0  0  0  0  0  0  0  0
   41.4360   25.2600   42.5800 N   0  0  0  0  0  0  0  0  0  0  0  0
   42.6420   25.2790   43.2030 C   0  0  0  0  0  0  0  0  0  0  0  0
   42.8870   26.1290   44.2350 N   0  0  0  0  0  0  0  0  0  0  0  0
   37.4970   27.6550   43.1650 C   0  0  2  0  0  0  0  0  0  0  0  0
   36.8480   28.0300   44.4440 C   0  0  0  0  0  0  0  0  0  0  0  0
   36.4850   27.8650   42.0540 C   0  0  0  0  0  0  0  0  0  0  0  0
   36.8020   29.2550   41.5790 C   0  0  0  0  0  0  0  0  0  0  0  0
   38.0540   29.7910   41.6350 N   0  0  0  0  0  0  0  0  0  0  0  0
   38.0340   31.0150   41.1530 O   0  0  0  0  0  0  0  0  0  0  0  0
   36.8130   31.3120   40.7790 C   0  0  0  0  0  0  0  0  0  0  0  0
   36.0370   30.2440   41.0310 N   0  0  0  0  0  0  0  0  0  0  0  0
   39.2976   26.8229   41.5174 H   0  0  0  0  0  0  0  0  0  0  0  0
   39.7122   23.9055   42.0084 H   0  0  0  0  0  0  0  0  0  0  0  0
   39.1079   24.6458   40.5252 H   0  0  0  0  0  0  0  0  0  0  0  0
   37.1023   23.6281   41.2155 H   0  0  0  0  0  0  0  0  0  0  0  0
   37.5422   23.5764   42.9004 H   0  0  0  0  0  0  0  0  0  0  0  0
   36.7653   26.0764   41.2230 H   0  0  0  0  0  0  0  0  0  0  0  0
   35.9013   25.5272   42.6144 H   0  0  0  0  0  0  0  0  0  0  0  0
   38.1383   25.9218   44.0784 H   0  0  0  0  0  0  0  0  0  0  0  0
   42.1337   27.6640   45.4988 H   0  0  0  0  0  0  0  0  0  0  0  0
   39.8796   27.6846   44.3903 H   0  0  0  0  0  0  0  0  0  0  0  0
   43.4348   24.5946   42.8668 H   0  0  0  0  0  0  0  0  0  0  0  0
   38.3963   28.2859   43.1087 H   0  0  0  0  0  0  0  0  0  0  0  0
   37.4622   27.6751   45.2847 H   0  0  0  0  0  0  0  0  0  0  0  0
   36.7495   29.1242   44.4982 H   0  0  0  0  0  0  0  0  0  0  0  0
   35.8508   27.5689   44.4982 H   0  0  0  0  0  0  0  0  0  0  0  0
   36.6221   27.1292   41.2479 H   0  0  0  0  0  0  0  0  0  0  0  0
   35.4426   27.7427   42.3833 H   0  0  0  0  0  0  0  0  0  0  0  0
   36.4830   32.2642   40.3382 H   0  0  0  0  0  0  0  0  0  0  0  0
  1  8  1  0
  1  5  1  0
  2  3  1  0
  2  1  1  0
  3  4  1  0
  4  5  1  0
  5 12  1  0
  7  6  2  0
  8  7  1  0
  9  8  2  0
  9 10  1  0
 10 11  2  0
 11  6  1  0
 12 13  1  0
 14 12  1  0
 15 16  2  0
 15 14  1  0
 17 16  1  0
 18 19  2  0
 18 17  1  0
 19 15  1  0
  1 20  1  6
  2 21  1  0
  2 22  1  0
  3 23  1  0
  3 24  1  0
  4 25  1  0
  4 26  1  0
  5 27  1  1
  6 28  1  0
  7 29  1  0
 10 30  1  0
 12 31  1  6
 13 32  1  0
 13 33  1  0
 13 34  1  0
 14 35  1  0
 14 36  1  0
 18 37  1  0
M  ISO  8  20  13  21  13  22  13  23  13  24  13  25  13  26  13  27  13
M  ISO  8  28  14  29  14  30  14  31   8  32   8  33   8  34   8  35   8
M  ISO  2  36   8  37  14
M  END
>  <minimizedAffinity>  (1) 
-5.34493494

>  <minimizedRMSD>  (1) 
1.01373267

$$$$
