
     RDKit          3D

 32 33  0  0  0  0  0  0  0  0999 V2000
   36.3690   30.3930   39.5750 C   0  0  0  0  0  0  0  0  0  0  0  0
   36.9900   31.6130   39.4980 C   0  0  0  0  0  0  0  0  0  0  0  0
   37.5440   32.0100   38.3030 C   0  0  0  0  0  0  0  0  0  0  0  0
   37.5080   31.2410   37.1640 C   0  0  0  0  0  0  0  0  0  0  0  0
   36.8800   30.0170   37.2570 C   0  0  0  0  0  0  0  0  0  0  0  0
   36.3050   29.5680   38.4430 C   0  0  0  0  0  0  0  0  0  0  0  0
   35.6750   28.2930   38.5030 N   0  0  0  0  0  0  0  0  0  0  0  0
   34.4080   27.9700   37.9280 C   0  0  0  0  0  0  0  0  0  0  0  0
   33.4940   28.8700   38.1740 N   0  0  0  0  0  0  0  0  0  0  0  0
   34.3090   26.7380   37.1810 N   0  0  0  0  0  0  0  0  0  0  0  0
   32.5620   28.6580   37.7650 H   0  0  0  0  0  0  0  0  0  0  0  0
   35.7710   29.9650   40.8600 C   0  0  0  0  0  0  0  0  0  0  0  0
   38.4750   28.9430   43.1630 C   0  0  0  0  0  0  0  0  0  0  0  0
   38.3690   27.5330   43.1840 C   0  0  0  0  0  0  0  0  0  0  0  0
   37.3510   26.9810   42.3830 C   0  0  0  0  0  0  0  0  0  0  0  0
   36.5710   27.8040   41.6780 N   0  0  0  0  0  0  0  0  0  0  0  0
   36.6900   29.1420   41.6750 C   0  0  0  0  0  0  0  0  0  0  0  0
   37.6550   29.6880   42.4310 N   0  0  0  0  0  0  0  0  0  0  0  0
   37.0810   25.5980   42.2630 N   0  0  0  0  0  0  0  0  0  0  0  0
   37.0446   32.2665   40.3812 H   0  0  0  0  0  0  0  0  0  0  0  0
   38.0400   32.9907   38.2566 H   0  0  0  0  0  0  0  0  0  0  0  0
   37.9593   31.5862   36.2221 H   0  0  0  0  0  0  0  0  0  0  0  0
   36.8317   29.3745   36.3655 H   0  0  0  0  0  0  0  0  0  0  0  0
   36.1734   27.5421   39.0017 H   0  0  0  0  0  0  0  0  0  0  0  0
   35.1343   26.1303   37.0782 H   0  0  0  0  0  0  0  0  0  0  0  0
   33.4131   26.4670   36.7511 H   0  0  0  0  0  0  0  0  0  0  0  0
   35.4978   30.8614   41.4361 H   0  0  0  0  0  0  0  0  0  0  0  0
   34.8923   29.3461   40.6259 H   0  0  0  0  0  0  0  0  0  0  0  0
   39.2535   29.4332   43.7660 H   0  0  0  0  0  0  0  0  0  0  0  0
   39.0405   26.9060   43.7889 H   0  0  0  0  0  0  0  0  0  0  0  0
   36.3160   25.2735   41.6543 H   0  0  0  0  0  0  0  0  0  0  0  0
   37.6493   24.9152   42.7843 H   0  0  0  0  0  0  0  0  0  0  0  0
  1 12  1  0
  2  1  2  0
  3  2  1  0
  4  5  1  0
  4  3  2  0
  5  6  2  0
  6  7  1  0
  6  1  1  0
  8  9  2  0
  8  7  1  0
 10  8  1  0
 11  9  1  0
 12 17  1  0
 13 14  2  0
 15 14  1  0
 16 15  2  0
 17 16  1  0
 17 18  2  0
 18 13  1  0
 19 15  1  0
  2 20  1  0
  3 21  1  0
  4 22  1  0
  5 23  1  0
  7 24  1  0
 10 25  1  0
 10 26  1  0
 12 27  1  0
 12 28  1  0
 13 29  1  0
 14 30  1  0
 19 31  1  0
 19 32  1  0
M  ISO  8  20  14  21  14  22  14  23  14  27   8  28   8  29  14  30  14
M  END
>  <minimizedAffinity>  (1) 
-4.98310757

>  <minimizedRMSD>  (1) 
0.557417452

$$$$
