
     RDKit          3D

 26 27  0  0  0  0  0  0  0  0999 V2000
   35.6140   29.6980   40.6410 C   0  0  0  0  0  0  0  0  0  0  0  0
   38.1320   29.0040   43.2510 C   0  0  0  0  0  0  0  0  0  0  0  0
   38.1700   27.6050   43.3060 C   0  0  0  0  0  0  0  0  0  0  0  0
   37.3050   26.9280   42.4170 C   0  0  0  0  0  0  0  0  0  0  0  0
   36.5150   27.6470   41.5930 N   0  0  0  0  0  0  0  0  0  0  0  0
   36.5170   29.0040   41.5820 C   0  0  0  0  0  0  0  0  0  0  0  0
   37.3340   29.6480   42.4200 N   0  0  0  0  0  0  0  0  0  0  0  0
   37.1810   25.5120   42.3040 N   0  0  0  0  0  0  0  0  0  0  0  0
   36.3420   30.4010   39.5540 C   0  0  0  0  0  0  0  0  0  0  0  0
   36.9100   31.6270   39.8010 C   0  0  0  0  0  0  0  0  0  0  0  0
   37.5780   32.2350   38.7460 C   0  0  0  0  0  0  0  0  0  0  0  0
   37.6950   31.6710   37.4780 C   0  0  0  0  0  0  0  0  0  0  0  0
   37.1070   30.4270   37.2610 C   0  0  0  0  0  0  0  0  0  0  0  0
   36.4370   29.8030   38.2960 C   0  0  0  0  0  0  0  0  0  0  0  0
   35.6920   28.2220   38.0160 S   0  0  0  0  0  0  0  0  0  0  0  0
   34.9400   28.9554   40.1890 H   0  0  0  0  0  0  0  0  0  0  0  0
   35.0612   30.4576   41.2132 H   0  0  0  0  0  0  0  0  0  0  0  0
   38.7861   29.5828   43.9197 H   0  0  0  0  0  0  0  0  0  0  0  0
   38.8328   27.0661   43.9990 H   0  0  0  0  0  0  0  0  0  0  0  0
   36.5217   25.1053   41.6252 H   0  0  0  0  0  0  0  0  0  0  0  0
   37.7508   24.8958   42.9012 H   0  0  0  0  0  0  0  0  0  0  0  0
   36.8391   32.1053   40.7890 H   0  0  0  0  0  0  0  0  0  0  0  0
   38.0407   33.2173   38.9218 H   0  0  0  0  0  0  0  0  0  0  0  0
   38.2348   32.1915   36.6732 H   0  0  0  0  0  0  0  0  0  0  0  0
   37.1754   29.9456   36.2743 H   0  0  0  0  0  0  0  0  0  0  0  0
   35.4127   27.6293   39.2191 H   0  0  0  0  0  0  0  0  0  0  0  0
  1  6  1  0
  2  3  2  0
  4  3  1  0
  5  4  2  0
  6  5  1  0
  6  7  2  0
  7  2  1  0
  8  4  1  0
  9 10  2  0
  9  1  1  0
 11 10  1  0
 12 11  2  0
 13 12  1  0
 13 14  2  0
 14  9  1  0
 15 14  1  0
  1 16  1  0
  1 17  1  0
  2 18  1  0
  3 19  1  0
  8 20  1  0
  8 21  1  0
 10 22  1  0
 11 23  1  0
 12 24  1  0
 13 25  1  0
 15 26  1  0
M  ISO  8  16   8  17   8  18  14  19  14  22  14  23  14  24  14  25  14
M  ISO  1  26  11
M  END
>  <minimizedAffinity>  (1) 
-4.73318815

>  <minimizedRMSD>  (1) 
0.103897184

$$$$
