
     RDKit          3D

 27 28  0  0  0  0  0  0  0  0999 V2000
   35.6530   29.7070   40.7100 C   0  0  0  0  0  0  0  0  0  0  0  0
   38.1890   28.8570   43.2920 C   0  0  0  0  0  0  0  0  0  0  0  0
   38.2450   27.4510   43.2160 C   0  0  0  0  0  0  0  0  0  0  0  0
   37.3930   26.8570   42.2640 C   0  0  0  0  0  0  0  0  0  0  0  0
   36.5970   27.6150   41.5010 N   0  0  0  0  0  0  0  0  0  0  0  0
   36.5800   28.9730   41.6140 C   0  0  0  0  0  0  0  0  0  0  0  0
   37.3750   29.5590   42.5050 N   0  0  0  0  0  0  0  0  0  0  0  0
   37.3290   25.4520   42.0630 N   0  0  0  0  0  0  0  0  0  0  0  0
   36.3690   30.3570   39.5830 C   0  0  0  0  0  0  0  0  0  0  0  0
   36.8430   31.6520   39.6920 C   0  0  0  0  0  0  0  0  0  0  0  0
   37.4960   32.1820   38.5980 C   0  0  0  0  0  0  0  0  0  0  0  0
   37.7000   31.5080   37.4190 C   0  0  0  0  0  0  0  0  0  0  0  0
   37.2160   30.2040   37.3270 C   0  0  0  0  0  0  0  0  0  0  0  0
   36.5490   29.6300   38.4090 C   0  0  0  0  0  0  0  0  0  0  0  0
   36.0880   28.3030   38.2330 N   0  0  0  0  0  0  0  0  0  0  0  0
   34.9195   28.9964   40.3014 H   0  0  0  0  0  0  0  0  0  0  0  0
   35.1605   30.4955   41.2979 H   0  0  0  0  0  0  0  0  0  0  0  0
   38.8292   29.3846   44.0144 H   0  0  0  0  0  0  0  0  0  0  0  0
   38.9107   26.8558   43.8583 H   0  0  0  0  0  0  0  0  0  0  0  0
   36.6908   25.0616   41.3551 H   0  0  0  0  0  0  0  0  0  0  0  0
   37.9208   24.8238   42.6252 H   0  0  0  0  0  0  0  0  0  0  0  0
   36.7049   32.2359   40.6139 H   0  0  0  0  0  0  0  0  0  0  0  0
   37.8778   33.2107   38.6753 H   0  0  0  0  0  0  0  0  0  0  0  0
   38.2268   31.9805   36.5769 H   0  0  0  0  0  0  0  0  0  0  0  0
   37.3601   29.6278   36.4011 H   0  0  0  0  0  0  0  0  0  0  0  0
   35.5883   27.8258   38.9969 H   0  0  0  0  0  0  0  0  0  0  0  0
   36.2523   27.8147   37.3411 H   0  0  0  0  0  0  0  0  0  0  0  0
  1  6  1  0
  3  2  2  0
  4  3  1  0
  5  6  1  0
  5  4  2  0
  6  7  2  0
  7  2  1  0
  8  4  1  0
  9 10  2  0
  9  1  1  0
 11 10  1  0
 12 11  2  0
 13 12  1  0
 13 14  2  0
 14  9  1  0
 15 14  1  0
  1 16  1  0
  1 17  1  0
  2 18  1  0
  3 19  1  0
  8 20  1  0
  8 21  1  0
 10 22  1  0
 11 23  1  0
 12 24  1  0
 13 25  1  0
 15 26  1  0
 15 27  1  0
M  ISO  8  16   8  17   8  18  14  19  14  22  14  23  14  24  14  25  14
M  END
>  <minimizedAffinity>  (1) 
-4.60936356

>  <minimizedRMSD>  (1) 
0.167320222

$$$$
