
     RDKit          3D

 44 47  0  0  0  0  0  0  0  0999 V2000
   36.3150   30.1810   39.7450 C   0  0  0  0  0  0  0  0  0  0  0  0
   36.5770   31.5020   40.0380 C   0  0  0  0  0  0  0  0  0  0  0  0
   37.2140   32.2720   39.0760 C   0  0  0  0  0  0  0  0  0  0  0  0
   37.5960   31.7860   37.8410 C   0  0  0  0  0  0  0  0  0  0  0  0
   37.3270   30.4640   37.5610 C   0  0  0  0  0  0  0  0  0  0  0  0
   36.6960   29.6840   38.5030 C   0  0  0  0  0  0  0  0  0  0  0  0
   35.6500   29.3330   40.7560 C   0  0  0  0  0  0  0  0  0  0  0  0
   38.1690   28.7650   43.4000 C   0  0  0  0  0  0  0  0  0  0  0  0
   38.3420   27.3790   43.3810 C   0  0  0  0  0  0  0  0  0  0  0  0
   37.5770   26.6600   42.4450 C   0  0  0  0  0  0  0  0  0  0  0  0
   36.7590   27.3560   41.6600 N   0  0  0  0  0  0  0  0  0  0  0  0
   36.6120   28.6900   41.6990 C   0  0  0  0  0  0  0  0  0  0  0  0
   37.3300   29.3970   42.5820 N   0  0  0  0  0  0  0  0  0  0  0  0
   37.6340   25.2680   42.2950 N   0  0  0  0  0  0  0  0  0  0  0  0
   36.3790   28.2440   38.2140 C   0  0  0  0  0  0  0  0  0  0  0  0
   35.0690   28.0980   37.5310 C   0  0  0  0  0  0  0  0  0  0  0  0
   34.3490   29.1940   37.1240 C   0  0  0  0  0  0  0  0  0  0  0  0
   33.1200   29.1060   36.4690 C   0  0  0  0  0  0  0  0  0  0  0  0
   32.5790   27.8640   36.2070 C   0  0  0  0  0  0  0  0  0  0  0  0
   33.2860   26.7330   36.6070 C   0  0  0  0  0  0  0  0  0  0  0  0
   32.7340   25.5010   36.3380 C   0  0  0  0  0  0  0  0  0  0  0  0
   33.4070   24.3470   36.7210 C   0  0  0  0  0  0  0  0  0  0  0  0
   34.6190   24.4610   37.3670 C   0  0  0  0  0  0  0  0  0  0  0  0
   35.1290   25.7190   37.6120 C   0  0  0  0  0  0  0  0  0  0  0  0
   34.4850   26.8830   37.2440 C   0  0  0  0  0  0  0  0  0  0  0  0
   36.2889   31.9337   41.0079 H   0  0  0  0  0  0  0  0  0  0  0  0
   37.4262   33.3258   39.3092 H   0  0  0  0  0  0  0  0  0  0  0  0
   38.0979   32.4323   37.1059 H   0  0  0  0  0  0  0  0  0  0  0  0
   37.6149   30.0345   36.5901 H   0  0  0  0  0  0  0  0  0  0  0  0
   34.9549   29.9580   41.3358 H   0  0  0  0  0  0  0  0  0  0  0  0
   35.1266   28.5282   40.2189 H   0  0  0  0  0  0  0  0  0  0  0  0
   38.7501   29.3589   44.1208 H   0  0  0  0  0  0  0  0  0  0  0  0
   39.0416   26.8750   44.0640 H   0  0  0  0  0  0  0  0  0  0  0  0
   37.0465   24.8016   41.5892 H   0  0  0  0  0  0  0  0  0  0  0  0
   38.2634   24.7112   42.8906 H   0  0  0  0  0  0  0  0  0  0  0  0
   37.1663   27.8280   37.5682 H   0  0  0  0  0  0  0  0  0  0  0  0
   36.3294   27.7044   39.1713 H   0  0  0  0  0  0  0  0  0  0  0  0
   34.7625   30.1934   37.3247 H   0  0  0  0  0  0  0  0  0  0  0  0
   32.5871   30.0188   36.1642 H   0  0  0  0  0  0  0  0  0  0  0  0
   31.6108   27.7694   35.6936 H   0  0  0  0  0  0  0  0  0  0  0  0
   31.7649   25.4303   35.8224 H   0  0  0  0  0  0  0  0  0  0  0  0
   32.9781   23.3560   36.5114 H   0  0  0  0  0  0  0  0  0  0  0  0
   35.1709   23.5632   37.6822 H   0  0  0  0  0  0  0  0  0  0  0  0
   36.0979   25.7986   38.1267 H   0  0  0  0  0  0  0  0  0  0  0  0
  1  2  2  0
  1  7  1  0
  3  2  1  0
  4  3  2  0
  5  4  1  0
  5  6  2  0
  6  1  1  0
  7 12  1  0
  9  8  2  0
 10  9  1  0
 11 12  1  0
 11 10  2  0
 12 13  2  0
 13  8  1  0
 14 10  1  0
 15  6  1  0
 16 15  1  0
 17 16  2  0
 18 17  1  0
 19 18  2  0
 19 20  1  0
 20 25  2  0
 21 20  1  0
 21 22  2  0
 22 23  1  0
 23 24  2  0
 25 16  1  0
 25 24  1  0
  2 26  1  0
  3 27  1  0
  4 28  1  0
  5 29  1  0
  7 30  1  0
  7 31  1  0
  8 32  1  0
  9 33  1  0
 14 34  1  0
 14 35  1  0
 15 36  1  0
 15 37  1  0
 17 38  1  0
 18 39  1  0
 19 40  1  0
 21 41  1  0
 22 42  1  0
 23 43  1  0
 24 44  1  0
M  ISO  8  26  14  27  14  28  14  29  14  30   8  31   8  32  14  33  14
M  ISO  8  36   8  37   8  38  14  39  14  40  14  41  14  42  14  43  14
M  ISO  1  44  14
M  END
>  <minimizedAffinity>  (1) 
-5.92963266

>  <minimizedRMSD>  (1) 
1.10763288

$$$$
