
     RDKit          3D

 42 45  0  0  0  0  0  0  0  0999 V2000
   36.3300   30.2790   39.6360 C   0  0  0  0  0  0  0  0  0  0  0  0
   36.7220   31.5810   39.9280 C   0  0  0  0  0  0  0  0  0  0  0  0
   37.3790   32.3030   38.9620 C   0  0  0  0  0  0  0  0  0  0  0  0
   37.6690   31.7950   37.7070 C   0  0  0  0  0  0  0  0  0  0  0  0
   37.2780   30.5090   37.4270 C   0  0  0  0  0  0  0  0  0  0  0  0
   36.6150   29.7660   38.3910 C   0  0  0  0  0  0  0  0  0  0  0  0
   35.6250   29.5080   40.6800 C   0  0  0  0  0  0  0  0  0  0  0  0
   38.1080   28.8890   43.3410 C   0  0  0  0  0  0  0  0  0  0  0  0
   38.2170   27.4990   43.3450 C   0  0  0  0  0  0  0  0  0  0  0  0
   37.4280   26.7930   42.4250 C   0  0  0  0  0  0  0  0  0  0  0  0
   36.6250   27.4930   41.6060 N   0  0  0  0  0  0  0  0  0  0  0  0
   36.5450   28.8390   41.6300 C   0  0  0  0  0  0  0  0  0  0  0  0
   37.2910   29.5230   42.5020 N   0  0  0  0  0  0  0  0  0  0  0  0
   37.4140   25.3850   42.2920 N   0  0  0  0  0  0  0  0  0  0  0  0
   36.1720   28.3640   38.1300 C   0  0  0  0  0  0  0  0  0  0  0  0
   35.6090   28.1710   36.7900 C   0  0  0  0  0  0  0  0  0  0  0  0
   36.3140   27.6450   35.7450 N   0  0  0  0  0  0  0  0  0  0  0  0
   35.7680   27.4820   34.5330 C   0  0  0  0  0  0  0  0  0  0  0  0
   34.5100   27.8030   34.2050 N   0  0  0  0  0  0  0  0  0  0  0  0
   33.7520   28.3360   35.2090 C   0  0  0  0  0  0  0  0  0  0  0  0
   32.4450   28.6930   34.9540 C   0  0  0  0  0  0  0  0  0  0  0  0
   31.6580   29.2320   35.9430 C   0  0  0  0  0  0  0  0  0  0  0  0
   32.1620   29.4310   37.2340 C   0  0  0  0  0  0  0  0  0  0  0  0
   33.4640   29.0650   37.4580 C   0  0  0  0  0  0  0  0  0  0  0  0
   34.3010   28.5140   36.4830 C   0  0  0  0  0  0  0  0  0  0  0  0
   36.5102   32.0235   40.9125 H   0  0  0  0  0  0  0  0  0  0  0  0
   37.6891   33.3321   39.1960 H   0  0  0  0  0  0  0  0  0  0  0  0
   38.1965   32.4031   36.9573 H   0  0  0  0  0  0  0  0  0  0  0  0
   37.4902   30.0699   36.4410 H   0  0  0  0  0  0  0  0  0  0  0  0
   34.9772   30.1946   41.2448 H   0  0  0  0  0  0  0  0  0  0  0  0
   35.0480   28.7207   40.1728 H   0  0  0  0  0  0  0  0  0  0  0  0
   38.7118   29.4764   44.0484 H   0  0  0  0  0  0  0  0  0  0  0  0
   38.8926   26.9785   44.0397 H   0  0  0  0  0  0  0  0  0  0  0  0
   36.8052   24.9400   41.5904 H   0  0  0  0  0  0  0  0  0  0  0  0
   38.0126   24.8046   42.8967 H   0  0  0  0  0  0  0  0  0  0  0  0
   37.0397   27.6974   38.2429 H   0  0  0  0  0  0  0  0  0  0  0  0
   35.3751   28.1354   38.8530 H   0  0  0  0  0  0  0  0  0  0  0  0
   36.4028   27.0505   33.7451 H   0  0  0  0  0  0  0  0  0  0  0  0
   32.0274   28.5446   33.9472 H   0  0  0  0  0  0  0  0  0  0  0  0
   30.6181   29.5109   35.7175 H   0  0  0  0  0  0  0  0  0  0  0  0
   31.5408   29.8619   38.0331 H   0  0  0  0  0  0  0  0  0  0  0  0
   33.8756   29.2140   38.4671 H   0  0  0  0  0  0  0  0  0  0  0  0
  1  2  2  0
  1  7  1  0
  3  2  1  0
  4  3  2  0
  5  4  1  0
  5  6  2  0
  6  1  1  0
  7 12  1  0
  8  9  2  0
 10  9  1  0
 11 12  1  0
 11 10  2  0
 12 13  2  0
 13  8  1  0
 14 10  1  0
 15  6  1  0
 16 15  1  0
 17 16  2  0
 18 17  1  0
 19 18  2  0
 19 20  1  0
 20 25  2  0
 21 20  1  0
 21 22  2  0
 22 23  1  0
 23 24  2  0
 25 16  1  0
 25 24  1  0
  2 26  1  0
  3 27  1  0
  4 28  1  0
  5 29  1  0
  7 30  1  0
  7 31  1  0
  8 32  1  0
  9 33  1  0
 14 34  1  0
 14 35  1  0
 15 36  1  0
 15 37  1  0
 18 38  1  0
 21 39  1  0
 22 40  1  0
 23 41  1  0
 24 42  1  0
M  ISO  8  26  14  27  14  28  14  29  14  30   8  31   8  32  14  33  14
M  ISO  7  36   8  37   8  38  14  39  14  40  14  41  14  42  14
M  END
>  <minimizedAffinity>  (1) 
-5.91790533

>  <minimizedRMSD>  (1) 
1.5135138

$$$$
