
     RDKit          3D

 35 37  0  0  0  0  0  0  0  0999 V2000
   36.3200   30.3870   39.9870 C   0  0  0  0  0  0  0  0  0  0  0  0
   36.6520   31.5810   40.5760 C   0  0  0  0  0  0  0  0  0  0  0  0
   37.2820   32.5430   39.8260 C   0  0  0  0  0  0  0  0  0  0  0  0
   37.6040   32.3740   38.4970 C   0  0  0  0  0  0  0  0  0  0  0  0
   37.2700   31.1680   37.9020 C   0  0  0  0  0  0  0  0  0  0  0  0
   36.6320   30.1990   38.6640 C   0  0  0  0  0  0  0  0  0  0  0  0
   35.6420   29.3350   40.7700 C   0  0  0  0  0  0  0  0  0  0  0  0
   38.0730   28.5400   43.4560 C   0  0  0  0  0  0  0  0  0  0  0  0
   38.2440   27.1690   43.3130 C   0  0  0  0  0  0  0  0  0  0  0  0
   37.5170   26.5500   42.2930 C   0  0  0  0  0  0  0  0  0  0  0  0
   36.7120   27.2810   41.5230 N   0  0  0  0  0  0  0  0  0  0  0  0
   36.5650   28.6190   41.6870 C   0  0  0  0  0  0  0  0  0  0  0  0
   37.2570   29.2390   42.6640 N   0  0  0  0  0  0  0  0  0  0  0  0
   37.5690   25.1630   42.0070 N   0  0  0  0  0  0  0  0  0  0  0  0
   36.2660   28.8930   38.0340 C   0  0  0  0  0  0  0  0  0  0  0  0
   36.4510   28.9080   36.5650 C   0  0  0  0  0  0  0  0  0  0  0  0
   35.5020   29.3030   35.6240 C   0  0  0  0  0  0  0  0  0  0  0  0
   36.0200   29.1860   34.3490 C   0  0  0  0  0  0  0  0  0  0  0  0
   37.2570   28.7310   34.5310 N   0  0  0  0  0  0  0  0  0  0  0  0
   37.5190   28.5650   35.8160 N   0  0  0  0  0  0  0  0  0  0  0  0
   36.4166   31.7649   41.6347 H   0  0  0  0  0  0  0  0  0  0  0  0
   37.5426   33.4958   40.3100 H   0  0  0  0  0  0  0  0  0  0  0  0
   38.1087   33.1688   37.9281 H   0  0  0  0  0  0  0  0  0  0  0  0
   37.5064   30.9817   36.8440 H   0  0  0  0  0  0  0  0  0  0  0  0
   34.8434   29.7999   41.3668 H   0  0  0  0  0  0  0  0  0  0  0  0
   35.2414   28.5975   40.0590 H   0  0  0  0  0  0  0  0  0  0  0  0
   38.6275   29.0663   44.2469 H   0  0  0  0  0  0  0  0  0  0  0  0
   38.9179   26.5993   43.9697 H   0  0  0  0  0  0  0  0  0  0  0  0
   37.0046   24.7742   41.2381 H   0  0  0  0  0  0  0  0  0  0  0  0
   38.1712   24.5437   42.5680 H   0  0  0  0  0  0  0  0  0  0  0  0
   36.9003   28.1031   38.4626 H   0  0  0  0  0  0  0  0  0  0  0  0
   35.2012   28.7070   38.2379 H   0  0  0  0  0  0  0  0  0  0  0  0
   34.4879   29.6565   35.8621 H   0  0  0  0  0  0  0  0  0  0  0  0
   35.5214   29.4173   33.3962 H   0  0  0  0  0  0  0  0  0  0  0  0
   37.9231   28.5340   33.7704 H   0  0  0  0  0  0  0  0  0  0  0  0
  1  2  2  0
  1  7  1  0
  3  2  1  0
  4  3  2  0
  5  4  1  0
  5  6  2  0
  6  1  1  0
  7 12  1  0
  9  8  2  0
 10  9  1  0
 11 12  1  0
 11 10  2  0
 12 13  2  0
 13  8  1  0
 14 10  1  0
 15  6  1  0
 16 15  1  0
 17 16  1  0
 18 19  1  0
 18 17  2  0
 19 20  1  0
 20 16  2  0
  2 21  1  0
  3 22  1  0
  4 23  1  0
  5 24  1  0
  7 25  1  0
  7 26  1  0
  8 27  1  0
  9 28  1  0
 14 29  1  0
 14 30  1  0
 15 31  1  0
 15 32  1  0
 17 33  1  0
 18 34  1  0
 19 35  1  0
M  ISO  8  21  14  22  14  23  14  24  14  25   8  26   8  27  14  28  14
M  ISO  5  31   8  32   8  33  14  34  14  35   9
M  END
>  <minimizedAffinity>  (1) 
-5.69015789

>  <minimizedRMSD>  (1) 
0.952118993

$$$$
