
     RDKit          3D

 37 39  0  0  0  0  0  0  0  0999 V2000
   36.2970   30.3150   40.0250 C   0  0  0  0  0  0  0  0  0  0  0  0
   36.6840   31.5390   40.5310 C   0  0  0  0  0  0  0  0  0  0  0  0
   37.2860   32.4480   39.6990 C   0  0  0  0  0  0  0  0  0  0  0  0
   37.5270   32.2000   38.3730 C   0  0  0  0  0  0  0  0  0  0  0  0
   37.1430   30.9790   37.8590 C   0  0  0  0  0  0  0  0  0  0  0  0
   36.5340   30.0570   38.6970 C   0  0  0  0  0  0  0  0  0  0  0  0
   35.6480   29.3120   40.8880 C   0  0  0  0  0  0  0  0  0  0  0  0
   38.1800   28.4460   43.4460 C   0  0  0  0  0  0  0  0  0  0  0  0
   38.3580   27.0730   43.2240 C   0  0  0  0  0  0  0  0  0  0  0  0
   37.6130   26.4860   42.2130 C   0  0  0  0  0  0  0  0  0  0  0  0
   36.7760   27.2560   41.5160 N   0  0  0  0  0  0  0  0  0  0  0  0
   36.6150   28.5700   41.7390 C   0  0  0  0  0  0  0  0  0  0  0  0
   37.3200   29.1630   42.7080 N   0  0  0  0  0  0  0  0  0  0  0  0
   37.6900   25.1250   41.8810 N   0  0  0  0  0  0  0  0  0  0  0  0
   36.1130   28.7250   38.1500 C   0  0  0  0  0  0  0  0  0  0  0  0
   34.9860   28.9010   37.1940 C   0  0  0  0  0  0  0  0  0  0  0  0
   33.7160   28.9730   37.7550 C   0  0  0  0  0  0  0  0  0  0  0  0
   32.6010   29.1340   36.9570 C   0  0  0  0  0  0  0  0  0  0  0  0
   32.8190   29.2190   35.5940 C   0  0  0  0  0  0  0  0  0  0  0  0
   34.0780   29.1480   35.0290 C   0  0  0  0  0  0  0  0  0  0  0  0
   35.1280   28.9900   35.8570 N   0  0  0  0  0  0  0  0  0  0  0  0
   36.5116   31.7829   41.5897 H   0  0  0  0  0  0  0  0  0  0  0  0
   37.5891   33.4202   40.1149 H   0  0  0  0  0  0  0  0  0  0  0  0
   38.0132   32.9537   37.7362 H   0  0  0  0  0  0  0  0  0  0  0  0
   37.3173   30.7400   36.7995 H   0  0  0  0  0  0  0  0  0  0  0  0
   34.9267   29.8248   41.5413 H   0  0  0  0  0  0  0  0  0  0  0  0
   35.1559   28.5796   40.2312 H   0  0  0  0  0  0  0  0  0  0  0  0
   38.7562   28.9439   44.2398 H   0  0  0  0  0  0  0  0  0  0  0  0
   39.0624   26.4837   43.8294 H   0  0  0  0  0  0  0  0  0  0  0  0
   37.1100   24.7474   41.1182 H   0  0  0  0  0  0  0  0  0  0  0  0
   38.3266   24.5035   42.4000 H   0  0  0  0  0  0  0  0  0  0  0  0
   36.9630   28.2597   37.6295 H   0  0  0  0  0  0  0  0  0  0  0  0
   35.7859   28.0809   38.9795 H   0  0  0  0  0  0  0  0  0  0  0  0
   33.5983   28.9009   38.8463 H   0  0  0  0  0  0  0  0  0  0  0  0
   31.5890   29.1918   37.3843 H   0  0  0  0  0  0  0  0  0  0  0  0
   31.9516   29.3489   34.9301 H   0  0  0  0  0  0  0  0  0  0  0  0
   34.2177   29.2181   33.9402 H   0  0  0  0  0  0  0  0  0  0  0  0
  1  2  2  0
  1  7  1  0
  3  2  1  0
  4  3  2  0
  5  4  1  0
  5  6  2  0
  6  1  1  0
  7 12  1  0
  9  8  2  0
 10  9  1  0
 11 12  1  0
 11 10  2  0
 12 13  2  0
 13  8  1  0
 14 10  1  0
 15  6  1  0
 16 17  2  0
 16 15  1  0
 18 17  1  0
 19 18  2  0
 20 19  1  0
 20 21  2  0
 21 16  1  0
  2 22  1  0
  3 23  1  0
  4 24  1  0
  5 25  1  0
  7 26  1  0
  7 27  1  0
  8 28  1  0
  9 29  1  0
 14 30  1  0
 14 31  1  0
 15 32  1  0
 15 33  1  0
 17 34  1  0
 18 35  1  0
 19 36  1  0
 20 37  1  0
M  ISO  8  22  14  23  14  24  14  25  14  26   8  27   8  28  14  29  14
M  ISO  6  32   8  33   8  34  14  35  14  36  14  37  14
M  END
>  <minimizedAffinity>  (1) 
-5.64127684

>  <minimizedRMSD>  (1) 
1.76264405

$$$$
