
     RDKit          3D

 24 25  0  0  0  0  0  0  0  0999 V2000
   38.3430   29.0930   43.2370 C   0  0  0  0  0  0  0  0  0  0  0  0
   37.1240   29.0680   42.4930 C   0  0  0  0  0  0  0  0  0  0  0  0
   37.0150   29.9310   41.3940 C   0  0  0  0  0  0  0  0  0  0  0  0
   38.0650   30.7370   41.0990 N   0  0  0  0  0  0  0  0  0  0  0  0
   39.1980   30.7430   41.8100 C   0  0  0  0  0  0  0  0  0  0  0  0
   39.3390   29.9250   42.8760 N   0  0  0  0  0  0  0  0  0  0  0  0
   40.3320   31.5640   41.5490 N   0  0  0  0  0  0  0  0  0  0  0  0
   41.4380   31.2930   42.2200 N   0  0  0  0  0  0  0  0  0  0  0  0
   42.4040   32.1720   41.8440 C   0  0  0  0  0  0  0  0  0  0  0  0
   41.7930   32.9920   40.8950 C   0  0  0  0  0  0  0  0  0  0  0  0
   40.4800   32.6030   40.7120 C   0  0  0  0  0  0  0  0  0  0  0  0
   39.4800   33.1310   39.8620 N   0  0  0  0  0  0  0  0  0  0  0  0
   38.4080   33.9020   40.3900 C   0  0  0  0  0  0  0  0  0  0  0  0
   38.6620   34.6820   41.4110 N   0  0  0  0  0  0  0  0  0  0  0  0
   37.1000   33.7970   39.7900 N   0  0  0  0  0  0  0  0  0  0  0  0
   37.8730   35.2460   41.7950 H   0  0  0  0  0  0  0  0  0  0  0  0
   38.4687   28.4314   44.1067 H   0  0  0  0  0  0  0  0  0  0  0  0
   36.2999   28.3952   42.7727 H   0  0  0  0  0  0  0  0  0  0  0  0
   36.0992   29.9540   40.7850 H   0  0  0  0  0  0  0  0  0  0  0  0
   43.4406   32.2252   42.2082 H   0  0  0  0  0  0  0  0  0  0  0  0
   42.2839   33.8248   40.3702 H   0  0  0  0  0  0  0  0  0  0  0  0
   39.5289   32.9549   38.8484 H   0  0  0  0  0  0  0  0  0  0  0  0
   36.3160   34.3505   40.1639 H   0  0  0  0  0  0  0  0  0  0  0  0
   36.9503   33.1685   38.9878 H   0  0  0  0  0  0  0  0  0  0  0  0
  2  1  2  0
  3  2  1  0
  4  3  2  0
  4  5  1  0
  5  6  2  0
  6  1  1  0
  7  5  1  0
  7  8  1  0
  9  8  2  0
 10  9  1  0
 11 10  2  0
 11  7  1  0
 12 13  1  0
 12 11  1  0
 13 14  2  0
 14 16  1  0
 15 13  1  0
  1 17  1  0
  2 18  1  0
  3 19  1  0
  9 20  1  0
 10 21  1  0
 12 22  1  0
 15 23  1  0
 15 24  1  0
M  ISO  5  17  14  18  14  19  14  20  14  21  14
M  END
>  <minimizedAffinity>  (1) 
-4.93166971

>  <minimizedRMSD>  (1) 
3.51482081

$$$$
