
     RDKit          3D

 41 43  0  0  0  0  0  0  0  0999 V2000
   36.3780   30.4490   40.0700 C   0  0  0  0  0  0  0  0  0  0  0  0
   36.7620   31.5930   40.7200 C   0  0  0  0  0  0  0  0  0  0  0  0
   37.3810   32.5620   39.9840 C   0  0  0  0  0  0  0  0  0  0  0  0
   37.6400   32.4510   38.6300 C   0  0  0  0  0  0  0  0  0  0  0  0
   37.2520   31.2940   37.9800 C   0  0  0  0  0  0  0  0  0  0  0  0
   36.6140   30.2890   38.7290 C   0  0  0  0  0  0  0  0  0  0  0  0
   35.6740   29.3760   40.8270 C   0  0  0  0  0  0  0  0  0  0  0  0
   38.0660   28.4050   43.4540 C   0  0  0  0  0  0  0  0  0  0  0  0
   38.2680   27.0500   43.2140 C   0  0  0  0  0  0  0  0  0  0  0  0
   37.5650   26.4900   42.1340 C   0  0  0  0  0  0  0  0  0  0  0  0
   36.7700   27.2940   41.4350 N   0  0  0  0  0  0  0  0  0  0  0  0
   36.5900   28.5930   41.6830 C   0  0  0  0  0  0  0  0  0  0  0  0
   37.2540   29.1350   42.7060 N   0  0  0  0  0  0  0  0  0  0  0  0
   37.6480   25.1330   41.7430 N   0  0  0  0  0  0  0  0  0  0  0  0
   36.1970   29.0500   38.0460 C   0  0  0  0  0  0  0  0  0  0  0  0
   35.0410   29.1550   37.1010 C   0  0  0  0  0  0  0  0  0  0  0  0
   35.2420   28.6010   35.7540 C   0  0  0  0  0  0  0  0  0  0  0  0
   33.8710   27.9850   35.4310 C   0  0  0  0  0  0  0  0  0  0  0  0
   33.6280   27.2310   36.7200 C   0  0  0  0  0  0  0  0  0  0  0  0
   33.8670   28.3630   37.7130 C   0  0  0  0  0  0  0  0  0  0  0  0
   36.5780   31.7256   41.7964 H   0  0  0  0  0  0  0  0  0  0  0  0
   37.6916   33.4840   40.4974 H   0  0  0  0  0  0  0  0  0  0  0  0
   38.1422   33.2630   38.0838 H   0  0  0  0  0  0  0  0  0  0  0  0
   37.4377   31.1628   36.9038 H   0  0  0  0  0  0  0  0  0  0  0  0
   34.9058   29.8393   41.4636 H   0  0  0  0  0  0  0  0  0  0  0  0
   35.2298   28.6863   40.0942 H   0  0  0  0  0  0  0  0  0  0  0  0
   38.5967   28.8840   44.2900 H   0  0  0  0  0  0  0  0  0  0  0  0
   38.9440   26.4472   43.8382 H   0  0  0  0  0  0  0  0  0  0  0  0
   37.1012   24.7945   40.9384 H   0  0  0  0  0  0  0  0  0  0  0  0
   38.2552   24.4835   42.2629 H   0  0  0  0  0  0  0  0  0  0  0  0
   37.0606   28.6783   37.4750 H   0  0  0  0  0  0  0  0  0  0  0  0
   35.8520   28.3817   38.8487 H   0  0  0  0  0  0  0  0  0  0  0  0
   34.8745   30.2350   36.9752 H   0  0  0  0  0  0  0  0  0  0  0  0
   35.5003   29.3921   35.0347 H   0  0  0  0  0  0  0  0  0  0  0  0
   36.0684   27.8770   35.6997 H   0  0  0  0  0  0  0  0  0  0  0  0
   33.1058   28.7554   35.2554 H   0  0  0  0  0  0  0  0  0  0  0  0
   33.8350   27.3744   34.5167 H   0  0  0  0  0  0  0  0  0  0  0  0
   32.6017   26.8398   36.7809 H   0  0  0  0  0  0  0  0  0  0  0  0
   34.2504   26.3360   36.8669 H   0  0  0  0  0  0  0  0  0  0  0  0
   34.1375   27.9648   38.7021 H   0  0  0  0  0  0  0  0  0  0  0  0
   32.9730   28.9846   37.8695 H   0  0  0  0  0  0  0  0  0  0  0  0
  1  2  2  0
  1  7  1  0
  3  2  1  0
  4  3  2  0
  5  4  1  0
  5  6  2  0
  6  1  1  0
  7 12  1  0
  9  8  2  0
 10  9  1  0
 11 12  1  0
 11 10  2  0
 12 13  2  0
 13  8  1  0
 14 10  1  0
 15  6  1  0
 16 20  1  0
 16 15  1  0
 17 16  1  0
 18 17  1  0
 18 19  1  0
 19 20  1  0
  2 21  1  0
  3 22  1  0
  4 23  1  0
  5 24  1  0
  7 25  1  0
  7 26  1  0
  8 27  1  0
  9 28  1  0
 14 29  1  0
 14 30  1  0
 15 31  1  0
 15 32  1  0
 16 33  1  0
 17 34  1  0
 17 35  1  0
 18 36  1  0
 18 37  1  0
 19 38  1  0
 19 39  1  0
 20 40  1  0
 20 41  1  0
M  ISO  8  21  14  22  14  23  14  24  14  25   8  26   8  27  14  28  14
M  ISO  8  31   8  32   8  33  13  34  13  35  13  36  13  37  13  38  13
M  ISO  3  39  13  40  13  41  13
M  END
>  <minimizedAffinity>  (1) 
-5.35828257

>  <minimizedRMSD>  (1) 
1.37345946

$$$$
