
     RDKit          3D

 43 45  0  0  0  0  0  0  0  0999 V2000
   36.2150   30.0040   39.6330 C   0  0  0  0  0  0  0  0  0  0  0  0
   36.6150   31.3170   39.8680 C   0  0  0  0  0  0  0  0  0  0  0  0
   37.2300   31.9940   38.8270 C   0  0  0  0  0  0  0  0  0  0  0  0
   37.4650   31.4510   37.5900 C   0  0  0  0  0  0  0  0  0  0  0  0
   37.0650   30.1630   37.3760 C   0  0  0  0  0  0  0  0  0  0  0  0
   36.4480   29.4470   38.3840 C   0  0  0  0  0  0  0  0  0  0  0  0
   35.5650   29.2730   40.7290 C   0  0  0  0  0  0  0  0  0  0  0  0
   38.0860   28.8100   43.4030 C   0  0  0  0  0  0  0  0  0  0  0  0
   38.3080   27.4410   43.3870 C   0  0  0  0  0  0  0  0  0  0  0  0
   37.5910   26.6910   42.4600 C   0  0  0  0  0  0  0  0  0  0  0  0
   36.7430   27.3350   41.6520 N   0  0  0  0  0  0  0  0  0  0  0  0
   36.5370   28.6550   41.6770 C   0  0  0  0  0  0  0  0  0  0  0  0
   37.2190   29.4050   42.5650 N   0  0  0  0  0  0  0  0  0  0  0  0
   37.6830   25.2900   42.2930 N   0  0  0  0  0  0  0  0  0  0  0  0
   35.9980   28.0510   38.1770 C   0  0  0  0  0  0  0  0  0  0  0  0
   34.7850   27.9240   37.3920 N   0  0  0  0  0  0  0  0  0  0  0  0
   35.0940   27.7760   35.9930 C   0  0  0  0  0  0  0  0  0  0  0  0
   34.5780   28.8320   35.0900 C   0  0  0  0  0  0  0  0  0  0  0  0
   33.1930   29.3150   35.2990 C   0  0  0  0  0  0  0  0  0  0  0  0
   32.7390   28.9910   36.7100 C   0  0  0  0  0  0  0  0  0  0  0  0
   33.9790   29.1170   37.5610 C   0  0  0  0  0  0  0  0  0  0  0  0
   36.4491   31.7985   40.8430 H   0  0  0  0  0  0  0  0  0  0  0  0
   37.5496   33.0316   39.0040 H   0  0  0  0  0  0  0  0  0  0  0  0
   37.9586   32.0327   36.7976 H   0  0  0  0  0  0  0  0  0  0  0  0
   37.2348   29.6930   36.3961 H   0  0  0  0  0  0  0  0  0  0  0  0
   34.9280   29.9741   41.2882 H   0  0  0  0  0  0  0  0  0  0  0  0
   34.9816   28.4565   40.2784 H   0  0  0  0  0  0  0  0  0  0  0  0
   38.6376   29.4296   44.1253 H   0  0  0  0  0  0  0  0  0  0  0  0
   39.0211   26.9680   44.0782 H   0  0  0  0  0  0  0  0  0  0  0  0
   37.1113   24.8179   41.5780 H   0  0  0  0  0  0  0  0  0  0  0  0
   38.3217   24.7415   42.8864 H   0  0  0  0  0  0  0  0  0  0  0  0
   36.8007   27.5034   37.6614 H   0  0  0  0  0  0  0  0  0  0  0  0
   35.7723   27.6423   39.1730 H   0  0  0  0  0  0  0  0  0  0  0  0
   36.1892   27.7550   35.8923 H   0  0  0  0  0  0  0  0  0  0  0  0
   34.5904   26.8500   35.6784 H   0  0  0  0  0  0  0  0  0  0  0  0
   34.6358   28.4407   34.0636 H   0  0  0  0  0  0  0  0  0  0  0  0
   35.2080   29.7075   35.3056 H   0  0  0  0  0  0  0  0  0  0  0  0
   33.1598   30.4039   35.1464 H   0  0  0  0  0  0  0  0  0  0  0  0
   32.5244   28.8177   34.5809 H   0  0  0  0  0  0  0  0  0  0  0  0
   31.9693   29.7037   37.0412 H   0  0  0  0  0  0  0  0  0  0  0  0
   32.2921   27.9883   36.7790 H   0  0  0  0  0  0  0  0  0  0  0  0
   33.6929   29.2232   38.6178 H   0  0  0  0  0  0  0  0  0  0  0  0
   34.5542   30.0031   37.2544 H   0  0  0  0  0  0  0  0  0  0  0  0
  1  2  2  0
  1  7  1  0
  3  2  1  0
  4  3  2  0
  5  4  1  0
  5  6  2  0
  6  1  1  0
  7 12  1  0
  9  8  2  0
 10  9  1  0
 11 12  1  0
 11 10  2  0
 12 13  2  0
 13  8  1  0
 14 10  1  0
 15  6  1  0
 16 21  1  0
 16 15  1  0
 17 16  1  0
 18 19  1  0
 18 17  1  0
 19 20  1  0
 20 21  1  0
  2 22  1  0
  3 23  1  0
  4 24  1  0
  5 25  1  0
  7 26  1  0
  7 27  1  0
  8 28  1  0
  9 29  1  0
 14 30  1  0
 14 31  1  0
 15 32  1  0
 15 33  1  0
 17 34  1  0
 17 35  1  0
 18 36  1  0
 18 37  1  0
 19 38  1  0
 19 39  1  0
 20 40  1  0
 20 41  1  0
 21 42  1  0
 21 43  1  0
M  ISO  8  22  14  23  14  24  14  25  14  26   8  27   8  28  14  29  14
M  ISO  8  32   8  33   8  34  13  35  13  36  13  37  13  38  13  39  13
M  ISO  4  40  13  41  13  42  13  43  13
M  END
>  <minimizedAffinity>  (1) 
-5.28820181

>  <minimizedRMSD>  (1) 
1.39096618

$$$$
