
     RDKit          3D

 34 36  0  0  0  0  0  0  0  0999 V2000
   36.2900   30.3360   39.9420 C   0  0  0  0  0  0  0  0  0  0  0  0
   36.6580   31.5560   40.4860 C   0  0  0  0  0  0  0  0  0  0  0  0
   37.2720   32.4770   39.6660 C   0  0  0  0  0  0  0  0  0  0  0  0
   37.5390   32.2560   38.3420 C   0  0  0  0  0  0  0  0  0  0  0  0
   37.1660   31.0360   37.8190 C   0  0  0  0  0  0  0  0  0  0  0  0
   36.5520   30.0990   38.6130 C   0  0  0  0  0  0  0  0  0  0  0  0
   35.6300   29.3320   40.8030 C   0  0  0  0  0  0  0  0  0  0  0  0
   38.1200   28.5980   43.4340 C   0  0  0  0  0  0  0  0  0  0  0  0
   38.2950   27.2120   43.3140 C   0  0  0  0  0  0  0  0  0  0  0  0
   37.5460   26.5770   42.3290 C   0  0  0  0  0  0  0  0  0  0  0  0
   36.7270   27.3090   41.5740 N   0  0  0  0  0  0  0  0  0  0  0  0
   36.5730   28.6340   41.7050 C   0  0  0  0  0  0  0  0  0  0  0  0
   37.2860   29.2730   42.6520 N   0  0  0  0  0  0  0  0  0  0  0  0
   37.6070   25.1850   42.0780 N   0  0  0  0  0  0  0  0  0  0  0  0
   36.1370   28.7620   38.0590 C   0  0  0  0  0  0  0  0  0  0  0  0
   34.8950   28.9120   37.2540 C   0  0  0  0  0  0  0  0  0  0  0  0
   35.0020   28.9250   35.8580 C   0  0  0  0  0  0  0  0  0  0  0  0
   33.2160   29.1350   35.2610 S   0  0  0  0  0  0  0  0  0  0  0  0
   32.6810   29.1630   37.0810 C   0  0  0  0  0  0  0  0  0  0  0  0
   33.6460   29.0460   37.6330 N   0  0  0  0  0  0  0  0  0  0  0  0
   36.4649   31.7832   41.5448 H   0  0  0  0  0  0  0  0  0  0  0  0
   37.5642   33.4447   40.0998 H   0  0  0  0  0  0  0  0  0  0  0  0
   38.0305   33.0196   37.7212 H   0  0  0  0  0  0  0  0  0  0  0  0
   37.3614   30.8121   36.7599 H   0  0  0  0  0  0  0  0  0  0  0  0
   34.8706   29.8403   41.4153 H   0  0  0  0  0  0  0  0  0  0  0  0
   35.1847   28.5737   40.1421 H   0  0  0  0  0  0  0  0  0  0  0  0
   38.6914   29.1430   44.1998 H   0  0  0  0  0  0  0  0  0  0  0  0
   38.9874   26.6568   43.9639 H   0  0  0  0  0  0  0  0  0  0  0  0
   37.0281   24.7700   41.3340 H   0  0  0  0  0  0  0  0  0  0  0  0
   38.2303   24.5873   42.6394 H   0  0  0  0  0  0  0  0  0  0  0  0
   36.9404   28.3664   37.4202 H   0  0  0  0  0  0  0  0  0  0  0  0
   35.9482   28.0676   38.8910 H   0  0  0  0  0  0  0  0  0  0  0  0
   35.9130   28.8342   35.2483 H   0  0  0  0  0  0  0  0  0  0  0  0
   31.6667   29.2688   37.4933 H   0  0  0  0  0  0  0  0  0  0  0  0
  1  2  2  0
  1  7  1  0
  3  2  1  0
  4  3  2  0
  5  4  1  0
  5  6  2  0
  6  1  1  0
  7 12  1  0
  9  8  2  0
 10  9  1  0
 11 12  1  0
 11 10  2  0
 12 13  2  0
 13  8  1  0
 14 10  1  0
 15  6  1  0
 16 20  1  0
 16 15  1  0
 17 16  2  0
 18 17  1  0
 18 19  1  0
 19 20  2  0
  2 21  1  0
  3 22  1  0
  4 23  1  0
  5 24  1  0
  7 25  1  0
  7 26  1  0
  8 27  1  0
  9 28  1  0
 14 29  1  0
 14 30  1  0
 15 31  1  0
 15 32  1  0
 17 33  1  0
 19 34  1  0
M  ISO  8  21  14  22  14  23  14  24  14  25   8  26   8  27  14  28  14
M  ISO  4  31   8  32   8  33  14  34  14
M  END
>  <minimizedAffinity>  (1) 
-5.26151705

>  <minimizedRMSD>  (1) 
1.68645966

$$$$
