
     RDKit          3D

 34 36  0  0  0  0  0  0  0  0999 V2000
   36.3240   30.3570   39.9400 C   0  0  0  0  0  0  0  0  0  0  0  0
   36.6600   31.5810   40.4890 C   0  0  0  0  0  0  0  0  0  0  0  0
   37.2810   32.5130   39.6880 C   0  0  0  0  0  0  0  0  0  0  0  0
   37.5830   32.2880   38.3730 C   0  0  0  0  0  0  0  0  0  0  0  0
   37.2460   31.0700   37.8320 C   0  0  0  0  0  0  0  0  0  0  0  0
   36.6230   30.1270   38.6240 C   0  0  0  0  0  0  0  0  0  0  0  0
   35.6570   29.3400   40.7770 C   0  0  0  0  0  0  0  0  0  0  0  0
   38.0880   28.6690   43.4660 C   0  0  0  0  0  0  0  0  0  0  0  0
   38.2690   27.2810   43.3710 C   0  0  0  0  0  0  0  0  0  0  0  0
   37.5490   26.6010   42.3800 C   0  0  0  0  0  0  0  0  0  0  0  0
   36.7290   27.3150   41.5810 N   0  0  0  0  0  0  0  0  0  0  0  0
   36.5810   28.6470   41.7020 C   0  0  0  0  0  0  0  0  0  0  0  0
   37.2620   29.3240   42.6470 N   0  0  0  0  0  0  0  0  0  0  0  0
   37.6190   25.2220   42.1560 N   0  0  0  0  0  0  0  0  0  0  0  0
   36.2480   28.7830   38.0430 C   0  0  0  0  0  0  0  0  0  0  0  0
   35.0180   28.9150   37.2780 N   0  0  0  0  0  0  0  0  0  0  0  0
   35.0420   28.9370   35.9130 C   0  0  0  0  0  0  0  0  0  0  0  0
   33.7930   29.0650   35.4810 N   0  0  0  0  0  0  0  0  0  0  0  0
   32.9640   29.1250   36.5420 C   0  0  0  0  0  0  0  0  0  0  0  0
   33.7470   29.0300   37.6310 N   0  0  0  0  0  0  0  0  0  0  0  0
   36.4361   31.8051   41.5424 H   0  0  0  0  0  0  0  0  0  0  0  0
   37.5472   33.4859   40.1269 H   0  0  0  0  0  0  0  0  0  0  0  0
   38.0808   33.0589   37.7664 H   0  0  0  0  0  0  0  0  0  0  0  0
   37.4707   30.8491   36.7781 H   0  0  0  0  0  0  0  0  0  0  0  0
   34.8743   29.8348   41.3707 H   0  0  0  0  0  0  0  0  0  0  0  0
   35.2432   28.5794   40.0986 H   0  0  0  0  0  0  0  0  0  0  0  0
   38.6400   29.2310   44.2338 H   0  0  0  0  0  0  0  0  0  0  0  0
   38.9506   26.7467   44.0491 H   0  0  0  0  0  0  0  0  0  0  0  0
   37.0581   24.7929   41.4062 H   0  0  0  0  0  0  0  0  0  0  0  0
   38.2315   24.6357   42.7408 H   0  0  0  0  0  0  0  0  0  0  0  0
   37.0545   28.4301   37.3835 H   0  0  0  0  0  0  0  0  0  0  0  0
   36.0989   28.0587   38.8574 H   0  0  0  0  0  0  0  0  0  0  0  0
   35.9395   28.8618   35.2814 H   0  0  0  0  0  0  0  0  0  0  0  0
   31.8692   29.2303   36.5213 H   0  0  0  0  0  0  0  0  0  0  0  0
  1  2  2  0
  1  7  1  0
  3  2  1  0
  4  3  2  0
  5  4  1  0
  5  6  2  0
  6  1  1  0
  7 12  1  0
  9  8  2  0
 10  9  1  0
 11 12  1  0
 11 10  2  0
 12 13  2  0
 13  8  1  0
 14 10  1  0
 15  6  1  0
 16 20  1  0
 16 15  1  0
 17 16  1  0
 18 17  2  0
 18 19  1  0
 19 20  2  0
  2 21  1  0
  3 22  1  0
  4 23  1  0
  5 24  1  0
  7 25  1  0
  7 26  1  0
  8 27  1  0
  9 28  1  0
 14 29  1  0
 14 30  1  0
 15 31  1  0
 15 32  1  0
 17 33  1  0
 19 34  1  0
M  ISO  8  21  14  22  14  23  14  24  14  25   8  26   8  27  14  28  14
M  ISO  4  31   8  32   8  33  14  34  14
M  END
>  <minimizedAffinity>  (1) 
-5.18071222

>  <minimizedRMSD>  (1) 
1.58317566

$$$$
