
     RDKit          3D

 18 19  0  0  0  0  0  0  0  0999 V2000
   38.1310   29.1350   43.3860 C   0  0  0  0  0  0  0  0  0  0  0  0
   37.3850   28.0660   43.9290 C   0  0  0  0  0  0  0  0  0  0  0  0
   36.4690   27.4200   43.1010 C   0  0  0  0  0  0  0  0  0  0  0  0
   36.3370   27.8520   41.8040 N   0  0  0  0  0  0  0  0  0  0  0  0
   37.0670   28.8730   41.3250 C   0  0  0  0  0  0  0  0  0  0  0  0
   37.9570   29.5120   42.1050 N   0  0  0  0  0  0  0  0  0  0  0  0
   36.8970   29.3080   39.9230 C   0  0  0  0  0  0  0  0  0  0  0  0
   35.7250   29.0050   39.2630 C   0  0  0  0  0  0  0  0  0  0  0  0
   35.6390   29.4460   37.9530 C   0  0  0  0  0  0  0  0  0  0  0  0
   36.6150   30.1280   37.3350 N   0  0  0  0  0  0  0  0  0  0  0  0
   37.7320   30.4000   38.0100 C   0  0  0  0  0  0  0  0  0  0  0  0
   37.8680   29.9930   39.2940 N   0  0  0  0  0  0  0  0  0  0  0  0
   38.8612   29.6648   44.0154 H   0  0  0  0  0  0  0  0  0  0  0  0
   37.5228   27.7526   44.9744 H   0  0  0  0  0  0  0  0  0  0  0  0
   35.8645   26.5819   43.4782 H   0  0  0  0  0  0  0  0  0  0  0  0
   34.9092   28.4478   39.7467 H   0  0  0  0  0  0  0  0  0  0  0  0
   34.7209   29.2251   37.3888 H   0  0  0  0  0  0  0  0  0  0  0  0
   38.5456   30.9568   37.5222 H   0  0  0  0  0  0  0  0  0  0  0  0
  1  2  2  0
  3  2  1  0
  4  3  2  0
  5  4  1  0
  5  6  2  0
  6  1  1  0
  7  5  1  0
  8  7  2  0
  9  8  1  0
 10  9  2  0
 10 11  1  0
 11 12  2  0
 12  7  1  0
  1 13  1  0
  2 14  1  0
  3 15  1  0
  8 16  1  0
  9 17  1  0
 11 18  1  0
M  ISO  6  13  14  14  14  15  14  16  14  17  14  18  14
M  END
>  <minimizedAffinity>  (1) 
-3.50594091

>  <minimizedRMSD>  (1) 
1.23309124

$$$$
