
     RDKit          3D

 42 44  0  0  1  0  0  0  0  0999 V2000
   43.8050   27.5000   44.3620 C   0  0  1  0  0  0  0  0  0  0  0  0
   45.1390   26.7220   44.2390 C   0  0  0  0  0  0  0  0  0  0  0  0
   44.7880   25.4120   43.6340 C   0  0  0  0  0  0  0  0  0  0  0  0
   43.5050   25.7530   42.8730 C   0  0  0  0  0  0  0  0  0  0  0  0
   42.7750   26.5280   43.9520 C   0  0  2  0  0  0  0  0  0  0  0  0
   42.9550   28.0350   48.0070 C   0  0  0  0  0  0  0  0  0  0  0  0
   43.0320   27.3670   46.7760 C   0  0  0  0  0  0  0  0  0  0  0  0
   43.6480   28.0620   45.6940 C   0  0  0  0  0  0  0  0  0  0  0  0
   44.1260   29.3230   45.9010 N   0  0  0  0  0  0  0  0  0  0  0  0
   44.0300   29.9240   47.0980 C   0  0  0  0  0  0  0  0  0  0  0  0
   43.4480   29.2880   48.1480 N   0  0  0  0  0  0  0  0  0  0  0  0
   41.5580   27.0640   43.2870 C   0  0  2  0  0  0  0  0  0  0  0  0
   41.5890   28.5150   42.9600 C   0  0  0  0  0  0  0  0  0  0  0  0
   40.4070   26.8020   44.2410 C   0  0  0  0  0  0  0  0  0  0  0  0
   39.4090   26.0910   43.4560 N   0  0  0  0  0  0  0  0  0  0  0  0
   39.5270   24.8350   42.9970 C   0  0  0  0  0  0  0  0  0  0  0  0
   38.5600   24.1980   42.2490 C   0  0  0  0  0  0  0  0  0  0  0  0
   37.4110   24.8720   41.9510 C   0  0  0  0  0  0  0  0  0  0  0  0
   36.5360   24.2770   41.2660 O   0  0  0  0  0  0  0  0  0  0  0  0
   37.2480   26.1300   42.3880 N   0  0  0  0  0  0  0  0  0  0  0  0
   38.2300   26.6790   43.1070 C   0  0  0  0  0  0  0  0  0  0  0  0
   38.0380   27.8770   43.5070 O   0  0  0  0  0  0  0  0  0  0  0  0
   43.7423   28.3910   43.7199 H   0  0  0  0  0  0  0  0  0  0  0  0
   45.8421   27.2669   43.5919 H   0  0  0  0  0  0  0  0  0  0  0  0
   45.6279   26.5989   45.2166 H   0  0  0  0  0  0  0  0  0  0  0  0
   45.5769   25.0613   42.9523 H   0  0  0  0  0  0  0  0  0  0  0  0
   44.6692   24.6002   44.3667 H   0  0  0  0  0  0  0  0  0  0  0  0
   43.7057   26.3728   41.9867 H   0  0  0  0  0  0  0  0  0  0  0  0
   42.9587   24.8901   42.4644 H   0  0  0  0  0  0  0  0  0  0  0  0
   42.4065   26.0099   44.8497 H   0  0  0  0  0  0  0  0  0  0  0  0
   42.4883   27.5347   48.8683 H   0  0  0  0  0  0  0  0  0  0  0  0
   42.6337   26.3493   46.6506 H   0  0  0  0  0  0  0  0  0  0  0  0
   44.4266   30.9415   47.2297 H   0  0  0  0  0  0  0  0  0  0  0  0
   41.4658   26.5609   42.3131 H   0  0  0  0  0  0  0  0  0  0  0  0
   41.6015   29.1005   43.8911 H   0  0  0  0  0  0  0  0  0  0  0  0
   42.4921   28.7395   42.3735 H   0  0  0  0  0  0  0  0  0  0  0  0
   40.6963   28.7779   42.3735 H   0  0  0  0  0  0  0  0  0  0  0  0
   40.7418   26.1849   45.0878 H   0  0  0  0  0  0  0  0  0  0  0  0
   40.0061   27.7347   44.6645 H   0  0  0  0  0  0  0  0  0  0  0  0
   40.4486   24.2821   43.2313 H   0  0  0  0  0  0  0  0  0  0  0  0
   38.7114   23.1662   41.8990 H   0  0  0  0  0  0  0  0  0  0  0  0
   36.3894   26.6575   42.1748 H   0  0  0  0  0  0  0  0  0  0  0  0
  1  8  1  0
  2  1  1  0
  3  2  1  0
  4  3  1  0
  4  5  1  0
  5  1  1  0
  6 11  2  0
  7  6  1  0
  8  9  1  0
  8  7  2  0
  9 10  2  0
 10 11  1  0
 12  5  1  0
 12 14  1  0
 13 12  1  0
 15 14  1  0
 16 15  1  0
 17 16  2  0
 18 17  1  0
 18 20  1  0
 19 18  2  0
 20 21  1  0
 21 15  1  0
 21 22  2  0
  1 23  1  6
  2 24  1  0
  2 25  1  0
  3 26  1  0
  3 27  1  0
  4 28  1  0
  4 29  1  0
  5 30  1  1
  6 31  1  0
  7 32  1  0
 10 33  1  0
 12 34  1  6
 13 35  1  0
 13 36  1  0
 13 37  1  0
 14 38  1  0
 14 39  1  0
 16 40  1  0
 17 41  1  0
 20 42  1  0
M  ISO  8  23  13  24  13  25  13  26  13  27  13  28  13  29  13  30  13
M  ISO  8  31  14  32  14  33  14  34   8  35   8  36   8  37   8  38   8
M  ISO  4  39   8  40  14  41  14  42   9
M  END
>  <minimizedAffinity>  (1) 
-4.95337963

>  <minimizedRMSD>  (1) 
5.77519655

$$$$
