
     RDKit          3D

 34 37  0  0  0  0  0  0  0  0999 V2000
   38.1820   30.0460   41.7380 C   0  0  0  0  0  0  0  0  0  0  0  0
   36.8490   29.8570   41.5240 C   0  0  0  0  0  0  0  0  0  0  0  0
   36.2120   30.8760   40.8450 C   0  0  0  0  0  0  0  0  0  0  0  0
   36.8180   31.9780   40.4150 N   0  0  0  0  0  0  0  0  0  0  0  0
   38.1110   32.1450   40.6320 C   0  0  0  0  0  0  0  0  0  0  0  0
   38.7390   31.1640   41.2880 N   0  0  0  0  0  0  0  0  0  0  0  0
   39.0590   33.2330   40.2960 C   0  0  0  0  0  0  0  0  0  0  0  0
   39.0790   34.4800   40.9170 C   0  0  0  0  0  0  0  0  0  0  0  0
   39.9560   35.4630   40.5930 C   0  0  0  0  0  0  0  0  0  0  0  0
   40.8960   35.2830   39.6110 C   0  0  0  0  0  0  0  0  0  0  0  0
   40.9290   34.0710   38.9580 C   0  0  0  0  0  0  0  0  0  0  0  0
   41.8790   33.9110   37.9730 C   0  0  0  0  0  0  0  0  0  0  0  0
   41.9620   32.7260   37.2820 C   0  0  0  0  0  0  0  0  0  0  0  0
   41.0700   31.7180   37.6070 C   0  0  0  0  0  0  0  0  0  0  0  0
   40.1440   31.9430   38.6020 C   0  0  0  0  0  0  0  0  0  0  0  0
   40.0200   33.1060   39.3210 C   0  0  0  0  0  0  0  0  0  0  0  0
   41.0550   28.2160   43.1490 C   0  0  0  0  0  0  0  0  0  0  0  0
   40.4280   27.1140   43.7880 C   0  0  0  0  0  0  0  0  0  0  0  0
   39.0490   27.0280   43.7210 C   0  0  0  0  0  0  0  0  0  0  0  0
   38.3580   28.0020   43.0460 N   0  0  0  0  0  0  0  0  0  0  0  0
   38.9850   29.0250   42.4550 C   0  0  0  0  0  0  0  0  0  0  0  0
   40.3350   29.1510   42.4940 N   0  0  0  0  0  0  0  0  0  0  0  0
   36.3189   28.9566   41.8679 H   0  0  0  0  0  0  0  0  0  0  0  0
   35.1352   30.7693   40.6473 H   0  0  0  0  0  0  0  0  0  0  0  0
   38.3449   34.6779   41.7120 H   0  0  0  0  0  0  0  0  0  0  0  0
   39.9122   36.4229   41.1283 H   0  0  0  0  0  0  0  0  0  0  0  0
   41.6038   36.0842   39.3521 H   0  0  0  0  0  0  0  0  0  0  0  0
   42.5719   34.7328   37.7394 H   0  0  0  0  0  0  0  0  0  0  0  0
   42.7153   32.5824   36.4934 H   0  0  0  0  0  0  0  0  0  0  0  0
   41.1002   30.7533   37.0793 H   0  0  0  0  0  0  0  0  0  0  0  0
   39.4480   31.1250   38.8395 H   0  0  0  0  0  0  0  0  0  0  0  0
   42.1503   28.3097   43.1886 H   0  0  0  0  0  0  0  0  0  0  0  0
   41.0194   26.3535   44.3189 H   0  0  0  0  0  0  0  0  0  0  0  0
   38.5161   26.1936   44.2004 H   0  0  0  0  0  0  0  0  0  0  0  0
  1 21  1  0
  2  1  2  0
  3  2  1  0
  4  5  1  0
  4  3  2  0
  5  6  2  0
  6  1  1  0
  7  5  1  0
  7  8  2  0
  9  8  1  0
 10  9  2  0
 11 16  2  0
 11 10  1  0
 12 11  1  0
 13 14  1  0
 13 12  2  0
 14 15  2  0
 15 16  1  0
 16  7  1  0
 17 18  2  0
 19 18  1  0
 20 19  2  0
 21 22  2  0
 21 20  1  0
 22 17  1  0
  2 23  1  0
  3 24  1  0
  8 25  1  0
  9 26  1  0
 10 27  1  0
 12 28  1  0
 13 29  1  0
 14 30  1  0
 15 31  1  0
 17 32  1  0
 18 33  1  0
 19 34  1  0
M  ISO  8  23  14  24  14  25  14  26  14  27  14  28  14  29  14  30  14
M  ISO  4  31  14  32  14  33  14  34  14
M  END
>  <minimizedAffinity>  (1) 
-6.13709211

>  <minimizedRMSD>  (1) 
3.26508808

$$$$
