
     RDKit          3D

 29 31  0  0  0  0  0  0  0  0999 V2000
   37.6380   30.0980   40.2200 C   0  0  0  0  0  0  0  0  0  0  0  0
   37.1020   29.7940   38.9770 C   0  0  0  0  0  0  0  0  0  0  0  0
   37.3140   30.7370   37.9870 C   0  0  0  0  0  0  0  0  0  0  0  0
   37.9850   31.8760   38.1810 N   0  0  0  0  0  0  0  0  0  0  0  0
   38.4910   32.1410   39.3930 C   0  0  0  0  0  0  0  0  0  0  0  0
   38.3150   31.2490   40.4090 N   0  0  0  0  0  0  0  0  0  0  0  0
   39.2110   33.3380   39.6450 N   0  0  0  0  0  0  0  0  0  0  0  0
   38.6780   34.2520   40.4800 C   0  0  0  0  0  0  0  0  0  0  0  0
   39.3100   35.4430   40.7800 C   0  0  0  0  0  0  0  0  0  0  0  0
   40.5360   35.6040   40.1430 C   0  0  0  0  0  0  0  0  0  0  0  0
   41.2830   36.7790   40.3670 N   0  0  0  0  0  0  0  0  0  0  0  0
   41.0800   34.7090   39.3140 N   0  0  0  0  0  0  0  0  0  0  0  0
   40.3950   33.5590   39.0670 C   0  0  0  0  0  0  0  0  0  0  0  0
   40.8940   32.7070   38.2870 O   0  0  0  0  0  0  0  0  0  0  0  0
   37.5460   28.7160   43.6230 C   0  0  0  0  0  0  0  0  0  0  0  0
   37.1350   27.3820   43.4100 C   0  0  0  0  0  0  0  0  0  0  0  0
   36.8940   26.9760   42.0930 C   0  0  0  0  0  0  0  0  0  0  0  0
   37.0670   27.8830   41.0730 N   0  0  0  0  0  0  0  0  0  0  0  0
   37.4630   29.1500   41.3380 C   0  0  0  0  0  0  0  0  0  0  0  0
   37.7020   29.5730   42.5900 N   0  0  0  0  0  0  0  0  0  0  0  0
   36.5449   28.8640   38.7907 H   0  0  0  0  0  0  0  0  0  0  0  0
   36.9075   30.5379   36.9844 H   0  0  0  0  0  0  0  0  0  0  0  0
   37.7015   34.0412   40.9405 H   0  0  0  0  0  0  0  0  0  0  0  0
   38.8831   36.1949   41.4600 H   0  0  0  0  0  0  0  0  0  0  0  0
   42.1920   36.9082   39.9003 H   0  0  0  0  0  0  0  0  0  0  0  0
   40.9195   37.5080   40.9974 H   0  0  0  0  0  0  0  0  0  0  0  0
   37.7426   29.0637   44.6479 H   0  0  0  0  0  0  0  0  0  0  0  0
   37.0085   26.6851   44.2516 H   0  0  0  0  0  0  0  0  0  0  0  0
   36.5710   25.9471   41.8763 H   0  0  0  0  0  0  0  0  0  0  0  0
  1  6  1  0
  1 19  1  0
  2  1  2  0
  3  4  2  0
  3  2  1  0
  4  5  1  0
  5  7  1  0
  5  6  2  0
  7  8  1  0
  8  9  2  0
 10 11  1  0
 10  9  1  0
 12 10  2  0
 13 12  1  0
 13  7  1  0
 14 13  2  0
 16 15  2  0
 17 16  1  0
 18 19  1  0
 18 17  2  0
 19 20  2  0
 20 15  1  0
  2 21  1  0
  3 22  1  0
  8 23  1  0
  9 24  1  0
 11 25  1  0
 11 26  1  0
 15 27  1  0
 16 28  1  0
 17 29  1  0
M  ISO  7  21  14  22  14  23  14  24  14  27  14  28  14  29  14
M  END
>  <minimizedAffinity>  (1) 
-6.05958223

>  <minimizedRMSD>  (1) 
3.05387855

$$$$
