
     RDKit          3D

 29 32  0  0  0  0  0  0  0  0999 V2000
   37.5150   29.6700   40.0770 C   0  0  0  0  0  0  0  0  0  0  0  0
   36.6350   29.4120   39.0430 C   0  0  0  0  0  0  0  0  0  0  0  0
   36.8380   30.1480   37.8920 C   0  0  0  0  0  0  0  0  0  0  0  0
   37.8060   31.0560   37.7480 N   0  0  0  0  0  0  0  0  0  0  0  0
   38.6320   31.2720   38.7700 C   0  0  0  0  0  0  0  0  0  0  0  0
   38.4880   30.5840   39.9280 N   0  0  0  0  0  0  0  0  0  0  0  0
   39.6770   32.2470   38.6260 N   0  0  0  0  0  0  0  0  0  0  0  0
   40.7460   32.2240   37.7920 C   0  0  0  0  0  0  0  0  0  0  0  0
   41.4750   33.3430   37.9890 N   0  0  0  0  0  0  0  0  0  0  0  0
   40.8880   34.0860   38.9400 C   0  0  0  0  0  0  0  0  0  0  0  0
   41.1440   35.2990   39.5630 C   0  0  0  0  0  0  0  0  0  0  0  0
   40.3050   35.7640   40.5200 N   0  0  0  0  0  0  0  0  0  0  0  0
   39.2080   35.0640   40.8890 C   0  0  0  0  0  0  0  0  0  0  0  0
   38.9200   33.8700   40.3040 N   0  0  0  0  0  0  0  0  0  0  0  0
   39.7580   33.4030   39.3460 C   0  0  0  0  0  0  0  0  0  0  0  0
   37.5930   28.8820   43.6720 C   0  0  0  0  0  0  0  0  0  0  0  0
   37.1010   27.5560   43.7150 C   0  0  0  0  0  0  0  0  0  0  0  0
   36.7560   26.9670   42.5100 C   0  0  0  0  0  0  0  0  0  0  0  0
   36.9020   27.6800   41.3450 N   0  0  0  0  0  0  0  0  0  0  0  0
   37.3680   28.9290   41.3390 C   0  0  0  0  0  0  0  0  0  0  0  0
   37.7060   29.5110   42.4960 N   0  0  0  0  0  0  0  0  0  0  0  0
   35.8273   28.6704   39.1308 H   0  0  0  0  0  0  0  0  0  0  0  0
   36.1609   29.9755   37.0424 H   0  0  0  0  0  0  0  0  0  0  0  0
   40.9805   31.4250   37.0732 H   0  0  0  0  0  0  0  0  0  0  0  0
   42.0307   35.8849   39.2792 H   0  0  0  0  0  0  0  0  0  0  0  0
   38.5430   35.4636   41.6688 H   0  0  0  0  0  0  0  0  0  0  0  0
   37.8816   29.3941   44.6018 H   0  0  0  0  0  0  0  0  0  0  0  0
   36.9968   27.0149   44.6670 H   0  0  0  0  0  0  0  0  0  0  0  0
   36.3686   25.9377   42.4860 H   0  0  0  0  0  0  0  0  0  0  0  0
  1 20  1  0
  2  1  2  0
  3  2  1  0
  4  3  2  0
  4  5  1  0
  5  6  2  0
  6  1  1  0
  7  5  1  0
  7 15  1  0
  8  9  2  0
  8  7  1  0
  9 10  1  0
 10 15  2  0
 10 11  1  0
 11 12  2  0
 12 13  1  0
 14 13  2  0
 15 14  1  0
 16 17  2  0
 18 17  1  0
 19 18  2  0
 20 19  1  0
 20 21  2  0
 21 16  1  0
  2 22  1  0
  3 23  1  0
  8 24  1  0
 11 25  1  0
 13 26  1  0
 16 27  1  0
 17 28  1  0
 18 29  1  0
M  ISO  8  22  14  23  14  24  14  25  14  26  14  27  14  28  14  29  14
M  END
>  <minimizedAffinity>  (1) 
-5.80902576

>  <minimizedRMSD>  (1) 
1.71549177

$$$$
