
     RDKit          3D

 32 35  0  0  0  0  0  0  0  0999 V2000
   37.2820   29.7570   40.3160 C   0  0  0  0  0  0  0  0  0  0  0  0
   36.3740   29.5490   39.3140 C   0  0  0  0  0  0  0  0  0  0  0  0
   36.5070   30.3150   38.1800 C   0  0  0  0  0  0  0  0  0  0  0  0
   37.4740   31.2400   38.0280 N   0  0  0  0  0  0  0  0  0  0  0  0
   38.3340   31.4130   39.0200 C   0  0  0  0  0  0  0  0  0  0  0  0
   38.2540   30.6880   40.1590 N   0  0  0  0  0  0  0  0  0  0  0  0
   39.3800   32.4100   38.8600 C   0  0  0  0  0  0  0  0  0  0  0  0
   40.4270   32.3020   37.9560 C   0  0  0  0  0  0  0  0  0  0  0  0
   41.2070   33.4080   38.0810 N   0  0  0  0  0  0  0  0  0  0  0  0
   40.7060   34.2230   39.0270 C   0  0  0  0  0  0  0  0  0  0  0  0
   41.1930   35.4410   39.4580 C   0  0  0  0  0  0  0  0  0  0  0  0
   40.4430   36.0470   40.4620 C   0  0  0  0  0  0  0  0  0  0  0  0
   39.2880   35.4510   40.9770 C   0  0  0  0  0  0  0  0  0  0  0  0
   38.8660   34.2310   40.4910 C   0  0  0  0  0  0  0  0  0  0  0  0
   39.5860   33.6020   39.4970 C   0  0  0  0  0  0  0  0  0  0  0  0
   37.6240   28.7580   43.8340 C   0  0  0  0  0  0  0  0  0  0  0  0
   37.0340   27.4850   43.8620 C   0  0  0  0  0  0  0  0  0  0  0  0
   36.5230   26.9810   42.6680 C   0  0  0  0  0  0  0  0  0  0  0  0
   36.6340   27.7660   41.5530 N   0  0  0  0  0  0  0  0  0  0  0  0
   37.2000   28.9740   41.5570 C   0  0  0  0  0  0  0  0  0  0  0  0
   37.7010   29.4800   42.7000 N   0  0  0  0  0  0  0  0  0  0  0  0
   35.5727   28.8017   39.4113 H   0  0  0  0  0  0  0  0  0  0  0  0
   35.7905   30.1654   37.3589 H   0  0  0  0  0  0  0  0  0  0  0  0
   40.5962   31.4673   37.2599 H   0  0  0  0  0  0  0  0  0  0  0  0
   42.0578   33.5950   37.5315 H   0  0  0  0  0  0  0  0  0  0  0  0
   42.1028   35.8970   39.0405 H   0  0  0  0  0  0  0  0  0  0  0  0
   40.7674   37.0197   40.8603 H   0  0  0  0  0  0  0  0  0  0  0  0
   38.7157   35.9550   41.7698 H   0  0  0  0  0  0  0  0  0  0  0  0
   37.9574   33.7609   40.8953 H   0  0  0  0  0  0  0  0  0  0  0  0
   38.0349   29.1776   44.7641 H   0  0  0  0  0  0  0  0  0  0  0  0
   36.9770   26.9049   44.7949 H   0  0  0  0  0  0  0  0  0  0  0  0
   36.0484   25.9897   42.6234 H   0  0  0  0  0  0  0  0  0  0  0  0
  1 20  1  0
  2  1  2  0
  3  2  1  0
  4  3  2  0
  4  5  1  0
  5  6  2  0
  6  1  1  0
  7  5  1  0
  7 15  1  0
  8  9  1  0
  8  7  2  0
  9 10  1  0
 10 11  1  0
 10 15  2  0
 11 12  2  0
 12 13  1  0
 14 13  2  0
 15 14  1  0
 16 17  2  0
 18 17  1  0
 19 20  1  0
 19 18  2  0
 20 21  2  0
 21 16  1  0
  2 22  1  0
  3 23  1  0
  8 24  1  0
  9 25  1  0
 11 26  1  0
 12 27  1  0
 13 28  1  0
 14 29  1  0
 16 30  1  0
 17 31  1  0
 18 32  1  0
M  ISO  8  22  14  23  14  24  14  25   9  26  14  27  14  28  14  29  14
M  ISO  3  30  14  31  14  32  14
M  END
>  <minimizedAffinity>  (1) 
-5.73758698

>  <minimizedRMSD>  (1) 
2.02574515

$$$$
