
     RDKit          3D

 28 30  0  0  0  0  0  0  0  0999 V2000
   37.8750   30.4680   40.9130 C   0  0  0  0  0  0  0  0  0  0  0  0
   36.8150   30.2750   40.0570 C   0  0  0  0  0  0  0  0  0  0  0  0
   36.6000   31.2790   39.1340 C   0  0  0  0  0  0  0  0  0  0  0  0
   37.3590   32.3900   39.0470 N   0  0  0  0  0  0  0  0  0  0  0  0
   38.3680   32.5250   39.8940 C   0  0  0  0  0  0  0  0  0  0  0  0
   38.6390   31.5810   40.8270 N   0  0  0  0  0  0  0  0  0  0  0  0
   37.4100   28.1070   43.7030 C   0  0  0  0  0  0  0  0  0  0  0  0
   38.6930   27.5240   43.8240 C   0  0  0  0  0  0  0  0  0  0  0  0
   39.6900   27.9420   42.9600 C   0  0  0  0  0  0  0  0  0  0  0  0
   39.4100   28.9050   42.0130 N   0  0  0  0  0  0  0  0  0  0  0  0
   38.1710   29.4360   41.9300 C   0  0  0  0  0  0  0  0  0  0  0  0
   37.2010   29.0370   42.7640 N   0  0  0  0  0  0  0  0  0  0  0  0
   39.2260   33.7030   39.8510 C   0  0  0  0  0  0  0  0  0  0  0  0
   38.7510   34.9340   40.2540 C   0  0  0  0  0  0  0  0  0  0  0  0
   39.4470   36.1310   40.2670 C   0  0  0  0  0  0  0  0  0  0  0  0
   40.7650   36.0350   39.8200 C   0  0  0  0  0  0  0  0  0  0  0  0
   41.2900   34.8410   39.4080 C   0  0  0  0  0  0  0  0  0  0  0  0
   40.5450   33.6640   39.4150 C   0  0  0  0  0  0  0  0  0  0  0  0
   36.1797   29.3783   40.1050 H   0  0  0  0  0  0  0  0  0  0  0  0
   35.7624   31.1662   38.4300 H   0  0  0  0  0  0  0  0  0  0  0  0
   36.5936   27.7994   44.3730 H   0  0  0  0  0  0  0  0  0  0  0  0
   38.8935   26.7569   44.5864 H   0  0  0  0  0  0  0  0  0  0  0  0
   40.6990   27.5092   43.0280 H   0  0  0  0  0  0  0  0  0  0  0  0
   37.7081   34.9683   40.6021 H   0  0  0  0  0  0  0  0  0  0  0  0
   38.9984   37.0780   40.6017 H   0  0  0  0  0  0  0  0  0  0  0  0
   41.3943   36.9370   39.7984 H   0  0  0  0  0  0  0  0  0  0  0  0
   42.3331   34.8093   39.0603 H   0  0  0  0  0  0  0  0  0  0  0  0
   40.9942   32.7173   39.0803 H   0  0  0  0  0  0  0  0  0  0  0  0
  1 11  1  0
  2  1  2  0
  3  2  1  0
  4  3  2  0
  4  5  1  0
  5  6  2  0
  6  1  1  0
  7  8  2  0
  9  8  1  0
 10  9  2  0
 11 10  1  0
 11 12  2  0
 12  7  1  0
 13  5  1  0
 13 14  2  0
 14 15  1  0
 16 15  2  0
 17 18  2  0
 17 16  1  0
 18 13  1  0
  2 19  1  0
  3 20  1  0
  7 21  1  0
  8 22  1  0
  9 23  1  0
 14 24  1  0
 15 25  1  0
 16 26  1  0
 17 27  1  0
 18 28  1  0
M  ISO  8  19  14  20  14  21  14  22  14  23  14  24  14  25  14  26  14
M  ISO  2  27  14  28  14
M  END
>  <minimizedAffinity>  (1) 
-5.46629047

>  <minimizedRMSD>  (1) 
3.25278711

$$$$
