
     RDKit          3D

 31 33  0  0  0  0  0  0  0  0999 V2000
   38.0080   30.5330   40.6310 C   0  0  0  0  0  0  0  0  0  0  0  0
   37.0930   30.3490   39.6140 C   0  0  0  0  0  0  0  0  0  0  0  0
   37.0010   31.4010   38.7250 C   0  0  0  0  0  0  0  0  0  0  0  0
   37.7220   32.5250   38.8060 N   0  0  0  0  0  0  0  0  0  0  0  0
   38.5880   32.6580   39.8000 C   0  0  0  0  0  0  0  0  0  0  0  0
   38.7280   31.6690   40.7030 N   0  0  0  0  0  0  0  0  0  0  0  0
   39.3910   33.8220   39.9580 N   0  0  0  0  0  0  0  0  0  0  0  0
   40.6910   33.9870   39.3750 C   0  0  0  0  0  0  0  0  0  0  0  0
   41.5790   34.9180   40.1540 C   0  0  0  0  0  0  0  0  0  0  0  0
   40.9720   36.1090   40.4930 O   0  0  0  0  0  0  0  0  0  0  0  0
   39.6300   36.1710   40.1430 C   0  0  0  0  0  0  0  0  0  0  0  0
   38.9480   34.9610   40.7370 C   0  0  0  0  0  0  0  0  0  0  0  0
   37.4700   28.4440   43.6060 C   0  0  0  0  0  0  0  0  0  0  0  0
   38.4840   27.4740   43.4950 C   0  0  0  0  0  0  0  0  0  0  0  0
   39.3410   27.5390   42.4100 C   0  0  0  0  0  0  0  0  0  0  0  0
   39.1480   28.5490   41.5060 N   0  0  0  0  0  0  0  0  0  0  0  0
   38.1780   29.4590   41.6330 C   0  0  0  0  0  0  0  0  0  0  0  0
   37.3280   29.4140   42.6850 N   0  0  0  0  0  0  0  0  0  0  0  0
   36.4856   29.4368   39.5195 H   0  0  0  0  0  0  0  0  0  0  0  0
   36.2865   31.3089   37.8937 H   0  0  0  0  0  0  0  0  0  0  0  0
   41.1779   33.0020   39.3232 H   0  0  0  0  0  0  0  0  0  0  0  0
   40.5472   34.4314   38.3791 H   0  0  0  0  0  0  0  0  0  0  0  0
   41.8880   34.4100   41.0794 H   0  0  0  0  0  0  0  0  0  0  0  0
   42.4327   35.1654   39.5059 H   0  0  0  0  0  0  0  0  0  0  0  0
   39.1795   37.0906   40.5446 H   0  0  0  0  0  0  0  0  0  0  0  0
   39.5156   36.1814   39.0490 H   0  0  0  0  0  0  0  0  0  0  0  0
   37.8553   35.0676   40.6686 H   0  0  0  0  0  0  0  0  0  0  0  0
   39.2011   34.8410   41.8007 H   0  0  0  0  0  0  0  0  0  0  0  0
   36.7805   28.4081   44.4623 H   0  0  0  0  0  0  0  0  0  0  0  0
   38.5927   26.6835   44.2522 H   0  0  0  0  0  0  0  0  0  0  0  0
   40.1493   26.8045   42.2786 H   0  0  0  0  0  0  0  0  0  0  0  0
  1  6  1  0
  1 17  1  0
  2  1  2  0
  3  4  2  0
  3  2  1  0
  4  5  1  0
  5  7  1  0
  5  6  2  0
  7 12  1  0
  8  7  1  0
  8  9  1  0
  9 10  1  0
 11 10  1  0
 11 12  1  0
 14 13  2  0
 15 14  1  0
 16 17  1  0
 16 15  2  0
 17 18  2  0
 18 13  1  0
  2 19  1  0
  3 20  1  0
  8 21  1  0
  8 22  1  0
  9 23  1  0
  9 24  1  0
 11 25  1  0
 11 26  1  0
 12 27  1  0
 12 28  1  0
 13 29  1  0
 14 30  1  0
 15 31  1  0
M  ISO  8  19  14  20  14  21  13  22  13  23  13  24  13  25  13  26  13
M  ISO  5  27  13  28  13  29  14  30  14  31  14
M  END
>  <minimizedAffinity>  (1) 
-5.40594196

>  <minimizedRMSD>  (1) 
3.22272325

$$$$
