
     RDKit          3D

 34 36  0  0  0  0  0  0  0  0999 V2000
   37.4830   30.4640   40.3950 C   0  0  0  0  0  0  0  0  0  0  0  0
   36.7800   30.2270   39.2310 C   0  0  0  0  0  0  0  0  0  0  0  0
   36.9460   31.1430   38.2150 C   0  0  0  0  0  0  0  0  0  0  0  0
   37.7440   32.2240   38.3190 N   0  0  0  0  0  0  0  0  0  0  0  0
   38.4000   32.4130   39.4560 C   0  0  0  0  0  0  0  0  0  0  0  0
   38.2660   31.5410   40.4770 N   0  0  0  0  0  0  0  0  0  0  0  0
   38.0390   28.8530   43.6460 C   0  0  0  0  0  0  0  0  0  0  0  0
   37.1270   27.7890   43.6260 C   0  0  0  0  0  0  0  0  0  0  0  0
   36.3280   27.6350   42.4960 C   0  0  0  0  0  0  0  0  0  0  0  0
   36.4560   28.5140   41.4500 N   0  0  0  0  0  0  0  0  0  0  0  0
   37.3500   29.5260   41.5160 C   0  0  0  0  0  0  0  0  0  0  0  0
   38.1300   29.6870   42.6050 N   0  0  0  0  0  0  0  0  0  0  0  0
   39.3040   33.5740   39.6700 C   0  0  0  0  0  0  0  0  0  0  0  0
   38.6220   34.7710   40.2540 C   0  0  0  0  0  0  0  0  0  0  0  0
   39.5850   35.9380   40.1610 C   0  0  0  0  0  0  0  0  0  0  0  0
   40.9240   35.6630   40.7650 C   0  0  0  0  0  0  0  0  0  0  0  0
   41.4750   34.3040   40.4640 C   0  0  0  0  0  0  0  0  0  0  0  0
   40.4470   33.2060   40.6140 C   0  0  0  0  0  0  0  0  0  0  0  0
   36.1217   29.3527   39.1202 H   0  0  0  0  0  0  0  0  0  0  0  0
   36.4005   30.9841   37.2731 H   0  0  0  0  0  0  0  0  0  0  0  0
   38.6843   29.0029   44.5241 H   0  0  0  0  0  0  0  0  0  0  0  0
   37.0449   27.0967   44.4769 H   0  0  0  0  0  0  0  0  0  0  0  0
   35.5984   26.8135   42.4421 H   0  0  0  0  0  0  0  0  0  0  0  0
   39.6706   33.8317   38.6654 H   0  0  0  0  0  0  0  0  0  0  0  0
   37.7060   34.9945   39.6874 H   0  0  0  0  0  0  0  0  0  0  0  0
   38.3422   34.5836   41.3012 H   0  0  0  0  0  0  0  0  0  0  0  0
   39.7277   36.1864   39.0990 H   0  0  0  0  0  0  0  0  0  0  0  0
   39.1402   36.7673   40.7305 H   0  0  0  0  0  0  0  0  0  0  0  0
   41.6329   36.4129   40.3842 H   0  0  0  0  0  0  0  0  0  0  0  0
   40.7903   35.7112   41.8558 H   0  0  0  0  0  0  0  0  0  0  0  0
   42.3075   34.1021   41.1541 H   0  0  0  0  0  0  0  0  0  0  0  0
   41.8046   34.3065   39.4145 H   0  0  0  0  0  0  0  0  0  0  0  0
   40.0862   33.1584   41.6520 H   0  0  0  0  0  0  0  0  0  0  0  0
   40.8700   32.2197   40.3723 H   0  0  0  0  0  0  0  0  0  0  0  0
  1  6  1  0
  1 11  1  0
  2  1  2  0
  3  4  2  0
  3  2  1  0
  4  5  1  0
  5 13  1  0
  5  6  2  0
  8  7  2  0
  9  8  1  0
 10 11  1  0
 10  9  2  0
 11 12  2  0
 12  7  1  0
 13 14  1  0
 13 18  1  0
 15 14  1  0
 15 16  1  0
 17 18  1  0
 17 16  1  0
  2 19  1  0
  3 20  1  0
  7 21  1  0
  8 22  1  0
  9 23  1  0
 13 24  1  0
 14 25  1  0
 14 26  1  0
 15 27  1  0
 15 28  1  0
 16 29  1  0
 16 30  1  0
 17 31  1  0
 17 32  1  0
 18 33  1  0
 18 34  1  0
M  ISO  8  19  14  20  14  21  14  22  14  23  14  24  13  25  13  26  13
M  ISO  8  27  13  28  13  29  13  30  13  31  13  32  13  33  13  34  13
M  END
>  <minimizedAffinity>  (1) 
-5.29081154

>  <minimizedRMSD>  (1) 
3.02468324

$$$$
