
     RDKit          3D

 25 27  0  0  0  0  0  0  0  0999 V2000
   37.4210   30.5290   40.6240 C   0  0  0  0  0  0  0  0  0  0  0  0
   36.7720   30.2970   39.4270 C   0  0  0  0  0  0  0  0  0  0  0  0
   36.9120   31.2910   38.4810 C   0  0  0  0  0  0  0  0  0  0  0  0
   37.6140   32.4140   38.6620 N   0  0  0  0  0  0  0  0  0  0  0  0
   38.2250   32.6000   39.8280 C   0  0  0  0  0  0  0  0  0  0  0  0
   38.1190   31.6530   40.7930 N   0  0  0  0  0  0  0  0  0  0  0  0
   38.0750   28.7080   43.7370 C   0  0  0  0  0  0  0  0  0  0  0  0
   37.1490   27.6420   43.6830 C   0  0  0  0  0  0  0  0  0  0  0  0
   36.3150   27.5640   42.5810 C   0  0  0  0  0  0  0  0  0  0  0  0
   36.4330   28.5200   41.6070 N   0  0  0  0  0  0  0  0  0  0  0  0
   37.3260   29.5170   41.6960 C   0  0  0  0  0  0  0  0  0  0  0  0
   38.1530   29.6200   42.7600 N   0  0  0  0  0  0  0  0  0  0  0  0
   39.0270   33.7800   40.1670 C   0  0  0  0  0  0  0  0  0  0  0  0
   40.2620   34.1110   39.5960 C   0  0  0  0  0  0  0  0  0  0  0  0
   40.6840   35.2720   40.1730 N   0  0  0  0  0  0  0  0  0  0  0  0
   39.7580   35.6490   41.0620 C   0  0  0  0  0  0  0  0  0  0  0  0
   38.7750   34.7570   41.0540 N   0  0  0  0  0  0  0  0  0  0  0  0
   36.1856   29.3850   39.2415 H   0  0  0  0  0  0  0  0  0  0  0  0
   36.4118   31.1499   37.5115 H   0  0  0  0  0  0  0  0  0  0  0  0
   38.7482   28.7905   44.6030 H   0  0  0  0  0  0  0  0  0  0  0  0
   37.0927   26.8978   44.4911 H   0  0  0  0  0  0  0  0  0  0  0  0
   35.5759   26.7545   42.4897 H   0  0  0  0  0  0  0  0  0  0  0  0
   40.7948   33.5384   38.8225 H   0  0  0  0  0  0  0  0  0  0  0  0
   39.8036   36.5481   41.6941 H   0  0  0  0  0  0  0  0  0  0  0  0
   37.9341   34.8071   41.6467 H   0  0  0  0  0  0  0  0  0  0  0  0
  1  6  1  0
  1 11  1  0
  2  1  2  0
  3  4  2  0
  3  2  1  0
  4  5  1  0
  5 13  1  0
  5  6  2  0
  8  7  2  0
  9  8  1  0
 10 11  1  0
 10  9  2  0
 11 12  2  0
 12  7  1  0
 13 17  1  0
 14 13  2  0
 14 15  1  0
 15 16  2  0
 17 16  1  0
  2 18  1  0
  3 19  1  0
  7 20  1  0
  8 21  1  0
  9 22  1  0
 14 23  1  0
 16 24  1  0
 17 25  1  0
M  ISO  8  18  14  19  14  20  14  21  14  22  14  23  14  24  14  25   9
M  END
>  <minimizedAffinity>  (1) 
-5.09121752

>  <minimizedRMSD>  (1) 
2.91387653

$$$$
