
     RDKit          3D

 25 27  0  0  0  0  0  0  0  0999 V2000
   37.4540   30.4340   40.4280 C   0  0  0  0  0  0  0  0  0  0  0  0
   36.7920   30.1610   39.2510 C   0  0  0  0  0  0  0  0  0  0  0  0
   36.9310   31.0800   38.2310 C   0  0  0  0  0  0  0  0  0  0  0  0
   37.6650   32.1860   38.3540 N   0  0  0  0  0  0  0  0  0  0  0  0
   38.2900   32.4230   39.4980 C   0  0  0  0  0  0  0  0  0  0  0  0
   38.1910   31.5560   40.5350 N   0  0  0  0  0  0  0  0  0  0  0  0
   38.0510   28.8010   43.6680 C   0  0  0  0  0  0  0  0  0  0  0  0
   37.1350   27.7360   43.6560 C   0  0  0  0  0  0  0  0  0  0  0  0
   36.3300   27.5960   42.5390 C   0  0  0  0  0  0  0  0  0  0  0  0
   36.4550   28.4890   41.5020 N   0  0  0  0  0  0  0  0  0  0  0  0
   37.3520   29.4990   41.5610 C   0  0  0  0  0  0  0  0  0  0  0  0
   38.1510   29.6650   42.6320 N   0  0  0  0  0  0  0  0  0  0  0  0
   39.1280   33.5960   39.7740 C   0  0  0  0  0  0  0  0  0  0  0  0
   38.6550   34.8130   40.2490 C   0  0  0  0  0  0  0  0  0  0  0  0
   39.5650   35.8200   40.4600 C   0  0  0  0  0  0  0  0  0  0  0  0
   40.9240   35.6160   40.2030 C   0  0  0  0  0  0  0  0  0  0  0  0
   40.8910   33.8010   39.5980 S   0  0  0  0  0  0  0  0  0  0  0  0
   36.1818   29.2538   39.1301 H   0  0  0  0  0  0  0  0  0  0  0  0
   36.4152   30.8923   37.2777 H   0  0  0  0  0  0  0  0  0  0  0  0
   38.7041   28.9359   44.5428 H   0  0  0  0  0  0  0  0  0  0  0  0
   37.0603   27.0388   44.5035 H   0  0  0  0  0  0  0  0  0  0  0  0
   35.5971   26.7777   42.4818 H   0  0  0  0  0  0  0  0  0  0  0  0
   37.5843   34.9654   40.4500 H   0  0  0  0  0  0  0  0  0  0  0  0
   39.2215   36.7956   40.8345 H   0  0  0  0  0  0  0  0  0  0  0  0
   41.7737   36.3053   40.3167 H   0  0  0  0  0  0  0  0  0  0  0  0
  1  6  1  0
  1 11  1  0
  2  1  2  0
  3  4  2  0
  3  2  1  0
  4  5  1  0
  5 13  1  0
  5  6  2  0
  8  7  2  0
  9  8  1  0
 10 11  1  0
 10  9  2  0
 11 12  2  0
 12  7  1  0
 13 14  2  0
 14 15  1  0
 16 15  2  0
 17 13  1  0
 17 16  1  0
  2 18  1  0
  3 19  1  0
  7 20  1  0
  8 21  1  0
  9 22  1  0
 14 23  1  0
 15 24  1  0
 16 25  1  0
M  ISO  8  18  14  19  14  20  14  21  14  22  14  23  14  24  14  25  14
M  END
>  <minimizedAffinity>  (1) 
-5.04069281

>  <minimizedRMSD>  (1) 
2.75798535

$$$$
