
     RDKit          3D

 30 32  0  0  0  0  0  0  0  0999 V2000
   37.7860   30.1090   40.2480 C   0  0  0  0  0  0  0  0  0  0  0  0
   37.4740   29.6380   38.9790 C   0  0  0  0  0  0  0  0  0  0  0  0
   37.7220   30.5350   37.9520 C   0  0  0  0  0  0  0  0  0  0  0  0
   38.2240   31.7710   38.1260 N   0  0  0  0  0  0  0  0  0  0  0  0
   38.5040   32.1680   39.3590 C   0  0  0  0  0  0  0  0  0  0  0  0
   38.2880   31.3480   40.4110 N   0  0  0  0  0  0  0  0  0  0  0  0
   39.0360   33.4680   39.5910 N   0  0  0  0  0  0  0  0  0  0  0  0
   40.4170   33.8030   39.2940 C   0  0  0  0  0  0  0  0  0  0  0  0
   40.6890   35.1340   39.9290 C   0  0  0  0  0  0  0  0  0  0  0  0
   39.5650   35.2420   40.9380 C   0  0  0  0  0  0  0  0  0  0  0  0
   38.4140   34.6490   40.1180 C   0  0  0  0  0  0  0  0  0  0  0  0
   37.7300   28.8460   43.6910 C   0  0  0  0  0  0  0  0  0  0  0  0
   37.1210   27.5700   43.5420 C   0  0  0  0  0  0  0  0  0  0  0  0
   36.7380   27.1590   42.2670 C   0  0  0  0  0  0  0  0  0  0  0  0
   36.9780   28.0220   41.2390 N   0  0  0  0  0  0  0  0  0  0  0  0
   37.5500   29.2160   41.3950 C   0  0  0  0  0  0  0  0  0  0  0  0
   37.9320   29.6370   42.6240 N   0  0  0  0  0  0  0  0  0  0  0  0
   37.0628   28.6330   38.8032 H   0  0  0  0  0  0  0  0  0  0  0  0
   37.4928   30.2146   36.9249 H   0  0  0  0  0  0  0  0  0  0  0  0
   41.0897   33.0398   39.7124 H   0  0  0  0  0  0  0  0  0  0  0  0
   40.5875   33.8428   38.2080 H   0  0  0  0  0  0  0  0  0  0  0  0
   41.6715   35.1468   40.4234 H   0  0  0  0  0  0  0  0  0  0  0  0
   40.7205   35.9675   39.2118 H   0  0  0  0  0  0  0  0  0  0  0  0
   39.7696   34.6498   41.8421 H   0  0  0  0  0  0  0  0  0  0  0  0
   39.3846   36.2561   41.3241 H   0  0  0  0  0  0  0  0  0  0  0  0
   38.0960   35.3309   39.3156 H   0  0  0  0  0  0  0  0  0  0  0  0
   37.4960   34.4605   40.6939 H   0  0  0  0  0  0  0  0  0  0  0  0
   38.0388   29.1889   44.6895 H   0  0  0  0  0  0  0  0  0  0  0  0
   36.9557   26.9211   44.4147 H   0  0  0  0  0  0  0  0  0  0  0  0
   36.2630   26.1815   42.0972 H   0  0  0  0  0  0  0  0  0  0  0  0
  1  6  1  0
  1 16  1  0
  2  1  2  0
  3  4  2  0
  3  2  1  0
  4  5  1  0
  5  7  1  0
  5  6  2  0
  7 11  1  0
  8  7  1  0
  8  9  1  0
  9 10  1  0
 11 10  1  0
 13 12  2  0
 14 13  1  0
 15 16  1  0
 15 14  2  0
 16 17  2  0
 17 12  1  0
  2 18  1  0
  3 19  1  0
  8 20  1  0
  8 21  1  0
  9 22  1  0
  9 23  1  0
 10 24  1  0
 10 25  1  0
 11 26  1  0
 11 27  1  0
 12 28  1  0
 13 29  1  0
 14 30  1  0
M  ISO  8  18  14  19  14  20  13  21  13  22  13  23  13  24  13  25  13
M  ISO  5  26  13  27  13  28  14  29  14  30  14
M  END
>  <minimizedAffinity>  (1) 
-4.81889725

>  <minimizedRMSD>  (1) 
2.652771

$$$$
