
     RDKit          3D

 24 26  0  0  0  0  0  0  0  0999 V2000
   37.2690   29.6930   40.0400 C   0  0  0  0  0  0  0  0  0  0  0  0
   36.2660   29.4100   39.1490 C   0  0  0  0  0  0  0  0  0  0  0  0
   36.3620   30.0350   37.9160 C   0  0  0  0  0  0  0  0  0  0  0  0
   37.3580   30.8710   37.5810 N   0  0  0  0  0  0  0  0  0  0  0  0
   38.3180   31.1220   38.4790 C   0  0  0  0  0  0  0  0  0  0  0  0
   38.2660   30.5370   39.6890 N   0  0  0  0  0  0  0  0  0  0  0  0
   39.4520   31.9690   38.3290 N   0  0  0  0  0  0  0  0  0  0  0  0
   40.3790   32.2000   37.3820 C   0  0  0  0  0  0  0  0  0  0  0  0
   41.2410   33.1420   37.8020 N   0  0  0  0  0  0  0  0  0  0  0  0
   40.8420   33.5040   39.0350 C   0  0  0  0  0  0  0  0  0  0  0  0
   39.7490   32.7760   39.3370 N   0  0  0  0  0  0  0  0  0  0  0  0
   38.0810   29.0170   43.5650 C   0  0  0  0  0  0  0  0  0  0  0  0
   37.2400   27.9400   43.8800 C   0  0  0  0  0  0  0  0  0  0  0  0
   36.4010   27.4560   42.8800 C   0  0  0  0  0  0  0  0  0  0  0  0
   36.4220   28.0380   41.6320 N   0  0  0  0  0  0  0  0  0  0  0  0
   37.2510   29.0720   41.3810 C   0  0  0  0  0  0  0  0  0  0  0  0
   38.0750   29.5580   42.3400 N   0  0  0  0  0  0  0  0  0  0  0  0
   35.4377   28.7300   39.3972 H   0  0  0  0  0  0  0  0  0  0  0  0
   35.5786   29.8352   37.1701 H   0  0  0  0  0  0  0  0  0  0  0  0
   40.4249   31.6926   36.4071 H   0  0  0  0  0  0  0  0  0  0  0  0
   41.3206   34.2567   39.6788 H   0  0  0  0  0  0  0  0  0  0  0  0
   38.7545   29.4228   44.3343 H   0  0  0  0  0  0  0  0  0  0  0  0
   37.2431   27.4921   44.8847 H   0  0  0  0  0  0  0  0  0  0  0  0
   35.7248   26.6131   43.0856 H   0  0  0  0  0  0  0  0  0  0  0  0
  1 16  1  0
  2  1  2  0
  3  2  1  0
  4  3  2  0
  4  5  1  0
  5  6  2  0
  6  1  1  0
  7  5  1  0
  7 11  1  0
  8  9  2  0
  8  7  1  0
  9 10  1  0
 10 11  2  0
 12 13  2  0
 14 13  1  0
 15 14  2  0
 16 15  1  0
 16 17  2  0
 17 12  1  0
  2 18  1  0
  3 19  1  0
  8 20  1  0
 10 21  1  0
 12 22  1  0
 13 23  1  0
 14 24  1  0
M  ISO  7  18  14  19  14  20  14  21  14  22  14  23  14  24  14
M  END
>  <minimizedAffinity>  (1) 
-4.71112394

>  <minimizedRMSD>  (1) 
0.972808003

$$$$
