
     RDKit          3D

 25 27  0  0  0  0  0  0  0  0999 V2000
   37.3060   29.7410   40.0530 C   0  0  0  0  0  0  0  0  0  0  0  0
   36.2940   29.4730   39.1490 C   0  0  0  0  0  0  0  0  0  0  0  0
   36.3990   30.1130   37.9300 C   0  0  0  0  0  0  0  0  0  0  0  0
   37.3950   30.9400   37.6120 N   0  0  0  0  0  0  0  0  0  0  0  0
   38.3540   31.1730   38.5160 C   0  0  0  0  0  0  0  0  0  0  0  0
   38.3170   30.5840   39.7250 N   0  0  0  0  0  0  0  0  0  0  0  0
   38.1190   28.9850   43.5650 C   0  0  0  0  0  0  0  0  0  0  0  0
   37.2530   27.9190   43.8480 C   0  0  0  0  0  0  0  0  0  0  0  0
   36.3940   27.4670   42.8330 C   0  0  0  0  0  0  0  0  0  0  0  0
   36.4360   28.0800   41.6120 N   0  0  0  0  0  0  0  0  0  0  0  0
   37.2920   29.1060   41.3910 C   0  0  0  0  0  0  0  0  0  0  0  0
   38.1180   29.5500   42.3490 N   0  0  0  0  0  0  0  0  0  0  0  0
   39.5350   32.0470   38.3700 C   0  0  0  0  0  0  0  0  0  0  0  0
   40.4760   32.1010   37.3800 C   0  0  0  0  0  0  0  0  0  0  0  0
   41.3630   33.0900   37.7240 C   0  0  0  0  0  0  0  0  0  0  0  0
   40.9280   33.6000   38.9100 C   0  0  0  0  0  0  0  0  0  0  0  0
   39.8290   32.9650   39.2870 O   0  0  0  0  0  0  0  0  0  0  0  0
   35.4608   28.7949   39.3855 H   0  0  0  0  0  0  0  0  0  0  0  0
   35.6165   29.9301   37.1788 H   0  0  0  0  0  0  0  0  0  0  0  0
   38.8011   29.3588   44.3428 H   0  0  0  0  0  0  0  0  0  0  0  0
   37.2466   27.4477   44.8419 H   0  0  0  0  0  0  0  0  0  0  0  0
   35.6995   26.6342   43.0174 H   0  0  0  0  0  0  0  0  0  0  0  0
   40.5149   31.4714   36.4789 H   0  0  0  0  0  0  0  0  0  0  0  0
   42.2492   33.4078   37.1551 H   0  0  0  0  0  0  0  0  0  0  0  0
   41.4145   34.4135   39.4681 H   0  0  0  0  0  0  0  0  0  0  0  0
  1 11  1  0
  2  1  2  0
  3  2  1  0
  4  3  2  0
  4  5  1  0
  5  6  2  0
  6  1  1  0
  7  8  2  0
  9  8  1  0
 10  9  2  0
 11 10  1  0
 11 12  2  0
 12  7  1  0
 13  5  1  0
 13 17  1  0
 14 15  1  0
 14 13  2  0
 15 16  2  0
 16 17  1  0
  2 18  1  0
  3 19  1  0
  7 20  1  0
  8 21  1  0
  9 22  1  0
 14 23  1  0
 15 24  1  0
 16 25  1  0
M  ISO  8  18  14  19  14  20  14  21  14  22  14  23  14  24  14  25  14
M  END
>  <minimizedAffinity>  (1) 
-4.4592185

>  <minimizedRMSD>  (1) 
1.07898009

$$$$
