
     RDKit          3D

 21 22  0  0  0  0  0  0  0  0999 V2000
   36.6480   29.1370   40.0720 C   0  0  0  0  0  0  0  0  0  0  0  0
   35.7920   28.3660   39.3000 C   0  0  0  0  0  0  0  0  0  0  0  0
   35.6040   28.8030   38.0040 C   0  0  0  0  0  0  0  0  0  0  0  0
   36.1880   29.8860   37.4960 N   0  0  0  0  0  0  0  0  0  0  0  0
   37.0040   30.6000   38.2730 C   0  0  0  0  0  0  0  0  0  0  0  0
   37.2430   30.2390   39.5580 N   0  0  0  0  0  0  0  0  0  0  0  0
   38.0630   29.1330   43.4720 C   0  0  0  0  0  0  0  0  0  0  0  0
   37.4170   28.0380   44.0620 C   0  0  0  0  0  0  0  0  0  0  0  0
   36.5000   27.3080   43.2930 C   0  0  0  0  0  0  0  0  0  0  0  0
   36.2710   27.6890   42.0000 N   0  0  0  0  0  0  0  0  0  0  0  0
   36.9200   28.7550   41.4740 C   0  0  0  0  0  0  0  0  0  0  0  0
   37.7930   29.4510   42.2040 N   0  0  0  0  0  0  0  0  0  0  0  0
   37.6540   31.8050   37.7120 C   0  0  0  0  0  0  0  0  0  0  0  0
   37.4690   31.8940   36.3300 F   0  0  0  0  0  0  0  0  0  0  0  0
   39.0240   31.7840   37.9170 F   0  0  0  0  0  0  0  0  0  0  0  0
   37.1270   32.9480   38.2660 F   0  0  0  0  0  0  0  0  0  0  0  0
   35.2961   27.4666   39.6939 H   0  0  0  0  0  0  0  0  0  0  0  0
   34.9329   28.2228   37.3536 H   0  0  0  0  0  0  0  0  0  0  0  0
   38.7873   29.7261   44.0497 H   0  0  0  0  0  0  0  0  0  0  0  0
   37.6249   27.7577   45.1052 H   0  0  0  0  0  0  0  0  0  0  0  0
   35.9734   26.4431   43.7227 H   0  0  0  0  0  0  0  0  0  0  0  0
  1 11  1  0
  2  1  2  0
  3  2  1  0
  4  3  2  0
  4  5  1  0
  5  6  2  0
  6  1  1  0
  7  8  2  0
  9  8  1  0
 10  9  2  0
 11 10  1  0
 11 12  2  0
 12  7  1  0
 13 15  1  0
 13 16  1  0
 13  5  1  0
 14 13  1  0
  2 17  1  0
  3 18  1  0
  7 19  1  0
  8 20  1  0
  9 21  1  0
M  ISO  5  17  14  18  14  19  14  20  14  21  14
M  END
>  <minimizedAffinity>  (1) 
-4.37738657

>  <minimizedRMSD>  (1) 
1.138924

$$$$
