
     RDKit          3D

 30 31  0  0  0  0  0  0  0  0999 V2000
   36.6880   29.0760   40.1840 C   0  0  0  0  0  0  0  0  0  0  0  0
   35.8160   28.3190   39.4160 C   0  0  0  0  0  0  0  0  0  0  0  0
   35.6440   28.7540   38.1100 C   0  0  0  0  0  0  0  0  0  0  0  0
   36.2710   29.8360   37.6010 N   0  0  0  0  0  0  0  0  0  0  0  0
   37.0950   30.5250   38.3780 C   0  0  0  0  0  0  0  0  0  0  0  0
   37.3050   30.1500   39.6640 N   0  0  0  0  0  0  0  0  0  0  0  0
   38.0580   28.9730   43.5890 C   0  0  0  0  0  0  0  0  0  0  0  0
   37.3310   27.8990   44.1730 C   0  0  0  0  0  0  0  0  0  0  0  0
   36.3920   27.2340   43.4010 C   0  0  0  0  0  0  0  0  0  0  0  0
   36.2070   27.6390   42.1120 N   0  0  0  0  0  0  0  0  0  0  0  0
   36.9110   28.6600   41.5850 C   0  0  0  0  0  0  0  0  0  0  0  0
   37.8340   29.3300   42.3110 N   0  0  0  0  0  0  0  0  0  0  0  0
   37.7800   31.7080   37.8190 C   0  0  0  0  0  0  0  0  0  0  0  0
   37.4320   31.9510   36.3740 C   0  0  0  0  0  0  0  0  0  0  0  0
   39.2980   31.5740   37.9470 C   0  0  0  0  0  0  0  0  0  0  0  0
   37.3640   32.9370   38.6040 C   0  0  0  0  0  0  0  0  0  0  0  0
   35.2968   27.4350   39.8147 H   0  0  0  0  0  0  0  0  0  0  0  0
   34.9628   28.1892   37.4565 H   0  0  0  0  0  0  0  0  0  0  0  0
   38.8072   29.5146   44.1851 H   0  0  0  0  0  0  0  0  0  0  0  0
   37.5106   27.6022   45.2169 H   0  0  0  0  0  0  0  0  0  0  0  0
   35.8096   26.3992   43.8180 H   0  0  0  0  0  0  0  0  0  0  0  0
   36.5314   32.5798   36.3145 H   0  0  0  0  0  0  0  0  0  0  0  0
   38.2694   32.4617   35.8761 H   0  0  0  0  0  0  0  0  0  0  0  0
   37.2410   30.9889   35.8761 H   0  0  0  0  0  0  0  0  0  0  0  0
   39.5755   31.5495   39.0111 H   0  0  0  0  0  0  0  0  0  0  0  0
   39.6262   30.6434   37.4610 H   0  0  0  0  0  0  0  0  0  0  0  0
   39.7842   32.4327   37.4610 H   0  0  0  0  0  0  0  0  0  0  0  0
   37.4355   32.7256   39.6811 H   0  0  0  0  0  0  0  0  0  0  0  0
   38.0281   33.7764   38.3501 H   0  0  0  0  0  0  0  0  0  0  0  0
   36.3266   33.2004   38.3501 H   0  0  0  0  0  0  0  0  0  0  0  0
  1 11  1  0
  2  1  2  0
  3  2  1  0
  4  3  2  0
  4  5  1  0
  5  6  2  0
  6  1  1  0
  7  8  2  0
  9  8  1  0
 10  9  2  0
 11 10  1  0
 11 12  2  0
 12  7  1  0
 13 15  1  0
 13  5  1  0
 13 16  1  0
 14 13  1  0
  2 17  1  0
  3 18  1  0
  7 19  1  0
  8 20  1  0
  9 21  1  0
 14 22  1  0
 14 23  1  0
 14 24  1  0
 15 25  1  0
 15 26  1  0
 15 27  1  0
 16 28  1  0
 16 29  1  0
 16 30  1  0
M  ISO  8  17  14  18  14  19  14  20  14  21  14  22   8  23   8  24   8
M  ISO  6  25   8  26   8  27   8  28   8  29   8  30   8
M  END
>  <minimizedAffinity>  (1) 
-3.96659517

>  <minimizedRMSD>  (1) 
1.1100136

$$$$
