
     RDKit          3D

 39 41  0  0  1  0  0  0  0  0999 V2000
   38.0810   26.5270   40.3000 C   0  0  1  0  0  0  0  0  0  0  0  0
   37.9650   25.2300   39.4680 C   0  0  0  0  0  0  0  0  0  0  0  0
   36.5180   25.1670   39.0490 C   0  0  0  0  0  0  0  0  0  0  0  0
   36.1750   26.6560   39.0140 C   0  0  0  0  0  0  0  0  0  0  0  0
   36.7050   27.0560   40.3830 C   0  0  2  0  0  0  0  0  0  0  0  0
   39.6460   26.9210   43.7170 C   0  0  0  0  0  0  0  0  0  0  0  0
   39.0060   27.2980   42.5320 C   0  0  0  0  0  0  0  0  0  0  0  0
   38.7370   26.2930   41.5770 C   0  0  0  0  0  0  0  0  0  0  0  0
   39.1120   24.9980   41.8480 N   0  0  0  0  0  0  0  0  0  0  0  0
   39.7280   24.6820   43.0070 C   0  0  0  0  0  0  0  0  0  0  0  0
   39.9930   25.6270   43.9320 N   0  0  0  0  0  0  0  0  0  0  0  0
   36.5570   28.5300   40.4310 C   0  0  2  0  0  0  0  0  0  0  0  0
   35.1650   29.0460   40.5400 C   0  0  0  0  0  0  0  0  0  0  0  0
   37.1760   29.0600   39.1530 C   0  0  0  0  0  0  0  0  0  0  0  0
   37.4720   30.5390   39.5160 C   0  0  0  0  0  0  0  0  0  0  0  0
   37.0530   31.6990   38.8720 C   0  0  0  0  0  0  0  0  0  0  0  0
   37.4740   32.8470   39.4290 C   0  0  0  0  0  0  0  0  0  0  0  0
   38.2640   32.9170   40.5570 C   0  0  0  0  0  0  0  0  0  0  0  0
   38.4700   31.1120   40.9210 S   0  0  0  0  0  0  0  0  0  0  0  0
   38.7338   27.2807   39.8354 H   0  0  0  0  0  0  0  0  0  0  0  0
   38.6216   25.2754   38.5867 H   0  0  0  0  0  0  0  0  0  0  0  0
   38.2697   24.3416   40.0407 H   0  0  0  0  0  0  0  0  0  0  0  0
   36.4012   24.6997   38.0601 H   0  0  0  0  0  0  0  0  0  0  0  0
   35.8755   24.5632   39.7067 H   0  0  0  0  0  0  0  0  0  0  0  0
   36.6975   27.1804   38.2003 H   0  0  0  0  0  0  0  0  0  0  0  0
   35.1168   26.8930   38.8292 H   0  0  0  0  0  0  0  0  0  0  0  0
   36.2245   26.6852   41.3004 H   0  0  0  0  0  0  0  0  0  0  0  0
   39.8699   27.6799   44.4812 H   0  0  0  0  0  0  0  0  0  0  0  0
   38.7210   28.3447   42.3495 H   0  0  0  0  0  0  0  0  0  0  0  0
   40.0180   23.6386   43.1997 H   0  0  0  0  0  0  0  0  0  0  0  0
   37.0479   28.8729   41.3537 H   0  0  0  0  0  0  0  0  0  0  0  0
   34.8933   29.1467   41.6012 H   0  0  0  0  0  0  0  0  0  0  0  0
   35.0987   30.0284   40.0497 H   0  0  0  0  0  0  0  0  0  0  0  0
   34.4743   28.3442   40.0497 H   0  0  0  0  0  0  0  0  0  0  0  0
   36.4719   28.9900   38.3108 H   0  0  0  0  0  0  0  0  0  0  0  0
   38.0658   28.4998   38.8299 H   0  0  0  0  0  0  0  0  0  0  0  0
   36.4221   31.6778   37.9712 H   0  0  0  0  0  0  0  0  0  0  0  0
   37.1689   33.7915   38.9548 H   0  0  0  0  0  0  0  0  0  0  0  0
   38.6594   33.7947   41.0893 H   0  0  0  0  0  0  0  0  0  0  0  0
  1  5  1  0
  1  8  1  0
  2  1  1  0
  3  2  1  0
  4  3  1  0
  4  5  1  0
  5 12  1  0
  6 11  2  0
  7  6  1  0
  8  9  1  0
  8  7  2  0
  9 10  2  0
 10 11  1  0
 12 13  1  0
 14 15  1  0
 14 12  1  0
 15 19  1  0
 16 17  1  0
 16 15  2  0
 17 18  2  0
 18 19  1  0
  1 20  1  6
  2 21  1  0
  2 22  1  0
  3 23  1  0
  3 24  1  0
  4 25  1  0
  4 26  1  0
  5 27  1  1
  6 28  1  0
  7 29  1  0
 10 30  1  0
 12 31  1  1
 13 32  1  0
 13 33  1  0
 13 34  1  0
 14 35  1  0
 14 36  1  0
 16 37  1  0
 17 38  1  0
 18 39  1  0
M  ISO  8  20  13  21  13  22  13  23  13  24  13  25  13  26  13  27  13
M  ISO  8  28  14  29  14  30  14  31   8  32   8  33   8  34   8  35   8
M  ISO  4  36   8  37  14  38  14  39  14
M  END
>  <minimizedAffinity>  (1) 
-4.64110374

>  <minimizedRMSD>  (1) 
3.12103438

$$$$
