
     RDKit          3D

 37 39  0  0  0  0  0  0  0  0999 V2000
   37.0810   30.1440   40.3610 C   0  0  0  0  0  0  0  0  0  0  0  0
   36.8680   29.5530   39.1210 C   0  0  0  0  0  0  0  0  0  0  0  0
   36.8490   30.4380   38.0610 C   0  0  0  0  0  0  0  0  0  0  0  0
   37.0160   31.7530   38.1660 N   0  0  0  0  0  0  0  0  0  0  0  0
   37.2180   32.2720   39.3820 C   0  0  0  0  0  0  0  0  0  0  0  0
   37.2510   31.4810   40.4690 N   0  0  0  0  0  0  0  0  0  0  0  0
   37.9730   28.8480   43.6770 C   0  0  0  0  0  0  0  0  0  0  0  0
   37.1670   27.7090   43.7960 C   0  0  0  0  0  0  0  0  0  0  0  0
   36.3230   27.3970   42.7350 C   0  0  0  0  0  0  0  0  0  0  0  0
   36.3250   28.2070   41.6450 N   0  0  0  0  0  0  0  0  0  0  0  0
   37.1210   29.2980   41.5750 C   0  0  0  0  0  0  0  0  0  0  0  0
   37.9520   29.6330   42.5830 N   0  0  0  0  0  0  0  0  0  0  0  0
   37.4210   33.7080   39.6770 C   0  0  0  0  0  0  0  0  0  0  0  0
   38.6360   33.8870   40.5740 C   0  0  0  0  0  0  0  0  0  0  0  0
   39.8330   34.1210   39.8000 N   0  0  0  0  0  0  0  0  0  0  0  0
   40.3540   33.1530   38.9920 C   0  0  0  0  0  0  0  0  0  0  0  0
   41.4960   33.3560   38.2430 C   0  0  0  0  0  0  0  0  0  0  0  0
   41.9840   32.2390   37.3950 C   0  0  0  0  0  0  0  0  0  0  0  0
   42.1650   34.5840   38.2920 C   0  0  0  0  0  0  0  0  0  0  0  0
   43.1920   34.7390   37.6070 O   0  0  0  0  0  0  0  0  0  0  0  0
   41.6290   35.5190   39.0970 N   0  0  0  0  0  0  0  0  0  0  0  0
   40.5150   35.2800   39.8090 C   0  0  0  0  0  0  0  0  0  0  0  0
   40.0470   36.2000   40.5550 O   0  0  0  0  0  0  0  0  0  0  0  0
   36.7262   28.4695   38.9945 H   0  0  0  0  0  0  0  0  0  0  0  0
   36.6834   30.0244   37.0552 H   0  0  0  0  0  0  0  0  0  0  0  0
   38.6467   29.1106   44.5060 H   0  0  0  0  0  0  0  0  0  0  0  0
   37.2002   27.0815   44.6989 H   0  0  0  0  0  0  0  0  0  0  0  0
   35.6686   26.5139   42.7780 H   0  0  0  0  0  0  0  0  0  0  0  0
   37.5793   34.2546   38.7356 H   0  0  0  0  0  0  0  0  0  0  0  0
   36.5313   34.1008   40.1909 H   0  0  0  0  0  0  0  0  0  0  0  0
   38.4662   34.7465   41.2391 H   0  0  0  0  0  0  0  0  0  0  0  0
   38.7753   32.9642   41.1563 H   0  0  0  0  0  0  0  0  0  0  0  0
   39.8473   32.1783   38.9354 H   0  0  0  0  0  0  0  0  0  0  0  0
   42.3416   31.4205   38.0369 H   0  0  0  0  0  0  0  0  0  0  0  0
   41.1629   31.8750   36.7599 H   0  0  0  0  0  0  0  0  0  0  0  0
   42.8090   32.5941   36.7599 H   0  0  0  0  0  0  0  0  0  0  0  0
   42.0836   36.4404   39.1693 H   0  0  0  0  0  0  0  0  0  0  0  0
  1  6  1  0
  1 11  1  0
  2  1  2  0
  3  4  2  0
  3  2  1  0
  4  5  1  0
  5 13  1  0
  5  6  2  0
  7  8  2  0
  9  8  1  0
 10  9  2  0
 11 10  1  0
 11 12  2  0
 12  7  1  0
 13 14  1  0
 15 22  1  0
 15 14  1  0
 16 15  1  0
 17 19  1  0
 17 16  2  0
 18 17  1  0
 19 21  1  0
 20 19  2  0
 21 22  1  0
 22 23  2  0
  2 24  1  0
  3 25  1  0
  7 26  1  0
  8 27  1  0
  9 28  1  0
 13 29  1  0
 13 30  1  0
 14 31  1  0
 14 32  1  0
 16 33  1  0
 18 34  1  0
 18 35  1  0
 18 36  1  0
 21 37  1  0
M  ISO  8  24  14  25  14  26  14  27  14  28  14  29   8  30   8  31   8
M  ISO  6  32   8  33  14  34   8  35   8  36   8  37   9
M  END
>  <minimizedAffinity>  (1) 
-6.12076569

>  <minimizedRMSD>  (1) 
1.91238451

$$$$
