
     RDKit          3D

 38 41  0  0  0  0  0  0  0  0999 V2000
   37.4380   32.6850   38.5120 C   0  0  0  0  0  0  0  0  0  0  0  0
   36.9530   29.4240   40.0790 C   0  0  0  0  0  0  0  0  0  0  0  0
   36.5110   28.6000   39.0630 C   0  0  0  0  0  0  0  0  0  0  0  0
   36.3860   29.1980   37.8300 C   0  0  0  0  0  0  0  0  0  0  0  0
   36.6590   30.4700   37.5920 N   0  0  0  0  0  0  0  0  0  0  0  0
   37.0850   31.2390   38.6010 C   0  0  0  0  0  0  0  0  0  0  0  0
   37.2380   30.7380   39.8460 N   0  0  0  0  0  0  0  0  0  0  0  0
   38.1110   28.9940   43.5370 C   0  0  0  0  0  0  0  0  0  0  0  0
   37.4230   27.8530   43.9630 C   0  0  0  0  0  0  0  0  0  0  0  0
   36.5660   27.2440   43.0490 C   0  0  0  0  0  0  0  0  0  0  0  0
   36.4330   27.7730   41.8010 N   0  0  0  0  0  0  0  0  0  0  0  0
   37.1200   28.8750   41.4430 C   0  0  0  0  0  0  0  0  0  0  0  0
   37.9660   29.5050   42.2920 N   0  0  0  0  0  0  0  0  0  0  0  0
   37.3120   33.3190   39.8890 C   0  0  0  0  0  0  0  0  0  0  0  0
   38.5030   34.1420   40.0930 N   0  0  0  0  0  0  0  0  0  0  0  0
   38.7400   35.4510   39.8990 C   0  0  0  0  0  0  0  0  0  0  0  0
   40.0090   35.7400   40.2340 N   0  0  0  0  0  0  0  0  0  0  0  0
   40.6110   34.5930   40.6550 C   0  0  0  0  0  0  0  0  0  0  0  0
   41.8900   34.3410   41.1040 C   0  0  0  0  0  0  0  0  0  0  0  0
   42.7670   35.2490   41.1910 O   0  0  0  0  0  0  0  0  0  0  0  0
   42.1870   33.0810   41.4530 N   0  0  0  0  0  0  0  0  0  0  0  0
   41.2550   32.1140   41.3610 C   0  0  0  0  0  0  0  0  0  0  0  0
   41.4620   30.7320   41.7070 N   0  0  0  0  0  0  0  0  0  0  0  0
   40.0030   32.3490   40.9240 N   0  0  0  0  0  0  0  0  0  0  0  0
   39.6620   33.5980   40.5630 C   0  0  0  0  0  0  0  0  0  0  0  0
   38.4724   32.7893   38.1527 H   0  0  0  0  0  0  0  0  0  0  0  0
   36.7560   33.1883   37.8108 H   0  0  0  0  0  0  0  0  0  0  0  0
   36.2750   27.5384   39.2279 H   0  0  0  0  0  0  0  0  0  0  0  0
   36.0373   28.5795   36.9899 H   0  0  0  0  0  0  0  0  0  0  0  0
   38.7945   29.4940   44.2390 H   0  0  0  0  0  0  0  0  0  0  0  0
   37.5535   27.4526   44.9792 H   0  0  0  0  0  0  0  0  0  0  0  0
   36.0015   26.3435   43.3328 H   0  0  0  0  0  0  0  0  0  0  0  0
   36.4084   33.9446   39.9353 H   0  0  0  0  0  0  0  0  0  0  0  0
   37.2300   32.5481   40.6694 H   0  0  0  0  0  0  0  0  0  0  0  0
   38.0048   36.1773   39.5222 H   0  0  0  0  0  0  0  0  0  0  0  0
   43.1320   32.8520   41.7928 H   0  0  0  0  0  0  0  0  0  0  0  0
   40.6923   30.0550   41.6062 H   0  0  0  0  0  0  0  0  0  0  0  0
   42.3798   30.4202   42.0553 H   0  0  0  0  0  0  0  0  0  0  0  0
  1  6  1  0
  1 14  1  0
  2 12  1  0
  3  2  2  0
  4  3  1  0
  5  4  2  0
  5  6  1  0
  6  7  2  0
  7  2  1  0
  8  9  2  0
 10  9  1  0
 11 10  2  0
 12 11  1  0
 12 13  2  0
 13  8  1  0
 14 15  1  0
 15 25  1  0
 16 15  1  0
 16 17  2  0
 17 18  1  0
 18 19  1  0
 19 20  2  0
 19 21  1  0
 22 21  1  0
 22 23  1  0
 24 22  2  0
 25 18  2  0
 25 24  1  0
  1 26  1  0
  1 27  1  0
  3 28  1  0
  4 29  1  0
  8 30  1  0
  9 31  1  0
 10 32  1  0
 14 33  1  0
 14 34  1  0
 16 35  1  0
 21 36  1  0
 23 37  1  0
 23 38  1  0
M  ISO  8  26   8  27   8  28  14  29  14  30  14  31  14  32  14  33   8
M  ISO  3  34   8  35  14  36   9
M  END
>  <minimizedAffinity>  (1) 
-5.83652163

>  <minimizedRMSD>  (1) 
2.21400785

$$$$
