
     RDKit          3D

 34 36  0  0  0  0  0  0  0  0999 V2000
   36.9920   29.3490   40.1100 C   0  0  0  0  0  0  0  0  0  0  0  0
   36.7410   28.5610   39.0110 C   0  0  0  0  0  0  0  0  0  0  0  0
   36.6480   29.2500   37.8210 C   0  0  0  0  0  0  0  0  0  0  0  0
   36.7820   30.5630   37.7140 N   0  0  0  0  0  0  0  0  0  0  0  0
   37.0230   31.2890   38.8030 C   0  0  0  0  0  0  0  0  0  0  0  0
   37.1300   30.6920   40.0010 N   0  0  0  0  0  0  0  0  0  0  0  0
   37.6810   28.9050   43.7110 C   0  0  0  0  0  0  0  0  0  0  0  0
   37.3270   27.5650   43.9000 C   0  0  0  0  0  0  0  0  0  0  0  0
   36.8580   26.8220   42.8050 C   0  0  0  0  0  0  0  0  0  0  0  0
   36.7620   27.4270   41.5950 N   0  0  0  0  0  0  0  0  0  0  0  0
   37.1180   28.7350   41.4620 C   0  0  0  0  0  0  0  0  0  0  0  0
   37.5710   29.4700   42.4940 N   0  0  0  0  0  0  0  0  0  0  0  0
   37.2000   32.7620   38.8530 C   0  0  0  0  0  0  0  0  0  0  0  0
   37.9350   33.1580   40.0780 C   0  0  0  0  0  0  0  0  0  0  0  0
   38.9700   34.1530   39.9570 C   0  0  0  0  0  0  0  0  0  0  0  0
   40.2470   33.7780   39.6130 C   0  0  0  0  0  0  0  0  0  0  0  0
   41.2290   34.7680   39.5040 C   0  0  0  0  0  0  0  0  0  0  0  0
   40.9630   36.1100   39.7290 C   0  0  0  0  0  0  0  0  0  0  0  0
   39.6710   36.4240   40.0680 C   0  0  0  0  0  0  0  0  0  0  0  0
   38.6650   35.4890   40.1900 C   0  0  0  0  0  0  0  0  0  0  0  0
   36.6240   27.4692   39.0765 H   0  0  0  0  0  0  0  0  0  0  0  0
   36.4505   28.6744   36.9047 H   0  0  0  0  0  0  0  0  0  0  0  0
   38.0506   29.4992   44.5597 H   0  0  0  0  0  0  0  0  0  0  0  0
   37.4149   27.0998   44.8929 H   0  0  0  0  0  0  0  0  0  0  0  0
   36.5731   25.7665   42.9265 H   0  0  0  0  0  0  0  0  0  0  0  0
   37.7681   33.0880   37.9693 H   0  0  0  0  0  0  0  0  0  0  0  0
   36.2084   33.2381   38.8649 H   0  0  0  0  0  0  0  0  0  0  0  0
   37.1936   33.5433   40.7934 H   0  0  0  0  0  0  0  0  0  0  0  0
   38.4674   32.2455   40.3845 H   0  0  0  0  0  0  0  0  0  0  0  0
   40.4914   32.7217   39.4274 H   0  0  0  0  0  0  0  0  0  0  0  0
   42.2517   34.4704   39.2292 H   0  0  0  0  0  0  0  0  0  0  0  0
   41.7438   36.8797   39.6407 H   0  0  0  0  0  0  0  0  0  0  0  0
   39.4242   37.4799   40.2526 H   0  0  0  0  0  0  0  0  0  0  0  0
   37.6444   35.7933   40.4654 H   0  0  0  0  0  0  0  0  0  0  0  0
  1 11  1  0
  2  1  2  0
  3  2  1  0
  4  3  2  0
  4  5  1  0
  5 13  1  0
  5  6  2  0
  6  1  1  0
  7  8  2  0
  9  8  1  0
 10  9  2  0
 11 10  1  0
 11 12  2  0
 12  7  1  0
 13 14  1  0
 15 14  1  0
 15 20  1  0
 16 15  2  0
 17 16  1  0
 17 18  2  0
 18 19  1  0
 19 20  2  0
  2 21  1  0
  3 22  1  0
  7 23  1  0
  8 24  1  0
  9 25  1  0
 13 26  1  0
 13 27  1  0
 14 28  1  0
 14 29  1  0
 16 30  1  0
 17 31  1  0
 18 32  1  0
 19 33  1  0
 20 34  1  0
M  ISO  8  21  14  22  14  23  14  24  14  25  14  26   8  27   8  28   8
M  ISO  6  29   8  30  14  31  14  32  14  33  14  34  14
M  END
>  <minimizedAffinity>  (1) 
-5.5799818

>  <minimizedRMSD>  (1) 
1.10356474

$$$$
