
     RDKit          3D

 38 40  0  0  0  0  0  0  0  0999 V2000
   37.2510   29.7660   40.0960 C   0  0  0  0  0  0  0  0  0  0  0  0
   37.1930   29.1850   38.8570 C   0  0  0  0  0  0  0  0  0  0  0  0
   37.1540   30.0620   37.7830 C   0  0  0  0  0  0  0  0  0  0  0  0
   37.1740   31.3920   37.9170 N   0  0  0  0  0  0  0  0  0  0  0  0
   37.2310   31.9210   39.1350 C   0  0  0  0  0  0  0  0  0  0  0  0
   37.2690   31.1160   40.2290 N   0  0  0  0  0  0  0  0  0  0  0  0
   37.5830   28.7420   43.6210 C   0  0  0  0  0  0  0  0  0  0  0  0
   37.3160   27.3590   43.5360 C   0  0  0  0  0  0  0  0  0  0  0  0
   37.0330   26.8010   42.2990 C   0  0  0  0  0  0  0  0  0  0  0  0
   37.0170   27.6040   41.2020 N   0  0  0  0  0  0  0  0  0  0  0  0
   37.2780   28.9320   41.3110 C   0  0  0  0  0  0  0  0  0  0  0  0
   37.5600   29.4960   42.5040 N   0  0  0  0  0  0  0  0  0  0  0  0
   37.2420   33.3730   39.4410 C   0  0  0  0  0  0  0  0  0  0  0  0
   38.3800   33.6830   40.3630 C   0  0  0  0  0  0  0  0  0  0  0  0
   39.4170   34.5120   39.7880 N   0  0  0  0  0  0  0  0  0  0  0  0
   40.6200   34.1060   40.4890 C   0  0  0  0  0  0  0  0  0  0  0  0
   41.6990   35.1130   40.5740 C   0  0  0  0  0  0  0  0  0  0  0  0
   41.4760   36.2700   39.7520 N   0  0  0  0  0  0  0  0  0  0  0  0
   40.2170   36.8290   40.1550 C   0  0  0  0  0  0  0  0  0  0  0  0
   39.0570   35.8840   40.0820 C   0  0  0  0  0  0  0  0  0  0  0  0
   37.1783   28.0934   38.7223 H   0  0  0  0  0  0  0  0  0  0  0  0
   37.1040   29.6411   36.7679 H   0  0  0  0  0  0  0  0  0  0  0  0
   37.8088   29.2025   44.5941 H   0  0  0  0  0  0  0  0  0  0  0  0
   37.3322   26.7319   44.4396 H   0  0  0  0  0  0  0  0  0  0  0  0
   36.8246   25.7249   42.2064 H   0  0  0  0  0  0  0  0  0  0  0  0
   37.3612   33.9430   38.5078 H   0  0  0  0  0  0  0  0  0  0  0  0
   36.2939   33.6519   39.9241 H   0  0  0  0  0  0  0  0  0  0  0  0
   37.9752   34.2028   41.2438 H   0  0  0  0  0  0  0  0  0  0  0  0
   38.8525   32.7201   40.6071 H   0  0  0  0  0  0  0  0  0  0  0  0
   40.3340   33.8335   41.5156 H   0  0  0  0  0  0  0  0  0  0  0  0
   41.0379   33.2769   39.8992 H   0  0  0  0  0  0  0  0  0  0  0  0
   41.7854   35.4418   41.6201 H   0  0  0  0  0  0  0  0  0  0  0  0
   42.6176   34.6312   40.2080 H   0  0  0  0  0  0  0  0  0  0  0  0
   41.4417   35.9982   38.7591 H   0  0  0  0  0  0  0  0  0  0  0  0
   40.3129   37.1731   41.1954 H   0  0  0  0  0  0  0  0  0  0  0  0
   39.9987   37.6419   39.4469 H   0  0  0  0  0  0  0  0  0  0  0  0
   38.3756   36.2368   39.2938 H   0  0  0  0  0  0  0  0  0  0  0  0
   38.5946   35.8789   41.0801 H   0  0  0  0  0  0  0  0  0  0  0  0
  1  6  1  0
  1 11  1  0
  2  1  2  0
  3  4  2  0
  3  2  1  0
  4  5  1  0
  5 13  1  0
  5  6  2  0
  8  7  2  0
  9  8  1  0
 10 11  1  0
 10  9  2  0
 11 12  2  0
 12  7  1  0
 13 14  1  0
 15 20  1  0
 15 14  1  0
 15 16  1  0
 16 17  1  0
 18 19  1  0
 18 17  1  0
 20 19  1  0
  2 21  1  0
  3 22  1  0
  7 23  1  0
  8 24  1  0
  9 25  1  0
 13 26  1  0
 13 27  1  0
 14 28  1  0
 14 29  1  0
 16 30  1  0
 16 31  1  0
 17 32  1  0
 17 33  1  0
 18 34  1  0
 19 35  1  0
 19 36  1  0
 20 37  1  0
 20 38  1  0
M  ISO  8  21  14  22  14  23  14  24  14  25  14  26   8  27   8  28   8
M  ISO  8  29   8  30  13  31  13  32  13  33  13  34   5  35  13  36  13
M  ISO  2  37  13  38  13
M  END
>  <minimizedAffinity>  (1) 
-5.5462656

>  <minimizedRMSD>  (1) 
1.50825441

$$$$
