
     RDKit          3D

 32 34  0  0  0  0  0  0  0  0999 V2000
   37.0020   29.4320   40.2040 C   0  0  0  0  0  0  0  0  0  0  0  0
   36.7860   28.7010   39.0560 C   0  0  0  0  0  0  0  0  0  0  0  0
   36.7190   29.4410   37.8910 C   0  0  0  0  0  0  0  0  0  0  0  0
   36.8490   30.7570   37.8400 N   0  0  0  0  0  0  0  0  0  0  0  0
   37.0570   31.4200   38.9780 C   0  0  0  0  0  0  0  0  0  0  0  0
   37.1320   30.7650   40.1440 N   0  0  0  0  0  0  0  0  0  0  0  0
   37.6050   28.8150   43.7580 C   0  0  0  0  0  0  0  0  0  0  0  0
   37.2890   27.4350   43.8710 C   0  0  0  0  0  0  0  0  0  0  0  0
   36.8740   26.7380   42.7410 C   0  0  0  0  0  0  0  0  0  0  0  0
   36.7880   27.4150   41.5670 N   0  0  0  0  0  0  0  0  0  0  0  0
   37.1020   28.7400   41.5070 C   0  0  0  0  0  0  0  0  0  0  0  0
   37.5110   29.4520   42.5890 N   0  0  0  0  0  0  0  0  0  0  0  0
   37.2070   32.8850   39.1070 C   0  0  0  0  0  0  0  0  0  0  0  0
   38.0860   33.2310   40.2480 C   0  0  0  0  0  0  0  0  0  0  0  0
   39.2240   34.1160   39.9500 C   0  0  0  0  0  0  0  0  0  0  0  0
   38.8800   35.4490   40.2280 C   0  0  0  0  0  0  0  0  0  0  0  0
   39.7400   36.5030   40.0450 C   0  0  0  0  0  0  0  0  0  0  0  0
   40.9730   36.2280   39.5770 N   0  0  0  0  0  0  0  0  0  0  0  0
   41.2910   34.9530   39.3150 C   0  0  0  0  0  0  0  0  0  0  0  0
   40.4480   33.9320   39.4940 N   0  0  0  0  0  0  0  0  0  0  0  0
   36.6749   27.6067   39.0663 H   0  0  0  0  0  0  0  0  0  0  0  0
   36.5469   28.9027   36.9472 H   0  0  0  0  0  0  0  0  0  0  0  0
   37.9331   29.3688   44.6500 H   0  0  0  0  0  0  0  0  0  0  0  0
   37.3715   26.9231   44.8411 H   0  0  0  0  0  0  0  0  0  0  0  0
   36.6226   25.6686   42.7968 H   0  0  0  0  0  0  0  0  0  0  0  0
   37.6460   33.2844   38.1809 H   0  0  0  0  0  0  0  0  0  0  0  0
   36.2142   33.3243   39.2841 H   0  0  0  0  0  0  0  0  0  0  0  0
   37.4665   33.7267   41.0099 H   0  0  0  0  0  0  0  0  0  0  0  0
   38.5319   32.2796   40.5736 H   0  0  0  0  0  0  0  0  0  0  0  0
   37.8707   35.6589   40.6117 H   0  0  0  0  0  0  0  0  0  0  0  0
   39.4336   37.5347   40.2722 H   0  0  0  0  0  0  0  0  0  0  0  0
   42.2991   34.7354   38.9324 H   0  0  0  0  0  0  0  0  0  0  0  0
  1 11  1  0
  2  1  2  0
  3  2  1  0
  4  3  2  0
  4  5  1  0
  5 13  1  0
  5  6  2  0
  6  1  1  0
  7  8  2  0
  9  8  1  0
 10  9  2  0
 11 10  1  0
 11 12  2  0
 12  7  1  0
 13 14  1  0
 15 16  2  0
 15 14  1  0
 17 16  1  0
 18 17  2  0
 19 20  2  0
 19 18  1  0
 20 15  1  0
  2 21  1  0
  3 22  1  0
  7 23  1  0
  8 24  1  0
  9 25  1  0
 13 26  1  0
 13 27  1  0
 14 28  1  0
 14 29  1  0
 16 30  1  0
 17 31  1  0
 19 32  1  0
M  ISO  8  21  14  22  14  23  14  24  14  25  14  26   8  27   8  28   8
M  ISO  4  29   8  30  14  31  14  32  14
M  END
>  <minimizedAffinity>  (1) 
-5.47365189

>  <minimizedRMSD>  (1) 
2.4523108

$$$$
