
     RDKit          3D

 31 33  0  0  0  0  0  0  0  0999 V2000
   36.9280   29.3370   40.1040 C   0  0  0  0  0  0  0  0  0  0  0  0
   36.5540   28.5030   39.0730 C   0  0  0  0  0  0  0  0  0  0  0  0
   36.4560   29.1150   37.8300 C   0  0  0  0  0  0  0  0  0  0  0  0
   36.6940   30.3970   37.6050 N   0  0  0  0  0  0  0  0  0  0  0  0
   37.0540   31.1680   38.6350 C   0  0  0  0  0  0  0  0  0  0  0  0
   37.1720   30.6530   39.8740 N   0  0  0  0  0  0  0  0  0  0  0  0
   37.7830   29.0520   43.6660 C   0  0  0  0  0  0  0  0  0  0  0  0
   37.3040   27.7700   43.9980 C   0  0  0  0  0  0  0  0  0  0  0  0
   36.6900   27.0180   42.9880 C   0  0  0  0  0  0  0  0  0  0  0  0
   36.5850   27.5560   41.7360 N   0  0  0  0  0  0  0  0  0  0  0  0
   37.0640   28.7960   41.4730 C   0  0  0  0  0  0  0  0  0  0  0  0
   37.6650   29.5570   42.4210 N   0  0  0  0  0  0  0  0  0  0  0  0
   37.3580   32.6290   38.5550 C   0  0  0  0  0  0  0  0  0  0  0  0
   37.5010   33.1980   39.9370 C   0  0  0  0  0  0  0  0  0  0  0  0
   38.6670   34.1050   40.0190 C   0  0  0  0  0  0  0  0  0  0  0  0
   39.9570   33.7060   40.3020 C   0  0  0  0  0  0  0  0  0  0  0  0
   40.6880   34.8360   40.2770 N   0  0  0  0  0  0  0  0  0  0  0  0
   39.8980   35.9050   39.9920 C   0  0  0  0  0  0  0  0  0  0  0  0
   38.6410   35.4520   39.8310 N   0  0  0  0  0  0  0  0  0  0  0  0
   36.3485   27.4328   39.2230 H   0  0  0  0  0  0  0  0  0  0  0  0
   36.1602   28.4910   36.9738 H   0  0  0  0  0  0  0  0  0  0  0  0
   38.2675   29.6592   44.4448 H   0  0  0  0  0  0  0  0  0  0  0  0
   37.4086   27.3717   45.0180 H   0  0  0  0  0  0  0  0  0  0  0  0
   36.2991   26.0117   43.1990 H   0  0  0  0  0  0  0  0  0  0  0  0
   38.2968   32.7763   38.0010 H   0  0  0  0  0  0  0  0  0  0  0  0
   36.5352   33.1420   38.0357 H   0  0  0  0  0  0  0  0  0  0  0  0
   36.5899   33.7596   40.1908 H   0  0  0  0  0  0  0  0  0  0  0  0
   37.6519   32.3686   40.6436 H   0  0  0  0  0  0  0  0  0  0  0  0
   40.3117   32.6846   40.5044 H   0  0  0  0  0  0  0  0  0  0  0  0
   40.2268   36.9513   39.9081 H   0  0  0  0  0  0  0  0  0  0  0  0
   37.8119   36.0205   39.6067 H   0  0  0  0  0  0  0  0  0  0  0  0
  1 11  1  0
  2  1  2  0
  3  2  1  0
  4  3  2  0
  4  5  1  0
  5  6  2  0
  6  1  1  0
  7  8  2  0
  9  8  1  0
 10  9  2  0
 11 10  1  0
 11 12  2  0
 12  7  1  0
 13  5  1  0
 13 14  1  0
 14 15  1  0
 15 16  2  0
 17 16  1  0
 18 17  2  0
 19 18  1  0
 19 15  1  0
  2 20  1  0
  3 21  1  0
  7 22  1  0
  8 23  1  0
  9 24  1  0
 13 25  1  0
 13 26  1  0
 14 27  1  0
 14 28  1  0
 16 29  1  0
 18 30  1  0
 19 31  1  0
M  ISO  8  20  14  21  14  22  14  23  14  24  14  25   8  26   8  27   8
M  ISO  4  28   8  29  14  30  14  31   9
M  END
>  <minimizedAffinity>  (1) 
-5.24709606

>  <minimizedRMSD>  (1) 
1.18812811

$$$$
