
     RDKit          3D

 37 39  0  0  0  0  0  0  0  0999 V2000
   37.2400   29.7740   40.0880 C   0  0  0  0  0  0  0  0  0  0  0  0
   37.2060   29.1600   38.8410 C   0  0  0  0  0  0  0  0  0  0  0  0
   37.1790   30.0410   37.7680 C   0  0  0  0  0  0  0  0  0  0  0  0
   37.1840   31.3620   37.8840 N   0  0  0  0  0  0  0  0  0  0  0  0
   37.2170   31.8950   39.1020 C   0  0  0  0  0  0  0  0  0  0  0  0
   37.2450   31.1190   40.2030 N   0  0  0  0  0  0  0  0  0  0  0  0
   37.5820   28.7500   43.5970 C   0  0  0  0  0  0  0  0  0  0  0  0
   37.3230   27.3610   43.5370 C   0  0  0  0  0  0  0  0  0  0  0  0
   37.0360   26.7930   42.2930 C   0  0  0  0  0  0  0  0  0  0  0  0
   37.0150   27.6000   41.1920 N   0  0  0  0  0  0  0  0  0  0  0  0
   37.2720   28.9350   41.3050 C   0  0  0  0  0  0  0  0  0  0  0  0
   37.5560   29.5280   42.4900 N   0  0  0  0  0  0  0  0  0  0  0  0
   37.2260   33.3580   39.3840 C   0  0  0  0  0  0  0  0  0  0  0  0
   38.2250   33.6590   40.4780 C   0  0  0  0  0  0  0  0  0  0  0  0
   39.3460   34.4620   39.8500 C   0  0  0  0  0  0  0  0  0  0  0  0
   39.2880   35.9220   40.1580 C   0  0  0  0  0  0  0  0  0  0  0  0
   40.6780   36.4100   39.7890 C   0  0  0  0  0  0  0  0  0  0  0  0
   41.5730   35.1870   39.8570 C   0  0  0  0  0  0  0  0  0  0  0  0
   40.6930   34.0820   40.4500 C   0  0  0  0  0  0  0  0  0  0  0  0
   37.2009   28.0673   38.7149 H   0  0  0  0  0  0  0  0  0  0  0  0
   37.1516   29.6147   36.7543 H   0  0  0  0  0  0  0  0  0  0  0  0
   37.8107   29.2103   44.5695 H   0  0  0  0  0  0  0  0  0  0  0  0
   37.3469   26.7432   44.4468 H   0  0  0  0  0  0  0  0  0  0  0  0
   36.8309   25.7161   42.2025 H   0  0  0  0  0  0  0  0  0  0  0  0
   37.5068   33.9047   38.4717 H   0  0  0  0  0  0  0  0  0  0  0  0
   36.2234   33.6729   39.7090 H   0  0  0  0  0  0  0  0  0  0  0  0
   37.7448   34.2427   41.2772 H   0  0  0  0  0  0  0  0  0  0  0  0
   38.6108   32.7295   40.9221 H   0  0  0  0  0  0  0  0  0  0  0  0
   39.2339   34.2522   38.7760 H   0  0  0  0  0  0  0  0  0  0  0  0
   38.5199   36.4231   39.5506 H   0  0  0  0  0  0  0  0  0  0  0  0
   39.0207   36.1319   41.2042 H   0  0  0  0  0  0  0  0  0  0  0  0
   41.0183   37.1746   40.5028 H   0  0  0  0  0  0  0  0  0  0  0  0
   40.6950   36.8710   38.7904 H   0  0  0  0  0  0  0  0  0  0  0  0
   41.9207   34.9063   38.8518 H   0  0  0  0  0  0  0  0  0  0  0  0
   42.4729   35.3676   40.4633 H   0  0  0  0  0  0  0  0  0  0  0  0
   40.6753   34.1207   41.5492 H   0  0  0  0  0  0  0  0  0  0  0  0
   41.0254   33.0572   40.2278 H   0  0  0  0  0  0  0  0  0  0  0  0
  1  6  1  0
  1 11  1  0
  2  1  2  0
  3  4  2  0
  3  2  1  0
  4  5  1  0
  5 13  1  0
  5  6  2  0
  8  7  2  0
  9  8  1  0
 10 11  1  0
 10  9  2  0
 11 12  2  0
 12  7  1  0
 13 14  1  0
 15 16  1  0
 15 19  1  0
 15 14  1  0
 17 18  1  0
 17 16  1  0
 18 19  1  0
  2 20  1  0
  3 21  1  0
  7 22  1  0
  8 23  1  0
  9 24  1  0
 13 25  1  0
 13 26  1  0
 14 27  1  0
 14 28  1  0
 15 29  1  0
 16 30  1  0
 16 31  1  0
 17 32  1  0
 17 33  1  0
 18 34  1  0
 18 35  1  0
 19 36  1  0
 19 37  1  0
M  ISO  8  20  14  21  14  22  14  23  14  24  14  25   8  26   8  27   8
M  ISO  8  28   8  29  13  30  13  31  13  32  13  33  13  34  13  35  13
M  ISO  2  36  13  37  13
M  END
>  <minimizedAffinity>  (1) 
-5.20972109

>  <minimizedRMSD>  (1) 
1.51776564

$$$$
