
     RDKit          3D

 31 33  0  0  0  0  0  0  0  0999 V2000
   37.2560   29.8670   40.1040 C   0  0  0  0  0  0  0  0  0  0  0  0
   37.1480   29.2980   38.8380 C   0  0  0  0  0  0  0  0  0  0  0  0
   37.1290   30.1930   37.7800 C   0  0  0  0  0  0  0  0  0  0  0  0
   37.2050   31.5240   37.9280 N   0  0  0  0  0  0  0  0  0  0  0  0
   37.3070   32.0190   39.1640 C   0  0  0  0  0  0  0  0  0  0  0  0
   37.3330   31.2210   40.2500 N   0  0  0  0  0  0  0  0  0  0  0  0
   37.6010   28.7680   43.5860 C   0  0  0  0  0  0  0  0  0  0  0  0
   37.3340   27.3900   43.4980 C   0  0  0  0  0  0  0  0  0  0  0  0
   37.0400   26.8590   42.2420 C   0  0  0  0  0  0  0  0  0  0  0  0
   37.0190   27.6830   41.1520 N   0  0  0  0  0  0  0  0  0  0  0  0
   37.2860   29.0060   41.3030 C   0  0  0  0  0  0  0  0  0  0  0  0
   37.5730   29.5570   42.4970 N   0  0  0  0  0  0  0  0  0  0  0  0
   37.4010   33.4590   39.5050 C   0  0  0  0  0  0  0  0  0  0  0  0
   38.4030   33.6630   40.6170 C   0  0  0  0  0  0  0  0  0  0  0  0
   39.4700   34.5350   40.1480 N   0  0  0  0  0  0  0  0  0  0  0  0
   39.3810   35.8860   40.2560 C   0  0  0  0  0  0  0  0  0  0  0  0
   40.5470   36.3870   39.7200 C   0  0  0  0  0  0  0  0  0  0  0  0
   41.3200   35.3680   39.3000 N   0  0  0  0  0  0  0  0  0  0  0  0
   40.6450   34.2370   39.5690 C   0  0  0  0  0  0  0  0  0  0  0  0
   37.0821   28.2103   38.6874 H   0  0  0  0  0  0  0  0  0  0  0  0
   37.0469   29.7886   36.7603 H   0  0  0  0  0  0  0  0  0  0  0  0
   37.8375   29.2095   44.5653 H   0  0  0  0  0  0  0  0  0  0  0  0
   37.3563   26.7503   44.3926 H   0  0  0  0  0  0  0  0  0  0  0  0
   36.8268   25.7857   42.1299 H   0  0  0  0  0  0  0  0  0  0  0  0
   37.7224   34.0232   38.6171 H   0  0  0  0  0  0  0  0  0  0  0  0
   36.4152   33.8161   39.8376 H   0  0  0  0  0  0  0  0  0  0  0  0
   37.9038   34.1251   41.4814 H   0  0  0  0  0  0  0  0  0  0  0  0
   38.8248   32.6921   40.9162 H   0  0  0  0  0  0  0  0  0  0  0  0
   38.5478   36.4626   40.6842 H   0  0  0  0  0  0  0  0  0  0  0  0
   40.8060   37.4535   39.6466 H   0  0  0  0  0  0  0  0  0  0  0  0
   41.0014   33.2200   39.3481 H   0  0  0  0  0  0  0  0  0  0  0  0
  1  6  1  0
  1 11  1  0
  2  1  2  0
  3  4  2  0
  3  2  1  0
  4  5  1  0
  5 13  1  0
  5  6  2  0
  8  7  2  0
  9  8  1  0
 10 11  1  0
 10  9  2  0
 11 12  2  0
 12  7  1  0
 13 14  1  0
 15 16  1  0
 15 14  1  0
 17 16  2  0
 18 19  2  0
 18 17  1  0
 19 15  1  0
  2 20  1  0
  3 21  1  0
  7 22  1  0
  8 23  1  0
  9 24  1  0
 13 25  1  0
 13 26  1  0
 14 27  1  0
 14 28  1  0
 16 29  1  0
 17 30  1  0
 19 31  1  0
M  ISO  8  20  14  21  14  22  14  23  14  24  14  25   8  26   8  27   8
M  ISO  4  28   8  29  14  30  14  31  14
M  END
>  <minimizedAffinity>  (1) 
-5.17028761

>  <minimizedRMSD>  (1) 
1.67496061

$$$$
