
     RDKit          3D

 31 33  0  0  0  0  0  0  0  0999 V2000
   36.6260   29.0440   40.0630 C   0  0  0  0  0  0  0  0  0  0  0  0
   35.8080   28.2320   39.3060 C   0  0  0  0  0  0  0  0  0  0  0  0
   35.5910   28.6640   38.0160 C   0  0  0  0  0  0  0  0  0  0  0  0
   36.1120   29.7740   37.5020 N   0  0  0  0  0  0  0  0  0  0  0  0
   36.8990   30.5350   38.2630 C   0  0  0  0  0  0  0  0  0  0  0  0
   37.1700   30.1870   39.5500 N   0  0  0  0  0  0  0  0  0  0  0  0
   38.0850   29.0510   43.4280 C   0  0  0  0  0  0  0  0  0  0  0  0
   37.4500   27.9750   44.0550 C   0  0  0  0  0  0  0  0  0  0  0  0
   36.5250   27.2560   43.3060 C   0  0  0  0  0  0  0  0  0  0  0  0
   36.2860   27.6330   42.0220 N   0  0  0  0  0  0  0  0  0  0  0  0
   36.9300   28.6840   41.4650 C   0  0  0  0  0  0  0  0  0  0  0  0
   37.8360   29.4090   42.1550 N   0  0  0  0  0  0  0  0  0  0  0  0
   37.5800   31.8040   37.8820 C   0  0  0  0  0  0  0  0  0  0  0  0
   38.4380   32.3010   39.0230 C   0  0  0  0  0  0  0  0  0  0  0  0
   37.8210   33.3690   39.8570 C   0  0  0  0  0  0  0  0  0  0  0  0
   38.5390   34.6470   40.1410 C   0  0  0  0  0  0  0  0  0  0  0  0
   37.2240   34.6050   39.3620 C   0  0  0  0  0  0  0  0  0  0  0  0
   35.3619   27.3081   39.7027 H   0  0  0  0  0  0  0  0  0  0  0  0
   34.9453   28.0513   37.3698 H   0  0  0  0  0  0  0  0  0  0  0  0
   38.8222   29.6318   44.0017 H   0  0  0  0  0  0  0  0  0  0  0  0
   37.6730   27.7079   45.0985 H   0  0  0  0  0  0  0  0  0  0  0  0
   35.9959   26.3972   43.7448 H   0  0  0  0  0  0  0  0  0  0  0  0
   38.2148   31.6252   37.0016 H   0  0  0  0  0  0  0  0  0  0  0  0
   36.8187   32.5631   37.6493 H   0  0  0  0  0  0  0  0  0  0  0  0
   38.6646   31.4459   39.6768 H   0  0  0  0  0  0  0  0  0  0  0  0
   39.3313   32.7486   38.5629 H   0  0  0  0  0  0  0  0  0  0  0  0
   37.4122   32.5400   40.4534 H   0  0  0  0  0  0  0  0  0  0  0  0
   38.5675   35.0538   41.1626 H   0  0  0  0  0  0  0  0  0  0  0  0
   39.5504   35.0420   39.9648 H   0  0  0  0  0  0  0  0  0  0  0  0
   37.2165   34.8189   38.2830 H   0  0  0  0  0  0  0  0  0  0  0  0
   36.2426   35.0910   39.4648 H   0  0  0  0  0  0  0  0  0  0  0  0
  1 11  1  0
  2  1  2  0
  3  2  1  0
  4  3  2  0
  4  5  1  0
  5  6  2  0
  6  1  1  0
  7  8  2  0
  9  8  1  0
 10  9  2  0
 11 10  1  0
 11 12  2  0
 12  7  1  0
 13  5  1  0
 13 14  1  0
 14 15  1  0
 15 16  1  0
 17 15  1  0
 17 16  1  0
  2 18  1  0
  3 19  1  0
  7 20  1  0
  8 21  1  0
  9 22  1  0
 13 23  1  0
 13 24  1  0
 14 25  1  0
 14 26  1  0
 15 27  1  0
 16 28  1  0
 16 29  1  0
 17 30  1  0
 17 31  1  0
M  ISO  8  18  14  19  14  20  14  21  14  22  14  23   8  24   8  25   8
M  ISO  6  26   8  27  13  28  13  29  13  30  13  31  13
M  END
>  <minimizedAffinity>  (1) 
-4.3724761

>  <minimizedRMSD>  (1) 
0.715297043

$$$$
