
     RDKit          3D

 35 37  0  0  0  0  0  0  0  0999 V2000
   36.8380   29.1440   39.9670 C   0  0  0  0  0  0  0  0  0  0  0  0
   36.9980   30.4500   39.5670 C   0  0  0  0  0  0  0  0  0  0  0  0
   36.8010   30.6770   38.2090 C   0  0  0  0  0  0  0  0  0  0  0  0
   36.4800   29.7180   37.3370 N   0  0  0  0  0  0  0  0  0  0  0  0
   36.3390   28.4700   37.7870 C   0  0  0  0  0  0  0  0  0  0  0  0
   36.5090   28.1570   39.0800 N   0  0  0  0  0  0  0  0  0  0  0  0
   36.5050   27.4150   43.2120 C   0  0  0  0  0  0  0  0  0  0  0  0
   37.3910   28.1230   44.0210 C   0  0  0  0  0  0  0  0  0  0  0  0
   38.0830   29.1760   43.4380 C   0  0  0  0  0  0  0  0  0  0  0  0
   37.8890   29.4870   42.1260 N   0  0  0  0  0  0  0  0  0  0  0  0
   37.0200   28.7690   41.3900 C   0  0  0  0  0  0  0  0  0  0  0  0
   36.3390   27.7500   41.9160 N   0  0  0  0  0  0  0  0  0  0  0  0
   35.9830   27.3020   36.9650 C   0  0  0  0  0  0  0  0  0  0  0  0
   35.2620   26.2640   37.7600 C   0  0  0  0  0  0  0  0  0  0  0  0
   35.7630   24.9260   37.6560 N   0  0  0  0  0  0  0  0  0  0  0  0
   37.1670   24.9310   37.9380 C   0  0  0  0  0  0  0  0  0  0  0  0
   37.6040   24.6630   39.3160 C   0  0  0  0  0  0  0  0  0  0  0  0
   36.5290   24.3980   40.3110 C   0  0  0  0  0  0  0  0  0  0  0  0
   35.4940   23.5160   39.6880 C   0  0  0  0  0  0  0  0  0  0  0  0
   35.0190   23.9280   38.3460 C   0  0  0  0  0  0  0  0  0  0  0  0
   37.2621   31.2550   40.2686 H   0  0  0  0  0  0  0  0  0  0  0  0
   36.9161   31.7040   37.8322 H   0  0  0  0  0  0  0  0  0  0  0  0
   35.9351   26.5743   43.6344 H   0  0  0  0  0  0  0  0  0  0  0  0
   37.5364   27.8585   45.0788 H   0  0  0  0  0  0  0  0  0  0  0  0
   38.7926   29.7630   44.0395 H   0  0  0  0  0  0  0  0  0  0  0  0
   36.9036   26.8610   36.5552 H   0  0  0  0  0  0  0  0  0  0  0  0
   35.3150   27.6413   36.1596 H   0  0  0  0  0  0  0  0  0  0  0  0
   35.3100   26.5589   38.8187 H   0  0  0  0  0  0  0  0  0  0  0  0
   34.2439   26.2300   37.3448 H   0  0  0  0  0  0  0  0  0  0  0  0
   37.9006   25.1305   37.1430 H   0  0  0  0  0  0  0  0  0  0  0  0
   38.6676   24.6586   39.5965 H   0  0  0  0  0  0  0  0  0  0  0  0
   36.9574   23.8980   41.1921 H   0  0  0  0  0  0  0  0  0  0  0  0
   36.0690   25.3475   40.6222 H   0  0  0  0  0  0  0  0  0  0  0  0
   35.1096   22.6181   40.1940 H   0  0  0  0  0  0  0  0  0  0  0  0
   34.1211   23.4774   37.8980 H   0  0  0  0  0  0  0  0  0  0  0  0
  1 11  1  0
  2  1  2  0
  3  2  1  0
  4  5  1  0
  4  3  2  0
  5  6  2  0
  6  1  1  0
  7  8  2  0
  9  8  1  0
 10  9  2  0
 11 12  2  0
 11 10  1  0
 12  7  1  0
 13 14  1  0
 13  5  1  0
 15 14  1  0
 15 16  1  0
 15 20  1  0
 16 17  2  0
 17 18  1  0
 19 18  1  0
 20 19  2  0
  2 21  1  0
  3 22  1  0
  7 23  1  0
  8 24  1  0
  9 25  1  0
 13 26  1  0
 13 27  1  0
 14 28  1  0
 14 29  1  0
 16 30  1  0
 17 31  1  0
 18 32  1  0
 18 33  1  0
 19 34  1  0
 20 35  1  0
M  ISO  8  21  14  22  14  23  14  24  14  25  14  26   8  27   8  28   8
M  ISO  7  29   8  30  13  31  13  32  13  33  13  34  13  35  13
M  END
>  <minimizedAffinity>  (1) 
-4.15276861

>  <minimizedRMSD>  (1) 
5.56619453

$$$$
