
     RDKit          3D

 44 47  0  0  0  0  0  0  0  0999 V2000
   37.4670   32.8270   40.0730 C   0  0  0  0  0  0  0  0  0  0  0  0
   40.8060   34.0100   39.1960 C   0  0  0  0  0  0  0  0  0  0  0  0
   40.8470   35.3130   39.6500 C   0  0  0  0  0  0  0  0  0  0  0  0
   39.7060   35.7760   40.2640 C   0  0  0  0  0  0  0  0  0  0  0  0
   38.6050   35.0390   40.4270 N   0  0  0  0  0  0  0  0  0  0  0  0
   38.6110   33.7750   39.9690 C   0  0  0  0  0  0  0  0  0  0  0  0
   39.6930   33.2760   39.3660 N   0  0  0  0  0  0  0  0  0  0  0  0
   42.8870   31.8860   37.0400 C   0  0  0  0  0  0  0  0  0  0  0  0
   44.1780   32.3790   37.2980 C   0  0  0  0  0  0  0  0  0  0  0  0
   44.3210   33.4320   38.2060 C   0  0  0  0  0  0  0  0  0  0  0  0
   43.2070   33.9310   38.7990 N   0  0  0  0  0  0  0  0  0  0  0  0
   41.9860   33.4320   38.5260 C   0  0  0  0  0  0  0  0  0  0  0  0
   41.8090   32.4110   37.6510 N   0  0  0  0  0  0  0  0  0  0  0  0
   37.8810   31.4820   39.5090 C   0  0  0  0  0  0  0  0  0  0  0  0
   37.6300   30.3900   40.4730 C   0  0  0  0  0  0  0  0  0  0  0  0
   36.9290   30.3860   41.5910 N   0  0  0  0  0  0  0  0  0  0  0  0
   36.9760   29.2040   42.1290 O   0  0  0  0  0  0  0  0  0  0  0  0
   37.6930   28.3990   41.4080 C   0  0  0  0  0  0  0  0  0  0  0  0
   38.1040   29.1350   40.3740 N   0  0  0  0  0  0  0  0  0  0  0  0
   37.9410   27.0340   41.7240 N   0  0  0  0  0  0  0  0  0  0  0  0
   37.5090   26.0220   40.7770 C   0  0  0  0  0  0  0  0  0  0  0  0
   36.9850   24.8370   41.5310 C   0  0  0  0  0  0  0  0  0  0  0  0
   38.1110   24.2310   42.3240 C   0  0  0  0  0  0  0  0  0  0  0  0
   39.1240   25.2310   42.7730 C   0  0  0  0  0  0  0  0  0  0  0  0
   38.6020   26.6260   42.9490 C   0  0  0  0  0  0  0  0  0  0  0  0
   37.1803   32.7108   41.1286 H   0  0  0  0  0  0  0  0  0  0  0  0
   36.6102   33.2181   39.5047 H   0  0  0  0  0  0  0  0  0  0  0  0
   41.7396   35.9442   39.5280 H   0  0  0  0  0  0  0  0  0  0  0  0
   39.7008   36.8094   40.6409 H   0  0  0  0  0  0  0  0  0  0  0  0
   42.7559   31.0582   36.3276 H   0  0  0  0  0  0  0  0  0  0  0  0
   45.0560   31.9458   36.7965 H   0  0  0  0  0  0  0  0  0  0  0  0
   45.3138   33.8467   38.4347 H   0  0  0  0  0  0  0  0  0  0  0  0
   37.3071   31.2874   38.5910 H   0  0  0  0  0  0  0  0  0  0  0  0
   38.9599   31.5140   39.2969 H   0  0  0  0  0  0  0  0  0  0  0  0
   38.3607   25.7142   40.1526 H   0  0  0  0  0  0  0  0  0  0  0  0
   36.7170   26.4312   40.1326 H   0  0  0  0  0  0  0  0  0  0  0  0
   36.1832   25.1574   42.2126 H   0  0  0  0  0  0  0  0  0  0  0  0
   36.5814   24.0944   40.8270 H   0  0  0  0  0  0  0  0  0  0  0  0
   37.6873   23.7405   43.2128 H   0  0  0  0  0  0  0  0  0  0  0  0
   38.6276   23.5191   41.6634 H   0  0  0  0  0  0  0  0  0  0  0  0
   39.5313   24.8947   43.7379 H   0  0  0  0  0  0  0  0  0  0  0  0
   39.8792   25.2835   41.9750 H   0  0  0  0  0  0  0  0  0  0  0  0
   39.4369   27.3091   43.1641 H   0  0  0  0  0  0  0  0  0  0  0  0
   37.8899   26.6564   43.7868 H   0  0  0  0  0  0  0  0  0  0  0  0
  2  7  1  0
  2  3  2  0
  3  4  1  0
  4  5  2  0
  6  1  1  0
  6  5  1  0
  7  6  2  0
  8  9  2  0
  8 13  1  0
  9 10  1  0
 10 11  2  0
 12 11  1  0
 12  2  1  0
 13 12  2  0
 14  1  1  0
 14 15  1  0
 15 16  2  0
 16 17  1  0
 18 20  1  0
 18 17  1  0
 19 15  1  0
 19 18  2  0
 20 25  1  0
 21 22  1  0
 21 20  1  0
 22 23  1  0
 23 24  1  0
 24 25  1  0
  1 26  1  0
  1 27  1  0
  3 28  1  0
  4 29  1  0
  8 30  1  0
  9 31  1  0
 10 32  1  0
 14 33  1  0
 14 34  1  0
 21 35  1  0
 21 36  1  0
 22 37  1  0
 22 38  1  0
 23 39  1  0
 23 40  1  0
 24 41  1  0
 24 42  1  0
 25 43  1  0
 25 44  1  0
M  ISO  8  26   8  27   8  28  14  29  14  30  14  31  14  32  14  33   8
M  ISO  8  34   8  35  13  36  13  37  13  38  13  39  13  40  13  41  13
M  ISO  3  42  13  43  13  44  13
M  END
>  <minimizedAffinity>  (1) 
-6.06779146

>  <minimizedRMSD>  (1) 
8.66067696

$$$$
