
     RDKit          3D

 36 39  0  0  0  0  0  0  0  0999 V2000
   36.6870   29.2910   40.2120 C   0  0  0  0  0  0  0  0  0  0  0  0
   35.9630   28.5290   39.3240 C   0  0  0  0  0  0  0  0  0  0  0  0
   35.7830   29.0610   38.0710 C   0  0  0  0  0  0  0  0  0  0  0  0
   36.2670   30.2430   37.7030 N   0  0  0  0  0  0  0  0  0  0  0  0
   36.9700   30.9650   38.5870 C   0  0  0  0  0  0  0  0  0  0  0  0
   37.1720   30.4860   39.8240 N   0  0  0  0  0  0  0  0  0  0  0  0
   38.0800   28.9830   43.6110 C   0  0  0  0  0  0  0  0  0  0  0  0
   37.3600   27.9000   44.1030 C   0  0  0  0  0  0  0  0  0  0  0  0
   36.3990   27.2710   43.2850 C   0  0  0  0  0  0  0  0  0  0  0  0
   36.2230   27.7600   42.0360 N   0  0  0  0  0  0  0  0  0  0  0  0
   36.9400   28.8130   41.5910 C   0  0  0  0  0  0  0  0  0  0  0  0
   37.8620   29.4340   42.3430 N   0  0  0  0  0  0  0  0  0  0  0  0
   37.5730   32.2940   38.3300 C   0  0  0  0  0  0  0  0  0  0  0  0
   38.9940   32.3120   38.8370 C   0  0  0  0  0  0  0  0  0  0  0  0
   39.2670   33.5220   39.6470 C   0  0  0  0  0  0  0  0  0  0  0  0
   38.4550   34.5220   39.9710 N   0  0  0  0  0  0  0  0  0  0  0  0
   39.1140   35.3810   40.7040 O   0  0  0  0  0  0  0  0  0  0  0  0
   40.3330   34.9880   40.8800 C   0  0  0  0  0  0  0  0  0  0  0  0
   40.4550   33.8120   40.2200 N   0  0  0  0  0  0  0  0  0  0  0  0
   41.3930   35.6530   41.6340 C   0  0  0  0  0  0  0  0  0  0  0  0
   42.7180   35.2690   41.6420 C   0  0  0  0  0  0  0  0  0  0  0  0
   43.3480   36.1350   42.4530 N   0  0  0  0  0  0  0  0  0  0  0  0
   42.4550   37.0300   42.9370 C   0  0  0  0  0  0  0  0  0  0  0  0
   41.2480   36.7280   42.4290 N   0  0  0  0  0  0  0  0  0  0  0  0
   35.5511   27.5478   39.6025 H   0  0  0  0  0  0  0  0  0  0  0  0
   35.2092   28.4795   37.3344 H   0  0  0  0  0  0  0  0  0  0  0  0
   38.8285   29.4779   44.2474 H   0  0  0  0  0  0  0  0  0  0  0  0
   37.5392   27.5357   45.1253 H   0  0  0  0  0  0  0  0  0  0  0  0
   35.8137   26.4138   43.6492 H   0  0  0  0  0  0  0  0  0  0  0  0
   37.5676   32.4955   37.2486 H   0  0  0  0  0  0  0  0  0  0  0  0
   36.9894   33.0669   38.8516 H   0  0  0  0  0  0  0  0  0  0  0  0
   39.1629   31.4203   39.4586 H   0  0  0  0  0  0  0  0  0  0  0  0
   39.6697   32.3185   37.9690 H   0  0  0  0  0  0  0  0  0  0  0  0
   43.1668   34.4261   41.0960 H   0  0  0  0  0  0  0  0  0  0  0  0
   42.6781   37.8587   43.6251 H   0  0  0  0  0  0  0  0  0  0  0  0
   40.3684   37.2305   42.6154 H   0  0  0  0  0  0  0  0  0  0  0  0
  1 11  1  0
  2  1  2  0
  3  2  1  0
  4  3  2  0
  4  5  1  0
  5  6  2  0
  6  1  1  0
  7  8  2  0
  9  8  1  0
 10  9  2  0
 11 10  1  0
 11 12  2  0
 12  7  1  0
 13  5  1  0
 13 14  1  0
 14 15  1  0
 15 16  2  0
 15 19  1  0
 16 17  1  0
 17 18  1  0
 18 20  1  0
 19 18  2  0
 20 21  2  0
 20 24  1  0
 21 22  1  0
 22 23  2  0
 24 23  1  0
  2 25  1  0
  3 26  1  0
  7 27  1  0
  8 28  1  0
  9 29  1  0
 13 30  1  0
 13 31  1  0
 14 32  1  0
 14 33  1  0
 21 34  1  0
 23 35  1  0
 24 36  1  0
M  ISO  8  25  14  26  14  27  14  28  14  29  14  30   8  31   8  32   8
M  ISO  4  33   8  34  14  35  14  36   9
M  END
>  <minimizedAffinity>  (1) 
-5.99898243

>  <minimizedRMSD>  (1) 
1.16398287

$$$$
