
     RDKit          3D

 35 38  0  0  0  0  0  0  0  0999 V2000
   36.6300   29.1510   40.0270 C   0  0  0  0  0  0  0  0  0  0  0  0
   35.7910   28.3480   39.2620 C   0  0  0  0  0  0  0  0  0  0  0  0
   35.5800   28.7630   37.9760 C   0  0  0  0  0  0  0  0  0  0  0  0
   36.1240   29.8530   37.4600 N   0  0  0  0  0  0  0  0  0  0  0  0
   36.9280   30.6040   38.2230 C   0  0  0  0  0  0  0  0  0  0  0  0
   37.1750   30.2510   39.4960 N   0  0  0  0  0  0  0  0  0  0  0  0
   38.1150   29.1500   43.3900 C   0  0  0  0  0  0  0  0  0  0  0  0
   37.4410   28.1020   44.0110 C   0  0  0  0  0  0  0  0  0  0  0  0
   36.4810   27.4000   43.2750 C   0  0  0  0  0  0  0  0  0  0  0  0
   36.2370   27.7600   41.9860 N   0  0  0  0  0  0  0  0  0  0  0  0
   36.9170   28.7820   41.4320 C   0  0  0  0  0  0  0  0  0  0  0  0
   37.8540   29.4910   42.1020 N   0  0  0  0  0  0  0  0  0  0  0  0
   37.6110   31.8560   37.7830 C   0  0  0  0  0  0  0  0  0  0  0  0
   39.0610   31.8030   38.2040 C   0  0  0  0  0  0  0  0  0  0  0  0
   39.3870   32.8820   39.1650 C   0  0  0  0  0  0  0  0  0  0  0  0
   38.5830   33.6770   39.8420 N   0  0  0  0  0  0  0  0  0  0  0  0
   39.2940   34.4900   40.5780 O   0  0  0  0  0  0  0  0  0  0  0  0
   40.5560   34.2570   40.4110 C   0  0  0  0  0  0  0  0  0  0  0  0
   40.6260   33.2550   39.5320 N   0  0  0  0  0  0  0  0  0  0  0  0
   41.4640   35.0650   41.1520 N   0  0  0  0  0  0  0  0  0  0  0  0
   41.1250   36.3260   41.4500 C   0  0  0  0  0  0  0  0  0  0  0  0
   42.1160   36.9260   42.1540 N   0  0  0  0  0  0  0  0  0  0  0  0
   43.0880   36.0000   42.2860 C   0  0  0  0  0  0  0  0  0  0  0  0
   42.6670   34.8740   41.6680 N   0  0  0  0  0  0  0  0  0  0  0  0
   35.3263   27.4364   39.6658 H   0  0  0  0  0  0  0  0  0  0  0  0
   34.9219   28.1573   37.3356 H   0  0  0  0  0  0  0  0  0  0  0  0
   38.8737   29.7126   43.9538 H   0  0  0  0  0  0  0  0  0  0  0  0
   37.6582   27.8326   45.0552 H   0  0  0  0  0  0  0  0  0  0  0  0
   35.9293   26.5660   43.7334 H   0  0  0  0  0  0  0  0  0  0  0  0
   37.1236   32.7248   38.2495 H   0  0  0  0  0  0  0  0  0  0  0  0
   37.5462   31.9483   36.6888 H   0  0  0  0  0  0  0  0  0  0  0  0
   39.2604   30.8304   38.6775 H   0  0  0  0  0  0  0  0  0  0  0  0
   39.6855   31.9380   37.3086 H   0  0  0  0  0  0  0  0  0  0  0  0
   40.1776   36.8063   41.1642 H   0  0  0  0  0  0  0  0  0  0  0  0
   44.0493   36.1365   42.8030 H   0  0  0  0  0  0  0  0  0  0  0  0
  1 11  1  0
  2  1  2  0
  3  2  1  0
  4  3  2  0
  4  5  1  0
  5  6  2  0
  6  1  1  0
  7  8  2  0
  9  8  1  0
 10  9  2  0
 11 10  1  0
 11 12  2  0
 12  7  1  0
 13 14  1  0
 13  5  1  0
 14 15  1  0
 15 19  1  0
 15 16  2  0
 16 17  1  0
 18 17  1  0
 18 20  1  0
 19 18  2  0
 20 21  1  0
 20 24  1  0
 21 22  2  0
 22 23  1  0
 24 23  2  0
  2 25  1  0
  3 26  1  0
  7 27  1  0
  8 28  1  0
  9 29  1  0
 13 30  1  0
 13 31  1  0
 14 32  1  0
 14 33  1  0
 21 34  1  0
 23 35  1  0
M  ISO  8  25  14  26  14  27  14  28  14  29  14  30   8  31   8  32   8
M  ISO  3  33   8  34  14  35  14
M  END
>  <minimizedAffinity>  (1) 
-5.969697

>  <minimizedRMSD>  (1) 
1.10070157

$$$$
