
     RDKit          3D

 39 42  0  0  0  0  0  0  0  0999 V2000
   37.6260   31.7990   37.7530 C   0  0  0  0  0  0  0  0  0  0  0  0
   36.6150   29.1360   40.0290 C   0  0  0  0  0  0  0  0  0  0  0  0
   35.7530   28.3520   39.2830 C   0  0  0  0  0  0  0  0  0  0  0  0
   35.5280   28.7560   37.9910 C   0  0  0  0  0  0  0  0  0  0  0  0
   36.0910   29.8330   37.4540 N   0  0  0  0  0  0  0  0  0  0  0  0
   36.9220   30.5750   38.1990 C   0  0  0  0  0  0  0  0  0  0  0  0
   37.1710   30.2180   39.4680 N   0  0  0  0  0  0  0  0  0  0  0  0
   38.1170   29.1680   43.3780 C   0  0  0  0  0  0  0  0  0  0  0  0
   37.4510   28.1020   44.0080 C   0  0  0  0  0  0  0  0  0  0  0  0
   36.5020   27.3890   43.2870 C   0  0  0  0  0  0  0  0  0  0  0  0
   36.2600   27.7590   41.9950 N   0  0  0  0  0  0  0  0  0  0  0  0
   36.9160   28.7820   41.4250 C   0  0  0  0  0  0  0  0  0  0  0  0
   37.8440   29.4980   42.0930 N   0  0  0  0  0  0  0  0  0  0  0  0
   39.0590   31.7810   38.2550 C   0  0  0  0  0  0  0  0  0  0  0  0
   39.3100   32.9160   39.1830 C   0  0  0  0  0  0  0  0  0  0  0  0
   38.4720   33.7960   39.6980 N   0  0  0  0  0  0  0  0  0  0  0  0
   39.1300   34.6220   40.4670 O   0  0  0  0  0  0  0  0  0  0  0  0
   40.3890   34.3170   40.4820 C   0  0  0  0  0  0  0  0  0  0  0  0
   40.5120   33.2500   39.6800 N   0  0  0  0  0  0  0  0  0  0  0  0
   41.4500   34.9980   41.2180 C   0  0  0  0  0  0  0  0  0  0  0  0
   42.6840   34.3870   41.4030 C   0  0  0  0  0  0  0  0  0  0  0  0
   43.7270   35.0040   42.1020 C   0  0  0  0  0  0  0  0  0  0  0  0
   43.4360   36.2750   42.6000 C   0  0  0  0  0  0  0  0  0  0  0  0
   42.2200   36.9020   42.4310 C   0  0  0  0  0  0  0  0  0  0  0  0
   41.2180   36.2570   41.7330 C   0  0  0  0  0  0  0  0  0  0  0  0
   37.6248   31.8408   36.6538 H   0  0  0  0  0  0  0  0  0  0  0  0
   37.1106   32.6821   38.1585 H   0  0  0  0  0  0  0  0  0  0  0  0
   35.2746   27.4546   39.7023 H   0  0  0  0  0  0  0  0  0  0  0  0
   34.8468   28.1577   37.3682 H   0  0  0  0  0  0  0  0  0  0  0  0
   38.8706   29.7423   43.9367 H   0  0  0  0  0  0  0  0  0  0  0  0
   37.6772   27.8379   45.0516 H   0  0  0  0  0  0  0  0  0  0  0  0
   35.9596   26.5485   43.7446 H   0  0  0  0  0  0  0  0  0  0  0  0
   39.2432   30.8348   38.7850 H   0  0  0  0  0  0  0  0  0  0  0  0
   39.7350   31.8758   37.3925 H   0  0  0  0  0  0  0  0  0  0  0  0
   42.8467   33.3826   40.9851 H   0  0  0  0  0  0  0  0  0  0  0  0
   44.7051   34.5226   42.2485 H   0  0  0  0  0  0  0  0  0  0  0  0
   44.2209   36.8061   43.1586 H   0  0  0  0  0  0  0  0  0  0  0  0
   42.0496   37.9056   42.8478 H   0  0  0  0  0  0  0  0  0  0  0  0
   40.2420   36.7434   41.5886 H   0  0  0  0  0  0  0  0  0  0  0  0
  1  6  1  0
  1 14  1  0
  2 12  1  0
  3  2  2  0
  4  3  1  0
  5  4  2  0
  5  6  1  0
  6  7  2  0
  7  2  1  0
  8  9  2  0
 10  9  1  0
 11 10  2  0
 12 11  1  0
 12 13  2  0
 13  8  1  0
 14 15  1  0
 15 19  1  0
 15 16  2  0
 16 17  1  0
 17 18  1  0
 18 20  1  0
 19 18  2  0
 20 21  2  0
 20 25  1  0
 21 22  1  0
 22 23  2  0
 24 23  1  0
 25 24  2  0
  1 26  1  0
  1 27  1  0
  3 28  1  0
  4 29  1  0
  8 30  1  0
  9 31  1  0
 10 32  1  0
 14 33  1  0
 14 34  1  0
 21 35  1  0
 22 36  1  0
 23 37  1  0
 24 38  1  0
 25 39  1  0
M  ISO  8  26   8  27   8  28  14  29  14  30  14  31  14  32  14  33   8
M  ISO  6  34   8  35  14  36  14  37  14  38  14  39  14
M  END
>  <minimizedAffinity>  (1) 
-5.87913609

>  <minimizedRMSD>  (1) 
1.23610127

$$$$
