
     RDKit          3D

 32 34  0  0  0  0  0  0  0  0999 V2000
   37.1190   29.5510   39.9980 C   0  0  0  0  0  0  0  0  0  0  0  0
   36.0580   29.2070   39.1650 C   0  0  0  0  0  0  0  0  0  0  0  0
   36.0650   29.7620   37.9090 C   0  0  0  0  0  0  0  0  0  0  0  0
   37.0170   30.5890   37.4760 N   0  0  0  0  0  0  0  0  0  0  0  0
   38.0270   30.9030   38.2970 C   0  0  0  0  0  0  0  0  0  0  0  0
   38.0750   30.3910   39.5380 N   0  0  0  0  0  0  0  0  0  0  0  0
   38.1270   29.0730   43.4970 C   0  0  0  0  0  0  0  0  0  0  0  0
   37.3280   27.9850   43.8810 C   0  0  0  0  0  0  0  0  0  0  0  0
   36.4520   27.4290   42.9330 C   0  0  0  0  0  0  0  0  0  0  0  0
   36.4170   27.9670   41.6910 N   0  0  0  0  0  0  0  0  0  0  0  0
   37.1940   29.0050   41.3590 C   0  0  0  0  0  0  0  0  0  0  0  0
   38.0540   29.5730   42.2430 N   0  0  0  0  0  0  0  0  0  0  0  0
   39.1580   31.8060   37.9650 C   0  0  0  0  0  0  0  0  0  0  0  0
   40.0080   32.0260   39.2150 C   0  0  0  0  0  0  0  0  0  0  0  0
   39.6990   33.3420   39.8330 C   0  0  0  0  0  0  0  0  0  0  0  0
   38.7620   33.6730   40.7110 N   0  0  0  0  0  0  0  0  0  0  0  0
   38.8520   34.9390   40.9810 O   0  0  0  0  0  0  0  0  0  0  0  0
   39.8190   35.4820   40.3160 C   0  0  0  0  0  0  0  0  0  0  0  0
   40.3460   34.4850   39.6000 N   0  0  0  0  0  0  0  0  0  0  0  0
   40.1710   36.8930   40.4040 C   0  0  0  0  0  0  0  0  0  0  0  0
   39.3510   37.7300   39.9420 O   0  0  0  0  0  0  0  0  0  0  0  0
   41.3490   37.3650   40.9630 O   0  0  0  0  0  0  0  0  0  0  0  0
   35.2580   28.5279   39.4948 H   0  0  0  0  0  0  0  0  0  0  0  0
   35.2418   29.5111   37.2239 H   0  0  0  0  0  0  0  0  0  0  0  0
   38.8194   29.5234   44.2234 H   0  0  0  0  0  0  0  0  0  0  0  0
   37.3861   27.5767   44.9008 H   0  0  0  0  0  0  0  0  0  0  0  0
   35.8090   26.5756   43.1943 H   0  0  0  0  0  0  0  0  0  0  0  0
   39.7743   31.3493   37.1766 H   0  0  0  0  0  0  0  0  0  0  0  0
   38.7684   32.7708   37.6082 H   0  0  0  0  0  0  0  0  0  0  0  0
   39.7967   31.2271   39.9411 H   0  0  0  0  0  0  0  0  0  0  0  0
   41.0700   32.0092   38.9290 H   0  0  0  0  0  0  0  0  0  0  0  0
   41.5280   38.3382   40.9919 H   0  0  0  0  0  0  0  0  0  0  0  0
  1 11  1  0
  2  1  2  0
  3  2  1  0
  4  3  2  0
  4  5  1  0
  5  6  2  0
  6  1  1  0
  7  8  2  0
  9  8  1  0
 10  9  2  0
 11 10  1  0
 11 12  2  0
 12  7  1  0
 13  5  1  0
 13 14  1  0
 14 15  1  0
 15 16  2  0
 16 17  1  0
 18 20  1  0
 18 17  1  0
 19 15  1  0
 19 18  2  0
 20 22  1  0
 21 20  2  0
  2 23  1  0
  3 24  1  0
  7 25  1  0
  8 26  1  0
  9 27  1  0
 13 28  1  0
 13 29  1  0
 14 30  1  0
 14 31  1  0
 22 32  1  0
M  ISO  8  23  14  24  14  25  14  26  14  27  14  28   8  29   8  30   8
M  ISO  2  31   8  32   3
M  END
>  <minimizedAffinity>  (1) 
-5.81561804

>  <minimizedRMSD>  (1) 
0.70843339

$$$$
