
     RDKit          3D

 42 45  0  0  0  0  0  0  0  0999 V2000
   36.4250   29.0550   40.0810 C   0  0  0  0  0  0  0  0  0  0  0  0
   35.3620   28.3980   39.4790 C   0  0  0  0  0  0  0  0  0  0  0  0
   35.0680   28.7780   38.1900 C   0  0  0  0  0  0  0  0  0  0  0  0
   35.7400   29.7140   37.5270 N   0  0  0  0  0  0  0  0  0  0  0  0
   36.7610   30.3290   38.1360 C   0  0  0  0  0  0  0  0  0  0  0  0
   37.0910   29.9980   39.3940 N   0  0  0  0  0  0  0  0  0  0  0  0
   38.1270   29.1570   43.3380 C   0  0  0  0  0  0  0  0  0  0  0  0
   37.5330   28.0840   44.0110 C   0  0  0  0  0  0  0  0  0  0  0  0
   36.5580   27.3400   43.3430 C   0  0  0  0  0  0  0  0  0  0  0  0
   36.2220   27.6790   42.0740 N   0  0  0  0  0  0  0  0  0  0  0  0
   36.8200   28.7230   41.4590 C   0  0  0  0  0  0  0  0  0  0  0  0
   37.7720   29.4740   42.0680 N   0  0  0  0  0  0  0  0  0  0  0  0
   37.6030   31.3930   37.5270 C   0  0  0  0  0  0  0  0  0  0  0  0
   39.0420   31.2240   38.0050 C   0  0  0  0  0  0  0  0  0  0  0  0
   39.4110   32.3380   38.9290 C   0  0  0  0  0  0  0  0  0  0  0  0
   38.8580   32.7310   40.0570 N   0  0  0  0  0  0  0  0  0  0  0  0
   39.5160   33.7490   40.5260 O   0  0  0  0  0  0  0  0  0  0  0  0
   40.5130   34.0550   39.7290 C   0  0  0  0  0  0  0  0  0  0  0  0
   40.4530   33.1710   38.7220 N   0  0  0  0  0  0  0  0  0  0  0  0
   41.5500   35.1120   39.8000 C   0  0  0  0  0  0  0  0  0  0  0  0
   41.9620   35.4790   41.1860 C   0  0  0  0  0  0  0  0  0  0  0  0
   41.0420   36.5900   41.6450 C   0  0  0  0  0  0  0  0  0  0  0  0
   40.2320   37.0050   40.4340 C   0  0  0  0  0  0  0  0  0  0  0  0
   41.0460   36.4360   39.2680 C   0  0  0  0  0  0  0  0  0  0  0  0
   34.7878   27.6188   40.0017 H   0  0  0  0  0  0  0  0  0  0  0  0
   34.2305   28.2798   37.6796 H   0  0  0  0  0  0  0  0  0  0  0  0
   38.8964   29.7548   43.8485 H   0  0  0  0  0  0  0  0  0  0  0  0
   37.8266   27.8325   45.0408 H   0  0  0  0  0  0  0  0  0  0  0  0
   36.0687   26.4895   43.8403 H   0  0  0  0  0  0  0  0  0  0  0  0
   37.2268   32.3806   37.8323 H   0  0  0  0  0  0  0  0  0  0  0  0
   37.5646   31.3145   36.4305 H   0  0  0  0  0  0  0  0  0  0  0  0
   39.1390   30.2649   38.5348 H   0  0  0  0  0  0  0  0  0  0  0  0
   39.7144   31.2410   37.1346 H   0  0  0  0  0  0  0  0  0  0  0  0
   42.3742   34.6675   39.2229 H   0  0  0  0  0  0  0  0  0  0  0  0
   41.8638   34.6088   41.8516 H   0  0  0  0  0  0  0  0  0  0  0  0
   43.0120   35.8061   41.2084 H   0  0  0  0  0  0  0  0  0  0  0  0
   40.3759   36.2272   42.4417 H   0  0  0  0  0  0  0  0  0  0  0  0
   41.6134   37.4377   42.0511 H   0  0  0  0  0  0  0  0  0  0  0  0
   39.2232   36.5673   40.4634 H   0  0  0  0  0  0  0  0  0  0  0  0
   40.0767   38.0919   40.3664 H   0  0  0  0  0  0  0  0  0  0  0  0
   41.8839   37.1012   39.0121 H   0  0  0  0  0  0  0  0  0  0  0  0
   40.4559   36.3298   38.3458 H   0  0  0  0  0  0  0  0  0  0  0  0
  1 11  1  0
  2  1  2  0
  3  2  1  0
  4  5  1  0
  4  3  2  0
  5  6  2  0
  6  1  1  0
  7  8  2  0
  9  8  1  0
 10  9  2  0
 11 12  2  0
 11 10  1  0
 12  7  1  0
 13 14  1  0
 13  5  1  0
 14 15  1  0
 15 16  2  0
 16 17  1  0
 18 20  1  0
 18 17  1  0
 19 15  1  0
 19 18  2  0
 20 21  1  0
 21 22  1  0
 23 22  1  0
 24 20  1  0
 24 23  1  0
  2 25  1  0
  3 26  1  0
  7 27  1  0
  8 28  1  0
  9 29  1  0
 13 30  1  0
 13 31  1  0
 14 32  1  0
 14 33  1  0
 20 34  1  0
 21 35  1  0
 21 36  1  0
 22 37  1  0
 22 38  1  0
 23 39  1  0
 23 40  1  0
 24 41  1  0
 24 42  1  0
M  ISO  8  25  14  26  14  27  14  28  14  29  14  30   8  31   8  32   8
M  ISO  8  33   8  34  13  35  13  36  13  37  13  38  13  39  13  40  13
M  ISO  2  41  13  42  13
M  END
>  <minimizedAffinity>  (1) 
-5.65449524

>  <minimizedRMSD>  (1) 
1.07455194

$$$$
