
     RDKit          3D

 36 39  0  0  0  0  0  0  0  0999 V2000
   36.6620   29.2220   40.0640 C   0  0  0  0  0  0  0  0  0  0  0  0
   35.8720   28.4330   39.2560 C   0  0  0  0  0  0  0  0  0  0  0  0
   35.6880   28.8950   37.9670 C   0  0  0  0  0  0  0  0  0  0  0  0
   36.2160   30.0110   37.5040 N   0  0  0  0  0  0  0  0  0  0  0  0
   36.9840   30.7610   38.3170 C   0  0  0  0  0  0  0  0  0  0  0  0
   37.1970   30.3590   39.5810 N   0  0  0  0  0  0  0  0  0  0  0  0
   38.0770   29.1350   43.4670 C   0  0  0  0  0  0  0  0  0  0  0  0
   37.3940   28.0660   44.0370 C   0  0  0  0  0  0  0  0  0  0  0  0
   36.4460   27.3720   43.2580 C   0  0  0  0  0  0  0  0  0  0  0  0
   36.2430   27.7810   41.9780 N   0  0  0  0  0  0  0  0  0  0  0  0
   36.9270   28.8220   41.4650 C   0  0  0  0  0  0  0  0  0  0  0  0
   37.8390   29.5070   42.1830 N   0  0  0  0  0  0  0  0  0  0  0  0
   37.6450   32.0310   37.9530 C   0  0  0  0  0  0  0  0  0  0  0  0
   39.0730   32.0400   38.4970 C   0  0  0  0  0  0  0  0  0  0  0  0
   39.2850   33.2140   39.3810 C   0  0  0  0  0  0  0  0  0  0  0  0
   38.4220   34.1270   39.8340 N   0  0  0  0  0  0  0  0  0  0  0  0
   39.0570   34.9780   40.5830 O   0  0  0  0  0  0  0  0  0  0  0  0
   40.3090   34.6760   40.6510 C   0  0  0  0  0  0  0  0  0  0  0  0
   40.4680   33.5820   39.9090 N   0  0  0  0  0  0  0  0  0  0  0  0
   41.3540   35.3460   41.3630 C   0  0  0  0  0  0  0  0  0  0  0  0
   41.4410   36.5630   42.0070 C   0  0  0  0  0  0  0  0  0  0  0  0
   42.5910   36.9420   42.6120 C   0  0  0  0  0  0  0  0  0  0  0  0
   43.7250   36.0160   42.5560 C   0  0  0  0  0  0  0  0  0  0  0  0
   42.9870   34.5790   41.5670 S   0  0  0  0  0  0  0  0  0  0  0  0
   35.4179   27.4972   39.6138 H   0  0  0  0  0  0  0  0  0  0  0  0
   35.0642   28.2965   37.2868 H   0  0  0  0  0  0  0  0  0  0  0  0
   38.8190   29.6859   44.0636 H   0  0  0  0  0  0  0  0  0  0  0  0
   37.5901   27.7673   45.0774 H   0  0  0  0  0  0  0  0  0  0  0  0
   35.8856   26.5222   43.6750 H   0  0  0  0  0  0  0  0  0  0  0  0
   37.6699   32.1300   36.8577 H   0  0  0  0  0  0  0  0  0  0  0  0
   37.0838   32.8721   38.3861 H   0  0  0  0  0  0  0  0  0  0  0  0
   39.2475   31.1182   39.0713 H   0  0  0  0  0  0  0  0  0  0  0  0
   39.7752   32.0991   37.6524 H   0  0  0  0  0  0  0  0  0  0  0  0
   40.5677   37.2315   42.0290 H   0  0  0  0  0  0  0  0  0  0  0  0
   42.6713   37.9105   43.1272 H   0  0  0  0  0  0  0  0  0  0  0  0
   44.7356   36.1260   42.9763 H   0  0  0  0  0  0  0  0  0  0  0  0
  1 11  1  0
  2  1  2  0
  3  2  1  0
  4  3  2  0
  4  5  1  0
  5  6  2  0
  6  1  1  0
  7  8  2  0
  9  8  1  0
 10  9  2  0
 11 10  1  0
 11 12  2  0
 12  7  1  0
 13  5  1  0
 13 14  1  0
 14 15  1  0
 15 16  2  0
 15 19  1  0
 16 17  1  0
 17 18  1  0
 18 20  1  0
 19 18  2  0
 20 24  1  0
 20 21  2  0
 21 22  1  0
 23 22  2  0
 24 23  1  0
  2 25  1  0
  3 26  1  0
  7 27  1  0
  8 28  1  0
  9 29  1  0
 13 30  1  0
 13 31  1  0
 14 32  1  0
 14 33  1  0
 21 34  1  0
 22 35  1  0
 23 36  1  0
M  ISO  8  25  14  26  14  27  14  28  14  29  14  30   8  31   8  32   8
M  ISO  4  33   8  34  14  35  14  36  14
M  END
>  <minimizedAffinity>  (1) 
-5.60096884

>  <minimizedRMSD>  (1) 
1.0918752

$$$$
