
     RDKit          3D

 35 38  0  0  0  0  0  0  0  0999 V2000
   36.6090   29.1810   40.0750 C   0  0  0  0  0  0  0  0  0  0  0  0
   35.7560   28.3980   39.3090 C   0  0  0  0  0  0  0  0  0  0  0  0
   35.5500   28.8390   38.0270 C   0  0  0  0  0  0  0  0  0  0  0  0
   36.1010   29.9190   37.5190 N   0  0  0  0  0  0  0  0  0  0  0  0
   36.9300   30.6660   38.2890 C   0  0  0  0  0  0  0  0  0  0  0  0
   37.1680   30.2840   39.5490 N   0  0  0  0  0  0  0  0  0  0  0  0
   38.0900   29.1330   43.4370 C   0  0  0  0  0  0  0  0  0  0  0  0
   37.4170   28.0680   44.0440 C   0  0  0  0  0  0  0  0  0  0  0  0
   36.4590   27.3720   43.2970 C   0  0  0  0  0  0  0  0  0  0  0  0
   36.2260   27.7630   42.0150 N   0  0  0  0  0  0  0  0  0  0  0  0
   36.9040   28.7990   41.4780 C   0  0  0  0  0  0  0  0  0  0  0  0
   37.8360   29.4950   42.1670 N   0  0  0  0  0  0  0  0  0  0  0  0
   37.6200   31.8960   37.8670 C   0  0  0  0  0  0  0  0  0  0  0  0
   38.9840   31.9610   38.5310 C   0  0  0  0  0  0  0  0  0  0  0  0
   39.1220   33.1760   39.3670 C   0  0  0  0  0  0  0  0  0  0  0  0
   38.1970   34.0500   39.7400 N   0  0  0  0  0  0  0  0  0  0  0  0
   38.7610   34.9750   40.4800 O   0  0  0  0  0  0  0  0  0  0  0  0
   40.0170   34.7450   40.6080 C   0  0  0  0  0  0  0  0  0  0  0  0
   40.2470   33.6270   39.9180 N   0  0  0  0  0  0  0  0  0  0  0  0
   41.1060   35.4050   41.2910 C   0  0  0  0  0  0  0  0  0  0  0  0
   42.3150   34.5690   41.2860 C   0  0  0  0  0  0  0  0  0  0  0  0
   43.6060   35.5960   42.2160 S   0  0  0  0  0  0  0  0  0  0  0  0
   42.2790   36.9380   42.4270 C   0  0  0  0  0  0  0  0  0  0  0  0
   41.3790   36.5110   41.9200 N   0  0  0  0  0  0  0  0  0  0  0  0
   35.2791   27.4882   39.7026 H   0  0  0  0  0  0  0  0  0  0  0  0
   34.8804   28.2510   37.3820 H   0  0  0  0  0  0  0  0  0  0  0  0
   38.8455   29.6881   44.0124 H   0  0  0  0  0  0  0  0  0  0  0  0
   37.6352   27.7838   45.0840 H   0  0  0  0  0  0  0  0  0  0  0  0
   35.9072   26.5281   43.7368 H   0  0  0  0  0  0  0  0  0  0  0  0
   37.7436   31.8911   36.7740 H   0  0  0  0  0  0  0  0  0  0  0  0
   37.0245   32.7721   38.1634 H   0  0  0  0  0  0  0  0  0  0  0  0
   39.1151   31.0728   39.1665 H   0  0  0  0  0  0  0  0  0  0  0  0
   39.7508   31.9946   37.7431 H   0  0  0  0  0  0  0  0  0  0  0  0
   42.4415   33.5707   40.8417 H   0  0  0  0  0  0  0  0  0  0  0  0
   42.3741   37.9108   42.9316 H   0  0  0  0  0  0  0  0  0  0  0  0
  1 11  1  0
  2  1  2  0
  3  2  1  0
  4  3  2  0
  4  5  1  0
  5  6  2  0
  6  1  1  0
  7  8  2  0
  9  8  1  0
 10  9  2  0
 11 10  1  0
 11 12  2  0
 12  7  1  0
 13  5  1  0
 13 14  1  0
 14 15  1  0
 15 16  2  0
 15 19  1  0
 16 17  1  0
 17 18  1  0
 18 20  1  0
 19 18  2  0
 20 24  1  0
 21 20  2  0
 21 22  1  0
 22 23  1  0
 24 23  2  0
  2 25  1  0
  3 26  1  0
  7 27  1  0
  8 28  1  0
  9 29  1  0
 13 30  1  0
 13 31  1  0
 14 32  1  0
 14 33  1  0
 21 34  1  0
 23 35  1  0
M  ISO  8  25  14  26  14  27  14  28  14  29  14  30   8  31   8  32   8
M  ISO  3  33   8  34  14  35  14
M  END
>  <minimizedAffinity>  (1) 
-5.54509068

>  <minimizedRMSD>  (1) 
0.962751567

$$$$
