
     RDKit          3D

 41 43  0  0  0  0  0  0  0  0999 V2000
   36.5850   29.1880   40.1770 C   0  0  0  0  0  0  0  0  0  0  0  0
   35.4880   28.6900   39.4940 C   0  0  0  0  0  0  0  0  0  0  0  0
   35.3300   29.1590   38.2190 C   0  0  0  0  0  0  0  0  0  0  0  0
   36.1350   30.0260   37.6290 N   0  0  0  0  0  0  0  0  0  0  0  0
   37.1930   30.4870   38.3290 C   0  0  0  0  0  0  0  0  0  0  0  0
   37.4010   30.0690   39.5760 N   0  0  0  0  0  0  0  0  0  0  0  0
   37.9960   29.0380   43.5740 C   0  0  0  0  0  0  0  0  0  0  0  0
   37.3430   27.9360   44.1170 C   0  0  0  0  0  0  0  0  0  0  0  0
   36.4150   27.2410   43.3190 C   0  0  0  0  0  0  0  0  0  0  0  0
   36.2020   27.6830   42.0490 N   0  0  0  0  0  0  0  0  0  0  0  0
   36.8560   28.7520   41.5640 C   0  0  0  0  0  0  0  0  0  0  0  0
   37.7590   29.4490   42.3030 N   0  0  0  0  0  0  0  0  0  0  0  0
   38.1900   31.4620   37.8140 C   0  0  0  0  0  0  0  0  0  0  0  0
   39.2890   31.6470   38.8570 C   0  0  0  0  0  0  0  0  0  0  0  0
   39.1870   32.9980   39.4770 C   0  0  0  0  0  0  0  0  0  0  0  0
   38.2580   33.5140   40.2520 N   0  0  0  0  0  0  0  0  0  0  0  0
   38.5740   34.7360   40.5670 O   0  0  0  0  0  0  0  0  0  0  0  0
   39.7050   35.0680   40.0200 C   0  0  0  0  0  0  0  0  0  0  0  0
   40.0980   33.9770   39.3300 N   0  0  0  0  0  0  0  0  0  0  0  0
   40.3710   36.3820   40.1600 C   0  0  0  0  0  0  0  0  0  0  0  0
   39.3480   37.4890   40.0390 C   0  0  0  0  0  0  0  0  0  0  0  0
   41.3800   36.6120   39.0320 C   0  0  0  0  0  0  0  0  0  0  0  0
   41.1470   36.5090   41.4520 C   0  0  0  0  0  0  0  0  0  0  0  0
   34.7922   27.9675   39.9455 H   0  0  0  0  0  0  0  0  0  0  0  0
   34.4701   28.7876   37.6422 H   0  0  0  0  0  0  0  0  0  0  0  0
   38.7218   29.5892   44.1899 H   0  0  0  0  0  0  0  0  0  0  0  0
   37.5478   27.6145   45.1488 H   0  0  0  0  0  0  0  0  0  0  0  0
   35.8768   26.3652   43.7105 H   0  0  0  0  0  0  0  0  0  0  0  0
   38.6286   31.0821   36.8795 H   0  0  0  0  0  0  0  0  0  0  0  0
   37.6990   32.4263   37.6165 H   0  0  0  0  0  0  0  0  0  0  0  0
   39.1819   30.8797   39.6379 H   0  0  0  0  0  0  0  0  0  0  0  0
   40.2691   31.5497   38.3672 H   0  0  0  0  0  0  0  0  0  0  0  0
   39.0436   37.8184   41.0434 H   0  0  0  0  0  0  0  0  0  0  0  0
   39.7877   38.3365   39.4928 H   0  0  0  0  0  0  0  0  0  0  0  0
   38.4685   37.1174   39.4928 H   0  0  0  0  0  0  0  0  0  0  0  0
   42.3668   36.8369   39.4629 H   0  0  0  0  0  0  0  0  0  0  0  0
   41.4487   35.7065   38.4113 H   0  0  0  0  0  0  0  0  0  0  0  0
   41.0495   37.4579   38.4113 H   0  0  0  0  0  0  0  0  0  0  0  0
   40.4608   36.3967   42.3044 H   0  0  0  0  0  0  0  0  0  0  0  0
   41.9173   35.7250   41.4956 H   0  0  0  0  0  0  0  0  0  0  0  0
   41.6272   37.4977   41.4956 H   0  0  0  0  0  0  0  0  0  0  0  0
  1 11  1  0
  2  1  2  0
  3  2  1  0
  4  3  2  0
  4  5  1  0
  5  6  2  0
  6  1  1  0
  7  8  2  0
  9  8  1  0
 10  9  2  0
 11 10  1  0
 11 12  2  0
 12  7  1  0
 13  5  1  0
 13 14  1  0
 14 15  1  0
 15 16  2  0
 16 17  1  0
 18 20  1  0
 18 17  1  0
 19 15  1  0
 19 18  2  0
 20 23  1  0
 21 20  1  0
 22 20  1  0
  2 24  1  0
  3 25  1  0
  7 26  1  0
  8 27  1  0
  9 28  1  0
 13 29  1  0
 13 30  1  0
 14 31  1  0
 14 32  1  0
 21 33  1  0
 21 34  1  0
 21 35  1  0
 22 36  1  0
 22 37  1  0
 22 38  1  0
 23 39  1  0
 23 40  1  0
 23 41  1  0
M  ISO  8  24  14  25  14  26  14  27  14  28  14  29   8  30   8  31   8
M  ISO  8  32   8  33   8  34   8  35   8  36   8  37   8  38   8  39   8
M  ISO  2  40   8  41   8
M  END
>  <minimizedAffinity>  (1) 
-5.42712164

>  <minimizedRMSD>  (1) 
0.442581534

$$$$
