
     RDKit          3D

 30 32  0  0  0  0  0  0  0  0999 V2000
   36.6670   29.2330   40.0740 C   0  0  0  0  0  0  0  0  0  0  0  0
   35.7100   28.5710   39.3210 C   0  0  0  0  0  0  0  0  0  0  0  0
   35.5350   29.0250   38.0290 C   0  0  0  0  0  0  0  0  0  0  0  0
   36.2280   30.0290   37.5140 N   0  0  0  0  0  0  0  0  0  0  0  0
   37.1470   30.6500   38.2650 C   0  0  0  0  0  0  0  0  0  0  0  0
   37.3560   30.2520   39.5210 N   0  0  0  0  0  0  0  0  0  0  0  0
   38.0840   29.1160   43.4630 C   0  0  0  0  0  0  0  0  0  0  0  0
   37.3900   28.0500   44.0260 C   0  0  0  0  0  0  0  0  0  0  0  0
   36.4340   27.3690   43.2520 C   0  0  0  0  0  0  0  0  0  0  0  0
   36.2350   27.7860   41.9800 N   0  0  0  0  0  0  0  0  0  0  0  0
   36.9320   28.8270   41.4690 C   0  0  0  0  0  0  0  0  0  0  0  0
   37.8540   29.5010   42.1840 N   0  0  0  0  0  0  0  0  0  0  0  0
   37.9910   31.7840   37.8220 C   0  0  0  0  0  0  0  0  0  0  0  0
   39.1680   31.9300   38.7810 C   0  0  0  0  0  0  0  0  0  0  0  0
   39.0960   33.2450   39.4740 C   0  0  0  0  0  0  0  0  0  0  0  0
   38.0660   33.9180   39.9380 N   0  0  0  0  0  0  0  0  0  0  0  0
   38.4560   35.0330   40.4760 O   0  0  0  0  0  0  0  0  0  0  0  0
   39.7570   35.1380   40.3880 C   0  0  0  0  0  0  0  0  0  0  0  0
   40.1460   34.0240   39.7650 N   0  0  0  0  0  0  0  0  0  0  0  0
   40.9890   36.3380   40.8760 S   0  0  0  0  0  0  0  0  0  0  0  0
   35.1247   27.7336   39.7286 H   0  0  0  0  0  0  0  0  0  0  0  0
   34.7838   28.5288   37.3970 H   0  0  0  0  0  0  0  0  0  0  0  0
   38.8307   29.6546   44.0649 H   0  0  0  0  0  0  0  0  0  0  0  0
   37.5867   27.7436   45.0640 H   0  0  0  0  0  0  0  0  0  0  0  0
   35.8656   26.5238   43.6673 H   0  0  0  0  0  0  0  0  0  0  0  0
   38.3649   31.5907   36.8057 H   0  0  0  0  0  0  0  0  0  0  0  0
   37.3975   32.7101   37.8177 H   0  0  0  0  0  0  0  0  0  0  0  0
   39.1333   31.1222   39.5268 H   0  0  0  0  0  0  0  0  0  0  0  0
   40.1080   31.8709   38.2127 H   0  0  0  0  0  0  0  0  0  0  0  0
   41.0511   36.3985   42.2433 H   0  0  0  0  0  0  0  0  0  0  0  0
  1 11  1  0
  2  1  2  0
  3  2  1  0
  4  3  2  0
  4  5  1  0
  5  6  2  0
  6  1  1  0
  7  8  2  0
  9  8  1  0
 10  9  2  0
 11 10  1  0
 11 12  2  0
 12  7  1  0
 13  5  1  0
 13 14  1  0
 14 15  1  0
 15 19  1  0
 15 16  2  0
 16 17  1  0
 18 17  1  0
 18 20  1  0
 19 18  2  0
  2 21  1  0
  3 22  1  0
  7 23  1  0
  8 24  1  0
  9 25  1  0
 13 26  1  0
 13 27  1  0
 14 28  1  0
 14 29  1  0
 20 30  1  0
M  ISO  8  21  14  22  14  23  14  24  14  25  14  26   8  27   8  28   8
M  ISO  2  29   8  30  11
M  END
>  <minimizedAffinity>  (1) 
-5.12871695

>  <minimizedRMSD>  (1) 
0.218945712

$$$$
