
     RDKit          3D

 36 39  0  0  0  0  0  0  0  0999 V2000
   37.6390   31.8670   37.8260 C   0  0  0  0  0  0  0  0  0  0  0  0
   36.6100   29.1650   40.0470 C   0  0  0  0  0  0  0  0  0  0  0  0
   35.7600   28.3920   39.2860 C   0  0  0  0  0  0  0  0  0  0  0  0
   35.5450   28.8110   38.0000 C   0  0  0  0  0  0  0  0  0  0  0  0
   36.1080   29.8980   37.4800 N   0  0  0  0  0  0  0  0  0  0  0  0
   36.9330   30.6300   38.2510 C   0  0  0  0  0  0  0  0  0  0  0  0
   37.1720   30.2590   39.5150 N   0  0  0  0  0  0  0  0  0  0  0  0
   38.0970   29.1360   43.4180 C   0  0  0  0  0  0  0  0  0  0  0  0
   37.4140   28.0800   44.0220 C   0  0  0  0  0  0  0  0  0  0  0  0
   36.4590   27.3890   43.2840 C   0  0  0  0  0  0  0  0  0  0  0  0
   36.2170   27.7590   42.0020 N   0  0  0  0  0  0  0  0  0  0  0  0
   36.9050   28.7920   41.4560 C   0  0  0  0  0  0  0  0  0  0  0  0
   37.8440   29.4930   42.1370 N   0  0  0  0  0  0  0  0  0  0  0  0
   39.0820   31.8100   38.2800 C   0  0  0  0  0  0  0  0  0  0  0  0
   39.3950   32.9190   39.2030 C   0  0  0  0  0  0  0  0  0  0  0  0
   38.5920   33.7810   39.8010 N   0  0  0  0  0  0  0  0  0  0  0  0
   39.2980   34.6000   40.5370 O   0  0  0  0  0  0  0  0  0  0  0  0
   40.5620   34.3080   40.4470 C   0  0  0  0  0  0  0  0  0  0  0  0
   40.6300   33.2630   39.6190 N   0  0  0  0  0  0  0  0  0  0  0  0
   41.4580   35.1200   41.1990 N   0  0  0  0  0  0  0  0  0  0  0  0
   42.7060   34.8930   41.6220 N   0  0  0  0  0  0  0  0  0  0  0  0
   43.1560   35.9710   42.3070 C   0  0  0  0  0  0  0  0  0  0  0  0
   42.1300   36.9240   42.3120 C   0  0  0  0  0  0  0  0  0  0  0  0
   41.0910   36.3480   41.6100 C   0  0  0  0  0  0  0  0  0  0  0  0
   37.6032   31.9506   36.7298 H   0  0  0  0  0  0  0  0  0  0  0  0
   37.1481   32.7413   38.2783 H   0  0  0  0  0  0  0  0  0  0  0  0
   35.2805   27.4879   39.6894 H   0  0  0  0  0  0  0  0  0  0  0  0
   34.8716   28.2176   37.3640 H   0  0  0  0  0  0  0  0  0  0  0  0
   38.8547   29.6884   43.9931 H   0  0  0  0  0  0  0  0  0  0  0  0
   37.6272   27.7988   45.0639 H   0  0  0  0  0  0  0  0  0  0  0  0
   35.9062   26.5518   43.7351 H   0  0  0  0  0  0  0  0  0  0  0  0
   39.2588   30.8540   38.7946 H   0  0  0  0  0  0  0  0  0  0  0  0
   39.7295   31.8996   37.3953 H   0  0  0  0  0  0  0  0  0  0  0  0
   44.1462   36.0784   42.7740 H   0  0  0  0  0  0  0  0  0  0  0  0
   42.1484   37.9207   42.7770 H   0  0  0  0  0  0  0  0  0  0  0  0
   40.1158   36.8186   41.4166 H   0  0  0  0  0  0  0  0  0  0  0  0
  1  6  1  0
  1 14  1  0
  2 12  1  0
  3  2  2  0
  4  3  1  0
  5  4  2  0
  5  6  1  0
  6  7  2  0
  7  2  1  0
  8  9  2  0
 10  9  1  0
 11 10  2  0
 12 11  1  0
 12 13  2  0
 13  8  1  0
 14 15  1  0
 15 19  1  0
 15 16  2  0
 16 17  1  0
 18 17  1  0
 18 20  1  0
 19 18  2  0
 20 24  1  0
 20 21  1  0
 21 22  2  0
 22 23  1  0
 24 23  2  0
  1 25  1  0
  1 26  1  0
  3 27  1  0
  4 28  1  0
  8 29  1  0
  9 30  1  0
 10 31  1  0
 14 32  1  0
 14 33  1  0
 22 34  1  0
 23 35  1  0
 24 36  1  0
M  ISO  8  25   8  26   8  27  14  28  14  29  14  30  14  31  14  32   8
M  ISO  4  33   8  34  14  35  14  36  14
M  END
>  <minimizedAffinity>  (1) 
-5.98854351

>  <minimizedRMSD>  (1) 
1.0842073

$$$$
