
     RDKit          3D

 46 50  0  0  0  0  0  0  0  0999 V2000
   38.6390   31.6260   37.4510 C   0  0  0  0  0  0  0  0  0  0  0  0
   39.7260   32.1490   38.2980 C   0  0  0  0  0  0  0  0  0  0  0  0
   39.6780   32.7960   39.4470 N   0  0  0  0  0  0  0  0  0  0  0  0
   40.8850   33.0640   39.8360 O   0  0  0  0  0  0  0  0  0  0  0  0
   41.7640   32.6330   39.0090 C   0  0  0  0  0  0  0  0  0  0  0  0
   41.0350   32.0600   38.0460 N   0  0  0  0  0  0  0  0  0  0  0  0
   43.1250   32.8740   39.3390 N   0  0  0  0  0  0  0  0  0  0  0  0
   44.2340   32.2410   38.9010 N   0  0  0  0  0  0  0  0  0  0  0  0
   45.3230   32.7830   39.4500 C   0  0  0  0  0  0  0  0  0  0  0  0
   44.8740   33.8080   40.2720 C   0  0  0  0  0  0  0  0  0  0  0  0
   43.4770   33.8500   40.1900 C   0  0  0  0  0  0  0  0  0  0  0  0
   42.8670   34.8970   40.9900 C   0  0  0  0  0  0  0  0  0  0  0  0
   41.7180   35.6220   40.7840 C   0  0  0  0  0  0  0  0  0  0  0  0
   41.2670   36.6240   41.6080 C   0  0  0  0  0  0  0  0  0  0  0  0
   42.0020   36.9420   42.7290 C   0  0  0  0  0  0  0  0  0  0  0  0
   43.1730   36.2870   43.0480 C   0  0  0  0  0  0  0  0  0  0  0  0
   43.5370   35.3000   42.1570 C   0  0  0  0  0  0  0  0  0  0  0  0
   37.2850   31.8790   38.0890 C   0  0  0  0  0  0  0  0  0  0  0  0
   36.5690   29.0040   40.2170 C   0  0  0  0  0  0  0  0  0  0  0  0
   35.7120   28.2230   39.4740 C   0  0  0  0  0  0  0  0  0  0  0  0
   35.3820   28.6940   38.2330 C   0  0  0  0  0  0  0  0  0  0  0  0
   35.8450   29.8410   37.7410 N   0  0  0  0  0  0  0  0  0  0  0  0
   36.6820   30.5800   38.4940 C   0  0  0  0  0  0  0  0  0  0  0  0
   37.0310   30.1570   39.7110 N   0  0  0  0  0  0  0  0  0  0  0  0
   38.5420   28.5900   43.3060 C   0  0  0  0  0  0  0  0  0  0  0  0
   37.7170   27.7690   44.0630 C   0  0  0  0  0  0  0  0  0  0  0  0
   36.5040   27.3570   43.5360 C   0  0  0  0  0  0  0  0  0  0  0  0
   36.1510   27.7700   42.2840 N   0  0  0  0  0  0  0  0  0  0  0  0
   36.9880   28.5720   41.5820 C   0  0  0  0  0  0  0  0  0  0  0  0
   38.1780   28.9960   42.0560 N   0  0  0  0  0  0  0  0  0  0  0  0
   38.7768   30.5430   37.3163 H   0  0  0  0  0  0  0  0  0  0  0  0
   38.6715   32.1415   36.4798 H   0  0  0  0  0  0  0  0  0  0  0  0
   46.3670   32.4787   39.2845 H   0  0  0  0  0  0  0  0  0  0  0  0
   45.5056   34.4712   40.8813 H   0  0  0  0  0  0  0  0  0  0  0  0
   41.1160   35.3826   39.8950 H   0  0  0  0  0  0  0  0  0  0  0  0
   40.3361   37.1627   41.3771 H   0  0  0  0  0  0  0  0  0  0  0  0
   41.6434   37.7441   43.3909 H   0  0  0  0  0  0  0  0  0  0  0  0
   43.7678   36.5320   43.9403 H   0  0  0  0  0  0  0  0  0  0  0  0
   44.4676   34.7612   42.3887 H   0  0  0  0  0  0  0  0  0  0  0  0
   37.4101   32.5183   38.9753 H   0  0  0  0  0  0  0  0  0  0  0  0
   36.6254   32.3823   37.3667 H   0  0  0  0  0  0  0  0  0  0  0  0
   35.3144   27.2719   39.8578 H   0  0  0  0  0  0  0  0  0  0  0  0
   34.7004   28.0954   37.6108 H   0  0  0  0  0  0  0  0  0  0  0  0
   39.5059   28.9187   43.7217 H   0  0  0  0  0  0  0  0  0  0  0  0
   38.0232   27.4493   45.0700 H   0  0  0  0  0  0  0  0  0  0  0  0
   35.8349   26.7063   44.1182 H   0  0  0  0  0  0  0  0  0  0  0  0
  1 18  1  0
  1  2  1  0
  2  3  2  0
  3  4  1  0
  5  7  1  0
  5  4  1  0
  6  2  1  0
  6  5  2  0
  7 11  1  0
  8  7  1  0
  8  9  2  0
  9 10  1  0
 11 10  2  0
 11 12  1  0
 12 17  1  0
 13 12  2  0
 13 14  1  0
 14 15  2  0
 15 16  1  0
 17 16  2  0
 18 23  1  0
 19 29  1  0
 20 19  2  0
 21 20  1  0
 22 21  2  0
 22 23  1  0
 23 24  2  0
 24 19  1  0
 25 26  2  0
 27 26  1  0
 28 27  2  0
 29 30  2  0
 29 28  1  0
 30 25  1  0
  1 31  1  0
  1 32  1  0
  9 33  1  0
 10 34  1  0
 13 35  1  0
 14 36  1  0
 15 37  1  0
 16 38  1  0
 17 39  1  0
 18 40  1  0
 18 41  1  0
 20 42  1  0
 21 43  1  0
 25 44  1  0
 26 45  1  0
 27 46  1  0
M  ISO  8  31   8  32   8  33  14  34  14  35  14  36  14  37  14  38  14
M  ISO  8  39  14  40   8  41   8  42  14  43  14  44  14  45  14  46  14
M  END
>  <minimizedAffinity>  (1) 
-6.60080862

>  <minimizedRMSD>  (1) 
2.72717476

$$$$
