
     RDKit          3D

 49 53  0  0  0  0  0  0  0  0999 V2000
   36.3630   31.1180   40.8720 C   0  0  0  0  0  0  0  0  0  0  0  0
   37.4150   27.6330   41.1580 C   0  0  0  0  0  0  0  0  0  0  0  0
   36.7570   26.9780   40.1520 C   0  0  0  0  0  0  0  0  0  0  0  0
   35.9400   27.7450   39.3640 C   0  0  0  0  0  0  0  0  0  0  0  0
   35.7730   29.0620   39.5400 N   0  0  0  0  0  0  0  0  0  0  0  0
   36.4420   29.6610   40.5440 C   0  0  0  0  0  0  0  0  0  0  0  0
   37.2480   28.9470   41.3340 N   0  0  0  0  0  0  0  0  0  0  0  0
   39.7950   26.8500   43.8640 C   0  0  0  0  0  0  0  0  0  0  0  0
   39.9720   25.4760   43.7050 C   0  0  0  0  0  0  0  0  0  0  0  0
   39.2850   24.8270   42.6840 C   0  0  0  0  0  0  0  0  0  0  0  0
   38.4620   25.5480   41.8690 N   0  0  0  0  0  0  0  0  0  0  0  0
   38.3260   26.8840   42.0700 C   0  0  0  0  0  0  0  0  0  0  0  0
   38.9740   27.5540   43.0490 N   0  0  0  0  0  0  0  0  0  0  0  0
   36.9380   31.9120   39.7240 C   0  0  0  0  0  0  0  0  0  0  0  0
   38.3180   32.3470   40.0130 C   0  0  0  0  0  0  0  0  0  0  0  0
   38.8700   32.7340   41.1620 N   0  0  0  0  0  0  0  0  0  0  0  0
   40.1150   33.0300   40.9480 O   0  0  0  0  0  0  0  0  0  0  0  0
   40.4430   32.8650   39.7150 C   0  0  0  0  0  0  0  0  0  0  0  0
   39.3200   32.4400   39.1320 N   0  0  0  0  0  0  0  0  0  0  0  0
   41.7870   33.1600   39.3660 N   0  0  0  0  0  0  0  0  0  0  0  0
   42.5300   32.7340   38.3260 N   0  0  0  0  0  0  0  0  0  0  0  0
   43.7580   33.2640   38.4040 C   0  0  0  0  0  0  0  0  0  0  0  0
   43.7940   34.0600   39.5420 C   0  0  0  0  0  0  0  0  0  0  0  0
   42.5340   33.9730   40.1230 C   0  0  0  0  0  0  0  0  0  0  0  0
   42.3630   34.7680   41.3640 C   0  0  0  0  0  0  0  0  0  0  0  0
   43.6890   35.2160   41.9340 C   0  0  0  0  0  0  0  0  0  0  0  0
   43.2240   36.2240   42.9740 C   0  0  0  0  0  0  0  0  0  0  0  0
   41.9380   36.8060   42.4390 C   0  0  0  0  0  0  0  0  0  0  0  0
   41.7090   36.1040   41.1040 C   0  0  0  0  0  0  0  0  0  0  0  0
   35.3126   31.4043   41.0289 H   0  0  0  0  0  0  0  0  0  0  0  0
   36.9341   31.3240   41.7893 H   0  0  0  0  0  0  0  0  0  0  0  0
   36.8774   25.8973   39.9858 H   0  0  0  0  0  0  0  0  0  0  0  0
   35.3935   27.2542   38.5452 H   0  0  0  0  0  0  0  0  0  0  0  0
   40.3335   27.3729   44.6681 H   0  0  0  0  0  0  0  0  0  0  0  0
   40.6420   24.9160   44.3740 H   0  0  0  0  0  0  0  0  0  0  0  0
   39.4042   23.7436   42.5354 H   0  0  0  0  0  0  0  0  0  0  0  0
   36.3109   32.7992   39.5520 H   0  0  0  0  0  0  0  0  0  0  0  0
   36.9555   31.2697   38.8311 H   0  0  0  0  0  0  0  0  0  0  0  0
   44.5849   33.0993   37.6975 H   0  0  0  0  0  0  0  0  0  0  0  0
   44.6503   34.6438   39.9106 H   0  0  0  0  0  0  0  0  0  0  0  0
   41.7835   34.0997   42.0179 H   0  0  0  0  0  0  0  0  0  0  0  0
   44.2347   34.3800   42.3957 H   0  0  0  0  0  0  0  0  0  0  0  0
   44.3923   35.6192   41.1905 H   0  0  0  0  0  0  0  0  0  0  0  0
   43.0464   35.7250   43.9381 H   0  0  0  0  0  0  0  0  0  0  0  0
   43.9798   37.0044   43.1467 H   0  0  0  0  0  0  0  0  0  0  0  0
   41.1059   36.6036   43.1294 H   0  0  0  0  0  0  0  0  0  0  0  0
   41.9960   37.8986   42.3255 H   0  0  0  0  0  0  0  0  0  0  0  0
   42.1987   36.6392   40.2771 H   0  0  0  0  0  0  0  0  0  0  0  0
   40.6536   36.0404   40.8007 H   0  0  0  0  0  0  0  0  0  0  0  0
  2  7  1  0
  2 12  1  0
  3  2  2  0
  4  5  2  0
  4  3  1  0
  5  6  1  0
  6  1  1  0
  6  7  2  0
  9  8  2  0
 10  9  1  0
 11 12  1  0
 11 10  2  0
 12 13  2  0
 13  8  1  0
 14 15  1  0
 14  1  1  0
 15 16  2  0
 17 16  1  0
 18 17  1  0
 19 18  2  0
 19 15  1  0
 20 18  1  0
 20 24  1  0
 21 22  2  0
 21 20  1  0
 22 23  1  0
 23 24  2  0
 24 25  1  0
 25 26  1  0
 26 27  1  0
 28 27  1  0
 29 25  1  0
 29 28  1  0
  1 30  1  0
  1 31  1  0
  3 32  1  0
  4 33  1  0
  8 34  1  0
  9 35  1  0
 10 36  1  0
 14 37  1  0
 14 38  1  0
 22 39  1  0
 23 40  1  0
 25 41  1  0
 26 42  1  0
 26 43  1  0
 27 44  1  0
 27 45  1  0
 28 46  1  0
 28 47  1  0
 29 48  1  0
 29 49  1  0
M  ISO  8  30   8  31   8  32  14  33  14  34  14  35  14  36  14  37   8
M  ISO  8  38   8  39  14  40  14  41  13  42  13  43  13  44  13  45  13
M  ISO  4  46  13  47  13  48  13  49  13
M  END
>  <minimizedAffinity>  (1) 
-6.53145599

>  <minimizedRMSD>  (1) 
3.16787505

$$$$
