
     RDKit          3D

 45 49  0  0  0  0  0  0  0  0999 V2000
   38.8310   31.7210   37.5670 C   0  0  0  0  0  0  0  0  0  0  0  0
   39.9160   32.2300   38.4260 C   0  0  0  0  0  0  0  0  0  0  0  0
   39.8510   33.0080   39.5050 N   0  0  0  0  0  0  0  0  0  0  0  0
   41.0610   33.1990   39.9400 O   0  0  0  0  0  0  0  0  0  0  0  0
   41.9380   32.5970   39.2180 C   0  0  0  0  0  0  0  0  0  0  0  0
   41.2210   31.9900   38.2710 N   0  0  0  0  0  0  0  0  0  0  0  0
   43.2810   32.7500   39.6130 N   0  0  0  0  0  0  0  0  0  0  0  0
   44.3460   31.9780   39.2940 N   0  0  0  0  0  0  0  0  0  0  0  0
   45.4650   32.4810   39.8750 C   0  0  0  0  0  0  0  0  0  0  0  0
   45.0830   33.6140   40.5880 C   0  0  0  0  0  0  0  0  0  0  0  0
   43.7040   33.7300   40.3840 C   0  0  0  0  0  0  0  0  0  0  0  0
   43.0560   34.7980   41.0710 C   0  0  0  0  0  0  0  0  0  0  0  0
   41.9240   35.4720   40.6950 C   0  0  0  0  0  0  0  0  0  0  0  0
   41.2550   36.5290   41.3350 C   0  0  0  0  0  0  0  0  0  0  0  0
   41.9210   36.8940   42.5500 C   0  0  0  0  0  0  0  0  0  0  0  0
   43.0960   36.2800   43.0520 C   0  0  0  0  0  0  0  0  0  0  0  0
   43.0990   35.5090   42.0470 N   0  0  0  0  0  0  0  0  0  0  0  0
   37.4660   32.0100   38.1820 C   0  0  0  0  0  0  0  0  0  0  0  0
   36.5340   29.1820   40.2760 C   0  0  0  0  0  0  0  0  0  0  0  0
   35.6950   28.4230   39.4830 C   0  0  0  0  0  0  0  0  0  0  0  0
   35.4570   28.9030   38.2170 C   0  0  0  0  0  0  0  0  0  0  0  0
   35.9860   30.0300   37.7450 N   0  0  0  0  0  0  0  0  0  0  0  0
   36.7990   30.7430   38.5460 C   0  0  0  0  0  0  0  0  0  0  0  0
   37.0550   30.3110   39.7840 N   0  0  0  0  0  0  0  0  0  0  0  0
   38.0730   29.0010   43.6040 C   0  0  0  0  0  0  0  0  0  0  0  0
   37.3890   27.9310   44.1800 C   0  0  0  0  0  0  0  0  0  0  0  0
   36.4200   27.2850   43.4440 C   0  0  0  0  0  0  0  0  0  0  0  0
   36.1540   27.7040   42.1740 N   0  0  0  0  0  0  0  0  0  0  0  0
   36.8450   28.7480   41.6550 C   0  0  0  0  0  0  0  0  0  0  0  0
   37.8030   29.4070   42.3440 N   0  0  0  0  0  0  0  0  0  0  0  0
   38.9481   30.6340   37.4458 H   0  0  0  0  0  0  0  0  0  0  0  0
   38.8900   32.2261   36.5916 H   0  0  0  0  0  0  0  0  0  0  0  0
   46.4825   32.0704   39.7971 H   0  0  0  0  0  0  0  0  0  0  0  0
   45.7277   34.2764   41.1843 H   0  0  0  0  0  0  0  0  0  0  0  0
   41.4711   35.1353   39.7508 H   0  0  0  0  0  0  0  0  0  0  0  0
   40.3426   37.0114   40.9544 H   0  0  0  0  0  0  0  0  0  0  0  0
   41.4865   37.7149   43.1394 H   0  0  0  0  0  0  0  0  0  0  0  0
   43.7340   36.4155   43.9378 H   0  0  0  0  0  0  0  0  0  0  0  0
   37.5956   32.6260   39.0841 H   0  0  0  0  0  0  0  0  0  0  0  0
   36.8459   32.5479   37.4498 H   0  0  0  0  0  0  0  0  0  0  0  0
   35.2430   27.4875   39.8442 H   0  0  0  0  0  0  0  0  0  0  0  0
   34.7932   28.3243   37.5579 H   0  0  0  0  0  0  0  0  0  0  0  0
   38.8463   29.5239   44.1859 H   0  0  0  0  0  0  0  0  0  0  0  0
   37.6195   27.6078   45.2059 H   0  0  0  0  0  0  0  0  0  0  0  0
   35.8660   26.4390   43.8769 H   0  0  0  0  0  0  0  0  0  0  0  0
  1 18  1  0
  1  2  1  0
  2  3  2  0
  3  4  1  0
  5  7  1  0
  5  4  1  0
  6  2  1  0
  6  5  2  0
  7 11  1  0
  8  7  1  0
  8  9  2  0
  9 10  1  0
 11 10  2  0
 11 12  1  0
 12 17  1  0
 13 12  2  0
 13 14  1  0
 14 15  2  0
 15 16  1  0
 17 16  2  0
 18 23  1  0
 19 29  1  0
 20 19  2  0
 21 20  1  0
 22 21  2  0
 22 23  1  0
 23 24  2  0
 24 19  1  0
 25 26  2  0
 27 26  1  0
 28 27  2  0
 29 28  1  0
 29 30  2  0
 30 25  1  0
  1 31  1  0
  1 32  1  0
  9 33  1  0
 10 34  1  0
 13 35  1  0
 14 36  1  0
 15 37  1  0
 16 38  1  0
 18 39  1  0
 18 40  1  0
 20 41  1  0
 21 42  1  0
 25 43  1  0
 26 44  1  0
 27 45  1  0
M  ISO  8  31   8  32   8  33  14  34  14  35  14  36  14  37  14  38  14
M  ISO  7  39   8  40   8  41  14  42  14  43  14  44  14  45  14
M  END
>  <minimizedAffinity>  (1) 
-6.45924091

>  <minimizedRMSD>  (1) 
2.72980118

$$$$
