
     RDKit          3D

 37 40  0  0  0  0  0  0  0  0999 V2000
   37.8010   31.9700   37.9110 C   0  0  0  0  0  0  0  0  0  0  0  0
   36.6870   29.2380   40.0630 C   0  0  0  0  0  0  0  0  0  0  0  0
   35.8470   28.4830   39.2650 C   0  0  0  0  0  0  0  0  0  0  0  0
   35.6710   28.9240   37.9880 C   0  0  0  0  0  0  0  0  0  0  0  0
   36.2550   30.0160   37.4920 N   0  0  0  0  0  0  0  0  0  0  0  0
   37.0700   30.7260   38.3060 C   0  0  0  0  0  0  0  0  0  0  0  0
   37.2720   30.3320   39.5670 N   0  0  0  0  0  0  0  0  0  0  0  0
   38.0790   29.1330   43.4670 C   0  0  0  0  0  0  0  0  0  0  0  0
   37.3820   28.0580   44.0270 C   0  0  0  0  0  0  0  0  0  0  0  0
   36.4530   27.3870   43.2540 C   0  0  0  0  0  0  0  0  0  0  0  0
   36.2410   27.7850   41.9720 N   0  0  0  0  0  0  0  0  0  0  0  0
   36.9400   28.8320   41.4680 C   0  0  0  0  0  0  0  0  0  0  0  0
   37.8570   29.5180   42.1870 N   0  0  0  0  0  0  0  0  0  0  0  0
   39.2430   31.8400   38.3160 C   0  0  0  0  0  0  0  0  0  0  0  0
   39.6390   32.9190   39.2400 C   0  0  0  0  0  0  0  0  0  0  0  0
   38.9040   33.8690   39.8150 N   0  0  0  0  0  0  0  0  0  0  0  0
   39.6810   34.6020   40.5570 O   0  0  0  0  0  0  0  0  0  0  0  0
   40.9050   34.1980   40.5140 C   0  0  0  0  0  0  0  0  0  0  0  0
   40.8880   33.1410   39.6900 N   0  0  0  0  0  0  0  0  0  0  0  0
   41.8510   34.9290   41.2930 N   0  0  0  0  0  0  0  0  0  0  0  0
   43.0620   34.5640   41.7570 N   0  0  0  0  0  0  0  0  0  0  0  0
   43.6110   35.5730   42.4530 C   0  0  0  0  0  0  0  0  0  0  0  0
   42.6960   36.6160   42.4210 C   0  0  0  0  0  0  0  0  0  0  0  0
   41.6070   36.1830   41.6890 C   0  0  0  0  0  0  0  0  0  0  0  0
   40.5530   37.0750   41.5220 O   0  0  0  0  0  0  0  0  0  0  0  0
   37.7348   32.1064   36.8215 H   0  0  0  0  0  0  0  0  0  0  0  0
   37.3514   32.8401   38.4118 H   0  0  0  0  0  0  0  0  0  0  0  0
   35.3488   27.5770   39.6403 H   0  0  0  0  0  0  0  0  0  0  0  0
   35.0085   28.3457   37.3272 H   0  0  0  0  0  0  0  0  0  0  0  0
   38.8188   29.6744   44.0749 H   0  0  0  0  0  0  0  0  0  0  0  0
   37.5700   27.7510   45.0664 H   0  0  0  0  0  0  0  0  0  0  0  0
   35.8908   26.5392   43.6725 H   0  0  0  0  0  0  0  0  0  0  0  0
   39.3894   30.8701   38.8139 H   0  0  0  0  0  0  0  0  0  0  0  0
   39.8655   31.9110   37.4119 H   0  0  0  0  0  0  0  0  0  0  0  0
   44.5922   35.5727   42.9502 H   0  0  0  0  0  0  0  0  0  0  0  0
   42.8155   37.6034   42.8908 H   0  0  0  0  0  0  0  0  0  0  0  0
   40.6017   37.9793   41.9220 H   0  0  0  0  0  0  0  0  0  0  0  0
  1  6  1  0
  1 14  1  0
  2 12  1  0
  3  2  2  0
  4  3  1  0
  5  4  2  0
  5  6  1  0
  6  7  2  0
  7  2  1  0
  8  9  2  0
 10  9  1  0
 11 10  2  0
 12 11  1  0
 12 13  2  0
 13  8  1  0
 14 15  1  0
 15 19  1  0
 15 16  2  0
 16 17  1  0
 18 17  1  0
 18 20  1  0
 19 18  2  0
 20 24  1  0
 20 21  1  0
 21 22  2  0
 23 22  1  0
 24 23  2  0
 25 24  1  0
  1 26  1  0
  1 27  1  0
  3 28  1  0
  4 29  1  0
  8 30  1  0
  9 31  1  0
 10 32  1  0
 14 33  1  0
 14 34  1  0
 22 35  1  0
 23 36  1  0
 25 37  1  0
M  ISO  8  26   8  27   8  28  14  29  14  30  14  31  14  32  14  33   8
M  ISO  4  34   8  35  14  36  14  37   3
M  END
>  <minimizedAffinity>  (1) 
-6.31325865

>  <minimizedRMSD>  (1) 
0.328794837

$$$$
