
     RDKit          3D

 42 45  0  0  0  0  0  0  0  0999 V2000
   37.7450   31.5750   37.5860 C   0  0  0  0  0  0  0  0  0  0  0  0
   36.5640   29.1110   40.0030 C   0  0  0  0  0  0  0  0  0  0  0  0
   35.5910   28.3990   39.3330 C   0  0  0  0  0  0  0  0  0  0  0  0
   35.3500   28.7820   38.0340 C   0  0  0  0  0  0  0  0  0  0  0  0
   35.9920   29.7720   37.4250 N   0  0  0  0  0  0  0  0  0  0  0  0
   36.9340   30.4420   38.1170 C   0  0  0  0  0  0  0  0  0  0  0  0
   37.2090   30.1090   39.3840 N   0  0  0  0  0  0  0  0  0  0  0  0
   38.1260   29.1910   43.3410 C   0  0  0  0  0  0  0  0  0  0  0  0
   37.4880   28.1310   43.9780 C   0  0  0  0  0  0  0  0  0  0  0  0
   36.5370   27.3960   43.2810 C   0  0  0  0  0  0  0  0  0  0  0  0
   36.2540   27.7330   41.9910 N   0  0  0  0  0  0  0  0  0  0  0  0
   36.8960   28.7740   41.4040 C   0  0  0  0  0  0  0  0  0  0  0  0
   37.8310   29.5130   42.0560 N   0  0  0  0  0  0  0  0  0  0  0  0
   39.1960   31.3760   37.9660 C   0  0  0  0  0  0  0  0  0  0  0  0
   39.6390   32.4050   38.9270 C   0  0  0  0  0  0  0  0  0  0  0  0
   38.9330   33.2670   39.6420 N   0  0  0  0  0  0  0  0  0  0  0  0
   39.7390   33.9900   40.3580 O   0  0  0  0  0  0  0  0  0  0  0  0
   40.9860   33.6450   40.1520 C   0  0  0  0  0  0  0  0  0  0  0  0
   40.9050   32.6660   39.2660 N   0  0  0  0  0  0  0  0  0  0  0  0
   41.9470   34.3820   40.8940 N   0  0  0  0  0  0  0  0  0  0  0  0
   43.2050   34.0370   41.2380 N   0  0  0  0  0  0  0  0  0  0  0  0
   43.7740   35.0060   41.9550 C   0  0  0  0  0  0  0  0  0  0  0  0
   42.8300   36.0180   42.0700 C   0  0  0  0  0  0  0  0  0  0  0  0
   41.6970   35.5970   41.3950 C   0  0  0  0  0  0  0  0  0  0  0  0
   40.4990   36.4950   41.3480 C   0  0  0  0  0  0  0  0  0  0  0  0
   40.4050   37.2420   40.0450 C   0  0  0  0  0  0  0  0  0  0  0  0
   37.3798   32.5201   38.0143 H   0  0  0  0  0  0  0  0  0  0  0  0
   37.6537   31.6104   36.4904 H   0  0  0  0  0  0  0  0  0  0  0  0
   35.0406   27.5741   39.8091 H   0  0  0  0  0  0  0  0  0  0  0  0
   34.5811   28.2367   37.4670 H   0  0  0  0  0  0  0  0  0  0  0  0
   38.8804   29.7765   43.8869 H   0  0  0  0  0  0  0  0  0  0  0  0
   37.7334   27.8782   45.0200 H   0  0  0  0  0  0  0  0  0  0  0  0
   36.0196   26.5537   43.7636 H   0  0  0  0  0  0  0  0  0  0  0  0
   39.3148   30.3825   38.4231 H   0  0  0  0  0  0  0  0  0  0  0  0
   39.8100   31.4590   37.0571 H   0  0  0  0  0  0  0  0  0  0  0  0
   44.7913   35.0044   42.3734 H   0  0  0  0  0  0  0  0  0  0  0  0
   42.9584   36.9743   42.5981 H   0  0  0  0  0  0  0  0  0  0  0  0
   39.5925   35.8846   41.4736 H   0  0  0  0  0  0  0  0  0  0  0  0
   40.5964   37.2340   42.1570 H   0  0  0  0  0  0  0  0  0  0  0  0
   40.2700   38.3149   40.2464 H   0  0  0  0  0  0  0  0  0  0  0  0
   41.3293   37.0907   39.4681 H   0  0  0  0  0  0  0  0  0  0  0  0
   39.5470   36.8664   39.4681 H   0  0  0  0  0  0  0  0  0  0  0  0
  1 14  1  0
  1  6  1  0
  2 12  1  0
  3  2  2  0
  4  3  1  0
  5  4  2  0
  5  6  1  0
  6  7  2  0
  7  2  1  0
  8  9  2  0
 10  9  1  0
 11 10  2  0
 12 11  1  0
 12 13  2  0
 13  8  1  0
 14 15  1  0
 15 19  1  0
 15 16  2  0
 16 17  1  0
 18 17  1  0
 18 20  1  0
 19 18  2  0
 20 21  1  0
 20 24  1  0
 21 22  2  0
 22 23  1  0
 24 23  2  0
 25 24  1  0
 26 25  1  0
  1 27  1  0
  1 28  1  0
  3 29  1  0
  4 30  1  0
  8 31  1  0
  9 32  1  0
 10 33  1  0
 14 34  1  0
 14 35  1  0
 22 36  1  0
 23 37  1  0
 25 38  1  0
 25 39  1  0
 26 40  1  0
 26 41  1  0
 26 42  1  0
M  ISO  8  27   8  28   8  29  14  30  14  31  14  32  14  33  14  34   8
M  ISO  8  35   8  36  14  37  14  38   8  39   8  40   8  41   8  42   8
M  END
>  <minimizedAffinity>  (1) 
-6.02894783

>  <minimizedRMSD>  (1) 
0.694599032

$$$$
