
     RDKit          3D

 42 46  0  0  0  0  0  0  0  0999 V2000
   36.5800   31.4510   39.8520 C   0  0  0  0  0  0  0  0  0  0  0  0
   37.9540   31.9840   39.9420 C   0  0  0  0  0  0  0  0  0  0  0  0
   38.5030   32.8160   40.8240 N   0  0  0  0  0  0  0  0  0  0  0  0
   39.7460   32.9980   40.4990 O   0  0  0  0  0  0  0  0  0  0  0  0
   40.0730   32.3370   39.4450 C   0  0  0  0  0  0  0  0  0  0  0  0
   38.9510   31.7040   39.0980 N   0  0  0  0  0  0  0  0  0  0  0  0
   41.4260   32.4870   39.0260 N   0  0  0  0  0  0  0  0  0  0  0  0
   42.1600   31.6540   38.2490 N   0  0  0  0  0  0  0  0  0  0  0  0
   43.3940   32.1150   38.0720 C   0  0  0  0  0  0  0  0  0  0  0  0
   43.4320   33.2990   38.7750 C   0  0  0  0  0  0  0  0  0  0  0  0
   42.1800   33.5260   39.3750 C   0  0  0  0  0  0  0  0  0  0  0  0
   41.9350   34.7450   40.1830 C   0  0  0  0  0  0  0  0  0  0  0  0
   41.0120   35.7480   39.7380 C   0  0  0  0  0  0  0  0  0  0  0  0
   41.1020   37.0160   41.1100 S   0  0  0  0  0  0  0  0  0  0  0  0
   42.3690   35.9710   42.0430 C   0  0  0  0  0  0  0  0  0  0  0  0
   42.4340   35.1140   41.3090 N   0  0  0  0  0  0  0  0  0  0  0  0
   36.2210   30.6840   41.1180 C   0  0  0  0  0  0  0  0  0  0  0  0
   38.0870   27.5890   41.6440 C   0  0  0  0  0  0  0  0  0  0  0  0
   37.4960   26.6800   40.7950 C   0  0  0  0  0  0  0  0  0  0  0  0
   36.4490   27.1390   40.0400 C   0  0  0  0  0  0  0  0  0  0  0  0
   36.0120   28.3820   40.1040 N   0  0  0  0  0  0  0  0  0  0  0  0
   36.6090   29.2500   40.9420 C   0  0  0  0  0  0  0  0  0  0  0  0
   37.6290   28.8470   41.6950 N   0  0  0  0  0  0  0  0  0  0  0  0
   41.2060   27.7180   43.6050 C   0  0  0  0  0  0  0  0  0  0  0  0
   41.2990   26.4110   44.0860 C   0  0  0  0  0  0  0  0  0  0  0  0
   40.3080   25.5010   43.7420 C   0  0  0  0  0  0  0  0  0  0  0  0
   39.2800   25.9040   42.9520 N   0  0  0  0  0  0  0  0  0  0  0  0
   39.2310   27.1860   42.5080 C   0  0  0  0  0  0  0  0  0  0  0  0
   40.1790   28.1050   42.8210 N   0  0  0  0  0  0  0  0  0  0  0  0
   35.8756   32.2860   39.7227 H   0  0  0  0  0  0  0  0  0  0  0  0
   36.5195   30.7670   38.9926 H   0  0  0  0  0  0  0  0  0  0  0  0
   44.2062   31.6528   37.4918 H   0  0  0  0  0  0  0  0  0  0  0  0
   44.3051   33.9633   38.8548 H   0  0  0  0  0  0  0  0  0  0  0  0
   40.4044   35.7669   38.8212 H   0  0  0  0  0  0  0  0  0  0  0  0
   42.8826   36.1427   43.0005 H   0  0  0  0  0  0  0  0  0  0  0  0
   36.7632   31.1108   41.9746 H   0  0  0  0  0  0  0  0  0  0  0  0
   35.1394   30.7574   41.3042 H   0  0  0  0  0  0  0  0  0  0  0  0
   37.8463   25.6395   40.7266 H   0  0  0  0  0  0  0  0  0  0  0  0
   35.9513   26.4410   39.3507 H   0  0  0  0  0  0  0  0  0  0  0  0
   41.9858   28.4469   43.8706 H   0  0  0  0  0  0  0  0  0  0  0  0
   42.1412   26.1076   44.7253 H   0  0  0  0  0  0  0  0  0  0  0  0
   40.3554   24.4640   44.1059 H   0  0  0  0  0  0  0  0  0  0  0  0
  1  2  1  0
  1 17  1  0
  2  3  2  0
  4  3  1  0
  5  4  1  0
  6  5  2  0
  6  2  1  0
  7 11  1  0
  7  5  1  0
  8  7  1  0
  9  8  2  0
  9 10  1  0
 10 11  2  0
 11 12  1  0
 12 16  1  0
 13 12  2  0
 13 14  1  0
 14 15  1  0
 16 15  2  0
 18 23  1  0
 18 28  1  0
 19 18  2  0
 20 21  2  0
 20 19  1  0
 21 22  1  0
 22 17  1  0
 22 23  2  0
 24 25  2  0
 26 25  1  0
 27 26  2  0
 28 29  2  0
 28 27  1  0
 29 24  1  0
  1 30  1  0
  1 31  1  0
  9 32  1  0
 10 33  1  0
 13 34  1  0
 15 35  1  0
 17 36  1  0
 17 37  1  0
 19 38  1  0
 20 39  1  0
 24 40  1  0
 25 41  1  0
 26 42  1  0
M  ISO  8  30   8  31   8  32  14  33  14  34  14  35  14  36   8  37   8
M  ISO  5  38  14  39  14  40  14  41  14  42  14
M  END
>  <minimizedAffinity>  (1) 
-5.92320442

>  <minimizedRMSD>  (1) 
3.48502493

$$$$
