
     RDKit          3D

 43 47  0  0  0  0  0  0  0  0999 V2000
   37.5320   31.1460   37.3100 C   0  0  0  0  0  0  0  0  0  0  0  0
   36.3140   29.0370   40.0290 C   0  0  0  0  0  0  0  0  0  0  0  0
   35.1880   28.4340   39.5340 C   0  0  0  0  0  0  0  0  0  0  0  0
   34.8490   28.7570   38.2550 C   0  0  0  0  0  0  0  0  0  0  0  0
   35.5440   29.6090   37.4880 N   0  0  0  0  0  0  0  0  0  0  0  0
   36.6430   30.1770   38.0190 C   0  0  0  0  0  0  0  0  0  0  0  0
   37.0150   29.8910   39.2670 N   0  0  0  0  0  0  0  0  0  0  0  0
   38.0930   29.2720   43.2570 C   0  0  0  0  0  0  0  0  0  0  0  0
   37.5600   28.1950   43.9560 C   0  0  0  0  0  0  0  0  0  0  0  0
   36.6050   27.4010   43.3290 C   0  0  0  0  0  0  0  0  0  0  0  0
   36.2160   27.6840   42.0630 N   0  0  0  0  0  0  0  0  0  0  0  0
   36.7670   28.7480   41.4240 C   0  0  0  0  0  0  0  0  0  0  0  0
   37.7020   29.5560   41.9890 N   0  0  0  0  0  0  0  0  0  0  0  0
   38.9670   30.8730   37.6730 C   0  0  0  0  0  0  0  0  0  0  0  0
   39.4880   31.8700   38.6260 C   0  0  0  0  0  0  0  0  0  0  0  0
   38.8430   32.7930   39.3350 N   0  0  0  0  0  0  0  0  0  0  0  0
   39.7110   33.4510   40.0480 O   0  0  0  0  0  0  0  0  0  0  0  0
   40.9120   33.0220   39.8550 C   0  0  0  0  0  0  0  0  0  0  0  0
   40.7700   32.0360   38.9680 N   0  0  0  0  0  0  0  0  0  0  0  0
   41.9350   33.6820   40.5920 N   0  0  0  0  0  0  0  0  0  0  0  0
   43.1650   33.2450   40.9300 N   0  0  0  0  0  0  0  0  0  0  0  0
   43.8190   34.1760   41.6390 C   0  0  0  0  0  0  0  0  0  0  0  0
   42.9470   35.2480   41.7480 C   0  0  0  0  0  0  0  0  0  0  0  0
   41.7670   34.9170   41.0810 C   0  0  0  0  0  0  0  0  0  0  0  0
   40.6680   35.9190   41.0480 C   0  0  0  0  0  0  0  0  0  0  0  0
   40.5180   36.7770   39.7980 C   0  0  0  0  0  0  0  0  0  0  0  0
   41.0670   37.3830   41.0350 C   0  0  0  0  0  0  0  0  0  0  0  0
   37.2676   32.1713   37.6082 H   0  0  0  0  0  0  0  0  0  0  0  0
   37.4021   31.0336   36.2235 H   0  0  0  0  0  0  0  0  0  0  0  0
   34.5926   27.7303   40.1342 H   0  0  0  0  0  0  0  0  0  0  0  0
   33.9503   28.2904   37.8253 H   0  0  0  0  0  0  0  0  0  0  0  0
   38.8481   29.9078   43.7423 H   0  0  0  0  0  0  0  0  0  0  0  0
   37.8865   27.9752   44.9832 H   0  0  0  0  0  0  0  0  0  0  0  0
   36.1662   26.5441   43.8611 H   0  0  0  0  0  0  0  0  0  0  0  0
   39.0355   29.8743   38.1290 H   0  0  0  0  0  0  0  0  0  0  0  0
   39.5696   30.9293   36.7544 H   0  0  0  0  0  0  0  0  0  0  0  0
   44.8370   34.1041   42.0494 H   0  0  0  0  0  0  0  0  0  0  0  0
   43.1500   36.1949   42.2696 H   0  0  0  0  0  0  0  0  0  0  0  0
   39.9976   35.2849   41.6468 H   0  0  0  0  0  0  0  0  0  0  0  0
   39.5157   37.0623   39.4458 H   0  0  0  0  0  0  0  0  0  0  0  0
   40.8632   36.6952   38.7568 H   0  0  0  0  0  0  0  0  0  0  0  0
   42.1303   37.6608   41.0829 H   0  0  0  0  0  0  0  0  0  0  0  0
   40.8063   38.2594   41.6465 H   0  0  0  0  0  0  0  0  0  0  0  0
  1 14  1  0
  1  6  1  0
  2 12  1  0
  3  2  2  0
  4  3  1  0
  5  6  1  0
  5  4  2  0
  6  7  2  0
  7  2  1  0
  8  9  2  0
 10  9  1  0
 11 10  2  0
 12 13  2  0
 12 11  1  0
 13  8  1  0
 14 15  1  0
 15 19  1  0
 15 16  2  0
 16 17  1  0
 18 17  1  0
 18 20  1  0
 19 18  2  0
 20 21  1  0
 20 24  1  0
 21 22  2  0
 22 23  1  0
 24 23  2  0
 25 24  1  0
 26 27  1  0
 26 25  1  0
 27 25  1  0
  1 28  1  0
  1 29  1  0
  3 30  1  0
  4 31  1  0
  8 32  1  0
  9 33  1  0
 10 34  1  0
 14 35  1  0
 14 36  1  0
 22 37  1  0
 23 38  1  0
 25 39  1  0
 26 40  1  0
 26 41  1  0
 27 42  1  0
 27 43  1  0
M  ISO  8  28   8  29   8  30  14  31  14  32  14  33  14  34  14  35   8
M  ISO  8  36   8  37  14  38  14  39  13  40  13  41  13  42  13  43  13
M  END
>  <minimizedAffinity>  (1) 
-5.83089066

>  <minimizedRMSD>  (1) 
1.27236974

$$$$
