
     RDKit          3D

 40 43  0  0  1  0  0  0  0  0999 V2000
   37.1780   30.6210   40.4820 C   0  0  1  0  0  0  0  0  0  0  0  0
   37.8870   31.8970   40.8430 C   0  0  0  0  0  0  0  0  0  0  0  0
   37.4080   32.9740   39.9460 C   0  0  0  0  0  0  0  0  0  0  0  0
   37.4020   32.6350   38.4930 C   0  0  0  0  0  0  0  0  0  0  0  0
   37.2600   31.2160   38.1140 C   0  0  0  0  0  0  0  0  0  0  0  0
   37.7200   30.2160   39.1220 C   0  0  2  0  0  0  0  0  0  0  0  0
   37.4210   28.8560   38.7100 C   0  0  0  0  0  0  0  0  0  0  0  0
   38.1830   27.7080   38.6790 C   0  0  0  0  0  0  0  0  0  0  0  0
   37.5090   26.6300   38.2350 N   0  0  0  0  0  0  0  0  0  0  0  0
   36.2600   27.0550   37.9570 C   0  0  0  0  0  0  0  0  0  0  0  0
   35.1850   26.3260   37.4720 C   0  0  0  0  0  0  0  0  0  0  0  0
   34.0120   27.0230   37.2790 C   0  0  0  0  0  0  0  0  0  0  0  0
   33.8700   28.3680   37.5400 C   0  0  0  0  0  0  0  0  0  0  0  0
   34.9760   29.0630   38.0270 C   0  0  0  0  0  0  0  0  0  0  0  0
   36.1840   28.3980   38.2370 C   0  0  0  0  0  0  0  0  0  0  0  0
   38.7790   28.5860   43.0970 C   0  0  0  0  0  0  0  0  0  0  0  0
   37.7550   27.6540   43.4230 C   0  0  0  0  0  0  0  0  0  0  0  0
   36.5200   27.7140   42.7450 C   0  0  0  0  0  0  0  0  0  0  0  0
   36.3910   28.6830   41.8040 N   0  0  0  0  0  0  0  0  0  0  0  0
   37.3780   29.5600   41.5090 C   0  0  0  0  0  0  0  0  0  0  0  0
   38.5620   29.5120   42.1490 N   0  0  0  0  0  0  0  0  0  0  0  0
   36.0886   30.7682   40.4436 H   0  0  0  0  0  0  0  0  0  0  0  0
   37.6672   32.1601   41.8882 H   0  0  0  0  0  0  0  0  0  0  0  0
   38.9735   31.7684   40.7288 H   0  0  0  0  0  0  0  0  0  0  0  0
   36.3793   33.2294   40.2401 H   0  0  0  0  0  0  0  0  0  0  0  0
   38.1178   33.8063   40.0623 H   0  0  0  0  0  0  0  0  0  0  0  0
   36.5658   33.1819   38.0328 H   0  0  0  0  0  0  0  0  0  0  0  0
   38.4060   32.9145   38.1412 H   0  0  0  0  0  0  0  0  0  0  0  0
   36.1948   31.0266   37.9151 H   0  0  0  0  0  0  0  0  0  0  0  0
   37.9150   31.0772   37.2412 H   0  0  0  0  0  0  0  0  0  0  0  0
   38.8171   30.2159   39.2023 H   0  0  0  0  0  0  0  0  0  0  0  0
   39.2385   27.6755   38.9868 H   0  0  0  0  0  0  0  0  0  0  0  0
   37.8743   25.6728   38.1290 H   0  0  0  0  0  0  0  0  0  0  0  0
   35.2641   25.2508   37.2534 H   0  0  0  0  0  0  0  0  0  0  0  0
   33.1396   26.4741   36.8947 H   0  0  0  0  0  0  0  0  0  0  0  0
   32.9111   28.8792   37.3690 H   0  0  0  0  0  0  0  0  0  0  0  0
   34.8959   30.1380   38.2461 H   0  0  0  0  0  0  0  0  0  0  0  0
   39.7460   28.5483   43.6200 H   0  0  0  0  0  0  0  0  0  0  0  0
   37.9252   26.8923   44.1981 H   0  0  0  0  0  0  0  0  0  0  0  0
   35.7033   27.0115   42.9675 H   0  0  0  0  0  0  0  0  0  0  0  0
  1  2  1  0
  1 20  1  0
  3  2  1  0
  4  3  1  0
  5  4  1  0
  5  6  1  0
  6  1  1  0
  7  6  1  0
  8  7  2  0
  9  8  1  0
 10  9  1  0
 10 15  2  0
 11 10  1  0
 12 11  2  0
 12 13  1  0
 13 14  2  0
 14 15  1  0
 15  7  1  0
 16 17  2  0
 18 17  1  0
 19 18  2  0
 20 19  1  0
 20 21  2  0
 21 16  1  0
  1 22  1  6
  2 23  1  0
  2 24  1  0
  3 25  1  0
  3 26  1  0
  4 27  1  0
  4 28  1  0
  5 29  1  0
  5 30  1  0
  6 31  1  1
  8 32  1  0
  9 33  1  0
 11 34  1  0
 12 35  1  0
 13 36  1  0
 14 37  1  0
 16 38  1  0
 17 39  1  0
 18 40  1  0
M  ISO  8  22  13  23  13  24  13  25  13  26  13  27  13  28  13  29  13
M  ISO  8  30  13  31  13  32  14  33   9  34  14  35  14  36  14  37  14
M  ISO  3  38  14  39  14  40  14
M  END
>  <minimizedAffinity>  (1) 
-5.28543854

>  <minimizedRMSD>  (1) 
0.625893474

$$$$
