
     RDKit          3D

 37 39  0  0  1  0  0  0  0  0999 V2000
   37.2120   30.3020   40.4580 C   0  0  1  0  0  0  0  0  0  0  0  0
   37.8390   31.6370   40.7250 C   0  0  0  0  0  0  0  0  0  0  0  0
   37.2610   32.6030   39.7490 C   0  0  0  0  0  0  0  0  0  0  0  0
   37.3700   32.1690   38.3240 C   0  0  0  0  0  0  0  0  0  0  0  0
   37.2760   30.7190   38.0520 C   0  0  0  0  0  0  0  0  0  0  0  0
   37.8040   29.8080   39.1350 C   0  0  2  0  0  0  0  0  0  0  0  0
   37.3000   28.4860   38.8440 N   0  0  0  0  0  0  0  0  0  0  0  0
   38.0630   27.3830   38.9010 C   0  0  0  0  0  0  0  0  0  0  0  0
   37.5050   26.1380   38.6050 C   0  0  0  0  0  0  0  0  0  0  0  0
   36.1510   26.1000   38.2580 C   0  0  0  0  0  0  0  0  0  0  0  0
   35.4760   24.8740   37.9360 N   0  0  0  0  0  0  0  0  0  0  0  0
   35.3850   27.2060   38.2020 N   0  0  0  0  0  0  0  0  0  0  0  0
   35.9850   28.3720   38.4970 C   0  0  0  0  0  0  0  0  0  0  0  0
   35.2810   29.4140   38.4480 O   0  0  0  0  0  0  0  0  0  0  0  0
   38.8870   28.4570   43.1500 C   0  0  0  0  0  0  0  0  0  0  0  0
   37.8590   27.6030   43.6290 C   0  0  0  0  0  0  0  0  0  0  0  0
   36.5860   27.6490   43.0250 C   0  0  0  0  0  0  0  0  0  0  0  0
   36.4080   28.5300   41.9900 N   0  0  0  0  0  0  0  0  0  0  0  0
   37.4120   29.3290   41.5580 C   0  0  0  0  0  0  0  0  0  0  0  0
   38.6320   29.2910   42.1310 N   0  0  0  0  0  0  0  0  0  0  0  0
   36.1188   30.4049   40.3925 H   0  0  0  0  0  0  0  0  0  0  0  0
   37.6135   31.9598   41.7521 H   0  0  0  0  0  0  0  0  0  0  0  0
   38.9322   31.5817   40.6163 H   0  0  0  0  0  0  0  0  0  0  0  0
   36.1960   32.7399   39.9879 H   0  0  0  0  0  0  0  0  0  0  0  0
   37.8404   33.5333   39.8424 H   0  0  0  0  0  0  0  0  0  0  0  0
   36.5627   32.6640   37.7643 H   0  0  0  0  0  0  0  0  0  0  0  0
   38.3886   32.4502   38.0183 H   0  0  0  0  0  0  0  0  0  0  0  0
   36.2154   30.4741   37.8933 H   0  0  0  0  0  0  0  0  0  0  0  0
   37.9148   30.5391   37.1747 H   0  0  0  0  0  0  0  0  0  0  0  0
   38.9026   29.7974   39.1901 H   0  0  0  0  0  0  0  0  0  0  0  0
   39.1243   27.4599   39.1800 H   0  0  0  0  0  0  0  0  0  0  0  0
   38.1091   25.2195   38.6434 H   0  0  0  0  0  0  0  0  0  0  0  0
   34.4771   24.8866   37.6850 H   0  0  0  0  0  0  0  0  0  0  0  0
   35.9908   23.9821   37.9560 H   0  0  0  0  0  0  0  0  0  0  0  0
   39.8854   28.4349   43.6112 H   0  0  0  0  0  0  0  0  0  0  0  0
   38.0538   26.9125   44.4628 H   0  0  0  0  0  0  0  0  0  0  0  0
   35.7664   27.0022   43.3712 H   0  0  0  0  0  0  0  0  0  0  0  0
  1  2  1  0
  1 19  1  0
  3  2  1  0
  4  3  1  0
  5  4  1  0
  5  6  1  0
  6  1  1  0
  7  8  1  0
  7  6  1  0
  9  8  2  0
 10  9  1  0
 11 10  1  0
 12 10  2  0
 12 13  1  0
 13  7  1  0
 14 13  2  0
 15 16  2  0
 17 16  1  0
 18 17  2  0
 19 18  1  0
 19 20  2  0
 20 15  1  0
  1 21  1  6
  2 22  1  0
  2 23  1  0
  3 24  1  0
  3 25  1  0
  4 26  1  0
  4 27  1  0
  5 28  1  0
  5 29  1  0
  6 30  1  1
  8 31  1  0
  9 32  1  0
 11 33  1  0
 11 34  1  0
 15 35  1  0
 16 36  1  0
 17 37  1  0
M  ISO  8  21  13  22  13  23  13  24  13  25  13  26  13  27  13  28  13
M  ISO  7  29  13  30  13  31  14  32  14  35  14  36  14  37  14
M  END
>  <minimizedAffinity>  (1) 
-4.80764723

>  <minimizedRMSD>  (1) 
0.616707921

$$$$
