
     RDKit          3D

 36 38  0  0  1  0  0  0  0  0999 V2000
   37.1970   30.2910   40.4180 C   0  0  1  0  0  0  0  0  0  0  0  0
   37.7650   31.6460   40.7100 C   0  0  0  0  0  0  0  0  0  0  0  0
   37.1700   32.5860   39.7170 C   0  0  0  0  0  0  0  0  0  0  0  0
   37.4480   32.1830   38.3020 C   0  0  0  0  0  0  0  0  0  0  0  0
   37.3370   30.7330   38.0170 C   0  0  0  0  0  0  0  0  0  0  0  0
   37.7910   29.8050   39.1030 C   0  0  2  0  0  0  0  0  0  0  0  0
   38.9450   28.3980   43.0390 C   0  0  0  0  0  0  0  0  0  0  0  0
   37.9100   27.5820   43.5690 C   0  0  0  0  0  0  0  0  0  0  0  0
   36.6100   27.6680   43.0290 C   0  0  0  0  0  0  0  0  0  0  0  0
   36.4240   28.5500   42.0080 N   0  0  0  0  0  0  0  0  0  0  0  0
   37.4290   29.3180   41.5180 C   0  0  0  0  0  0  0  0  0  0  0  0
   38.6740   29.2400   42.0320 N   0  0  0  0  0  0  0  0  0  0  0  0
   37.1810   28.5110   38.8570 N   0  0  0  0  0  0  0  0  0  0  0  0
   37.9350   27.4020   38.9610 C   0  0  0  0  0  0  0  0  0  0  0  0
   37.4300   26.1240   38.7420 C   0  0  0  0  0  0  0  0  0  0  0  0
   36.0930   25.9650   38.4010 C   0  0  0  0  0  0  0  0  0  0  0  0
   35.5950   24.8290   38.1940 O   0  0  0  0  0  0  0  0  0  0  0  0
   35.3850   27.1100   38.3110 N   0  0  0  0  0  0  0  0  0  0  0  0
   35.8890   28.3360   38.5270 C   0  0  0  0  0  0  0  0  0  0  0  0
   35.1670   29.3550   38.4240 O   0  0  0  0  0  0  0  0  0  0  0  0
   36.1033   30.3726   40.3339 H   0  0  0  0  0  0  0  0  0  0  0  0
   37.4991   31.9560   41.7314 H   0  0  0  0  0  0  0  0  0  0  0  0
   38.8626   31.6378   40.6372 H   0  0  0  0  0  0  0  0  0  0  0  0
   36.0807   32.6139   39.8675 H   0  0  0  0  0  0  0  0  0  0  0  0
   37.6280   33.5731   39.8777 H   0  0  0  0  0  0  0  0  0  0  0  0
   36.7342   32.7114   37.6529 H   0  0  0  0  0  0  0  0  0  0  0  0
   38.4990   32.4476   38.1141 H   0  0  0  0  0  0  0  0  0  0  0  0
   36.2797   30.5126   37.8084 H   0  0  0  0  0  0  0  0  0  0  0  0
   38.0155   30.5481   37.1712 H   0  0  0  0  0  0  0  0  0  0  0  0
   38.8896   29.7587   39.1329 H   0  0  0  0  0  0  0  0  0  0  0  0
   39.9626   28.3392   43.4525 H   0  0  0  0  0  0  0  0  0  0  0  0
   38.1212   26.8874   44.3954 H   0  0  0  0  0  0  0  0  0  0  0  0
   35.7847   27.0514   43.4145 H   0  0  0  0  0  0  0  0  0  0  0  0
   38.9960   27.5099   39.2306 H   0  0  0  0  0  0  0  0  0  0  0  0
   38.0852   25.2457   38.8383 H   0  0  0  0  0  0  0  0  0  0  0  0
   34.3888   27.0389   38.0591 H   0  0  0  0  0  0  0  0  0  0  0  0
  1  2  1  0
  1 11  1  0
  3  2  1  0
  4  3  1  0
  5  4  1  0
  5  6  1  0
  6  1  1  0
  7  8  2  0
  9  8  1  0
 10  9  2  0
 11 10  1  0
 11 12  2  0
 12  7  1  0
 13 14  1  0
 13  6  1  0
 15 14  2  0
 16 15  1  0
 17 16  2  0
 18 16  1  0
 18 19  1  0
 19 13  1  0
 20 19  2  0
  1 21  1  6
  2 22  1  0
  2 23  1  0
  3 24  1  0
  3 25  1  0
  4 26  1  0
  4 27  1  0
  5 28  1  0
  5 29  1  0
  6 30  1  1
  7 31  1  0
  8 32  1  0
  9 33  1  0
 14 34  1  0
 15 35  1  0
 18 36  1  0
M  ISO  8  21  13  22  13  23  13  24  13  25  13  26  13  27  13  28  13
M  ISO  8  29  13  30  13  31  14  32  14  33  14  34  14  35  14  36   9
M  END
>  <minimizedAffinity>  (1) 
-4.78034639

>  <minimizedRMSD>  (1) 
0.631762564

$$$$
