
     RDKit          3D

 35 37  0  0  1  0  0  0  0  0999 V2000
   37.1590   30.2580   40.4290 C   0  0  1  0  0  0  0  0  0  0  0  0
   37.6680   31.6350   40.7300 C   0  0  0  0  0  0  0  0  0  0  0  0
   37.0850   32.5520   39.7110 C   0  0  0  0  0  0  0  0  0  0  0  0
   37.4050   32.1380   38.3010 C   0  0  0  0  0  0  0  0  0  0  0  0
   37.3400   30.6770   38.0330 C   0  0  0  0  0  0  0  0  0  0  0  0
   37.8490   29.7930   39.1440 C   0  0  2  0  0  0  0  0  0  0  0  0
   38.8800   28.4870   43.1590 C   0  0  0  0  0  0  0  0  0  0  0  0
   37.8690   27.6140   43.6410 C   0  0  0  0  0  0  0  0  0  0  0  0
   36.5970   27.6190   43.0340 C   0  0  0  0  0  0  0  0  0  0  0  0
   36.3960   28.4840   41.9850 N   0  0  0  0  0  0  0  0  0  0  0  0
   37.3950   29.3050   41.5540 C   0  0  0  0  0  0  0  0  0  0  0  0
   38.6140   29.3060   42.1300 N   0  0  0  0  0  0  0  0  0  0  0  0
   37.3250   28.4240   38.8800 C   0  0  0  0  0  0  0  0  0  0  0  0
   36.0300   28.2400   38.4180 C   0  0  0  0  0  0  0  0  0  0  0  0
   35.5940   26.9720   38.1910 C   0  0  0  0  0  0  0  0  0  0  0  0
   36.4640   25.9230   38.4330 C   0  0  0  0  0  0  0  0  0  0  0  0
   37.7550   26.1020   38.8940 C   0  0  0  0  0  0  0  0  0  0  0  0
   38.1350   27.3700   39.1010 N   0  0  0  0  0  0  0  0  0  0  0  0
   36.0673   30.2846   40.2967 H   0  0  0  0  0  0  0  0  0  0  0  0
   37.3520   31.9418   41.7380 H   0  0  0  0  0  0  0  0  0  0  0  0
   38.7672   31.6614   40.6961 H   0  0  0  0  0  0  0  0  0  0  0  0
   35.9920   32.5641   39.8339 H   0  0  0  0  0  0  0  0  0  0  0  0
   37.5256   33.5471   39.8713 H   0  0  0  0  0  0  0  0  0  0  0  0
   36.6904   32.6378   37.6305 H   0  0  0  0  0  0  0  0  0  0  0  0
   38.4516   32.4303   38.1304 H   0  0  0  0  0  0  0  0  0  0  0  0
   36.2891   30.4130   37.8435 H   0  0  0  0  0  0  0  0  0  0  0  0
   38.0026   30.4963   37.1737 H   0  0  0  0  0  0  0  0  0  0  0  0
   38.9463   29.8212   39.2157 H   0  0  0  0  0  0  0  0  0  0  0  0
   39.8756   28.4918   43.6266 H   0  0  0  0  0  0  0  0  0  0  0  0
   38.0774   26.9378   44.4832 H   0  0  0  0  0  0  0  0  0  0  0  0
   35.7943   26.9548   43.3870 H   0  0  0  0  0  0  0  0  0  0  0  0
   35.3698   29.1014   38.2391 H   0  0  0  0  0  0  0  0  0  0  0  0
   34.5742   26.7845   37.8238 H   0  0  0  0  0  0  0  0  0  0  0  0
   36.1111   24.8974   38.2497 H   0  0  0  0  0  0  0  0  0  0  0  0
   38.4302   25.2537   39.0798 H   0  0  0  0  0  0  0  0  0  0  0  0
  1  2  1  0
  1 11  1  0
  3  2  1  0
  4  3  1  0
  5  4  1  0
  5  6  1  0
  6  1  1  0
  7  8  2  0
  9  8  1  0
 10  9  2  0
 11 10  1  0
 11 12  2  0
 12  7  1  0
 13 18  1  0
 13  6  1  0
 14 13  2  0
 15 14  1  0
 15 16  2  0
 16 17  1  0
 17 18  2  0
  1 19  1  6
  2 20  1  0
  2 21  1  0
  3 22  1  0
  3 23  1  0
  4 24  1  0
  4 25  1  0
  5 26  1  0
  5 27  1  0
  6 28  1  1
  7 29  1  0
  8 30  1  0
  9 31  1  0
 14 32  1  0
 15 33  1  0
 16 34  1  0
 17 35  1  0
M  ISO  8  19  13  20  13  21  13  22  13  23  13  24  13  25  13  26  13
M  ISO  8  27  13  28  13  29  14  30  14  31  14  32  14  33  14  34  14
M  ISO  1  35  14
M  END
>  <minimizedAffinity>  (1) 
-4.65772915

>  <minimizedRMSD>  (1) 
0.659484863

$$$$
