
     RDKit          3D

 39 41  0  0  1  0  0  0  0  0999 V2000
   37.6460   30.5680   41.1610 C   0  0  1  0  0  0  0  0  0  0  0  0
   38.7390   31.5950   41.0900 C   0  0  0  0  0  0  0  0  0  0  0  0
   38.1500   32.8320   40.5070 C   0  0  0  0  0  0  0  0  0  0  0  0
   37.4520   32.6100   39.2060 C   0  0  0  0  0  0  0  0  0  0  0  0
   36.7700   31.3100   39.0160 C   0  0  0  0  0  0  0  0  0  0  0  0
   37.3690   30.1330   39.7310 C   0  0  2  0  0  0  0  0  0  0  0  0
   39.5990   27.8540   42.6890 C   0  0  0  0  0  0  0  0  0  0  0  0
   38.7150   27.3500   43.6810 C   0  0  0  0  0  0  0  0  0  0  0  0
   37.4410   27.9390   43.8200 C   0  0  0  0  0  0  0  0  0  0  0  0
   37.1380   28.9660   42.9850 N   0  0  0  0  0  0  0  0  0  0  0  0
   38.0030   29.4240   42.0480 C   0  0  0  0  0  0  0  0  0  0  0  0
   39.2250   28.8730   41.9000 N   0  0  0  0  0  0  0  0  0  0  0  0
   36.5490   28.9880   39.6020 N   0  0  0  0  0  0  0  0  0  0  0  0
   35.1410   29.1720   39.6190 C   0  0  0  0  0  0  0  0  0  0  0  0
   34.4970   28.8180   38.2680 C   0  0  0  0  0  0  0  0  0  0  0  0
   34.7470   27.4860   37.9470 O   0  0  0  0  0  0  0  0  0  0  0  0
   35.9750   27.0290   38.4220 C   0  0  0  0  0  0  0  0  0  0  0  0
   36.9160   28.2400   38.4430 C   0  0  0  0  0  0  0  0  0  0  0  0
   36.7394   30.9946   41.6149 H   0  0  0  0  0  0  0  0  0  0  0  0
   39.1265   31.8021   42.0985 H   0  0  0  0  0  0  0  0  0  0  0  0
   39.5730   31.2327   40.4710 H   0  0  0  0  0  0  0  0  0  0  0  0
   37.4244   33.2425   41.2246 H   0  0  0  0  0  0  0  0  0  0  0  0
   38.9833   33.5226   40.3105 H   0  0  0  0  0  0  0  0  0  0  0  0
   36.6940   33.3999   39.0984 H   0  0  0  0  0  0  0  0  0  0  0  0
   38.2512   32.6234   38.4502 H   0  0  0  0  0  0  0  0  0  0  0  0
   35.7328   31.4216   39.3650 H   0  0  0  0  0  0  0  0  0  0  0  0
   36.8669   31.0821   37.9442 H   0  0  0  0  0  0  0  0  0  0  0  0
   38.3241   29.8209   39.2833 H   0  0  0  0  0  0  0  0  0  0  0  0
   40.5962   27.4060   42.5671 H   0  0  0  0  0  0  0  0  0  0  0  0
   39.0191   26.5149   44.3292 H   0  0  0  0  0  0  0  0  0  0  0  0
   36.7232   27.5815   44.5730 H   0  0  0  0  0  0  0  0  0  0  0  0
   34.7081   28.5277   40.3984 H   0  0  0  0  0  0  0  0  0  0  0  0
   34.9397   30.2340   39.8233 H   0  0  0  0  0  0  0  0  0  0  0  0
   33.4106   28.9782   38.3309 H   0  0  0  0  0  0  0  0  0  0  0  0
   34.9284   29.4611   37.4868 H   0  0  0  0  0  0  0  0  0  0  0  0
   35.8608   26.6197   39.4366 H   0  0  0  0  0  0  0  0  0  0  0  0
   36.3741   26.2280   37.7823 H   0  0  0  0  0  0  0  0  0  0  0  0
   37.9635   27.9117   38.5131 H   0  0  0  0  0  0  0  0  0  0  0  0
   36.8291   28.8404   37.5254 H   0  0  0  0  0  0  0  0  0  0  0  0
  1 11  1  0
  2  1  1  0
  3  2  1  0
  4  3  1  0
  5  4  1  0
  5  6  1  0
  6  1  1  0
  7  8  2  0
  8  9  1  0
 10  9  2  0
 11 10  1  0
 12 11  2  0
 12  7  1  0
 13 14  1  0
 13  6  1  0
 15 14  1  0
 16 15  1  0
 16 17  1  0
 17 18  1  0
 18 13  1  0
  1 19  1  1
  2 20  1  0
  2 21  1  0
  3 22  1  0
  3 23  1  0
  4 24  1  0
  4 25  1  0
  5 26  1  0
  5 27  1  0
  6 28  1  6
  7 29  1  0
  8 30  1  0
  9 31  1  0
 14 32  1  0
 14 33  1  0
 15 34  1  0
 15 35  1  0
 17 36  1  0
 17 37  1  0
 18 38  1  0
 18 39  1  0
M  ISO  8  19  13  20  13  21  13  22  13  23  13  24  13  25  13  26  13
M  ISO  8  27  13  28  13  29  14  30  14  31  14  32  13  33  13  34  13
M  ISO  5  35  13  36  13  37  13  38  13  39  13
M  END
>  <minimizedAffinity>  (1) 
-4.61197233

>  <minimizedRMSD>  (1) 
1.81832159

$$$$
