
     RDKit          3D

 41 43  0  0  1  0  0  0  0  0999 V2000
   37.2570   30.1430   40.3550 C   0  0  1  0  0  0  0  0  0  0  0  0
   37.6350   31.5590   40.6850 C   0  0  0  0  0  0  0  0  0  0  0  0
   37.0980   32.4390   39.6140 C   0  0  0  0  0  0  0  0  0  0  0  0
   37.4810   32.0120   38.2270 C   0  0  0  0  0  0  0  0  0  0  0  0
   37.5180   30.5550   37.9840 C   0  0  0  0  0  0  0  0  0  0  0  0
   38.1120   29.7690   39.1440 C   0  0  2  0  0  0  0  0  0  0  0  0
   38.9330   28.3270   43.0770 C   0  0  0  0  0  0  0  0  0  0  0  0
   37.8950   27.5750   43.6480 C   0  0  0  0  0  0  0  0  0  0  0  0
   36.6190   27.6780   43.1050 C   0  0  0  0  0  0  0  0  0  0  0  0
   36.4350   28.5180   42.0260 N   0  0  0  0  0  0  0  0  0  0  0  0
   37.4880   29.2260   41.5100 C   0  0  0  0  0  0  0  0  0  0  0  0
   38.7350   29.1400   42.0230 N   0  0  0  0  0  0  0  0  0  0  0  0
   38.2180   28.3890   38.8870 N   0  0  0  0  0  0  0  0  0  0  0  0
   39.3490   27.6910   39.3590 C   0  0  0  0  0  0  0  0  0  0  0  0
   39.0760   26.8320   40.5750 C   0  0  0  0  0  0  0  0  0  0  0  0
   37.8640   25.9790   40.4050 C   0  0  0  0  0  0  0  0  0  0  0  0
   36.6620   26.8490   40.0450 C   0  0  0  0  0  0  0  0  0  0  0  0
   36.9920   27.6740   38.8490 C   0  0  0  0  0  0  0  0  0  0  0  0
   36.1840   30.0501   40.1313 H   0  0  0  0  0  0  0  0  0  0  0  0
   37.2020   31.8446   41.6550 H   0  0  0  0  0  0  0  0  0  0  0  0
   38.7287   31.6578   40.7484 H   0  0  0  0  0  0  0  0  0  0  0  0
   36.0003   32.4408   39.6851 H   0  0  0  0  0  0  0  0  0  0  0  0
   37.5331   33.4368   39.7725 H   0  0  0  0  0  0  0  0  0  0  0  0
   36.7549   32.4514   37.5272 H   0  0  0  0  0  0  0  0  0  0  0  0
   38.5138   32.3625   38.0838 H   0  0  0  0  0  0  0  0  0  0  0  0
   36.4900   30.2028   37.8130 H   0  0  0  0  0  0  0  0  0  0  0  0
   38.1635   30.3856   37.1096 H   0  0  0  0  0  0  0  0  0  0  0  0
   39.1640   30.0328   39.3277 H   0  0  0  0  0  0  0  0  0  0  0  0
   39.9431   28.2493   43.5056 H   0  0  0  0  0  0  0  0  0  0  0  0
   38.0869   26.9169   44.5083 H   0  0  0  0  0  0  0  0  0  0  0  0
   35.7788   27.1051   43.5244 H   0  0  0  0  0  0  0  0  0  0  0  0
   39.7169   27.0411   38.5514 H   0  0  0  0  0  0  0  0  0  0  0  0
   40.0878   28.4476   39.6618 H   0  0  0  0  0  0  0  0  0  0  0  0
   39.9451   26.1809   40.7505 H   0  0  0  0  0  0  0  0  0  0  0  0
   38.8982   27.5032   41.4281 H   0  0  0  0  0  0  0  0  0  0  0  0
   38.0409   25.2504   39.6001 H   0  0  0  0  0  0  0  0  0  0  0  0
   37.6586   25.4500   41.3473 H   0  0  0  0  0  0  0  0  0  0  0  0
   35.7974   26.2068   39.8212 H   0  0  0  0  0  0  0  0  0  0  0  0
   36.4174   27.5079   40.8911 H   0  0  0  0  0  0  0  0  0  0  0  0
   36.1826   28.4069   38.7158 H   0  0  0  0  0  0  0  0  0  0  0  0
   37.1014   26.9557   38.0231 H   0  0  0  0  0  0  0  0  0  0  0  0
  1  2  1  0
  1 11  1  0
  3  2  1  0
  4  3  1  0
  5  4  1  0
  5  6  1  0
  6  1  1  0
  7  8  2  0
  9  8  1  0
 10  9  2  0
 11 12  2  0
 11 10  1  0
 12  7  1  0
 13  6  1  0
 13 14  1  0
 14 15  1  0
 16 15  1  0
 17 16  1  0
 18 13  1  0
 18 17  1  0
  1 19  1  6
  2 20  1  0
  2 21  1  0
  3 22  1  0
  3 23  1  0
  4 24  1  0
  4 25  1  0
  5 26  1  0
  5 27  1  0
  6 28  1  1
  7 29  1  0
  8 30  1  0
  9 31  1  0
 14 32  1  0
 14 33  1  0
 15 34  1  0
 15 35  1  0
 16 36  1  0
 16 37  1  0
 17 38  1  0
 17 39  1  0
 18 40  1  0
 18 41  1  0
M  ISO  8  19  13  20  13  21  13  22  13  23  13  24  13  25  13  26  13
M  ISO  8  27  13  28  13  29  14  30  14  31  14  32  13  33  13  34  13
M  ISO  7  35  13  36  13  37  13  38  13  39  13  40  13  41  13
M  END
>  <minimizedAffinity>  (1) 
-4.61122942

>  <minimizedRMSD>  (1) 
0.924072623

$$$$
