
     RDKit          3D

 34 36  0  0  1  0  0  0  0  0999 V2000
   37.1130   30.2320   40.4780 C   0  0  1  0  0  0  0  0  0  0  0  0
   37.7920   31.5520   40.6840 C   0  0  0  0  0  0  0  0  0  0  0  0
   37.2570   32.5090   39.6820 C   0  0  0  0  0  0  0  0  0  0  0  0
   37.3040   32.0270   38.2690 C   0  0  0  0  0  0  0  0  0  0  0  0
   36.9850   30.5810   38.0720 C   0  0  0  0  0  0  0  0  0  0  0  0
   37.6170   29.7000   39.1340 C   0  0  2  0  0  0  0  0  0  0  0  0
   38.8660   28.4620   43.1780 C   0  0  0  0  0  0  0  0  0  0  0  0
   37.8620   27.5850   43.6700 C   0  0  0  0  0  0  0  0  0  0  0  0
   36.5840   27.5880   43.0760 C   0  0  0  0  0  0  0  0  0  0  0  0
   36.3700   28.4550   42.0330 N   0  0  0  0  0  0  0  0  0  0  0  0
   37.3670   29.2800   41.5960 C   0  0  0  0  0  0  0  0  0  0  0  0
   38.5950   29.2870   42.1540 N   0  0  0  0  0  0  0  0  0  0  0  0
   37.2960   28.2970   38.8970 C   0  0  0  0  0  0  0  0  0  0  0  0
   36.0500   27.8060   38.5130 C   0  0  0  0  0  0  0  0  0  0  0  0
   35.8850   26.4370   38.3220 C   0  0  0  0  0  0  0  0  0  0  0  0
   36.8940   25.5680   38.4930 N   0  0  0  0  0  0  0  0  0  0  0  0
   38.0900   26.0530   38.8630 C   0  0  0  0  0  0  0  0  0  0  0  0
   38.2610   27.3720   39.0510 N   0  0  0  0  0  0  0  0  0  0  0  0
   36.0197   30.3531   40.4668 H   0  0  0  0  0  0  0  0  0  0  0  0
   37.5868   31.9221   41.6993 H   0  0  0  0  0  0  0  0  0  0  0  0
   38.8799   31.4432   40.5633 H   0  0  0  0  0  0  0  0  0  0  0  0
   36.2081   32.7207   39.9368 H   0  0  0  0  0  0  0  0  0  0  0  0
   37.9024   33.3986   39.7276 H   0  0  0  0  0  0  0  0  0  0  0  0
   36.5810   32.6161   37.6857 H   0  0  0  0  0  0  0  0  0  0  0  0
   38.3463   32.1538   37.9411 H   0  0  0  0  0  0  0  0  0  0  0  0
   35.8933   30.4517   38.1094 H   0  0  0  0  0  0  0  0  0  0  0  0
   37.3934   30.2769   37.0969 H   0  0  0  0  0  0  0  0  0  0  0  0
   38.7162   29.7385   39.1161 H   0  0  0  0  0  0  0  0  0  0  0  0
   39.8659   28.4650   43.6364 H   0  0  0  0  0  0  0  0  0  0  0  0
   38.0809   26.9082   44.5090 H   0  0  0  0  0  0  0  0  0  0  0  0
   35.7870   26.9201   43.4348 H   0  0  0  0  0  0  0  0  0  0  0  0
   35.2047   28.4935   38.3622 H   0  0  0  0  0  0  0  0  0  0  0  0
   34.8979   26.0556   38.0218 H   0  0  0  0  0  0  0  0  0  0  0  0
   38.9355   25.3656   39.0132 H   0  0  0  0  0  0  0  0  0  0  0  0
  1  2  1  0
  1 11  1  0
  3  2  1  0
  4  3  1  0
  5  4  1  0
  5  6  1  0
  6  1  1  0
  7  8  2  0
  9  8  1  0
 10  9  2  0
 11 10  1  0
 11 12  2  0
 12  7  1  0
 13 18  1  0
 13  6  1  0
 14 13  2  0
 15 16  2  0
 15 14  1  0
 16 17  1  0
 17 18  2  0
  1 19  1  6
  2 20  1  0
  2 21  1  0
  3 22  1  0
  3 23  1  0
  4 24  1  0
  4 25  1  0
  5 26  1  0
  5 27  1  0
  6 28  1  1
  7 29  1  0
  8 30  1  0
  9 31  1  0
 14 32  1  0
 15 33  1  0
 17 34  1  0
M  ISO  8  19  13  20  13  21  13  22  13  23  13  24  13  25  13  26  13
M  ISO  8  27  13  28  13  29  14  30  14  31  14  32  14  33  14  34  14
M  END
>  <minimizedAffinity>  (1) 
-4.54773092

>  <minimizedRMSD>  (1) 
0.435610294

$$$$
