
     RDKit          3D

 40 42  0  0  1  0  0  0  0  0999 V2000
   37.1930   30.1270   40.4090 C   0  0  1  0  0  0  0  0  0  0  0  0
   37.6870   31.5140   40.7090 C   0  0  0  0  0  0  0  0  0  0  0  0
   37.1090   32.4210   39.6800 C   0  0  0  0  0  0  0  0  0  0  0  0
   37.3700   31.9890   38.2760 C   0  0  0  0  0  0  0  0  0  0  0  0
   37.4030   30.5350   38.0180 C   0  0  0  0  0  0  0  0  0  0  0  0
   37.8840   29.6590   39.1420 C   0  0  2  0  0  0  0  0  0  0  0  0
   38.9010   28.3620   43.1490 C   0  0  0  0  0  0  0  0  0  0  0  0
   37.8710   27.5380   43.6750 C   0  0  0  0  0  0  0  0  0  0  0  0
   36.5900   27.5730   43.0890 C   0  0  0  0  0  0  0  0  0  0  0  0
   36.3980   28.4190   42.0200 N   0  0  0  0  0  0  0  0  0  0  0  0
   37.4120   29.1890   41.5500 C   0  0  0  0  0  0  0  0  0  0  0  0
   38.6390   29.1600   42.1050 N   0  0  0  0  0  0  0  0  0  0  0  0
   37.6000   28.3000   38.8320 N   0  0  0  0  0  0  0  0  0  0  0  0
   36.1970   27.9910   39.0480 C   0  0  0  0  0  0  0  0  0  0  0  0
   35.8830   26.6350   38.4610 C   0  0  0  0  0  0  0  0  0  0  0  0
   36.7520   25.6390   39.0230 N   0  0  0  0  0  0  0  0  0  0  0  0
   38.1400   26.0140   38.8310 C   0  0  0  0  0  0  0  0  0  0  0  0
   38.3220   27.3170   39.6070 C   0  0  0  0  0  0  0  0  0  0  0  0
   36.1035   30.1429   40.2584 H   0  0  0  0  0  0  0  0  0  0  0  0
   37.3564   31.8228   41.7117 H   0  0  0  0  0  0  0  0  0  0  0  0
   38.7862   31.5496   40.6868 H   0  0  0  0  0  0  0  0  0  0  0  0
   36.0204   32.4668   39.8313 H   0  0  0  0  0  0  0  0  0  0  0  0
   37.5955   33.3992   39.8080 H   0  0  0  0  0  0  0  0  0  0  0  0
   36.5802   32.4206   37.6435 H   0  0  0  0  0  0  0  0  0  0  0  0
   38.3874   32.3425   38.0523 H   0  0  0  0  0  0  0  0  0  0  0  0
   36.3807   30.2187   37.7632 H   0  0  0  0  0  0  0  0  0  0  0  0
   38.1402   30.4016   37.2125 H   0  0  0  0  0  0  0  0  0  0  0  0
   38.9720   29.7309   39.2872 H   0  0  0  0  0  0  0  0  0  0  0  0
   39.9063   28.3453   43.5952 H   0  0  0  0  0  0  0  0  0  0  0  0
   38.0713   26.8783   44.5322 H   0  0  0  0  0  0  0  0  0  0  0  0
   35.7716   26.9460   43.4725 H   0  0  0  0  0  0  0  0  0  0  0  0
   35.9859   27.9809   40.1275 H   0  0  0  0  0  0  0  0  0  0  0  0
   35.5742   28.7548   38.5593 H   0  0  0  0  0  0  0  0  0  0  0  0
   36.0259   26.6688   37.3709 H   0  0  0  0  0  0  0  0  0  0  0  0
   34.8400   26.3751   38.6946 H   0  0  0  0  0  0  0  0  0  0  0  0
   36.5604   25.5510   40.0312 H   0  0  0  0  0  0  0  0  0  0  0  0
   38.8072   25.2343   39.2271 H   0  0  0  0  0  0  0  0  0  0  0  0
   38.3862   26.1357   37.7658 H   0  0  0  0  0  0  0  0  0  0  0  0
   39.3871   27.5826   39.6776 H   0  0  0  0  0  0  0  0  0  0  0  0
   37.9534   27.2446   40.6409 H   0  0  0  0  0  0  0  0  0  0  0  0
  1  2  1  0
  1 11  1  0
  3  2  1  0
  4  3  1  0
  5  4  1  0
  5  6  1  0
  6  1  1  0
  7  8  2  0
  9  8  1  0
 10  9  2  0
 11 10  1  0
 11 12  2  0
 12  7  1  0
 13 14  1  0
 13  6  1  0
 13 18  1  0
 15 16  1  0
 15 14  1  0
 17 16  1  0
 17 18  1  0
  1 19  1  6
  2 20  1  0
  2 21  1  0
  3 22  1  0
  3 23  1  0
  4 24  1  0
  4 25  1  0
  5 26  1  0
  5 27  1  0
  6 28  1  1
  7 29  1  0
  8 30  1  0
  9 31  1  0
 14 32  1  0
 14 33  1  0
 15 34  1  0
 15 35  1  0
 16 36  1  0
 17 37  1  0
 17 38  1  0
 18 39  1  0
 18 40  1  0
M  ISO  8  19  13  20  13  21  13  22  13  23  13  24  13  25  13  26  13
M  ISO  8  27  13  28  13  29  14  30  14  31  14  32  13  33  13  34  13
M  ISO  6  35  13  36   5  37  13  38  13  39  13  40  13
M  END
>  <minimizedAffinity>  (1) 
-4.47651291

>  <minimizedRMSD>  (1) 
0.56718421

$$$$
