
     RDKit          3D

 33 35  0  0  1  0  0  0  0  0999 V2000
   37.0460   30.4040   40.3060 C   0  0  1  0  0  0  0  0  0  0  0  0
   37.6240   31.7500   40.5760 C   0  0  0  0  0  0  0  0  0  0  0  0
   37.1720   32.6740   39.4990 C   0  0  0  0  0  0  0  0  0  0  0  0
   37.3530   32.1760   38.1120 C   0  0  0  0  0  0  0  0  0  0  0  0
   37.1530   30.7190   37.9070 C   0  0  0  0  0  0  0  0  0  0  0  0
   37.6480   29.8600   39.0330 C   0  0  1  0  0  0  0  0  0  0  0  0
   38.1310   28.9840   43.4870 C   0  0  0  0  0  0  0  0  0  0  0  0
   37.3310   27.8440   43.6350 C   0  0  0  0  0  0  0  0  0  0  0  0
   36.3980   27.5330   42.6310 C   0  0  0  0  0  0  0  0  0  0  0  0
   36.3190   28.3760   41.5430 N   0  0  0  0  0  0  0  0  0  0  0  0
   37.1330   29.4770   41.4600 C   0  0  0  0  0  0  0  0  0  0  0  0
   38.0330   29.7890   42.4130 N   0  0  0  0  0  0  0  0  0  0  0  0
   39.1160   29.7750   39.0270 C   0  0  0  0  0  0  0  0  0  0  0  0
   39.8910   30.8750   39.4110 C   0  0  0  0  0  0  0  0  0  0  0  0
   41.2550   30.5640   39.3280 C   0  0  0  0  0  0  0  0  0  0  0  0
   41.2160   29.2630   38.8880 C   0  0  0  0  0  0  0  0  0  0  0  0
   40.0050   28.8610   38.7330 O   0  0  0  0  0  0  0  0  0  0  0  0
   35.9612   30.5091   40.1568 H   0  0  0  0  0  0  0  0  0  0  0  0
   37.2743   32.1166   41.5524 H   0  0  0  0  0  0  0  0  0  0  0  0
   38.7225   31.6956   40.5943 H   0  0  0  0  0  0  0  0  0  0  0  0
   36.1008   32.8729   39.6506 H   0  0  0  0  0  0  0  0  0  0  0  0
   37.8055   33.5693   39.5835 H   0  0  0  0  0  0  0  0  0  0  0  0
   36.6360   32.7069   37.4686 H   0  0  0  0  0  0  0  0  0  0  0  0
   38.4084   32.3655   37.8667 H   0  0  0  0  0  0  0  0  0  0  0  0
   36.0760   30.5341   37.7813 H   0  0  0  0  0  0  0  0  0  0  0  0
   37.7423   30.4434   37.0200 H   0  0  0  0  0  0  0  0  0  0  0  0
   37.3257   28.8136   38.9270 H   0  0  0  0  0  0  0  0  0  0  0  0
   38.8614   29.2287   44.2722 H   0  0  0  0  0  0  0  0  0  0  0  0
   37.4313   27.2023   44.5228 H   0  0  0  0  0  0  0  0  0  0  0  0
   35.7521   26.6462   42.7107 H   0  0  0  0  0  0  0  0  0  0  0  0
   39.4869   31.8463   39.7325 H   0  0  0  0  0  0  0  0  0  0  0  0
   42.1269   31.1951   39.5552 H   0  0  0  0  0  0  0  0  0  0  0  0
   42.1055   28.6457   38.6936 H   0  0  0  0  0  0  0  0  0  0  0  0
  1  2  1  0
  1 11  1  0
  3  2  1  0
  4  3  1  0
  5  4  1  0
  5  6  1  0
  6  1  1  0
  7  8  2  0
  9  8  1  0
 10  9  2  0
 11 10  1  0
 11 12  2  0
 12  7  1  0
 13  6  1  0
 13 14  2  0
 15 14  1  0
 16 15  2  0
 17 16  1  0
 17 13  1  0
  1 18  1  6
  2 19  1  0
  2 20  1  0
  3 21  1  0
  3 22  1  0
  4 23  1  0
  4 24  1  0
  5 25  1  0
  5 26  1  0
  6 27  1  6
  7 28  1  0
  8 29  1  0
  9 30  1  0
 14 31  1  0
 15 32  1  0
 16 33  1  0
M  ISO  8  18  13  19  13  20  13  21  13  22  13  23  13  24  13  25  13
M  ISO  8  26  13  27  13  28  14  29  14  30  14  31  14  32  14  33  14
M  END
>  <minimizedAffinity>  (1) 
-4.44626188

>  <minimizedRMSD>  (1) 
0.045579493

$$$$
