
     RDKit          3D

 33 35  0  0  1  0  0  0  0  0999 V2000
   37.1280   30.1480   40.4520 C   0  0  1  0  0  0  0  0  0  0  0  0
   37.6730   31.5190   40.7040 C   0  0  0  0  0  0  0  0  0  0  0  0
   37.1310   32.4180   39.6500 C   0  0  0  0  0  0  0  0  0  0  0  0
   37.3330   31.9490   38.2580 C   0  0  0  0  0  0  0  0  0  0  0  0
   37.2130   30.4770   38.0360 C   0  0  0  0  0  0  0  0  0  0  0  0
   37.7750   29.6380   39.1570 C   0  0  2  0  0  0  0  0  0  0  0  0
   38.9240   28.3790   43.1350 C   0  0  0  0  0  0  0  0  0  0  0  0
   37.9130   27.5330   43.6710 C   0  0  0  0  0  0  0  0  0  0  0  0
   36.6170   27.5640   43.1110 C   0  0  0  0  0  0  0  0  0  0  0  0
   36.4050   28.4110   42.0810 N   0  0  0  0  0  0  0  0  0  0  0  0
   37.3880   29.2130   41.5800 C   0  0  0  0  0  0  0  0  0  0  0  0
   38.6290   29.1920   42.1080 N   0  0  0  0  0  0  0  0  0  0  0  0
   37.2760   28.2480   38.9590 C   0  0  0  0  0  0  0  0  0  0  0  0
   36.0120   27.8190   38.5900 C   0  0  0  0  0  0  0  0  0  0  0  0
   36.0400   26.4360   38.5390 C   0  0  0  0  0  0  0  0  0  0  0  0
   37.3000   26.1000   38.8740 N   0  0  0  0  0  0  0  0  0  0  0  0
   38.0390   27.1660   39.1240 N   0  0  0  0  0  0  0  0  0  0  0  0
   36.0332   30.1989   40.3577 H   0  0  0  0  0  0  0  0  0  0  0  0
   37.3572   31.8717   41.6969 H   0  0  0  0  0  0  0  0  0  0  0  0
   38.7726   31.5093   40.6761 H   0  0  0  0  0  0  0  0  0  0  0  0
   36.0496   32.5279   39.8190 H   0  0  0  0  0  0  0  0  0  0  0  0
   37.6867   33.3632   39.7383 H   0  0  0  0  0  0  0  0  0  0  0  0
   36.5844   32.4465   37.6239 H   0  0  0  0  0  0  0  0  0  0  0  0
   38.3746   32.2010   38.0099 H   0  0  0  0  0  0  0  0  0  0  0  0
   36.1472   30.2306   37.9208 H   0  0  0  0  0  0  0  0  0  0  0  0
   37.8024   30.2423   37.1374 H   0  0  0  0  0  0  0  0  0  0  0  0
   38.8737   29.6813   39.1883 H   0  0  0  0  0  0  0  0  0  0  0  0
   39.9391   28.3670   43.5587 H   0  0  0  0  0  0  0  0  0  0  0  0
   38.1387   26.8619   44.5128 H   0  0  0  0  0  0  0  0  0  0  0  0
   35.8115   26.9231   43.4988 H   0  0  0  0  0  0  0  0  0  0  0  0
   35.1441   28.4603   38.3764 H   0  0  0  0  0  0  0  0  0  0  0  0
   35.2126   25.7587   38.2809 H   0  0  0  0  0  0  0  0  0  0  0  0
   37.6452   25.1311   38.9286 H   0  0  0  0  0  0  0  0  0  0  0  0
  1  2  1  0
  1 11  1  0
  3  2  1  0
  4  3  1  0
  5  4  1  0
  5  6  1  0
  6  1  1  0
  7  8  2  0
  9  8  1  0
 10  9  2  0
 11 10  1  0
 11 12  2  0
 12  7  1  0
 13 17  2  0
 13  6  1  0
 14 13  1  0
 15 14  2  0
 15 16  1  0
 16 17  1  0
  1 18  1  6
  2 19  1  0
  2 20  1  0
  3 21  1  0
  3 22  1  0
  4 23  1  0
  4 24  1  0
  5 25  1  0
  5 26  1  0
  6 27  1  1
  7 28  1  0
  8 29  1  0
  9 30  1  0
 14 31  1  0
 15 32  1  0
 16 33  1  0
M  ISO  8  18  13  19  13  20  13  21  13  22  13  23  13  24  13  25  13
M  ISO  8  26  13  27  13  28  14  29  14  30  14  31  14  32  14  33   9
M  END
>  <minimizedAffinity>  (1) 
-4.42735243

>  <minimizedRMSD>  (1) 
0.639724195

$$$$
