
     RDKit          3D

 32 34  0  0  1  0  0  0  0  0999 V2000
   37.1640   30.1820   40.4100 C   0  0  1  0  0  0  0  0  0  0  0  0
   37.7050   31.5500   40.6730 C   0  0  0  0  0  0  0  0  0  0  0  0
   37.1580   32.4710   39.6420 C   0  0  0  0  0  0  0  0  0  0  0  0
   37.3810   32.0100   38.2380 C   0  0  0  0  0  0  0  0  0  0  0  0
   37.2700   30.5400   37.9990 C   0  0  0  0  0  0  0  0  0  0  0  0
   37.8210   29.6810   39.1160 C   0  0  2  0  0  0  0  0  0  0  0  0
   38.9360   28.3890   43.0930 C   0  0  0  0  0  0  0  0  0  0  0  0
   37.9190   27.5620   43.6430 C   0  0  0  0  0  0  0  0  0  0  0  0
   36.6220   27.6140   43.0860 C   0  0  0  0  0  0  0  0  0  0  0  0
   36.4260   28.4630   42.0440 N   0  0  0  0  0  0  0  0  0  0  0  0
   37.4080   29.2400   41.5370 C   0  0  0  0  0  0  0  0  0  0  0  0
   38.6500   29.1980   42.0610 N   0  0  0  0  0  0  0  0  0  0  0  0
   37.2370   28.3560   38.8960 N   0  0  0  0  0  0  0  0  0  0  0  0
   35.9490   28.2670   38.4680 C   0  0  0  0  0  0  0  0  0  0  0  0
   35.6450   26.9700   38.3390 N   0  0  0  0  0  0  0  0  0  0  0  0
   36.7290   26.2840   38.6820 C   0  0  0  0  0  0  0  0  0  0  0  0
   37.7270   27.1440   39.0300 N   0  0  0  0  0  0  0  0  0  0  0  0
   36.0700   30.2320   40.3067 H   0  0  0  0  0  0  0  0  0  0  0  0
   37.3970   31.8863   41.6740 H   0  0  0  0  0  0  0  0  0  0  0  0
   38.8041   31.5393   40.6288 H   0  0  0  0  0  0  0  0  0  0  0  0
   36.0748   32.5702   39.8060 H   0  0  0  0  0  0  0  0  0  0  0  0
   37.6914   33.4267   39.7526 H   0  0  0  0  0  0  0  0  0  0  0  0
   36.6386   32.5105   37.5990 H   0  0  0  0  0  0  0  0  0  0  0  0
   38.4254   32.2667   38.0073 H   0  0  0  0  0  0  0  0  0  0  0  0
   36.2063   30.2923   37.8674 H   0  0  0  0  0  0  0  0  0  0  0  0
   37.8753   30.3207   37.1071 H   0  0  0  0  0  0  0  0  0  0  0  0
   38.9201   29.6908   39.1581 H   0  0  0  0  0  0  0  0  0  0  0  0
   39.9530   28.3660   43.5114 H   0  0  0  0  0  0  0  0  0  0  0  0
   38.1384   26.8929   44.4881 H   0  0  0  0  0  0  0  0  0  0  0  0
   35.8043   26.9925   43.4799 H   0  0  0  0  0  0  0  0  0  0  0  0
   35.2756   29.1124   38.2638 H   0  0  0  0  0  0  0  0  0  0  0  0
   36.8092   25.1869   38.6848 H   0  0  0  0  0  0  0  0  0  0  0  0
  1  2  1  0
  1 11  1  0
  3  2  1  0
  4  3  1  0
  5  4  1  0
  5  6  1  0
  6  1  1  0
  7  8  2  0
  9  8  1  0
 10  9  2  0
 11 10  1  0
 11 12  2  0
 12  7  1  0
 13 17  1  0
 13  6  1  0
 14 13  1  0
 15 14  2  0
 15 16  1  0
 16 17  2  0
  1 18  1  6
  2 19  1  0
  2 20  1  0
  3 21  1  0
  3 22  1  0
  4 23  1  0
  4 24  1  0
  5 25  1  0
  5 26  1  0
  6 27  1  1
  7 28  1  0
  8 29  1  0
  9 30  1  0
 14 31  1  0
 16 32  1  0
M  ISO  8  18  13  19  13  20  13  21  13  22  13  23  13  24  13  25  13
M  ISO  7  26  13  27  13  28  14  29  14  30  14  31  14  32  14
M  END
>  <minimizedAffinity>  (1) 
-4.35598564

>  <minimizedRMSD>  (1) 
0.506737351

$$$$
