
     RDKit          3D

 27 28  0  0  1  0  0  0  0  0999 V2000
   37.1950   30.2340   40.2980 C   0  0  1  0  0  0  0  0  0  0  0  0
   37.5090   31.6630   40.6240 C   0  0  0  0  0  0  0  0  0  0  0  0
   37.0510   32.5110   39.4930 C   0  0  0  0  0  0  0  0  0  0  0  0
   37.5320   32.0640   38.1510 C   0  0  0  0  0  0  0  0  0  0  0  0
   37.6650   30.6010   37.9410 C   0  0  0  0  0  0  0  0  0  0  0  0
   38.1440   29.8400   39.1590 C   0  0  2  0  0  0  0  0  0  0  0  0
   38.5820   28.6970   43.3300 C   0  0  0  0  0  0  0  0  0  0  0  0
   37.5870   27.7450   43.6780 C   0  0  0  0  0  0  0  0  0  0  0  0
   36.4400   27.6190   42.8700 C   0  0  0  0  0  0  0  0  0  0  0  0
   36.3430   28.4370   41.7710 N   0  0  0  0  0  0  0  0  0  0  0  0
   37.3240   29.3360   41.4780 C   0  0  0  0  0  0  0  0  0  0  0  0
   38.4280   29.4670   42.2430 N   0  0  0  0  0  0  0  0  0  0  0  0
   38.1120   28.0790   38.8430 S   0  0  0  0  0  0  0  0  0  0  0  0
   36.1443   30.1270   39.9905 H   0  0  0  0  0  0  0  0  0  0  0  0
   36.9859   31.9579   41.5456 H   0  0  0  0  0  0  0  0  0  0  0  0
   38.5911   31.7878   40.7774 H   0  0  0  0  0  0  0  0  0  0  0  0
   35.9511   32.5063   39.4831 H   0  0  0  0  0  0  0  0  0  0  0  0
   37.4746   33.5123   39.6603 H   0  0  0  0  0  0  0  0  0  0  0  0
   36.8243   32.4450   37.4000 H   0  0  0  0  0  0  0  0  0  0  0  0
   38.5541   32.4612   38.0646 H   0  0  0  0  0  0  0  0  0  0  0  0
   36.6813   30.2034   37.6507 H   0  0  0  0  0  0  0  0  0  0  0  0
   38.4282   30.4618   37.1611 H   0  0  0  0  0  0  0  0  0  0  0  0
   39.1842   30.0852   39.4195 H   0  0  0  0  0  0  0  0  0  0  0  0
   39.4816   28.8030   43.9541 H   0  0  0  0  0  0  0  0  0  0  0  0
   37.7108   27.1125   44.5694 H   0  0  0  0  0  0  0  0  0  0  0  0
   35.6505   26.8917   43.1106 H   0  0  0  0  0  0  0  0  0  0  0  0
   38.0997   27.4015   40.0337 H   0  0  0  0  0  0  0  0  0  0  0  0
  1  2  1  0
  1 11  1  0
  3  2  1  0
  4  3  1  0
  5  4  1  0
  5  6  1  0
  6  1  1  0
  7  8  2  0
  9  8  1  0
 10  9  2  0
 11 10  1  0
 11 12  2  0
 12  7  1  0
 13  6  1  0
  1 14  1  6
  2 15  1  0
  2 16  1  0
  3 17  1  0
  3 18  1  0
  4 19  1  0
  4 20  1  0
  5 21  1  0
  5 22  1  0
  6 23  1  1
  7 24  1  0
  8 25  1  0
  9 26  1  0
 13 27  1  0
M  ISO  8  14  13  15  13  16  13  17  13  18  13  19  13  20  13  21  13
M  ISO  6  22  13  23  13  24  14  25  14  26  14  27  11
M  END
>  <minimizedAffinity>  (1) 
-4.00219202

>  <minimizedRMSD>  (1) 
0.406912595

$$$$
