
     RDKit          3D

 20 21  0  0  0  0  0  0  0  0999 V2000
   40.9890   28.2280   42.9300 C   0  0  0  0  0  0  0  0  0  0  0  0
   39.6380   27.9600   43.2350 C   0  0  0  0  0  0  0  0  0  0  0  0
   39.3480   26.6900   43.7750 C   0  0  0  0  0  0  0  0  0  0  0  0
   40.3640   25.8300   43.9600 N   0  0  0  0  0  0  0  0  0  0  0  0
   41.6460   26.1150   43.6590 C   0  0  0  0  0  0  0  0  0  0  0  0
   41.9410   27.3150   43.1460 N   0  0  0  0  0  0  0  0  0  0  0  0
   38.5290   28.8910   43.0370 C   0  0  0  0  0  0  0  0  0  0  0  0
   38.6970   30.0850   42.6670 O   0  0  0  0  0  0  0  0  0  0  0  0
   37.2740   28.3590   43.2850 O   0  0  0  0  0  0  0  0  0  0  0  0
   36.4370   27.8630   42.2850 C   0  0  0  0  0  0  0  0  0  0  0  0
   36.9000   27.5450   40.9240 C   0  0  0  0  0  0  0  0  0  0  0  0
   35.9520   28.7170   41.1830 C   0  0  0  0  0  0  0  0  0  0  0  0
   41.2638   29.2055   42.5070 H   0  0  0  0  0  0  0  0  0  0  0  0
   38.3171   26.4106   44.0379 H   0  0  0  0  0  0  0  0  0  0  0  0
   42.4384   25.3721   43.8325 H   0  0  0  0  0  0  0  0  0  0  0  0
   35.9525   27.2692   43.0741 H   0  0  0  0  0  0  0  0  0  0  0  0
   36.5359   26.6416   40.4129 H   0  0  0  0  0  0  0  0  0  0  0  0
   37.8787   27.4205   40.4375 H   0  0  0  0  0  0  0  0  0  0  0  0
   36.3114   29.7520   41.0852 H   0  0  0  0  0  0  0  0  0  0  0  0
   34.9669   29.0290   40.8058 H   0  0  0  0  0  0  0  0  0  0  0  0
  1  6  2  0
  1  2  1  0
  2  3  2  0
  3  4  1  0
  5  4  2  0
  6  5  1  0
  7  2  1  0
  7  9  1  0
  8  7  2  0
 10  9  1  0
 11 12  1  0
 11 10  1  0
 12 10  1  0
  1 13  1  0
  3 14  1  0
  5 15  1  0
 10 16  1  0
 11 17  1  0
 11 18  1  0
 12 19  1  0
 12 20  1  0
M  ISO  8  13  14  14  14  15  14  16  13  17  13  18  13  19  13  20  13
M  END
>  <minimizedAffinity>  (1) 
-3.26119733

>  <minimizedRMSD>  (1) 
3.88247395

$$$$
