
     RDKit          3D

 15 15  0  0  0  0  0  0  0  0999 V2000
   38.2610   29.3540   43.0710 C   0  0  0  0  0  0  0  0  0  0  0  0
   37.6640   29.7850   41.8880 C   0  0  0  0  0  0  0  0  0  0  0  0
   36.6020   29.0110   41.3770 C   0  0  0  0  0  0  0  0  0  0  0  0
   36.2370   27.9150   42.0610 N   0  0  0  0  0  0  0  0  0  0  0  0
   36.8320   27.5180   43.2100 C   0  0  0  0  0  0  0  0  0  0  0  0
   37.8380   28.2430   43.7010 N   0  0  0  0  0  0  0  0  0  0  0  0
   38.0600   30.9790   41.1370 C   0  0  0  0  0  0  0  0  0  0  0  0
   39.2450   31.3040   40.9020 O   0  0  0  0  0  0  0  0  0  0  0  0
   36.9770   31.7580   40.6860 O   0  0  0  0  0  0  0  0  0  0  0  0
   37.1770   32.5050   39.5090 C   0  0  0  0  0  0  0  0  0  0  0  0
   37.2430   33.7610   39.5870 O   0  0  0  0  0  0  0  0  0  0  0  0
   39.0935   29.9328   43.4977 H   0  0  0  0  0  0  0  0  0  0  0  0
   36.0886   29.2963   40.4469 H   0  0  0  0  0  0  0  0  0  0  0  0
   36.4910   26.6112   43.7310 H   0  0  0  0  0  0  0  0  0  0  0  0
   37.2741   31.9999   38.5367 H   0  0  0  0  0  0  0  0  0  0  0  0
  1  6  2  0
  2  1  1  0
  3  2  2  0
  3  4  1  0
  4  5  2  0
  5  6  1  0
  7  2  1  0
  8  7  2  0
  9  7  1  0
 10 11  2  0
 10  9  1  0
  1 12  1  0
  3 13  1  0
  5 14  1  0
 10 15  1  0
M  ISO  4  12  14  13  14  14  14  15   6
M  END
>  <minimizedAffinity>  (1) 
-3.17705679

>  <minimizedRMSD>  (1) 
1.46491206

$$$$
