
     RDKit          3D

 29 31  0  0  0  0  0  0  0  0999 V2000
   38.6470   31.9430   39.8340 C   0  0  0  0  0  0  0  0  0  0  0  0
   39.0330   33.3510   40.0790 N   0  0  0  0  0  0  0  0  0  0  0  0
   38.2290   34.4380   39.9460 C   0  0  0  0  0  0  0  0  0  0  0  0
   38.9290   35.5500   40.2560 N   0  0  0  0  0  0  0  0  0  0  0  0
   40.1680   35.1980   40.5850 C   0  0  0  0  0  0  0  0  0  0  0  0
   41.3370   35.8240   40.9860 C   0  0  0  0  0  0  0  0  0  0  0  0
   42.4880   35.1690   41.2610 N   0  0  0  0  0  0  0  0  0  0  0  0
   42.4910   33.8270   41.1350 C   0  0  0  0  0  0  0  0  0  0  0  0
   41.3860   33.1720   40.7500 N   0  0  0  0  0  0  0  0  0  0  0  0
   40.2470   33.8240   40.4790 C   0  0  0  0  0  0  0  0  0  0  0  0
   41.3270   37.2410   41.1160 N   0  0  0  0  0  0  0  0  0  0  0  0
   38.3370   31.4220   41.0760 O   0  0  0  0  0  0  0  0  0  0  0  0
   37.2250   30.6290   41.3370 C   0  0  0  0  0  0  0  0  0  0  0  0
   36.1110   31.0200   40.9920 O   0  0  0  0  0  0  0  0  0  0  0  0
   38.7110   29.1840   42.7770 C   0  0  0  0  0  0  0  0  0  0  0  0
   37.5320   29.3610   42.0230 C   0  0  0  0  0  0  0  0  0  0  0  0
   36.6270   28.3170   41.9090 C   0  0  0  0  0  0  0  0  0  0  0  0
   36.9450   27.1700   42.5440 N   0  0  0  0  0  0  0  0  0  0  0  0
   38.0730   26.9940   43.2680 C   0  0  0  0  0  0  0  0  0  0  0  0
   38.9550   28.0150   43.3780 N   0  0  0  0  0  0  0  0  0  0  0  0
   37.7728   31.8947   39.1681 H   0  0  0  0  0  0  0  0  0  0  0  0
   39.4547   31.3783   39.3454 H   0  0  0  0  0  0  0  0  0  0  0  0
   37.1742   34.4156   39.6348 H   0  0  0  0  0  0  0  0  0  0  0  0
   43.4103   33.2627   41.3504 H   0  0  0  0  0  0  0  0  0  0  0  0
   42.1797   37.7370   41.4122 H   0  0  0  0  0  0  0  0  0  0  0  0
   40.4670   37.7706   40.9139 H   0  0  0  0  0  0  0  0  0  0  0  0
   39.4314   30.0099   42.8707 H   0  0  0  0  0  0  0  0  0  0  0  0
   35.6971   28.4187   41.3303 H   0  0  0  0  0  0  0  0  0  0  0  0
   38.2720   26.0317   43.7623 H   0  0  0  0  0  0  0  0  0  0  0  0
  1  2  1  0
  1 12  1  0
  2 10  1  0
  3  2  1  0
  3  4  2  0
  4  5  1  0
  5  6  2  0
  6 11  1  0
  6  7  1  0
  8  7  2  0
  9  8  1  0
 10  5  1  0
 10  9  2  0
 12 13  1  0
 13 16  1  0
 14 13  2  0
 15 20  2  0
 16 15  1  0
 17 16  2  0
 17 18  1  0
 18 19  2  0
 19 20  1  0
  1 21  1  0
  1 22  1  0
  3 23  1  0
  8 24  1  0
 11 25  1  0
 11 26  1  0
 15 27  1  0
 17 28  1  0
 19 29  1  0
M  ISO  7  21   8  22   8  23  14  24  14  27  14  28  14  29  14
M  END
>  <minimizedAffinity>  (1) 
-5.52766562

>  <minimizedRMSD>  (1) 
3.0309732

$$$$
