
     RDKit          3D

 30 32  0  0  0  0  0  0  0  0999 V2000
   37.3850   32.5870   39.9040 C   0  0  0  0  0  0  0  0  0  0  0  0
   38.7950   33.0000   40.1230 C   0  0  0  0  0  0  0  0  0  0  0  0
   39.8640   32.1400   40.3400 C   0  0  0  0  0  0  0  0  0  0  0  0
   41.0110   32.8250   40.5060 N   0  0  0  0  0  0  0  0  0  0  0  0
   40.6710   34.1220   40.3940 C   0  0  0  0  0  0  0  0  0  0  0  0
   41.4300   35.2950   40.4720 C   0  0  0  0  0  0  0  0  0  0  0  0
   40.8350   36.5450   40.3200 C   0  0  0  0  0  0  0  0  0  0  0  0
   39.4790   36.6560   40.0850 C   0  0  0  0  0  0  0  0  0  0  0  0
   38.7320   35.5160   40.0070 C   0  0  0  0  0  0  0  0  0  0  0  0
   39.3190   34.2780   40.1580 C   0  0  0  0  0  0  0  0  0  0  0  0
   36.9370   31.7560   40.8980 O   0  0  0  0  0  0  0  0  0  0  0  0
   36.4860   30.4640   40.6760 C   0  0  0  0  0  0  0  0  0  0  0  0
   35.7460   30.2390   39.7290 O   0  0  0  0  0  0  0  0  0  0  0  0
   38.0700   29.7220   42.4700 C   0  0  0  0  0  0  0  0  0  0  0  0
   36.9700   29.4600   41.6520 C   0  0  0  0  0  0  0  0  0  0  0  0
   36.3110   28.2420   41.7290 C   0  0  0  0  0  0  0  0  0  0  0  0
   36.8000   27.3640   42.6220 N   0  0  0  0  0  0  0  0  0  0  0  0
   37.8680   27.6120   43.4200 C   0  0  0  0  0  0  0  0  0  0  0  0
   38.4990   28.8010   43.3360 N   0  0  0  0  0  0  0  0  0  0  0  0
   36.7508   33.4854   39.8784 H   0  0  0  0  0  0  0  0  0  0  0  0
   37.3335   32.0390   38.9516 H   0  0  0  0  0  0  0  0  0  0  0  0
   39.7839   31.0434   40.3720 H   0  0  0  0  0  0  0  0  0  0  0  0
   41.9494   32.4384   40.6815 H   0  0  0  0  0  0  0  0  0  0  0  0
   42.5125   35.2288   40.6561 H   0  0  0  0  0  0  0  0  0  0  0  0
   41.4518   37.4533   40.3879 H   0  0  0  0  0  0  0  0  0  0  0  0
   39.0099   37.6434   39.9630 H   0  0  0  0  0  0  0  0  0  0  0  0
   37.6500   35.5861   39.8217 H   0  0  0  0  0  0  0  0  0  0  0  0
   38.5856   30.6912   42.4009 H   0  0  0  0  0  0  0  0  0  0  0  0
   35.4410   28.0085   41.0977 H   0  0  0  0  0  0  0  0  0  0  0  0
   38.2173   26.8487   44.1309 H   0  0  0  0  0  0  0  0  0  0  0  0
  1  2  1  0
  1 11  1  0
  2 10  1  0
  2  3  2  0
  3  4  1  0
  5  6  2  0
  5  4  1  0
  7  6  1  0
  8  7  2  0
  9  8  1  0
  9 10  2  0
 10  5  1  0
 12 11  1  0
 12 15  1  0
 13 12  2  0
 14 19  2  0
 15 16  2  0
 15 14  1  0
 16 17  1  0
 17 18  2  0
 19 18  1  0
  1 20  1  0
  1 21  1  0
  3 22  1  0
  4 23  1  0
  6 24  1  0
  7 25  1  0
  8 26  1  0
  9 27  1  0
 14 28  1  0
 16 29  1  0
 18 30  1  0
M  ISO  8  20   8  21   8  22  14  23   9  24  14  25  14  26  14  27  14
M  ISO  3  28  14  29  14  30  14
M  END
>  <minimizedAffinity>  (1) 
-5.35712194

>  <minimizedRMSD>  (1) 
2.54696655

$$$$
