
     RDKit          3D

 27 29  0  0  0  0  0  0  0  0999 V2000
   37.3610   32.6170   39.9000 C   0  0  0  0  0  0  0  0  0  0  0  0
   38.7850   32.9590   40.1290 N   0  0  0  0  0  0  0  0  0  0  0  0
   39.8290   32.1110   40.3460 C   0  0  0  0  0  0  0  0  0  0  0  0
   40.9470   32.8430   40.5060 N   0  0  0  0  0  0  0  0  0  0  0  0
   40.6360   34.1540   40.3930 C   0  0  0  0  0  0  0  0  0  0  0  0
   41.4350   35.2830   40.4790 C   0  0  0  0  0  0  0  0  0  0  0  0
   40.8340   36.4880   40.3220 N   0  0  0  0  0  0  0  0  0  0  0  0
   39.4940   36.5750   40.0880 C   0  0  0  0  0  0  0  0  0  0  0  0
   38.7370   35.4490   40.0090 N   0  0  0  0  0  0  0  0  0  0  0  0
   39.2730   34.2240   40.1570 C   0  0  0  0  0  0  0  0  0  0  0  0
   37.0340   31.7580   40.9310 O   0  0  0  0  0  0  0  0  0  0  0  0
   36.4930   30.4900   40.7360 C   0  0  0  0  0  0  0  0  0  0  0  0
   35.6680   30.2860   39.8240 O   0  0  0  0  0  0  0  0  0  0  0  0
   38.1060   29.7040   42.5180 C   0  0  0  0  0  0  0  0  0  0  0  0
   36.9870   29.4750   41.6860 C   0  0  0  0  0  0  0  0  0  0  0  0
   36.3180   28.2590   41.7440 C   0  0  0  0  0  0  0  0  0  0  0  0
   36.8080   27.3520   42.6290 N   0  0  0  0  0  0  0  0  0  0  0  0
   37.8710   27.5700   43.4190 C   0  0  0  0  0  0  0  0  0  0  0  0
   38.5150   28.7530   43.3570 N   0  0  0  0  0  0  0  0  0  0  0  0
   36.7349   33.5208   39.9354 H   0  0  0  0  0  0  0  0  0  0  0  0
   37.1972   32.1614   38.9123 H   0  0  0  0  0  0  0  0  0  0  0  0
   39.7684   31.0133   40.3840 H   0  0  0  0  0  0  0  0  0  0  0  0
   42.5159   35.2044   40.6675 H   0  0  0  0  0  0  0  0  0  0  0  0
   39.0231   37.5612   39.9625 H   0  0  0  0  0  0  0  0  0  0  0  0
   38.6384   30.6655   42.4731 H   0  0  0  0  0  0  0  0  0  0  0  0
   35.4442   28.0434   41.1116 H   0  0  0  0  0  0  0  0  0  0  0  0
   38.2146   26.7885   44.1126 H   0  0  0  0  0  0  0  0  0  0  0  0
  1  2  1  0
  1 11  1  0
  2 10  1  0
  2  3  1  0
  3  4  2  0
  5  6  2  0
  5  4  1  0
  7  6  1  0
  8  7  2  0
  9  8  1  0
  9 10  2  0
 10  5  1  0
 12 11  1  0
 12 15  1  0
 13 12  2  0
 14 19  2  0
 15 16  2  0
 15 14  1  0
 16 17  1  0
 17 18  2  0
 19 18  1  0
  1 20  1  0
  1 21  1  0
  3 22  1  0
  6 23  1  0
  8 24  1  0
 14 25  1  0
 16 26  1  0
 18 27  1  0
M  ISO  8  20   8  21   8  22  14  23  14  24  14  25  14  26  14  27  14
M  END
>  <minimizedAffinity>  (1) 
-5.09366989

>  <minimizedRMSD>  (1) 
2.56181598

$$$$
