
     RDKit          3D

 30 31  0  0  0  0  0  0  0  0999 V2000
   36.1630   30.1340   40.9040 C   0  0  0  0  0  0  0  0  0  0  0  0
   35.2570   29.8070   40.1400 O   0  0  0  0  0  0  0  0  0  0  0  0
   38.1070   29.6400   42.4330 C   0  0  0  0  0  0  0  0  0  0  0  0
   36.9150   29.2380   41.8080 C   0  0  0  0  0  0  0  0  0  0  0  0
   36.4170   27.9620   42.0220 C   0  0  0  0  0  0  0  0  0  0  0  0
   37.1330   27.1660   42.8430 N   0  0  0  0  0  0  0  0  0  0  0  0
   38.2840   27.5520   43.4490 C   0  0  0  0  0  0  0  0  0  0  0  0
   38.7660   28.8080   43.2330 N   0  0  0  0  0  0  0  0  0  0  0  0
   36.5550   31.4690   40.9580 O   0  0  0  0  0  0  0  0  0  0  0  0
   37.0990   32.1700   39.9030 C   0  0  0  0  0  0  0  0  0  0  0  0
   38.3420   32.8340   40.2230 N   0  0  0  0  0  0  0  0  0  0  0  0
   39.5030   32.2110   39.6770 C   0  0  0  0  0  0  0  0  0  0  0  0
   40.6590   32.5960   40.6090 C   0  0  0  0  0  0  0  0  0  0  0  0
   40.5430   33.9880   40.9780 N   0  0  0  0  0  0  0  0  0  0  0  0
   39.7420   34.7380   40.0410 C   0  0  0  0  0  0  0  0  0  0  0  0
   38.3090   34.2500   40.1520 C   0  0  0  0  0  0  0  0  0  0  0  0
   38.4988   30.6530   42.2587 H   0  0  0  0  0  0  0  0  0  0  0  0
   35.4868   27.6166   41.5473 H   0  0  0  0  0  0  0  0  0  0  0  0
   38.8234   26.8568   44.1091 H   0  0  0  0  0  0  0  0  0  0  0  0
   36.3726   32.9305   39.5806 H   0  0  0  0  0  0  0  0  0  0  0  0
   37.3211   31.4380   39.1125 H   0  0  0  0  0  0  0  0  0  0  0  0
   39.3768   31.1185   39.6538 H   0  0  0  0  0  0  0  0  0  0  0  0
   39.6898   32.5367   38.6431 H   0  0  0  0  0  0  0  0  0  0  0  0
   40.6215   31.9731   41.5149 H   0  0  0  0  0  0  0  0  0  0  0  0
   41.6152   32.4349   40.0897 H   0  0  0  0  0  0  0  0  0  0  0  0
   40.1071   34.0486   41.9092 H   0  0  0  0  0  0  0  0  0  0  0  0
   40.1135   34.5753   39.0185 H   0  0  0  0  0  0  0  0  0  0  0  0
   39.7977   35.8133   40.2661 H   0  0  0  0  0  0  0  0  0  0  0  0
   37.8424   34.6602   41.0598 H   0  0  0  0  0  0  0  0  0  0  0  0
   37.7205   34.5794   39.2830 H   0  0  0  0  0  0  0  0  0  0  0  0
  1  9  1  0
  1  4  1  0
  2  1  2  0
  3  8  2  0
  4  5  2  0
  4  3  1  0
  5  6  1  0
  6  7  2  0
  8  7  1  0
 10 11  1  0
 10  9  1  0
 12 11  1  0
 12 13  1  0
 13 14  1  0
 15 16  1  0
 15 14  1  0
 16 11  1  0
  3 17  1  0
  5 18  1  0
  7 19  1  0
 10 20  1  0
 10 21  1  0
 12 22  1  0
 12 23  1  0
 13 24  1  0
 13 25  1  0
 14 26  1  0
 15 27  1  0
 15 28  1  0
 16 29  1  0
 16 30  1  0
M  ISO  8  17  14  18  14  19  14  20   8  21   8  22  13  23  13  24  13
M  ISO  6  25  13  26   5  27  13  28  13  29  13  30  13
M  END
>  <minimizedAffinity>  (1) 
-4.43952847

>  <minimizedRMSD>  (1) 
1.45091581

$$$$
