
     RDKit          3D

 21 22  0  0  0  0  0  0  0  0999 V2000
   35.9680   29.6200   41.0220 C   0  0  0  0  0  0  0  0  0  0  0  0
   34.9690   29.1600   40.4820 O   0  0  0  0  0  0  0  0  0  0  0  0
   38.0550   29.4830   42.4310 C   0  0  0  0  0  0  0  0  0  0  0  0
   36.9110   28.8680   41.8750 C   0  0  0  0  0  0  0  0  0  0  0  0
   36.6660   27.5250   42.1190 C   0  0  0  0  0  0  0  0  0  0  0  0
   37.5640   26.8960   42.8870 N   0  0  0  0  0  0  0  0  0  0  0  0
   38.6640   27.4860   43.4230 C   0  0  0  0  0  0  0  0  0  0  0  0
   38.9000   28.7960   43.1840 N   0  0  0  0  0  0  0  0  0  0  0  0
   36.2750   30.9650   40.8410 O   0  0  0  0  0  0  0  0  0  0  0  0
   36.7590   31.5020   39.6640 C   0  0  0  0  0  0  0  0  0  0  0  0
   37.5490   32.7530   40.0000 C   0  0  0  0  0  0  0  0  0  0  0  0
   37.3110   33.9960   39.5420 N   0  0  0  0  0  0  0  0  0  0  0  0
   38.2100   34.7780   40.0650 O   0  0  0  0  0  0  0  0  0  0  0  0
   39.0120   34.1150   40.8320 C   0  0  0  0  0  0  0  0  0  0  0  0
   38.6350   32.8290   40.8240 N   0  0  0  0  0  0  0  0  0  0  0  0
   38.2465   30.5484   42.2354 H   0  0  0  0  0  0  0  0  0  0  0  0
   35.7871   27.0080   41.7065 H   0  0  0  0  0  0  0  0  0  0  0  0
   39.3574   26.9027   44.0466 H   0  0  0  0  0  0  0  0  0  0  0  0
   35.9205   31.7589   39.0000 H   0  0  0  0  0  0  0  0  0  0  0  0
   37.4040   30.7728   39.1520 H   0  0  0  0  0  0  0  0  0  0  0  0
   39.8589   34.5345   41.3948 H   0  0  0  0  0  0  0  0  0  0  0  0
  1  4  1  0
  2  1  2  0
  3  8  2  0
  4  5  2  0
  4  3  1  0
  5  6  1  0
  6  7  2  0
  8  7  1  0
  9  1  1  0
 10 11  1  0
 10  9  1  0
 11 15  1  0
 12 11  2  0
 12 13  1  0
 13 14  1  0
 15 14  2  0
  3 16  1  0
  5 17  1  0
  7 18  1  0
 10 19  1  0
 10 20  1  0
 14 21  1  0
M  ISO  6  16  14  17  14  18  14  19   8  20   8  21  14
M  END
>  <minimizedAffinity>  (1) 
-4.25379467

>  <minimizedRMSD>  (1) 
0.708673

$$$$
