
     RDKit          3D

 28 29  0  0  0  0  0  0  0  0999 V2000
   36.1700   30.0040   40.9730 C   0  0  0  0  0  0  0  0  0  0  0  0
   35.1670   29.6870   40.3400 O   0  0  0  0  0  0  0  0  0  0  0  0
   38.1730   29.5250   42.4300 C   0  0  0  0  0  0  0  0  0  0  0  0
   36.9430   29.1240   41.8710 C   0  0  0  0  0  0  0  0  0  0  0  0
   36.4400   27.8640   42.1660 C   0  0  0  0  0  0  0  0  0  0  0  0
   37.1850   27.1040   42.9830 N   0  0  0  0  0  0  0  0  0  0  0  0
   38.3630   27.4810   43.5200 C   0  0  0  0  0  0  0  0  0  0  0  0
   38.8540   28.7160   43.2300 N   0  0  0  0  0  0  0  0  0  0  0  0
   36.6800   31.3000   40.8830 O   0  0  0  0  0  0  0  0  0  0  0  0
   36.9840   31.9440   39.7200 C   0  0  0  0  0  0  0  0  0  0  0  0
   38.1180   32.7710   39.6040 N   0  0  0  0  0  0  0  0  0  0  0  0
   37.6670   34.1630   39.6810 C   0  0  0  0  0  0  0  0  0  0  0  0
   38.7720   34.9320   40.3310 C   0  0  0  0  0  0  0  0  0  0  0  0
   39.8650   33.9360   40.5470 C   0  0  0  0  0  0  0  0  0  0  0  0
   39.1120   32.6180   40.6140 C   0  0  0  0  0  0  0  0  0  0  0  0
   38.5737   30.5231   42.1994 H   0  0  0  0  0  0  0  0  0  0  0  0
   35.4843   27.5088   41.7531 H   0  0  0  0  0  0  0  0  0  0  0  0
   38.9183   26.8005   44.1822 H   0  0  0  0  0  0  0  0  0  0  0  0
   37.0919   31.1626   38.9534 H   0  0  0  0  0  0  0  0  0  0  0  0
   36.1589   32.6660   39.6309 H   0  0  0  0  0  0  0  0  0  0  0  0
   37.4730   34.5559   38.6721 H   0  0  0  0  0  0  0  0  0  0  0  0
   36.7326   34.2471   40.2552 H   0  0  0  0  0  0  0  0  0  0  0  0
   39.1148   35.7452   39.6743 H   0  0  0  0  0  0  0  0  0  0  0  0
   38.4496   35.4006   41.2725 H   0  0  0  0  0  0  0  0  0  0  0  0
   40.5781   33.9426   39.7095 H   0  0  0  0  0  0  0  0  0  0  0  0
   40.4677   34.1390   41.4445 H   0  0  0  0  0  0  0  0  0  0  0  0
   38.6530   32.4737   41.6032 H   0  0  0  0  0  0  0  0  0  0  0  0
   39.7565   31.7398   40.4614 H   0  0  0  0  0  0  0  0  0  0  0  0
  1  4  1  0
  2  1  2  0
  3  8  2  0
  4  5  2  0
  4  3  1  0
  5  6  1  0
  6  7  2  0
  8  7  1  0
  9  1  1  0
 10  9  1  0
 11 12  1  0
 11 10  1  0
 11 15  1  0
 12 13  1  0
 13 14  1  0
 14 15  1  0
  3 16  1  0
  5 17  1  0
  7 18  1  0
 10 19  1  0
 10 20  1  0
 12 21  1  0
 12 22  1  0
 13 23  1  0
 13 24  1  0
 14 25  1  0
 14 26  1  0
 15 27  1  0
 15 28  1  0
M  ISO  8  16  14  17  14  18  14  19   8  20   8  21  13  22  13  23  13
M  ISO  5  24  13  25  13  26  13  27  13  28  13
M  END
>  <minimizedAffinity>  (1) 
-4.09562969

>  <minimizedRMSD>  (1) 
1.80960047

$$$$
