
     RDKit          3D

 29 30  0  0  0  0  0  0  0  0999 V2000
   35.7510   29.6650   40.4950 C   0  0  0  0  0  0  0  0  0  0  0  0
   34.6730   29.1860   40.1650 O   0  0  0  0  0  0  0  0  0  0  0  0
   37.7140   29.9020   42.0550 C   0  0  0  0  0  0  0  0  0  0  0  0
   36.6460   29.1310   41.5430 C   0  0  0  0  0  0  0  0  0  0  0  0
   36.4300   27.8470   42.0120 C   0  0  0  0  0  0  0  0  0  0  0  0
   37.2850   27.4150   42.9540 N   0  0  0  0  0  0  0  0  0  0  0  0
   38.3120   28.1580   43.4440 C   0  0  0  0  0  0  0  0  0  0  0  0
   38.5240   29.4030   42.9920 N   0  0  0  0  0  0  0  0  0  0  0  0
   36.2040   30.8100   39.8480 O   0  0  0  0  0  0  0  0  0  0  0  0
   36.7480   30.8130   38.5770 C   0  0  0  0  0  0  0  0  0  0  0  0
   37.4940   32.1410   38.3240 C   0  0  0  0  0  0  0  0  0  0  0  0
   37.2350   32.9900   39.5500 C   0  0  0  0  0  0  0  0  0  0  0  0
   38.5780   33.4580   39.9970 C   0  0  0  0  0  0  0  0  0  0  0  0
   39.5050   32.2940   39.6540 C   0  0  0  0  0  0  0  0  0  0  0  0
   38.9940   31.8740   38.2950 C   0  0  0  0  0  0  0  0  0  0  0  0
   37.8795   30.9222   41.6783 H   0  0  0  0  0  0  0  0  0  0  0  0
   35.6088   27.2188   41.6366 H   0  0  0  0  0  0  0  0  0  0  0  0
   38.9730   27.7361   44.2154 H   0  0  0  0  0  0  0  0  0  0  0  0
   37.4539   29.9748   38.4811 H   0  0  0  0  0  0  0  0  0  0  0  0
   35.9397   30.7070   37.8385 H   0  0  0  0  0  0  0  0  0  0  0  0
   37.1687   32.6085   37.3829 H   0  0  0  0  0  0  0  0  0  0  0  0
   36.5934   33.8468   39.2965 H   0  0  0  0  0  0  0  0  0  0  0  0
   36.7154   32.4244   40.3375 H   0  0  0  0  0  0  0  0  0  0  0  0
   38.8756   34.3681   39.4555 H   0  0  0  0  0  0  0  0  0  0  0  0
   38.6024   33.7194   41.0652 H   0  0  0  0  0  0  0  0  0  0  0  0
   40.5542   32.6205   39.6029 H   0  0  0  0  0  0  0  0  0  0  0  0
   39.4960   31.4857   40.4000 H   0  0  0  0  0  0  0  0  0  0  0  0
   39.1911   30.8055   38.1235 H   0  0  0  0  0  0  0  0  0  0  0  0
   39.4912   32.4257   37.4836 H   0  0  0  0  0  0  0  0  0  0  0  0
  1  4  1  0
  2  1  2  0
  3  8  2  0
  4  5  2  0
  4  3  1  0
  5  6  1  0
  6  7  2  0
  8  7  1  0
  9  1  1  0
 10  9  1  0
 11 10  1  0
 11 12  1  0
 12 13  1  0
 14 13  1  0
 15 11  1  0
 15 14  1  0
  3 16  1  0
  5 17  1  0
  7 18  1  0
 10 19  1  0
 10 20  1  0
 11 21  1  0
 12 22  1  0
 12 23  1  0
 13 24  1  0
 13 25  1  0
 14 26  1  0
 14 27  1  0
 15 28  1  0
 15 29  1  0
M  ISO  8  16  14  17  14  18  14  19   8  20   8  21  13  22  13  23  13
M  ISO  6  24  13  25  13  26  13  27  13  28  13  29  13
M  END
>  <minimizedAffinity>  (1) 
-4.07916832

>  <minimizedRMSD>  (1) 
1.22696972

$$$$
