
     RDKit          3D

 23 24  0  0  0  0  0  0  0  0999 V2000
   38.0840   29.6570   42.4060 C   0  0  0  0  0  0  0  0  0  0  0  0
   36.8930   29.2320   41.7730 C   0  0  0  0  0  0  0  0  0  0  0  0
   36.4260   27.9450   42.0180 C   0  0  0  0  0  0  0  0  0  0  0  0
   37.1630   27.1780   42.8650 N   0  0  0  0  0  0  0  0  0  0  0  0
   38.2940   27.5970   43.4600 C   0  0  0  0  0  0  0  0  0  0  0  0
   38.7530   28.8360   43.2280 N   0  0  0  0  0  0  0  0  0  0  0  0
   36.1380   30.0870   40.8680 C   0  0  0  0  0  0  0  0  0  0  0  0
   35.2010   29.7430   40.1470 O   0  0  0  0  0  0  0  0  0  0  0  0
   36.5540   31.4150   40.8520 O   0  0  0  0  0  0  0  0  0  0  0  0
   36.9490   32.1070   39.7290 C   0  0  0  0  0  0  0  0  0  0  0  0
   38.2840   32.7640   39.7230 C   0  0  0  0  0  0  0  0  0  0  0  0
   38.9530   33.2100   40.9620 C   0  0  0  0  0  0  0  0  0  0  0  0
   38.3050   34.2440   40.0620 C   0  0  0  0  0  0  0  0  0  0  0  0
   38.4656   30.6721   42.2219 H   0  0  0  0  0  0  0  0  0  0  0  0
   35.5056   27.5662   41.5496 H   0  0  0  0  0  0  0  0  0  0  0  0
   38.8421   26.9244   44.1362 H   0  0  0  0  0  0  0  0  0  0  0  0
   36.9352   31.3959   38.8899 H   0  0  0  0  0  0  0  0  0  0  0  0
   36.2400   32.9461   39.6713 H   0  0  0  0  0  0  0  0  0  0  0  0
   38.6172   32.1176   38.8977 H   0  0  0  0  0  0  0  0  0  0  0  0
   38.5055   32.9779   41.9397 H   0  0  0  0  0  0  0  0  0  0  0  0
   39.9590   33.0779   41.3869 H   0  0  0  0  0  0  0  0  0  0  0  0
   38.9265   34.9383   39.4775 H   0  0  0  0  0  0  0  0  0  0  0  0
   37.5504   35.0347   40.1862 H   0  0  0  0  0  0  0  0  0  0  0  0
  1  6  2  0
  2  3  2  0
  2  1  1  0
  3  4  1  0
  4  5  2  0
  6  5  1  0
  7  2  1  0
  8  7  2  0
  9  7  1  0
 10  9  1  0
 11 10  1  0
 11 13  1  0
 11 12  1  0
 13 12  1  0
  1 14  1  0
  3 15  1  0
  5 16  1  0
 10 17  1  0
 10 18  1  0
 11 19  1  0
 12 20  1  0
 12 21  1  0
 13 22  1  0
 13 23  1  0
M  ISO  8  14  14  15  14  16  14  17   8  18   8  19  13  20  13  21  13
M  ISO  2  22  13  23  13
M  END
>  <minimizedAffinity>  (1) 
-3.70021558

>  <minimizedRMSD>  (1) 
1.59613252

$$$$
