
     RDKit          3D

 18 18  0  0  0  0  0  0  0  0999 V2000
   38.3120   29.6470   42.7540 C   0  0  0  0  0  0  0  0  0  0  0  0
   37.4970   30.0530   41.6950 C   0  0  0  0  0  0  0  0  0  0  0  0
   36.4470   29.2570   41.2660 C   0  0  0  0  0  0  0  0  0  0  0  0
   36.2880   28.0890   41.9420 N   0  0  0  0  0  0  0  0  0  0  0  0
   37.0620   27.6900   42.9570 C   0  0  0  0  0  0  0  0  0  0  0  0
   38.0830   28.4800   43.3640 N   0  0  0  0  0  0  0  0  0  0  0  0
   37.7190   31.3320   40.9840 C   0  0  0  0  0  0  0  0  0  0  0  0
   36.9070   31.8880   40.2130 O   0  0  0  0  0  0  0  0  0  0  0  0
   38.9540   31.9240   41.2350 O   0  0  0  0  0  0  0  0  0  0  0  0
   39.3340   33.1500   40.7460 C   0  0  0  0  0  0  0  0  0  0  0  0
   38.6170   34.2750   41.3150 N   0  0  0  0  0  0  0  0  0  0  0  0
   39.1423   30.2876   43.0860 H   0  0  0  0  0  0  0  0  0  0  0  0
   35.7878   29.5503   40.4357 H   0  0  0  0  0  0  0  0  0  0  0  0
   36.8707   26.7288   43.4565 H   0  0  0  0  0  0  0  0  0  0  0  0
   40.4056   33.2853   40.9540 H   0  0  0  0  0  0  0  0  0  0  0  0
   39.1010   33.1430   39.6710 H   0  0  0  0  0  0  0  0  0  0  0  0
   38.6520   34.2200   42.3429 H   0  0  0  0  0  0  0  0  0  0  0  0
   39.0541   35.1540   41.0031 H   0  0  0  0  0  0  0  0  0  0  0  0
  1  6  2  0
  2  1  1  0
  3  2  2  0
  3  4  1  0
  4  5  2  0
  5  6  1  0
  7  9  1  0
  7  2  1  0
  8  7  2  0
 10  9  1  0
 10 11  1  0
  1 12  1  0
  3 13  1  0
  5 14  1  0
 10 15  1  0
 10 16  1  0
 11 17  1  0
 11 18  1  0
M  ISO  7  12  14  13  14  14  14  15   8  16   8  17   5  18   5
M  END
>  <minimizedAffinity>  (1) 
-3.44700384

>  <minimizedRMSD>  (1) 
2.21444321

$$$$
