
     RDKit          3D

 32 33  0  0  0  0  0  0  0  0999 V2000
   36.5470   31.2940   41.0180 O   0  0  0  0  0  0  0  0  0  0  0  0
   37.2510   32.0710   40.1770 C   0  0  0  0  0  0  0  0  0  0  0  0
   38.9120   32.2990   40.9420 S   0  0  0  0  0  0  0  0  0  0  0  0
   41.1810   35.6780   39.3050 N   0  0  0  0  0  0  0  0  0  0  0  0
   40.0460   36.1330   40.0830 C   0  0  0  0  0  0  0  0  0  0  0  0
   39.1700   35.0040   40.5790 C   0  0  0  0  0  0  0  0  0  0  0  0
   39.7840   33.6680   40.1670 C   0  0  0  0  0  0  0  0  0  0  0  0
   41.2150   33.6310   40.6790 C   0  0  0  0  0  0  0  0  0  0  0  0
   41.9870   34.8170   40.1470 C   0  0  0  0  0  0  0  0  0  0  0  0
   36.1150   29.9930   40.8580 C   0  0  0  0  0  0  0  0  0  0  0  0
   35.1960   29.7990   40.0750 O   0  0  0  0  0  0  0  0  0  0  0  0
   37.6000   29.3500   42.7730 C   0  0  0  0  0  0  0  0  0  0  0  0
   36.8270   28.9840   41.6660 C   0  0  0  0  0  0  0  0  0  0  0  0
   36.7080   27.6630   41.2900 C   0  0  0  0  0  0  0  0  0  0  0  0
   37.3910   26.7810   42.0750 N   0  0  0  0  0  0  0  0  0  0  0  0
   38.1310   27.1230   43.1350 C   0  0  0  0  0  0  0  0  0  0  0  0
   38.2380   28.4360   43.4920 N   0  0  0  0  0  0  0  0  0  0  0  0
   36.7534   33.0440   40.0520 H   0  0  0  0  0  0  0  0  0  0  0  0
   37.3313   31.6093   39.1818 H   0  0  0  0  0  0  0  0  0  0  0  0
   40.8524   35.1532   38.4819 H   0  0  0  0  0  0  0  0  0  0  0  0
   40.4206   36.6924   40.9529 H   0  0  0  0  0  0  0  0  0  0  0  0
   39.4281   36.7591   39.4226 H   0  0  0  0  0  0  0  0  0  0  0  0
   39.0959   35.0514   41.6755 H   0  0  0  0  0  0  0  0  0  0  0  0
   38.1656   35.0979   40.1404 H   0  0  0  0  0  0  0  0  0  0  0  0
   39.7267   33.5736   39.0726 H   0  0  0  0  0  0  0  0  0  0  0  0
   41.2092   33.6640   41.7785 H   0  0  0  0  0  0  0  0  0  0  0  0
   41.6969   32.7038   40.3354 H   0  0  0  0  0  0  0  0  0  0  0  0
   42.8390   34.4466   39.5580 H   0  0  0  0  0  0  0  0  0  0  0  0
   42.3173   35.4125   41.0109 H   0  0  0  0  0  0  0  0  0  0  0  0
   37.6799   30.4112   43.0513 H   0  0  0  0  0  0  0  0  0  0  0  0
   36.1088   27.3449   40.4241 H   0  0  0  0  0  0  0  0  0  0  0  0
   38.6518   26.3486   43.7174 H   0  0  0  0  0  0  0  0  0  0  0  0
  2  3  1  0
  2  1  1  0
  4  5  1  0
  4  9  1  0
  5  6  1  0
  7  6  1  0
  7  8  1  0
  7  3  1  0
  9  8  1  0
 10  1  1  0
 10 13  1  0
 11 10  2  0
 12 17  2  0
 13 12  1  0
 14 13  2  0
 14 15  1  0
 15 16  2  0
 16 17  1  0
  2 18  1  0
  2 19  1  0
  4 20  1  0
  5 21  1  0
  5 22  1  0
  6 23  1  0
  6 24  1  0
  7 25  1  0
  8 26  1  0
  8 27  1  0
  9 28  1  0
  9 29  1  0
 12 30  1  0
 14 31  1  0
 16 32  1  0
M  ISO  8  18   8  19   8  20   5  21  13  22  13  23  13  24  13  25  13
M  ISO  7  26  13  27  13  28  13  29  13  30  14  31  14  32  14
M  END
>  <minimizedAffinity>  (1) 
-4.5930562

>  <minimizedRMSD>  (1) 
1.03241968

$$$$
