
     RDKit          3D

 26 26  0  0  0  0  0  0  0  0999 V2000
   36.2530   30.1920   40.9240 C   0  0  0  0  0  0  0  0  0  0  0  0
   35.3550   29.9630   40.1090 O   0  0  0  0  0  0  0  0  0  0  0  0
   38.0450   29.5500   42.5420 C   0  0  0  0  0  0  0  0  0  0  0  0
   36.9020   29.2190   41.8100 C   0  0  0  0  0  0  0  0  0  0  0  0
   36.3510   27.9610   41.9040 C   0  0  0  0  0  0  0  0  0  0  0  0
   36.9900   27.1030   42.7370 N   0  0  0  0  0  0  0  0  0  0  0  0
   38.0910   27.4110   43.4450 C   0  0  0  0  0  0  0  0  0  0  0  0
   38.6340   28.6580   43.3510 N   0  0  0  0  0  0  0  0  0  0  0  0
   36.7150   31.4900   41.0300 O   0  0  0  0  0  0  0  0  0  0  0  0
   37.3440   32.2450   40.1110 C   0  0  0  0  0  0  0  0  0  0  0  0
   38.9320   32.8170   40.8620 S   0  0  0  0  0  0  0  0  0  0  0  0
   39.6280   34.1680   39.9130 C   0  0  0  0  0  0  0  0  0  0  0  0
   41.1080   34.2110   40.1530 C   0  0  0  0  0  0  0  0  0  0  0  0
   39.0330   35.5070   40.2140 C   0  0  0  0  0  0  0  0  0  0  0  0
   38.4694   30.5609   42.4529 H   0  0  0  0  0  0  0  0  0  0  0  0
   35.4518   27.6710   41.3406 H   0  0  0  0  0  0  0  0  0  0  0  0
   38.5532   26.6573   44.0995 H   0  0  0  0  0  0  0  0  0  0  0  0
   36.7203   33.1110   39.8447 H   0  0  0  0  0  0  0  0  0  0  0  0
   37.5331   31.6659   39.1951 H   0  0  0  0  0  0  0  0  0  0  0  0
   39.3906   33.9669   38.8579 H   0  0  0  0  0  0  0  0  0  0  0  0
   41.3039   34.2167   41.2354 H   0  0  0  0  0  0  0  0  0  0  0  0
   41.5788   33.3262   39.6998 H   0  0  0  0  0  0  0  0  0  0  0  0
   41.5266   35.1217   39.6998 H   0  0  0  0  0  0  0  0  0  0  0  0
   38.9719   35.6445   41.3037 H   0  0  0  0  0  0  0  0  0  0  0  0
   39.6655   36.2953   39.7798 H   0  0  0  0  0  0  0  0  0  0  0  0
   38.0240   35.5659   39.7798 H   0  0  0  0  0  0  0  0  0  0  0  0
  1  9  1  0
  1  4  1  0
  2  1  2  0
  3  8  2  0
  4  5  2  0
  4  3  1  0
  5  6  1  0
  6  7  2  0
  8  7  1  0
 10 11  1  0
 10  9  1  0
 12 13  1  0
 12 14  1  0
 12 11  1  0
  3 15  1  0
  5 16  1  0
  7 17  1  0
 10 18  1  0
 10 19  1  0
 12 20  1  0
 13 21  1  0
 13 22  1  0
 13 23  1  0
 14 24  1  0
 14 25  1  0
 14 26  1  0
M  ISO  8  15  14  16  14  17  14  18   8  19   8  20   8  21   8  22   8
M  ISO  4  23   8  24   8  25   8  26   8
M  END
>  <minimizedAffinity>  (1) 
-3.81895065

>  <minimizedRMSD>  (1) 
0.556764126

$$$$
