
     RDKit          3D

 27 28  0  0  0  0  0  0  0  0999 V2000
   36.6640   30.2450   41.6750 O   0  0  0  0  0  0  0  0  0  0  0  0
   36.7010   31.2550   40.7890 C   0  0  0  0  0  0  0  0  0  0  0  0
   38.2830   31.0990   39.8460 S   0  0  0  0  0  0  0  0  0  0  0  0
   37.9510   30.1460   38.3710 C   0  0  0  0  0  0  0  0  0  0  0  0
   38.6720   28.9720   38.3020 C   0  0  0  0  0  0  0  0  0  0  0  0
   38.5210   28.1200   37.2100 C   0  0  0  0  0  0  0  0  0  0  0  0
   37.6380   28.4800   36.2040 C   0  0  0  0  0  0  0  0  0  0  0  0
   36.9220   29.6560   36.2820 C   0  0  0  0  0  0  0  0  0  0  0  0
   37.0700   30.5010   37.3640 C   0  0  0  0  0  0  0  0  0  0  0  0
   36.4310   28.9020   41.4700 C   0  0  0  0  0  0  0  0  0  0  0  0
   35.4590   28.5980   40.7990 O   0  0  0  0  0  0  0  0  0  0  0  0
   38.4490   28.4730   42.8980 C   0  0  0  0  0  0  0  0  0  0  0  0
   37.4060   27.9850   42.1050 C   0  0  0  0  0  0  0  0  0  0  0  0
   37.2400   26.6370   41.8760 C   0  0  0  0  0  0  0  0  0  0  0  0
   38.1450   25.8230   42.4630 N   0  0  0  0  0  0  0  0  0  0  0  0
   39.1600   26.2900   43.2340 C   0  0  0  0  0  0  0  0  0  0  0  0
   39.3140   27.6270   43.4540 N   0  0  0  0  0  0  0  0  0  0  0  0
   35.8446   31.1851   40.1022 H   0  0  0  0  0  0  0  0  0  0  0  0
   36.6472   32.2263   41.3024 H   0  0  0  0  0  0  0  0  0  0  0  0
   39.3682   28.7077   39.1116 H   0  0  0  0  0  0  0  0  0  0  0  0
   39.0907   27.1811   37.1475 H   0  0  0  0  0  0  0  0  0  0  0  0
   37.5069   27.8202   35.3337 H   0  0  0  0  0  0  0  0  0  0  0  0
   36.2256   29.9237   35.4737 H   0  0  0  0  0  0  0  0  0  0  0  0
   36.4984   31.4389   37.4246 H   0  0  0  0  0  0  0  0  0  0  0  0
   38.5550   29.5555   43.0625 H   0  0  0  0  0  0  0  0  0  0  0  0
   36.4211   26.2470   41.2536 H   0  0  0  0  0  0  0  0  0  0  0  0
   39.8678   25.5804   43.6874 H   0  0  0  0  0  0  0  0  0  0  0  0
  2  1  1  0
  3  2  1  0
  4  3  1  0
  5  4  2  0
  6  5  1  0
  7  8  1  0
  7  6  2  0
  8  9  2  0
  9  4  1  0
 10  1  1  0
 10 13  1  0
 11 10  2  0
 12 17  2  0
 13 12  1  0
 14 13  2  0
 14 15  1  0
 15 16  2  0
 16 17  1  0
  2 18  1  0
  2 19  1  0
  5 20  1  0
  6 21  1  0
  7 22  1  0
  8 23  1  0
  9 24  1  0
 12 25  1  0
 14 26  1  0
 16 27  1  0
M  ISO  8  18   8  19   8  20  14  21  14  22  14  23  14  24  14  25  14
M  ISO  2  26  14  27  14
M  END
>  <minimizedAffinity>  (1) 
-3.72101092

>  <minimizedRMSD>  (1) 
3.70056272

$$$$
