
     RDKit          3D

 29 29  0  0  0  0  0  0  0  0999 V2000
   35.9890   29.8570   40.8150 C   0  0  0  0  0  0  0  0  0  0  0  0
   34.9470   29.4970   40.2450 O   0  0  0  0  0  0  0  0  0  0  0  0
   37.8980   29.6150   42.4210 C   0  0  0  0  0  0  0  0  0  0  0  0
   36.7880   29.0610   41.7790 C   0  0  0  0  0  0  0  0  0  0  0  0
   36.3840   27.7670   42.0010 C   0  0  0  0  0  0  0  0  0  0  0  0
   37.1420   27.0770   42.8820 N   0  0  0  0  0  0  0  0  0  0  0  0
   38.2100   27.5900   43.5080 C   0  0  0  0  0  0  0  0  0  0  0  0
   38.5980   28.8770   43.2760 N   0  0  0  0  0  0  0  0  0  0  0  0
   36.4750   31.1230   40.5420 O   0  0  0  0  0  0  0  0  0  0  0  0
   36.9430   31.6020   39.3790 C   0  0  0  0  0  0  0  0  0  0  0  0
   37.5910   33.2960   39.7360 S   0  0  0  0  0  0  0  0  0  0  0  0
   39.3880   33.2480   39.9020 C   0  0  0  0  0  0  0  0  0  0  0  0
   39.9320   32.5220   38.6820 C   0  0  0  0  0  0  0  0  0  0  0  0
   39.7590   32.4800   41.1430 C   0  0  0  0  0  0  0  0  0  0  0  0
   39.9540   34.6470   39.9260 C   0  0  0  0  0  0  0  0  0  0  0  0
   38.1909   30.6561   42.2200 H   0  0  0  0  0  0  0  0  0  0  0  0
   35.5099   27.3258   41.4998 H   0  0  0  0  0  0  0  0  0  0  0  0
   38.7786   26.9680   44.2149 H   0  0  0  0  0  0  0  0  0  0  0  0
   36.1341   31.6529   38.6353 H   0  0  0  0  0  0  0  0  0  0  0  0
   37.7296   30.9524   38.9676 H   0  0  0  0  0  0  0  0  0  0  0  0
   40.5622   31.6809   39.0066 H   0  0  0  0  0  0  0  0  0  0  0  0
   39.0949   32.1413   38.0783 H   0  0  0  0  0  0  0  0  0  0  0  0
   40.5324   33.2185   38.0783 H   0  0  0  0  0  0  0  0  0  0  0  0
   39.4776   33.0626   42.0326 H   0  0  0  0  0  0  0  0  0  0  0  0
   39.2265   31.5175   41.1515 H   0  0  0  0  0  0  0  0  0  0  0  0
   40.8440   32.2989   41.1515 H   0  0  0  0  0  0  0  0  0  0  0  0
   40.0853   34.9716   40.9688 H   0  0  0  0  0  0  0  0  0  0  0  0
   40.9272   34.6577   39.4134 H   0  0  0  0  0  0  0  0  0  0  0  0
   39.2620   35.3313   39.4134 H   0  0  0  0  0  0  0  0  0  0  0  0
  1  4  1  0
  2  1  2  0
  3  8  2  0
  4  5  2  0
  4  3  1  0
  5  6  1  0
  6  7  2  0
  8  7  1  0
  9  1  1  0
 10 11  1  0
 10  9  1  0
 11 12  1  0
 12 15  1  0
 12 14  1  0
 13 12  1  0
  3 16  1  0
  5 17  1  0
  7 18  1  0
 10 19  1  0
 10 20  1  0
 13 21  1  0
 13 22  1  0
 13 23  1  0
 14 24  1  0
 14 25  1  0
 14 26  1  0
 15 27  1  0
 15 28  1  0
 15 29  1  0
M  ISO  8  16  14  17  14  18  14  19   8  20   8  21   8  22   8  23   8
M  ISO  6  24   8  25   8  26   8  27   8  28   8  29   8
M  END
>  <minimizedAffinity>  (1) 
-3.82081246

>  <minimizedRMSD>  (1) 
1.01190436

$$$$
