
     RDKit          3D

 45 46  0  0  0  0  0  0  0  0999 V2000
   39.1130   31.8710   39.7430 C   0  0  0  0  0  0  0  0  0  0  0  0
   39.3270   31.9840   38.2540 C   0  0  0  0  0  0  0  0  0  0  0  0
   39.6510   30.5210   40.1790 C   0  0  0  0  0  0  0  0  0  0  0  0
   39.8890   32.9560   40.4560 C   0  0  0  0  0  0  0  0  0  0  0  0
   39.9030   34.2550   39.7450 C   0  0  0  0  0  0  0  0  0  0  0  0
   41.3660   34.7200   39.6920 C   0  0  0  0  0  0  0  0  0  0  0  0
   41.7220   35.4640   40.9690 C   0  0  0  0  0  0  0  0  0  0  0  0
   41.0080   36.7990   41.0520 C   0  0  0  0  0  0  0  0  0  0  0  0
   39.8380   36.7000   40.0830 C   0  0  0  0  0  0  0  0  0  0  0  0
   39.1530   35.3680   40.4150 C   0  0  0  0  0  0  0  0  0  0  0  0
   37.3570   31.9710   40.0910 S   0  0  0  0  0  0  0  0  0  0  0  0
   36.4680   30.6080   39.1900 C   0  0  0  0  0  0  0  0  0  0  0  0
   36.0480   29.7570   40.0970 O   0  0  0  0  0  0  0  0  0  0  0  0
   36.2720   28.4110   40.2850 C   0  0  0  0  0  0  0  0  0  0  0  0
   35.8440   27.6430   39.4240 O   0  0  0  0  0  0  0  0  0  0  0  0
   37.2510   29.0120   42.5080 C   0  0  0  0  0  0  0  0  0  0  0  0
   37.0180   28.0440   41.5290 C   0  0  0  0  0  0  0  0  0  0  0  0
   37.4470   26.7380   41.6130 C   0  0  0  0  0  0  0  0  0  0  0  0
   38.1330   26.4510   42.7450 N   0  0  0  0  0  0  0  0  0  0  0  0
   38.3750   27.3680   43.7100 C   0  0  0  0  0  0  0  0  0  0  0  0
   37.9300   28.6660   43.5940 N   0  0  0  0  0  0  0  0  0  0  0  0
   40.2842   32.4895   38.0585 H   0  0  0  0  0  0  0  0  0  0  0  0
   39.3458   30.9783   37.8089 H   0  0  0  0  0  0  0  0  0  0  0  0
   38.5070   32.5667   37.8089 H   0  0  0  0  0  0  0  0  0  0  0  0
   39.6707   30.4716   41.2777 H   0  0  0  0  0  0  0  0  0  0  0  0
   39.0018   29.7238   39.7877 H   0  0  0  0  0  0  0  0  0  0  0  0
   40.6705   30.3888   39.7877 H   0  0  0  0  0  0  0  0  0  0  0  0
   39.4374   33.1094   41.4472 H   0  0  0  0  0  0  0  0  0  0  0  0
   40.9330   32.6142   40.5136 H   0  0  0  0  0  0  0  0  0  0  0  0
   39.4206   34.0726   38.7734 H   0  0  0  0  0  0  0  0  0  0  0  0
   42.0229   33.8441   39.5856 H   0  0  0  0  0  0  0  0  0  0  0  0
   41.4998   35.3935   38.8326 H   0  0  0  0  0  0  0  0  0  0  0  0
   41.4317   34.8491   41.8336 H   0  0  0  0  0  0  0  0  0  0  0  0
   42.8058   35.6519   40.9681 H   0  0  0  0  0  0  0  0  0  0  0  0
   40.6450   36.9771   42.0750 H   0  0  0  0  0  0  0  0  0  0  0  0
   41.6770   37.6343   40.7975 H   0  0  0  0  0  0  0  0  0  0  0  0
   40.1971   36.7006   39.0432 H   0  0  0  0  0  0  0  0  0  0  0  0
   39.1495   37.5523   40.1810 H   0  0  0  0  0  0  0  0  0  0  0  0
   38.1153   35.3856   40.0505 H   0  0  0  0  0  0  0  0  0  0  0  0
   39.1496   35.2122   41.5039 H   0  0  0  0  0  0  0  0  0  0  0  0
   35.6130   31.0187   38.6330 H   0  0  0  0  0  0  0  0  0  0  0  0
   37.1358   30.1143   38.4687 H   0  0  0  0  0  0  0  0  0  0  0  0
   36.8795   30.0396   42.3815 H   0  0  0  0  0  0  0  0  0  0  0  0
   37.2496   25.9925   40.8286 H   0  0  0  0  0  0  0  0  0  0  0  0
   38.9392   27.0704   44.6062 H   0  0  0  0  0  0  0  0  0  0  0  0
  1 11  1  0
  1  3  1  0
  1  4  1  0
  2  1  1  0
  5 10  1  0
  5  4  1  0
  6  5  1  0
  6  7  1  0
  7  8  1  0
  9 10  1  0
  9  8  1  0
 12 11  1  0
 12 13  1  0
 13 14  1  0
 14 17  1  0
 15 14  2  0
 16 21  2  0
 17 18  2  0
 17 16  1  0
 18 19  1  0
 19 20  2  0
 21 20  1  0
  2 22  1  0
  2 23  1  0
  2 24  1  0
  3 25  1  0
  3 26  1  0
  3 27  1  0
  4 28  1  0
  4 29  1  0
  5 30  1  0
  6 31  1  0
  6 32  1  0
  7 33  1  0
  7 34  1  0
  8 35  1  0
  8 36  1  0
  9 37  1  0
  9 38  1  0
 10 39  1  0
 10 40  1  0
 12 41  1  0
 12 42  1  0
 16 43  1  0
 18 44  1  0
 20 45  1  0
M  ISO  8  22   8  23   8  24   8  25   8  26   8  27   8  28   8  29   8
M  ISO  8  30  13  31  13  32  13  33  13  34  13  35  13  36  13  37  13
M  ISO  8  38  13  39  13  40  13  41   8  42   8  43  14  44  14  45  14
M  END
>  <minimizedAffinity>  (1) 
-4.84430838

>  <minimizedRMSD>  (1) 
1.88397753

$$$$
