
     RDKit          3D

 41 42  0  0  0  0  0  0  0  0999 V2000
   39.4060   31.9920   39.1710 C   0  0  0  0  0  0  0  0  0  0  0  0
   40.2090   32.3450   37.9490 C   0  0  0  0  0  0  0  0  0  0  0  0
   39.6690   30.5690   39.5520 C   0  0  0  0  0  0  0  0  0  0  0  0
   39.7050   32.9100   40.3280 C   0  0  0  0  0  0  0  0  0  0  0  0
   39.8060   34.2540   39.9230 N   0  0  0  0  0  0  0  0  0  0  0  0
   41.0900   34.8430   40.4100 C   0  0  0  0  0  0  0  0  0  0  0  0
   40.9700   36.1560   39.6280 C   0  0  0  0  0  0  0  0  0  0  0  0
   39.5820   36.5630   40.0850 C   0  0  0  0  0  0  0  0  0  0  0  0
   38.8420   35.2120   40.3240 C   0  0  0  0  0  0  0  0  0  0  0  0
   37.6630   32.1900   38.6850 S   0  0  0  0  0  0  0  0  0  0  0  0
   36.7580   30.6060   38.7670 C   0  0  0  0  0  0  0  0  0  0  0  0
   36.1890   30.5110   39.9640 O   0  0  0  0  0  0  0  0  0  0  0  0
   35.7260   29.3960   40.6390 C   0  0  0  0  0  0  0  0  0  0  0  0
   34.5920   28.9820   40.3790 O   0  0  0  0  0  0  0  0  0  0  0  0
   37.4910   29.6440   42.3940 C   0  0  0  0  0  0  0  0  0  0  0  0
   36.6840   28.8130   41.6250 C   0  0  0  0  0  0  0  0  0  0  0  0
   36.7140   27.4320   41.6970 C   0  0  0  0  0  0  0  0  0  0  0  0
   37.6000   26.9370   42.5850 N   0  0  0  0  0  0  0  0  0  0  0  0
   38.3970   27.7190   43.3450 C   0  0  0  0  0  0  0  0  0  0  0  0
   38.3410   29.0920   43.2480 N   0  0  0  0  0  0  0  0  0  0  0  0
   41.1760   32.7701   38.2559 H   0  0  0  0  0  0  0  0  0  0  0  0
   40.3805   31.4393   37.3487 H   0  0  0  0  0  0  0  0  0  0  0  0
   39.6577   33.0837   37.3487 H   0  0  0  0  0  0  0  0  0  0  0  0
   39.6855   30.4800   40.6483 H   0  0  0  0  0  0  0  0  0  0  0  0
   38.8743   29.9273   39.1439 H   0  0  0  0  0  0  0  0  0  0  0  0
   40.6406   30.2537   39.1439 H   0  0  0  0  0  0  0  0  0  0  0  0
   38.8967   32.8223   41.0689 H   0  0  0  0  0  0  0  0  0  0  0  0
   40.6727   32.6111   40.7572 H   0  0  0  0  0  0  0  0  0  0  0  0
   41.1011   34.9965   41.4992 H   0  0  0  0  0  0  0  0  0  0  0  0
   42.0039   34.2499   40.2581 H   0  0  0  0  0  0  0  0  0  0  0  0
   41.0184   35.9968   38.5407 H   0  0  0  0  0  0  0  0  0  0  0  0
   41.7670   36.8929   39.8061 H   0  0  0  0  0  0  0  0  0  0  0  0
   39.6342   37.1482   41.0149 H   0  0  0  0  0  0  0  0  0  0  0  0
   39.0676   37.1989   39.3495 H   0  0  0  0  0  0  0  0  0  0  0  0
   37.9336   35.1428   39.7075 H   0  0  0  0  0  0  0  0  0  0  0  0
   38.4995   35.0792   41.3609 H   0  0  0  0  0  0  0  0  0  0  0  0
   35.9851   30.5785   37.9847 H   0  0  0  0  0  0  0  0  0  0  0  0
   37.4503   29.7659   38.6092 H   0  0  0  0  0  0  0  0  0  0  0  0
   37.4253   30.7376   42.2956 H   0  0  0  0  0  0  0  0  0  0  0  0
   36.0679   26.7899   41.0803 H   0  0  0  0  0  0  0  0  0  0  0  0
   39.1003   27.2532   44.0510 H   0  0  0  0  0  0  0  0  0  0  0  0
  1  3  1  0
  1  4  1  0
  2  1  1  0
  5  9  1  0
  5  4  1  0
  5  6  1  0
  7  8  1  0
  7  6  1  0
  8  9  1  0
 10 11  1  0
 10  1  1  0
 11 12  1  0
 12 13  1  0
 13 16  1  0
 14 13  2  0
 15 20  2  0
 16 17  2  0
 16 15  1  0
 17 18  1  0
 18 19  2  0
 20 19  1  0
  2 21  1  0
  2 22  1  0
  2 23  1  0
  3 24  1  0
  3 25  1  0
  3 26  1  0
  4 27  1  0
  4 28  1  0
  6 29  1  0
  6 30  1  0
  7 31  1  0
  7 32  1  0
  8 33  1  0
  8 34  1  0
  9 35  1  0
  9 36  1  0
 11 37  1  0
 11 38  1  0
 15 39  1  0
 17 40  1  0
 19 41  1  0
M  ISO  8  21   8  22   8  23   8  24   8  25   8  26   8  27   8  28   8
M  ISO  8  29  13  30  13  31  13  32  13  33  13  34  13  35  13  36  13
M  ISO  5  37   8  38   8  39  14  40  14  41  14
M  END
>  <minimizedAffinity>  (1) 
-4.68342018

>  <minimizedRMSD>  (1) 
1.79284334

$$$$
