
     RDKit          3D

 52 55  0  0  1  0  0  0  0  0999 V2000
   37.5270   27.7950   43.2170 C   0  0  2  0  0  0  0  0  0  0  0  0
   39.1480   26.1400   42.2770 C   0  0  1  0  0  0  0  0  0  0  0  0
   38.8740   24.7660   41.5920 C   0  0  0  0  0  0  0  0  0  0  0  0
   37.5150   24.3690   41.9820 C   0  0  0  0  0  0  0  0  0  0  0  0
   36.8520   25.7100   42.3940 C   0  0  0  0  0  0  0  0  0  0  0  0
   37.9260   26.3610   43.0590 C   0  0  2  0  0  0  0  0  0  0  0  0
   41.9330   26.9470   44.6440 C   0  0  0  0  0  0  0  0  0  0  0  0
   40.6790   26.9770   44.0340 C   0  0  0  0  0  0  0  0  0  0  0  0
   40.4160   26.1410   42.9470 C   0  0  0  0  0  0  0  0  0  0  0  0
   41.3980   25.3100   42.5040 N   0  0  0  0  0  0  0  0  0  0  0  0
   42.6080   25.2860   43.0990 C   0  0  0  0  0  0  0  0  0  0  0  0
   42.8820   26.0900   44.1550 N   0  0  0  0  0  0  0  0  0  0  0  0
   36.7930   28.1430   44.4520 C   0  0  0  0  0  0  0  0  0  0  0  0
   36.7680   28.0990   42.0210 C   0  0  0  0  0  0  0  0  0  0  0  0
   37.0210   29.4270   41.5980 N   0  0  0  0  0  0  0  0  0  0  0  0
   36.1290   30.3370   41.1300 C   0  0  0  0  0  0  0  0  0  0  0  0
   36.8200   31.4340   40.6730 C   0  0  0  0  0  0  0  0  0  0  0  0
   38.1260   31.1400   40.8920 N   0  0  0  0  0  0  0  0  0  0  0  0
   38.2450   29.9160   41.4580 C   0  0  0  0  0  0  0  0  0  0  0  0
   39.6290   29.7980   41.6050 N   0  0  0  0  0  0  0  0  0  0  0  0
   40.4620   30.3630   42.5390 C   0  0  0  0  0  0  0  0  0  0  0  0
   41.8030   30.2190   42.5970 C   0  0  0  0  0  0  0  0  0  0  0  0
   42.5880   30.8900   43.6680 C   0  0  0  0  0  0  0  0  0  0  0  0
   42.3590   29.4290   41.6170 C   0  0  0  0  0  0  0  0  0  0  0  0
   43.6060   29.2510   41.6110 O   0  0  0  0  0  0  0  0  0  0  0  0
   41.6600   28.8190   40.6460 N   0  0  0  0  0  0  0  0  0  0  0  0
   40.3330   29.0420   40.6990 C   0  0  0  0  0  0  0  0  0  0  0  0
   39.6540   28.4690   39.7780 O   0  0  0  0  0  0  0  0  0  0  0  0
   38.4316   28.4103   43.3317 H   0  0  0  0  0  0  0  0  0  0  0  0
   39.2951   27.0043   41.6127 H   0  0  0  0  0  0  0  0  0  0  0  0
   39.6023   24.0174   41.9372 H   0  0  0  0  0  0  0  0  0  0  0  0
   38.9680   24.8410   40.4986 H   0  0  0  0  0  0  0  0  0  0  0  0
   36.9815   23.9096   41.1368 H   0  0  0  0  0  0  0  0  0  0  0  0
   37.5013   23.6186   42.7862 H   0  0  0  0  0  0  0  0  0  0  0  0
   36.5181   26.2806   41.5148 H   0  0  0  0  0  0  0  0  0  0  0  0
   35.9468   25.5941   43.0082 H   0  0  0  0  0  0  0  0  0  0  0  0
   38.1389   25.9687   44.0644 H   0  0  0  0  0  0  0  0  0  0  0  0
   42.1551   27.5993   45.5014 H   0  0  0  0  0  0  0  0  0  0  0  0
   39.8996   27.6572   44.4081 H   0  0  0  0  0  0  0  0  0  0  0  0
   43.3840   24.6038   42.7216 H   0  0  0  0  0  0  0  0  0  0  0  0
   37.3939   27.8581   45.3283 H   0  0  0  0  0  0  0  0  0  0  0  0
   36.6042   29.2265   44.4734 H   0  0  0  0  0  0  0  0  0  0  0  0
   35.8347   27.6034   44.4734 H   0  0  0  0  0  0  0  0  0  0  0  0
   37.0587   27.4025   41.2208 H   0  0  0  0  0  0  0  0  0  0  0  0
   35.6958   27.9943   42.2434 H   0  0  0  0  0  0  0  0  0  0  0  0
   35.0357   30.2167   41.1184 H   0  0  0  0  0  0  0  0  0  0  0  0
   36.4047   32.3499   40.2272 H   0  0  0  0  0  0  0  0  0  0  0  0
   39.9934   30.9908   43.3112 H   0  0  0  0  0  0  0  0  0  0  0  0
   42.2140   30.5703   44.6518 H   0  0  0  0  0  0  0  0  0  0  0  0
   43.6488   30.6152   43.5720 H   0  0  0  0  0  0  0  0  0  0  0  0
   42.4816   31.9806   43.5720 H   0  0  0  0  0  0  0  0  0  0  0  0
   42.1005   28.2317   39.9236 H   0  0  0  0  0  0  0  0  0  0  0  0
  1 13  1  0
  2  9  1  0
  2  6  1  0
  3  4  1  0
  3  2  1  0
  4  5  1  0
  5  6  1  0
  6  1  1  0
  8  7  2  0
  9  8  1  0
 10  9  2  0
 10 11  1  0
 11 12  2  0
 12  7  1  0
 14  1  1  0
 15 14  1  0
 16 15  1  0
 17 18  1  0
 17 16  2  0
 18 19  2  0
 19 15  1  0
 19 20  1  0
 20 21  1  0
 21 22  2  0
 22 23  1  0
 24 22  1  0
 25 24  2  0
 26 27  1  0
 26 24  1  0
 27 20  1  0
 28 27  2  0
  1 29  1  6
  2 30  1  6
  3 31  1  0
  3 32  1  0
  4 33  1  0
  4 34  1  0
  5 35  1  0
  5 36  1  0
  6 37  1  1
  7 38  1  0
  8 39  1  0
 11 40  1  0
 13 41  1  0
 13 42  1  0
 13 43  1  0
 14 44  1  0
 14 45  1  0
 16 46  1  0
 17 47  1  0
 21 48  1  0
 23 49  1  0
 23 50  1  0
 23 51  1  0
 26 52  1  0
M  ISO  8  29   8  30  13  31  13  32  13  33  13  34  13  35  13  36  13
M  ISO  8  37  13  38  14  39  14  40  14  41   8  42   8  43   8  44   8
M  ISO  8  45   8  46  14  47  14  48  14  49   8  50   8  51   8  52   9
M  END
>  <minimizedAffinity>  (1) 
-6.28486156

>  <minimizedRMSD>  (1) 
0.412235856

$$$$
