
     RDKit          3D

 30 30  0  0  0  0  0  0  0  0999 V2000
   36.9790   31.8880   39.5110 C   0  0  0  0  0  0  0  0  0  0  0  0
   36.6160   31.2720   40.6200 O   0  0  0  0  0  0  0  0  0  0  0  0
   36.1200   30.0080   40.8520 C   0  0  0  0  0  0  0  0  0  0  0  0
   35.0910   29.6930   40.2530 O   0  0  0  0  0  0  0  0  0  0  0  0
   38.0570   29.6840   42.4000 C   0  0  0  0  0  0  0  0  0  0  0  0
   36.8950   29.1600   41.8100 C   0  0  0  0  0  0  0  0  0  0  0  0
   36.4100   27.8990   42.0270 C   0  0  0  0  0  0  0  0  0  0  0  0
   37.1580   27.1630   42.8800 N   0  0  0  0  0  0  0  0  0  0  0  0
   38.2830   27.6250   43.4680 C   0  0  0  0  0  0  0  0  0  0  0  0
   38.7420   28.8990   43.2290 N   0  0  0  0  0  0  0  0  0  0  0  0
   37.9480   33.3910   40.0160 S   0  0  0  0  0  0  0  0  0  0  0  0
   39.6970   33.0940   39.7940 C   0  0  0  0  0  0  0  0  0  0  0  0
   39.9110   32.2880   38.5410 C   0  0  0  0  0  0  0  0  0  0  0  0
   40.2260   32.3010   40.9700 C   0  0  0  0  0  0  0  0  0  0  0  0
   40.4470   34.3980   39.6460 C   0  0  0  0  0  0  0  0  0  0  0  0
   39.4600   35.8020   40.2010 S   0  0  0  0  0  0  0  0  0  0  0  0
   36.0898   32.1873   38.9368 H   0  0  0  0  0  0  0  0  0  0  0  0
   37.5848   31.2261   38.8748 H   0  0  0  0  0  0  0  0  0  0  0  0
   38.3903   30.7098   42.1841 H   0  0  0  0  0  0  0  0  0  0  0  0
   35.4944   27.5184   41.5507 H   0  0  0  0  0  0  0  0  0  0  0  0
   38.8428   26.9694   44.1512 H   0  0  0  0  0  0  0  0  0  0  0  0
   40.1847   31.2572   38.8104 H   0  0  0  0  0  0  0  0  0  0  0  0
   38.9843   32.2784   37.9485 H   0  0  0  0  0  0  0  0  0  0  0  0
   40.7204   32.7394   37.9485 H   0  0  0  0  0  0  0  0  0  0  0  0
   39.9070   32.7791   41.9079 H   0  0  0  0  0  0  0  0  0  0  0  0
   39.8305   31.2754   40.9283 H   0  0  0  0  0  0  0  0  0  0  0  0
   41.3248   32.2722   40.9283 H   0  0  0  0  0  0  0  0  0  0  0  0
   41.3675   34.3499   40.2462 H   0  0  0  0  0  0  0  0  0  0  0  0
   40.6784   34.5414   38.5802 H   0  0  0  0  0  0  0  0  0  0  0  0
   39.4387   35.8323   41.5705 H   0  0  0  0  0  0  0  0  0  0  0  0
  1 11  1  0
  1  2  1  0
  2  3  1  0
  3  6  1  0
  4  3  2  0
  5 10  2  0
  6  7  2  0
  6  5  1  0
  7  8  1  0
  8  9  2  0
 10  9  1  0
 12 11  1  0
 12 14  1  0
 13 12  1  0
 15 12  1  0
 15 16  1  0
  1 17  1  0
  1 18  1  0
  5 19  1  0
  7 20  1  0
  9 21  1  0
 13 22  1  0
 13 23  1  0
 13 24  1  0
 14 25  1  0
 14 26  1  0
 14 27  1  0
 15 28  1  0
 15 29  1  0
 16 30  1  0
M  ISO  8  17   8  18   8  19  14  20  14  21  14  22   8  23   8  24   8
M  ISO  6  25   8  26   8  27   8  28   8  29   8  30  11
M  END
>  <minimizedAffinity>  (1) 
-3.95852685

>  <minimizedRMSD>  (1) 
0.410358757

$$$$
