
     RDKit          3D

 30 30  0  0  0  0  0  0  0  0999 V2000
   36.9570   31.5920   39.3590 C   0  0  0  0  0  0  0  0  0  0  0  0
   36.5140   31.0780   40.4800 O   0  0  0  0  0  0  0  0  0  0  0  0
   36.0030   29.8470   40.8110 C   0  0  0  0  0  0  0  0  0  0  0  0
   34.9500   29.5060   40.2740 O   0  0  0  0  0  0  0  0  0  0  0  0
   37.9320   29.6250   42.3970 C   0  0  0  0  0  0  0  0  0  0  0  0
   36.8030   29.0580   41.7960 C   0  0  0  0  0  0  0  0  0  0  0  0
   36.3720   27.7650   42.0320 C   0  0  0  0  0  0  0  0  0  0  0  0
   37.1430   27.0740   42.9060 N   0  0  0  0  0  0  0  0  0  0  0  0
   38.2400   27.6160   43.4910 C   0  0  0  0  0  0  0  0  0  0  0  0
   38.6450   28.8990   43.2400 N   0  0  0  0  0  0  0  0  0  0  0  0
   37.5800   33.3030   39.7380 S   0  0  0  0  0  0  0  0  0  0  0  0
   39.3680   33.2670   39.8900 C   0  0  0  0  0  0  0  0  0  0  0  0
   39.9410   32.5300   38.6970 C   0  0  0  0  0  0  0  0  0  0  0  0
   39.7730   32.5020   41.1330 C   0  0  0  0  0  0  0  0  0  0  0  0
   39.9490   34.6680   39.9280 C   0  0  0  0  0  0  0  0  0  0  0  0
   41.3520   34.5850   39.9940 O   0  0  0  0  0  0  0  0  0  0  0  0
   36.1425   31.6434   38.6215 H   0  0  0  0  0  0  0  0  0  0  0  0
   37.7613   30.9706   38.9385 H   0  0  0  0  0  0  0  0  0  0  0  0
   38.2223   30.6616   42.1707 H   0  0  0  0  0  0  0  0  0  0  0  0
   35.4806   27.3350   41.5518 H   0  0  0  0  0  0  0  0  0  0  0  0
   38.8250   27.0026   44.1921 H   0  0  0  0  0  0  0  0  0  0  0  0
   40.5810   31.7068   39.0474 H   0  0  0  0  0  0  0  0  0  0  0  0
   39.1200   32.1227   38.0887 H   0  0  0  0  0  0  0  0  0  0  0  0
   40.5381   33.2253   38.0887 H   0  0  0  0  0  0  0  0  0  0  0  0
   39.4728   33.0690   42.0266 H   0  0  0  0  0  0  0  0  0  0  0  0
   39.2764   31.5205   41.1376 H   0  0  0  0  0  0  0  0  0  0  0  0
   40.8639   32.3610   41.1376 H   0  0  0  0  0  0  0  0  0  0  0  0
   39.6550   35.2131   39.0189 H   0  0  0  0  0  0  0  0  0  0  0  0
   39.5683   35.2023   40.8109 H   0  0  0  0  0  0  0  0  0  0  0  0
   41.6374   34.5681   40.9418 H   0  0  0  0  0  0  0  0  0  0  0  0
  1 11  1  0
  1  2  1  0
  2  3  1  0
  3  6  1  0
  4  3  2  0
  5 10  2  0
  6  7  2  0
  6  5  1  0
  7  8  1  0
  8  9  2  0
 10  9  1  0
 11 12  1  0
 12 15  1  0
 12 14  1  0
 13 12  1  0
 15 16  1  0
  1 17  1  0
  1 18  1  0
  5 19  1  0
  7 20  1  0
  9 21  1  0
 13 22  1  0
 13 23  1  0
 13 24  1  0
 14 25  1  0
 14 26  1  0
 14 27  1  0
 15 28  1  0
 15 29  1  0
 16 30  1  0
M  ISO  8  17   8  18   8  19  14  20  14  21  14  22   8  23   8  24   8
M  ISO  6  25   8  26   8  27   8  28   8  29   8  30   3
M  END
>  <minimizedAffinity>  (1) 
-3.79852796

>  <minimizedRMSD>  (1) 
0.0509050228

$$$$
