
     RDKit          3D

 46 48  0  0  1  0  0  0  0  0999 V2000
   37.4690   27.2970   42.8330 C   0  0  2  0  0  0  0  0  0  0  0  0
   39.3310   25.8030   42.0840 C   0  0  1  0  0  0  0  0  0  0  0  0
   39.2670   24.3970   41.4200 C   0  0  0  0  0  0  0  0  0  0  0  0
   37.9320   23.8600   41.7310 C   0  0  0  0  0  0  0  0  0  0  0  0
   37.0950   25.1350   42.0130 C   0  0  0  0  0  0  0  0  0  0  0  0
   38.0360   25.9130   42.7400 C   0  0  2  0  0  0  0  0  0  0  0  0
   41.8070   26.9740   44.6450 C   0  0  0  0  0  0  0  0  0  0  0  0
   40.6180   26.8580   43.9310 C   0  0  0  0  0  0  0  0  0  0  0  0
   40.5210   25.9590   42.8680 C   0  0  0  0  0  0  0  0  0  0  0  0
   41.6170   25.2020   42.5600 N   0  0  0  0  0  0  0  0  0  0  0  0
   42.7650   25.3120   43.2520 C   0  0  0  0  0  0  0  0  0  0  0  0
   42.8670   26.1870   44.2850 N   0  0  0  0  0  0  0  0  0  0  0  0
   36.3060   27.4920   43.7210 C   0  0  0  0  0  0  0  0  0  0  0  0
   37.1830   27.6660   41.4600 C   0  0  0  0  0  0  0  0  0  0  0  0
   37.0040   29.0670   41.3390 N   0  0  0  0  0  0  0  0  0  0  0  0
   35.9310   29.7490   40.8740 C   0  0  0  0  0  0  0  0  0  0  0  0
   36.2460   31.0700   40.7930 C   0  0  0  0  0  0  0  0  0  0  0  0
   37.5050   31.1540   41.2170 N   0  0  0  0  0  0  0  0  0  0  0  0
   37.9890   29.9470   41.5560 C   0  0  0  0  0  0  0  0  0  0  0  0
   39.3310   30.0560   41.8950 N   0  0  0  0  0  0  0  0  0  0  0  0
   40.0900   31.2520   42.1840 C   0  0  0  0  0  0  0  0  0  0  0  0
   39.6440   32.3390   41.5710 N   0  0  0  0  0  0  0  0  0  0  0  0
   41.2360   31.3140   43.0700 N   0  0  0  0  0  0  0  0  0  0  0  0
   40.1830   33.2010   41.7730 H   0  0  0  0  0  0  0  0  0  0  0  0
   38.2049   27.9484   43.3270 H   0  0  0  0  0  0  0  0  0  0  0  0
   39.4507   26.6594   41.4042 H   0  0  0  0  0  0  0  0  0  0  0  0
   40.0480   23.7428   41.8349 H   0  0  0  0  0  0  0  0  0  0  0  0
   39.4336   24.4569   40.3343 H   0  0  0  0  0  0  0  0  0  0  0  0
   37.5230   23.3004   40.8769 H   0  0  0  0  0  0  0  0  0  0  0  0
   37.9369   23.1518   42.5727 H   0  0  0  0  0  0  0  0  0  0  0  0
   36.7903   25.6340   41.0813 H   0  0  0  0  0  0  0  0  0  0  0  0
   36.1484   24.9517   42.5424 H   0  0  0  0  0  0  0  0  0  0  0  0
   38.2089   25.5690   43.7704 H   0  0  0  0  0  0  0  0  0  0  0  0
   41.8929   27.6835   45.4812 H   0  0  0  0  0  0  0  0  0  0  0  0
   39.7514   27.4773   44.2056 H   0  0  0  0  0  0  0  0  0  0  0  0
   43.6285   24.6878   42.9787 H   0  0  0  0  0  0  0  0  0  0  0  0
   36.6324   27.4373   44.7700 H   0  0  0  0  0  0  0  0  0  0  0  0
   35.8580   28.4778   43.5273 H   0  0  0  0  0  0  0  0  0  0  0  0
   35.5610   26.7062   43.5273 H   0  0  0  0  0  0  0  0  0  0  0  0
   38.0221   27.3537   40.8210 H   0  0  0  0  0  0  0  0  0  0  0  0
   36.2548   27.1651   41.1478 H   0  0  0  0  0  0  0  0  0  0  0  0
   34.9606   29.3063   40.6050 H   0  0  0  0  0  0  0  0  0  0  0  0
   35.5996   31.8916   40.4509 H   0  0  0  0  0  0  0  0  0  0  0  0
   39.8535   29.1699   41.9474 H   0  0  0  0  0  0  0  0  0  0  0  0
   41.7219   32.2094   43.2216 H   0  0  0  0  0  0  0  0  0  0  0  0
   41.5642   30.4626   43.5478 H   0  0  0  0  0  0  0  0  0  0  0  0
  1 13  1  0
  2  6  1  0
  2  9  1  0
  3  4  1  0
  3  2  1  0
  4  5  1  0
  5  6  1  0
  6  1  1  0
  8  7  2  0
  9  8  1  0
 10  9  2  0
 10 11  1  0
 11 12  2  0
 12  7  1  0
 14  1  1  0
 15 14  1  0
 15 19  1  0
 16 15  1  0
 17 16  2  0
 17 18  1  0
 18 19  2  0
 19 20  1  0
 20 21  1  0
 21 23  1  0
 22 24  1  0
 22 21  2  0
  1 25  1  1
  2 26  1  6
  3 27  1  0
  3 28  1  0
  4 29  1  0
  4 30  1  0
  5 31  1  0
  5 32  1  0
  6 33  1  1
  7 34  1  0
  8 35  1  0
 11 36  1  0
 13 37  1  0
 13 38  1  0
 13 39  1  0
 14 40  1  0
 14 41  1  0
 16 42  1  0
 17 43  1  0
 20 44  1  0
 23 45  1  0
 23 46  1  0
M  ISO  8  25   8  26  13  27  13  28  13  29  13  30  13  31  13  32  13
M  ISO  8  33  13  34  14  35  14  36  14  37   8  38   8  39   8  40   8
M  ISO  3  41   8  42  14  43  14
M  END
>  <minimizedAffinity>  (1) 
-6.16344595

>  <minimizedRMSD>  (1) 
0.622808635

$$$$
