
     RDKit          3D

 48 50  0  0  0  0  0  0  0  0999 V2000
   39.1240   34.5000   40.5480 S   0  0  0  0  0  0  0  0  0  0  0  0
   37.6910   33.5220   39.9160 C   0  0  0  0  0  0  0  0  0  0  0  0
   37.5510   32.4550   40.6930 O   0  0  0  0  0  0  0  0  0  0  0  0
   36.9490   31.2430   40.4760 C   0  0  0  0  0  0  0  0  0  0  0  0
   36.0500   31.1890   39.6270 O   0  0  0  0  0  0  0  0  0  0  0  0
   38.6790   30.2210   41.9500 C   0  0  0  0  0  0  0  0  0  0  0  0
   37.4550   30.0990   41.3070 C   0  0  0  0  0  0  0  0  0  0  0  0
   36.6770   28.9880   41.3830 C   0  0  0  0  0  0  0  0  0  0  0  0
   37.1750   27.9850   42.1400 N   0  0  0  0  0  0  0  0  0  0  0  0
   38.3630   28.0630   42.7830 C   0  0  0  0  0  0  0  0  0  0  0  0
   39.1160   29.2160   42.6720 N   0  0  0  0  0  0  0  0  0  0  0  0
   38.9460   27.0010   43.6160 C   0  0  0  0  0  0  0  0  0  0  0  0
   40.4530   27.1450   43.7910 C   0  0  0  0  0  0  0  0  0  0  0  0
   40.9950   25.7550   43.8560 C   0  0  0  0  0  0  0  0  0  0  0  0
   39.9600   24.8330   43.2930 C   0  0  0  0  0  0  0  0  0  0  0  0
   38.8030   25.6910   42.8450 C   0  0  0  0  0  0  0  0  0  0  0  0
   40.6670   33.7630   40.0550 C   0  0  0  0  0  0  0  0  0  0  0  0
   40.4770   33.0250   38.7750 C   0  0  0  0  0  0  0  0  0  0  0  0
   41.1300   32.7510   41.0810 C   0  0  0  0  0  0  0  0  0  0  0  0
   41.7380   34.8150   39.8670 C   0  0  0  0  0  0  0  0  0  0  0  0
   42.0620   35.5290   41.0670 N   0  0  0  0  0  0  0  0  0  0  0  0
   43.1370   35.1760   41.8130 C   0  0  0  0  0  0  0  0  0  0  0  0
   43.2280   35.9820   42.8770 N   0  0  0  0  0  0  0  0  0  0  0  0
   42.2010   36.8600   42.8100 C   0  0  0  0  0  0  0  0  0  0  0  0
   41.5270   36.5530   41.7110 N   0  0  0  0  0  0  0  0  0  0  0  0
   36.7769   34.1328   39.9516 H   0  0  0  0  0  0  0  0  0  0  0  0
   37.8652   33.2168   38.8736 H   0  0  0  0  0  0  0  0  0  0  0  0
   39.2717   31.1429   41.8562 H   0  0  0  0  0  0  0  0  0  0  0  0
   35.7098   28.9101   40.8649 H   0  0  0  0  0  0  0  0  0  0  0  0
   38.4379   27.0430   44.5907 H   0  0  0  0  0  0  0  0  0  0  0  0
   40.8871   27.6848   42.9365 H   0  0  0  0  0  0  0  0  0  0  0  0
   40.7003   27.7165   44.6978 H   0  0  0  0  0  0  0  0  0  0  0  0
   41.9194   25.6859   43.2638 H   0  0  0  0  0  0  0  0  0  0  0  0
   41.2276   25.4819   44.8958 H   0  0  0  0  0  0  0  0  0  0  0  0
   40.3730   24.2787   42.4373 H   0  0  0  0  0  0  0  0  0  0  0  0
   39.6365   24.0990   44.0457 H   0  0  0  0  0  0  0  0  0  0  0  0
   38.8569   25.8743   41.7617 H   0  0  0  0  0  0  0  0  0  0  0  0
   37.8351   25.2059   43.0395 H   0  0  0  0  0  0  0  0  0  0  0  0
   40.2081   31.9804   38.9905 H   0  0  0  0  0  0  0  0  0  0  0  0
   39.6715   33.4988   38.1947 H   0  0  0  0  0  0  0  0  0  0  0  0
   41.4111   33.0509   38.1947 H   0  0  0  0  0  0  0  0  0  0  0  0
   40.9497   33.1451   42.0920 H   0  0  0  0  0  0  0  0  0  0  0  0
   40.5717   31.8126   40.9483 H   0  0  0  0  0  0  0  0  0  0  0  0
   42.2051   32.5599   40.9483 H   0  0  0  0  0  0  0  0  0  0  0  0
   42.6497   34.3206   39.5003 H   0  0  0  0  0  0  0  0  0  0  0  0
   41.3429   35.5514   39.1518 H   0  0  0  0  0  0  0  0  0  0  0  0
   43.8286   34.3531   41.5795 H   0  0  0  0  0  0  0  0  0  0  0  0
   41.9718   37.6655   43.5232 H   0  0  0  0  0  0  0  0  0  0  0  0
  2  1  1  0
  2  3  1  0
  4  3  1  0
  4  7  1  0
  5  4  2  0
  6 11  2  0
  7  8  2  0
  7  6  1  0
  8  9  1  0
  9 10  2  0
 10 12  1  0
 11 10  1  0
 12 13  1  0
 13 14  1  0
 15 14  1  0
 16 15  1  0
 16 12  1  0
 17  1  1  0
 17 19  1  0
 18 17  1  0
 20 17  1  0
 20 21  1  0
 21 25  1  0
 21 22  1  0
 22 23  2  0
 24 23  1  0
 25 24  2  0
  2 26  1  0
  2 27  1  0
  6 28  1  0
  8 29  1  0
 12 30  1  0
 13 31  1  0
 13 32  1  0
 14 33  1  0
 14 34  1  0
 15 35  1  0
 15 36  1  0
 16 37  1  0
 16 38  1  0
 18 39  1  0
 18 40  1  0
 18 41  1  0
 19 42  1  0
 19 43  1  0
 19 44  1  0
 20 45  1  0
 20 46  1  0
 22 47  1  0
 24 48  1  0
M  ISO  8  26   8  27   8  28  14  29  14  30  13  31  13  32  13  33  13
M  ISO  8  34  13  35  13  36  13  37  13  38  13  39   8  40   8  41   8
M  ISO  7  42   8  43   8  44   8  45   8  46   8  47  14  48  14
M  END
>  <minimizedAffinity>  (1) 
-5.6664176

>  <minimizedRMSD>  (1) 
0.757015109

$$$$
