
     RDKit          3D

 42 44  0  0  0  0  0  0  0  0999 V2000
   37.6090   33.8280   39.6900 C   0  0  0  0  0  0  0  0  0  0  0  0
   39.0530   34.4620   40.6520 S   0  0  0  0  0  0  0  0  0  0  0  0
   40.5810   33.7420   40.0490 C   0  0  0  0  0  0  0  0  0  0  0  0
   40.3240   33.0490   38.7700 C   0  0  0  0  0  0  0  0  0  0  0  0
   41.1020   32.7250   41.0350 C   0  0  0  0  0  0  0  0  0  0  0  0
   41.6250   34.8230   39.8420 C   0  0  0  0  0  0  0  0  0  0  0  0
   41.9920   35.5240   41.0430 N   0  0  0  0  0  0  0  0  0  0  0  0
   43.0750   35.1480   41.7640 C   0  0  0  0  0  0  0  0  0  0  0  0
   43.1980   35.9480   42.8260 N   0  0  0  0  0  0  0  0  0  0  0  0
   42.1840   36.8450   42.7820 C   0  0  0  0  0  0  0  0  0  0  0  0
   41.4860   36.5580   41.7010 N   0  0  0  0  0  0  0  0  0  0  0  0
   37.3000   32.6300   40.1700 O   0  0  0  0  0  0  0  0  0  0  0  0
   37.2110   31.4030   39.5650 C   0  0  0  0  0  0  0  0  0  0  0  0
   36.6860   31.3480   38.4460 O   0  0  0  0  0  0  0  0  0  0  0  0
   38.2720   30.4660   41.6160 C   0  0  0  0  0  0  0  0  0  0  0  0
   37.7710   30.2430   40.3410 C   0  0  0  0  0  0  0  0  0  0  0  0
   37.7580   29.0200   39.7340 C   0  0  0  0  0  0  0  0  0  0  0  0
   38.2780   28.0160   40.4780 N   0  0  0  0  0  0  0  0  0  0  0  0
   38.7700   28.1970   41.7140 C   0  0  0  0  0  0  0  0  0  0  0  0
   38.7630   29.4510   42.2880 N   0  0  0  0  0  0  0  0  0  0  0  0
   39.3210   27.1530   42.5090 N   0  0  0  0  0  0  0  0  0  0  0  0
   39.1130   25.8300   42.5660 N   0  0  0  0  0  0  0  0  0  0  0  0
   39.9170   25.3000   43.5190 C   0  0  0  0  0  0  0  0  0  0  0  0
   40.6540   26.3270   44.0780 C   0  0  0  0  0  0  0  0  0  0  0  0
   40.2600   27.4920   43.4220 C   0  0  0  0  0  0  0  0  0  0  0  0
   37.8738   33.7483   38.6253 H   0  0  0  0  0  0  0  0  0  0  0  0
   36.7533   34.5130   39.7826 H   0  0  0  0  0  0  0  0  0  0  0  0
   39.9480   32.0351   38.9714 H   0  0  0  0  0  0  0  0  0  0  0  0
   39.5742   33.6102   38.1931 H   0  0  0  0  0  0  0  0  0  0  0  0
   41.2584   32.9856   38.1931 H   0  0  0  0  0  0  0  0  0  0  0  0
   40.9197   33.0809   42.0597 H   0  0  0  0  0  0  0  0  0  0  0  0
   40.5837   31.7669   40.8819 H   0  0  0  0  0  0  0  0  0  0  0  0
   42.1824   32.5859   40.8819 H   0  0  0  0  0  0  0  0  0  0  0  0
   42.5291   34.3547   39.4257 H   0  0  0  0  0  0  0  0  0  0  0  0
   41.1806   35.5669   39.1643 H   0  0  0  0  0  0  0  0  0  0  0  0
   43.7477   34.3144   41.5140 H   0  0  0  0  0  0  0  0  0  0  0  0
   41.9833   37.6509   43.5032 H   0  0  0  0  0  0  0  0  0  0  0  0
   38.2579   31.4745   42.0551 H   0  0  0  0  0  0  0  0  0  0  0  0
   37.3571   28.8633   38.7217 H   0  0  0  0  0  0  0  0  0  0  0  0
   39.9734   24.2377   43.7990 H   0  0  0  0  0  0  0  0  0  0  0  0
   41.4019   26.2420   44.8801 H   0  0  0  0  0  0  0  0  0  0  0  0
   40.6437   28.5052   43.6125 H   0  0  0  0  0  0  0  0  0  0  0  0
  1 12  1  0
  1  2  1  0
  3  2  1  0
  3  5  1  0
  4  3  1  0
  6  3  1  0
  6  7  1  0
  7 11  1  0
  7  8  1  0
  8  9  2  0
 10  9  1  0
 11 10  2  0
 13 12  1  0
 13 16  1  0
 14 13  2  0
 15 20  2  0
 16 15  1  0
 17 16  2  0
 17 18  1  0
 18 19  2  0
 19 20  1  0
 19 21  1  0
 21 22  1  0
 21 25  1  0
 22 23  2  0
 23 24  1  0
 25 24  2  0
  1 26  1  0
  1 27  1  0
  4 28  1  0
  4 29  1  0
  4 30  1  0
  5 31  1  0
  5 32  1  0
  5 33  1  0
  6 34  1  0
  6 35  1  0
  8 36  1  0
 10 37  1  0
 15 38  1  0
 17 39  1  0
 23 40  1  0
 24 41  1  0
 25 42  1  0
M  ISO  8  26   8  27   8  28   8  29   8  30   8  31   8  32   8  33   8
M  ISO  8  34   8  35   8  36  14  37  14  38  14  39  14  40  14  41  14
M  ISO  1  42  14
M  END
>  <minimizedAffinity>  (1) 
-5.38957644

>  <minimizedRMSD>  (1) 
1.36624324

$$$$
