
     RDKit          3D

 55 58  0  0  1  0  0  0  0  0999 V2000
   39.1920   26.0240   42.2060 C   0  0  1  0  0  0  0  0  0  0  0  0
   38.9820   24.6180   41.5970 C   0  0  0  0  0  0  0  0  0  0  0  0
   37.6240   24.2090   41.8890 C   0  0  0  0  0  0  0  0  0  0  0  0
   36.9150   25.5220   42.2840 C   0  0  0  0  0  0  0  0  0  0  0  0
   37.9550   26.2480   42.9590 C   0  0  2  0  0  0  0  0  0  0  0  0
   41.8800   26.9980   44.6620 C   0  0  0  0  0  0  0  0  0  0  0  0
   40.6480   26.9850   44.0020 C   0  0  0  0  0  0  0  0  0  0  0  0
   40.4330   26.1000   42.9390 C   0  0  0  0  0  0  0  0  0  0  0  0
   41.4420   25.2660   42.5740 N   0  0  0  0  0  0  0  0  0  0  0  0
   42.6260   25.2810   43.2120 C   0  0  0  0  0  0  0  0  0  0  0  0
   42.8570   26.1360   44.2480 N   0  0  0  0  0  0  0  0  0  0  0  0
   37.5060   27.6410   43.1280 C   0  0  2  0  0  0  0  0  0  0  0  0
   36.6540   27.8820   44.3260 C   0  0  0  0  0  0  0  0  0  0  0  0
   36.7820   27.8740   41.8400 C   0  0  0  0  0  0  0  0  0  0  0  0
   36.9620   29.2280   41.4760 N   0  0  0  0  0  0  0  0  0  0  0  0
   36.0350   30.0950   41.0030 C   0  0  0  0  0  0  0  0  0  0  0  0
   36.6050   31.2770   40.7410 C   0  0  0  0  0  0  0  0  0  0  0  0
   37.8910   31.0880   41.0670 N   0  0  0  0  0  0  0  0  0  0  0  0
   38.1550   29.8460   41.5180 C   0  0  0  0  0  0  0  0  0  0  0  0
   39.5560   29.7510   41.7690 C   0  0  0  0  0  0  0  0  0  0  0  0
   40.4470   30.0700   40.5250 C   0  0  0  0  0  0  0  0  0  0  0  0
   40.7630   31.5230   40.4220 C   0  0  0  0  0  0  0  0  0  0  0  0
   41.7280   31.9930   41.4950 C   0  0  0  0  0  0  0  0  0  0  0  0
   41.4450   31.0980   42.7100 C   0  0  0  0  0  0  0  0  0  0  0  0
   39.9450   30.8980   42.7080 C   0  0  0  0  0  0  0  0  0  0  0  0
   39.3310   26.8381   41.4794 H   0  0  0  0  0  0  0  0  0  0  0  0
   39.6917   23.9064   42.0442 H   0  0  0  0  0  0  0  0  0  0  0  0
   39.1521   24.6399   40.5105 H   0  0  0  0  0  0  0  0  0  0  0  0
   37.1515   23.7609   41.0025 H   0  0  0  0  0  0  0  0  0  0  0  0
   37.5725   23.4458   42.6795 H   0  0  0  0  0  0  0  0  0  0  0  0
   36.5631   26.0663   41.3953 H   0  0  0  0  0  0  0  0  0  0  0  0
   36.0179   25.3666   42.9013 H   0  0  0  0  0  0  0  0  0  0  0  0
   38.1723   25.9095   43.9828 H   0  0  0  0  0  0  0  0  0  0  0  0
   42.0601   27.6889   45.4988 H   0  0  0  0  0  0  0  0  0  0  0  0
   39.8475   27.6701   44.3179 H   0  0  0  0  0  0  0  0  0  0  0  0
   43.4213   24.5916   42.8923 H   0  0  0  0  0  0  0  0  0  0  0  0
   38.3373   28.3359   43.3179 H   0  0  0  0  0  0  0  0  0  0  0  0
   37.2468   27.7143   45.2373 H   0  0  0  0  0  0  0  0  0  0  0  0
   36.2875   28.9191   44.3127 H   0  0  0  0  0  0  0  0  0  0  0  0
   35.7986   27.1906   44.3127 H   0  0  0  0  0  0  0  0  0  0  0  0
   37.1927   27.2193   41.0573 H   0  0  0  0  0  0  0  0  0  0  0  0
   35.7117   27.6491   41.9574 H   0  0  0  0  0  0  0  0  0  0  0  0
   34.9701   29.8617   40.8559 H   0  0  0  0  0  0  0  0  0  0  0  0
   36.1299   32.1889   40.3501 H   0  0  0  0  0  0  0  0  0  0  0  0
   39.7154   28.7245   42.1307 H   0  0  0  0  0  0  0  0  0  0  0  0
   41.3883   29.5070   40.6086 H   0  0  0  0  0  0  0  0  0  0  0  0
   39.8880   29.7792   39.6233 H   0  0  0  0  0  0  0  0  0  0  0  0
   41.2121   31.7159   39.4366 H   0  0  0  0  0  0  0  0  0  0  0  0
   39.8222   32.0767   40.5574 H   0  0  0  0  0  0  0  0  0  0  0  0
   42.7682   31.8700   41.1591 H   0  0  0  0  0  0  0  0  0  0  0  0
   41.5947   33.0594   41.7296 H   0  0  0  0  0  0  0  0  0  0  0  0
   41.9638   30.1333   42.6088 H   0  0  0  0  0  0  0  0  0  0  0  0
   41.8004   31.5498   43.6478 H   0  0  0  0  0  0  0  0  0  0  0  0
   39.4571   31.8239   42.3694 H   0  0  0  0  0  0  0  0  0  0  0  0
   39.6188   30.6477   43.7283 H   0  0  0  0  0  0  0  0  0  0  0  0
  1  8  1  0
  1  5  1  0
  2  3  1  0
  2  1  1  0
  3  4  1  0
  4  5  1  0
  5 12  1  0
  7  6  2  0
  8  7  1  0
  9  8  2  0
  9 10  1  0
 10 11  2  0
 11  6  1  0
 12 13  1  0
 14 12  1  0
 15 19  1  0
 15 14  1  0
 16 15  1  0
 17 16  2  0
 17 18  1  0
 18 19  2  0
 19 20  1  0
 20 25  1  0
 21 20  1  0
 22 21  1  0
 22 23  1  0
 23 24  1  0
 25 24  1  0
  1 26  1  6
  2 27  1  0
  2 28  1  0
  3 29  1  0
  3 30  1  0
  4 31  1  0
  4 32  1  0
  5 33  1  1
  6 34  1  0
  7 35  1  0
 10 36  1  0
 12 37  1  1
 13 38  1  0
 13 39  1  0
 13 40  1  0
 14 41  1  0
 14 42  1  0
 16 43  1  0
 17 44  1  0
 20 45  1  0
 21 46  1  0
 21 47  1  0
 22 48  1  0
 22 49  1  0
 23 50  1  0
 23 51  1  0
 24 52  1  0
 24 53  1  0
 25 54  1  0
 25 55  1  0
M  ISO  8  26  13  27  13  28  13  29  13  30  13  31  13  32  13  33  13
M  ISO  8  34  14  35  14  36  14  37   8  38   8  39   8  40   8  41   8
M  ISO  8  42   8  43  14  44  14  45  13  46  13  47  13  48  13  49  13
M  ISO  6  50  13  51  13  52  13  53  13  54  13  55  13
M  END
>  <minimizedAffinity>  (1) 
-6.08251333

>  <minimizedRMSD>  (1) 
0.44259727

$$$$
