
     RDKit          3D

 41 43  0  0  0  0  0  0  0  0999 V2000
   39.0810   34.4970   40.6380 S   0  0  0  0  0  0  0  0  0  0  0  0
   37.6210   33.8270   39.7300 C   0  0  0  0  0  0  0  0  0  0  0  0
   37.3600   32.6190   40.2030 O   0  0  0  0  0  0  0  0  0  0  0  0
   37.2320   31.4060   39.5790 C   0  0  0  0  0  0  0  0  0  0  0  0
   36.7020   31.3760   38.4640 O   0  0  0  0  0  0  0  0  0  0  0  0
   38.2610   30.4190   41.6200 C   0  0  0  0  0  0  0  0  0  0  0  0
   37.7620   30.2340   40.3370 C   0  0  0  0  0  0  0  0  0  0  0  0
   37.7290   29.0060   39.7150 C   0  0  0  0  0  0  0  0  0  0  0  0
   38.2210   27.9870   40.4450 N   0  0  0  0  0  0  0  0  0  0  0  0
   38.7160   28.1250   41.6950 C   0  0  0  0  0  0  0  0  0  0  0  0
   38.7350   29.3700   42.2920 N   0  0  0  0  0  0  0  0  0  0  0  0
   39.2330   27.0430   42.4560 N   0  0  0  0  0  0  0  0  0  0  0  0
   40.0510   27.3320   43.4880 C   0  0  0  0  0  0  0  0  0  0  0  0
   40.4650   26.2090   44.1210 N   0  0  0  0  0  0  0  0  0  0  0  0
   39.8640   25.1980   43.4300 C   0  0  0  0  0  0  0  0  0  0  0  0
   39.1320   25.7300   42.4370 N   0  0  0  0  0  0  0  0  0  0  0  0
   40.5890   33.7630   40.0560 C   0  0  0  0  0  0  0  0  0  0  0  0
   40.3430   33.0640   38.7640 C   0  0  0  0  0  0  0  0  0  0  0  0
   41.0860   32.7100   41.0320 C   0  0  0  0  0  0  0  0  0  0  0  0
   41.6670   34.8010   39.8510 C   0  0  0  0  0  0  0  0  0  0  0  0
   42.0120   35.5130   41.0480 N   0  0  0  0  0  0  0  0  0  0  0  0
   43.0890   35.1440   41.7800 C   0  0  0  0  0  0  0  0  0  0  0  0
   43.2050   35.9520   42.8440 N   0  0  0  0  0  0  0  0  0  0  0  0
   42.1910   36.8480   42.7920 C   0  0  0  0  0  0  0  0  0  0  0  0
   41.5060   36.5500   41.7060 N   0  0  0  0  0  0  0  0  0  0  0  0
   37.8468   33.7655   38.6552 H   0  0  0  0  0  0  0  0  0  0  0  0
   36.7513   34.4861   39.8689 H   0  0  0  0  0  0  0  0  0  0  0  0
   38.2650   31.4199   42.0763 H   0  0  0  0  0  0  0  0  0  0  0  0
   37.3309   28.8679   38.6989 H   0  0  0  0  0  0  0  0  0  0  0  0
   40.3449   28.3513   43.7790 H   0  0  0  0  0  0  0  0  0  0  0  0
   39.9624   24.1246   43.6495 H   0  0  0  0  0  0  0  0  0  0  0  0
   39.9838   32.0433   38.9619 H   0  0  0  0  0  0  0  0  0  0  0  0
   39.5846   33.6144   38.1879 H   0  0  0  0  0  0  0  0  0  0  0  0
   41.2790   33.0181   38.1879 H   0  0  0  0  0  0  0  0  0  0  0  0
   40.9216   33.0584   42.0623 H   0  0  0  0  0  0  0  0  0  0  0  0
   40.5359   31.7713   40.8701 H   0  0  0  0  0  0  0  0  0  0  0  0
   42.1603   32.5380   40.8701 H   0  0  0  0  0  0  0  0  0  0  0  0
   42.5688   34.2964   39.4740 H   0  0  0  0  0  0  0  0  0  0  0  0
   41.2728   35.5398   39.1377 H   0  0  0  0  0  0  0  0  0  0  0  0
   43.7648   34.3101   41.5393 H   0  0  0  0  0  0  0  0  0  0  0  0
   41.9822   37.6568   43.5077 H   0  0  0  0  0  0  0  0  0  0  0  0
  2  3  1  0
  2  1  1  0
  4  3  1  0
  4  7  1  0
  5  4  2  0
  6 11  2  0
  7  6  1  0
  8  7  2  0
  8  9  1  0
  9 10  2  0
 10 11  1  0
 10 12  1  0
 12 13  1  0
 13 14  2  0
 15 14  1  0
 16 12  1  0
 16 15  2  0
 17  1  1  0
 17 19  1  0
 18 17  1  0
 20 17  1  0
 20 21  1  0
 21 25  1  0
 21 22  1  0
 22 23  2  0
 24 23  1  0
 25 24  2  0
  2 26  1  0
  2 27  1  0
  6 28  1  0
  8 29  1  0
 13 30  1  0
 15 31  1  0
 18 32  1  0
 18 33  1  0
 18 34  1  0
 19 35  1  0
 19 36  1  0
 19 37  1  0
 20 38  1  0
 20 39  1  0
 22 40  1  0
 24 41  1  0
M  ISO  8  26   8  27   8  28  14  29  14  30  14  31  14  32   8  33   8
M  ISO  8  34   8  35   8  36   8  37   8  38   8  39   8  40  14  41  14
M  END
>  <minimizedAffinity>  (1) 
-5.32911444

>  <minimizedRMSD>  (1) 
1.36692393

$$$$
