
     RDKit          3D

 42 44  0  0  0  0  0  0  0  0999 V2000
   40.5340   33.6050   40.0150 C   0  0  0  0  0  0  0  0  0  0  0  0
   40.4020   32.8060   38.7630 C   0  0  0  0  0  0  0  0  0  0  0  0
   41.1610   32.7050   41.0470 C   0  0  0  0  0  0  0  0  0  0  0  0
   41.4520   34.7860   39.7400 C   0  0  0  0  0  0  0  0  0  0  0  0
   41.8500   35.4890   40.9320 N   0  0  0  0  0  0  0  0  0  0  0  0
   42.9640   35.1150   41.6070 C   0  0  0  0  0  0  0  0  0  0  0  0
   43.1110   35.9220   42.6740 N   0  0  0  0  0  0  0  0  0  0  0  0
   42.0870   36.8060   42.6710 C   0  0  0  0  0  0  0  0  0  0  0  0
   41.3560   36.5140   41.6140 N   0  0  0  0  0  0  0  0  0  0  0  0
   38.9330   34.1670   40.5390 S   0  0  0  0  0  0  0  0  0  0  0  0
   37.6400   32.9090   40.1330 C   0  0  0  0  0  0  0  0  0  0  0  0
   37.7720   31.9070   40.9950 O   0  0  0  0  0  0  0  0  0  0  0  0
   37.0370   30.7630   41.1770 C   0  0  0  0  0  0  0  0  0  0  0  0
   35.8830   30.7410   40.7310 O   0  0  0  0  0  0  0  0  0  0  0  0
   39.0210   29.8530   42.3660 C   0  0  0  0  0  0  0  0  0  0  0  0
   37.7200   29.6580   41.9010 C   0  0  0  0  0  0  0  0  0  0  0  0
   37.0260   28.4860   42.0770 C   0  0  0  0  0  0  0  0  0  0  0  0
   37.7050   27.5170   42.7430 N   0  0  0  0  0  0  0  0  0  0  0  0
   38.9550   27.6760   43.2020 C   0  0  0  0  0  0  0  0  0  0  0  0
   39.6210   28.8630   43.0080 N   0  0  0  0  0  0  0  0  0  0  0  0
   39.7010   26.6180   43.9310 C   0  0  0  0  0  0  0  0  0  0  0  0
   39.6480   25.2040   43.4640 C   0  0  0  0  0  0  0  0  0  0  0  0
   40.8680   25.9700   43.1250 C   0  0  0  0  0  0  0  0  0  0  0  0
   40.2276   31.7504   39.0184 H   0  0  0  0  0  0  0  0  0  0  0  0
   39.5544   33.1855   38.1735 H   0  0  0  0  0  0  0  0  0  0  0  0
   41.3266   32.8927   38.1735 H   0  0  0  0  0  0  0  0  0  0  0  0
   40.9074   33.0690   42.0536 H   0  0  0  0  0  0  0  0  0  0  0  0
   40.7798   31.6809   40.9206 H   0  0  0  0  0  0  0  0  0  0  0  0
   42.2537   32.7077   40.9206 H   0  0  0  0  0  0  0  0  0  0  0  0
   42.3563   34.4150   39.2354 H   0  0  0  0  0  0  0  0  0  0  0  0
   40.8901   35.4963   39.1157 H   0  0  0  0  0  0  0  0  0  0  0  0
   43.6360   34.2896   41.3292 H   0  0  0  0  0  0  0  0  0  0  0  0
   41.9020   37.6064   43.4026 H   0  0  0  0  0  0  0  0  0  0  0  0
   36.6391   33.3556   40.2269 H   0  0  0  0  0  0  0  0  0  0  0  0
   37.7604   32.5496   39.1004 H   0  0  0  0  0  0  0  0  0  0  0  0
   39.5377   30.8102   42.2024 H   0  0  0  0  0  0  0  0  0  0  0  0
   35.9999   28.3434   41.7072 H   0  0  0  0  0  0  0  0  0  0  0  0
   39.5453   27.1002   44.9073 H   0  0  0  0  0  0  0  0  0  0  0  0
   39.7086   24.3890   44.2002 H   0  0  0  0  0  0  0  0  0  0  0  0
   38.9238   24.6297   42.8676 H   0  0  0  0  0  0  0  0  0  0  0  0
   41.8223   25.7393   43.6210 H   0  0  0  0  0  0  0  0  0  0  0  0
   41.4129   26.2109   42.2003 H   0  0  0  0  0  0  0  0  0  0  0  0
  1 10  1  0
  1  3  1  0
  2  1  1  0
  4  1  1  0
  4  5  1  0
  5  6  1  0
  5  9  1  0
  6  7  2  0
  8  7  1  0
  9  8  2  0
 11 10  1  0
 11 12  1  0
 12 13  1  0
 13 16  1  0
 14 13  2  0
 15 20  2  0
 16 17  2  0
 16 15  1  0
 17 18  1  0
 18 19  2  0
 19 21  1  0
 20 19  1  0
 22 21  1  0
 23 22  1  0
 23 21  1  0
  2 24  1  0
  2 25  1  0
  2 26  1  0
  3 27  1  0
  3 28  1  0
  3 29  1  0
  4 30  1  0
  4 31  1  0
  6 32  1  0
  8 33  1  0
 11 34  1  0
 11 35  1  0
 15 36  1  0
 17 37  1  0
 21 38  1  0
 22 39  1  0
 22 40  1  0
 23 41  1  0
 23 42  1  0
M  ISO  8  24   8  25   8  26   8  27   8  28   8  29   8  30   8  31   8
M  ISO  8  32  14  33  14  34   8  35   8  36  14  37  14  38  13  39  13
M  ISO  3  40  13  41  13  42  13
M  END
>  <minimizedAffinity>  (1) 
-5.29653931

>  <minimizedRMSD>  (1) 
0.717057288

$$$$
