
     RDKit          3D

 42 44  0  0  0  0  0  0  0  0999 V2000
   37.7700   33.2510   40.0310 C   0  0  0  0  0  0  0  0  0  0  0  0
   39.1800   34.3560   40.4590 S   0  0  0  0  0  0  0  0  0  0  0  0
   40.7420   33.6120   40.0010 C   0  0  0  0  0  0  0  0  0  0  0  0
   40.5680   32.8600   38.7360 C   0  0  0  0  0  0  0  0  0  0  0  0
   41.1860   32.6370   41.0640 C   0  0  0  0  0  0  0  0  0  0  0  0
   41.8010   34.6820   39.8190 C   0  0  0  0  0  0  0  0  0  0  0  0
   42.0780   35.4380   41.0050 N   0  0  0  0  0  0  0  0  0  0  0  0
   43.1520   35.1290   41.7720 C   0  0  0  0  0  0  0  0  0  0  0  0
   43.1980   35.9700   42.8240 N   0  0  0  0  0  0  0  0  0  0  0  0
   42.1500   36.8130   42.7180 C   0  0  0  0  0  0  0  0  0  0  0  0
   41.5060   36.4660   41.6230 N   0  0  0  0  0  0  0  0  0  0  0  0
   37.7790   32.2170   40.8600 O   0  0  0  0  0  0  0  0  0  0  0  0
   37.0670   31.0480   40.8820 C   0  0  0  0  0  0  0  0  0  0  0  0
   35.8840   31.0880   40.5220 O   0  0  0  0  0  0  0  0  0  0  0  0
   38.7130   29.9520   42.3930 C   0  0  0  0  0  0  0  0  0  0  0  0
   37.8090   29.8500   41.3430 C   0  0  0  0  0  0  0  0  0  0  0  0
   37.5580   28.6630   40.7010 C   0  0  0  0  0  0  0  0  0  0  0  0
   38.2580   27.6050   41.1710 N   0  0  0  0  0  0  0  0  0  0  0  0
   39.1400   27.6710   42.1850 C   0  0  0  0  0  0  0  0  0  0  0  0
   39.3600   28.8840   42.7990 N   0  0  0  0  0  0  0  0  0  0  0  0
   39.8150   26.4370   42.5740 C   0  0  0  0  0  0  0  0  0  0  0  0
   39.0220   25.2990   42.7020 C   0  0  0  0  0  0  0  0  0  0  0  0
   39.8830   24.2650   43.0770 C   0  0  0  0  0  0  0  0  0  0  0  0
   41.1290   24.7930   43.1610 N   0  0  0  0  0  0  0  0  0  0  0  0
   41.0760   26.0910   42.8600 N   0  0  0  0  0  0  0  0  0  0  0  0
   36.8230   33.8010   40.1342 H   0  0  0  0  0  0  0  0  0  0  0  0
   37.8667   32.9020   38.9923 H   0  0  0  0  0  0  0  0  0  0  0  0
   40.3254   31.8114   38.9632 H   0  0  0  0  0  0  0  0  0  0  0  0
   39.7497   33.3077   38.1529 H   0  0  0  0  0  0  0  0  0  0  0  0
   41.4998   32.9027   38.1529 H   0  0  0  0  0  0  0  0  0  0  0  0
   40.9911   33.0649   42.0584 H   0  0  0  0  0  0  0  0  0  0  0  0
   40.6279   31.6955   40.9542 H   0  0  0  0  0  0  0  0  0  0  0  0
   42.2626   32.4400   40.9542 H   0  0  0  0  0  0  0  0  0  0  0  0
   42.7323   34.1948   39.4943 H   0  0  0  0  0  0  0  0  0  0  0  0
   41.4110   35.3913   39.0742 H   0  0  0  0  0  0  0  0  0  0  0  0
   43.8706   34.3215   41.5684 H   0  0  0  0  0  0  0  0  0  0  0  0
   41.8861   37.6276   43.4085 H   0  0  0  0  0  0  0  0  0  0  0  0
   38.8858   30.9223   42.8816 H   0  0  0  0  0  0  0  0  0  0  0  0
   36.8433   28.5786   39.8691 H   0  0  0  0  0  0  0  0  0  0  0  0
   37.9362   25.2287   42.5403 H   0  0  0  0  0  0  0  0  0  0  0  0
   39.6027   23.2186   43.2683 H   0  0  0  0  0  0  0  0  0  0  0  0
   41.9811   24.2740   43.4167 H   0  0  0  0  0  0  0  0  0  0  0  0
  1  2  1  0
  1 12  1  0
  3  2  1  0
  3  5  1  0
  4  3  1  0
  6  3  1  0
  6  7  1  0
  7 11  1  0
  7  8  1  0
  8  9  2  0
 10  9  1  0
 11 10  2  0
 12 13  1  0
 13 16  1  0
 14 13  2  0
 15 20  2  0
 16 15  1  0
 17 18  1  0
 17 16  2  0
 18 19  2  0
 19 21  1  0
 19 20  1  0
 21 22  1  0
 21 25  2  0
 22 23  2  0
 23 24  1  0
 25 24  1  0
  1 26  1  0
  1 27  1  0
  4 28  1  0
  4 29  1  0
  4 30  1  0
  5 31  1  0
  5 32  1  0
  5 33  1  0
  6 34  1  0
  6 35  1  0
  8 36  1  0
 10 37  1  0
 15 38  1  0
 17 39  1  0
 22 40  1  0
 23 41  1  0
 24 42  1  0
M  ISO  8  26   8  27   8  28   8  29   8  30   8  31   8  32   8  33   8
M  ISO  8  34   8  35   8  36  14  37  14  38  14  39  14  40  14  41  14
M  ISO  1  42   9
M  END
>  <minimizedAffinity>  (1) 
-5.2241044

>  <minimizedRMSD>  (1) 
1.28444731

$$$$
