
     RDKit          3D

 42 44  0  0  0  0  0  0  0  0999 V2000
   39.0530   34.4590   40.6460 S   0  0  0  0  0  0  0  0  0  0  0  0
   37.6110   33.8280   39.6840 C   0  0  0  0  0  0  0  0  0  0  0  0
   37.2900   32.6350   40.1740 O   0  0  0  0  0  0  0  0  0  0  0  0
   37.2100   31.4060   39.5720 C   0  0  0  0  0  0  0  0  0  0  0  0
   36.7000   31.3450   38.4430 O   0  0  0  0  0  0  0  0  0  0  0  0
   38.2410   30.4810   41.6380 C   0  0  0  0  0  0  0  0  0  0  0  0
   37.7600   30.2520   40.3570 C   0  0  0  0  0  0  0  0  0  0  0  0
   37.7680   29.0270   39.7450 C   0  0  0  0  0  0  0  0  0  0  0  0
   38.2980   28.0320   40.4990 N   0  0  0  0  0  0  0  0  0  0  0  0
   38.7720   28.2230   41.7390 C   0  0  0  0  0  0  0  0  0  0  0  0
   38.7500   29.4580   42.3270 N   0  0  0  0  0  0  0  0  0  0  0  0
   39.3360   27.1280   42.5250 C   0  0  0  0  0  0  0  0  0  0  0  0
   40.3300   27.4260   43.4450 C   0  0  0  0  0  0  0  0  0  0  0  0
   40.6940   26.2220   44.0540 C   0  0  0  0  0  0  0  0  0  0  0  0
   39.8790   25.2590   43.4510 C   0  0  0  0  0  0  0  0  0  0  0  0
   39.1020   25.8250   42.5630 O   0  0  0  0  0  0  0  0  0  0  0  0
   40.5690   33.7430   40.0570 C   0  0  0  0  0  0  0  0  0  0  0  0
   40.3230   33.0390   38.7660 C   0  0  0  0  0  0  0  0  0  0  0  0
   41.0940   32.7180   41.0300 C   0  0  0  0  0  0  0  0  0  0  0  0
   41.6230   34.8130   39.8320 C   0  0  0  0  0  0  0  0  0  0  0  0
   41.9800   35.5250   41.0340 N   0  0  0  0  0  0  0  0  0  0  0  0
   43.0680   35.1420   41.7470 C   0  0  0  0  0  0  0  0  0  0  0  0
   43.1910   35.9460   42.8140 N   0  0  0  0  0  0  0  0  0  0  0  0
   42.1800   36.8460   42.7840 C   0  0  0  0  0  0  0  0  0  0  0  0
   41.4820   36.5560   41.7020 N   0  0  0  0  0  0  0  0  0  0  0  0
   37.8804   33.7366   38.6214 H   0  0  0  0  0  0  0  0  0  0  0  0
   36.7601   34.5202   39.7661 H   0  0  0  0  0  0  0  0  0  0  0  0
   38.2034   31.4885   42.0780 H   0  0  0  0  0  0  0  0  0  0  0  0
   37.3782   28.8640   38.7294 H   0  0  0  0  0  0  0  0  0  0  0  0
   40.7514   28.4201   43.6552 H   0  0  0  0  0  0  0  0  0  0  0  0
   41.4533   26.0664   44.8346 H   0  0  0  0  0  0  0  0  0  0  0  0
   39.8894   24.1849   43.6879 H   0  0  0  0  0  0  0  0  0  0  0  0
   39.9663   32.0181   38.9672 H   0  0  0  0  0  0  0  0  0  0  0  0
   39.5627   33.5860   38.1891 H   0  0  0  0  0  0  0  0  0  0  0  0
   41.2585   32.9935   38.1891 H   0  0  0  0  0  0  0  0  0  0  0  0
   40.9166   33.0644   42.0588 H   0  0  0  0  0  0  0  0  0  0  0  0
   40.5749   31.7614   40.8705 H   0  0  0  0  0  0  0  0  0  0  0  0
   42.1736   32.5803   40.8705 H   0  0  0  0  0  0  0  0  0  0  0  0
   42.5271   34.3330   39.4292 H   0  0  0  0  0  0  0  0  0  0  0  0
   41.1967   35.5477   39.1331 H   0  0  0  0  0  0  0  0  0  0  0  0
   43.7395   34.3088   41.4923 H   0  0  0  0  0  0  0  0  0  0  0  0
   41.9820   37.6496   43.5087 H   0  0  0  0  0  0  0  0  0  0  0  0
  2  3  1  0
  2  1  1  0
  4  3  1  0
  4  7  1  0
  5  4  2  0
  6 11  2  0
  7  6  1  0
  8  7  2  0
  8  9  1  0
  9 10  2  0
 10 11  1  0
 10 12  1  0
 12 16  1  0
 12 13  2  0
 13 14  1  0
 15 14  2  0
 16 15  1  0
 17  1  1  0
 17 19  1  0
 18 17  1  0
 20 17  1  0
 20 21  1  0
 21 25  1  0
 21 22  1  0
 22 23  2  0
 24 23  1  0
 25 24  2  0
  2 26  1  0
  2 27  1  0
  6 28  1  0
  8 29  1  0
 13 30  1  0
 14 31  1  0
 15 32  1  0
 18 33  1  0
 18 34  1  0
 18 35  1  0
 19 36  1  0
 19 37  1  0
 19 38  1  0
 20 39  1  0
 20 40  1  0
 22 41  1  0
 24 42  1  0
M  ISO  8  26   8  27   8  28  14  29  14  30  14  31  14  32  14  33   8
M  ISO  8  34   8  35   8  36   8  37   8  38   8  39   8  40   8  41  14
M  ISO  1  42  14
M  END
>  <minimizedAffinity>  (1) 
-5.20993805

>  <minimizedRMSD>  (1) 
1.35118914

$$$$
