
     RDKit          3D

 41 42  0  0  0  0  0  0  0  0999 V2000
   40.5660   33.6460   39.9780 C   0  0  0  0  0  0  0  0  0  0  0  0
   40.4280   32.8720   38.7090 C   0  0  0  0  0  0  0  0  0  0  0  0
   41.1910   32.7260   41.0020 C   0  0  0  0  0  0  0  0  0  0  0  0
   41.4950   34.8220   39.7280 C   0  0  0  0  0  0  0  0  0  0  0  0
   41.8670   35.5210   40.9290 N   0  0  0  0  0  0  0  0  0  0  0  0
   42.9780   35.1510   41.6160 C   0  0  0  0  0  0  0  0  0  0  0  0
   43.1190   35.9350   42.6900 N   0  0  0  0  0  0  0  0  0  0  0  0
   42.0920   36.8170   42.6990 C   0  0  0  0  0  0  0  0  0  0  0  0
   41.3710   36.5360   41.6310 N   0  0  0  0  0  0  0  0  0  0  0  0
   38.9690   34.2040   40.5140 S   0  0  0  0  0  0  0  0  0  0  0  0
   37.6740   32.9430   40.1360 C   0  0  0  0  0  0  0  0  0  0  0  0
   37.8430   31.9300   40.9790 O   0  0  0  0  0  0  0  0  0  0  0  0
   37.1020   30.7950   41.1870 C   0  0  0  0  0  0  0  0  0  0  0  0
   35.9440   30.7720   40.7550 O   0  0  0  0  0  0  0  0  0  0  0  0
   39.1430   29.8180   42.2280 C   0  0  0  0  0  0  0  0  0  0  0  0
   37.7960   29.6890   41.9290 C   0  0  0  0  0  0  0  0  0  0  0  0
   37.0430   28.5970   42.2640 C   0  0  0  0  0  0  0  0  0  0  0  0
   37.7270   27.6280   42.9230 N   0  0  0  0  0  0  0  0  0  0  0  0
   39.0280   27.7220   43.2270 C   0  0  0  0  0  0  0  0  0  0  0  0
   39.7470   28.8390   42.8700 N   0  0  0  0  0  0  0  0  0  0  0  0
   39.6720   26.5930   43.9540 C   0  0  0  0  0  0  0  0  0  0  0  0
   41.1460   26.8360   44.1710 C   0  0  0  0  0  0  0  0  0  0  0  0
   40.2394   31.8140   38.9435 H   0  0  0  0  0  0  0  0  0  0  0  0
   39.5873   33.2735   38.1242 H   0  0  0  0  0  0  0  0  0  0  0  0
   41.3557   32.9582   38.1242 H   0  0  0  0  0  0  0  0  0  0  0  0
   40.9478   33.0839   42.0133 H   0  0  0  0  0  0  0  0  0  0  0  0
   40.7970   31.7076   40.8689 H   0  0  0  0  0  0  0  0  0  0  0  0
   42.2829   32.7170   40.8689 H   0  0  0  0  0  0  0  0  0  0  0  0
   42.4095   34.4475   39.2450 H   0  0  0  0  0  0  0  0  0  0  0  0
   40.9515   35.5359   39.0917 H   0  0  0  0  0  0  0  0  0  0  0  0
   43.6569   34.3331   41.3330 H   0  0  0  0  0  0  0  0  0  0  0  0
   41.8990   37.6044   43.4425 H   0  0  0  0  0  0  0  0  0  0  0  0
   36.6737   33.3803   40.2706 H   0  0  0  0  0  0  0  0  0  0  0  0
   37.7616   32.5986   39.0950 H   0  0  0  0  0  0  0  0  0  0  0  0
   39.6978   30.7214   41.9346 H   0  0  0  0  0  0  0  0  0  0  0  0
   35.9738   28.5118   42.0198 H   0  0  0  0  0  0  0  0  0  0  0  0
   39.1828   26.4736   44.9320 H   0  0  0  0  0  0  0  0  0  0  0  0
   39.5608   25.6847   43.3436 H   0  0  0  0  0  0  0  0  0  0  0  0
   41.3569   26.8708   45.2500 H   0  0  0  0  0  0  0  0  0  0  0  0
   41.7237   26.0210   43.7105 H   0  0  0  0  0  0  0  0  0  0  0  0
   41.4315   27.7933   43.7105 H   0  0  0  0  0  0  0  0  0  0  0  0
  1 10  1  0
  1  3  1  0
  2  1  1  0
  4  1  1  0
  4  5  1  0
  5  6  1  0
  5  9  1  0
  6  7  2  0
  7  8  1  0
  9  8  2  0
 11 10  1  0
 11 12  1  0
 12 13  1  0
 13 16  1  0
 14 13  2  0
 15 20  2  0
 16 15  1  0
 16 17  2  0
 17 18  1  0
 18 19  2  0
 19 21  1  0
 20 19  1  0
 21 22  1  0
  2 23  1  0
  2 24  1  0
  2 25  1  0
  3 26  1  0
  3 27  1  0
  3 28  1  0
  4 29  1  0
  4 30  1  0
  6 31  1  0
  8 32  1  0
 11 33  1  0
 11 34  1  0
 15 35  1  0
 17 36  1  0
 21 37  1  0
 21 38  1  0
 22 39  1  0
 22 40  1  0
 22 41  1  0
M  ISO  8  23   8  24   8  25   8  26   8  27   8  28   8  29   8  30   8
M  ISO  8  31  14  32  14  33   8  34   8  35  14  36  14  37   8  38   8
M  ISO  3  39   8  40   8  41   8
M  END
>  <minimizedAffinity>  (1) 
-5.14536619

>  <minimizedRMSD>  (1) 
0.679108322

$$$$
