
     RDKit          3D

 41 43  0  0  0  0  0  0  0  0999 V2000
   39.0180   34.5300   40.5680 S   0  0  0  0  0  0  0  0  0  0  0  0
   37.5790   33.8610   39.6270 C   0  0  0  0  0  0  0  0  0  0  0  0
   37.1930   32.7300   40.1980 O   0  0  0  0  0  0  0  0  0  0  0  0
   37.1280   31.4420   39.7420 C   0  0  0  0  0  0  0  0  0  0  0  0
   36.5080   31.2330   38.6910 O   0  0  0  0  0  0  0  0  0  0  0  0
   37.2830   30.0540   41.8050 C   0  0  0  0  0  0  0  0  0  0  0  0
   37.8290   30.4110   40.5810 C   0  0  0  0  0  0  0  0  0  0  0  0
   38.9750   29.8850   40.0750 C   0  0  0  0  0  0  0  0  0  0  0  0
   39.5580   28.9680   40.8690 N   0  0  0  0  0  0  0  0  0  0  0  0
   39.0700   28.5780   42.0780 C   0  0  0  0  0  0  0  0  0  0  0  0
   37.9030   29.1530   42.5310 N   0  0  0  0  0  0  0  0  0  0  0  0
   39.8020   27.5650   42.8500 C   0  0  0  0  0  0  0  0  0  0  0  0
   41.1000   27.9890   43.2680 C   0  0  0  0  0  0  0  0  0  0  0  0
   41.7460   26.5100   44.2010 S   0  0  0  0  0  0  0  0  0  0  0  0
   40.1210   25.5880   43.8440 C   0  0  0  0  0  0  0  0  0  0  0  0
   39.5260   26.3350   43.2510 N   0  0  0  0  0  0  0  0  0  0  0  0
   40.5350   33.7780   40.0310 C   0  0  0  0  0  0  0  0  0  0  0  0
   40.3050   33.0530   38.7450 C   0  0  0  0  0  0  0  0  0  0  0  0
   41.0140   32.7500   41.0280 C   0  0  0  0  0  0  0  0  0  0  0  0
   41.6190   34.8210   39.8220 C   0  0  0  0  0  0  0  0  0  0  0  0
   41.9800   35.5150   41.0180 N   0  0  0  0  0  0  0  0  0  0  0  0
   43.0590   35.1400   41.7480 C   0  0  0  0  0  0  0  0  0  0  0  0
   43.1860   35.9340   42.8120 N   0  0  0  0  0  0  0  0  0  0  0  0
   42.1770   36.8360   42.7700 C   0  0  0  0  0  0  0  0  0  0  0  0
   41.4810   36.5480   41.6810 N   0  0  0  0  0  0  0  0  0  0  0  0
   37.8740   33.6688   38.5849 H   0  0  0  0  0  0  0  0  0  0  0  0
   36.7533   34.5878   39.6338 H   0  0  0  0  0  0  0  0  0  0  0  0
   36.3500   30.5162   42.1599 H   0  0  0  0  0  0  0  0  0  0  0  0
   39.3903   30.1828   39.1009 H   0  0  0  0  0  0  0  0  0  0  0  0
   41.5972   28.9529   43.0843 H   0  0  0  0  0  0  0  0  0  0  0  0
   39.8331   24.5699   44.1451 H   0  0  0  0  0  0  0  0  0  0  0  0
   39.9786   32.0242   38.9574 H   0  0  0  0  0  0  0  0  0  0  0  0
   39.5274   33.5721   38.1654 H   0  0  0  0  0  0  0  0  0  0  0  0
   41.2396   33.0289   38.1654 H   0  0  0  0  0  0  0  0  0  0  0  0
   40.8411   33.1211   42.0490 H   0  0  0  0  0  0  0  0  0  0  0  0
   40.4608   31.8107   40.8806 H   0  0  0  0  0  0  0  0  0  0  0  0
   42.0890   32.5694   40.8806 H   0  0  0  0  0  0  0  0  0  0  0  0
   42.5143   34.3185   39.4272 H   0  0  0  0  0  0  0  0  0  0  0  0
   41.2180   35.5690   39.1222 H   0  0  0  0  0  0  0  0  0  0  0  0
   43.7302   34.3047   41.4996 H   0  0  0  0  0  0  0  0  0  0  0  0
   41.9768   37.6417   43.4916 H   0  0  0  0  0  0  0  0  0  0  0  0
  2  3  1  0
  2  1  1  0
  4  3  1  0
  4  7  1  0
  5  4  2  0
  6 11  2  0
  7  6  1  0
  8  7  2  0
  8  9  1  0
  9 10  2  0
 10 11  1  0
 10 12  1  0
 12 16  1  0
 12 13  2  0
 13 14  1  0
 15 14  1  0
 16 15  2  0
 17  1  1  0
 17 19  1  0
 18 17  1  0
 20 17  1  0
 20 21  1  0
 21 25  1  0
 21 22  1  0
 22 23  2  0
 24 23  1  0
 25 24  2  0
  2 26  1  0
  2 27  1  0
  6 28  1  0
  8 29  1  0
 13 30  1  0
 15 31  1  0
 18 32  1  0
 18 33  1  0
 18 34  1  0
 19 35  1  0
 19 36  1  0
 19 37  1  0
 20 38  1  0
 20 39  1  0
 22 40  1  0
 24 41  1  0
M  ISO  8  26   8  27   8  28  14  29  14  30  14  31  14  32   8  33   8
M  ISO  8  34   8  35   8  36   8  37   8  38   8  39   8  40  14  41  14
M  END
>  <minimizedAffinity>  (1) 
-5.12439585

>  <minimizedRMSD>  (1) 
1.6471101

$$$$
