
     RDKit          3D

 43 45  0  0  0  0  0  0  0  0999 V2000
   37.6150   33.7370   39.7570 C   0  0  0  0  0  0  0  0  0  0  0  0
   39.1040   34.5070   40.5290 S   0  0  0  0  0  0  0  0  0  0  0  0
   40.5840   33.6600   40.0320 C   0  0  0  0  0  0  0  0  0  0  0  0
   40.3440   32.9430   38.7440 C   0  0  0  0  0  0  0  0  0  0  0  0
   40.9860   32.6200   41.0470 C   0  0  0  0  0  0  0  0  0  0  0  0
   41.7290   34.6430   39.8360 C   0  0  0  0  0  0  0  0  0  0  0  0
   42.0350   35.4030   41.0060 N   0  0  0  0  0  0  0  0  0  0  0  0
   43.1010   35.0830   41.7790 C   0  0  0  0  0  0  0  0  0  0  0  0
   43.1770   35.9350   42.8140 N   0  0  0  0  0  0  0  0  0  0  0  0
   42.1470   36.8080   42.6970 C   0  0  0  0  0  0  0  0  0  0  0  0
   41.4880   36.4570   41.6050 N   0  0  0  0  0  0  0  0  0  0  0  0
   37.4080   32.5680   40.3520 O   0  0  0  0  0  0  0  0  0  0  0  0
   37.2530   31.3020   39.8410 C   0  0  0  0  0  0  0  0  0  0  0  0
   36.4420   31.1460   38.9220 O   0  0  0  0  0  0  0  0  0  0  0  0
   38.1310   30.1210   41.8530 C   0  0  0  0  0  0  0  0  0  0  0  0
   38.0980   30.2390   40.4680 C   0  0  0  0  0  0  0  0  0  0  0  0
   38.8090   29.4270   39.6380 C   0  0  0  0  0  0  0  0  0  0  0  0
   39.5590   28.4880   40.2570 N   0  0  0  0  0  0  0  0  0  0  0  0
   39.6180   28.3390   41.5960 C   0  0  0  0  0  0  0  0  0  0  0  0
   38.8790   29.1870   42.3920 N   0  0  0  0  0  0  0  0  0  0  0  0
   40.4330   27.3170   42.2440 C   0  0  0  0  0  0  0  0  0  0  0  0
   40.6680   27.4400   43.5980 C   0  0  0  0  0  0  0  0  0  0  0  0
   41.4510   26.4470   44.1860 C   0  0  0  0  0  0  0  0  0  0  0  0
   41.9490   25.4280   43.4650 N   0  0  0  0  0  0  0  0  0  0  0  0
   41.7060   25.3310   42.1500 C   0  0  0  0  0  0  0  0  0  0  0  0
   40.9520   26.2780   41.5620 N   0  0  0  0  0  0  0  0  0  0  0  0
   37.7879   33.5841   38.6815 H   0  0  0  0  0  0  0  0  0  0  0  0
   36.7383   34.3903   39.8778 H   0  0  0  0  0  0  0  0  0  0  0  0
   40.0012   31.9189   38.9528 H   0  0  0  0  0  0  0  0  0  0  0  0
   39.5753   33.4761   38.1653 H   0  0  0  0  0  0  0  0  0  0  0  0
   41.2787   32.9059   38.1653 H   0  0  0  0  0  0  0  0  0  0  0  0
   40.8320   33.0183   42.0607 H   0  0  0  0  0  0  0  0  0  0  0  0
   40.3719   31.7177   40.9104 H   0  0  0  0  0  0  0  0  0  0  0  0
   42.0474   32.3653   40.9104 H   0  0  0  0  0  0  0  0  0  0  0  0
   42.6264   34.0781   39.5433 H   0  0  0  0  0  0  0  0  0  0  0  0
   41.4133   35.3565   39.0606 H   0  0  0  0  0  0  0  0  0  0  0  0
   43.7970   34.2529   41.5880 H   0  0  0  0  0  0  0  0  0  0  0  0
   41.9072   37.6411   43.3741 H   0  0  0  0  0  0  0  0  0  0  0  0
   37.5401   30.7991   42.4863 H   0  0  0  0  0  0  0  0  0  0  0  0
   38.7756   29.5278   38.5431 H   0  0  0  0  0  0  0  0  0  0  0  0
   40.2593   28.2772   44.1829 H   0  0  0  0  0  0  0  0  0  0  0  0
   41.6657   26.4989   45.2636 H   0  0  0  0  0  0  0  0  0  0  0  0
   42.1145   24.4946   41.5639 H   0  0  0  0  0  0  0  0  0  0  0  0
  1 12  1  0
  1  2  1  0
  3  2  1  0
  3  5  1  0
  4  3  1  0
  6  3  1  0
  6  7  1  0
  7 11  1  0
  7  8  1  0
  8  9  2  0
 10  9  1  0
 11 10  2  0
 13 12  1  0
 13 16  1  0
 14 13  2  0
 15 20  2  0
 16 15  1  0
 17 18  1  0
 17 16  2  0
 18 19  2  0
 19 21  1  0
 19 20  1  0
 21 22  2  0
 22 23  1  0
 24 23  2  0
 25 24  1  0
 26 25  2  0
 26 21  1  0
  1 27  1  0
  1 28  1  0
  4 29  1  0
  4 30  1  0
  4 31  1  0
  5 32  1  0
  5 33  1  0
  5 34  1  0
  6 35  1  0
  6 36  1  0
  8 37  1  0
 10 38  1  0
 15 39  1  0
 17 40  1  0
 22 41  1  0
 23 42  1  0
 25 43  1  0
M  ISO  8  27   8  28   8  29   8  30   8  31   8  32   8  33   8  34   8
M  ISO  8  35   8  36   8  37  14  38  14  39  14  40  14  41  14  42  14
M  ISO  1  43  14
M  END
>  <minimizedAffinity>  (1) 
-5.08138037

>  <minimizedRMSD>  (1) 
1.96625268

$$$$
