
     RDKit          3D

 37 38  0  0  0  0  0  0  0  0999 V2000
   40.5170   33.6470   39.9730 C   0  0  0  0  0  0  0  0  0  0  0  0
   40.4080   32.8280   38.7250 C   0  0  0  0  0  0  0  0  0  0  0  0
   41.1100   32.7300   41.0300 C   0  0  0  0  0  0  0  0  0  0  0  0
   41.4670   34.7990   39.7270 C   0  0  0  0  0  0  0  0  0  0  0  0
   41.8610   35.4920   40.9190 N   0  0  0  0  0  0  0  0  0  0  0  0
   42.9680   35.1170   41.6050 C   0  0  0  0  0  0  0  0  0  0  0  0
   43.1070   35.9190   42.6760 N   0  0  0  0  0  0  0  0  0  0  0  0
   42.0820   36.8060   42.6650 C   0  0  0  0  0  0  0  0  0  0  0  0
   41.3610   36.5160   41.5980 N   0  0  0  0  0  0  0  0  0  0  0  0
   38.9140   34.2250   40.4720 S   0  0  0  0  0  0  0  0  0  0  0  0
   37.6070   32.9880   40.0230 C   0  0  0  0  0  0  0  0  0  0  0  0
   37.6620   32.0130   40.9250 O   0  0  0  0  0  0  0  0  0  0  0  0
   36.9530   30.8410   41.0290 C   0  0  0  0  0  0  0  0  0  0  0  0
   35.8420   30.7860   40.4900 O   0  0  0  0  0  0  0  0  0  0  0  0
   38.9290   29.9300   42.2520 C   0  0  0  0  0  0  0  0  0  0  0  0
   37.6210   29.7480   41.7960 C   0  0  0  0  0  0  0  0  0  0  0  0
   36.9000   28.6000   42.0080 C   0  0  0  0  0  0  0  0  0  0  0  0
   37.5650   27.6410   42.7080 N   0  0  0  0  0  0  0  0  0  0  0  0
   38.8210   27.7900   43.1580 C   0  0  0  0  0  0  0  0  0  0  0  0
   39.5060   28.9580   42.9210 N   0  0  0  0  0  0  0  0  0  0  0  0
   39.4710   26.7160   43.9010 C   0  0  0  0  0  0  0  0  0  0  0  0
   40.6890   26.9210   44.1770 O   0  0  0  0  0  0  0  0  0  0  0  0
   40.2672   31.7702   38.9918 H   0  0  0  0  0  0  0  0  0  0  0  0
   39.5480   33.1744   38.1330 H   0  0  0  0  0  0  0  0  0  0  0  0
   41.3286   32.9375   38.1330 H   0  0  0  0  0  0  0  0  0  0  0  0
   40.8614   33.1144   42.0302 H   0  0  0  0  0  0  0  0  0  0  0  0
   40.6947   31.7182   40.9124 H   0  0  0  0  0  0  0  0  0  0  0  0
   42.2031   32.6936   40.9124 H   0  0  0  0  0  0  0  0  0  0  0  0
   42.3714   34.4043   39.2409 H   0  0  0  0  0  0  0  0  0  0  0  0
   40.9319   35.5253   39.0976 H   0  0  0  0  0  0  0  0  0  0  0  0
   43.6422   34.2922   41.3310 H   0  0  0  0  0  0  0  0  0  0  0  0
   41.8901   37.6049   43.3964 H   0  0  0  0  0  0  0  0  0  0  0  0
   36.6154   33.4637   40.0422 H   0  0  0  0  0  0  0  0  0  0  0  0
   37.7748   32.5929   39.0102 H   0  0  0  0  0  0  0  0  0  0  0  0
   39.4656   30.8697   42.0545 H   0  0  0  0  0  0  0  0  0  0  0  0
   35.8710   28.4661   41.6429 H   0  0  0  0  0  0  0  0  0  0  0  0
   38.9429   25.7981   44.1986 H   0  0  0  0  0  0  0  0  0  0  0  0
  1 10  1  0
  1  3  1  0
  2  1  1  0
  4  1  1  0
  4  5  1  0
  5  9  1  0
  5  6  1  0
  6  7  2  0
  8  7  1  0
  9  8  2  0
 11 10  1  0
 11 12  1  0
 12 13  1  0
 13 16  1  0
 14 13  2  0
 15 20  2  0
 16 17  2  0
 16 15  1  0
 17 18  1  0
 18 19  2  0
 19 21  1  0
 20 19  1  0
 21 22  2  0
  2 23  1  0
  2 24  1  0
  2 25  1  0
  3 26  1  0
  3 27  1  0
  3 28  1  0
  4 29  1  0
  4 30  1  0
  6 31  1  0
  8 32  1  0
 11 33  1  0
 11 34  1  0
 15 35  1  0
 17 36  1  0
 21 37  1  0
M  ISO  8  23   8  24   8  25   8  26   8  27   8  28   8  29   8  30   8
M  ISO  7  31  14  32  14  33   8  34   8  35  14  36  14  37   6
M  END
>  <minimizedAffinity>  (1) 
-4.97426939

>  <minimizedRMSD>  (1) 
0.429499418

$$$$
