
     RDKit          3D

 36 37  0  0  0  0  0  0  0  0999 V2000
   40.4740   33.6080   39.9140 C   0  0  0  0  0  0  0  0  0  0  0  0
   40.3670   32.7750   38.6820 C   0  0  0  0  0  0  0  0  0  0  0  0
   41.0550   32.7300   40.9920 C   0  0  0  0  0  0  0  0  0  0  0  0
   41.4170   34.7690   39.6510 C   0  0  0  0  0  0  0  0  0  0  0  0
   41.7750   35.5000   40.8270 N   0  0  0  0  0  0  0  0  0  0  0  0
   42.8850   35.1850   41.5410 C   0  0  0  0  0  0  0  0  0  0  0  0
   42.9900   36.0120   42.5880 N   0  0  0  0  0  0  0  0  0  0  0  0
   41.9360   36.8610   42.5420 C   0  0  0  0  0  0  0  0  0  0  0  0
   41.2370   36.5240   41.4780 N   0  0  0  0  0  0  0  0  0  0  0  0
   38.8580   34.1970   40.3720 S   0  0  0  0  0  0  0  0  0  0  0  0
   37.5610   32.9480   39.9670 C   0  0  0  0  0  0  0  0  0  0  0  0
   37.6190   31.9820   40.8710 O   0  0  0  0  0  0  0  0  0  0  0  0
   36.9230   30.8120   41.0150 C   0  0  0  0  0  0  0  0  0  0  0  0
   35.8100   30.7330   40.4770 O   0  0  0  0  0  0  0  0  0  0  0  0
   38.9030   29.9340   42.2410 C   0  0  0  0  0  0  0  0  0  0  0  0
   37.5940   29.7500   41.8170 C   0  0  0  0  0  0  0  0  0  0  0  0
   36.8660   28.6270   42.0960 C   0  0  0  0  0  0  0  0  0  0  0  0
   37.5290   27.6890   42.8320 N   0  0  0  0  0  0  0  0  0  0  0  0
   38.8040   27.8380   43.2610 C   0  0  0  0  0  0  0  0  0  0  0  0
   39.4880   28.9940   42.9470 N   0  0  0  0  0  0  0  0  0  0  0  0
   39.3470   26.7940   44.0030 O   0  0  0  0  0  0  0  0  0  0  0  0
   40.2315   31.7202   38.9632 H   0  0  0  0  0  0  0  0  0  0  0  0
   39.5044   33.1095   38.0870 H   0  0  0  0  0  0  0  0  0  0  0  0
   41.2861   32.8807   38.0870 H   0  0  0  0  0  0  0  0  0  0  0  0
   40.7869   33.1351   41.9789 H   0  0  0  0  0  0  0  0  0  0  0  0
   40.6521   31.7113   40.8920 H   0  0  0  0  0  0  0  0  0  0  0  0
   42.1501   32.7026   40.8920 H   0  0  0  0  0  0  0  0  0  0  0  0
   42.3366   34.3726   39.1958 H   0  0  0  0  0  0  0  0  0  0  0  0
   40.8866   35.4685   38.9881 H   0  0  0  0  0  0  0  0  0  0  0  0
   43.5891   34.3758   41.2972 H   0  0  0  0  0  0  0  0  0  0  0  0
   41.7091   37.6703   43.2515 H   0  0  0  0  0  0  0  0  0  0  0  0
   36.5682   33.4211   39.9910 H   0  0  0  0  0  0  0  0  0  0  0  0
   37.7308   32.5370   38.9609 H   0  0  0  0  0  0  0  0  0  0  0  0
   39.4445   30.8575   41.9882 H   0  0  0  0  0  0  0  0  0  0  0  0
   35.8292   28.4907   41.7546 H   0  0  0  0  0  0  0  0  0  0  0  0
   40.2762   26.8564   44.3389 H   0  0  0  0  0  0  0  0  0  0  0  0
  1 10  1  0
  1  3  1  0
  2  1  1  0
  4  1  1  0
  4  5  1  0
  5  9  1  0
  5  6  1  0
  6  7  2  0
  8  7  1  0
  9  8  2  0
 11 10  1  0
 11 12  1  0
 12 13  1  0
 13 16  1  0
 14 13  2  0
 15 20  2  0
 16 17  2  0
 16 15  1  0
 17 18  1  0
 18 19  2  0
 19 21  1  0
 20 19  1  0
  2 22  1  0
  2 23  1  0
  2 24  1  0
  3 25  1  0
  3 26  1  0
  3 27  1  0
  4 28  1  0
  4 29  1  0
  6 30  1  0
  8 31  1  0
 11 32  1  0
 11 33  1  0
 15 34  1  0
 17 35  1  0
 21 36  1  0
M  ISO  8  22   8  23   8  24   8  25   8  26   8  27   8  28   8  29   8
M  ISO  7  30  14  31  14  32   8  33   8  34  14  35  14  36   3
M  END
>  <minimizedAffinity>  (1) 
-4.95139122

>  <minimizedRMSD>  (1) 
0.282574505

$$$$
