
     RDKit          3D

 37 38  0  0  0  0  0  0  0  0999 V2000
   40.4790   33.6040   39.9260 C   0  0  0  0  0  0  0  0  0  0  0  0
   40.3690   32.7650   38.6940 C   0  0  0  0  0  0  0  0  0  0  0  0
   41.0680   32.7090   41.0020 C   0  0  0  0  0  0  0  0  0  0  0  0
   41.4320   34.7490   39.6620 C   0  0  0  0  0  0  0  0  0  0  0  0
   41.7860   35.4870   40.8370 N   0  0  0  0  0  0  0  0  0  0  0  0
   42.8930   35.1740   41.5500 C   0  0  0  0  0  0  0  0  0  0  0  0
   42.9920   36.0120   42.5990 N   0  0  0  0  0  0  0  0  0  0  0  0
   41.9400   36.8610   42.5470 C   0  0  0  0  0  0  0  0  0  0  0  0
   41.2440   36.5130   41.4780 N   0  0  0  0  0  0  0  0  0  0  0  0
   38.8740   34.1890   40.4070 S   0  0  0  0  0  0  0  0  0  0  0  0
   37.5670   32.9450   39.9870 C   0  0  0  0  0  0  0  0  0  0  0  0
   37.6320   31.9760   40.8920 O   0  0  0  0  0  0  0  0  0  0  0  0
   36.9190   30.8100   41.0210 C   0  0  0  0  0  0  0  0  0  0  0  0
   35.8060   30.7490   40.4890 O   0  0  0  0  0  0  0  0  0  0  0  0
   38.8910   29.9140   42.2600 C   0  0  0  0  0  0  0  0  0  0  0  0
   37.5890   29.7310   41.8060 C   0  0  0  0  0  0  0  0  0  0  0  0
   36.8710   28.5860   42.0420 C   0  0  0  0  0  0  0  0  0  0  0  0
   37.5220   27.6380   42.7540 N   0  0  0  0  0  0  0  0  0  0  0  0
   38.7820   27.7900   43.2050 C   0  0  0  0  0  0  0  0  0  0  0  0
   39.4690   28.9560   42.9460 N   0  0  0  0  0  0  0  0  0  0  0  0
   39.4750   26.8010   43.9530 N   0  0  0  0  0  0  0  0  0  0  0  0
   40.2309   31.7116   38.9789 H   0  0  0  0  0  0  0  0  0  0  0  0
   39.5071   33.0997   38.0982 H   0  0  0  0  0  0  0  0  0  0  0  0
   41.2881   32.8662   38.0982 H   0  0  0  0  0  0  0  0  0  0  0  0
   40.8062   33.1068   41.9936 H   0  0  0  0  0  0  0  0  0  0  0  0
   40.6620   31.6922   40.8959 H   0  0  0  0  0  0  0  0  0  0  0  0
   42.1625   32.6797   40.8959 H   0  0  0  0  0  0  0  0  0  0  0  0
   42.3519   34.3398   39.2188 H   0  0  0  0  0  0  0  0  0  0  0  0
   40.9154   35.4477   38.9875 H   0  0  0  0  0  0  0  0  0  0  0  0
   43.5986   34.3647   41.3108 H   0  0  0  0  0  0  0  0  0  0  0  0
   41.7105   37.6748   43.2506 H   0  0  0  0  0  0  0  0  0  0  0  0
   36.5747   33.4189   40.0150 H   0  0  0  0  0  0  0  0  0  0  0  0
   37.7268   32.5419   38.9761 H   0  0  0  0  0  0  0  0  0  0  0  0
   39.4291   30.8494   42.0469 H   0  0  0  0  0  0  0  0  0  0  0  0
   35.8417   28.4490   41.6789 H   0  0  0  0  0  0  0  0  0  0  0  0
   40.4390   26.9768   44.2703 H   0  0  0  0  0  0  0  0  0  0  0  0
   39.0135   25.9081   44.1780 H   0  0  0  0  0  0  0  0  0  0  0  0
  1 10  1  0
  1  3  1  0
  2  1  1  0
  4  1  1  0
  4  5  1  0
  5  9  1  0
  5  6  1  0
  6  7  2  0
  8  7  1  0
  9  8  2  0
 11 10  1  0
 11 12  1  0
 12 13  1  0
 13 16  1  0
 14 13  2  0
 15 20  2  0
 16 17  2  0
 16 15  1  0
 17 18  1  0
 18 19  2  0
 19 21  1  0
 20 19  1  0
  2 22  1  0
  2 23  1  0
  2 24  1  0
  3 25  1  0
  3 26  1  0
  3 27  1  0
  4 28  1  0
  4 29  1  0
  6 30  1  0
  8 31  1  0
 11 32  1  0
 11 33  1  0
 15 34  1  0
 17 35  1  0
 21 36  1  0
 21 37  1  0
M  ISO  8  22   8  23   8  24   8  25   8  26   8  27   8  28   8  29   8
M  ISO  6  30  14  31  14  32   8  33   8  34  14  35  14
M  END
>  <minimizedAffinity>  (1) 
-4.94593334

>  <minimizedRMSD>  (1) 
0.26946485

$$$$
