
     RDKit          3D

 33 35  0  0  1  0  0  0  0  0999 V2000
   37.4260   27.8930   43.3560 C   0  0  2  0  0  0  0  0  0  0  0  0
   40.9150   26.5630   44.0380 C   0  0  0  0  0  0  0  0  0  0  0  0
   39.5040   26.6460   44.0260 C   0  0  0  0  0  0  0  0  0  0  0  0
   38.9150   27.7550   43.3980 C   0  0  0  0  0  0  0  0  0  0  0  0
   39.7450   28.6770   42.8430 N   0  0  0  0  0  0  0  0  0  0  0  0
   41.0830   28.5770   42.8660 C   0  0  0  0  0  0  0  0  0  0  0  0
   41.6620   27.5180   43.4640 N   0  0  0  0  0  0  0  0  0  0  0  0
   36.8330   28.1120   44.7220 C   0  0  0  0  0  0  0  0  0  0  0  0
   36.8930   26.5790   42.7220 C   0  0  0  0  0  0  0  0  0  0  0  0
   37.1660   26.6130   41.2810 C   0  0  0  0  0  0  0  0  0  0  0  0
   38.0120   25.7190   40.7170 N   0  0  0  0  0  0  0  0  0  0  0  0
   38.2820   25.7610   39.4010 C   0  0  0  0  0  0  0  0  0  0  0  0
   37.7620   26.6640   38.5280 N   0  0  0  0  0  0  0  0  0  0  0  0
   36.9100   27.5720   39.0720 C   0  0  0  0  0  0  0  0  0  0  0  0
   36.3070   28.5430   38.2970 C   0  0  0  0  0  0  0  0  0  0  0  0
   35.4310   29.4800   38.7940 C   0  0  0  0  0  0  0  0  0  0  0  0
   35.1440   29.4470   40.1460 C   0  0  0  0  0  0  0  0  0  0  0  0
   35.7510   28.4750   40.9180 C   0  0  0  0  0  0  0  0  0  0  0  0
   36.6260   27.5380   40.4190 C   0  0  0  0  0  0  0  0  0  0  0  0
   37.1381   28.7769   42.7679 H   0  0  0  0  0  0  0  0  0  0  0  0
   41.4057   25.7063   44.5231 H   0  0  0  0  0  0  0  0  0  0  0  0
   38.8863   25.8656   44.4944 H   0  0  0  0  0  0  0  0  0  0  0  0
   41.7037   29.3558   42.3989 H   0  0  0  0  0  0  0  0  0  0  0  0
   37.5715   27.8393   45.4903 H   0  0  0  0  0  0  0  0  0  0  0  0
   36.5582   29.1709   44.8370 H   0  0  0  0  0  0  0  0  0  0  0  0
   35.9359   27.4859   44.8370 H   0  0  0  0  0  0  0  0  0  0  0  0
   37.4013   25.7154   43.1756 H   0  0  0  0  0  0  0  0  0  0  0  0
   35.8111   26.4873   42.8985 H   0  0  0  0  0  0  0  0  0  0  0  0
   38.9762   25.0078   39.0001 H   0  0  0  0  0  0  0  0  0  0  0  0
   36.5402   28.5686   37.2223 H   0  0  0  0  0  0  0  0  0  0  0  0
   34.9728   30.2327   38.1356 H   0  0  0  0  0  0  0  0  0  0  0  0
   34.4516   30.1744   40.5947 H   0  0  0  0  0  0  0  0  0  0  0  0
   35.5214   28.4489   41.9935 H   0  0  0  0  0  0  0  0  0  0  0  0
  1  4  1  0
  1  8  1  0
  3  2  2  0
  4  3  1  0
  5  6  1  0
  5  4  2  0
  6  7  2  0
  7  2  1  0
  9  1  1  0
 10  9  1  0
 11 10  2  0
 12 11  1  0
 13 14  1  0
 13 12  2  0
 14 19  2  0
 15 16  2  0
 15 14  1  0
 16 17  1  0
 17 18  2  0
 19 18  1  0
 19 10  1  0
  1 20  1  6
  2 21  1  0
  3 22  1  0
  6 23  1  0
  8 24  1  0
  8 25  1  0
  8 26  1  0
  9 27  1  0
  9 28  1  0
 12 29  1  0
 15 30  1  0
 16 31  1  0
 17 32  1  0
 18 33  1  0
M  ISO  8  20   8  21  14  22  14  23  14  24   8  25   8  26   8  27   8
M  ISO  6  28   8  29  14  30  14  31  14  32  14  33  14
M  END
>  <minimizedAffinity>  (1) 
-5.2518816

>  <minimizedRMSD>  (1) 
2.24430275

$$$$
