
     RDKit          3D

 26 27  0  0  1  0  0  0  0  0999 V2000
   36.9280   27.8680   43.2540 C   0  0  2  0  0  0  0  0  0  0  0  0
   39.2520   30.6720   42.1840 C   0  0  0  0  0  0  0  0  0  0  0  0
   38.8000   29.5270   42.8700 C   0  0  0  0  0  0  0  0  0  0  0  0
   37.4810   29.0780   42.5700 C   0  0  0  0  0  0  0  0  0  0  0  0
   36.7360   29.7780   41.6410 N   0  0  0  0  0  0  0  0  0  0  0  0
   37.2440   30.8720   41.0240 C   0  0  0  0  0  0  0  0  0  0  0  0
   38.4890   31.3170   41.2900 N   0  0  0  0  0  0  0  0  0  0  0  0
   36.7730   28.1060   44.7360 C   0  0  0  0  0  0  0  0  0  0  0  0
   37.9110   26.7230   42.9550 C   0  0  0  0  0  0  0  0  0  0  0  0
   37.3620   25.7320   42.0230 C   0  0  0  0  0  0  0  0  0  0  0  0
   37.2660   26.0710   40.6860 C   0  0  0  0  0  0  0  0  0  0  0  0
   36.7320   24.9880   40.0520 N   0  0  0  0  0  0  0  0  0  0  0  0
   36.4960   24.0010   40.9380 C   0  0  0  0  0  0  0  0  0  0  0  0
   36.8850   24.4820   42.1120 N   0  0  0  0  0  0  0  0  0  0  0  0
   35.9210   27.6209   42.8866 H   0  0  0  0  0  0  0  0  0  0  0  0
   40.2648   31.0492   42.3889 H   0  0  0  0  0  0  0  0  0  0  0  0
   39.4344   29.0051   43.6015 H   0  0  0  0  0  0  0  0  0  0  0  0
   36.6268   31.4096   40.2892 H   0  0  0  0  0  0  0  0  0  0  0  0
   37.2912   27.3103   45.2913 H   0  0  0  0  0  0  0  0  0  0  0  0
   37.2100   29.0807   44.9985 H   0  0  0  0  0  0  0  0  0  0  0  0
   35.7048   28.1004   44.9985 H   0  0  0  0  0  0  0  0  0  0  0  0
   38.8249   27.1498   42.5162 H   0  0  0  0  0  0  0  0  0  0  0  0
   38.1171   26.2068   43.9042 H   0  0  0  0  0  0  0  0  0  0  0  0
   37.5617   27.0250   40.2251 H   0  0  0  0  0  0  0  0  0  0  0  0
   36.0711   23.0075   40.7320 H   0  0  0  0  0  0  0  0  0  0  0  0
   36.8269   23.9535   42.9942 H   0  0  0  0  0  0  0  0  0  0  0  0
  1  8  1  0
  2  3  2  0
  4  3  1  0
  4  1  1  0
  5  4  2  0
  6  7  2  0
  6  5  1  0
  7  2  1  0
  9  1  1  0
 10 14  1  0
 10  9  1  0
 11 10  2  0
 12 11  1  0
 12 13  2  0
 13 14  1  0
  1 15  1  6
  2 16  1  0
  3 17  1  0
  6 18  1  0
  8 19  1  0
  8 20  1  0
  8 21  1  0
  9 22  1  0
  9 23  1  0
 11 24  1  0
 13 25  1  0
 14 26  1  0
M  ISO  8  15   8  16  14  17  14  18  14  19   8  20   8  21   8  22   8
M  ISO  4  23   8  24  14  25  14  26   9
M  END
>  <minimizedAffinity>  (1) 
-4.30833197

>  <minimizedRMSD>  (1) 
1.68665326

$$$$
