
     RDKit          3D

 25 26  0  0  1  0  0  0  0  0999 V2000
   36.8880   27.8910   43.1890 C   0  0  2  0  0  0  0  0  0  0  0  0
   39.2510   30.6660   42.1790 C   0  0  0  0  0  0  0  0  0  0  0  0
   38.7660   29.5240   42.8460 C   0  0  0  0  0  0  0  0  0  0  0  0
   37.4510   29.0900   42.5200 C   0  0  0  0  0  0  0  0  0  0  0  0
   36.7470   29.7990   41.5910 N   0  0  0  0  0  0  0  0  0  0  0  0
   37.2470   30.8830   40.9800 C   0  0  0  0  0  0  0  0  0  0  0  0
   38.4930   31.3190   41.2680 N   0  0  0  0  0  0  0  0  0  0  0  0
   36.7520   28.0600   44.6800 C   0  0  0  0  0  0  0  0  0  0  0  0
   37.8190   26.7070   42.8840 C   0  0  0  0  0  0  0  0  0  0  0  0
   37.2740   25.8890   41.7680 C   0  0  0  0  0  0  0  0  0  0  0  0
   37.0260   24.5450   42.0190 C   0  0  0  0  0  0  0  0  0  0  0  0
   36.3890   23.9180   40.4550 S   0  0  0  0  0  0  0  0  0  0  0  0
   36.5620   25.6490   39.6650 C   0  0  0  0  0  0  0  0  0  0  0  0
   36.9870   26.2750   40.5470 N   0  0  0  0  0  0  0  0  0  0  0  0
   35.8722   27.7211   42.8027 H   0  0  0  0  0  0  0  0  0  0  0  0
   40.2635   31.0333   42.4026 H   0  0  0  0  0  0  0  0  0  0  0  0
   39.3783   28.9902   43.5877 H   0  0  0  0  0  0  0  0  0  0  0  0
   36.6381   31.4213   40.2387 H   0  0  0  0  0  0  0  0  0  0  0  0
   37.3623   27.3016   45.1922 H   0  0  0  0  0  0  0  0  0  0  0  0
   37.0969   29.0640   44.9682 H   0  0  0  0  0  0  0  0  0  0  0  0
   35.6975   27.9378   44.9682 H   0  0  0  0  0  0  0  0  0  0  0  0
   38.8107   27.0899   42.6012 H   0  0  0  0  0  0  0  0  0  0  0  0
   37.8975   26.0762   43.7817 H   0  0  0  0  0  0  0  0  0  0  0  0
   37.1826   23.9915   42.9566 H   0  0  0  0  0  0  0  0  0  0  0  0
   36.3216   25.9699   38.6407 H   0  0  0  0  0  0  0  0  0  0  0  0
  1  8  1  0
  2  3  2  0
  4  3  1  0
  4  1  1  0
  5  4  2  0
  6  7  2  0
  6  5  1  0
  7  2  1  0
  9  1  1  0
 10 11  2  0
 10  9  1  0
 12 11  1  0
 13 12  1  0
 13 14  2  0
 14 10  1  0
  1 15  1  6
  2 16  1  0
  3 17  1  0
  6 18  1  0
  8 19  1  0
  8 20  1  0
  8 21  1  0
  9 22  1  0
  9 23  1  0
 11 24  1  0
 13 25  1  0
M  ISO  8  15   8  16  14  17  14  18  14  19   8  20   8  21   8  22   8
M  ISO  3  23   8  24  14  25  14
M  END
>  <minimizedAffinity>  (1) 
-4.28564453

>  <minimizedRMSD>  (1) 
1.00527501

$$$$
