
     RDKit          3D

 32 33  0  0  1  0  0  0  0  0999 V2000
   37.1270   27.8870   43.2200 C   0  0  2  0  0  0  0  0  0  0  0  0
   39.2860   30.8060   42.1600 C   0  0  0  0  0  0  0  0  0  0  0  0
   38.8840   29.6470   42.8380 C   0  0  0  0  0  0  0  0  0  0  0  0
   37.5910   29.1340   42.5410 C   0  0  0  0  0  0  0  0  0  0  0  0
   36.8240   29.7940   41.6260 N   0  0  0  0  0  0  0  0  0  0  0  0
   37.2650   30.9100   41.0030 C   0  0  0  0  0  0  0  0  0  0  0  0
   38.4770   31.4020   41.2700 N   0  0  0  0  0  0  0  0  0  0  0  0
   36.7740   28.1110   44.6630 C   0  0  0  0  0  0  0  0  0  0  0  0
   38.2730   26.8610   43.0820 C   0  0  0  0  0  0  0  0  0  0  0  0
   38.3330   26.2680   41.7980 N   0  0  0  0  0  0  0  0  0  0  0  0
   37.1000   25.8080   41.2380 C   0  0  0  0  0  0  0  0  0  0  0  0
   36.7630   24.3940   41.6480 C   0  0  0  0  0  0  0  0  0  0  0  0
   37.8710   23.5570   41.6360 O   0  0  0  0  0  0  0  0  0  0  0  0
   38.9730   24.0720   40.9970 C   0  0  0  0  0  0  0  0  0  0  0  0
   39.4320   25.3740   41.6120 C   0  0  0  0  0  0  0  0  0  0  0  0
   36.2014   27.5253   42.7484 H   0  0  0  0  0  0  0  0  0  0  0  0
   40.2795   31.2336   42.3603 H   0  0  0  0  0  0  0  0  0  0  0  0
   39.5413   29.1544   43.5696 H   0  0  0  0  0  0  0  0  0  0  0  0
   36.6199   31.4167   40.2702 H   0  0  0  0  0  0  0  0  0  0  0  0
   37.5289   27.6320   45.3038 H   0  0  0  0  0  0  0  0  0  0  0  0
   36.7485   29.1909   44.8709 H   0  0  0  0  0  0  0  0  0  0  0  0
   35.7861   27.6742   44.8709 H   0  0  0  0  0  0  0  0  0  0  0  0
   39.2270   27.3728   43.2766 H   0  0  0  0  0  0  0  0  0  0  0  0
   38.0832   26.0562   43.8075 H   0  0  0  0  0  0  0  0  0  0  0  0
   37.1756   25.8475   40.1413 H   0  0  0  0  0  0  0  0  0  0  0  0
   36.3002   26.4620   41.6155 H   0  0  0  0  0  0  0  0  0  0  0  0
   36.3459   24.4120   42.6657 H   0  0  0  0  0  0  0  0  0  0  0  0
   36.0388   23.9992   40.9202 H   0  0  0  0  0  0  0  0  0  0  0  0
   38.7201   24.2485   39.9411 H   0  0  0  0  0  0  0  0  0  0  0  0
   39.7919   23.3442   41.0959 H   0  0  0  0  0  0  0  0  0  0  0  0
   39.8964   25.1671   42.5874 H   0  0  0  0  0  0  0  0  0  0  0  0
   40.1568   25.8462   40.9325 H   0  0  0  0  0  0  0  0  0  0  0  0
  1  8  1  0
  2  3  2  0
  4  3  1  0
  4  1  1  0
  5  4  2  0
  6  7  2  0
  6  5  1  0
  7  2  1  0
  9  1  1  0
 10  9  1  0
 11 12  1  0
 11 10  1  0
 13 12  1  0
 14 15  1  0
 14 13  1  0
 15 10  1  0
  1 16  1  6
  2 17  1  0
  3 18  1  0
  6 19  1  0
  8 20  1  0
  8 21  1  0
  8 22  1  0
  9 23  1  0
  9 24  1  0
 11 25  1  0
 11 26  1  0
 12 27  1  0
 12 28  1  0
 14 29  1  0
 14 30  1  0
 15 31  1  0
 15 32  1  0
M  ISO  8  16   8  17  14  18  14  19  14  20   8  21   8  22   8  23   8
M  ISO  8  24   8  25  13  26  13  27  13  28  13  29  13  30  13  31  13
M  ISO  1  32  13
M  END
>  <minimizedAffinity>  (1) 
-4.27509451

>  <minimizedRMSD>  (1) 
1.34352231

$$$$
