
     RDKit          3D

 26 27  0  0  1  0  0  0  0  0999 V2000
   36.8000   27.7910   43.2320 C   0  0  2  0  0  0  0  0  0  0  0  0
   39.2140   30.5150   42.2090 C   0  0  0  0  0  0  0  0  0  0  0  0
   38.7120   29.3870   42.8890 C   0  0  0  0  0  0  0  0  0  0  0  0
   37.3920   28.9660   42.5620 C   0  0  0  0  0  0  0  0  0  0  0  0
   36.6930   29.6790   41.6110 N   0  0  0  0  0  0  0  0  0  0  0  0
   37.2300   30.7510   40.9950 C   0  0  0  0  0  0  0  0  0  0  0  0
   38.4720   31.1680   41.2860 N   0  0  0  0  0  0  0  0  0  0  0  0
   36.6940   27.9630   44.7240 C   0  0  0  0  0  0  0  0  0  0  0  0
   37.6990   26.5840   42.9000 C   0  0  0  0  0  0  0  0  0  0  0  0
   36.9020   25.4590   42.3230 C   0  0  0  0  0  0  0  0  0  0  0  0
   37.0710   25.0830   40.9070 C   0  0  0  0  0  0  0  0  0  0  0  0
   37.6540   24.2050   41.9610 C   0  0  0  0  0  0  0  0  0  0  0  0
   35.7712   27.6482   42.8698 H   0  0  0  0  0  0  0  0  0  0  0  0
   40.2301   30.8714   42.4337 H   0  0  0  0  0  0  0  0  0  0  0  0
   39.3143   28.8549   43.6401 H   0  0  0  0  0  0  0  0  0  0  0  0
   36.6403   31.2931   40.2411 H   0  0  0  0  0  0  0  0  0  0  0  0
   37.2074   27.1300   45.2265 H   0  0  0  0  0  0  0  0  0  0  0  0
   37.1632   28.9136   45.0178 H   0  0  0  0  0  0  0  0  0  0  0  0
   35.6340   27.9711   45.0178 H   0  0  0  0  0  0  0  0  0  0  0  0
   38.4616   26.8945   42.1706 H   0  0  0  0  0  0  0  0  0  0  0  0
   38.1713   26.2351   43.8302 H   0  0  0  0  0  0  0  0  0  0  0  0
   36.0294   25.7136   42.9425 H   0  0  0  0  0  0  0  0  0  0  0  0
   37.7346   25.6748   40.2593 H   0  0  0  0  0  0  0  0  0  0  0  0
   36.3830   24.9236   40.0636 H   0  0  0  0  0  0  0  0  0  0  0  0
   37.2133   23.2179   42.1643 H   0  0  0  0  0  0  0  0  0  0  0  0
   38.6530   23.7994   42.1792 H   0  0  0  0  0  0  0  0  0  0  0  0
  1  8  1  0
  2  3  2  0
  4  3  1  0
  4  1  1  0
  5  4  2  0
  6  7  2  0
  6  5  1  0
  7  2  1  0
  9  1  1  0
 10  9  1  0
 11 12  1  0
 11 10  1  0
 12 10  1  0
  1 13  1  6
  2 14  1  0
  3 15  1  0
  6 16  1  0
  8 17  1  0
  8 18  1  0
  8 19  1  0
  9 20  1  0
  9 21  1  0
 10 22  1  0
 11 23  1  0
 11 24  1  0
 12 25  1  0
 12 26  1  0
M  ISO  8  13   8  14  14  15  14  16  14  17   8  18   8  19   8  20   8
M  ISO  6  21   8  22  13  23  13  24  13  25  13  26  13
M  END
>  <minimizedAffinity>  (1) 
-4.16145563

>  <minimizedRMSD>  (1) 
1.17976785

$$$$
