
     RDKit          3D

 21 21  0  0  1  0  0  0  0  0999 V2000
   36.8980   27.7960   43.2480 C   0  0  2  0  0  0  0  0  0  0  0  0
   39.2000   30.6050   42.1660 C   0  0  0  0  0  0  0  0  0  0  0  0
   38.7400   29.4600   42.8520 C   0  0  0  0  0  0  0  0  0  0  0  0
   37.4290   28.9900   42.5640 C   0  0  0  0  0  0  0  0  0  0  0  0
   36.7050   29.6980   41.6290 N   0  0  0  0  0  0  0  0  0  0  0  0
   37.1780   30.7780   41.0010 C   0  0  0  0  0  0  0  0  0  0  0  0
   38.4250   31.2360   41.2660 N   0  0  0  0  0  0  0  0  0  0  0  0
   36.7030   28.0080   44.7240 C   0  0  0  0  0  0  0  0  0  0  0  0
   37.8890   26.6520   42.9570 C   0  0  0  0  0  0  0  0  0  0  0  0
   37.1440   25.6290   42.2690 N   0  0  0  0  0  0  0  0  0  0  0  0
   35.8933   27.5564   42.8696 H   0  0  0  0  0  0  0  0  0  0  0  0
   40.2105   30.9879   42.3713 H   0  0  0  0  0  0  0  0  0  0  0  0
   39.3768   28.9466   43.5875 H   0  0  0  0  0  0  0  0  0  0  0  0
   36.5503   31.2992   40.2633 H   0  0  0  0  0  0  0  0  0  0  0  0
   37.3445   27.3105   45.2825 H   0  0  0  0  0  0  0  0  0  0  0  0
   36.9719   29.0423   44.9846 H   0  0  0  0  0  0  0  0  0  0  0  0
   35.6499   27.8262   44.9846 H   0  0  0  0  0  0  0  0  0  0  0  0
   38.7116   27.0142   42.3228 H   0  0  0  0  0  0  0  0  0  0  0  0
   38.3318   26.2640   43.8862 H   0  0  0  0  0  0  0  0  0  0  0  0
   36.6934   25.0102   42.9582 H   0  0  0  0  0  0  0  0  0  0  0  0
   36.4231   26.0677   41.6784 H   0  0  0  0  0  0  0  0  0  0  0  0
  1  8  1  0
  2  3  2  0
  4  3  1  0
  4  1  1  0
  5  4  2  0
  6  7  2  0
  6  5  1  0
  7  2  1  0
  9  1  1  0
 10  9  1  0
  1 11  1  6
  2 12  1  0
  3 13  1  0
  6 14  1  0
  8 15  1  0
  8 16  1  0
  8 17  1  0
  9 18  1  0
  9 19  1  0
 10 20  1  0
 10 21  1  0
M  ISO  8  11   8  12  14  13  14  14  14  15   8  16   8  17   8  18   8
M  ISO  3  19   8  20   5  21   5
M  END
>  <minimizedAffinity>  (1) 
-3.43451524

>  <minimizedRMSD>  (1) 
0.451361656

$$$$
