
     RDKit          3D

 20 20  0  0  1  0  0  0  0  0999 V2000
   36.6540   27.8530   43.2100 C   0  0  2  0  0  0  0  0  0  0  0  0
   39.2900   30.4630   42.4210 C   0  0  0  0  0  0  0  0  0  0  0  0
   38.6390   29.3840   43.0410 C   0  0  0  0  0  0  0  0  0  0  0  0
   37.3520   28.9870   42.5770 C   0  0  0  0  0  0  0  0  0  0  0  0
   36.8370   29.7040   41.5430 N   0  0  0  0  0  0  0  0  0  0  0  0
   37.4680   30.7280   40.9660 C   0  0  0  0  0  0  0  0  0  0  0  0
   38.6820   31.1100   41.3930 N   0  0  0  0  0  0  0  0  0  0  0  0
   36.6990   27.8850   44.7120 C   0  0  0  0  0  0  0  0  0  0  0  0
   37.3300   26.5720   42.6860 C   0  0  0  0  0  0  0  0  0  0  0  0
   37.2650   26.5720   41.2950 O   0  0  0  0  0  0  0  0  0  0  0  0
   35.5863   27.8997   42.9496 H   0  0  0  0  0  0  0  0  0  0  0  0
   40.2849   30.7818   42.7653 H   0  0  0  0  0  0  0  0  0  0  0  0
   39.1177   28.8512   43.8758 H   0  0  0  0  0  0  0  0  0  0  0  0
   36.9894   31.2640   40.1331 H   0  0  0  0  0  0  0  0  0  0  0  0
   35.8654   27.2922   45.1165 H   0  0  0  0  0  0  0  0  0  0  0  0
   37.6528   27.4612   45.0594 H   0  0  0  0  0  0  0  0  0  0  0  0
   36.6118   28.9251   45.0594 H   0  0  0  0  0  0  0  0  0  0  0  0
   38.3817   26.5499   43.0078 H   0  0  0  0  0  0  0  0  0  0  0  0
   36.8161   25.6855   43.0860 H   0  0  0  0  0  0  0  0  0  0  0  0
   37.2496   25.6386   40.9654 H   0  0  0  0  0  0  0  0  0  0  0  0
  1  8  1  0
  2  3  2  0
  4  3  1  0
  4  1  1  0
  5  4  2  0
  6  7  2  0
  6  5  1  0
  7  2  1  0
  9  1  1  0
 10  9  1  0
  1 11  1  1
  2 12  1  0
  3 13  1  0
  6 14  1  0
  8 15  1  0
  8 16  1  0
  8 17  1  0
  9 18  1  0
  9 19  1  0
 10 20  1  0
M  ISO  8  11   8  12  14  13  14  14  14  15   8  16   8  17   8  18   8
M  ISO  2  19   8  20   3
M  END
>  <minimizedAffinity>  (1) 
-3.37076855

>  <minimizedRMSD>  (1) 
0.0445135087

$$$$
