
     RDKit          3D

 45 48  0  0  1  0  0  0  0  0999 V2000
   37.3070   25.5860   42.2540 C   0  0  2  0  0  0  0  0  0  0  0  0
   38.1150   24.3370   42.2640 C   0  0  0  0  0  0  0  0  0  0  0  0
   37.8170   23.6230   40.9590 C   0  0  0  0  0  0  0  0  0  0  0  0
   36.7140   24.4390   40.2930 C   0  0  0  0  0  0  0  0  0  0  0  0
   36.9820   25.8370   40.8190 C   0  0  2  0  0  0  0  0  0  0  0  0
   37.9670   26.5370   40.0590 N   0  0  0  0  0  0  0  0  0  0  0  0
   39.3060   26.4260   40.0340 C   0  0  0  0  0  0  0  0  0  0  0  0
   39.8980   27.2730   39.1720 N   0  0  0  0  0  0  0  0  0  0  0  0
   38.9050   27.9710   38.6080 C   0  0  0  0  0  0  0  0  0  0  0  0
   38.8940   28.9850   37.6460 C   0  0  0  0  0  0  0  0  0  0  0  0
   37.6960   29.5140   37.2620 N   0  0  0  0  0  0  0  0  0  0  0  0
   36.5610   29.0550   37.8090 C   0  0  0  0  0  0  0  0  0  0  0  0
   36.5520   28.0670   38.7460 N   0  0  0  0  0  0  0  0  0  0  0  0
   37.7380   27.5250   39.1450 C   0  0  0  0  0  0  0  0  0  0  0  0
   40.1230   29.4490   37.0870 N   0  0  0  0  0  0  0  0  0  0  0  0
   37.9520   26.8000   42.8330 C   0  0  0  0  0  0  0  0  0  0  0  0
   36.8590   27.8350   43.1340 C   0  0  2  0  0  0  0  0  0  0  0  0
   38.8370   30.6450   41.5470 C   0  0  0  0  0  0  0  0  0  0  0  0
   38.5630   29.4770   42.2940 C   0  0  0  0  0  0  0  0  0  0  0  0
   37.2150   29.0510   42.3670 C   0  0  0  0  0  0  0  0  0  0  0  0
   36.2690   29.8070   41.7040 N   0  0  0  0  0  0  0  0  0  0  0  0
   36.5750   30.9050   41.0100 C   0  0  0  0  0  0  0  0  0  0  0  0
   37.8520   31.3260   40.9290 N   0  0  0  0  0  0  0  0  0  0  0  0
   36.7600   28.0970   44.6210 C   0  0  0  0  0  0  0  0  0  0  0  0
   36.4358   25.4223   42.9053 H   0  0  0  0  0  0  0  0  0  0  0  0
   39.1863   24.5776   42.3299 H   0  0  0  0  0  0  0  0  0  0  0  0
   37.8636   23.7066   43.1297 H   0  0  0  0  0  0  0  0  0  0  0  0
   38.7134   23.5956   40.3220 H   0  0  0  0  0  0  0  0  0  0  0  0
   37.5105   22.5796   41.1245 H   0  0  0  0  0  0  0  0  0  0  0  0
   35.7179   24.0838   40.5957 H   0  0  0  0  0  0  0  0  0  0  0  0
   36.7199   24.3733   39.1950 H   0  0  0  0  0  0  0  0  0  0  0  0
   36.1343   26.5315   40.7235 H   0  0  0  0  0  0  0  0  0  0  0  0
   39.8640   25.7121   40.6576 H   0  0  0  0  0  0  0  0  0  0  0  0
   35.6034   29.4920   37.4895 H   0  0  0  0  0  0  0  0  0  0  0  0
   40.1167   30.1961   36.3780 H   0  0  0  0  0  0  0  0  0  0  0  0
   41.0160   29.0366   37.3927 H   0  0  0  0  0  0  0  0  0  0  0  0
   38.4771   26.5339   43.7622 H   0  0  0  0  0  0  0  0  0  0  0  0
   38.6798   27.2163   42.1209 H   0  0  0  0  0  0  0  0  0  0  0  0
   35.8639   27.4761   42.8324 H   0  0  0  0  0  0  0  0  0  0  0  0
   39.8735   31.0049   41.4686 H   0  0  0  0  0  0  0  0  0  0  0  0
   39.3662   28.9204   42.7992 H   0  0  0  0  0  0  0  0  0  0  0  0
   35.7798   31.4696   40.5011 H   0  0  0  0  0  0  0  0  0  0  0  0
   37.0963   27.2071   45.1733 H   0  0  0  0  0  0  0  0  0  0  0  0
   37.3961   28.9546   44.8854 H   0  0  0  0  0  0  0  0  0  0  0  0
   35.7157   28.3197   44.8854 H   0  0  0  0  0  0  0  0  0  0  0  0
  1  2  1  0
  1 16  1  0
  3  2  1  0
  4  5  1  0
  4  3  1  0
  5  1  1  0
  6  5  1  0
  7  6  1  0
  8  7  2  0
  9 14  2  0
  9  8  1  0
 10  9  1  0
 11 10  2  0
 11 12  1  0
 12 13  2  0
 13 14  1  0
 14  6  1  0
 15 10  1  0
 16 17  1  0
 17 24  1  0
 18 19  2  0
 19 20  1  0
 20 17  1  0
 21 20  2  0
 22 21  1  0
 23 22  2  0
 23 18  1  0
  1 25  1  1
  2 26  1  0
  2 27  1  0
  3 28  1  0
  3 29  1  0
  4 30  1  0
  4 31  1  0
  5 32  1  1
  7 33  1  0
 12 34  1  0
 15 35  1  0
 15 36  1  0
 16 37  1  0
 16 38  1  0
 17 39  1  6
 18 40  1  0
 19 41  1  0
 22 42  1  0
 24 43  1  0
 24 44  1  0
 24 45  1  0
M  ISO  8  25  13  26  13  27  13  28  13  29  13  30  13  31  13  32  13
M  ISO  8  33  14  34  14  37   8  38   8  39   8  40  14  41  14  42  14
M  ISO  3  43   8  44   8  45   8
M  END
>  <minimizedAffinity>  (1) 
-5.74011374

>  <minimizedRMSD>  (1) 
2.51936698

$$$$
