
     RDKit          3D

 43 45  0  0  1  0  0  0  0  0999 V2000
   37.1590   26.0530   41.7670 C   0  0  2  0  0  0  0  0  0  0  0  0
   36.9880   24.5720   42.0660 C   0  0  0  0  0  0  0  0  0  0  0  0
   37.3820   23.8210   40.8130 C   0  0  0  0  0  0  0  0  0  0  0  0
   37.7150   24.8920   39.8110 C   0  0  0  0  0  0  0  0  0  0  0  0
   38.1150   26.0860   40.6430 C   0  0  1  0  0  0  0  0  0  0  0  0
   38.1180   27.2120   39.7380 N   0  0  0  0  0  0  0  0  0  0  0  0
   39.3320   27.8180   39.5320 C   0  0  0  0  0  0  0  0  0  0  0  0
   39.5550   28.8680   38.7040 C   0  0  0  0  0  0  0  0  0  0  0  0
   38.4530   29.3450   38.0270 C   0  0  0  0  0  0  0  0  0  0  0  0
   38.5390   30.4280   37.1360 N   0  0  0  0  0  0  0  0  0  0  0  0
   37.2490   28.7900   38.1940 N   0  0  0  0  0  0  0  0  0  0  0  0
   37.1110   27.7510   39.0330 C   0  0  0  0  0  0  0  0  0  0  0  0
   35.9990   27.1840   39.2320 O   0  0  0  0  0  0  0  0  0  0  0  0
   37.7870   26.7730   42.9610 C   0  0  0  0  0  0  0  0  0  0  0  0
   36.8950   27.9750   43.2720 C   0  0  2  0  0  0  0  0  0  0  0  0
   39.3730   30.6250   42.1860 C   0  0  0  0  0  0  0  0  0  0  0  0
   38.8540   29.4960   42.8570 C   0  0  0  0  0  0  0  0  0  0  0  0
   37.5100   29.1450   42.6070 C   0  0  0  0  0  0  0  0  0  0  0  0
   36.8230   29.9380   41.7280 N   0  0  0  0  0  0  0  0  0  0  0  0
   37.3150   30.9960   41.1020 C   0  0  0  0  0  0  0  0  0  0  0  0
   38.6120   31.3400   41.3390 N   0  0  0  0  0  0  0  0  0  0  0  0
   36.7810   28.1610   44.7740 C   0  0  0  0  0  0  0  0  0  0  0  0
   36.1981   26.5414   41.5477 H   0  0  0  0  0  0  0  0  0  0  0  0
   37.6380   24.2778   42.9032 H   0  0  0  0  0  0  0  0  0  0  0  0
   35.9497   24.3455   42.3501 H   0  0  0  0  0  0  0  0  0  0  0  0
   38.2575   23.1827   41.0031 H   0  0  0  0  0  0  0  0  0  0  0  0
   36.5807   23.1559   40.4586 H   0  0  0  0  0  0  0  0  0  0  0  0
   36.8382   25.1283   39.1903 H   0  0  0  0  0  0  0  0  0  0  0  0
   38.5123   24.5811   39.1199 H   0  0  0  0  0  0  0  0  0  0  0  0
   39.1149   26.1234   41.1000 H   0  0  0  0  0  0  0  0  0  0  0  0
   40.1954   27.4188   40.0844 H   0  0  0  0  0  0  0  0  0  0  0  0
   40.5538   29.3120   38.5800 H   0  0  0  0  0  0  0  0  0  0  0  0
   39.4450   30.8900   36.9729 H   0  0  0  0  0  0  0  0  0  0  0  0
   37.6960   30.7599   36.6459 H   0  0  0  0  0  0  0  0  0  0  0  0
   37.8305   26.0991   43.8293 H   0  0  0  0  0  0  0  0  0  0  0  0
   38.8144   27.0929   42.7328 H   0  0  0  0  0  0  0  0  0  0  0  0
   35.8700   27.8341   42.8984 H   0  0  0  0  0  0  0  0  0  0  0  0
   40.4172   30.9244   42.3592 H   0  0  0  0  0  0  0  0  0  0  0  0
   39.4756   28.9105   43.5504 H   0  0  0  0  0  0  0  0  0  0  0  0
   36.6932   31.5817   40.4090 H   0  0  0  0  0  0  0  0  0  0  0  0
   37.2898   27.3309   45.2859 H   0  0  0  0  0  0  0  0  0  0  0  0
   37.2511   29.1128   45.0623 H   0  0  0  0  0  0  0  0  0  0  0  0
   35.7195   28.1741   45.0623 H   0  0  0  0  0  0  0  0  0  0  0  0
  1  2  1  0
  1 14  1  0
  3  2  1  0
  4  5  1  0
  4  3  1  0
  5  1  1  0
  6  5  1  0
  7  6  1  0
  8  7  2  0
  9 11  2  0
  9  8  1  0
 10  9  1  0
 11 12  1  0
 12 13  2  0
 12  6  1  0
 14 15  1  0
 15 22  1  0
 16 17  2  0
 18 17  1  0
 18 15  1  0
 19 18  2  0
 20 21  2  0
 20 19  1  0
 21 16  1  0
  1 23  1  6
  2 24  1  0
  2 25  1  0
  3 26  1  0
  3 27  1  0
  4 28  1  0
  4 29  1  0
  5 30  1  1
  7 31  1  0
  8 32  1  0
 10 33  1  0
 10 34  1  0
 14 35  1  0
 14 36  1  0
 15 37  1  6
 16 38  1  0
 17 39  1  0
 20 40  1  0
 22 41  1  0
 22 42  1  0
 22 43  1  0
M  ISO  8  23  13  24  13  25  13  26  13  27  13  28  13  29  13  30  13
M  ISO  8  31  14  32  14  35   8  36   8  37   8  38  14  39  14  40  14
M  ISO  3  41   8  42   8  43   8
M  END
>  <minimizedAffinity>  (1) 
-5.55129528

>  <minimizedRMSD>  (1) 
2.44156432

$$$$
