
     RDKit          3D

 48 50  0  0  1  0  0  0  0  0999 V2000
   37.0200   25.6990   41.9440 C   0  0  2  0  0  0  0  0  0  0  0  0
   37.5940   24.3450   42.3080 C   0  0  0  0  0  0  0  0  0  0  0  0
   37.6230   23.5200   41.0370 C   0  0  0  0  0  0  0  0  0  0  0  0
   36.9100   24.4190   40.0520 C   0  0  0  0  0  0  0  0  0  0  0  0
   37.2660   25.8300   40.5030 C   0  0  1  0  0  0  0  0  0  0  0  0
   36.4550   26.6740   39.6230 C   0  0  0  0  0  0  0  0  0  0  0  0
   37.3940   27.6600   38.9160 C   0  0  0  0  0  0  0  0  0  0  0  0
   36.5490   28.6580   38.1110 C   0  0  0  0  0  0  0  0  0  0  0  0
   35.9170   27.9110   36.9890 C   0  0  0  0  0  0  0  0  0  0  0  0
   34.9920   26.8610   37.6100 C   0  0  0  0  0  0  0  0  0  0  0  0
   35.9230   25.9050   38.3820 C   0  0  0  0  0  0  0  0  0  0  0  0
   37.8380   26.7800   42.6540 C   0  0  0  0  0  0  0  0  0  0  0  0
   36.8340   27.8790   43.0450 C   0  0  2  0  0  0  0  0  0  0  0  0
   38.9570   30.7060   41.6520 C   0  0  0  0  0  0  0  0  0  0  0  0
   38.6080   29.5210   42.3590 C   0  0  0  0  0  0  0  0  0  0  0  0
   37.2670   29.0960   42.3420 C   0  0  0  0  0  0  0  0  0  0  0  0
   36.4280   29.8920   41.6280 N   0  0  0  0  0  0  0  0  0  0  0  0
   36.7390   30.9900   40.9700 C   0  0  0  0  0  0  0  0  0  0  0  0
   38.0190   31.4020   40.9810 N   0  0  0  0  0  0  0  0  0  0  0  0
   36.8450   28.0660   44.5460 C   0  0  0  0  0  0  0  0  0  0  0  0
   35.9587   25.7953   42.2165 H   0  0  0  0  0  0  0  0  0  0  0  0
   38.6128   24.4612   42.7063 H   0  0  0  0  0  0  0  0  0  0  0  0
   36.9836   23.8546   43.0806 H   0  0  0  0  0  0  0  0  0  0  0  0
   38.6558   23.3183   40.7167 H   0  0  0  0  0  0  0  0  0  0  0  0
   37.1580   22.5290   41.1448 H   0  0  0  0  0  0  0  0  0  0  0  0
   35.8226   24.2590   40.0951 H   0  0  0  0  0  0  0  0  0  0  0  0
   37.2088   24.2227   39.0117 H   0  0  0  0  0  0  0  0  0  0  0  0
   38.2622   26.2880   40.4145 H   0  0  0  0  0  0  0  0  0  0  0  0
   35.6592   27.0882   40.2595 H   0  0  0  0  0  0  0  0  0  0  0  0
   37.9926   28.2011   39.6636 H   0  0  0  0  0  0  0  0  0  0  0  0
   38.0702   27.1139   38.2418 H   0  0  0  0  0  0  0  0  0  0  0  0
   35.7719   29.0962   38.7546 H   0  0  0  0  0  0  0  0  0  0  0  0
   37.1780   29.4740   37.7258 H   0  0  0  0  0  0  0  0  0  0  0  0
   36.6903   27.4196   36.3803 H   0  0  0  0  0  0  0  0  0  0  0  0
   35.3523   28.5918   36.3351 H   0  0  0  0  0  0  0  0  0  0  0  0
   34.2742   27.3364   38.2947 H   0  0  0  0  0  0  0  0  0  0  0  0
   34.4016   26.3319   36.8475 H   0  0  0  0  0  0  0  0  0  0  0  0
   35.3638   25.0139   38.7034 H   0  0  0  0  0  0  0  0  0  0  0  0
   36.7559   25.5751   37.7437 H   0  0  0  0  0  0  0  0  0  0  0  0
   38.3216   26.3665   43.5513 H   0  0  0  0  0  0  0  0  0  0  0  0
   38.6360   27.1732   42.0070 H   0  0  0  0  0  0  0  0  0  0  0  0
   35.8020   27.6226   42.7635 H   0  0  0  0  0  0  0  0  0  0  0  0
   39.9999   31.0559   41.6536 H   0  0  0  0  0  0  0  0  0  0  0  0
   39.3711   28.9492   42.9074 H   0  0  0  0  0  0  0  0  0  0  0  0
   35.9699   31.5564   40.4245 H   0  0  0  0  0  0  0  0  0  0  0  0
   36.7872   27.0840   45.0383 H   0  0  0  0  0  0  0  0  0  0  0  0
   37.7745   28.5723   44.8456 H   0  0  0  0  0  0  0  0  0  0  0  0
   35.9813   28.6777   44.8456 H   0  0  0  0  0  0  0  0  0  0  0  0
  1  2  1  0
  1 12  1  0
  3  2  1  0
  4  5  1  0
  4  3  1  0
  5  1  1  0
  6  5  1  0
  7  6  1  0
  8  7  1  0
  9 10  1  0
  9  8  1  0
 10 11  1  0
 11  6  1  0
 12 13  1  0
 13 20  1  0
 14 15  2  0
 16 15  1  0
 16 13  1  0
 17 16  2  0
 18 19  2  0
 18 17  1  0
 19 14  1  0
  1 21  1  6
  2 22  1  0
  2 23  1  0
  3 24  1  0
  3 25  1  0
  4 26  1  0
  4 27  1  0
  5 28  1  1
  6 29  1  0
  7 30  1  0
  7 31  1  0
  8 32  1  0
  8 33  1  0
  9 34  1  0
  9 35  1  0
 10 36  1  0
 10 37  1  0
 11 38  1  0
 11 39  1  0
 12 40  1  0
 12 41  1  0
 13 42  1  6
 14 43  1  0
 15 44  1  0
 18 45  1  0
 20 46  1  0
 20 47  1  0
 20 48  1  0
M  ISO  8  21  13  22  13  23  13  24  13  25  13  26  13  27  13  28  13
M  ISO  8  29  13  30  13  31  13  32  13  33  13  34  13  35  13  36  13
M  ISO  8  37  13  38  13  39  13  40   8  41   8  42   8  43  14  44  14
M  ISO  4  45  14  46   8  47   8  48   8
M  END
>  <minimizedAffinity>  (1) 
-5.39001942

>  <minimizedRMSD>  (1) 
0.624750912

$$$$
