
     RDKit          3D

 46 49  0  0  1  0  0  0  0  0999 V2000
   39.2350   25.7590   42.0290 C   0  0  1  0  0  0  0  0  0  0  0  0
   39.1750   24.3620   41.3420 C   0  0  0  0  0  0  0  0  0  0  0  0
   37.8360   23.8250   41.6040 C   0  0  0  0  0  0  0  0  0  0  0  0
   37.0010   25.0880   41.9340 C   0  0  0  0  0  0  0  0  0  0  0  0
   37.9370   25.8570   42.6770 C   0  0  2  0  0  0  0  0  0  0  0  0
   41.6850   26.8680   44.6320 C   0  0  0  0  0  0  0  0  0  0  0  0
   40.4970   26.7620   43.9090 C   0  0  0  0  0  0  0  0  0  0  0  0
   40.4210   25.9030   42.8140 C   0  0  0  0  0  0  0  0  0  0  0  0
   41.5290   25.1710   42.4750 N   0  0  0  0  0  0  0  0  0  0  0  0
   42.6730   25.2790   43.1810 C   0  0  0  0  0  0  0  0  0  0  0  0
   42.7530   26.1210   44.2520 N   0  0  0  0  0  0  0  0  0  0  0  0
   37.3670   27.2330   42.7900 C   0  0  2  0  0  0  0  0  0  0  0  0
   36.2740   27.4220   43.7760 C   0  0  0  0  0  0  0  0  0  0  0  0
   36.9510   27.5670   41.4450 C   0  0  0  0  0  0  0  0  0  0  0  0
   36.8820   28.9840   41.3010 N   0  0  0  0  0  0  0  0  0  0  0  0
   35.8180   29.7040   40.8630 C   0  0  0  0  0  0  0  0  0  0  0  0
   36.2130   31.0100   40.7100 C   0  0  0  0  0  0  0  0  0  0  0  0
   37.5080   31.0210   41.0700 N   0  0  0  0  0  0  0  0  0  0  0  0
   37.9250   29.7860   41.4340 C   0  0  0  0  0  0  0  0  0  0  0  0
   39.2580   29.9410   41.7810 N   0  0  0  0  0  0  0  0  0  0  0  0
   40.3620   29.3170   41.3170 C   0  0  0  0  0  0  0  0  0  0  0  0
   41.5480   29.7430   41.8710 C   0  0  0  0  0  0  0  0  0  0  0  0
   41.1850   30.6940   42.7430 N   0  0  0  0  0  0  0  0  0  0  0  0
   39.8500   30.8040   42.6830 C   0  0  0  0  0  0  0  0  0  0  0  0
   39.3563   26.6294   41.3674 H   0  0  0  0  0  0  0  0  0  0  0  0
   39.9409   23.6966   41.7670 H   0  0  0  0  0  0  0  0  0  0  0  0
   39.3666   24.4420   40.2618 H   0  0  0  0  0  0  0  0  0  0  0  0
   37.4377   23.3105   40.7171 H   0  0  0  0  0  0  0  0  0  0  0  0
   37.8231   23.0784   42.4118 H   0  0  0  0  0  0  0  0  0  0  0  0
   36.6855   25.6119   41.0197 H   0  0  0  0  0  0  0  0  0  0  0  0
   36.0636   24.8797   42.4706 H   0  0  0  0  0  0  0  0  0  0  0  0
   38.1066   25.4978   43.7028 H   0  0  0  0  0  0  0  0  0  0  0  0
   41.7554   27.5456   45.4957 H   0  0  0  0  0  0  0  0  0  0  0  0
   39.6196   27.3566   44.2031 H   0  0  0  0  0  0  0  0  0  0  0  0
   43.5504   24.6824   42.8907 H   0  0  0  0  0  0  0  0  0  0  0  0
   38.1353   27.9064   43.1977 H   0  0  0  0  0  0  0  0  0  0  0  0
   36.6829   27.3513   44.7947 H   0  0  0  0  0  0  0  0  0  0  0  0
   35.8175   28.4124   43.6320 H   0  0  0  0  0  0  0  0  0  0  0  0
   35.5115   26.6424   43.6320 H   0  0  0  0  0  0  0  0  0  0  0  0
   37.6781   27.1614   40.7261 H   0  0  0  0  0  0  0  0  0  0  0  0
   35.9590   27.1326   41.2521 H   0  0  0  0  0  0  0  0  0  0  0  0
   34.8109   29.3086   40.6645 H   0  0  0  0  0  0  0  0  0  0  0  0
   35.6040   31.8599   40.3682 H   0  0  0  0  0  0  0  0  0  0  0  0
   40.3169   28.5269   40.5530 H   0  0  0  0  0  0  0  0  0  0  0  0
   42.5637   29.3842   41.6484 H   0  0  0  0  0  0  0  0  0  0  0  0
   39.2783   31.5163   43.2960 H   0  0  0  0  0  0  0  0  0  0  0  0
  1  5  1  0
  1  8  1  0
  2  3  1  0
  2  1  1  0
  3  4  1  0
  4  5  1  0
  5 12  1  0
  7  6  2  0
  8  7  1  0
  9  8  2  0
  9 10  1  0
 10 11  2  0
 11  6  1  0
 12 13  1  0
 14 12  1  0
 15 19  1  0
 15 14  1  0
 16 15  1  0
 17 16  2  0
 17 18  1  0
 18 19  2  0
 19 20  1  0
 20 24  1  0
 21 20  1  0
 21 22  2  0
 22 23  1  0
 24 23  2  0
  1 25  1  6
  2 26  1  0
  2 27  1  0
  3 28  1  0
  3 29  1  0
  4 30  1  0
  4 31  1  0
  5 32  1  1
  6 33  1  0
  7 34  1  0
 10 35  1  0
 12 36  1  1
 13 37  1  0
 13 38  1  0
 13 39  1  0
 14 40  1  0
 14 41  1  0
 16 42  1  0
 17 43  1  0
 21 44  1  0
 22 45  1  0
 24 46  1  0
M  ISO  8  25  13  26  13  27  13  28  13  29  13  30  13  31  13  32  13
M  ISO  8  33  14  34  14  35  14  36   8  37   8  38   8  39   8  40   8
M  ISO  6  41   8  42  14  43  14  44  14  45  14  46  14
M  END
>  <minimizedAffinity>  (1) 
-5.86658573

>  <minimizedRMSD>  (1) 
0.574785709

$$$$
