
     RDKit          3D

 45 47  0  0  1  0  0  0  0  0999 V2000
   37.1210   25.5870   42.1750 C   0  0  2  0  0  0  0  0  0  0  0  0
   37.6900   24.2380   42.3030 C   0  0  0  0  0  0  0  0  0  0  0  0
   37.5010   23.5450   40.9630 C   0  0  0  0  0  0  0  0  0  0  0  0
   36.7380   24.5240   40.0990 C   0  0  0  0  0  0  0  0  0  0  0  0
   37.0220   25.8590   40.7220 C   0  0  2  0  0  0  0  0  0  0  0  0
   40.3380   27.8640   38.8300 C   0  0  0  0  0  0  0  0  0  0  0  0
   40.5590   26.7370   39.5890 C   0  0  0  0  0  0  0  0  0  0  0  0
   39.4890   26.1230   40.1820 C   0  0  0  0  0  0  0  0  0  0  0  0
   38.1660   26.5440   40.0840 C   0  0  0  0  0  0  0  0  0  0  0  0
   38.0640   27.6930   39.2910 C   0  0  0  0  0  0  0  0  0  0  0  0
   39.0740   28.3510   38.6770 C   0  0  0  0  0  0  0  0  0  0  0  0
   41.6830   28.6730   38.0580 S   0  0  0  0  0  0  0  0  0  0  0  0
   41.3910   28.7970   36.5720 O   0  0  0  0  0  0  0  0  0  0  0  0
   41.8540   30.0780   38.5610 O   0  0  0  0  0  0  0  0  0  0  0  0
   37.8500   26.7070   42.8580 C   0  0  0  0  0  0  0  0  0  0  0  0
   36.8330   27.8210   43.1900 C   0  0  2  0  0  0  0  0  0  0  0  0
   39.1020   30.5800   41.8880 C   0  0  0  0  0  0  0  0  0  0  0  0
   38.6810   29.4220   42.5990 C   0  0  0  0  0  0  0  0  0  0  0  0
   37.3150   29.0300   42.4860 C   0  0  0  0  0  0  0  0  0  0  0  0
   36.5090   29.8100   41.6970 N   0  0  0  0  0  0  0  0  0  0  0  0
   36.9160   30.8800   41.0440 C   0  0  0  0  0  0  0  0  0  0  0  0
   38.2170   31.2810   41.1300 N   0  0  0  0  0  0  0  0  0  0  0  0
   36.7320   28.0210   44.6750 C   0  0  0  0  0  0  0  0  0  0  0  0
   36.1548   25.5726   42.7006 H   0  0  0  0  0  0  0  0  0  0  0  0
   38.7606   24.3015   42.5474 H   0  0  0  0  0  0  0  0  0  0  0  0
   37.1920   23.6774   43.1078 H   0  0  0  0  0  0  0  0  0  0  0  0
   38.4764   23.3134   40.5102 H   0  0  0  0  0  0  0  0  0  0  0  0
   36.9608   22.5929   41.0713 H   0  0  0  0  0  0  0  0  0  0  0  0
   35.6602   24.3050   40.1189 H   0  0  0  0  0  0  0  0  0  0  0  0
   37.0389   24.4784   39.0419 H   0  0  0  0  0  0  0  0  0  0  0  0
   36.2279   26.6025   40.5588 H   0  0  0  0  0  0  0  0  0  0  0  0
   41.5760   26.3376   39.7165 H   0  0  0  0  0  0  0  0  0  0  0  0
   39.6909   25.2249   40.7842 H   0  0  0  0  0  0  0  0  0  0  0  0
   37.0537   28.1053   39.1521 H   0  0  0  0  0  0  0  0  0  0  0  0
   38.8814   29.2503   38.0735 H   0  0  0  0  0  0  0  0  0  0  0  0
   42.8073   27.9373   38.3257 H   0  0  0  0  0  0  0  0  0  0  0  0
   38.3125   26.3380   43.7853 H   0  0  0  0  0  0  0  0  0  0  0  0
   38.6394   27.1001   42.2005 H   0  0  0  0  0  0  0  0  0  0  0  0
   35.8152   27.5669   42.8591 H   0  0  0  0  0  0  0  0  0  0  0  0
   40.1493   30.9102   41.9517 H   0  0  0  0  0  0  0  0  0  0  0  0
   39.3871   28.8473   43.2164 H   0  0  0  0  0  0  0  0  0  0  0  0
   36.2052   31.4508   40.4284 H   0  0  0  0  0  0  0  0  0  0  0  0
   37.1696   27.1544   45.1923 H   0  0  0  0  0  0  0  0  0  0  0  0
   37.2779   28.9324   44.9602 H   0  0  0  0  0  0  0  0  0  0  0  0
   35.6745   28.1227   44.9602 H   0  0  0  0  0  0  0  0  0  0  0  0
  1  2  1  0
  1 15  1  0
  3  2  1  0
  4  5  1  0
  4  3  1  0
  5  1  1  0
  6  7  2  0
  7  8  1  0
  9  8  2  0
  9  5  1  0
 10  9  1  0
 11  6  1  0
 11 10  2  0
 12 14  2  0
 12  6  1  0
 13 12  2  0
 15 16  1  0
 16 23  1  0
 17 18  2  0
 19 18  1  0
 19 16  1  0
 20 19  2  0
 21 22  2  0
 21 20  1  0
 22 17  1  0
  1 24  1  1
  2 25  1  0
  2 26  1  0
  3 27  1  0
  3 28  1  0
  4 29  1  0
  4 30  1  0
  5 31  1  1
  7 32  1  0
  8 33  1  0
 10 34  1  0
 11 35  1  0
 12 36  1  0
 15 37  1  0
 15 38  1  0
 16 39  1  6
 17 40  1  0
 18 41  1  0
 21 42  1  0
 23 43  1  0
 23 44  1  0
 23 45  1  0
M  ISO  8  24  13  25  13  26  13  27  13  28  13  29  13  30  13  31  13
M  ISO  8  32  14  33  14  34  14  35  14  36  11  37   8  38   8  39   8
M  ISO  6  40  14  41  14  42  14  43   8  44   8  45   8
M  END
>  <minimizedAffinity>  (1) 
-5.19641066

>  <minimizedRMSD>  (1) 
0.530221343

$$$$
