
     RDKit          3D

 41 43  0  0  1  0  0  0  0  0999 V2000
   37.0420   25.5760   42.2110 C   0  0  2  0  0  0  0  0  0  0  0  0
   37.6440   24.2040   42.3100 C   0  0  0  0  0  0  0  0  0  0  0  0
   37.4150   23.5500   40.9640 C   0  0  0  0  0  0  0  0  0  0  0  0
   36.6350   24.5650   40.1340 C   0  0  0  0  0  0  0  0  0  0  0  0
   37.0970   25.8820   40.7270 C   0  0  2  0  0  0  0  0  0  0  0  0
   38.4590   26.1520   40.2330 C   0  0  0  0  0  0  0  0  0  0  0  0
   39.3770   25.1160   40.0680 C   0  0  0  0  0  0  0  0  0  0  0  0
   40.6600   25.3640   39.6030 C   0  0  0  0  0  0  0  0  0  0  0  0
   41.0670   26.6460   39.2890 C   0  0  0  0  0  0  0  0  0  0  0  0
   40.1190   27.6380   39.4690 C   0  0  0  0  0  0  0  0  0  0  0  0
   38.8760   27.3910   39.9200 N   0  0  0  0  0  0  0  0  0  0  0  0
   37.7960   26.6510   42.9270 C   0  0  0  0  0  0  0  0  0  0  0  0
   36.8440   27.8080   43.2310 C   0  0  2  0  0  0  0  0  0  0  0  0
   39.2010   30.5950   42.1880 C   0  0  0  0  0  0  0  0  0  0  0  0
   38.7220   29.4510   42.8650 C   0  0  0  0  0  0  0  0  0  0  0  0
   37.4100   29.0030   42.5570 C   0  0  0  0  0  0  0  0  0  0  0  0
   36.7030   29.7220   41.6190 N   0  0  0  0  0  0  0  0  0  0  0  0
   37.1870   30.7960   41.0020 C   0  0  0  0  0  0  0  0  0  0  0  0
   38.4280   31.2350   41.2800 N   0  0  0  0  0  0  0  0  0  0  0  0
   36.7110   28.0090   44.7270 C   0  0  0  0  0  0  0  0  0  0  0  0
   36.0431   25.5687   42.6716 H   0  0  0  0  0  0  0  0  0  0  0  0
   38.7210   24.2736   42.5229 H   0  0  0  0  0  0  0  0  0  0  0  0
   37.1877   23.6215   43.1239 H   0  0  0  0  0  0  0  0  0  0  0  0
   38.3765   23.3194   40.4820 H   0  0  0  0  0  0  0  0  0  0  0  0
   36.8660   22.6020   41.0635 H   0  0  0  0  0  0  0  0  0  0  0  0
   35.5500   24.4310   40.2558 H   0  0  0  0  0  0  0  0  0  0  0  0
   36.8114   24.4808   39.0515 H   0  0  0  0  0  0  0  0  0  0  0  0
   36.5091   26.7762   40.4725 H   0  0  0  0  0  0  0  0  0  0  0  0
   39.0791   24.0852   40.3105 H   0  0  0  0  0  0  0  0  0  0  0  0
   41.3638   24.5273   39.4825 H   0  0  0  0  0  0  0  0  0  0  0  0
   42.0798   26.8645   38.9195 H   0  0  0  0  0  0  0  0  0  0  0  0
   40.3946   28.6763   39.2324 H   0  0  0  0  0  0  0  0  0  0  0  0
   38.2037   26.2519   43.8675 H   0  0  0  0  0  0  0  0  0  0  0  0
   38.6245   27.0069   42.2970 H   0  0  0  0  0  0  0  0  0  0  0  0
   35.8280   27.6072   42.8603 H   0  0  0  0  0  0  0  0  0  0  0  0
   40.2131   30.9694   42.4013 H   0  0  0  0  0  0  0  0  0  0  0  0
   39.3437   28.9256   43.6049 H   0  0  0  0  0  0  0  0  0  0  0  0
   36.5706   31.3273   40.2618 H   0  0  0  0  0  0  0  0  0  0  0  0
   37.2438   27.2038   45.2540 H   0  0  0  0  0  0  0  0  0  0  0  0
   37.1453   28.9802   45.0065 H   0  0  0  0  0  0  0  0  0  0  0  0
   35.6473   27.9890   45.0065 H   0  0  0  0  0  0  0  0  0  0  0  0
  1  2  1  0
  1 12  1  0
  3  2  1  0
  4  5  1  0
  4  3  1  0
  5  1  1  0
  6  5  1  0
  7  6  2  0
  8  7  1  0
  9 10  1  0
  9  8  2  0
 10 11  2  0
 11  6  1  0
 12 13  1  0
 13 20  1  0
 14 15  2  0
 16 15  1  0
 16 13  1  0
 17 16  2  0
 18 19  2  0
 18 17  1  0
 19 14  1  0
  1 21  1  1
  2 22  1  0
  2 23  1  0
  3 24  1  0
  3 25  1  0
  4 26  1  0
  4 27  1  0
  5 28  1  1
  7 29  1  0
  8 30  1  0
  9 31  1  0
 10 32  1  0
 12 33  1  0
 12 34  1  0
 13 35  1  6
 14 36  1  0
 15 37  1  0
 18 38  1  0
 20 39  1  0
 20 40  1  0
 20 41  1  0
M  ISO  8  21  13  22  13  23  13  24  13  25  13  26  13  27  13  28  13
M  ISO  8  29  14  30  14  31  14  32  14  33   8  34   8  35   8  36  14
M  ISO  5  37  14  38  14  39   8  40   8  41   8
M  END
>  <minimizedAffinity>  (1) 
-5.19123554

>  <minimizedRMSD>  (1) 
0.287560999

$$$$
