
     RDKit          3D

 47 49  0  0  1  0  0  0  0  0999 V2000
   36.9550   25.8460   41.9100 C   0  0  2  0  0  0  0  0  0  0  0  0
   37.2180   24.3950   42.2210 C   0  0  0  0  0  0  0  0  0  0  0  0
   37.2930   23.6560   40.8930 C   0  0  0  0  0  0  0  0  0  0  0  0
   36.9520   24.7130   39.8570 C   0  0  0  0  0  0  0  0  0  0  0  0
   37.4680   25.9980   40.5020 C   0  0  1  0  0  0  0  0  0  0  0  0
   36.9830   27.1600   39.7970 N   0  0  0  0  0  0  0  0  0  0  0  0
   38.1670   27.7270   39.1320 C   0  0  0  0  0  0  0  0  0  0  0  0
   37.9380   28.0680   37.7000 C   0  0  0  0  0  0  0  0  0  0  0  0
   36.6590   28.7730   37.3930 C   0  0  0  0  0  0  0  0  0  0  0  0
   35.5350   28.1700   38.1930 C   0  0  0  0  0  0  0  0  0  0  0  0
   36.0240   26.8390   38.7480 C   0  0  0  0  0  0  0  0  0  0  0  0
   37.7970   26.7750   42.7730 C   0  0  0  0  0  0  0  0  0  0  0  0
   36.9010   27.9470   43.1790 C   0  0  2  0  0  0  0  0  0  0  0  0
   39.2380   30.7160   42.0930 C   0  0  0  0  0  0  0  0  0  0  0  0
   38.7930   29.5540   42.7650 C   0  0  0  0  0  0  0  0  0  0  0  0
   37.4620   29.1510   42.5220 C   0  0  0  0  0  0  0  0  0  0  0  0
   36.7120   29.9230   41.6530 N   0  0  0  0  0  0  0  0  0  0  0  0
   37.1690   31.0080   41.0420 C   0  0  0  0  0  0  0  0  0  0  0  0
   38.4390   31.4110   41.2590 N   0  0  0  0  0  0  0  0  0  0  0  0
   36.8590   28.0830   44.6870 C   0  0  0  0  0  0  0  0  0  0  0  0
   35.8957   26.0954   42.0701 H   0  0  0  0  0  0  0  0  0  0  0  0
   38.1694   24.2924   42.7635 H   0  0  0  0  0  0  0  0  0  0  0  0
   36.4193   23.9805   42.8537 H   0  0  0  0  0  0  0  0  0  0  0  0
   38.3045   23.2575   40.7251 H   0  0  0  0  0  0  0  0  0  0  0  0
   36.6126   22.7926   40.8529 H   0  0  0  0  0  0  0  0  0  0  0  0
   35.8667   24.7640   39.6854 H   0  0  0  0  0  0  0  0  0  0  0  0
   37.3939   24.5135   38.8696 H   0  0  0  0  0  0  0  0  0  0  0  0
   38.5578   26.1451   40.4762 H   0  0  0  0  0  0  0  0  0  0  0  0
   38.4606   28.6431   39.6654 H   0  0  0  0  0  0  0  0  0  0  0  0
   38.9530   26.9580   39.1598 H   0  0  0  0  0  0  0  0  0  0  0  0
   38.7657   28.7135   37.3710 H   0  0  0  0  0  0  0  0  0  0  0  0
   37.8810   27.1053   37.1708 H   0  0  0  0  0  0  0  0  0  0  0  0
   36.7590   29.8378   37.6501 H   0  0  0  0  0  0  0  0  0  0  0  0
   36.4366   28.6679   36.3209 H   0  0  0  0  0  0  0  0  0  0  0  0
   35.2605   28.8423   39.0192 H   0  0  0  0  0  0  0  0  0  0  0  0
   34.6481   28.0208   37.5596 H   0  0  0  0  0  0  0  0  0  0  0  0
   35.1814   26.2675   39.1644 H   0  0  0  0  0  0  0  0  0  0  0  0
   36.4838   26.2229   37.9613 H   0  0  0  0  0  0  0  0  0  0  0  0
   38.1497   26.2419   43.6682 H   0  0  0  0  0  0  0  0  0  0  0  0
   38.6795   27.1299   42.2205 H   0  0  0  0  0  0  0  0  0  0  0  0
   35.8593   27.7954   42.8599 H   0  0  0  0  0  0  0  0  0  0  0  0
   40.2688   31.0637   42.2560 H   0  0  0  0  0  0  0  0  0  0  0  0
   39.4515   28.9919   43.4436 H   0  0  0  0  0  0  0  0  0  0  0  0
   36.5169   31.5762   40.3624 H   0  0  0  0  0  0  0  0  0  0  0  0
   37.1535   27.1294   45.1495 H   0  0  0  0  0  0  0  0  0  0  0  0
   37.5547   28.8742   45.0033 H   0  0  0  0  0  0  0  0  0  0  0  0
   35.8383   28.3442   45.0033 H   0  0  0  0  0  0  0  0  0  0  0  0
  1  2  1  0
  1 12  1  0
  3  2  1  0
  4  5  1  0
  4  3  1  0
  5  1  1  0
  6  5  1  0
  7  6  1  0
  8  7  1  0
  9  8  1  0
  9 10  1  0
 10 11  1  0
 11  6  1  0
 12 13  1  0
 13 20  1  0
 14 15  2  0
 16 15  1  0
 16 13  1  0
 17 16  2  0
 18 19  2  0
 18 17  1  0
 19 14  1  0
  1 21  1  6
  2 22  1  0
  2 23  1  0
  3 24  1  0
  3 25  1  0
  4 26  1  0
  4 27  1  0
  5 28  1  1
  7 29  1  0
  7 30  1  0
  8 31  1  0
  8 32  1  0
  9 33  1  0
  9 34  1  0
 10 35  1  0
 10 36  1  0
 11 37  1  0
 11 38  1  0
 12 39  1  0
 12 40  1  0
 13 41  1  6
 14 42  1  0
 15 43  1  0
 18 44  1  0
 20 45  1  0
 20 46  1  0
 20 47  1  0
M  ISO  8  21  13  22  13  23  13  24  13  25  13  26  13  27  13  28  13
M  ISO  8  29  13  30  13  31  13  32  13  33  13  34  13  35  13  36  13
M  ISO  8  37  13  38  13  39   8  40   8  41   8  42  14  43  14  44  14
M  ISO  3  45   8  46   8  47   8
M  END
>  <minimizedAffinity>  (1) 
-5.17688799

>  <minimizedRMSD>  (1) 
0.954865098

$$$$
