
     RDKit          3D

 42 44  0  0  1  0  0  0  0  0999 V2000
   37.1100   25.5760   42.1740 C   0  0  2  0  0  0  0  0  0  0  0  0
   37.7110   24.2350   42.2970 C   0  0  0  0  0  0  0  0  0  0  0  0
   37.4770   23.5190   40.9810 C   0  0  0  0  0  0  0  0  0  0  0  0
   36.6550   24.4730   40.1370 C   0  0  0  0  0  0  0  0  0  0  0  0
   36.9900   25.8250   40.7110 C   0  0  2  0  0  0  0  0  0  0  0  0
   38.1110   26.4830   40.0450 C   0  0  0  0  0  0  0  0  0  0  0  0
   38.0190   27.6240   39.2730 C   0  0  0  0  0  0  0  0  0  0  0  0
   39.0640   28.2660   38.6410 C   0  0  0  0  0  0  0  0  0  0  0  0
   40.3310   27.7370   38.7790 C   0  0  0  0  0  0  0  0  0  0  0  0
   40.5110   26.6130   39.5240 C   0  0  0  0  0  0  0  0  0  0  0  0
   39.4380   26.0380   40.1140 C   0  0  0  0  0  0  0  0  0  0  0  0
   37.8570   26.7170   42.8090 C   0  0  0  0  0  0  0  0  0  0  0  0
   36.8480   27.8210   43.1430 C   0  0  2  0  0  0  0  0  0  0  0  0
   39.0780   30.5960   41.8500 C   0  0  0  0  0  0  0  0  0  0  0  0
   38.6910   29.4400   42.5450 C   0  0  0  0  0  0  0  0  0  0  0  0
   37.3220   29.0360   42.4370 C   0  0  0  0  0  0  0  0  0  0  0  0
   36.4730   29.8130   41.6580 N   0  0  0  0  0  0  0  0  0  0  0  0
   36.8890   30.8980   41.0220 C   0  0  0  0  0  0  0  0  0  0  0  0
   38.1780   31.2980   41.1080 N   0  0  0  0  0  0  0  0  0  0  0  0
   36.7590   28.0280   44.6400 C   0  0  0  0  0  0  0  0  0  0  0  0
   36.1583   25.5571   42.7253 H   0  0  0  0  0  0  0  0  0  0  0  0
   38.7900   24.3216   42.4928 H   0  0  0  0  0  0  0  0  0  0  0  0
   37.2590   23.6785   43.1312 H   0  0  0  0  0  0  0  0  0  0  0  0
   38.4355   23.2990   40.4881 H   0  0  0  0  0  0  0  0  0  0  0  0
   36.9617   22.5582   41.1270 H   0  0  0  0  0  0  0  0  0  0  0  0
   35.5804   24.2591   40.2350 H   0  0  0  0  0  0  0  0  0  0  0  0
   36.8771   24.3959   39.0624 H   0  0  0  0  0  0  0  0  0  0  0  0
   36.2155   26.5851   40.5308 H   0  0  0  0  0  0  0  0  0  0  0  0
   37.0178   28.0627   39.1502 H   0  0  0  0  0  0  0  0  0  0  0  0
   38.8920   29.1738   38.0441 H   0  0  0  0  0  0  0  0  0  0  0  0
   41.1894   28.2207   38.2901 H   0  0  0  0  0  0  0  0  0  0  0  0
   41.5142   26.1782   39.6448 H   0  0  0  0  0  0  0  0  0  0  0  0
   39.6259   25.1308   40.7070 H   0  0  0  0  0  0  0  0  0  0  0  0
   38.3509   26.3726   43.7296 H   0  0  0  0  0  0  0  0  0  0  0  0
   38.6252   27.0990   42.1205 H   0  0  0  0  0  0  0  0  0  0  0  0
   35.8304   27.5602   42.8166 H   0  0  0  0  0  0  0  0  0  0  0  0
   40.1216   30.9392   41.9054 H   0  0  0  0  0  0  0  0  0  0  0  0
   39.4106   28.8674   43.1485 H   0  0  0  0  0  0  0  0  0  0  0  0
   36.1781   31.4801   40.4172 H   0  0  0  0  0  0  0  0  0  0  0  0
   37.1425   27.1360   45.1569 H   0  0  0  0  0  0  0  0  0  0  0  0
   37.3600   28.9040   44.9254 H   0  0  0  0  0  0  0  0  0  0  0  0
   35.7098   28.1945   44.9254 H   0  0  0  0  0  0  0  0  0  0  0  0
  1  2  1  0
  1 12  1  0
  3  2  1  0
  4  5  1  0
  4  3  1  0
  5  1  1  0
  6 11  1  0
  6  5  1  0
  7  6  2  0
  8  9  2  0
  8  7  1  0
  9 10  1  0
 10 11  2  0
 12 13  1  0
 13 20  1  0
 14 15  2  0
 16 15  1  0
 16 13  1  0
 17 16  2  0
 18 19  2  0
 18 17  1  0
 19 14  1  0
  1 21  1  1
  2 22  1  0
  2 23  1  0
  3 24  1  0
  3 25  1  0
  4 26  1  0
  4 27  1  0
  5 28  1  1
  7 29  1  0
  8 30  1  0
  9 31  1  0
 10 32  1  0
 11 33  1  0
 12 34  1  0
 12 35  1  0
 13 36  1  6
 14 37  1  0
 15 38  1  0
 18 39  1  0
 20 40  1  0
 20 41  1  0
 20 42  1  0
M  ISO  8  21  13  22  13  23  13  24  13  25  13  26  13  27  13  28  13
M  ISO  8  29  14  30  14  31  14  32  14  33  14  34   8  35   8  36   8
M  ISO  6  37  14  38  14  39  14  40   8  41   8  42   8
M  END
>  <minimizedAffinity>  (1) 
-5.11873627

>  <minimizedRMSD>  (1) 
0.307684213

$$$$
