
     RDKit          3D

 40 42  0  0  1  0  0  0  0  0999 V2000
   37.0920   25.6470   42.1120 C   0  0  2  0  0  0  0  0  0  0  0  0
   37.6350   24.2770   42.3010 C   0  0  0  0  0  0  0  0  0  0  0  0
   37.4340   23.5420   41.0000 C   0  0  0  0  0  0  0  0  0  0  0  0
   36.6750   24.4930   40.1000 C   0  0  0  0  0  0  0  0  0  0  0  0
   37.0140   25.8600   40.6450 C   0  0  2  0  0  0  0  0  0  0  0  0
   38.1440   26.5060   39.9880 C   0  0  0  0  0  0  0  0  0  0  0  0
   39.4250   25.9500   39.9220 C   0  0  0  0  0  0  0  0  0  0  0  0
   40.5070   26.5390   39.3070 C   0  0  0  0  0  0  0  0  0  0  0  0
   40.3390   27.7440   38.7190 N   0  0  0  0  0  0  0  0  0  0  0  0
   39.1030   28.3100   38.7640 C   0  0  0  0  0  0  0  0  0  0  0  0
   38.0660   27.7180   39.3680 N   0  0  0  0  0  0  0  0  0  0  0  0
   37.8380   26.7540   42.7590 C   0  0  0  0  0  0  0  0  0  0  0  0
   36.8520   27.8750   43.1210 C   0  0  2  0  0  0  0  0  0  0  0  0
   39.0740   30.6730   41.8650 C   0  0  0  0  0  0  0  0  0  0  0  0
   38.6990   29.5110   42.5600 C   0  0  0  0  0  0  0  0  0  0  0  0
   37.3430   29.0870   42.4280 C   0  0  0  0  0  0  0  0  0  0  0  0
   36.5230   29.8530   41.6320 N   0  0  0  0  0  0  0  0  0  0  0  0
   36.9200   30.9520   40.9900 C   0  0  0  0  0  0  0  0  0  0  0  0
   38.2000   31.3600   41.1090 N   0  0  0  0  0  0  0  0  0  0  0  0
   36.8030   28.0580   44.6240 C   0  0  0  0  0  0  0  0  0  0  0  0
   36.1170   25.6857   42.6198 H   0  0  0  0  0  0  0  0  0  0  0  0
   38.7062   24.3253   42.5464 H   0  0  0  0  0  0  0  0  0  0  0  0
   37.1234   23.7615   43.1272 H   0  0  0  0  0  0  0  0  0  0  0  0
   38.4050   23.2841   40.5521 H   0  0  0  0  0  0  0  0  0  0  0  0
   36.8845   22.6007   41.1484 H   0  0  0  0  0  0  0  0  0  0  0  0
   35.5925   24.3063   40.1580 H   0  0  0  0  0  0  0  0  0  0  0  0
   36.9463   24.3804   39.0400 H   0  0  0  0  0  0  0  0  0  0  0  0
   36.2539   26.6233   40.4222 H   0  0  0  0  0  0  0  0  0  0  0  0
   39.5799   24.9697   40.3964 H   0  0  0  0  0  0  0  0  0  0  0  0
   41.4869   26.0394   39.2946 H   0  0  0  0  0  0  0  0  0  0  0  0
   38.9504   29.2893   38.2869 H   0  0  0  0  0  0  0  0  0  0  0  0
   38.3283   26.3847   43.6718 H   0  0  0  0  0  0  0  0  0  0  0  0
   38.6036   27.1398   42.0698 H   0  0  0  0  0  0  0  0  0  0  0  0
   35.8234   27.6455   42.8060 H   0  0  0  0  0  0  0  0  0  0  0  0
   40.1114   31.0306   41.9415 H   0  0  0  0  0  0  0  0  0  0  0  0
   39.4182   28.9534   43.1779 H   0  0  0  0  0  0  0  0  0  0  0  0
   36.2110   31.5200   40.3698 H   0  0  0  0  0  0  0  0  0  0  0  0
   37.0573   27.1084   45.1175 H   0  0  0  0  0  0  0  0  0  0  0  0
   37.5257   28.8316   44.9229 H   0  0  0  0  0  0  0  0  0  0  0  0
   35.7905   28.3670   44.9229 H   0  0  0  0  0  0  0  0  0  0  0  0
  1  2  1  0
  1 12  1  0
  3  2  1  0
  4  5  1  0
  4  3  1  0
  5  1  1  0
  6  5  1  0
  7  6  2  0
  8  7  1  0
  9 10  1  0
  9  8  2  0
 10 11  2  0
 11  6  1  0
 12 13  1  0
 13 20  1  0
 14 15  2  0
 16 15  1  0
 16 13  1  0
 17 16  2  0
 18 19  2  0
 18 17  1  0
 19 14  1  0
  1 21  1  1
  2 22  1  0
  2 23  1  0
  3 24  1  0
  3 25  1  0
  4 26  1  0
  4 27  1  0
  5 28  1  1
  7 29  1  0
  8 30  1  0
 10 31  1  0
 12 32  1  0
 12 33  1  0
 13 34  1  6
 14 35  1  0
 15 36  1  0
 18 37  1  0
 20 38  1  0
 20 39  1  0
 20 40  1  0
M  ISO  8  21  13  22  13  23  13  24  13  25  13  26  13  27  13  28  13
M  ISO  8  29  14  30  14  31  14  32   8  33   8  34   8  35  14  36  14
M  ISO  4  37  14  38   8  39   8  40   8
M  END
>  <minimizedAffinity>  (1) 
-5.08958721

>  <minimizedRMSD>  (1) 
0.403225183

$$$$
