
     RDKit          3D

 39 41  0  0  1  0  0  0  0  0999 V2000
   37.0080   25.9570   41.8240 C   0  0  2  0  0  0  0  0  0  0  0  0
   36.9860   24.4910   42.2080 C   0  0  0  0  0  0  0  0  0  0  0  0
   37.2020   23.6960   40.9360 C   0  0  0  0  0  0  0  0  0  0  0  0
   37.2630   24.7320   39.8440 C   0  0  0  0  0  0  0  0  0  0  0  0
   37.7750   25.9760   40.5390 C   0  0  1  0  0  0  0  0  0  0  0  0
   37.4650   27.0820   39.6020 C   0  0  0  0  0  0  0  0  0  0  0  0
   38.1800   28.0520   38.8850 C   0  0  0  0  0  0  0  0  0  0  0  0
   37.3260   28.8620   38.1720 C   0  0  0  0  0  0  0  0  0  0  0  0
   36.1170   28.3750   38.4650 N   0  0  0  0  0  0  0  0  0  0  0  0
   36.1650   27.3610   39.2780 N   0  0  0  0  0  0  0  0  0  0  0  0
   37.7980   26.7820   42.8390 C   0  0  0  0  0  0  0  0  0  0  0  0
   36.9150   27.9760   43.2080 C   0  0  2  0  0  0  0  0  0  0  0  0
   39.3520   30.6620   42.1360 C   0  0  0  0  0  0  0  0  0  0  0  0
   38.8600   29.5130   42.7970 C   0  0  0  0  0  0  0  0  0  0  0  0
   37.5140   29.1630   42.5590 C   0  0  0  0  0  0  0  0  0  0  0  0
   36.8120   29.9730   41.7070 N   0  0  0  0  0  0  0  0  0  0  0  0
   37.2920   31.0460   41.0970 C   0  0  0  0  0  0  0  0  0  0  0  0
   38.5730   31.3950   41.3130 N   0  0  0  0  0  0  0  0  0  0  0  0
   36.8330   28.1270   44.7150 C   0  0  0  0  0  0  0  0  0  0  0  0
   35.9912   26.3724   41.7649 H   0  0  0  0  0  0  0  0  0  0  0  0
   37.7895   24.2771   42.9281 H   0  0  0  0  0  0  0  0  0  0  0  0
   36.0292   24.2234   42.6802 H   0  0  0  0  0  0  0  0  0  0  0  0
   38.1440   23.1303   40.9872 H   0  0  0  0  0  0  0  0  0  0  0  0
   36.4044   22.9579   40.7657 H   0  0  0  0  0  0  0  0  0  0  0  0
   36.2648   24.9071   39.4164 H   0  0  0  0  0  0  0  0  0  0  0  0
   37.9055   24.4232   39.0063 H   0  0  0  0  0  0  0  0  0  0  0  0
   38.8459   26.0651   40.7740 H   0  0  0  0  0  0  0  0  0  0  0  0
   39.2754   28.1520   38.8916 H   0  0  0  0  0  0  0  0  0  0  0  0
   37.5787   29.7087   37.5169 H   0  0  0  0  0  0  0  0  0  0  0  0
   35.2402   28.7614   38.0872 H   0  0  0  0  0  0  0  0  0  0  0  0
   38.0148   26.1788   43.7329 H   0  0  0  0  0  0  0  0  0  0  0  0
   38.7603   27.1124   42.4210 H   0  0  0  0  0  0  0  0  0  0  0  0
   35.8809   27.8405   42.8583 H   0  0  0  0  0  0  0  0  0  0  0  0
   40.3968   30.9664   42.2967 H   0  0  0  0  0  0  0  0  0  0  0  0
   39.4983   28.9183   43.4671 H   0  0  0  0  0  0  0  0  0  0  0  0
   36.6549   31.6409   40.4260 H   0  0  0  0  0  0  0  0  0  0  0  0
   37.3049   27.2580   45.1968 H   0  0  0  0  0  0  0  0  0  0  0  0
   37.3566   29.0449   45.0206 H   0  0  0  0  0  0  0  0  0  0  0  0
   35.7780   28.1876   45.0206 H   0  0  0  0  0  0  0  0  0  0  0  0
  1  2  1  0
  1 11  1  0
  3  2  1  0
  4  5  1  0
  4  3  1  0
  5  1  1  0
  6  5  1  0
  7  6  1  0
  8  9  1  0
  8  7  2  0
  9 10  1  0
 10  6  2  0
 11 12  1  0
 12 19  1  0
 13 14  2  0
 15 14  1  0
 15 12  1  0
 16 15  2  0
 17 18  2  0
 17 16  1  0
 18 13  1  0
  1 20  1  6
  2 21  1  0
  2 22  1  0
  3 23  1  0
  3 24  1  0
  4 25  1  0
  4 26  1  0
  5 27  1  1
  7 28  1  0
  8 29  1  0
  9 30  1  0
 11 31  1  0
 11 32  1  0
 12 33  1  6
 13 34  1  0
 14 35  1  0
 17 36  1  0
 19 37  1  0
 19 38  1  0
 19 39  1  0
M  ISO  8  20  13  21  13  22  13  23  13  24  13  25  13  26  13  27  13
M  ISO  8  28  14  29  14  30   9  31   8  32   8  33   8  34  14  35  14
M  ISO  4  36  14  37   8  38   8  39   8
M  END
>  <minimizedAffinity>  (1) 
-5.02653503

>  <minimizedRMSD>  (1) 
1.47442722

$$$$
