
     RDKit          3D

 35 36  0  0  1  0  0  0  0  0999 V2000
   37.9200   26.7060   42.9060 C   0  0  0  0  0  0  0  0  0  0  0  0
   37.2040   25.5630   42.2650 C   0  0  2  0  0  0  0  0  0  0  0  0
   37.9000   24.2490   42.3190 C   0  0  0  0  0  0  0  0  0  0  0  0
   37.5090   23.5260   41.0440 C   0  0  0  0  0  0  0  0  0  0  0  0
   36.5570   24.4450   40.3110 C   0  0  0  0  0  0  0  0  0  0  0  0
   36.9810   25.8310   40.8060 C   0  0  2  0  0  0  0  0  0  0  0  0
   38.1570   26.2030   39.9790 C   0  0  0  0  0  0  0  0  0  0  0  0
   37.9540   27.5710   39.6460 F   0  0  0  0  0  0  0  0  0  0  0  0
   38.2440   25.5740   38.7700 F   0  0  0  0  0  0  0  0  0  0  0  0
   39.3720   26.2260   40.6300 F   0  0  0  0  0  0  0  0  0  0  0  0
   36.9030   27.8330   43.1760 C   0  0  2  0  0  0  0  0  0  0  0  0
   39.1730   30.6470   42.0430 C   0  0  0  0  0  0  0  0  0  0  0  0
   38.7370   29.4960   42.7270 C   0  0  0  0  0  0  0  0  0  0  0  0
   37.3990   29.0420   42.4940 C   0  0  0  0  0  0  0  0  0  0  0  0
   36.6400   29.7710   41.6160 N   0  0  0  0  0  0  0  0  0  0  0  0
   37.0960   30.8620   40.9880 C   0  0  0  0  0  0  0  0  0  0  0  0
   38.3620   31.3030   41.1980 N   0  0  0  0  0  0  0  0  0  0  0  0
   36.7470   28.0300   44.6580 C   0  0  0  0  0  0  0  0  0  0  0  0
   38.7099   27.0726   42.2339 H   0  0  0  0  0  0  0  0  0  0  0  0
   38.3797   26.3798   43.8506 H   0  0  0  0  0  0  0  0  0  0  0  0
   36.2773   25.4923   42.8534 H   0  0  0  0  0  0  0  0  0  0  0  0
   38.9897   24.3933   42.3595 H   0  0  0  0  0  0  0  0  0  0  0  0
   37.6174   23.6758   43.2143 H   0  0  0  0  0  0  0  0  0  0  0  0
   38.3994   23.3303   40.4285 H   0  0  0  0  0  0  0  0  0  0  0  0
   37.0399   22.5552   41.2621 H   0  0  0  0  0  0  0  0  0  0  0  0
   35.5122   24.2301   40.5796 H   0  0  0  0  0  0  0  0  0  0  0  0
   36.6024   24.3389   39.2171 H   0  0  0  0  0  0  0  0  0  0  0  0
   36.2981   26.6881   40.7108 H   0  0  0  0  0  0  0  0  0  0  0  0
   35.9043   27.5864   42.7864 H   0  0  0  0  0  0  0  0  0  0  0  0
   40.1969   31.0154   42.2040 H   0  0  0  0  0  0  0  0  0  0  0  0
   39.4041   28.9617   43.4195 H   0  0  0  0  0  0  0  0  0  0  0  0
   36.4378   31.4063   40.2949 H   0  0  0  0  0  0  0  0  0  0  0  0
   37.3437   27.2765   45.1929 H   0  0  0  0  0  0  0  0  0  0  0  0
   37.0957   29.0364   44.9328 H   0  0  0  0  0  0  0  0  0  0  0  0
   35.6874   27.9213   44.9328 H   0  0  0  0  0  0  0  0  0  0  0  0
  1 11  1  0
  2  3  1  0
  2  1  1  0
  4  3  1  0
  5  6  1  0
  5  4  1  0
  6  2  1  0
  7 10  1  0
  7  6  1  0
  8  7  1  0
  9  7  1  0
 11 18  1  0
 12 13  2  0
 14 13  1  0
 14 11  1  0
 15 14  2  0
 16 17  2  0
 16 15  1  0
 17 12  1  0
  1 19  1  0
  1 20  1  0
  2 21  1  1
  3 22  1  0
  3 23  1  0
  4 24  1  0
  4 25  1  0
  5 26  1  0
  5 27  1  0
  6 28  1  1
 11 29  1  6
 12 30  1  0
 13 31  1  0
 16 32  1  0
 18 33  1  0
 18 34  1  0
 18 35  1  0
M  ISO  8  19   8  20   8  21  13  22  13  23  13  24  13  25  13  26  13
M  ISO  8  27  13  28  13  29   8  30  14  31  14  32  14  33   8  34   8
M  ISO  1  35   8
M  END
>  <minimizedAffinity>  (1) 
-5.01455593

>  <minimizedRMSD>  (1) 
0.490710974

$$$$
