
     RDKit          3D

 39 41  0  0  1  0  0  0  0  0999 V2000
   37.1100   25.5780   42.2240 C   0  0  2  0  0  0  0  0  0  0  0  0
   37.7820   24.2490   42.2640 C   0  0  0  0  0  0  0  0  0  0  0  0
   37.6000   23.5980   40.9050 C   0  0  0  0  0  0  0  0  0  0  0  0
   36.6960   24.5500   40.1360 C   0  0  0  0  0  0  0  0  0  0  0  0
   36.9760   25.8810   40.7640 C   0  0  2  0  0  0  0  0  0  0  0  0
   38.1310   26.5380   40.1950 N   0  0  0  0  0  0  0  0  0  0  0  0
   38.1300   27.6090   39.4190 N   0  0  0  0  0  0  0  0  0  0  0  0
   39.3540   27.9760   39.0540 C   0  0  0  0  0  0  0  0  0  0  0  0
   40.2540   27.0850   39.6260 C   0  0  0  0  0  0  0  0  0  0  0  0
   39.4310   26.2220   40.3180 C   0  0  0  0  0  0  0  0  0  0  0  0
   37.8570   26.7030   42.8780 C   0  0  0  0  0  0  0  0  0  0  0  0
   36.8710   27.8310   43.1840 C   0  0  2  0  0  0  0  0  0  0  0  0
   39.1130   30.6120   41.9350 C   0  0  0  0  0  0  0  0  0  0  0  0
   38.7080   29.4520   42.6330 C   0  0  0  0  0  0  0  0  0  0  0  0
   37.3690   29.0340   42.4850 C   0  0  0  0  0  0  0  0  0  0  0  0
   36.5790   29.8000   41.6680 N   0  0  0  0  0  0  0  0  0  0  0  0
   36.9760   30.8870   41.0190 C   0  0  0  0  0  0  0  0  0  0  0  0
   38.2540   31.2930   41.1560 N   0  0  0  0  0  0  0  0  0  0  0  0
   36.7700   28.0430   44.6820 C   0  0  0  0  0  0  0  0  0  0  0  0
   36.1669   25.5121   42.7864 H   0  0  0  0  0  0  0  0  0  0  0  0
   38.8535   24.3774   42.4773 H   0  0  0  0  0  0  0  0  0  0  0  0
   37.3449   23.6202   43.0537 H   0  0  0  0  0  0  0  0  0  0  0  0
   38.5686   23.4870   40.3956 H   0  0  0  0  0  0  0  0  0  0  0  0
   37.1699   22.5885   40.9824 H   0  0  0  0  0  0  0  0  0  0  0  0
   35.6385   24.2725   40.2574 H   0  0  0  0  0  0  0  0  0  0  0  0
   36.8847   24.5390   39.0524 H   0  0  0  0  0  0  0  0  0  0  0  0
   36.1729   26.6093   40.5781 H   0  0  0  0  0  0  0  0  0  0  0  0
   39.6093   28.8327   38.4131 H   0  0  0  0  0  0  0  0  0  0  0  0
   41.3510   27.0716   39.5464 H   0  0  0  0  0  0  0  0  0  0  0  0
   39.7985   25.3683   40.9063 H   0  0  0  0  0  0  0  0  0  0  0  0
   38.3164   26.3488   43.8126 H   0  0  0  0  0  0  0  0  0  0  0  0
   38.6489   27.0680   42.2074 H   0  0  0  0  0  0  0  0  0  0  0  0
   35.8558   27.5912   42.8348 H   0  0  0  0  0  0  0  0  0  0  0  0
   40.1505   30.9646   42.0307 H   0  0  0  0  0  0  0  0  0  0  0  0
   39.4117   28.8950   43.2690 H   0  0  0  0  0  0  0  0  0  0  0  0
   36.2756   31.4462   40.3813 H   0  0  0  0  0  0  0  0  0  0  0  0
   37.1862   27.1693   45.2049 H   0  0  0  0  0  0  0  0  0  0  0  0
   37.3361   28.9430   44.9639 H   0  0  0  0  0  0  0  0  0  0  0  0
   35.7144   28.1705   44.9639 H   0  0  0  0  0  0  0  0  0  0  0  0
  1  2  1  0
  1 11  1  0
  3  2  1  0
  4  5  1  0
  4  3  1  0
  5  1  1  0
  6 10  1  0
  6  5  1  0
  7  6  1  0
  8  7  2  0
  8  9  1  0
  9 10  2  0
 11 12  1  0
 12 19  1  0
 13 14  2  0
 15 14  1  0
 15 12  1  0
 16 15  2  0
 17 18  2  0
 17 16  1  0
 18 13  1  0
  1 20  1  1
  2 21  1  0
  2 22  1  0
  3 23  1  0
  3 24  1  0
  4 25  1  0
  4 26  1  0
  5 27  1  1
  8 28  1  0
  9 29  1  0
 10 30  1  0
 11 31  1  0
 11 32  1  0
 12 33  1  6
 13 34  1  0
 14 35  1  0
 17 36  1  0
 19 37  1  0
 19 38  1  0
 19 39  1  0
M  ISO  8  20  13  21  13  22  13  23  13  24  13  25  13  26  13  27  13
M  ISO  8  28  14  29  14  30  14  31   8  32   8  33   8  34  14  35  14
M  ISO  4  36  14  37   8  38   8  39   8
M  END
>  <minimizedAffinity>  (1) 
-4.98788452

>  <minimizedRMSD>  (1) 
0.293804139

$$$$
