
     RDKit          3D

 38 40  0  0  1  0  0  0  0  0999 V2000
   37.8530   26.6990   42.9100 C   0  0  0  0  0  0  0  0  0  0  0  0
   37.1150   25.6070   42.2010 C   0  0  2  0  0  0  0  0  0  0  0  0
   37.7490   24.2570   42.2840 C   0  0  0  0  0  0  0  0  0  0  0  0
   37.5300   23.5960   40.9380 C   0  0  0  0  0  0  0  0  0  0  0  0
   36.7090   24.5770   40.1200 C   0  0  0  0  0  0  0  0  0  0  0  0
   37.0350   25.9110   40.7380 C   0  0  2  0  0  0  0  0  0  0  0  0
   38.1520   26.5640   40.1630 N   0  0  0  0  0  0  0  0  0  0  0  0
   38.1910   27.5870   39.3250 C   0  0  0  0  0  0  0  0  0  0  0  0
   39.4510   27.9440   38.9870 N   0  0  0  0  0  0  0  0  0  0  0  0
   40.2160   27.0560   39.6840 C   0  0  0  0  0  0  0  0  0  0  0  0
   39.4370   26.2380   40.3820 N   0  0  0  0  0  0  0  0  0  0  0  0
   36.8690   27.8310   43.2230 C   0  0  2  0  0  0  0  0  0  0  0  0
   39.1120   30.5870   41.9240 C   0  0  0  0  0  0  0  0  0  0  0  0
   38.7150   29.4400   42.6390 C   0  0  0  0  0  0  0  0  0  0  0  0
   37.3720   29.0280   42.5070 C   0  0  0  0  0  0  0  0  0  0  0  0
   36.5670   29.7910   41.6850 N   0  0  0  0  0  0  0  0  0  0  0  0
   36.9700   30.8670   41.0250 C   0  0  0  0  0  0  0  0  0  0  0  0
   38.2530   31.2680   41.1450 N   0  0  0  0  0  0  0  0  0  0  0  0
   36.7720   28.0570   44.7160 C   0  0  0  0  0  0  0  0  0  0  0  0
   38.6613   27.0778   42.2673 H   0  0  0  0  0  0  0  0  0  0  0  0
   38.2904   26.3129   43.8425 H   0  0  0  0  0  0  0  0  0  0  0  0
   36.1391   25.5742   42.7074 H   0  0  0  0  0  0  0  0  0  0  0  0
   38.8253   24.3545   42.4890 H   0  0  0  0  0  0  0  0  0  0  0  0
   37.3095   23.6601   43.0968 H   0  0  0  0  0  0  0  0  0  0  0  0
   38.4945   23.4012   40.4462 H   0  0  0  0  0  0  0  0  0  0  0  0
   37.0165   22.6288   41.0423 H   0  0  0  0  0  0  0  0  0  0  0  0
   35.6346   24.3567   40.2047 H   0  0  0  0  0  0  0  0  0  0  0  0
   36.9390   24.5356   39.0451 H   0  0  0  0  0  0  0  0  0  0  0  0
   36.2709   26.6774   40.5412 H   0  0  0  0  0  0  0  0  0  0  0  0
   37.2927   28.0941   38.9431 H   0  0  0  0  0  0  0  0  0  0  0  0
   41.3154   27.0223   39.6701 H   0  0  0  0  0  0  0  0  0  0  0  0
   35.8490   27.5888   42.8900 H   0  0  0  0  0  0  0  0  0  0  0  0
   40.1524   30.9349   42.0050 H   0  0  0  0  0  0  0  0  0  0  0  0
   39.4232   28.8880   43.2744 H   0  0  0  0  0  0  0  0  0  0  0  0
   36.2685   31.4257   40.3881 H   0  0  0  0  0  0  0  0  0  0  0  0
   37.1521   27.1714   45.2464 H   0  0  0  0  0  0  0  0  0  0  0  0
   37.3720   28.9362   44.9935 H   0  0  0  0  0  0  0  0  0  0  0  0
   35.7214   28.2277   44.9935 H   0  0  0  0  0  0  0  0  0  0  0  0
  1 12  1  0
  2  3  1  0
  2  1  1  0
  4  3  1  0
  5  6  1  0
  5  4  1  0
  6  2  1  0
  7 11  1  0
  7  6  1  0
  8  7  1  0
  9  8  2  0
  9 10  1  0
 10 11  2  0
 12 19  1  0
 13 14  2  0
 15 14  1  0
 15 12  1  0
 16 15  2  0
 17 18  2  0
 17 16  1  0
 18 13  1  0
  1 20  1  0
  1 21  1  0
  2 22  1  1
  3 23  1  0
  3 24  1  0
  4 25  1  0
  4 26  1  0
  5 27  1  0
  5 28  1  0
  6 29  1  1
  8 30  1  0
 10 31  1  0
 12 32  1  6
 13 33  1  0
 14 34  1  0
 17 35  1  0
 19 36  1  0
 19 37  1  0
 19 38  1  0
M  ISO  8  20   8  21   8  22  13  23  13  24  13  25  13  26  13  27  13
M  ISO  8  28  13  29  13  30  14  31  14  32   8  33  14  34  14  35  14
M  ISO  3  36   8  37   8  38   8
M  END
>  <minimizedAffinity>  (1) 
-4.96754026

>  <minimizedRMSD>  (1) 
0.603168249

$$$$
