
     RDKit          3D

 39 41  0  0  1  0  0  0  0  0999 V2000
   37.9140   26.7280   42.8400 C   0  0  0  0  0  0  0  0  0  0  0  0
   37.1950   25.5970   42.2200 C   0  0  2  0  0  0  0  0  0  0  0  0
   37.8190   24.2560   42.3710 C   0  0  0  0  0  0  0  0  0  0  0  0
   37.5230   23.5010   41.0890 C   0  0  0  0  0  0  0  0  0  0  0  0
   36.6150   24.4060   40.2870 C   0  0  0  0  0  0  0  0  0  0  0  0
   36.9990   25.7930   40.7500 C   0  0  2  0  0  0  0  0  0  0  0  0
   38.0710   26.4340   39.9800 C   0  0  0  0  0  0  0  0  0  0  0  0
   37.6510   27.5920   39.0150 C   0  0  0  0  0  0  0  0  0  0  0  0
   38.1280   26.2680   38.5020 C   0  0  0  0  0  0  0  0  0  0  0  0
   36.9310   27.8560   43.1740 C   0  0  2  0  0  0  0  0  0  0  0  0
   39.1590   30.6800   42.0060 C   0  0  0  0  0  0  0  0  0  0  0  0
   38.7430   29.5170   42.6900 C   0  0  0  0  0  0  0  0  0  0  0  0
   37.4190   29.0750   42.4830 C   0  0  0  0  0  0  0  0  0  0  0  0
   36.6370   29.8200   41.6240 N   0  0  0  0  0  0  0  0  0  0  0  0
   37.0620   30.9080   40.9980 C   0  0  0  0  0  0  0  0  0  0  0  0
   38.3200   31.3430   41.1840 N   0  0  0  0  0  0  0  0  0  0  0  0
   36.7770   28.0420   44.6530 C   0  0  0  0  0  0  0  0  0  0  0  0
   38.6748   27.1035   42.1398 H   0  0  0  0  0  0  0  0  0  0  0  0
   38.3965   26.3840   43.7668 H   0  0  0  0  0  0  0  0  0  0  0  0
   36.2496   25.6031   42.7823 H   0  0  0  0  0  0  0  0  0  0  0  0
   38.9054   24.3553   42.5122 H   0  0  0  0  0  0  0  0  0  0  0  0
   37.4194   23.7259   43.2481 H   0  0  0  0  0  0  0  0  0  0  0  0
   38.4532   23.3024   40.5364 H   0  0  0  0  0  0  0  0  0  0  0  0
   37.0542   22.5261   41.2887 H   0  0  0  0  0  0  0  0  0  0  0  0
   35.5577   24.1969   40.5070 H   0  0  0  0  0  0  0  0  0  0  0  0
   36.7268   24.2710   39.2011 H   0  0  0  0  0  0  0  0  0  0  0  0
   36.2355   26.5616   40.5594 H   0  0  0  0  0  0  0  0  0  0  0  0
   38.7939   26.2898   40.7964 H   0  0  0  0  0  0  0  0  0  0  0  0
   36.5931   27.8769   38.9171 H   0  0  0  0  0  0  0  0  0  0  0  0
   37.9399   28.6438   38.8723 H   0  0  0  0  0  0  0  0  0  0  0  0
   37.4162   25.5919   38.0058 H   0  0  0  0  0  0  0  0  0  0  0  0
   38.9218   25.9669   37.8026 H   0  0  0  0  0  0  0  0  0  0  0  0
   35.9187   27.6111   42.8200 H   0  0  0  0  0  0  0  0  0  0  0  0
   40.1848   31.0517   42.1459 H   0  0  0  0  0  0  0  0  0  0  0  0
   39.4264   28.9750   43.3602 H   0  0  0  0  0  0  0  0  0  0  0  0
   36.3848   31.4553   40.3258 H   0  0  0  0  0  0  0  0  0  0  0  0
   37.3921   27.2991   45.1820 H   0  0  0  0  0  0  0  0  0  0  0  0
   37.1047   29.0545   44.9313 H   0  0  0  0  0  0  0  0  0  0  0  0
   35.7211   27.9089   44.9313 H   0  0  0  0  0  0  0  0  0  0  0  0
  1 10  1  0
  2  3  1  0
  2  1  1  0
  4  3  1  0
  5  6  1  0
  5  4  1  0
  6  2  1  0
  7  6  1  0
  8  7  1  0
  9  8  1  0
  9  7  1  0
 10 17  1  0
 11 12  2  0
 13 12  1  0
 13 10  1  0
 14 13  2  0
 15 16  2  0
 15 14  1  0
 16 11  1  0
  1 18  1  0
  1 19  1  0
  2 20  1  1
  3 21  1  0
  3 22  1  0
  4 23  1  0
  4 24  1  0
  5 25  1  0
  5 26  1  0
  6 27  1  1
  7 28  1  0
  8 29  1  0
  8 30  1  0
  9 31  1  0
  9 32  1  0
 10 33  1  6
 11 34  1  0
 12 35  1  0
 15 36  1  0
 17 37  1  0
 17 38  1  0
 17 39  1  0
M  ISO  8  18   8  19   8  20  13  21  13  22  13  23  13  24  13  25  13
M  ISO  8  26  13  27  13  28  13  29  13  30  13  31  13  32  13  33   8
M  ISO  6  34  14  35  14  36  14  37   8  38   8  39   8
M  END
>  <minimizedAffinity>  (1) 
-4.87342262

>  <minimizedRMSD>  (1) 
0.137651652

$$$$
