
     RDKit          3D

 28 30  0  0  0  0  0  0  0  0999 V2000
   37.3200   28.4600   43.4730 C   0  0  0  0  0  0  0  0  0  0  0  0
   36.8420   27.3360   42.7580 C   0  0  0  0  0  0  0  0  0  0  0  0
   37.0700   27.3010   41.3680 C   0  0  0  0  0  0  0  0  0  0  0  0
   37.7320   28.3440   40.7950 N   0  0  0  0  0  0  0  0  0  0  0  0
   38.1680   29.3910   41.5080 C   0  0  0  0  0  0  0  0  0  0  0  0
   37.9610   29.4430   42.8340 N   0  0  0  0  0  0  0  0  0  0  0  0
   38.8610   30.4920   40.9350 N   0  0  0  0  0  0  0  0  0  0  0  0
   39.3740   31.3580   41.7870 N   0  0  0  0  0  0  0  0  0  0  0  0
   39.9990   32.3450   41.0930 C   0  0  0  0  0  0  0  0  0  0  0  0
   39.8280   32.0120   39.7550 C   0  0  0  0  0  0  0  0  0  0  0  0
   39.1060   30.8360   39.6610 C   0  0  0  0  0  0  0  0  0  0  0  0
   38.6670   30.0780   38.5510 N   0  0  0  0  0  0  0  0  0  0  0  0
   39.5160   29.1310   38.0730 C   0  0  0  0  0  0  0  0  0  0  0  0
   39.0430   28.4130   36.9830 C   0  0  0  0  0  0  0  0  0  0  0  0
   37.7990   28.6510   36.4340 C   0  0  0  0  0  0  0  0  0  0  0  0
   37.3670   27.8810   35.3150 N   0  0  0  0  0  0  0  0  0  0  0  0
   37.0310   29.6060   36.9730 N   0  0  0  0  0  0  0  0  0  0  0  0
   37.4360   30.3350   38.0310 C   0  0  0  0  0  0  0  0  0  0  0  0
   36.7410   31.2320   38.5540 O   0  0  0  0  0  0  0  0  0  0  0  0
   37.1631   28.5247   44.5598 H   0  0  0  0  0  0  0  0  0  0  0  0
   36.3115   26.5191   43.2691 H   0  0  0  0  0  0  0  0  0  0  0  0
   36.7219   26.4523   40.7608 H   0  0  0  0  0  0  0  0  0  0  0  0
   40.5266   33.2192   41.5023 H   0  0  0  0  0  0  0  0  0  0  0  0
   40.2081   32.5937   38.9023 H   0  0  0  0  0  0  0  0  0  0  0  0
   40.5054   28.9468   38.5170 H   0  0  0  0  0  0  0  0  0  0  0  0
   39.6790   27.6305   36.5434 H   0  0  0  0  0  0  0  0  0  0  0  0
   37.9811   27.1530   34.9228 H   0  0  0  0  0  0  0  0  0  0  0  0
   36.4407   28.0526   34.8986 H   0  0  0  0  0  0  0  0  0  0  0  0
  2  1  2  0
  3  2  1  0
  4  3  2  0
  4  5  1  0
  5  6  2  0
  6  1  1  0
  7  5  1  0
  7  8  1  0
  9  8  2  0
 10  9  1  0
 11 10  2  0
 11  7  1  0
 12 11  1  0
 13 12  1  0
 14 13  2  0
 15 17  2  0
 15 14  1  0
 16 15  1  0
 17 18  1  0
 18 12  1  0
 18 19  2  0
  1 20  1  0
  2 21  1  0
  3 22  1  0
  9 23  1  0
 10 24  1  0
 13 25  1  0
 14 26  1  0
 16 27  1  0
 16 28  1  0
M  ISO  7  20  14  21  14  22  14  23  14  24  14  25  14  26  14
M  END
>  <minimizedAffinity>  (1) 
-4.79367781

>  <minimizedRMSD>  (1) 
3.28589606

$$$$
