
     RDKit          3D

 33 34  0  0  1  0  0  0  0  0999 V2000
   37.8640   26.6790   42.8410 C   0  0  0  0  0  0  0  0  0  0  0  0
   37.0820   25.5520   42.2230 C   0  0  2  0  0  0  0  0  0  0  0  0
   37.7520   24.2220   42.2560 C   0  0  0  0  0  0  0  0  0  0  0  0
   37.5380   23.5740   40.8930 C   0  0  0  0  0  0  0  0  0  0  0  0
   36.5990   24.5150   40.1600 C   0  0  0  0  0  0  0  0  0  0  0  0
   36.9770   25.8640   40.7330 C   0  0  2  0  0  0  0  0  0  0  0  0
   38.1780   26.3050   40.2250 O   0  0  0  0  0  0  0  0  0  0  0  0
   36.8860   27.8170   43.1600 C   0  0  2  0  0  0  0  0  0  0  0  0
   39.2110   30.6480   42.1620 C   0  0  0  0  0  0  0  0  0  0  0  0
   38.7370   29.4920   42.8160 C   0  0  0  0  0  0  0  0  0  0  0  0
   37.4350   29.0280   42.5010 C   0  0  0  0  0  0  0  0  0  0  0  0
   36.7100   29.7450   41.5670 N   0  0  0  0  0  0  0  0  0  0  0  0
   37.1860   30.8360   40.9660 C   0  0  0  0  0  0  0  0  0  0  0  0
   38.4350   31.2930   41.2570 N   0  0  0  0  0  0  0  0  0  0  0  0
   36.7480   28.0030   44.6590 C   0  0  0  0  0  0  0  0  0  0  0  0
   38.6302   27.0324   42.1353 H   0  0  0  0  0  0  0  0  0  0  0  0
   38.3649   26.3376   43.7589 H   0  0  0  0  0  0  0  0  0  0  0  0
   36.1417   25.4887   42.7904 H   0  0  0  0  0  0  0  0  0  0  0  0
   38.8277   24.3469   42.4489 H   0  0  0  0  0  0  0  0  0  0  0  0
   37.3332   23.5942   43.0563 H   0  0  0  0  0  0  0  0  0  0  0  0
   38.4923   23.4811   40.3539 H   0  0  0  0  0  0  0  0  0  0  0  0
   37.1259   22.5575   40.9764 H   0  0  0  0  0  0  0  0  0  0  0  0
   35.5473   24.2730   40.3727 H   0  0  0  0  0  0  0  0  0  0  0  0
   36.6902   24.4617   39.0651 H   0  0  0  0  0  0  0  0  0  0  0  0
   36.2620   26.6657   40.4964 H   0  0  0  0  0  0  0  0  0  0  0  0
   38.7892   26.5294   40.9707 H   0  0  0  0  0  0  0  0  0  0  0  0
   35.8737   27.5996   42.7886 H   0  0  0  0  0  0  0  0  0  0  0  0
   40.2178   31.0290   42.3880 H   0  0  0  0  0  0  0  0  0  0  0  0
   39.3615   28.9639   43.5516 H   0  0  0  0  0  0  0  0  0  0  0  0
   36.5659   31.3699   40.2308 H   0  0  0  0  0  0  0  0  0  0  0  0
   37.3253   27.2248   45.1797 H   0  0  0  0  0  0  0  0  0  0  0  0
   37.1306   28.9947   44.9422 H   0  0  0  0  0  0  0  0  0  0  0  0
   35.6880   27.9244   44.9422 H   0  0  0  0  0  0  0  0  0  0  0  0
  1  8  1  0
  2  3  1  0
  2  1  1  0
  4  3  1  0
  5  6  1  0
  5  4  1  0
  6  2  1  0
  7  6  1  0
  8 15  1  0
  9 10  2  0
 11 10  1  0
 11  8  1  0
 12 11  2  0
 13 14  2  0
 13 12  1  0
 14  9  1  0
  1 16  1  0
  1 17  1  0
  2 18  1  1
  3 19  1  0
  3 20  1  0
  4 21  1  0
  4 22  1  0
  5 23  1  0
  5 24  1  0
  6 25  1  1
  7 26  1  0
  8 27  1  6
  9 28  1  0
 10 29  1  0
 13 30  1  0
 15 31  1  0
 15 32  1  0
 15 33  1  0
M  ISO  8  16   8  17   8  18  13  19  13  20  13  21  13  22  13  23  13
M  ISO  8  24  13  25  13  26   3  27   8  28  14  29  14  30  14  31   8
M  ISO  2  32   8  33   8
M  END
>  <minimizedAffinity>  (1) 
-4.79646301

>  <minimizedRMSD>  (1) 
0.0365371183

$$$$
