
     RDKit          3D

 48 51  0  0  1  0  0  0  0  0999 V2000
   37.6440   26.6180   40.5310 C   0  0  1  0  0  0  0  0  0  0  0  0
   38.0870   28.9290   43.5050 C   0  0  0  0  0  0  0  0  0  0  0  0
   38.2880   28.3730   42.2360 C   0  0  0  0  0  0  0  0  0  0  0  0
   37.4910   27.2660   41.8640 C   0  0  0  0  0  0  0  0  0  0  0  0
   36.5910   26.8480   42.8000 N   0  0  0  0  0  0  0  0  0  0  0  0
   36.4140   27.3870   43.9970 C   0  0  0  0  0  0  0  0  0  0  0  0
   37.1720   28.4380   44.3500 N   0  0  0  0  0  0  0  0  0  0  0  0
   37.5950   27.7770   39.5180 C   0  0  0  0  0  0  0  0  0  0  0  0
   36.2270   27.8100   38.9050 C   0  0  2  0  0  0  0  0  0  0  0  0
   36.1680   28.3250   37.5020 C   0  0  0  0  0  0  0  0  0  0  0  0
   34.8440   29.0530   37.3840 C   0  0  0  0  0  0  0  0  0  0  0  0
   34.2040   28.9920   38.7600 C   0  0  0  0  0  0  0  0  0  0  0  0
   35.3780   28.7640   39.6630 C   0  0  2  0  0  0  0  0  0  0  0  0
   35.9980   30.1140   39.8580 C   0  0  0  0  0  0  0  0  0  0  0  0
   36.5360   31.0850   39.3640 O   0  0  0  0  0  0  0  0  0  0  0  0
   38.9640   25.8920   40.4060 C   0  0  0  0  0  0  0  0  0  0  0  0
   38.7250   24.5090   40.0930 C   0  0  0  0  0  0  0  0  0  0  0  0
   37.6920   23.8030   40.6230 N   0  0  0  0  0  0  0  0  0  0  0  0
   37.4850   22.5100   40.2930 C   0  0  0  0  0  0  0  0  0  0  0  0
   38.2810   21.8240   39.4200 N   0  0  0  0  0  0  0  0  0  0  0  0
   39.3350   22.4720   38.8530 C   0  0  0  0  0  0  0  0  0  0  0  0
   40.1640   21.8140   37.9780 C   0  0  0  0  0  0  0  0  0  0  0  0
   41.2470   22.4700   37.4040 C   0  0  0  0  0  0  0  0  0  0  0  0
   41.4510   23.7880   37.7460 C   0  0  0  0  0  0  0  0  0  0  0  0
   40.6200   24.4560   38.6280 C   0  0  0  0  0  0  0  0  0  0  0  0
   39.5380   23.8060   39.2020 C   0  0  0  0  0  0  0  0  0  0  0  0
   36.8583   25.8658   40.3670 H   0  0  0  0  0  0  0  0  0  0  0  0
   38.6960   29.7908   43.8155 H   0  0  0  0  0  0  0  0  0  0  0  0
   39.0426   28.7846   41.5496 H   0  0  0  0  0  0  0  0  0  0  0  0
   35.6607   26.9816   44.6885 H   0  0  0  0  0  0  0  0  0  0  0  0
   37.7952   28.7287   40.0319 H   0  0  0  0  0  0  0  0  0  0  0  0
   38.3562   27.6303   38.7376 H   0  0  0  0  0  0  0  0  0  0  0  0
   35.8992   26.7602   38.9255 H   0  0  0  0  0  0  0  0  0  0  0  0
   37.0029   29.0155   37.3121 H   0  0  0  0  0  0  0  0  0  0  0  0
   36.2482   27.5096   36.7680 H   0  0  0  0  0  0  0  0  0  0  0  0
   35.0090   30.0989   37.0860 H   0  0  0  0  0  0  0  0  0  0  0  0
   34.1994   28.5924   36.6209 H   0  0  0  0  0  0  0  0  0  0  0  0
   33.6953   29.9367   39.0025 H   0  0  0  0  0  0  0  0  0  0  0  0
   33.4309   28.2143   38.8464 H   0  0  0  0  0  0  0  0  0  0  0  0
   35.1730   28.3472   40.6601 H   0  0  0  0  0  0  0  0  0  0  0  0
   35.9397   30.3188   40.9372 H   0  0  0  0  0  0  0  0  0  0  0  0
   39.5601   26.3514   39.6038 H   0  0  0  0  0  0  0  0  0  0  0  0
   39.5116   25.9623   41.3574 H   0  0  0  0  0  0  0  0  0  0  0  0
   36.6339   21.9834   40.7494 H   0  0  0  0  0  0  0  0  0  0  0  0
   39.9697   20.7602   37.7295 H   0  0  0  0  0  0  0  0  0  0  0  0
   41.9176   21.9540   36.7011 H   0  0  0  0  0  0  0  0  0  0  0  0
   42.3018   24.3272   37.3039 H   0  0  0  0  0  0  0  0  0  0  0  0
   40.8190   25.5092   38.8753 H   0  0  0  0  0  0  0  0  0  0  0  0
  1  4  1  0
  2  7  2  0
  3  2  1  0
  4  3  2  0
  4  5  1  0
  5  6  2  0
  6  7  1  0
  8  1  1  0
  9  8  1  0
  9 13  1  0
 10  9  1  0
 11 10  1  0
 11 12  1  0
 12 13  1  0
 13 14  1  0
 15 14  2  0
 16  1  1  0
 17 16  1  0
 17 18  2  0
 19 18  1  0
 20 19  2  0
 21 26  2  0
 21 20  1  0
 22 21  1  0
 23 24  1  0
 23 22  2  0
 24 25  2  0
 25 26  1  0
 26 17  1  0
  1 27  1  6
  2 28  1  0
  3 29  1  0
  6 30  1  0
  8 31  1  0
  8 32  1  0
  9 33  1  6
 10 34  1  0
 10 35  1  0
 11 36  1  0
 11 37  1  0
 12 38  1  0
 12 39  1  0
 13 40  1  1
 14 41  1  0
 16 42  1  0
 16 43  1  0
 19 44  1  0
 22 45  1  0
 23 46  1  0
 24 47  1  0
 25 48  1  0
M  ISO  8  27   8  28  14  29  14  30  14  31   8  32   8  33  13  34  13
M  ISO  8  35  13  36  13  37  13  38  13  39  13  40  13  41   6  42   8
M  ISO  6  43   8  44  14  45  14  46  14  47  14  48  14
M  END
>  <minimizedAffinity>  (1) 
-4.56350613

>  <minimizedRMSD>  (1) 
7.62803888

$$$$
