
     RDKit          3D

 47 50  0  0  1  0  0  0  0  0999 V2000
   37.5290   27.5630   43.0580 C   0  0  2  0  0  0  0  0  0  0  0  0
   39.2780   25.9880   42.2240 C   0  0  1  0  0  0  0  0  0  0  0  0
   39.1180   24.5910   41.5490 C   0  0  0  0  0  0  0  0  0  0  0  0
   37.7710   24.1170   41.9020 C   0  0  0  0  0  0  0  0  0  0  0  0
   37.0110   25.4290   42.2400 C   0  0  0  0  0  0  0  0  0  0  0  0
   38.0160   26.1490   42.9390 C   0  0  2  0  0  0  0  0  0  0  0  0
   41.9210   27.0250   44.6660 C   0  0  0  0  0  0  0  0  0  0  0  0
   40.6960   26.9750   44.0000 C   0  0  0  0  0  0  0  0  0  0  0  0
   40.5120   26.0760   42.9480 C   0  0  0  0  0  0  0  0  0  0  0  0
   41.5450   25.2600   42.5970 N   0  0  0  0  0  0  0  0  0  0  0  0
   42.7250   25.3100   43.2440 C   0  0  0  0  0  0  0  0  0  0  0  0
   42.9200   26.1780   44.2660 N   0  0  0  0  0  0  0  0  0  0  0  0
   36.6020   27.8530   44.1750 C   0  0  0  0  0  0  0  0  0  0  0  0
   36.9400   27.8550   41.7710 C   0  0  0  0  0  0  0  0  0  0  0  0
   37.0250   29.2350   41.4790 N   0  0  0  0  0  0  0  0  0  0  0  0
   36.0460   30.0680   41.0500 C   0  0  0  0  0  0  0  0  0  0  0  0
   36.6030   31.2780   40.7240 C   0  0  0  0  0  0  0  0  0  0  0  0
   37.9270   31.1340   40.9760 N   0  0  0  0  0  0  0  0  0  0  0  0
   38.1830   29.8900   41.4370 C   0  0  0  0  0  0  0  0  0  0  0  0
   39.5950   29.8900   41.6590 C   0  0  0  0  0  0  0  0  0  0  0  0
   40.1760   30.7560   42.6020 C   0  0  0  0  0  0  0  0  0  0  0  0
   41.5070   30.8930   42.9130 C   0  0  0  0  0  0  0  0  0  0  0  0
   42.3050   30.0810   42.2050 N   0  0  0  0  0  0  0  0  0  0  0  0
   41.8580   29.2330   41.2980 C   0  0  0  0  0  0  0  0  0  0  0  0
   40.5440   29.1570   41.0500 N   0  0  0  0  0  0  0  0  0  0  0  0
   38.3772   28.2143   43.3155 H   0  0  0  0  0  0  0  0  0  0  0  0
   39.4049   26.8510   41.5538 H   0  0  0  0  0  0  0  0  0  0  0  0
   39.8794   23.8942   41.9294 H   0  0  0  0  0  0  0  0  0  0  0  0
   39.2475   24.6553   40.4585 H   0  0  0  0  0  0  0  0  0  0  0  0
   37.3014   23.5961   41.0546 H   0  0  0  0  0  0  0  0  0  0  0  0
   37.7715   23.3929   42.7300 H   0  0  0  0  0  0  0  0  0  0  0  0
   36.6935   25.9584   41.3296 H   0  0  0  0  0  0  0  0  0  0  0  0
   36.0800   25.2817   42.8070 H   0  0  0  0  0  0  0  0  0  0  0  0
   38.2052   25.7817   43.9585 H   0  0  0  0  0  0  0  0  0  0  0  0
   42.0810   27.7300   45.4950 H   0  0  0  0  0  0  0  0  0  0  0  0
   39.8764   27.6430   44.3034 H   0  0  0  0  0  0  0  0  0  0  0  0
   43.5406   24.6379   42.9390 H   0  0  0  0  0  0  0  0  0  0  0  0
   37.1193   27.6912   45.1322 H   0  0  0  0  0  0  0  0  0  0  0  0
   36.2671   28.8988   44.1114 H   0  0  0  0  0  0  0  0  0  0  0  0
   35.7308   27.1845   44.1114 H   0  0  0  0  0  0  0  0  0  0  0  0
   37.4741   27.2888   40.9937 H   0  0  0  0  0  0  0  0  0  0  0  0
   35.8790   27.5658   41.7963 H   0  0  0  0  0  0  0  0  0  0  0  0
   34.9781   29.8148   40.9754 H   0  0  0  0  0  0  0  0  0  0  0  0
   36.0874   32.1711   40.3413 H   0  0  0  0  0  0  0  0  0  0  0  0
   39.4806   31.4020   43.1580 H   0  0  0  0  0  0  0  0  0  0  0  0
   41.8812   31.5994   43.6686 H   0  0  0  0  0  0  0  0  0  0  0  0
   42.5618   28.5911   40.7478 H   0  0  0  0  0  0  0  0  0  0  0  0
  1 13  1  0
  2  6  1  0
  2  9  1  0
  3  4  1  0
  3  2  1  0
  4  5  1  0
  5  6  1  0
  6  1  1  0
  8  7  2  0
  9  8  1  0
 10  9  2  0
 10 11  1  0
 11 12  2  0
 12  7  1  0
 14  1  1  0
 15 14  1  0
 16 15  1  0
 17 18  1  0
 17 16  2  0
 18 19  2  0
 19 15  1  0
 19 20  1  0
 20 21  2  0
 21 22  1  0
 23 22  2  0
 24 23  1  0
 25 24  2  0
 25 20  1  0
  1 26  1  1
  2 27  1  6
  3 28  1  0
  3 29  1  0
  4 30  1  0
  4 31  1  0
  5 32  1  0
  5 33  1  0
  6 34  1  1
  7 35  1  0
  8 36  1  0
 11 37  1  0
 13 38  1  0
 13 39  1  0
 13 40  1  0
 14 41  1  0
 14 42  1  0
 16 43  1  0
 17 44  1  0
 21 45  1  0
 22 46  1  0
 24 47  1  0
M  ISO  8  26   8  27  13  28  13  29  13  30  13  31  13  32  13  33  13
M  ISO  8  34  13  35  14  36  14  37  14  38   8  39   8  40   8  41   8
M  ISO  6  42   8  43  14  44  14  45  14  46  14  47  14
M  END
>  <minimizedAffinity>  (1) 
-5.70798492

>  <minimizedRMSD>  (1) 
0.431360006

$$$$
