
     RDKit          3D

 38 39  0  0  1  0  0  0  0  0999 V2000
   38.2030   27.5260   40.5440 C   0  0  0  0  0  0  0  0  0  0  0  0
   38.2840   26.2940   41.3530 C   0  0  2  0  0  0  0  0  0  0  0  0
   39.3490   25.3290   40.9150 C   0  0  0  0  0  0  0  0  0  0  0  0
   38.8000   23.9520   41.2200 C   0  0  0  0  0  0  0  0  0  0  0  0
   37.3780   24.1600   41.7550 C   0  0  0  0  0  0  0  0  0  0  0  0
   37.0330   25.5030   41.2010 C   0  0  2  0  0  0  0  0  0  0  0  0
   36.5930   25.2890   39.7900 C   0  0  0  0  0  0  0  0  0  0  0  0
   35.8410   24.6880   39.0260 O   0  0  0  0  0  0  0  0  0  0  0  0
   37.5560   28.6440   41.3260 C   0  0  2  0  0  0  0  0  0  0  0  0
   38.7770   31.1600   38.7940 C   0  0  0  0  0  0  0  0  0  0  0  0
   38.6350   29.9350   39.4760 C   0  0  0  0  0  0  0  0  0  0  0  0
   37.7530   29.8960   40.5660 C   0  0  0  0  0  0  0  0  0  0  0  0
   37.0950   31.0600   40.8810 N   0  0  0  0  0  0  0  0  0  0  0  0
   37.2480   32.2000   40.2180 C   0  0  0  0  0  0  0  0  0  0  0  0
   38.0850   32.2590   39.1770 N   0  0  0  0  0  0  0  0  0  0  0  0
   38.1550   28.7240   42.7330 C   0  0  0  0  0  0  0  0  0  0  0  0
   37.1950   29.0810   43.6830 O   0  0  0  0  0  0  0  0  0  0  0  0
   36.9690   27.9330   44.4470 C   0  0  0  0  0  0  0  0  0  0  0  0
   36.0070   27.1730   43.8080 F   0  0  0  0  0  0  0  0  0  0  0  0
   36.5770   28.2490   45.7330 F   0  0  0  0  0  0  0  0  0  0  0  0
   38.1470   27.1930   44.4700 F   0  0  0  0  0  0  0  0  0  0  0  0
   37.6063   27.3256   39.6419 H   0  0  0  0  0  0  0  0  0  0  0  0
   39.2230   27.8338   40.2703 H   0  0  0  0  0  0  0  0  0  0  0  0
   38.4858   26.6605   42.3703 H   0  0  0  0  0  0  0  0  0  0  0  0
   40.2796   25.5041   41.4747 H   0  0  0  0  0  0  0  0  0  0  0  0
   39.5893   25.4445   39.8478 H   0  0  0  0  0  0  0  0  0  0  0  0
   38.7766   23.3409   40.3056 H   0  0  0  0  0  0  0  0  0  0  0  0
   39.4286   23.4263   41.9538 H   0  0  0  0  0  0  0  0  0  0  0  0
   36.6927   23.3850   41.3811 H   0  0  0  0  0  0  0  0  0  0  0  0
   37.3023   24.0987   42.8507 H   0  0  0  0  0  0  0  0  0  0  0  0
   36.2133   26.0421   41.6984 H   0  0  0  0  0  0  0  0  0  0  0  0
   37.2055   25.9565   39.1661 H   0  0  0  0  0  0  0  0  0  0  0  0
   36.4784   28.4642   41.4542 H   0  0  0  0  0  0  0  0  0  0  0  0
   39.4619   31.2245   37.9356 H   0  0  0  0  0  0  0  0  0  0  0  0
   39.1958   29.0413   39.1647 H   0  0  0  0  0  0  0  0  0  0  0  0
   36.6868   33.0950   40.5247 H   0  0  0  0  0  0  0  0  0  0  0  0
   38.5722   27.7417   42.9994 H   0  0  0  0  0  0  0  0  0  0  0  0
   38.9380   29.4966   42.7293 H   0  0  0  0  0  0  0  0  0  0  0  0
  1  9  1  0
  1  2  1  0
  3  4  1  0
  3  2  1  0
  4  5  1  0
  6  2  1  0
  6  5  1  0
  7  6  1  0
  8  7  2  0
  9 16  1  0
 10 15  2  0
 10 11  1  0
 11 12  2  0
 12 13  1  0
 12  9  1  0
 14 13  2  0
 15 14  1  0
 16 17  1  0
 17 18  1  0
 18 21  1  0
 18 20  1  0
 19 18  1  0
  1 22  1  0
  1 23  1  0
  2 24  1  1
  3 25  1  0
  3 26  1  0
  4 27  1  0
  4 28  1  0
  5 29  1  0
  5 30  1  0
  6 31  1  1
  7 32  1  0
  9 33  1  1
 10 34  1  0
 11 35  1  0
 14 36  1  0
 16 37  1  0
 16 38  1  0
M  ISO  8  22   8  23   8  24  13  25  13  26  13  27  13  28  13  29  13
M  ISO  8  30  13  31  13  32   6  33   8  34  14  35  14  36  14  37   8
M  ISO  1  38   8
M  END
>  <minimizedAffinity>  (1) 
-4.9243598

>  <minimizedRMSD>  (1) 
2.33951712

$$$$
