
     RDKit          3D

 50 52  0  0  1  0  0  0  0  0999 V2000
   37.1700   27.9640   40.5550 C   0  0  1  0  0  0  0  0  0  0  0  0
   38.0450   29.2980   37.1400 C   0  0  0  0  0  0  0  0  0  0  0  0
   38.1970   28.6960   38.3970 C   0  0  0  0  0  0  0  0  0  0  0  0
   37.0680   28.5480   39.1960 C   0  0  0  0  0  0  0  0  0  0  0  0
   35.8830   29.0020   38.6930 N   0  0  0  0  0  0  0  0  0  0  0  0
   35.7730   29.5700   37.4930 C   0  0  0  0  0  0  0  0  0  0  0  0
   36.8600   29.7180   36.7150 N   0  0  0  0  0  0  0  0  0  0  0  0
   38.0570   26.7750   40.5330 C   0  0  0  0  0  0  0  0  0  0  0  0
   37.3730   25.5530   40.9400 C   0  0  2  0  0  0  0  0  0  0  0  0
   38.3440   24.4630   41.3040 C   0  0  0  0  0  0  0  0  0  0  0  0
   37.6180   23.1740   40.9370 C   0  0  0  0  0  0  0  0  0  0  0  0
   36.2950   23.5950   40.2930 C   0  0  0  0  0  0  0  0  0  0  0  0
   36.6050   24.9770   39.8000 C   0  0  2  0  0  0  0  0  0  0  0  0
   37.3580   24.8790   38.5200 C   0  0  0  0  0  0  0  0  0  0  0  0
   37.4210   24.1710   37.5080 O   0  0  0  0  0  0  0  0  0  0  0  0
   37.5610   28.9610   41.6260 C   0  0  1  0  0  0  0  0  0  0  0  0
   37.8790   30.2520   41.3660 N   0  0  0  0  0  0  0  0  0  0  0  0
   37.2360   31.2930   40.8110 C   0  0  0  0  0  0  0  0  0  0  0  0
   37.6940   32.5780   40.5980 C   0  0  0  0  0  0  0  0  0  0  0  0
   38.9850   32.8320   41.0090 C   0  0  0  0  0  0  0  0  0  0  0  0
   39.4640   34.1540   40.7930 N   0  0  0  0  0  0  0  0  0  0  0  0
   39.7170   31.8330   41.5830 N   0  0  0  0  0  0  0  0  0  0  0  0
   39.1560   30.5960   41.7420 C   0  0  0  0  0  0  0  0  0  0  0  0
   40.0710   29.8900   42.2960 O   0  0  0  0  0  0  0  0  0  0  0  0
   36.8150   28.7170   42.7990 O   0  0  0  0  0  0  0  0  0  0  0  0
   37.2250   28.1750   43.9200 C   0  0  0  0  0  0  0  0  0  0  0  0
   36.4360   28.3740   45.0730 N   0  0  0  0  0  0  0  0  0  0  0  0
   38.2800   27.5100   43.9150 O   0  0  0  0  0  0  0  0  0  0  0  0
   36.1585   27.6419   40.8432 H   0  0  0  0  0  0  0  0  0  0  0  0
   38.9256   29.4247   36.4931 H   0  0  0  0  0  0  0  0  0  0  0  0
   39.1825   28.3500   38.7421 H   0  0  0  0  0  0  0  0  0  0  0  0
   34.7919   29.9184   37.1380 H   0  0  0  0  0  0  0  0  0  0  0  0
   38.4390   26.6402   39.5103 H   0  0  0  0  0  0  0  0  0  0  0  0
   38.8703   26.9547   41.2515 H   0  0  0  0  0  0  0  0  0  0  0  0
   36.7379   25.8425   41.7902 H   0  0  0  0  0  0  0  0  0  0  0  0
   39.2758   24.5629   40.7281 H   0  0  0  0  0  0  0  0  0  0  0  0
   38.6334   24.4950   42.3648 H   0  0  0  0  0  0  0  0  0  0  0  0
   38.2184   22.5879   40.2257 H   0  0  0  0  0  0  0  0  0  0  0  0
   37.4490   22.5440   41.8228 H   0  0  0  0  0  0  0  0  0  0  0  0
   36.0261   22.9265   39.4618 H   0  0  0  0  0  0  0  0  0  0  0  0
   35.4377   23.5548   40.9811 H   0  0  0  0  0  0  0  0  0  0  0  0
   35.7425   25.6133   39.5526 H   0  0  0  0  0  0  0  0  0  0  0  0
   38.0916   25.6959   38.4527 H   0  0  0  0  0  0  0  0  0  0  0  0
   38.6275   28.7257   41.7573 H   0  0  0  0  0  0  0  0  0  0  0  0
   36.2053   31.0947   40.4818 H   0  0  0  0  0  0  0  0  0  0  0  0
   37.0675   33.3512   40.1293 H   0  0  0  0  0  0  0  0  0  0  0  0
   40.4207   34.4081   41.0778 H   0  0  0  0  0  0  0  0  0  0  0  0
   38.8541   34.8571   40.3518 H   0  0  0  0  0  0  0  0  0  0  0  0
   36.7256   27.9638   45.9723 H   0  0  0  0  0  0  0  0  0  0  0  0
   35.5705   28.9295   45.0152 H   0  0  0  0  0  0  0  0  0  0  0  0
  1 16  1  0
  2  3  2  0
  3  4  1  0
  4  1  1  0
  5  4  2  0
  6  5  1  0
  7  2  1  0
  7  6  2  0
  8  1  1  0
  8  9  1  0
  9 10  1  0
 11 10  1  0
 12 11  1  0
 13 12  1  0
 13  9  1  0
 14 13  1  0
 15 14  2  0
 16 25  1  0
 17 16  1  0
 17 23  1  0
 18 17  1  0
 19 18  2  0
 19 20  1  0
 20 22  2  0
 21 20  1  0
 22 23  1  0
 23 24  2  0
 25 26  1  0
 26 27  1  0
 28 26  2  0
  1 29  1  1
  2 30  1  0
  3 31  1  0
  6 32  1  0
  8 33  1  0
  8 34  1  0
  9 35  1  1
 10 36  1  0
 10 37  1  0
 11 38  1  0
 11 39  1  0
 12 40  1  0
 12 41  1  0
 13 42  1  6
 14 43  1  0
 16 44  1  1
 18 45  1  0
 19 46  1  0
 21 47  1  0
 21 48  1  0
 27 49  1  0
 27 50  1  0
M  ISO  8  29   8  30  14  31  14  32  14  33   8  34   8  35  13  36  13
M  ISO  8  37  13  38  13  39  13  40  13  41  13  42  13  43   6  44   8
M  ISO  2  45  14  46  14
M  END
>  <minimizedAffinity>  (1) 
-5.5266881

>  <minimizedRMSD>  (1) 
2.60560465

$$$$
