
     RDKit          3D

 53 56  0  0  1  0  0  0  0  0999 V2000
   37.8240   28.2930   41.4680 C   0  0  1  0  0  0  0  0  0  0  0  0
   38.5110   30.8450   38.7940 C   0  0  0  0  0  0  0  0  0  0  0  0
   38.5480   29.6320   39.5000 C   0  0  0  0  0  0  0  0  0  0  0  0
   37.8300   29.5320   40.6800 C   0  0  0  0  0  0  0  0  0  0  0  0
   37.1340   30.6410   41.0620 N   0  0  0  0  0  0  0  0  0  0  0  0
   37.1060   31.7850   40.3850 C   0  0  0  0  0  0  0  0  0  0  0  0
   37.8020   31.8840   39.2400 N   0  0  0  0  0  0  0  0  0  0  0  0
   38.5580   27.2250   40.7140 C   0  0  0  0  0  0  0  0  0  0  0  0
   38.3730   25.9040   41.2560 C   0  0  2  0  0  0  0  0  0  0  0  0
   39.3010   24.8850   40.6360 C   0  0  0  0  0  0  0  0  0  0  0  0
   38.5180   23.5760   40.6910 C   0  0  0  0  0  0  0  0  0  0  0  0
   37.1390   23.9330   41.2300 C   0  0  0  0  0  0  0  0  0  0  0  0
   37.0150   25.3940   40.8890 C   0  0  2  0  0  0  0  0  0  0  0  0
   36.7070   25.4870   39.4310 C   0  0  0  0  0  0  0  0  0  0  0  0
   35.8040   25.1020   38.6710 O   0  0  0  0  0  0  0  0  0  0  0  0
   38.4310   28.4670   42.8820 C   0  0  1  0  0  0  0  0  0  0  0  0
   39.7530   28.8450   42.8660 C   0  0  0  0  0  0  0  0  0  0  0  0
   40.0400   30.1370   42.4880 N   0  0  0  0  0  0  0  0  0  0  0  0
   41.2530   30.6530   42.4420 C   0  0  0  0  0  0  0  0  0  0  0  0
   42.3320   29.9220   42.7750 N   0  0  0  0  0  0  0  0  0  0  0  0
   42.2120   28.6400   43.1650 C   0  0  0  0  0  0  0  0  0  0  0  0
   43.2640   27.8160   43.5120 C   0  0  0  0  0  0  0  0  0  0  0  0
   43.0640   26.4960   43.8930 C   0  0  0  0  0  0  0  0  0  0  0  0
   41.7580   25.9950   43.9250 C   0  0  0  0  0  0  0  0  0  0  0  0
   40.7420   26.8560   43.5710 C   0  0  0  0  0  0  0  0  0  0  0  0
   40.9150   28.1710   43.1890 C   0  0  0  0  0  0  0  0  0  0  0  0
   37.4000   28.8410   43.7470 O   0  0  0  0  0  0  0  0  0  0  0  0
   36.5660   28.0710   44.4160 C   0  0  0  0  0  0  0  0  0  0  0  0
   36.2170   28.4550   45.7250 N   0  0  0  0  0  0  0  0  0  0  0  0
   36.1220   27.0520   43.8550 O   0  0  0  0  0  0  0  0  0  0  0  0
   36.7734   28.0037   41.6180 H   0  0  0  0  0  0  0  0  0  0  0  0
   39.0770   30.9408   37.8557 H   0  0  0  0  0  0  0  0  0  0  0  0
   39.1341   28.7803   39.1244 H   0  0  0  0  0  0  0  0  0  0  0  0
   36.5209   32.6389   40.7573 H   0  0  0  0  0  0  0  0  0  0  0  0
   39.6321   27.4614   40.7338 H   0  0  0  0  0  0  0  0  0  0  0  0
   38.1500   27.2139   39.6925 H   0  0  0  0  0  0  0  0  0  0  0  0
   38.5459   26.0063   42.3375 H   0  0  0  0  0  0  0  0  0  0  0  0
   40.2336   24.8054   41.2138 H   0  0  0  0  0  0  0  0  0  0  0  0
   39.5956   25.1548   39.6111 H   0  0  0  0  0  0  0  0  0  0  0  0
   38.4336   23.1387   39.6852 H   0  0  0  0  0  0  0  0  0  0  0  0
   39.0196   22.8334   41.3288 H   0  0  0  0  0  0  0  0  0  0  0  0
   36.3547   23.3425   40.7339 H   0  0  0  0  0  0  0  0  0  0  0  0
   37.0244   23.7255   42.3041 H   0  0  0  0  0  0  0  0  0  0  0  0
   36.2251   25.9660   41.3978 H   0  0  0  0  0  0  0  0  0  0  0  0
   37.4849   26.0429   38.8871 H   0  0  0  0  0  0  0  0  0  0  0  0
   38.7659   27.6126   43.4885 H   0  0  0  0  0  0  0  0  0  0  0  0
   41.3844   31.6984   42.1261 H   0  0  0  0  0  0  0  0  0  0  0  0
   44.2883   28.2161   43.4859 H   0  0  0  0  0  0  0  0  0  0  0  0
   43.9164   25.8560   44.1646 H   0  0  0  0  0  0  0  0  0  0  0  0
   41.5507   24.9560   44.2207 H   0  0  0  0  0  0  0  0  0  0  0  0
   39.7140   26.4652   43.5947 H   0  0  0  0  0  0  0  0  0  0  0  0
   35.5674   27.8757   46.2758 H   0  0  0  0  0  0  0  0  0  0  0  0
   36.6113   29.3152   46.1318 H   0  0  0  0  0  0  0  0  0  0  0  0
  1 16  1  0
  2  7  2  0
  2  3  1  0
  3  4  2  0
  4  5  1  0
  4  1  1  0
  6  5  2  0
  7  6  1  0
  8  9  1  0
  8  1  1  0
 10 11  1  0
 10  9  1  0
 11 12  1  0
 13 12  1  0
 13  9  1  0
 14 13  1  0
 15 14  2  0
 16 27  1  0
 17 16  1  0
 17 26  1  0
 18 17  2  0
 19 18  1  0
 19 20  2  0
 20 21  1  0
 21 26  2  0
 21 22  1  0
 22 23  2  0
 23 24  1  0
 25 24  2  0
 26 25  1  0
 27 28  1  0
 28 29  1  0
 30 28  2  0
  1 31  1  1
  2 32  1  0
  3 33  1  0
  6 34  1  0
  8 35  1  0
  8 36  1  0
  9 37  1  1
 10 38  1  0
 10 39  1  0
 11 40  1  0
 11 41  1  0
 12 42  1  0
 12 43  1  0
 13 44  1  1
 14 45  1  0
 16 46  1  1
 19 47  1  0
 22 48  1  0
 23 49  1  0
 24 50  1  0
 25 51  1  0
 29 52  1  0
 29 53  1  0
M  ISO  8  31   8  32  14  33  14  34  14  35   8  36   8  37  13  38  13
M  ISO  8  39  13  40  13  41  13  42  13  43  13  44  13  45   6  46   8
M  ISO  5  47  14  48  14  49  14  50  14  51  14
M  END
>  <minimizedAffinity>  (1) 
-5.52666235

>  <minimizedRMSD>  (1) 
0.993235111

$$$$
