
     RDKit          3D

 53 56  0  0  1  0  0  0  0  0999 V2000
   37.7840   28.1490   41.3690 C   0  0  1  0  0  0  0  0  0  0  0  0
   38.4490   30.8930   38.8790 C   0  0  0  0  0  0  0  0  0  0  0  0
   38.4870   29.6220   39.4810 C   0  0  0  0  0  0  0  0  0  0  0  0
   37.7550   29.4450   40.6540 C   0  0  0  0  0  0  0  0  0  0  0  0
   37.0580   30.5140   41.1280 N   0  0  0  0  0  0  0  0  0  0  0  0
   37.0450   31.7050   40.5310 C   0  0  0  0  0  0  0  0  0  0  0  0
   37.7480   31.8920   39.3980 N   0  0  0  0  0  0  0  0  0  0  0  0
   38.4160   27.1110   40.5270 C   0  0  0  0  0  0  0  0  0  0  0  0
   38.3890   25.7850   41.1400 C   0  0  2  0  0  0  0  0  0  0  0  0
   39.3050   24.8140   40.4470 C   0  0  0  0  0  0  0  0  0  0  0  0
   38.6270   23.4560   40.6220 C   0  0  0  0  0  0  0  0  0  0  0  0
   37.3030   23.7400   41.3230 C   0  0  0  0  0  0  0  0  0  0  0  0
   37.0360   25.1750   40.9580 C   0  0  2  0  0  0  0  0  0  0  0  0
   36.5460   25.1910   39.5520 C   0  0  0  0  0  0  0  0  0  0  0  0
   35.6870   24.5810   38.9060 O   0  0  0  0  0  0  0  0  0  0  0  0
   38.3890   28.2300   42.7590 C   0  0  1  0  0  0  0  0  0  0  0  0
   39.7170   28.5930   42.8480 C   0  0  0  0  0  0  0  0  0  0  0  0
   40.2900   29.8360   42.5820 C   0  0  0  0  0  0  0  0  0  0  0  0
   41.6180   29.8260   42.7940 N   0  0  0  0  0  0  0  0  0  0  0  0
   41.9830   28.6120   43.1990 C   0  0  0  0  0  0  0  0  0  0  0  0
   43.2150   28.1050   43.5300 C   0  0  0  0  0  0  0  0  0  0  0  0
   43.3570   26.7900   43.9210 C   0  0  0  0  0  0  0  0  0  0  0  0
   42.2400   25.9920   43.9730 C   0  0  0  0  0  0  0  0  0  0  0  0
   41.0280   26.5470   43.6320 C   0  0  0  0  0  0  0  0  0  0  0  0
   40.8460   27.8570   43.2370 C   0  0  0  0  0  0  0  0  0  0  0  0
   37.4500   28.7200   43.6770 O   0  0  0  0  0  0  0  0  0  0  0  0
   36.5700   28.0450   44.3850 C   0  0  0  0  0  0  0  0  0  0  0  0
   36.2580   28.5200   45.6740 N   0  0  0  0  0  0  0  0  0  0  0  0
   36.0520   27.0250   43.8830 O   0  0  0  0  0  0  0  0  0  0  0  0
   36.7389   27.8552   41.5464 H   0  0  0  0  0  0  0  0  0  0  0  0
   39.0165   31.0629   37.9521 H   0  0  0  0  0  0  0  0  0  0  0  0
   39.0718   28.7997   39.0430 H   0  0  0  0  0  0  0  0  0  0  0  0
   36.4622   32.5324   40.9621 H   0  0  0  0  0  0  0  0  0  0  0  0
   39.4640   27.3939   40.3493 H   0  0  0  0  0  0  0  0  0  0  0  0
   37.8423   27.0525   39.5903 H   0  0  0  0  0  0  0  0  0  0  0  0
   38.6796   25.9380   42.1898 H   0  0  0  0  0  0  0  0  0  0  0  0
   40.2998   24.8152   40.9165 H   0  0  0  0  0  0  0  0  0  0  0  0
   39.4618   25.0697   39.3887 H   0  0  0  0  0  0  0  0  0  0  0  0
   38.4492   22.9876   39.6427 H   0  0  0  0  0  0  0  0  0  0  0  0
   39.2526   22.7631   41.2037 H   0  0  0  0  0  0  0  0  0  0  0  0
   36.5064   23.0806   40.9481 H   0  0  0  0  0  0  0  0  0  0  0  0
   37.3377   23.5651   42.4085 H   0  0  0  0  0  0  0  0  0  0  0  0
   36.2765   25.7145   41.5428 H   0  0  0  0  0  0  0  0  0  0  0  0
   37.0811   25.9284   38.9357 H   0  0  0  0  0  0  0  0  0  0  0  0
   38.5824   27.2081   43.1173 H   0  0  0  0  0  0  0  0  0  0  0  0
   39.7254   30.7163   42.2408 H   0  0  0  0  0  0  0  0  0  0  0  0
   42.2505   30.6284   42.6639 H   0  0  0  0  0  0  0  0  0  0  0  0
   44.1005   28.7560   43.4828 H   0  0  0  0  0  0  0  0  0  0  0  0
   44.3459   26.3878   44.1862 H   0  0  0  0  0  0  0  0  0  0  0  0
   42.3125   24.9379   44.2790 H   0  0  0  0  0  0  0  0  0  0  0  0
   40.1397   25.8998   43.6775 H   0  0  0  0  0  0  0  0  0  0  0  0
   35.5736   28.0169   46.2565 H   0  0  0  0  0  0  0  0  0  0  0  0
   36.7143   29.3704   46.0339 H   0  0  0  0  0  0  0  0  0  0  0  0
  1 16  1  0
  2  7  2  0
  2  3  1  0
  3  4  2  0
  4  5  1  0
  4  1  1  0
  6  5  2  0
  7  6  1  0
  8  9  1  0
  8  1  1  0
 10 11  1  0
 10  9  1  0
 11 12  1  0
 13  9  1  0
 13 12  1  0
 14 13  1  0
 15 14  2  0
 16 17  1  0
 16 26  1  0
 17 25  1  0
 18 19  1  0
 18 17  2  0
 19 20  1  0
 20 25  2  0
 20 21  1  0
 21 22  2  0
 22 23  1  0
 24 23  2  0
 25 24  1  0
 26 27  1  0
 27 28  1  0
 29 27  2  0
  1 30  1  1
  2 31  1  0
  3 32  1  0
  6 33  1  0
  8 34  1  0
  8 35  1  0
  9 36  1  1
 10 37  1  0
 10 38  1  0
 11 39  1  0
 11 40  1  0
 12 41  1  0
 12 42  1  0
 13 43  1  1
 14 44  1  0
 16 45  1  1
 18 46  1  0
 19 47  1  0
 21 48  1  0
 22 49  1  0
 23 50  1  0
 24 51  1  0
 28 52  1  0
 28 53  1  0
M  ISO  8  30   8  31  14  32  14  33  14  34   8  35   8  36  13  37  13
M  ISO  8  38  13  39  13  40  13  41  13  42  13  43  13  44   6  45   8
M  ISO  6  46  14  47   9  48  14  49  14  50  14  51  14
M  END
>  <minimizedAffinity>  (1) 
-5.47336483

>  <minimizedRMSD>  (1) 
0.932205081

$$$$
