
     RDKit          3D

 49 51  0  0  1  0  0  0  0  0999 V2000
   37.0920   28.0190   40.4780 C   0  0  1  0  0  0  0  0  0  0  0  0
   37.8260   29.2280   36.9830 C   0  0  0  0  0  0  0  0  0  0  0  0
   38.0310   28.6940   38.2630 C   0  0  0  0  0  0  0  0  0  0  0  0
   36.9310   28.5340   39.0970 C   0  0  0  0  0  0  0  0  0  0  0  0
   35.7180   28.9120   38.6030 N   0  0  0  0  0  0  0  0  0  0  0  0
   35.5520   29.4180   37.3810 C   0  0  0  0  0  0  0  0  0  0  0  0
   36.6100   29.5760   36.5710 N   0  0  0  0  0  0  0  0  0  0  0  0
   38.0000   26.8420   40.4760 C   0  0  0  0  0  0  0  0  0  0  0  0
   37.3330   25.6190   40.9170 C   0  0  2  0  0  0  0  0  0  0  0  0
   38.3220   24.5640   41.3280 C   0  0  0  0  0  0  0  0  0  0  0  0
   37.6280   23.2480   40.9950 C   0  0  0  0  0  0  0  0  0  0  0  0
   36.3050   23.6210   40.3250 C   0  0  0  0  0  0  0  0  0  0  0  0
   36.5900   24.9930   39.7890 C   0  0  2  0  0  0  0  0  0  0  0  0
   37.3600   24.8650   38.5230 C   0  0  0  0  0  0  0  0  0  0  0  0
   37.4150   24.1450   37.5160 O   0  0  0  0  0  0  0  0  0  0  0  0
   37.5140   29.0760   41.4780 C   0  0  1  0  0  0  0  0  0  0  0  0
   37.7880   30.3660   41.1670 N   0  0  0  0  0  0  0  0  0  0  0  0
   37.0450   31.3670   40.6610 C   0  0  0  0  0  0  0  0  0  0  0  0
   37.4100   32.6650   40.3670 C   0  0  0  0  0  0  0  0  0  0  0  0
   38.7460   32.9820   40.6360 C   0  0  0  0  0  0  0  0  0  0  0  0
   39.1010   34.1530   40.3780 O   0  0  0  0  0  0  0  0  0  0  0  0
   39.5310   32.0060   41.1460 N   0  0  0  0  0  0  0  0  0  0  0  0
   39.0800   30.7660   41.3990 C   0  0  0  0  0  0  0  0  0  0  0  0
   40.0510   30.0770   41.8710 O   0  0  0  0  0  0  0  0  0  0  0  0
   36.8480   28.8650   42.7040 O   0  0  0  0  0  0  0  0  0  0  0  0
   37.3170   28.3290   43.8070 C   0  0  0  0  0  0  0  0  0  0  0  0
   36.5280   28.4270   44.9690 N   0  0  0  0  0  0  0  0  0  0  0  0
   38.4210   27.7570   43.7670 O   0  0  0  0  0  0  0  0  0  0  0  0
   36.0990   27.6969   40.8248 H   0  0  0  0  0  0  0  0  0  0  0  0
   38.6846   29.3614   36.3085 H   0  0  0  0  0  0  0  0  0  0  0  0
   39.0387   28.4084   38.5992 H   0  0  0  0  0  0  0  0  0  0  0  0
   34.5478   29.7060   37.0367 H   0  0  0  0  0  0  0  0  0  0  0  0
   38.3769   26.6892   39.4540 H   0  0  0  0  0  0  0  0  0  0  0  0
   38.8174   27.0497   41.1822 H   0  0  0  0  0  0  0  0  0  0  0  0
   36.6811   25.9213   41.7499 H   0  0  0  0  0  0  0  0  0  0  0  0
   39.2586   24.6653   40.7601 H   0  0  0  0  0  0  0  0  0  0  0  0
   38.5977   24.6370   42.3904 H   0  0  0  0  0  0  0  0  0  0  0  0
   38.2484   22.6527   40.3089 H   0  0  0  0  0  0  0  0  0  0  0  0
   37.4631   22.6421   41.8981 H   0  0  0  0  0  0  0  0  0  0  0  0
   36.0585   22.9202   39.5137 H   0  0  0  0  0  0  0  0  0  0  0  0
   35.4423   23.5862   41.0066 H   0  0  0  0  0  0  0  0  0  0  0  0
   35.7187   25.6042   39.5111 H   0  0  0  0  0  0  0  0  0  0  0  0
   38.1190   25.6588   38.4612 H   0  0  0  0  0  0  0  0  0  0  0  0
   38.5937   28.8695   41.5188 H   0  0  0  0  0  0  0  0  0  0  0  0
   35.9951   31.1144   40.4514 H   0  0  0  0  0  0  0  0  0  0  0  0
   36.7021   33.3972   39.9514 H   0  0  0  0  0  0  0  0  0  0  0  0
   40.5172   32.2227   41.3492 H   0  0  0  0  0  0  0  0  0  0  0  0
   36.8616   28.0190   45.8539 H   0  0  0  0  0  0  0  0  0  0  0  0
   35.6172   28.9067   44.9341 H   0  0  0  0  0  0  0  0  0  0  0  0
  1 16  1  0
  2  3  2  0
  3  4  1  0
  4  1  1  0
  5  4  2  0
  6  5  1  0
  7  2  1  0
  7  6  2  0
  8  1  1  0
  8  9  1  0
  9 10  1  0
 11 10  1  0
 12 11  1  0
 13 12  1  0
 13  9  1  0
 14 13  1  0
 15 14  2  0
 16 25  1  0
 17 23  1  0
 17 16  1  0
 18 17  1  0
 19 20  1  0
 19 18  2  0
 20 22  1  0
 21 20  2  0
 22 23  1  0
 23 24  2  0
 25 26  1  0
 26 27  1  0
 28 26  2  0
  1 29  1  1
  2 30  1  0
  3 31  1  0
  6 32  1  0
  8 33  1  0
  8 34  1  0
  9 35  1  1
 10 36  1  0
 10 37  1  0
 11 38  1  0
 11 39  1  0
 12 40  1  0
 12 41  1  0
 13 42  1  6
 14 43  1  0
 16 44  1  1
 18 45  1  0
 19 46  1  0
 22 47  1  0
 27 48  1  0
 27 49  1  0
M  ISO  8  29   8  30  14  31  14  32  14  33   8  34   8  35  13  36  13
M  ISO  8  37  13  38  13  39  13  40  13  41  13  42  13  43   6  44   8
M  ISO  3  45  14  46  14  47   9
M  END
>  <minimizedAffinity>  (1) 
-5.43132019

>  <minimizedRMSD>  (1) 
2.77848434

$$$$
