
     RDKit          3D

 47 49  0  0  1  0  0  0  0  0999 V2000
   37.7310   28.3500   41.3120 C   0  0  1  0  0  0  0  0  0  0  0  0
   38.4530   31.0080   38.7470 C   0  0  0  0  0  0  0  0  0  0  0  0
   38.4940   29.7690   39.4110 C   0  0  0  0  0  0  0  0  0  0  0  0
   37.6830   29.6070   40.5330 C   0  0  0  0  0  0  0  0  0  0  0  0
   36.9050   30.6640   40.9070 N   0  0  0  0  0  0  0  0  0  0  0  0
   36.8960   31.8260   40.2510 C   0  0  0  0  0  0  0  0  0  0  0  0
   37.6720   31.9960   39.1680 N   0  0  0  0  0  0  0  0  0  0  0  0
   38.4000   27.2830   40.5360 C   0  0  0  0  0  0  0  0  0  0  0  0
   38.3040   25.9690   41.1760 C   0  0  2  0  0  0  0  0  0  0  0  0
   39.2950   24.9850   40.6140 C   0  0  0  0  0  0  0  0  0  0  0  0
   38.6030   23.6310   40.7390 C   0  0  0  0  0  0  0  0  0  0  0  0
   37.2040   23.9250   41.2850 C   0  0  0  0  0  0  0  0  0  0  0  0
   36.9800   25.3520   40.8570 C   0  0  2  0  0  0  0  0  0  0  0  0
   36.6480   25.3360   39.4070 C   0  0  0  0  0  0  0  0  0  0  0  0
   35.7310   24.8910   38.7100 O   0  0  0  0  0  0  0  0  0  0  0  0
   38.3470   28.5200   42.7040 C   0  0  1  0  0  0  0  0  0  0  0  0
   39.5820   29.1000   42.7310 C   0  0  0  0  0  0  0  0  0  0  0  0
   40.7290   28.3370   42.8040 C   0  0  0  0  0  0  0  0  0  0  0  0
   42.0170   28.8870   42.8330 C   0  0  0  0  0  0  0  0  0  0  0  0
   42.1210   30.2450   42.7860 N   0  0  0  0  0  0  0  0  0  0  0  0
   41.0020   31.0100   42.7130 C   0  0  0  0  0  0  0  0  0  0  0  0
   39.7740   30.4350   42.6880 N   0  0  0  0  0  0  0  0  0  0  0  0
   37.3620   28.8600   43.6370 O   0  0  0  0  0  0  0  0  0  0  0  0
   36.6050   28.0420   44.3480 C   0  0  0  0  0  0  0  0  0  0  0  0
   36.2740   28.4320   45.6600 N   0  0  0  0  0  0  0  0  0  0  0  0
   36.2110   26.9720   43.8310 O   0  0  0  0  0  0  0  0  0  0  0  0
   36.6891   28.0468   41.4923 H   0  0  0  0  0  0  0  0  0  0  0  0
   39.0825   31.1623   37.8582 H   0  0  0  0  0  0  0  0  0  0  0  0
   39.1440   28.9553   39.0569 H   0  0  0  0  0  0  0  0  0  0  0  0
   36.2513   32.6469   40.5981 H   0  0  0  0  0  0  0  0  0  0  0  0
   39.4631   27.5430   40.4254 H   0  0  0  0  0  0  0  0  0  0  0  0
   37.8927   27.2145   39.5624 H   0  0  0  0  0  0  0  0  0  0  0  0
   38.4734   26.1463   42.2483 H   0  0  0  0  0  0  0  0  0  0  0  0
   40.2290   24.9992   41.1949 H   0  0  0  0  0  0  0  0  0  0  0  0
   39.5725   25.2182   39.5755 H   0  0  0  0  0  0  0  0  0  0  0  0
   38.5353   23.1434   39.7553 H   0  0  0  0  0  0  0  0  0  0  0  0
   39.1606   22.9515   41.4004 H   0  0  0  0  0  0  0  0  0  0  0  0
   36.4545   23.2542   40.8398 H   0  0  0  0  0  0  0  0  0  0  0  0
   37.1166   23.7741   42.3711 H   0  0  0  0  0  0  0  0  0  0  0  0
   36.1597   25.9035   41.3397 H   0  0  0  0  0  0  0  0  0  0  0  0
   37.4113   25.8498   38.8042 H   0  0  0  0  0  0  0  0  0  0  0  0
   38.6973   27.5513   43.0900 H   0  0  0  0  0  0  0  0  0  0  0  0
   40.6271   27.2424   42.8413 H   0  0  0  0  0  0  0  0  0  0  0  0
   42.9100   28.2474   42.8915 H   0  0  0  0  0  0  0  0  0  0  0  0
   41.0920   32.1056   42.6738 H   0  0  0  0  0  0  0  0  0  0  0  0
   35.6862   27.8219   46.2458 H   0  0  0  0  0  0  0  0  0  0  0  0
   36.6197   29.3273   46.0338 H   0  0  0  0  0  0  0  0  0  0  0  0
  1 16  1  0
  2  7  2  0
  2  3  1  0
  3  4  2  0
  4  5  1  0
  4  1  1  0
  6  5  2  0
  7  6  1  0
  8  9  1  0
  8  1  1  0
 10 11  1  0
 10  9  1  0
 11 12  1  0
 13  9  1  0
 13 12  1  0
 14 13  1  0
 15 14  2  0
 16 17  1  0
 16 23  1  0
 17 18  2  0
 18 19  1  0
 20 19  2  0
 21 20  1  0
 22 21  2  0
 22 17  1  0
 23 24  1  0
 24 25  1  0
 26 24  2  0
  1 27  1  1
  2 28  1  0
  3 29  1  0
  6 30  1  0
  8 31  1  0
  8 32  1  0
  9 33  1  1
 10 34  1  0
 10 35  1  0
 11 36  1  0
 11 37  1  0
 12 38  1  0
 12 39  1  0
 13 40  1  1
 14 41  1  0
 16 42  1  1
 18 43  1  0
 19 44  1  0
 21 45  1  0
 25 46  1  0
 25 47  1  0
M  ISO  8  27   8  28  14  29  14  30  14  31   8  32   8  33  13  34  13
M  ISO  8  35  13  36  13  37  13  38  13  39  13  40  13  41   6  42   8
M  ISO  3  43  14  44  14  45  14
M  END
>  <minimizedAffinity>  (1) 
-4.96345186

>  <minimizedRMSD>  (1) 
0.789908171

$$$$
