
     RDKit          3D

 51 53  0  0  1  0  0  0  0  0999 V2000
   37.6770   28.2940   41.3180 C   0  0  1  0  0  0  0  0  0  0  0  0
   37.8800   30.9000   38.6080 C   0  0  0  0  0  0  0  0  0  0  0  0
   38.0530   29.6840   39.2830 C   0  0  0  0  0  0  0  0  0  0  0  0
   37.4750   29.5370   40.5400 C   0  0  0  0  0  0  0  0  0  0  0  0
   36.7720   30.5980   41.0350 N   0  0  0  0  0  0  0  0  0  0  0  0
   36.6250   31.7440   40.3670 C   0  0  0  0  0  0  0  0  0  0  0  0
   37.1790   31.8950   39.1550 N   0  0  0  0  0  0  0  0  0  0  0  0
   38.1930   27.2170   40.4470 C   0  0  0  0  0  0  0  0  0  0  0  0
   38.3060   25.9320   41.1400 C   0  0  2  0  0  0  0  0  0  0  0  0
   39.3200   25.0250   40.4980 C   0  0  0  0  0  0  0  0  0  0  0  0
   38.7850   23.6160   40.7550 C   0  0  0  0  0  0  0  0  0  0  0  0
   37.4390   23.8000   41.4520 C   0  0  0  0  0  0  0  0  0  0  0  0
   37.0250   25.1760   41.0050 C   0  0  2  0  0  0  0  0  0  0  0  0
   36.5290   25.0600   39.6050 C   0  0  0  0  0  0  0  0  0  0  0  0
   35.6830   24.3810   39.0090 O   0  0  0  0  0  0  0  0  0  0  0  0
   38.5120   28.4960   42.5740 C   0  0  1  0  0  0  0  0  0  0  0  0
   39.6900   29.0710   42.4170 N   0  0  0  0  0  0  0  0  0  0  0  0
   40.9400   28.4480   42.2530 C   0  0  0  0  0  0  0  0  0  0  0  0
   41.9930   29.3710   42.8420 C   0  0  0  0  0  0  0  0  0  0  0  0
   41.2980   30.6650   43.0950 C   0  0  0  0  0  0  0  0  0  0  0  0
   39.9410   30.4620   42.4530 C   0  0  0  0  0  0  0  0  0  0  0  0
   37.6990   28.8420   43.6600 O   0  0  0  0  0  0  0  0  0  0  0  0
   36.7860   28.1010   44.2620 C   0  0  0  0  0  0  0  0  0  0  0  0
   36.4040   28.4760   45.5660 N   0  0  0  0  0  0  0  0  0  0  0  0
   36.3060   27.1240   43.6530 O   0  0  0  0  0  0  0  0  0  0  0  0
   36.6920   27.9785   41.6925 H   0  0  0  0  0  0  0  0  0  0  0  0
   38.3286   31.0362   37.6129 H   0  0  0  0  0  0  0  0  0  0  0  0
   38.6318   28.8656   38.8299 H   0  0  0  0  0  0  0  0  0  0  0  0
   36.0474   32.5676   40.8121 H   0  0  0  0  0  0  0  0  0  0  0  0
   39.1888   27.5077   40.0810 H   0  0  0  0  0  0  0  0  0  0  0  0
   37.4771   27.0866   39.6221 H   0  0  0  0  0  0  0  0  0  0  0  0
   38.5792   26.1746   42.1776 H   0  0  0  0  0  0  0  0  0  0  0  0
   40.3089   25.1566   40.9615 H   0  0  0  0  0  0  0  0  0  0  0  0
   39.4518   25.2349   39.4263 H   0  0  0  0  0  0  0  0  0  0  0  0
   38.6534   23.0775   39.8049 H   0  0  0  0  0  0  0  0  0  0  0  0
   39.4806   23.0258   41.3696 H   0  0  0  0  0  0  0  0  0  0  0  0
   36.7142   23.0406   41.1233 H   0  0  0  0  0  0  0  0  0  0  0  0
   37.4935   23.6925   42.5454 H   0  0  0  0  0  0  0  0  0  0  0  0
   36.2154   25.6680   41.5640 H   0  0  0  0  0  0  0  0  0  0  0  0
   37.0469   25.7554   38.9281 H   0  0  0  0  0  0  0  0  0  0  0  0
   38.9313   27.5237   42.8721 H   0  0  0  0  0  0  0  0  0  0  0  0
   40.9501   27.4825   42.7800 H   0  0  0  0  0  0  0  0  0  0  0  0
   41.1420   28.2607   41.1880 H   0  0  0  0  0  0  0  0  0  0  0  0
   42.3847   28.9556   43.7822 H   0  0  0  0  0  0  0  0  0  0  0  0
   42.8495   29.4958   42.1631 H   0  0  0  0  0  0  0  0  0  0  0  0
   41.1992   30.8550   44.1739 H   0  0  0  0  0  0  0  0  0  0  0  0
   41.8408   31.5319   42.6902 H   0  0  0  0  0  0  0  0  0  0  0  0
   39.9446   30.8693   41.4312 H   0  0  0  0  0  0  0  0  0  0  0  0
   39.1598   30.9812   43.0275 H   0  0  0  0  0  0  0  0  0  0  0  0
   35.6954   27.9268   46.0731 H   0  0  0  0  0  0  0  0  0  0  0  0
   36.8335   29.2992   46.0118 H   0  0  0  0  0  0  0  0  0  0  0  0
  1 16  1  0
  2  7  2  0
  2  3  1  0
  3  4  2  0
  4  5  1  0
  4  1  1  0
  6  5  2  0
  7  6  1  0
  8  9  1  0
  8  1  1  0
 10 11  1  0
 10  9  1  0
 11 12  1  0
 13  9  1  0
 13 12  1  0
 14 13  1  0
 15 14  2  0
 16 22  1  0
 17 21  1  0
 17 16  1  0
 18 17  1  0
 18 19  1  0
 19 20  1  0
 21 20  1  0
 22 23  1  0
 23 24  1  0
 25 23  2  0
  1 26  1  1
  2 27  1  0
  3 28  1  0
  6 29  1  0
  8 30  1  0
  8 31  1  0
  9 32  1  1
 10 33  1  0
 10 34  1  0
 11 35  1  0
 11 36  1  0
 12 37  1  0
 12 38  1  0
 13 39  1  1
 14 40  1  0
 16 41  1  1
 18 42  1  0
 18 43  1  0
 19 44  1  0
 19 45  1  0
 20 46  1  0
 20 47  1  0
 21 48  1  0
 21 49  1  0
 24 50  1  0
 24 51  1  0
M  ISO  8  26   8  27  14  28  14  29  14  30   8  31   8  32  13  33  13
M  ISO  8  34  13  35  13  36  13  37  13  38  13  39  13  40   6  41   8
M  ISO  8  42  13  43  13  44  13  45  13  46  13  47  13  48  13  49  13
M  END
>  <minimizedAffinity>  (1) 
-4.86897135

>  <minimizedRMSD>  (1) 
0.58409369

$$$$
