
     RDKit          3D

 46 48  0  0  1  0  0  0  0  0999 V2000
   37.7500   28.3770   41.3040 C   0  0  1  0  0  0  0  0  0  0  0  0
   38.2890   30.9660   38.6230 C   0  0  0  0  0  0  0  0  0  0  0  0
   38.3960   29.7480   39.3250 C   0  0  0  0  0  0  0  0  0  0  0  0
   37.6540   29.6140   40.4980 C   0  0  0  0  0  0  0  0  0  0  0  0
   36.8820   30.6700   40.8740 N   0  0  0  0  0  0  0  0  0  0  0  0
   36.8040   31.8080   40.1880 C   0  0  0  0  0  0  0  0  0  0  0  0
   37.5150   31.9530   39.0530 N   0  0  0  0  0  0  0  0  0  0  0  0
   38.4010   27.3040   40.5260 C   0  0  0  0  0  0  0  0  0  0  0  0
   38.3110   25.9960   41.1770 C   0  0  2  0  0  0  0  0  0  0  0  0
   39.3030   25.0080   40.6260 C   0  0  0  0  0  0  0  0  0  0  0  0
   38.6130   23.6570   40.7650 C   0  0  0  0  0  0  0  0  0  0  0  0
   37.2150   23.9520   41.3090 C   0  0  0  0  0  0  0  0  0  0  0  0
   36.9870   25.3730   40.8710 C   0  0  2  0  0  0  0  0  0  0  0  0
   36.6530   25.3470   39.4170 C   0  0  0  0  0  0  0  0  0  0  0  0
   35.7590   24.8580   38.7160 O   0  0  0  0  0  0  0  0  0  0  0  0
   38.3920   28.5930   42.6680 C   0  0  1  0  0  0  0  0  0  0  0  0
   39.6150   29.2070   42.6140 C   0  0  0  0  0  0  0  0  0  0  0  0
   39.8700   30.5450   42.7630 C   0  0  0  0  0  0  0  0  0  0  0  0
   41.2370   30.8220   42.6490 C   0  0  0  0  0  0  0  0  0  0  0  0
   41.7820   29.6090   42.4280 N   0  0  0  0  0  0  0  0  0  0  0  0
   40.8550   28.6910   42.4090 N   0  0  0  0  0  0  0  0  0  0  0  0
   37.4320   28.9200   43.6320 O   0  0  0  0  0  0  0  0  0  0  0  0
   36.6480   28.0890   44.3060 C   0  0  0  0  0  0  0  0  0  0  0  0
   36.3250   28.4350   45.6320 N   0  0  0  0  0  0  0  0  0  0  0  0
   36.2290   27.0590   43.7420 O   0  0  0  0  0  0  0  0  0  0  0  0
   36.7233   28.0536   41.5306 H   0  0  0  0  0  0  0  0  0  0  0  0
   38.8627   31.1010   37.6942 H   0  0  0  0  0  0  0  0  0  0  0  0
   39.0404   28.9342   38.9611 H   0  0  0  0  0  0  0  0  0  0  0  0
   36.1620   32.6262   40.5462 H   0  0  0  0  0  0  0  0  0  0  0  0
   39.4630   27.5593   40.3957 H   0  0  0  0  0  0  0  0  0  0  0  0
   37.8774   27.2303   39.5614 H   0  0  0  0  0  0  0  0  0  0  0  0
   38.4846   26.1854   42.2466 H   0  0  0  0  0  0  0  0  0  0  0  0
   40.2367   25.0293   41.2071 H   0  0  0  0  0  0  0  0  0  0  0  0
   39.5811   25.2306   39.5853 H   0  0  0  0  0  0  0  0  0  0  0  0
   38.5452   23.1599   39.7861 H   0  0  0  0  0  0  0  0  0  0  0  0
   39.1722   22.9858   41.4335 H   0  0  0  0  0  0  0  0  0  0  0  0
   36.4668   23.2759   40.8695 H   0  0  0  0  0  0  0  0  0  0  0  0
   37.1291   23.8097   42.3964 H   0  0  0  0  0  0  0  0  0  0  0  0
   36.1661   25.9233   41.3540 H   0  0  0  0  0  0  0  0  0  0  0  0
   37.3877   25.9035   38.8166 H   0  0  0  0  0  0  0  0  0  0  0  0
   38.7661   27.6516   43.0969 H   0  0  0  0  0  0  0  0  0  0  0  0
   39.0974   31.3057   42.9488 H   0  0  0  0  0  0  0  0  0  0  0  0
   41.7446   31.7952   42.7221 H   0  0  0  0  0  0  0  0  0  0  0  0
   42.7877   29.4320   42.2932 H   0  0  0  0  0  0  0  0  0  0  0  0
   35.7191   27.8185   46.1921 H   0  0  0  0  0  0  0  0  0  0  0  0
   36.6946   29.3046   46.0420 H   0  0  0  0  0  0  0  0  0  0  0  0
  1 16  1  0
  2  7  2  0
  2  3  1  0
  3  4  2  0
  4  5  1  0
  4  1  1  0
  6  5  2  0
  7  6  1  0
  8  9  1  0
  8  1  1  0
 10 11  1  0
 10  9  1  0
 11 12  1  0
 13  9  1  0
 13 12  1  0
 14 13  1  0
 15 14  2  0
 16 22  1  0
 17 16  1  0
 17 18  1  0
 19 18  2  0
 20 19  1  0
 21 20  1  0
 21 17  2  0
 22 23  1  0
 23 24  1  0
 25 23  2  0
  1 26  1  1
  2 27  1  0
  3 28  1  0
  6 29  1  0
  8 30  1  0
  8 31  1  0
  9 32  1  1
 10 33  1  0
 10 34  1  0
 11 35  1  0
 11 36  1  0
 12 37  1  0
 12 38  1  0
 13 39  1  1
 14 40  1  0
 16 41  1  1
 18 42  1  0
 19 43  1  0
 20 44  1  0
 24 45  1  0
 24 46  1  0
M  ISO  8  26   8  27  14  28  14  29  14  30   8  31   8  32  13  33  13
M  ISO  8  34  13  35  13  36  13  37  13  38  13  39  13  40   6  41   8
M  ISO  3  42  14  43  14  44   9
M  END
>  <minimizedAffinity>  (1) 
-4.84055662

>  <minimizedRMSD>  (1) 
0.679969251

$$$$
