
     RDKit          3D

 45 47  0  0  1  0  0  0  0  0999 V2000
   37.7170   28.3650   41.3030 C   0  0  1  0  0  0  0  0  0  0  0  0
   38.3340   31.0000   38.6860 C   0  0  0  0  0  0  0  0  0  0  0  0
   38.3890   29.7650   39.3540 C   0  0  0  0  0  0  0  0  0  0  0  0
   37.6520   29.6240   40.5260 C   0  0  0  0  0  0  0  0  0  0  0  0
   36.9260   30.7000   40.9440 N   0  0  0  0  0  0  0  0  0  0  0  0
   36.8960   31.8580   40.2840 C   0  0  0  0  0  0  0  0  0  0  0  0
   37.6040   32.0060   39.1520 N   0  0  0  0  0  0  0  0  0  0  0  0
   38.3990   27.3100   40.5210 C   0  0  0  0  0  0  0  0  0  0  0  0
   38.3130   25.9890   41.1460 C   0  0  2  0  0  0  0  0  0  0  0  0
   39.2900   25.0130   40.5530 C   0  0  0  0  0  0  0  0  0  0  0  0
   38.6000   23.6590   40.6820 C   0  0  0  0  0  0  0  0  0  0  0  0
   37.2100   23.9480   41.2530 C   0  0  0  0  0  0  0  0  0  0  0  0
   36.9820   25.3780   40.8450 C   0  0  2  0  0  0  0  0  0  0  0  0
   36.6220   25.3790   39.4010 C   0  0  0  0  0  0  0  0  0  0  0  0
   35.7320   24.8760   38.7010 O   0  0  0  0  0  0  0  0  0  0  0  0
   38.3450   28.5520   42.6830 C   0  0  1  0  0  0  0  0  0  0  0  0
   39.5870   29.1460   42.6810 C   0  0  0  0  0  0  0  0  0  0  0  0
   40.7050   28.2860   42.8730 C   0  0  0  0  0  0  0  0  0  0  0  0
   42.1410   29.3570   42.8190 S   0  0  0  0  0  0  0  0  0  0  0  0
   41.0150   30.8610   42.5390 C   0  0  0  0  0  0  0  0  0  0  0  0
   40.0010   30.3810   42.5380 N   0  0  0  0  0  0  0  0  0  0  0  0
   37.3710   28.8660   43.6320 O   0  0  0  0  0  0  0  0  0  0  0  0
   36.6200   28.0330   44.3380 C   0  0  0  0  0  0  0  0  0  0  0  0
   36.2800   28.4170   45.6500 N   0  0  0  0  0  0  0  0  0  0  0  0
   36.2470   26.9660   43.8100 O   0  0  0  0  0  0  0  0  0  0  0  0
   36.6827   28.0407   41.4901 H   0  0  0  0  0  0  0  0  0  0  0  0
   38.9079   31.1360   37.7575 H   0  0  0  0  0  0  0  0  0  0  0  0
   38.9959   28.9352   38.9626 H   0  0  0  0  0  0  0  0  0  0  0  0
   36.2909   32.6931   40.6668 H   0  0  0  0  0  0  0  0  0  0  0  0
   39.4602   27.5807   40.4180 H   0  0  0  0  0  0  0  0  0  0  0  0
   37.8951   27.2459   39.5453 H   0  0  0  0  0  0  0  0  0  0  0  0
   38.5030   26.1520   42.2171 H   0  0  0  0  0  0  0  0  0  0  0  0
   40.2371   25.0220   41.1124 H   0  0  0  0  0  0  0  0  0  0  0  0
   39.5448   25.2559   39.5109 H   0  0  0  0  0  0  0  0  0  0  0  0
   38.5161   23.1772   39.6967 H   0  0  0  0  0  0  0  0  0  0  0  0
   39.1687   22.9766   41.3308 H   0  0  0  0  0  0  0  0  0  0  0  0
   36.4528   23.2831   40.8119 H   0  0  0  0  0  0  0  0  0  0  0  0
   37.1389   23.7848   42.3385 H   0  0  0  0  0  0  0  0  0  0  0  0
   36.1722   25.9259   41.3490 H   0  0  0  0  0  0  0  0  0  0  0  0
   37.3244   25.9786   38.8034 H   0  0  0  0  0  0  0  0  0  0  0  0
   38.7148   27.5972   43.0850 H   0  0  0  0  0  0  0  0  0  0  0  0
   40.6906   27.1963   43.0226 H   0  0  0  0  0  0  0  0  0  0  0  0
   41.2850   31.9197   42.4118 H   0  0  0  0  0  0  0  0  0  0  0  0
   35.6979   27.7988   46.2330 H   0  0  0  0  0  0  0  0  0  0  0  0
   36.6135   29.3159   46.0263 H   0  0  0  0  0  0  0  0  0  0  0  0
  1 16  1  0
  2  7  2  0
  2  3  1  0
  3  4  2  0
  4  5  1  0
  4  1  1  0
  6  5  2  0
  7  6  1  0
  8  9  1  0
  8  1  1  0
 10 11  1  0
 10  9  1  0
 11 12  1  0
 13  9  1  0
 13 12  1  0
 14 13  1  0
 15 14  2  0
 16 22  1  0
 17 16  1  0
 17 18  2  0
 19 18  1  0
 20 19  1  0
 21 20  2  0
 21 17  1  0
 22 23  1  0
 23 24  1  0
 25 23  2  0
  1 26  1  1
  2 27  1  0
  3 28  1  0
  6 29  1  0
  8 30  1  0
  8 31  1  0
  9 32  1  1
 10 33  1  0
 10 34  1  0
 11 35  1  0
 11 36  1  0
 12 37  1  0
 12 38  1  0
 13 39  1  1
 14 40  1  0
 16 41  1  1
 18 42  1  0
 20 43  1  0
 24 44  1  0
 24 45  1  0
M  ISO  8  26   8  27  14  28  14  29  14  30   8  31   8  32  13  33  13
M  ISO  8  34  13  35  13  36  13  37  13  38  13  39  13  40   6  41   8
M  ISO  2  42  14  43  14
M  END
>  <minimizedAffinity>  (1) 
-4.79082394

>  <minimizedRMSD>  (1) 
0.74768883

$$$$
