
     RDKit          3D

 46 48  0  0  1  0  0  0  0  0999 V2000
   37.6750   28.3740   41.2910 C   0  0  1  0  0  0  0  0  0  0  0  0
   38.1040   30.9480   38.5770 C   0  0  0  0  0  0  0  0  0  0  0  0
   38.1580   29.7200   39.2510 C   0  0  0  0  0  0  0  0  0  0  0  0
   37.5970   29.6330   40.5170 C   0  0  0  0  0  0  0  0  0  0  0  0
   37.0210   30.7590   41.0220 N   0  0  0  0  0  0  0  0  0  0  0  0
   36.9750   31.9210   40.3730 C   0  0  0  0  0  0  0  0  0  0  0  0
   37.5220   32.0120   39.1390 N   0  0  0  0  0  0  0  0  0  0  0  0
   38.3160   27.3130   40.4820 C   0  0  0  0  0  0  0  0  0  0  0  0
   38.2830   26.0030   41.1310 C   0  0  2  0  0  0  0  0  0  0  0  0
   39.2880   25.0470   40.5460 C   0  0  0  0  0  0  0  0  0  0  0  0
   38.6470   23.6730   40.7090 C   0  0  0  0  0  0  0  0  0  0  0  0
   37.2550   23.9250   41.2900 C   0  0  0  0  0  0  0  0  0  0  0  0
   36.9700   25.3380   40.8570 C   0  0  2  0  0  0  0  0  0  0  0  0
   36.5980   25.2990   39.4150 C   0  0  0  0  0  0  0  0  0  0  0  0
   35.7180   24.7590   38.7330 O   0  0  0  0  0  0  0  0  0  0  0  0
   38.3240   28.5380   42.6560 C   0  0  1  0  0  0  0  0  0  0  0  0
   39.5700   29.1130   42.6800 C   0  0  0  0  0  0  0  0  0  0  0  0
   40.7920   28.4840   42.8240 C   0  0  0  0  0  0  0  0  0  0  0  0
   41.8260   29.3650   42.8080 N   0  0  0  0  0  0  0  0  0  0  0  0
   41.2850   30.5920   42.6520 C   0  0  0  0  0  0  0  0  0  0  0  0
   39.9540   30.4220   42.5790 N   0  0  0  0  0  0  0  0  0  0  0  0
   37.3710   28.8580   43.6270 O   0  0  0  0  0  0  0  0  0  0  0  0
   36.6210   28.0240   44.3320 C   0  0  0  0  0  0  0  0  0  0  0  0
   36.2770   28.4080   45.6430 N   0  0  0  0  0  0  0  0  0  0  0  0
   36.2510   26.9510   43.8060 O   0  0  0  0  0  0  0  0  0  0  0  0
   36.6425   28.0647   41.5106 H   0  0  0  0  0  0  0  0  0  0  0  0
   38.5459   31.0370   37.5736 H   0  0  0  0  0  0  0  0  0  0  0  0
   38.6348   28.8444   38.7863 H   0  0  0  0  0  0  0  0  0  0  0  0
   36.4974   32.7974   40.8353 H   0  0  0  0  0  0  0  0  0  0  0  0
   39.3657   27.5913   40.3068 H   0  0  0  0  0  0  0  0  0  0  0  0
   37.7517   27.2293   39.5415 H   0  0  0  0  0  0  0  0  0  0  0  0
   38.4790   26.1954   42.1962 H   0  0  0  0  0  0  0  0  0  0  0  0
   40.2399   25.0996   41.0947 H   0  0  0  0  0  0  0  0  0  0  0  0
   39.5229   25.2773   39.4964 H   0  0  0  0  0  0  0  0  0  0  0  0
   38.5691   23.1693   39.7342 H   0  0  0  0  0  0  0  0  0  0  0  0
   39.2461   23.0235   41.3641 H   0  0  0  0  0  0  0  0  0  0  0  0
   36.5171   23.2248   40.8713 H   0  0  0  0  0  0  0  0  0  0  0  0
   37.2029   23.7821   42.3794 H   0  0  0  0  0  0  0  0  0  0  0  0
   36.1449   25.8642   41.3594 H   0  0  0  0  0  0  0  0  0  0  0  0
   37.2794   25.9047   38.7995 H   0  0  0  0  0  0  0  0  0  0  0  0
   38.6891   27.5567   42.9933 H   0  0  0  0  0  0  0  0  0  0  0  0
   40.9133   27.3967   42.9383 H   0  0  0  0  0  0  0  0  0  0  0  0
   41.8287   31.5466   42.5955 H   0  0  0  0  0  0  0  0  0  0  0  0
   39.2894   31.1997   42.4590 H   0  0  0  0  0  0  0  0  0  0  0  0
   35.6953   27.7886   46.2252 H   0  0  0  0  0  0  0  0  0  0  0  0
   36.6072   29.3081   46.0194 H   0  0  0  0  0  0  0  0  0  0  0  0
  1 16  1  0
  2  7  2  0
  2  3  1  0
  3  4  2  0
  4  5  1  0
  4  1  1  0
  6  5  2  0
  7  6  1  0
  8  9  1  0
  8  1  1  0
 10 11  1  0
 10  9  1  0
 11 12  1  0
 13  9  1  0
 13 12  1  0
 14 13  1  0
 15 14  2  0
 16 17  1  0
 16 22  1  0
 17 18  2  0
 19 18  1  0
 20 19  2  0
 21 20  1  0
 21 17  1  0
 22 23  1  0
 23 24  1  0
 25 23  2  0
  1 26  1  1
  2 27  1  0
  3 28  1  0
  6 29  1  0
  8 30  1  0
  8 31  1  0
  9 32  1  1
 10 33  1  0
 10 34  1  0
 11 35  1  0
 11 36  1  0
 12 37  1  0
 12 38  1  0
 13 39  1  1
 14 40  1  0
 16 41  1  1
 18 42  1  0
 20 43  1  0
 21 44  1  0
 24 45  1  0
 24 46  1  0
M  ISO  8  26   8  27  14  28  14  29  14  30   8  31   8  32  13  33  13
M  ISO  8  34  13  35  13  36  13  37  13  38  13  39  13  40   6  41   8
M  ISO  3  42  14  43  14  44   9
M  END
>  <minimizedAffinity>  (1) 
-4.78129721

>  <minimizedRMSD>  (1) 
0.584363341

$$$$
