
     RDKit          3D

 40 41  0  0  1  0  0  0  0  0999 V2000
   37.4540   28.3000   41.2770 C   0  0  1  0  0  0  0  0  0  0  0  0
   36.8560   30.7520   38.4840 C   0  0  0  0  0  0  0  0  0  0  0  0
   36.9840   29.5250   39.1570 C   0  0  0  0  0  0  0  0  0  0  0  0
   37.2390   29.5590   40.5290 C   0  0  0  0  0  0  0  0  0  0  0  0
   37.3440   30.7830   41.1160 N   0  0  0  0  0  0  0  0  0  0  0  0
   37.2180   31.9290   40.4520 C   0  0  0  0  0  0  0  0  0  0  0  0
   36.9740   31.9140   39.1310 N   0  0  0  0  0  0  0  0  0  0  0  0
   38.0070   27.2560   40.3880 C   0  0  0  0  0  0  0  0  0  0  0  0
   38.2080   25.9750   41.0740 C   0  0  2  0  0  0  0  0  0  0  0  0
   39.2550   25.1290   40.4050 C   0  0  0  0  0  0  0  0  0  0  0  0
   38.8100   23.6920   40.6670 C   0  0  0  0  0  0  0  0  0  0  0  0
   37.4660   23.7960   41.3920 C   0  0  0  0  0  0  0  0  0  0  0  0
   36.9670   25.1490   40.9600 C   0  0  2  0  0  0  0  0  0  0  0  0
   36.4480   25.0140   39.5720 C   0  0  0  0  0  0  0  0  0  0  0  0
   35.6140   24.3030   38.9920 O   0  0  0  0  0  0  0  0  0  0  0  0
   38.2950   28.4880   42.5420 C   0  0  1  0  0  0  0  0  0  0  0  0
   39.4230   29.0450   42.3840 O   0  0  0  0  0  0  0  0  0  0  0  0
   37.4830   28.8240   43.6280 O   0  0  0  0  0  0  0  0  0  0  0  0
   36.6730   28.0310   44.3120 C   0  0  0  0  0  0  0  0  0  0  0  0
   36.3100   28.4410   45.6090 N   0  0  0  0  0  0  0  0  0  0  0  0
   36.2670   26.9720   43.7820 O   0  0  0  0  0  0  0  0  0  0  0  0
   36.4692   27.9617   41.6316 H   0  0  0  0  0  0  0  0  0  0  0  0
   36.6546   30.7552   37.4026 H   0  0  0  0  0  0  0  0  0  0  0  0
   36.8865   28.5696   38.6205 H   0  0  0  0  0  0  0  0  0  0  0  0
   37.3135   32.8872   40.9838 H   0  0  0  0  0  0  0  0  0  0  0  0
   38.9758   27.6024   39.9989 H   0  0  0  0  0  0  0  0  0  0  0  0
   37.2796   27.0890   39.5799 H   0  0  0  0  0  0  0  0  0  0  0  0
   38.4905   26.2277   42.1066 H   0  0  0  0  0  0  0  0  0  0  0  0
   40.2455   25.3157   40.8454 H   0  0  0  0  0  0  0  0  0  0  0  0
   39.3474   25.3491   39.3312 H   0  0  0  0  0  0  0  0  0  0  0  0
   38.6920   23.1487   39.7179 H   0  0  0  0  0  0  0  0  0  0  0  0
   39.5510   23.1420   41.2657 H   0  0  0  0  0  0  0  0  0  0  0  0
   36.7792   22.9983   41.0726 H   0  0  0  0  0  0  0  0  0  0  0  0
   37.5468   23.6863   42.4835 H   0  0  0  0  0  0  0  0  0  0  0  0
   36.1426   25.5923   41.5378 H   0  0  0  0  0  0  0  0  0  0  0  0
   36.9265   25.7273   38.8848 H   0  0  0  0  0  0  0  0  0  0  0  0
   38.7150   27.5174   42.8447 H   0  0  0  0  0  0  0  0  0  0  0  0
   39.8209   29.2415   43.2690 H   0  0  0  0  0  0  0  0  0  0  0  0
   35.6818   27.8552   46.1774 H   0  0  0  0  0  0  0  0  0  0  0  0
   36.6727   29.3268   45.9895 H   0  0  0  0  0  0  0  0  0  0  0  0
  1 16  1  0
  2  7  2  0
  2  3  1  0
  3  4  2  0
  4  5  1  0
  4  1  1  0
  6  5  2  0
  7  6  1  0
  8  9  1  0
  8  1  1  0
 10 11  1  0
 10  9  1  0
 11 12  1  0
 13  9  1  0
 13 12  1  0
 14 13  1  0
 15 14  2  0
 16 18  1  0
 17 16  1  0
 18 19  1  0
 19 20  1  0
 21 19  2  0
  1 22  1  1
  2 23  1  0
  3 24  1  0
  6 25  1  0
  8 26  1  0
  8 27  1  0
  9 28  1  1
 10 29  1  0
 10 30  1  0
 11 31  1  0
 11 32  1  0
 12 33  1  0
 12 34  1  0
 13 35  1  1
 14 36  1  0
 16 37  1  1
 17 38  1  0
 20 39  1  0
 20 40  1  0
M  ISO  8  22   8  23  14  24  14  25  14  26   8  27   8  28  13  29  13
M  ISO  8  30  13  31  13  32  13  33  13  34  13  35  13  36   6  37   8
M  ISO  1  38   3
M  END
>  <minimizedAffinity>  (1) 
-4.54708815

>  <minimizedRMSD>  (1) 
0.0760563165

$$$$
