
     RDKit          3D

 26 29  0  0  0  0  0  0  0  0999 V2000
   39.0810   32.0770   40.3150 C   0  0  0  0  0  0  0  0  0  0  0  0
   37.7200   32.2100   40.3300 N   0  0  0  0  0  0  0  0  0  0  0  0
   37.2300   31.2350   41.0680 O   0  0  0  0  0  0  0  0  0  0  0  0
   38.2020   30.4830   41.5280 C   0  0  0  0  0  0  0  0  0  0  0  0
   39.3760   30.9900   41.0700 N   0  0  0  0  0  0  0  0  0  0  0  0
   38.1610   29.3280   42.3600 N   0  0  0  0  0  0  0  0  0  0  0  0
   37.1030   28.7350   42.9630 C   0  0  0  0  0  0  0  0  0  0  0  0
   37.5110   27.6510   43.6670 N   0  0  0  0  0  0  0  0  0  0  0  0
   38.8500   27.5850   43.4860 C   0  0  0  0  0  0  0  0  0  0  0  0
   39.8290   26.7150   43.9410 C   0  0  0  0  0  0  0  0  0  0  0  0
   41.1310   26.8180   43.6460 N   0  0  0  0  0  0  0  0  0  0  0  0
   41.5010   27.8560   42.8410 C   0  0  0  0  0  0  0  0  0  0  0  0
   40.5670   28.7350   42.3730 N   0  0  0  0  0  0  0  0  0  0  0  0
   39.2730   28.6290   42.6690 C   0  0  0  0  0  0  0  0  0  0  0  0
   40.6250   32.6120   38.3710 C   0  0  0  0  0  0  0  0  0  0  0  0
   40.0650   32.9190   39.6310 C   0  0  0  0  0  0  0  0  0  0  0  0
   40.4550   34.0790   40.2780 C   0  0  0  0  0  0  0  0  0  0  0  0
   41.3780   34.8900   39.6630 N   0  0  0  0  0  0  0  0  0  0  0  0
   41.8950   34.5680   38.4560 C   0  0  0  0  0  0  0  0  0  0  0  0
   41.5160   33.4260   37.8110 N   0  0  0  0  0  0  0  0  0  0  0  0
   36.0620   29.0832   42.8916 H   0  0  0  0  0  0  0  0  0  0  0  0
   39.5146   25.8833   44.5886 H   0  0  0  0  0  0  0  0  0  0  0  0
   42.5586   27.9853   42.5674 H   0  0  0  0  0  0  0  0  0  0  0  0
   40.3220   31.6926   37.8487 H   0  0  0  0  0  0  0  0  0  0  0  0
   40.0364   34.3448   41.2599 H   0  0  0  0  0  0  0  0  0  0  0  0
   42.6321   35.2362   37.9866 H   0  0  0  0  0  0  0  0  0  0  0  0
  1  2  2  0
  1  5  1  0
  2  3  1  0
  3  4  1  0
  4  6  1  0
  5  4  2  0
  6 14  1  0
  6  7  1  0
  7  8  2  0
  9  8  1  0
  9 10  2  0
 11 10  1  0
 12 11  2  0
 13 14  2  0
 13 12  1  0
 14  9  1  0
 15 16  2  0
 16 17  1  0
 16  1  1  0
 18 17  2  0
 19 18  1  0
 20 15  1  0
 20 19  2  0
  7 21  1  0
 10 22  1  0
 12 23  1  0
 15 24  1  0
 17 25  1  0
 19 26  1  0
M  ISO  6  21  14  22  14  23  14  24  14  25  14  26  14
M  END
>  <minimizedAffinity>  (1) 
-5.21139431

>  <minimizedRMSD>  (1) 
5.67240953

$$$$
