
     RDKit          3D

 29 32  0  0  0  0  0  0  0  0999 V2000
   39.3150   27.3690   43.1130 C   0  0  0  0  0  0  0  0  0  0  0  0
   39.2580   26.0440   43.3680 N   0  0  0  0  0  0  0  0  0  0  0  0
   40.3880   25.7020   43.9770 O   0  0  0  0  0  0  0  0  0  0  0  0
   41.1690   26.7330   44.1270 C   0  0  0  0  0  0  0  0  0  0  0  0
   40.4970   27.7790   43.5850 N   0  0  0  0  0  0  0  0  0  0  0  0
   42.4530   26.7970   44.7210 N   0  0  0  0  0  0  0  0  0  0  0  0
   42.7580   27.3260   45.9070 C   0  0  0  0  0  0  0  0  0  0  0  0
   44.0850   27.2120   46.1530 N   0  0  0  0  0  0  0  0  0  0  0  0
   44.6190   26.5910   45.0770 C   0  0  0  0  0  0  0  0  0  0  0  0
   45.9270   26.2530   44.8600 C   0  0  0  0  0  0  0  0  0  0  0  0
   46.8160   26.5150   45.7140 O   0  0  0  0  0  0  0  0  0  0  0  0
   46.2190   25.6330   43.7020 N   0  0  0  0  0  0  0  0  0  0  0  0
   45.2310   25.3750   42.8200 C   0  0  0  0  0  0  0  0  0  0  0  0
   45.6790   24.7140   41.6320 N   0  0  0  0  0  0  0  0  0  0  0  0
   43.9380   25.7150   43.0470 N   0  0  0  0  0  0  0  0  0  0  0  0
   43.5950   26.3340   44.1860 C   0  0  0  0  0  0  0  0  0  0  0  0
   38.4990   29.5770   42.1680 C   0  0  0  0  0  0  0  0  0  0  0  0
   38.3340   28.2180   42.4670 C   0  0  0  0  0  0  0  0  0  0  0  0
   37.1200   27.6260   42.1120 C   0  0  0  0  0  0  0  0  0  0  0  0
   36.1620   28.3900   41.4990 N   0  0  0  0  0  0  0  0  0  0  0  0
   36.3670   29.6950   41.2330 C   0  0  0  0  0  0  0  0  0  0  0  0
   37.5340   30.2760   41.5700 N   0  0  0  0  0  0  0  0  0  0  0  0
   42.0322   27.7905   46.5906 H   0  0  0  0  0  0  0  0  0  0  0  0
   47.1887   25.3576   43.4906 H   0  0  0  0  0  0  0  0  0  0  0  0
   46.6757   24.4812   41.5169 H   0  0  0  0  0  0  0  0  0  0  0  0
   45.0046   24.4712   40.8923 H   0  0  0  0  0  0  0  0  0  0  0  0
   39.4428   30.0767   42.4317 H   0  0  0  0  0  0  0  0  0  0  0  0
   36.9356   26.5620   42.3214 H   0  0  0  0  0  0  0  0  0  0  0  0
   35.5807   30.2858   40.7404 H   0  0  0  0  0  0  0  0  0  0  0  0
  1  2  2  0
  1  5  1  0
  2  3  1  0
  3  4  1  0
  4  6  1  0
  5  4  2  0
  6  7  1  0
  7  8  2  0
  9  8  1  0
 10  9  1  0
 10 11  2  0
 12 10  1  0
 13 15  2  0
 13 12  1  0
 14 13  1  0
 15 16  1  0
 16  6  1  0
 16  9  2  0
 17 18  2  0
 18  1  1  0
 19 18  1  0
 20 19  2  0
 21 20  1  0
 21 22  2  0
 22 17  1  0
  7 23  1  0
 12 24  1  0
 14 25  1  0
 14 26  1  0
 17 27  1  0
 19 28  1  0
 21 29  1  0
M  ISO  5  23  14  24   9  27  14  28  14  29  14
M  END
>  <minimizedAffinity>  (1) 
-5.20928335

>  <minimizedRMSD>  (1) 
1.12132406

$$$$
