
     RDKit          3D

 44 47  0  0  1  0  0  0  0  0999 V2000
   39.2420   25.8070   42.0970 C   0  0  1  0  0  0  0  0  0  0  0  0
   39.1650   24.4050   41.4160 C   0  0  0  0  0  0  0  0  0  0  0  0
   37.8290   23.8770   41.7000 C   0  0  0  0  0  0  0  0  0  0  0  0
   37.0020   25.1450   42.0410 C   0  0  0  0  0  0  0  0  0  0  0  0
   37.9540   25.9150   42.7660 C   0  0  2  0  0  0  0  0  0  0  0  0
   41.7510   26.9430   44.6300 C   0  0  0  0  0  0  0  0  0  0  0  0
   40.5530   26.8380   43.9250 C   0  0  0  0  0  0  0  0  0  0  0  0
   40.4470   25.9480   42.8570 C   0  0  0  0  0  0  0  0  0  0  0  0
   41.5330   25.1920   42.5300 N   0  0  0  0  0  0  0  0  0  0  0  0
   42.6890   25.2930   43.2140 C   0  0  0  0  0  0  0  0  0  0  0  0
   42.8070   26.1570   44.2540 N   0  0  0  0  0  0  0  0  0  0  0  0
   37.3970   27.3020   42.8730 C   0  0  2  0  0  0  0  0  0  0  0  0
   36.3080   27.5020   43.8550 C   0  0  0  0  0  0  0  0  0  0  0  0
   36.9940   27.6310   41.5240 C   0  0  0  0  0  0  0  0  0  0  0  0
   36.9460   29.0390   41.3560 N   0  0  0  0  0  0  0  0  0  0  0  0
   35.8980   29.7920   40.9370 C   0  0  0  0  0  0  0  0  0  0  0  0
   36.3280   31.0850   40.7560 C   0  0  0  0  0  0  0  0  0  0  0  0
   37.6310   31.0560   41.0800 N   0  0  0  0  0  0  0  0  0  0  0  0
   38.0220   29.8140   41.4500 C   0  0  0  0  0  0  0  0  0  0  0  0
   39.4130   29.9100   41.7730 C   0  0  0  0  0  0  0  0  0  0  0  0
   40.5210   29.2710   41.3540 N   0  0  0  0  0  0  0  0  0  0  0  0
   41.5820   29.7360   41.9390 O   0  0  0  0  0  0  0  0  0  0  0  0
   41.2620   30.6970   42.7700 C   0  0  0  0  0  0  0  0  0  0  0  0
   39.9270   30.8080   42.6730 N   0  0  0  0  0  0  0  0  0  0  0  0
   39.3530   26.6768   41.4328 H   0  0  0  0  0  0  0  0  0  0  0  0
   39.9337   23.7376   41.8326 H   0  0  0  0  0  0  0  0  0  0  0  0
   39.3412   24.4790   40.3327 H   0  0  0  0  0  0  0  0  0  0  0  0
   37.4147   23.3624   40.8205 H   0  0  0  0  0  0  0  0  0  0  0  0
   37.8261   23.1334   42.5106 H   0  0  0  0  0  0  0  0  0  0  0  0
   36.6719   25.6668   41.1307 H   0  0  0  0  0  0  0  0  0  0  0  0
   36.0737   24.9408   42.5946 H   0  0  0  0  0  0  0  0  0  0  0  0
   38.1320   25.5604   43.7920 H   0  0  0  0  0  0  0  0  0  0  0  0
   41.8461   27.6440   45.4723 H   0  0  0  0  0  0  0  0  0  0  0  0
   39.6906   27.4578   44.2115 H   0  0  0  0  0  0  0  0  0  0  0  0
   43.5473   24.6680   42.9264 H   0  0  0  0  0  0  0  0  0  0  0  0
   38.1657   27.9751   43.2806 H   0  0  0  0  0  0  0  0  0  0  0  0
   36.7150   27.4272   44.8742 H   0  0  0  0  0  0  0  0  0  0  0  0
   35.8620   28.4971   43.7104 H   0  0  0  0  0  0  0  0  0  0  0  0
   35.5375   26.7303   43.7104 H   0  0  0  0  0  0  0  0  0  0  0  0
   37.7185   27.2050   40.8143 H   0  0  0  0  0  0  0  0  0  0  0  0
   35.9939   27.2131   41.3364 H   0  0  0  0  0  0  0  0  0  0  0  0
   34.8735   29.4279   40.7698 H   0  0  0  0  0  0  0  0  0  0  0  0
   35.7370   31.9500   40.4207 H   0  0  0  0  0  0  0  0  0  0  0  0
   41.9388   31.2845   43.4078 H   0  0  0  0  0  0  0  0  0  0  0  0
  1  5  1  0
  1  8  1  0
  2  3  1  0
  2  1  1  0
  3  4  1  0
  4  5  1  0
  5 12  1  0
  7  6  2  0
  8  7  1  0
  9  8  2  0
  9 10  1  0
 10 11  2  0
 11  6  1  0
 12 13  1  0
 14 12  1  0
 15 19  1  0
 15 14  1  0
 16 15  1  0
 17 16  2  0
 17 18  1  0
 18 19  2  0
 19 20  1  0
 20 24  1  0
 21 20  2  0
 21 22  1  0
 22 23  1  0
 24 23  2  0
  1 25  1  6
  2 26  1  0
  2 27  1  0
  3 28  1  0
  3 29  1  0
  4 30  1  0
  4 31  1  0
  5 32  1  1
  6 33  1  0
  7 34  1  0
 10 35  1  0
 12 36  1  1
 13 37  1  0
 13 38  1  0
 13 39  1  0
 14 40  1  0
 14 41  1  0
 16 42  1  0
 17 43  1  0
 23 44  1  0
M  ISO  8  25  13  26  13  27  13  28  13  29  13  30  13  31  13  32  13
M  ISO  8  33  14  34  14  35  14  36   8  37   8  38   8  39   8  40   8
M  ISO  4  41   8  42  14  43  14  44  14
M  END
>  <minimizedAffinity>  (1) 
-5.57429457

>  <minimizedRMSD>  (1) 
0.517721117

$$$$
