
     RDKit          3D

 22 24  0  0  0  0  0  0  0  0999 V2000
   38.4130   31.6240   40.1620 C   0  0  0  0  0  0  0  0  0  0  0  0
   37.0950   31.9240   40.2240 N   0  0  0  0  0  0  0  0  0  0  0  0
   36.5150   31.0910   41.0570 O   0  0  0  0  0  0  0  0  0  0  0  0
   37.4000   30.2500   41.5480 C   0  0  0  0  0  0  0  0  0  0  0  0
   38.5890   30.5840   40.9890 N   0  0  0  0  0  0  0  0  0  0  0  0
   39.8990   31.8380   38.1320 C   0  0  0  0  0  0  0  0  0  0  0  0
   39.4480   32.2680   39.3810 C   0  0  0  0  0  0  0  0  0  0  0  0
   40.0450   33.4010   39.9080 C   0  0  0  0  0  0  0  0  0  0  0  0
   41.0270   34.0330   39.1950 N   0  0  0  0  0  0  0  0  0  0  0  0
   41.4290   33.5820   37.9920 C   0  0  0  0  0  0  0  0  0  0  0  0
   40.8560   32.4740   37.4620 N   0  0  0  0  0  0  0  0  0  0  0  0
   37.1330   29.1940   42.4920 C   0  0  0  0  0  0  0  0  0  0  0  0
   36.6450   27.9540   42.2270 C   0  0  0  0  0  0  0  0  0  0  0  0
   36.5140   27.2120   43.3360 N   0  0  0  0  0  0  0  0  0  0  0  0
   36.9320   28.0050   44.3510 C   0  0  0  0  0  0  0  0  0  0  0  0
   37.3030   29.2040   43.8200 N   0  0  0  0  0  0  0  0  0  0  0  0
   39.4464   30.9403   37.6855 H   0  0  0  0  0  0  0  0  0  0  0  0
   39.7331   33.7886   40.8891 H   0  0  0  0  0  0  0  0  0  0  0  0
   42.2202   34.1112   37.4408 H   0  0  0  0  0  0  0  0  0  0  0  0
   36.3870   27.5995   41.2182 H   0  0  0  0  0  0  0  0  0  0  0  0
   36.9661   27.7301   45.4155 H   0  0  0  0  0  0  0  0  0  0  0  0
   37.6623   30.0027   44.3621 H   0  0  0  0  0  0  0  0  0  0  0  0
  1  2  2  0
  1  5  1  0
  2  3  1  0
  3  4  1  0
  4 12  1  0
  5  4  2  0
  6  7  2  0
  7  8  1  0
  7  1  1  0
  9  8  2  0
 10  9  1  0
 11 10  2  0
 11  6  1  0
 12 16  1  0
 13 12  2  0
 13 14  1  0
 14 15  2  0
 16 15  1  0
  6 17  1  0
  8 18  1  0
 10 19  1  0
 13 20  1  0
 15 21  1  0
 16 22  1  0
M  ISO  6  17  14  18  14  19  14  20  14  21  14  22   9
M  END
>  <minimizedAffinity>  (1) 
-4.91738844

>  <minimizedRMSD>  (1) 
6.01781988

$$$$
