
     RDKit          3D

 27 28  0  0  0  0  0  0  0  0999 V2000
   39.2870   32.5230   41.0910 C   0  0  0  0  0  0  0  0  0  0  0  0
   38.1360   31.8370   40.6760 C   0  0  0  0  0  0  0  0  0  0  0  0
   37.1660   32.5310   39.9320 C   0  0  0  0  0  0  0  0  0  0  0  0
   37.3910   33.8500   39.6480 N   0  0  0  0  0  0  0  0  0  0  0  0
   38.5180   34.4810   40.0670 C   0  0  0  0  0  0  0  0  0  0  0  0
   39.4500   33.8150   40.7800 N   0  0  0  0  0  0  0  0  0  0  0  0
   37.8520   30.4360   40.9530 C   0  0  0  0  0  0  0  0  0  0  0  0
   37.3660   29.4810   40.1340 N   0  0  0  0  0  0  0  0  0  0  0  0
   37.2710   28.3600   40.8130 O   0  0  0  0  0  0  0  0  0  0  0  0
   37.6740   28.5320   42.0560 C   0  0  0  0  0  0  0  0  0  0  0  0
   38.0370   29.8360   42.1350 N   0  0  0  0  0  0  0  0  0  0  0  0
   37.7170   27.5060   43.1230 C   0  0  0  0  0  0  0  0  0  0  0  0
   37.0750   26.2480   42.5770 C   0  0  0  0  0  0  0  0  0  0  0  0
   39.1180   27.1910   43.5600 C   0  0  0  0  0  0  0  0  0  0  0  0
   36.9210   28.0440   44.2840 C   0  0  0  0  0  0  0  0  0  0  0  0
   40.0581   31.9978   41.6738 H   0  0  0  0  0  0  0  0  0  0  0  0
   36.2509   32.0271   39.5876 H   0  0  0  0  0  0  0  0  0  0  0  0
   38.6722   35.5426   39.8234 H   0  0  0  0  0  0  0  0  0  0  0  0
   36.7496   25.6103   43.4121 H   0  0  0  0  0  0  0  0  0  0  0  0
   36.2045   26.5182   41.9611 H   0  0  0  0  0  0  0  0  0  0  0  0
   37.8045   25.7017   41.9611 H   0  0  0  0  0  0  0  0  0  0  0  0
   39.1657   27.1803   44.6589 H   0  0  0  0  0  0  0  0  0  0  0  0
   39.4105   26.2047   43.1707 H   0  0  0  0  0  0  0  0  0  0  0  0
   39.8046   27.9572   43.1707 H   0  0  0  0  0  0  0  0  0  0  0  0
   37.3893   27.7275   45.2277 H   0  0  0  0  0  0  0  0  0  0  0  0
   36.8993   29.1427   44.2359 H   0  0  0  0  0  0  0  0  0  0  0  0
   35.8934   27.6545   44.2359 H   0  0  0  0  0  0  0  0  0  0  0  0
  2  7  1  0
  2  1  2  0
  3  2  1  0
  4  3  2  0
  4  5  1  0
  5  6  2  0
  6  1  1  0
  7 11  1  0
  8  9  1  0
  8  7  2  0
  9 10  1  0
 10 11  2  0
 10 12  1  0
 12 14  1  0
 12 15  1  0
 13 12  1  0
  1 16  1  0
  3 17  1  0
  5 18  1  0
 13 19  1  0
 13 20  1  0
 13 21  1  0
 14 22  1  0
 14 23  1  0
 14 24  1  0
 15 25  1  0
 15 26  1  0
 15 27  1  0
M  ISO  8  16  14  17  14  18  14  19   8  20   8  21   8  22   8  23   8
M  ISO  4  24   8  25   8  26   8  27   8
M  END
>  <minimizedAffinity>  (1) 
-4.83001709

>  <minimizedRMSD>  (1) 
4.24487543

$$$$
