
     RDKit          3D

 23 25  0  0  0  0  0  0  0  0999 V2000
   37.7000   30.1780   41.3650 C   0  0  0  0  0  0  0  0  0  0  0  0
   36.4850   29.6080   41.5010 N   0  0  0  0  0  0  0  0  0  0  0  0
   36.6540   28.3770   41.9190 O   0  0  0  0  0  0  0  0  0  0  0  0
   37.9370   28.1180   42.0640 C   0  0  0  0  0  0  0  0  0  0  0  0
   38.6080   29.2440   41.7180 N   0  0  0  0  0  0  0  0  0  0  0  0
   39.2270   32.2120   41.2220 C   0  0  0  0  0  0  0  0  0  0  0  0
   38.0380   31.5330   40.9280 C   0  0  0  0  0  0  0  0  0  0  0  0
   37.0850   32.1910   40.1540 C   0  0  0  0  0  0  0  0  0  0  0  0
   37.3580   33.4620   39.7210 N   0  0  0  0  0  0  0  0  0  0  0  0
   38.5120   34.0890   40.0210 C   0  0  0  0  0  0  0  0  0  0  0  0
   39.4490   33.4500   40.7790 N   0  0  0  0  0  0  0  0  0  0  0  0
   38.5430   26.8770   42.5050 C   0  0  0  0  0  0  0  0  0  0  0  0
   39.5900   26.8130   43.3910 C   0  0  0  0  0  0  0  0  0  0  0  0
   40.1020   25.5720   43.7540 C   0  0  0  0  0  0  0  0  0  0  0  0
   39.5920   24.4510   43.2540 N   0  0  0  0  0  0  0  0  0  0  0  0
   38.5750   24.5100   42.3930 C   0  0  0  0  0  0  0  0  0  0  0  0
   38.0790   25.7030   42.0410 N   0  0  0  0  0  0  0  0  0  0  0  0
   39.9947   31.7131   41.8318 H   0  0  0  0  0  0  0  0  0  0  0  0
   36.1344   31.7012   39.8961 H   0  0  0  0  0  0  0  0  0  0  0  0
   38.6976   35.1102   39.6569 H   0  0  0  0  0  0  0  0  0  0  0  0
   40.0198   27.7349   43.8098 H   0  0  0  0  0  0  0  0  0  0  0  0
   40.9401   25.5174   44.4643 H   0  0  0  0  0  0  0  0  0  0  0  0
   38.1473   23.5865   41.9756 H   0  0  0  0  0  0  0  0  0  0  0  0
  1  2  2  0
  1  5  1  0
  2  3  1  0
  3  4  1  0
  4 12  1  0
  5  4  2  0
  7  6  2  0
  7  1  1  0
  8  7  1  0
  9 10  1  0
  9  8  2  0
 10 11  2  0
 11  6  1  0
 12 13  2  0
 13 14  1  0
 15 14  2  0
 16 15  1  0
 17 16  2  0
 17 12  1  0
  6 18  1  0
  8 19  1  0
 10 20  1  0
 13 21  1  0
 14 22  1  0
 16 23  1  0
M  ISO  6  18  14  19  14  20  14  21  14  22  14  23  14
M  END
>  <minimizedAffinity>  (1) 
-4.75093889

>  <minimizedRMSD>  (1) 
4.10974073

$$$$
