
     RDKit          3D

 23 25  0  0  0  0  0  0  0  0999 V2000
   39.1440   32.6320   39.7350 C   0  0  0  0  0  0  0  0  0  0  0  0
   37.8980   33.1390   39.9090 N   0  0  0  0  0  0  0  0  0  0  0  0
   37.1970   32.2650   40.6000 O   0  0  0  0  0  0  0  0  0  0  0  0
   37.9300   31.2160   40.8830 C   0  0  0  0  0  0  0  0  0  0  0  0
   39.1590   31.4260   40.3480 N   0  0  0  0  0  0  0  0  0  0  0  0
   40.8640   34.4630   39.3800 C   0  0  0  0  0  0  0  0  0  0  0  0
   40.2720   33.2270   39.0380 C   0  0  0  0  0  0  0  0  0  0  0  0
   40.8050   32.5320   37.9580 C   0  0  0  0  0  0  0  0  0  0  0  0
   41.8670   33.0700   37.2830 N   0  0  0  0  0  0  0  0  0  0  0  0
   42.4070   34.2620   37.6460 C   0  0  0  0  0  0  0  0  0  0  0  0
   41.8990   34.9520   38.6960 N   0  0  0  0  0  0  0  0  0  0  0  0
   37.6020   30.0000   41.6210 C   0  0  0  0  0  0  0  0  0  0  0  0
   36.6020   29.1210   41.2270 C   0  0  0  0  0  0  0  0  0  0  0  0
   36.3270   27.9800   41.9590 C   0  0  0  0  0  0  0  0  0  0  0  0
   37.0610   27.7360   43.0820 N   0  0  0  0  0  0  0  0  0  0  0  0
   38.0300   28.5880   43.4640 C   0  0  0  0  0  0  0  0  0  0  0  0
   38.2910   29.7000   42.7420 N   0  0  0  0  0  0  0  0  0  0  0  0
   40.4623   35.0349   40.2295 H   0  0  0  0  0  0  0  0  0  0  0  0
   40.3798   31.5651   37.6510 H   0  0  0  0  0  0  0  0  0  0  0  0
   43.2610   34.6695   37.0850 H   0  0  0  0  0  0  0  0  0  0  0  0
   36.0195   29.3353   40.3188 H   0  0  0  0  0  0  0  0  0  0  0  0
   35.5347   27.2857   41.6426 H   0  0  0  0  0  0  0  0  0  0  0  0
   38.6146   28.3775   44.3717 H   0  0  0  0  0  0  0  0  0  0  0  0
  1  2  2  0
  1  5  1  0
  2  3  1  0
  3  4  1  0
  4 12  1  0
  5  4  2  0
  7  6  2  0
  7  1  1  0
  8  7  1  0
  9 10  1  0
  9  8  2  0
 10 11  2  0
 11  6  1  0
 12 17  1  0
 13 12  2  0
 13 14  1  0
 14 15  2  0
 15 16  1  0
 17 16  2  0
  6 18  1  0
  8 19  1  0
 10 20  1  0
 13 21  1  0
 14 22  1  0
 16 23  1  0
M  ISO  6  18  14  19  14  20  14  21  14  22  14  23  14
M  END
>  <minimizedAffinity>  (1) 
-4.71763802

>  <minimizedRMSD>  (1) 
6.87458897

$$$$
