
     RDKit          3D

 27 29  0  0  0  0  0  0  0  0999 V2000
   37.6630   29.1910   42.2580 C   0  0  0  0  0  0  0  0  0  0  0  0
   37.6480   28.8860   43.5640 N   0  0  0  0  0  0  0  0  0  0  0  0
   37.4280   27.6020   43.6870 O   0  0  0  0  0  0  0  0  0  0  0  0
   37.3000   27.0490   42.5030 C   0  0  0  0  0  0  0  0  0  0  0  0
   37.4400   28.0230   41.5900 N   0  0  0  0  0  0  0  0  0  0  0  0
   37.0740   25.8500   41.7140 N   0  0  0  0  0  0  0  0  0  0  0  0
   36.9900   24.4520   42.2000 C   0  0  0  0  0  0  0  0  0  0  0  0
   38.1810   23.8970   41.4030 C   0  0  0  0  0  0  0  0  0  0  0  0
   38.1270   24.6830   40.0790 C   0  0  0  0  0  0  0  0  0  0  0  0
   36.8780   25.5340   40.3130 C   0  0  0  0  0  0  0  0  0  0  0  0
   36.8930   31.1600   40.8390 C   0  0  0  0  0  0  0  0  0  0  0  0
   37.8780   30.4900   41.6010 C   0  0  0  0  0  0  0  0  0  0  0  0
   39.1450   31.0480   41.7550 C   0  0  0  0  0  0  0  0  0  0  0  0
   39.3680   32.2580   41.1380 N   0  0  0  0  0  0  0  0  0  0  0  0
   38.4010   32.8780   40.4130 C   0  0  0  0  0  0  0  0  0  0  0  0
   37.1680   32.3230   40.2690 N   0  0  0  0  0  0  0  0  0  0  0  0
   37.1404   24.3758   43.2870 H   0  0  0  0  0  0  0  0  0  0  0  0
   36.0259   23.9416   42.0589 H   0  0  0  0  0  0  0  0  0  0  0  0
   39.1279   24.0819   41.9314 H   0  0  0  0  0  0  0  0  0  0  0  0
   38.1278   22.8081   41.2567 H   0  0  0  0  0  0  0  0  0  0  0  0
   38.0069   24.0142   39.2140 H   0  0  0  0  0  0  0  0  0  0  0  0
   39.0368   25.2567   39.8482 H   0  0  0  0  0  0  0  0  0  0  0  0
   36.8708   26.4366   39.6843 H   0  0  0  0  0  0  0  0  0  0  0  0
   35.9226   25.0468   40.0685 H   0  0  0  0  0  0  0  0  0  0  0  0
   35.8949   30.7134   40.7194 H   0  0  0  0  0  0  0  0  0  0  0  0
   39.9290   30.5462   42.3411 H   0  0  0  0  0  0  0  0  0  0  0  0
   38.6188   33.8444   39.9348 H   0  0  0  0  0  0  0  0  0  0  0  0
  1  2  2  0
  2  3  1  0
  4  3  1  0
  5  1  1  0
  5  4  2  0
  6  7  1  0
  6  4  1  0
  8  7  1  0
  9 10  1  0
  9  8  1  0
 10  6  1  0
 11 12  2  0
 12 13  1  0
 12  1  1  0
 14 13  2  0
 15 14  1  0
 16 15  2  0
 16 11  1  0
  7 17  1  0
  7 18  1  0
  8 19  1  0
  8 20  1  0
  9 21  1  0
  9 22  1  0
 10 23  1  0
 10 24  1  0
 11 25  1  0
 13 26  1  0
 15 27  1  0
M  ISO  8  17  13  18  13  19  13  20  13  21  13  22  13  23  13  24  13
M  ISO  3  25  14  26  14  27  14
M  END
>  <minimizedAffinity>  (1) 
-4.6289053

>  <minimizedRMSD>  (1) 
4.67763281

$$$$
