
     RDKit          3D

 51 53  0  0  1  0  0  0  0  0999 V2000
   39.4040   26.0440   42.2760 C   0  0  1  0  0  0  0  0  0  0  0  0
   39.1980   24.6480   41.6310 C   0  0  0  0  0  0  0  0  0  0  0  0
   37.8290   24.2480   41.9520 C   0  0  0  0  0  0  0  0  0  0  0  0
   37.1190   25.5900   42.2800 C   0  0  0  0  0  0  0  0  0  0  0  0
   38.1420   26.2710   42.9910 C   0  0  2  0  0  0  0  0  0  0  0  0
   42.0650   27.0500   44.7030 C   0  0  0  0  0  0  0  0  0  0  0  0
   40.8440   26.9970   44.0500 C   0  0  0  0  0  0  0  0  0  0  0  0
   40.6310   26.1070   43.0060 C   0  0  0  0  0  0  0  0  0  0  0  0
   41.6570   25.2770   42.6420 N   0  0  0  0  0  0  0  0  0  0  0  0
   42.8480   25.3220   43.2740 C   0  0  0  0  0  0  0  0  0  0  0  0
   43.0520   26.1990   44.2930 N   0  0  0  0  0  0  0  0  0  0  0  0
   37.7320   27.7150   43.0830 C   0  0  2  0  0  0  0  0  0  0  0  0
   36.9460   28.0890   44.2660 C   0  0  0  0  0  0  0  0  0  0  0  0
   37.0630   27.9830   41.8580 C   0  0  0  0  0  0  0  0  0  0  0  0
   37.0440   29.3120   41.4960 N   0  0  0  0  0  0  0  0  0  0  0  0
   35.9810   30.0040   40.9700 C   0  0  0  0  0  0  0  0  0  0  0  0
   36.4440   31.1420   40.4670 C   0  0  0  0  0  0  0  0  0  0  0  0
   37.7620   31.0680   40.7300 N   0  0  0  0  0  0  0  0  0  0  0  0
   38.1760   29.9930   41.3540 C   0  0  0  0  0  0  0  0  0  0  0  0
   39.6200   30.2040   41.5200 C   0  0  0  0  0  0  0  0  0  0  0  0
   40.1420   31.4100   40.6010 C   0  0  0  0  0  0  0  0  0  0  0  0
   40.1230   30.8500   42.7590 C   0  0  0  0  0  0  0  0  0  0  0  0
   40.3890   29.2130   40.7440 C   0  0  0  0  0  0  0  0  0  0  0  0
   39.5638   26.8813   41.5808 H   0  0  0  0  0  0  0  0  0  0  0  0
   39.9143   23.9254   42.0491 H   0  0  0  0  0  0  0  0  0  0  0  0
   39.3613   24.6809   40.5437 H   0  0  0  0  0  0  0  0  0  0  0  0
   37.3535   23.7528   41.0925 H   0  0  0  0  0  0  0  0  0  0  0  0
   37.7796   23.5265   42.7809 H   0  0  0  0  0  0  0  0  0  0  0  0
   36.8343   26.1305   41.3652 H   0  0  0  0  0  0  0  0  0  0  0  0
   36.1763   25.4802   42.8361 H   0  0  0  0  0  0  0  0  0  0  0  0
   38.2902   25.9094   44.0192 H   0  0  0  0  0  0  0  0  0  0  0  0
   42.2348   27.7573   45.5282 H   0  0  0  0  0  0  0  0  0  0  0  0
   40.0320   27.6696   44.3633 H   0  0  0  0  0  0  0  0  0  0  0  0
   43.6582   24.6459   42.9635 H   0  0  0  0  0  0  0  0  0  0  0  0
   38.6234   28.3435   43.2260 H   0  0  0  0  0  0  0  0  0  0  0  0
   37.5041   27.8235   45.1760 H   0  0  0  0  0  0  0  0  0  0  0  0
   36.7585   29.1728   44.2540 H   0  0  0  0  0  0  0  0  0  0  0  0
   35.9867   27.5508   44.2540 H   0  0  0  0  0  0  0  0  0  0  0  0
   37.5667   27.4169   41.0606 H   0  0  0  0  0  0  0  0  0  0  0  0
   36.0145   27.6832   42.0022 H   0  0  0  0  0  0  0  0  0  0  0  0
   34.9317   29.6739   40.9661 H   0  0  0  0  0  0  0  0  0  0  0  0
   35.8887   31.9455   39.9611 H   0  0  0  0  0  0  0  0  0  0  0  0
   40.4974   32.2312   41.2408 H   0  0  0  0  0  0  0  0  0  0  0  0
   40.9676   31.0563   39.9659 H   0  0  0  0  0  0  0  0  0  0  0  0
   39.3191   31.7698   39.9659 H   0  0  0  0  0  0  0  0  0  0  0  0
   39.7156   30.3268   43.6367 H   0  0  0  0  0  0  0  0  0  0  0  0
   41.2216   30.7991   42.7790 H   0  0  0  0  0  0  0  0  0  0  0  0
   39.8043   31.9026   42.7790 H   0  0  0  0  0  0  0  0  0  0  0  0
   40.9147   28.5356   41.4331 H   0  0  0  0  0  0  0  0  0  0  0  0
   39.7033   28.6316   40.1101 H   0  0  0  0  0  0  0  0  0  0  0  0
   41.1225   29.7328   40.1101 H   0  0  0  0  0  0  0  0  0  0  0  0
  1  5  1  0
  1  8  1  0
  2  3  1  0
  2  1  1  0
  3  4  1  0
  4  5  1  0
  5 12  1  0
  7  6  2  0
  8  7  1  0
  9  8  2  0
  9 10  1  0
 10 11  2  0
 11  6  1  0
 12 13  1  0
 14 12  1  0
 15 14  1  0
 16 15  1  0
 17 18  1  0
 17 16  2  0
 18 19  2  0
 19 15  1  0
 19 20  1  0
 20 22  1  0
 21 20  1  0
 23 20  1  0
  1 24  1  6
  2 25  1  0
  2 26  1  0
  3 27  1  0
  3 28  1  0
  4 29  1  0
  4 30  1  0
  5 31  1  1
  6 32  1  0
  7 33  1  0
 10 34  1  0
 12 35  1  6
 13 36  1  0
 13 37  1  0
 13 38  1  0
 14 39  1  0
 14 40  1  0
 16 41  1  0
 17 42  1  0
 21 43  1  0
 21 44  1  0
 21 45  1  0
 22 46  1  0
 22 47  1  0
 22 48  1  0
 23 49  1  0
 23 50  1  0
 23 51  1  0
M  ISO  8  24  13  25  13  26  13  27  13  28  13  29  13  30  13  31  13
M  ISO  8  32  14  33  14  34  14  35   8  36   8  37   8  38   8  39   8
M  ISO  8  40   8  41  14  42  14  43   8  44   8  45   8  46   8  47   8
M  ISO  4  48   8  49   8  50   8  51   8
M  END
>  <minimizedAffinity>  (1) 
-5.54957342

>  <minimizedRMSD>  (1) 
0.525889635

$$$$
