
     RDKit          3D

 24 25  0  0  0  0  0  0  0  0999 V2000
   39.0150   30.7940   41.7620 C   0  0  0  0  0  0  0  0  0  0  0  0
   37.8000   30.0980   41.6810 C   0  0  0  0  0  0  0  0  0  0  0  0
   36.7450   30.7160   41.0090 C   0  0  0  0  0  0  0  0  0  0  0  0
   36.9380   31.9600   40.4630 N   0  0  0  0  0  0  0  0  0  0  0  0
   38.1280   32.5930   40.5660 C   0  0  0  0  0  0  0  0  0  0  0  0
   39.1580   32.0020   41.2170 N   0  0  0  0  0  0  0  0  0  0  0  0
   37.5470   28.7830   42.2420 C   0  0  0  0  0  0  0  0  0  0  0  0
   37.3240   28.4640   43.5530 N   0  0  0  0  0  0  0  0  0  0  0  0
   37.1390   27.1550   43.6210 O   0  0  0  0  0  0  0  0  0  0  0  0
   37.2310   26.6280   42.4320 C   0  0  0  0  0  0  0  0  0  0  0  0
   37.4870   27.6380   41.5530 N   0  0  0  0  0  0  0  0  0  0  0  0
   37.0780   25.1940   42.1430 C   0  0  0  0  0  0  0  0  0  0  0  0
   38.4160   24.5250   42.3940 C   0  0  0  0  0  0  0  0  0  0  0  0
   36.8450   25.0710   40.6370 C   0  0  0  0  0  0  0  0  0  0  0  0
   39.8662   30.3341   42.2853 H   0  0  0  0  0  0  0  0  0  0  0  0
   35.7712   30.2126   40.9181 H   0  0  0  0  0  0  0  0  0  0  0  0
   38.2599   33.5899   40.1202 H   0  0  0  0  0  0  0  0  0  0  0  0
   36.2702   24.7546   42.7467 H   0  0  0  0  0  0  0  0  0  0  0  0
   38.5859   24.4400   43.4775 H   0  0  0  0  0  0  0  0  0  0  0  0
   38.4145   23.5216   41.9433 H   0  0  0  0  0  0  0  0  0  0  0  0
   39.2178   25.1282   41.9433 H   0  0  0  0  0  0  0  0  0  0  0  0
   35.8857   24.5646   40.4545 H   0  0  0  0  0  0  0  0  0  0  0  0
   36.8215   26.0742   40.1865 H   0  0  0  0  0  0  0  0  0  0  0  0
   37.6601   24.4857   40.1865 H   0  0  0  0  0  0  0  0  0  0  0  0
  2  1  2  0
  2  7  1  0
  3  2  1  0
  4  5  1  0
  4  3  2  0
  5  6  2  0
  6  1  1  0
  7  8  2  0
  8  9  1  0
 10  9  1  0
 11  7  1  0
 11 10  2  0
 12 13  1  0
 12 10  1  0
 14 12  1  0
  1 15  1  0
  3 16  1  0
  5 17  1  0
 12 18  1  0
 13 19  1  0
 13 20  1  0
 13 21  1  0
 14 22  1  0
 14 23  1  0
 14 24  1  0
M  ISO  8  15  14  16  14  17  14  18   8  19   8  20   8  21   8  22   8
M  ISO  2  23   8  24   8
M  END
>  <minimizedAffinity>  (1) 
-4.18537188

>  <minimizedRMSD>  (1) 
3.49840117

$$$$
