
     RDKit          3D

 17 18  0  0  0  0  0  0  0  0999 V2000
   37.9870   29.8120   41.9410 C   0  0  0  0  0  0  0  0  0  0  0  0
   37.6690   28.4450   42.0510 C   0  0  0  0  0  0  0  0  0  0  0  0
   36.4640   27.9670   41.5150 C   0  0  0  0  0  0  0  0  0  0  0  0
   35.6380   28.8720   40.8970 N   0  0  0  0  0  0  0  0  0  0  0  0
   35.9790   30.1780   40.8120 C   0  0  0  0  0  0  0  0  0  0  0  0
   37.1370   30.6400   41.3260 N   0  0  0  0  0  0  0  0  0  0  0  0
   38.5210   27.4460   42.7020 C   0  0  0  0  0  0  0  0  0  0  0  0
   38.4040   26.1010   42.7010 N   0  0  0  0  0  0  0  0  0  0  0  0
   39.3900   25.6020   43.4140 O   0  0  0  0  0  0  0  0  0  0  0  0
   40.1450   26.5710   43.8800 C   0  0  0  0  0  0  0  0  0  0  0  0
   39.6190   27.7420   43.4450 N   0  0  0  0  0  0  0  0  0  0  0  0
   41.3100   26.5890   44.6860 N   0  0  0  0  0  0  0  0  0  0  0  0
   38.9293   30.1963   42.3587 H   0  0  0  0  0  0  0  0  0  0  0  0
   36.1908   26.9039   41.5875 H   0  0  0  0  0  0  0  0  0  0  0  0
   35.2956   30.8800   40.3118 H   0  0  0  0  0  0  0  0  0  0  0  0
   41.7487   27.4864   44.9371 H   0  0  0  0  0  0  0  0  0  0  0  0
   41.7183   25.7047   45.0209 H   0  0  0  0  0  0  0  0  0  0  0  0
  1  2  2  0
  2  7  1  0
  3  2  1  0
  4  3  2  0
  5  4  1  0
  5  6  2  0
  6  1  1  0
  7 11  1  0
  8  7  2  0
  8  9  1  0
  9 10  1  0
 10 12  1  0
 11 10  2  0
  1 13  1  0
  3 14  1  0
  5 15  1  0
 12 16  1  0
 12 17  1  0
M  ISO  3  13  14  14  14  15  14
M  END
>  <minimizedAffinity>  (1) 
-3.82387543

>  <minimizedRMSD>  (1) 
0.0625758693

$$$$
