
     RDKit          3D

 16 17  0  0  0  0  0  0  0  0999 V2000
   37.8270   29.8850   41.8790 C   0  0  0  0  0  0  0  0  0  0  0  0
   37.5470   28.5050   41.9930 C   0  0  0  0  0  0  0  0  0  0  0  0
   36.3690   28.0170   41.4320 C   0  0  0  0  0  0  0  0  0  0  0  0
   35.5340   28.8940   40.7950 N   0  0  0  0  0  0  0  0  0  0  0  0
   35.8390   30.2120   40.7080 C   0  0  0  0  0  0  0  0  0  0  0  0
   36.9820   30.7040   41.2490 N   0  0  0  0  0  0  0  0  0  0  0  0
   38.4230   27.5540   42.6670 C   0  0  0  0  0  0  0  0  0  0  0  0
   38.3370   26.1980   42.6350 N   0  0  0  0  0  0  0  0  0  0  0  0
   39.3150   25.7150   43.3740 O   0  0  0  0  0  0  0  0  0  0  0  0
   40.0320   26.6920   43.8820 C   0  0  0  0  0  0  0  0  0  0  0  0
   39.4760   27.8480   43.4410 N   0  0  0  0  0  0  0  0  0  0  0  0
   41.1130   26.4620   44.6910 O   0  0  0  0  0  0  0  0  0  0  0  0
   38.7525   30.2895   42.3147 H   0  0  0  0  0  0  0  0  0  0  0  0
   36.1154   26.9488   41.4997 H   0  0  0  0  0  0  0  0  0  0  0  0
   35.1484   30.8939   40.1902 H   0  0  0  0  0  0  0  0  0  0  0  0
   41.6295   27.2239   45.0555 H   0  0  0  0  0  0  0  0  0  0  0  0
  1  2  2  0
  2  7  1  0
  3  2  1  0
  4  3  2  0
  5  4  1  0
  5  6  2  0
  6  1  1  0
  7 11  1  0
  8  7  2  0
  8  9  1  0
  9 10  1  0
 10 12  1  0
 11 10  2  0
  1 13  1  0
  3 14  1  0
  5 15  1  0
 12 16  1  0
M  ISO  4  13  14  14  14  15  14  16   3
M  END
>  <minimizedAffinity>  (1) 
-3.81142664

>  <minimizedRMSD>  (1) 
0.151715577

$$$$
