
     RDKit          3D

 33 36  0  0  0  0  0  0  0  0999 V2000
   37.8400   28.5940   41.3150 C   0  0  0  0  0  0  0  0  0  0  0  0
   36.8590   28.1960   42.1360 N   0  0  0  0  0  0  0  0  0  0  0  0
   36.7670   26.8930   42.0600 O   0  0  0  0  0  0  0  0  0  0  0  0
   37.6540   26.4080   41.2150 C   0  0  0  0  0  0  0  0  0  0  0  0
   38.3320   27.4680   40.7430 N   0  0  0  0  0  0  0  0  0  0  0  0
   37.9490   25.0950   40.7940 N   0  0  0  0  0  0  0  0  0  0  0  0
   38.5560   25.0170   39.5870 C   0  0  0  0  0  0  0  0  0  0  0  0
   38.8980   23.7910   39.0580 C   0  0  0  0  0  0  0  0  0  0  0  0
   38.5670   22.6890   39.8580 C   0  0  0  0  0  0  0  0  0  0  0  0
   38.8460   21.5310   39.4420 O   0  0  0  0  0  0  0  0  0  0  0  0
   37.9620   22.7970   41.0550 N   0  0  0  0  0  0  0  0  0  0  0  0
   37.6520   24.0170   41.5250 C   0  0  0  0  0  0  0  0  0  0  0  0
   37.0860   24.1620   42.6390 O   0  0  0  0  0  0  0  0  0  0  0  0
   39.6790   30.2950   40.8600 C   0  0  0  0  0  0  0  0  0  0  0  0
   38.3510   29.9330   41.0240 C   0  0  0  0  0  0  0  0  0  0  0  0
   37.3630   30.9250   40.9060 C   0  0  0  0  0  0  0  0  0  0  0  0
   37.7710   32.2070   40.6310 N   0  0  0  0  0  0  0  0  0  0  0  0
   39.0870   32.4980   40.4810 C   0  0  0  0  0  0  0  0  0  0  0  0
   40.0430   31.5420   40.5960 N   0  0  0  0  0  0  0  0  0  0  0  0
   39.5350   33.8550   40.1890 C   0  0  0  0  0  0  0  0  0  0  0  0
   40.8110   34.0600   39.7060 C   0  0  0  0  0  0  0  0  0  0  0  0
   41.2590   35.3370   39.4230 C   0  0  0  0  0  0  0  0  0  0  0  0
   40.4380   36.3770   39.6240 N   0  0  0  0  0  0  0  0  0  0  0  0
   39.1770   36.1710   40.1020 C   0  0  0  0  0  0  0  0  0  0  0  0
   38.7600   34.9320   40.3700 N   0  0  0  0  0  0  0  0  0  0  0  0
   38.7775   25.9365   39.0253 H   0  0  0  0  0  0  0  0  0  0  0  0
   39.3934   23.6855   38.0815 H   0  0  0  0  0  0  0  0  0  0  0  0
   37.7392   21.9547   41.6043 H   0  0  0  0  0  0  0  0  0  0  0  0
   40.4563   29.5221   40.9519 H   0  0  0  0  0  0  0  0  0  0  0  0
   36.2972   30.6825   41.0299 H   0  0  0  0  0  0  0  0  0  0  0  0
   41.4777   33.2000   39.5447 H   0  0  0  0  0  0  0  0  0  0  0  0
   42.2767   35.4974   39.0376 H   0  0  0  0  0  0  0  0  0  0  0  0
   38.5043   37.0257   40.2664 H   0  0  0  0  0  0  0  0  0  0  0  0
  1  2  2  0
  3  2  1  0
  4  3  1  0
  5  4  2  0
  5  1  1  0
  6  4  1  0
  6 12  1  0
  7  6  1  0
  8  7  2  0
  8  9  1  0
  9 11  1  0
 10  9  2  0
 11 12  1  0
 12 13  2  0
 14 15  2  0
 15  1  1  0
 16 15  1  0
 17 16  2  0
 18 19  2  0
 18 17  1  0
 19 14  1  0
 20 25  1  0
 20 18  1  0
 21 20  2  0
 22 23  2  0
 22 21  1  0
 23 24  1  0
 24 25  2  0
  7 26  1  0
  8 27  1  0
 11 28  1  0
 14 29  1  0
 16 30  1  0
 21 31  1  0
 22 32  1  0
 24 33  1  0
M  ISO  8  26  14  27  14  28   9  29  14  30  14  31  14  32  14  33  14
M  END
>  <minimizedAffinity>  (1) 
-6.19768238

>  <minimizedRMSD>  (1) 
4.46824121

$$$$
