
     RDKit          3D

 46 49  0  0  1  0  0  0  0  0999 V2000
   39.3820   25.9780   42.2360 C   0  0  1  0  0  0  0  0  0  0  0  0
   39.1660   24.5520   41.6680 C   0  0  0  0  0  0  0  0  0  0  0  0
   37.7980   24.1740   41.9600 C   0  0  0  0  0  0  0  0  0  0  0  0
   37.0980   25.5150   42.2820 C   0  0  0  0  0  0  0  0  0  0  0  0
   38.1410   26.2380   42.9500 C   0  0  2  0  0  0  0  0  0  0  0  0
   42.0110   26.9040   44.7590 C   0  0  0  0  0  0  0  0  0  0  0  0
   40.7830   26.8720   44.0980 C   0  0  0  0  0  0  0  0  0  0  0  0
   40.6170   26.0620   42.9690 C   0  0  0  0  0  0  0  0  0  0  0  0
   41.6790   25.3170   42.5500 N   0  0  0  0  0  0  0  0  0  0  0  0
   42.8580   25.3490   43.1880 C   0  0  0  0  0  0  0  0  0  0  0  0
   43.0270   26.1400   44.2900 N   0  0  0  0  0  0  0  0  0  0  0  0
   37.6930   27.6480   43.0560 C   0  0  2  0  0  0  0  0  0  0  0  0
   36.8340   27.9690   44.2200 C   0  0  0  0  0  0  0  0  0  0  0  0
   37.0380   27.8880   41.7800 C   0  0  0  0  0  0  0  0  0  0  0  0
   37.1380   29.2520   41.4350 N   0  0  0  0  0  0  0  0  0  0  0  0
   36.1060   30.0920   41.1410 C   0  0  0  0  0  0  0  0  0  0  0  0
   36.6210   31.2780   40.7260 C   0  0  0  0  0  0  0  0  0  0  0  0
   37.9300   31.1000   40.7930 N   0  0  0  0  0  0  0  0  0  0  0  0
   38.2780   29.8660   41.2240 C   0  0  0  0  0  0  0  0  0  0  0  0
   39.7010   29.6820   41.2400 C   0  0  0  0  0  0  0  0  0  0  0  0
   40.6940   30.8480   41.3880 C   0  0  0  0  0  0  0  0  0  0  0  0
   40.4130   30.1090   42.5860 C   0  0  0  0  0  0  0  0  0  0  0  0
   39.5383   26.7761   41.4953 H   0  0  0  0  0  0  0  0  0  0  0  0
   39.8616   23.8469   42.1466 H   0  0  0  0  0  0  0  0  0  0  0  0
   39.3523   24.5324   40.5841 H   0  0  0  0  0  0  0  0  0  0  0  0
   37.3322   23.6893   41.0893 H   0  0  0  0  0  0  0  0  0  0  0  0
   37.7264   23.4508   42.7858 H   0  0  0  0  0  0  0  0  0  0  0  0
   36.7781   26.0302   41.3643 H   0  0  0  0  0  0  0  0  0  0  0  0
   36.1797   25.4061   42.8777 H   0  0  0  0  0  0  0  0  0  0  0  0
   38.3472   25.9250   43.9842 H   0  0  0  0  0  0  0  0  0  0  0  0
   42.1522   27.5389   45.6461 H   0  0  0  0  0  0  0  0  0  0  0  0
   39.9452   27.4835   44.4642 H   0  0  0  0  0  0  0  0  0  0  0  0
   43.6943   24.7350   42.8224 H   0  0  0  0  0  0  0  0  0  0  0  0
   38.5465   28.3150   43.2475 H   0  0  0  0  0  0  0  0  0  0  0  0
   37.3846   27.7633   45.1498 H   0  0  0  0  0  0  0  0  0  0  0  0
   36.5543   29.0323   44.1871 H   0  0  0  0  0  0  0  0  0  0  0  0
   35.9255   27.3497   44.1871 H   0  0  0  0  0  0  0  0  0  0  0  0
   37.5218   27.2791   41.0021 H   0  0  0  0  0  0  0  0  0  0  0  0
   35.9760   27.6134   41.8622 H   0  0  0  0  0  0  0  0  0  0  0  0
   35.0363   29.8501   41.2256 H   0  0  0  0  0  0  0  0  0  0  0  0
   36.0756   32.1787   40.4077 H   0  0  0  0  0  0  0  0  0  0  0  0
   39.6244   28.8292   40.5494 H   0  0  0  0  0  0  0  0  0  0  0  0
   41.6899   30.7685   40.9277 H   0  0  0  0  0  0  0  0  0  0  0  0
   40.6429   31.9170   41.1337 H   0  0  0  0  0  0  0  0  0  0  0  0
   39.8261   30.5751   43.3912 H   0  0  0  0  0  0  0  0  0  0  0  0
   41.0294   29.5860   43.3320 H   0  0  0  0  0  0  0  0  0  0  0  0
  1  5  1  0
  1  8  1  0
  2  3  1  0
  2  1  1  0
  3  4  1  0
  4  5  1  0
  5 12  1  0
  7  6  2  0
  8  7  1  0
  9  8  2  0
  9 10  1  0
 10 11  2  0
 11  6  1  0
 12 13  1  0
 14 12  1  0
 15 14  1  0
 16 15  1  0
 17 18  1  0
 17 16  2  0
 18 19  2  0
 19 20  1  0
 19 15  1  0
 20 21  1  0
 20 22  1  0
 21 22  1  0
  1 23  1  6
  2 24  1  0
  2 25  1  0
  3 26  1  0
  3 27  1  0
  4 28  1  0
  4 29  1  0
  5 30  1  1
  6 31  1  0
  7 32  1  0
 10 33  1  0
 12 34  1  6
 13 35  1  0
 13 36  1  0
 13 37  1  0
 14 38  1  0
 14 39  1  0
 16 40  1  0
 17 41  1  0
 20 42  1  0
 21 43  1  0
 21 44  1  0
 22 45  1  0
 22 46  1  0
M  ISO  8  23  13  24  13  25  13  26  13  27  13  28  13  29  13  30  13
M  ISO  8  31  14  32  14  33  14  34   8  35   8  36   8  37   8  38   8
M  ISO  8  39   8  40  14  41  14  42  13  43  13  44  13  45  13  46  13
M  END
>  <minimizedAffinity>  (1) 
-5.34613276

>  <minimizedRMSD>  (1) 
0.46036616

$$$$
