
     RDKit          3D

 31 34  0  0  0  0  0  0  0  0999 V2000
   40.8780   29.2190   41.2290 C   0  0  0  0  0  0  0  0  0  0  0  0
   40.0570   28.1770   41.0520 N   0  0  0  0  0  0  0  0  0  0  0  0
   40.6520   27.0950   41.4770 O   0  0  0  0  0  0  0  0  0  0  0  0
   41.8430   27.3790   41.9330 C   0  0  0  0  0  0  0  0  0  0  0  0
   42.0030   28.7100   41.7860 N   0  0  0  0  0  0  0  0  0  0  0  0
   42.8790   26.5930   42.4970 N   0  0  0  0  0  0  0  0  0  0  0  0
   44.1220   27.1120   42.3920 C   0  0  0  0  0  0  0  0  0  0  0  0
   45.2080   26.4310   42.9080 C   0  0  0  0  0  0  0  0  0  0  0  0
   44.8960   25.2130   43.5170 C   0  0  0  0  0  0  0  0  0  0  0  0
   45.8630   24.5540   44.0050 O   0  0  0  0  0  0  0  0  0  0  0  0
   43.6490   24.7140   43.6100 N   0  0  0  0  0  0  0  0  0  0  0  0
   42.6350   25.4140   43.0930 C   0  0  0  0  0  0  0  0  0  0  0  0
   41.4550   24.9830   43.1610 O   0  0  0  0  0  0  0  0  0  0  0  0
   41.4860   31.4080   40.0530 C   0  0  0  0  0  0  0  0  0  0  0  0
   40.7100   30.6500   40.9270 C   0  0  0  0  0  0  0  0  0  0  0  0
   39.6470   31.2600   41.6190 C   0  0  0  0  0  0  0  0  0  0  0  0
   39.4510   32.6020   41.3670 N   0  0  0  0  0  0  0  0  0  0  0  0
   40.2230   33.2950   40.5160 C   0  0  0  0  0  0  0  0  0  0  0  0
   41.2340   32.7050   39.8630 N   0  0  0  0  0  0  0  0  0  0  0  0
   39.9650   34.6840   40.3010 N   0  0  0  0  0  0  0  0  0  0  0  0
   38.7830   35.2790   40.0600 C   0  0  0  0  0  0  0  0  0  0  0  0
   38.9600   36.6080   39.9140 N   0  0  0  0  0  0  0  0  0  0  0  0
   40.2790   36.8500   40.0650 C   0  0  0  0  0  0  0  0  0  0  0  0
   40.8510   35.6530   40.2990 N   0  0  0  0  0  0  0  0  0  0  0  0
   44.2702   28.0812   41.8934 H   0  0  0  0  0  0  0  0  0  0  0  0
   46.2361   26.8171   42.8443 H   0  0  0  0  0  0  0  0  0  0  0  0
   43.4797   23.8088   44.0714 H   0  0  0  0  0  0  0  0  0  0  0  0
   42.3172   30.9316   39.5125 H   0  0  0  0  0  0  0  0  0  0  0  0
   39.0102   30.6997   42.3194 H   0  0  0  0  0  0  0  0  0  0  0  0
   37.8160   34.7591   39.9921 H   0  0  0  0  0  0  0  0  0  0  0  0
   40.7840   37.8256   40.0085 H   0  0  0  0  0  0  0  0  0  0  0  0
  1  5  1  0
  2  1  2  0
  2  3  1  0
  3  4  1  0
  4  6  1  0
  5  4  2  0
  6 12  1  0
  7  6  1  0
  7  8  2  0
  8  9  1  0
  9 11  1  0
  9 10  2  0
 12 13  2  0
 12 11  1  0
 14 15  2  0
 15  1  1  0
 15 16  1  0
 17 16  2  0
 18 17  1  0
 19 14  1  0
 19 18  2  0
 20 18  1  0
 21 20  1  0
 22 21  2  0
 22 23  1  0
 23 24  2  0
 24 20  1  0
  7 25  1  0
  8 26  1  0
 11 27  1  0
 14 28  1  0
 16 29  1  0
 21 30  1  0
 23 31  1  0
M  ISO  7  25  14  26  14  27   9  28  14  29  14  30  14  31  14
M  END
>  <minimizedAffinity>  (1) 
-5.59111309

>  <minimizedRMSD>  (1) 
2.9055438

$$$$
