
     RDKit          3D

 30 33  0  0  0  0  0  0  0  0999 V2000
   40.5820   29.3620   41.4070 C   0  0  0  0  0  0  0  0  0  0  0  0
   39.7230   28.3380   41.3030 N   0  0  0  0  0  0  0  0  0  0  0  0
   40.3270   27.2370   41.6950 O   0  0  0  0  0  0  0  0  0  0  0  0
   41.5530   27.5050   42.0530 C   0  0  0  0  0  0  0  0  0  0  0  0
   41.7340   28.8330   41.8800 N   0  0  0  0  0  0  0  0  0  0  0  0
   42.6140   26.6980   42.5450 N   0  0  0  0  0  0  0  0  0  0  0  0
   43.8550   27.1820   42.3140 C   0  0  0  0  0  0  0  0  0  0  0  0
   44.9630   26.4840   42.7460 C   0  0  0  0  0  0  0  0  0  0  0  0
   44.6860   25.2890   43.4110 C   0  0  0  0  0  0  0  0  0  0  0  0
   45.6570   24.5960   43.8350 O   0  0  0  0  0  0  0  0  0  0  0  0
   43.4380   24.8290   43.6270 N   0  0  0  0  0  0  0  0  0  0  0  0
   42.3970   25.5450   43.1860 C   0  0  0  0  0  0  0  0  0  0  0  0
   41.2190   25.1480   43.3690 O   0  0  0  0  0  0  0  0  0  0  0  0
   41.3940   31.6570   40.6470 C   0  0  0  0  0  0  0  0  0  0  0  0
   40.4100   30.7880   41.1010 C   0  0  0  0  0  0  0  0  0  0  0  0
   39.1130   31.2760   41.3000 C   0  0  0  0  0  0  0  0  0  0  0  0
   38.8830   32.6040   41.0320 N   0  0  0  0  0  0  0  0  0  0  0  0
   39.8750   33.4060   40.5920 C   0  0  0  0  0  0  0  0  0  0  0  0
   41.1220   32.9410   40.4000 N   0  0  0  0  0  0  0  0  0  0  0  0
   39.6090   34.8240   40.3100 C   0  0  0  0  0  0  0  0  0  0  0  0
   38.5650   35.5870   40.0140 N   0  0  0  0  0  0  0  0  0  0  0  0
   38.9790   36.8050   39.8750 O   0  0  0  0  0  0  0  0  0  0  0  0
   40.2700   36.8940   40.0670 C   0  0  0  0  0  0  0  0  0  0  0  0
   40.6900   35.6400   40.3460 N   0  0  0  0  0  0  0  0  0  0  0  0
   43.9812   28.1353   41.7799 H   0  0  0  0  0  0  0  0  0  0  0  0
   45.9893   26.8427   42.5787 H   0  0  0  0  0  0  0  0  0  0  0  0
   43.2875   23.9395   44.1241 H   0  0  0  0  0  0  0  0  0  0  0  0
   42.4154   31.2809   40.4881 H   0  0  0  0  0  0  0  0  0  0  0  0
   38.3064   30.6195   41.6583 H   0  0  0  0  0  0  0  0  0  0  0  0
   40.8871   37.8030   40.0125 H   0  0  0  0  0  0  0  0  0  0  0  0
  1  5  1  0
  2  1  2  0
  2  3  1  0
  3  4  1  0
  4  6  1  0
  5  4  2  0
  6 12  1  0
  7  6  1  0
  7  8  2  0
  8  9  1  0
  9 11  1  0
  9 10  2  0
 12 13  2  0
 12 11  1  0
 14 15  2  0
 15 16  1  0
 15  1  1  0
 17 16  2  0
 18 17  1  0
 19 18  2  0
 19 14  1  0
 20 24  1  0
 20 18  1  0
 21 20  2  0
 22 21  1  0
 22 23  1  0
 23 24  2  0
  7 25  1  0
  8 26  1  0
 11 27  1  0
 14 28  1  0
 16 29  1  0
 23 30  1  0
M  ISO  6  25  14  26  14  27   9  28  14  29  14  30  14
M  END
>  <minimizedAffinity>  (1) 
-5.58117723

>  <minimizedRMSD>  (1) 
2.68182516

$$$$
