
     RDKit          3D

 32 35  0  0  0  0  0  0  0  0999 V2000
   43.2390   29.7610   43.0100 C   0  0  0  0  0  0  0  0  0  0  0  0
   44.4110   29.2710   42.5830 N   0  0  0  0  0  0  0  0  0  0  0  0
   44.9290   28.5360   43.5330 O   0  0  0  0  0  0  0  0  0  0  0  0
   44.1430   28.5200   44.5760 C   0  0  0  0  0  0  0  0  0  0  0  0
   43.0780   29.2840   44.2620 N   0  0  0  0  0  0  0  0  0  0  0  0
   44.2260   27.8930   45.8430 N   0  0  0  0  0  0  0  0  0  0  0  0
   43.5200   28.4930   46.8300 C   0  0  0  0  0  0  0  0  0  0  0  0
   43.5280   27.9690   48.1070 C   0  0  0  0  0  0  0  0  0  0  0  0
   44.3000   26.8130   48.2720 C   0  0  0  0  0  0  0  0  0  0  0  0
   44.3450   26.2870   49.4220 O   0  0  0  0  0  0  0  0  0  0  0  0
   45.0010   26.2310   47.2650 N   0  0  0  0  0  0  0  0  0  0  0  0
   44.9530   26.7860   46.0470 C   0  0  0  0  0  0  0  0  0  0  0  0
   45.5870   26.2760   45.0950 O   0  0  0  0  0  0  0  0  0  0  0  0
   42.5400   31.7670   41.5950 C   0  0  0  0  0  0  0  0  0  0  0  0
   42.2630   30.6310   42.3470 C   0  0  0  0  0  0  0  0  0  0  0  0
   40.9190   30.2360   42.5150 C   0  0  0  0  0  0  0  0  0  0  0  0
   39.9680   31.0250   41.9070 N   0  0  0  0  0  0  0  0  0  0  0  0
   40.2900   32.1140   41.1910 C   0  0  0  0  0  0  0  0  0  0  0  0
   41.5650   32.4900   41.0310 N   0  0  0  0  0  0  0  0  0  0  0  0
   39.1200   32.7940   40.6420 C   0  0  0  0  0  0  0  0  0  0  0  0
   38.8620   33.9770   39.9930 C   0  0  0  0  0  0  0  0  0  0  0  0
   37.5010   33.9700   39.7610 C   0  0  0  0  0  0  0  0  0  0  0  0
   36.9620   32.8340   40.2480 N   0  0  0  0  0  0  0  0  0  0  0  0
   37.9420   32.1290   40.7780 N   0  0  0  0  0  0  0  0  0  0  0  0
   42.9381   29.4011   46.6137 H   0  0  0  0  0  0  0  0  0  0  0  0
   42.9679   28.4270   48.9356 H   0  0  0  0  0  0  0  0  0  0  0  0
   45.5576   25.3810   47.4343 H   0  0  0  0  0  0  0  0  0  0  0  0
   43.5861   32.0793   41.4602 H   0  0  0  0  0  0  0  0  0  0  0  0
   40.6454   29.3457   43.1002 H   0  0  0  0  0  0  0  0  0  0  0  0
   39.5836   34.7603   39.7177 H   0  0  0  0  0  0  0  0  0  0  0  0
   36.9409   34.7703   39.2552 H   0  0  0  0  0  0  0  0  0  0  0  0
   35.9680   32.5664   40.2125 H   0  0  0  0  0  0  0  0  0  0  0  0
  1  5  1  0
  2  1  2  0
  2  3  1  0
  3  4  1  0
  4  6  1  0
  5  4  2  0
  6 12  1  0
  6  7  1  0
  7  8  2  0
  8  9  1  0
  9 10  2  0
 11  9  1  0
 12 11  1  0
 13 12  2  0
 14 15  2  0
 15 16  1  0
 15  1  1  0
 17 16  2  0
 18 17  1  0
 19 18  2  0
 19 14  1  0
 20 24  2  0
 20 18  1  0
 21 20  1  0
 22 21  2  0
 22 23  1  0
 23 24  1  0
  7 25  1  0
  8 26  1  0
 11 27  1  0
 14 28  1  0
 16 29  1  0
 21 30  1  0
 22 31  1  0
 23 32  1  0
M  ISO  8  25  14  26  14  27   9  28  14  29  14  30  14  31  14  32   9
M  END
>  <minimizedAffinity>  (1) 
-5.56993151

>  <minimizedRMSD>  (1) 
4.46319437

$$$$
