
     RDKit          3D

 37 40  0  0  0  0  0  0  0  0999 V2000
   41.9800   28.1400   42.9200 C   0  0  0  0  0  0  0  0  0  0  0  0
   43.2200   28.0340   42.3960 N   0  0  0  0  0  0  0  0  0  0  0  0
   44.0440   27.6810   43.3520 O   0  0  0  0  0  0  0  0  0  0  0  0
   43.3840   27.5490   44.4930 C   0  0  0  0  0  0  0  0  0  0  0  0
   42.1000   27.8350   44.2270 N   0  0  0  0  0  0  0  0  0  0  0  0
   43.8130   27.1930   45.7880 N   0  0  0  0  0  0  0  0  0  0  0  0
   42.9990   27.6260   46.7810 C   0  0  0  0  0  0  0  0  0  0  0  0
   43.3460   27.3470   48.0920 C   0  0  0  0  0  0  0  0  0  0  0  0
   44.5170   26.6340   48.2830 C   0  0  0  0  0  0  0  0  0  0  0  0
   44.8840   26.3520   49.4540 O   0  0  0  0  0  0  0  0  0  0  0  0
   45.2970   26.2210   47.2680 N   0  0  0  0  0  0  0  0  0  0  0  0
   44.9420   26.5030   46.0070 C   0  0  0  0  0  0  0  0  0  0  0  0
   45.6550   26.1270   45.0370 O   0  0  0  0  0  0  0  0  0  0  0  0
   40.5970   29.1040   41.0160 C   0  0  0  0  0  0  0  0  0  0  0  0
   40.7160   28.5030   42.2770 C   0  0  0  0  0  0  0  0  0  0  0  0
   39.5680   28.2060   43.0360 C   0  0  0  0  0  0  0  0  0  0  0  0
   38.3560   28.5320   42.4810 N   0  0  0  0  0  0  0  0  0  0  0  0
   38.2790   29.1070   41.2700 C   0  0  0  0  0  0  0  0  0  0  0  0
   39.3830   29.3940   40.5400 N   0  0  0  0  0  0  0  0  0  0  0  0
   37.0200   29.4430   40.7000 N   0  0  0  0  0  0  0  0  0  0  0  0
   35.7210   28.8310   40.8590 C   0  0  0  0  0  0  0  0  0  0  0  0
   35.1620   28.7050   39.4510 C   0  0  0  0  0  0  0  0  0  0  0  0
   35.7410   29.9200   38.7670 C   0  0  0  0  0  0  0  0  0  0  0  0
   36.6890   30.5170   39.7830 C   0  0  0  0  0  0  0  0  0  0  0  0
   42.0816   28.1875   46.5503 H   0  0  0  0  0  0  0  0  0  0  0  0
   42.7236   27.6748   48.9377 H   0  0  0  0  0  0  0  0  0  0  0  0
   46.1602   25.6923   47.4585 H   0  0  0  0  0  0  0  0  0  0  0  0
   41.4950   29.3346   40.4240 H   0  0  0  0  0  0  0  0  0  0  0  0
   39.6392   27.7347   44.0274 H   0  0  0  0  0  0  0  0  0  0  0  0
   35.8167   27.8395   41.3257 H   0  0  0  0  0  0  0  0  0  0  0  0
   35.0638   29.4268   41.5094 H   0  0  0  0  0  0  0  0  0  0  0  0
   35.5015   27.7764   38.9689 H   0  0  0  0  0  0  0  0  0  0  0  0
   34.0635   28.6599   39.4148 H   0  0  0  0  0  0  0  0  0  0  0  0
   36.2826   29.6302   37.8544 H   0  0  0  0  0  0  0  0  0  0  0  0
   34.9630   30.6322   38.4548 H   0  0  0  0  0  0  0  0  0  0  0  0
   37.5972   30.8889   39.2861 H   0  0  0  0  0  0  0  0  0  0  0  0
   36.2326   31.3690   40.3081 H   0  0  0  0  0  0  0  0  0  0  0  0
  1  5  1  0
  2  1  2  0
  2  3  1  0
  3  4  1  0
  4  6  1  0
  5  4  2  0
  6 12  1  0
  6  7  1  0
  7  8  2  0
  8  9  1  0
  9 10  2  0
 11  9  1  0
 12 11  1  0
 13 12  2  0
 14 15  2  0
 15  1  1  0
 15 16  1  0
 17 16  2  0
 18 17  1  0
 19 14  1  0
 19 18  2  0
 20 21  1  0
 20 18  1  0
 22 21  1  0
 23 22  1  0
 23 24  1  0
 24 20  1  0
  7 25  1  0
  8 26  1  0
 11 27  1  0
 14 28  1  0
 16 29  1  0
 21 30  1  0
 21 31  1  0
 22 32  1  0
 22 33  1  0
 23 34  1  0
 23 35  1  0
 24 36  1  0
 24 37  1  0
M  ISO  8  25  14  26  14  27   9  28  14  29  14  30  13  31  13  32  13
M  ISO  5  33  13  34  13  35  13  36  13  37  13
M  END
>  <minimizedAffinity>  (1) 
-5.56742239

>  <minimizedRMSD>  (1) 
5.26575708

$$$$
