
     RDKit          3D

 41 44  0  0  0  0  0  0  0  0999 V2000
   41.2790   29.1620   41.3000 C   0  0  0  0  0  0  0  0  0  0  0  0
   40.4410   28.1240   41.0760 N   0  0  0  0  0  0  0  0  0  0  0  0
   41.0210   27.0260   41.5020 O   0  0  0  0  0  0  0  0  0  0  0  0
   42.2040   27.3000   41.9970 C   0  0  0  0  0  0  0  0  0  0  0  0
   42.3780   28.6290   41.8780 N   0  0  0  0  0  0  0  0  0  0  0  0
   43.2220   26.4990   42.5770 N   0  0  0  0  0  0  0  0  0  0  0  0
   44.4640   26.9980   42.4910 C   0  0  0  0  0  0  0  0  0  0  0  0
   45.5320   26.2940   43.0270 C   0  0  0  0  0  0  0  0  0  0  0  0
   45.2030   25.0790   43.6330 C   0  0  0  0  0  0  0  0  0  0  0  0
   46.1510   24.4080   44.1330 O   0  0  0  0  0  0  0  0  0  0  0  0
   43.9420   24.6040   43.7020 N   0  0  0  0  0  0  0  0  0  0  0  0
   42.9430   25.3240   43.1680 C   0  0  0  0  0  0  0  0  0  0  0  0
   41.7640   24.9080   43.2190 O   0  0  0  0  0  0  0  0  0  0  0  0
   42.0090   31.6040   41.3610 C   0  0  0  0  0  0  0  0  0  0  0  0
   41.1240   30.5930   41.0160 C   0  0  0  0  0  0  0  0  0  0  0  0
   39.9390   30.9150   40.3220 C   0  0  0  0  0  0  0  0  0  0  0  0
   39.7310   32.2430   40.0230 N   0  0  0  0  0  0  0  0  0  0  0  0
   40.6200   33.1900   40.3780 C   0  0  0  0  0  0  0  0  0  0  0  0
   41.7620   32.8790   41.0470 N   0  0  0  0  0  0  0  0  0  0  0  0
   40.4120   34.6280   40.0640 C   0  0  0  0  0  0  0  0  0  0  0  0
   39.0680   35.1000   40.6070 C   0  0  0  0  0  0  0  0  0  0  0  0
   38.7250   36.3820   39.8640 C   0  0  0  0  0  0  0  0  0  0  0  0
   39.8590   37.3430   40.0490 C   0  0  0  0  0  0  0  0  0  0  0  0
   40.8900   36.8310   41.0200 C   0  0  0  0  0  0  0  0  0  0  0  0
   41.4750   35.5030   40.6540 C   0  0  0  0  0  0  0  0  0  0  0  0
   44.6354   27.9651   41.9956 H   0  0  0  0  0  0  0  0  0  0  0  0
   46.5659   26.6663   42.9784 H   0  0  0  0  0  0  0  0  0  0  0  0
   43.7486   23.7011   44.1583 H   0  0  0  0  0  0  0  0  0  0  0  0
   42.9319   31.3511   41.9035 H   0  0  0  0  0  0  0  0  0  0  0  0
   39.2137   30.1402   40.0327 H   0  0  0  0  0  0  0  0  0  0  0  0
   40.4485   34.7119   38.9678 H   0  0  0  0  0  0  0  0  0  0  0  0
   38.2962   34.3377   40.4248 H   0  0  0  0  0  0  0  0  0  0  0  0
   39.1169   35.2716   41.6924 H   0  0  0  0  0  0  0  0  0  0  0  0
   37.7995   36.8139   40.2726 H   0  0  0  0  0  0  0  0  0  0  0  0
   38.5715   36.1741   38.7948 H   0  0  0  0  0  0  0  0  0  0  0  0
   40.3427   37.5109   39.0754 H   0  0  0  0  0  0  0  0  0  0  0  0
   39.4454   38.2764   40.4586 H   0  0  0  0  0  0  0  0  0  0  0  0
   41.7077   37.5648   41.0729 H   0  0  0  0  0  0  0  0  0  0  0  0
   40.3755   36.6940   41.9825 H   0  0  0  0  0  0  0  0  0  0  0  0
   41.8849   35.0233   41.5550 H   0  0  0  0  0  0  0  0  0  0  0  0
   42.2772   35.6495   39.9158 H   0  0  0  0  0  0  0  0  0  0  0  0
  1  5  1  0
  2  1  2  0
  2  3  1  0
  3  4  1  0
  4  6  1  0
  5  4  2  0
  6 12  1  0
  7  6  1  0
  7  8  2  0
  8  9  1  0
  9 11  1  0
  9 10  2  0
 12 13  2  0
 12 11  1  0
 15  1  1  0
 15 14  2  0
 16 15  1  0
 17 16  2  0
 17 18  1  0
 18 19  2  0
 19 14  1  0
 20 18  1  0
 20 21  1  0
 20 25  1  0
 22 23  1  0
 22 21  1  0
 23 24  1  0
 25 24  1  0
  7 26  1  0
  8 27  1  0
 11 28  1  0
 14 29  1  0
 16 30  1  0
 20 31  1  0
 21 32  1  0
 21 33  1  0
 22 34  1  0
 22 35  1  0
 23 36  1  0
 23 37  1  0
 24 38  1  0
 24 39  1  0
 25 40  1  0
 25 41  1  0
M  ISO  8  26  14  27  14  28   9  29  14  30  14  31  13  32  13  33  13
M  ISO  8  34  13  35  13  36  13  37  13  38  13  39  13  40  13  41  13
M  END
>  <minimizedAffinity>  (1) 
-5.53996086

>  <minimizedRMSD>  (1) 
3.26039314

$$$$
