
     RDKit          3D

 27 29  0  0  0  0  0  0  0  0999 V2000
   40.1450   30.9590   41.3770 C   0  0  0  0  0  0  0  0  0  0  0  0
   39.5570   29.8590   40.8890 N   0  0  0  0  0  0  0  0  0  0  0  0
   39.9990   28.8180   41.5700 O   0  0  0  0  0  0  0  0  0  0  0  0
   40.8540   29.2020   42.4790 C   0  0  0  0  0  0  0  0  0  0  0  0
   40.9640   30.5500   42.3800 N   0  0  0  0  0  0  0  0  0  0  0  0
   41.6010   28.4930   43.4520 N   0  0  0  0  0  0  0  0  0  0  0  0
   42.7350   29.1040   43.8590 C   0  0  0  0  0  0  0  0  0  0  0  0
   43.5460   28.5180   44.7990 C   0  0  0  0  0  0  0  0  0  0  0  0
   43.1010   27.2780   45.2740 C   0  0  0  0  0  0  0  0  0  0  0  0
   43.8060   26.6860   46.1420 O   0  0  0  0  0  0  0  0  0  0  0  0
   41.9660   26.6950   44.8480 N   0  0  0  0  0  0  0  0  0  0  0  0
   41.2110   27.3080   43.9310 C   0  0  0  0  0  0  0  0  0  0  0  0
   40.1500   26.7830   43.5210 O   0  0  0  0  0  0  0  0  0  0  0  0
   41.0420   33.2460   40.6890 C   0  0  0  0  0  0  0  0  0  0  0  0
   40.0130   32.3680   40.9870 C   0  0  0  0  0  0  0  0  0  0  0  0
   38.6920   32.8320   40.9240 C   0  0  0  0  0  0  0  0  0  0  0  0
   38.5050   34.1460   40.5650 N   0  0  0  0  0  0  0  0  0  0  0  0
   39.5390   34.9580   40.2840 C   0  0  0  0  0  0  0  0  0  0  0  0
   40.8000   34.5120   40.3460 N   0  0  0  0  0  0  0  0  0  0  0  0
   39.3270   36.3570   39.9020 C   0  0  0  0  0  0  0  0  0  0  0  0
   40.0660   37.2860   40.3230 O   0  0  0  0  0  0  0  0  0  0  0  0
   43.0111   30.0800   43.4333 H   0  0  0  0  0  0  0  0  0  0  0  0
   44.4759   28.9874   45.1527 H   0  0  0  0  0  0  0  0  0  0  0  0
   41.6801   25.7807   45.2266 H   0  0  0  0  0  0  0  0  0  0  0  0
   42.0821   32.8912   40.7363 H   0  0  0  0  0  0  0  0  0  0  0  0
   37.8412   32.1731   41.1520 H   0  0  0  0  0  0  0  0  0  0  0  0
   38.4954   36.6037   39.2256 H   0  0  0  0  0  0  0  0  0  0  0  0
  1  5  1  0
  2  1  2  0
  2  3  1  0
  3  4  1  0
  4  6  1  0
  5  4  2  0
  6  7  1  0
  6 12  1  0
  7  8  2  0
  8  9  1  0
  9 10  2  0
 11  9  1  0
 12 11  1  0
 13 12  2  0
 14 15  2  0
 15  1  1  0
 16 15  1  0
 17 16  2  0
 18 19  2  0
 18 17  1  0
 19 14  1  0
 20 18  1  0
 20 21  2  0
  7 22  1  0
  8 23  1  0
 11 24  1  0
 14 25  1  0
 16 26  1  0
 20 27  1  0
M  ISO  6  22  14  23  14  24   9  25  14  26  14  27   6
M  END
>  <minimizedAffinity>  (1) 
-4.99600506

>  <minimizedRMSD>  (1) 
1.66492879

$$$$
