
     RDKit          3D

 31 34  0  0  0  0  0  0  0  0999 V2000
   41.0340   29.4010   41.4580 C   0  0  0  0  0  0  0  0  0  0  0  0
   40.1530   28.4000   41.2540 N   0  0  0  0  0  0  0  0  0  0  0  0
   40.7150   27.2700   41.6280 O   0  0  0  0  0  0  0  0  0  0  0  0
   41.9250   27.4920   42.0660 C   0  0  0  0  0  0  0  0  0  0  0  0
   42.1440   28.8230   41.9690 N   0  0  0  0  0  0  0  0  0  0  0  0
   42.9380   26.6390   42.5780 N   0  0  0  0  0  0  0  0  0  0  0  0
   44.1970   27.1050   42.4630 C   0  0  0  0  0  0  0  0  0  0  0  0
   45.2640   26.3700   42.9220 C   0  0  0  0  0  0  0  0  0  0  0  0
   44.9230   25.1390   43.4970 C   0  0  0  0  0  0  0  0  0  0  0  0
   45.8570   24.4050   43.9440 O   0  0  0  0  0  0  0  0  0  0  0  0
   43.6560   24.6960   43.6010 N   0  0  0  0  0  0  0  0  0  0  0  0
   42.6610   25.4550   43.1370 C   0  0  0  0  0  0  0  0  0  0  0  0
   41.4660   25.0640   43.2200 O   0  0  0  0  0  0  0  0  0  0  0  0
   41.9360   31.7050   40.8840 C   0  0  0  0  0  0  0  0  0  0  0  0
   40.9050   30.8400   41.2100 C   0  0  0  0  0  0  0  0  0  0  0  0
   39.5950   31.3380   41.3250 C   0  0  0  0  0  0  0  0  0  0  0  0
   39.4230   32.6830   41.1010 N   0  0  0  0  0  0  0  0  0  0  0  0
   40.4610   33.4850   40.7860 C   0  0  0  0  0  0  0  0  0  0  0  0
   41.7080   33.0070   40.6770 N   0  0  0  0  0  0  0  0  0  0  0  0
   40.2300   34.9250   40.5540 C   0  0  0  0  0  0  0  0  0  0  0  0
   38.9950   35.2910   40.0560 C   0  0  0  0  0  0  0  0  0  0  0  0
   39.1250   37.1290   39.9180 S   0  0  0  0  0  0  0  0  0  0  0  0
   40.9160   37.0460   40.5950 C   0  0  0  0  0  0  0  0  0  0  0  0
   41.0540   35.9430   40.7580 N   0  0  0  0  0  0  0  0  0  0  0  0
   44.3731   28.0854   41.9962 H   0  0  0  0  0  0  0  0  0  0  0  0
   46.3036   26.7208   42.8440 H   0  0  0  0  0  0  0  0  0  0  0  0
   43.4569   23.7826   44.0333 H   0  0  0  0  0  0  0  0  0  0  0  0
   42.9605   31.3148   40.7936 H   0  0  0  0  0  0  0  0  0  0  0  0
   38.7493   30.6831   41.5817 H   0  0  0  0  0  0  0  0  0  0  0  0
   38.1413   34.6452   39.8029 H   0  0  0  0  0  0  0  0  0  0  0  0
   41.6257   37.8665   40.7770 H   0  0  0  0  0  0  0  0  0  0  0  0
  1  5  1  0
  2  1  2  0
  2  3  1  0
  3  4  1  0
  4  6  1  0
  5  4  2  0
  6 12  1  0
  7  6  1  0
  7  8  2  0
  8  9  1  0
  9 11  1  0
  9 10  2  0
 12 13  2  0
 12 11  1  0
 14 15  2  0
 15 16  1  0
 15  1  1  0
 17 16  2  0
 18 17  1  0
 19 18  2  0
 19 14  1  0
 20 24  1  0
 20 18  1  0
 21 20  2  0
 22 21  1  0
 22 23  1  0
 23 24  2  0
  7 25  1  0
  8 26  1  0
 11 27  1  0
 14 28  1  0
 16 29  1  0
 21 30  1  0
 23 31  1  0
M  ISO  7  25  14  26  14  27   9  28  14  29  14  30  14  31  14
M  END
>  <minimizedAffinity>  (1) 
-4.83281136

>  <minimizedRMSD>  (1) 
2.99018598

$$$$
