
     RDKit          3D

 40 42  0  0  1  0  0  0  0  0999 V2000
   39.2620   25.8910   42.1220 C   0  0  1  0  0  0  0  0  0  0  0  0
   39.1020   24.4560   41.5520 C   0  0  0  0  0  0  0  0  0  0  0  0
   37.7430   24.0210   41.8250 C   0  0  0  0  0  0  0  0  0  0  0  0
   36.9920   25.3300   42.1550 C   0  0  0  0  0  0  0  0  0  0  0  0
   38.0010   26.1000   42.8270 C   0  0  2  0  0  0  0  0  0  0  0  0
   41.8300   26.9290   44.6750 C   0  0  0  0  0  0  0  0  0  0  0  0
   40.6210   26.8750   43.9790 C   0  0  0  0  0  0  0  0  0  0  0  0
   40.4720   26.0170   42.8870 C   0  0  0  0  0  0  0  0  0  0  0  0
   41.5440   25.2370   42.5290 N   0  0  0  0  0  0  0  0  0  0  0  0
   42.7070   25.2940   43.2060 C   0  0  0  0  0  0  0  0  0  0  0  0
   42.8540   26.1340   44.2720 N   0  0  0  0  0  0  0  0  0  0  0  0
   37.5000   27.4870   42.9460 C   0  0  2  0  0  0  0  0  0  0  0  0
   36.4830   27.7170   44.0010 C   0  0  0  0  0  0  0  0  0  0  0  0
   36.9660   27.7460   41.5850 C   0  0  0  0  0  0  0  0  0  0  0  0
   37.0900   29.1380   41.3290 N   0  0  0  0  0  0  0  0  0  0  0  0
   36.1090   30.0380   41.0630 C   0  0  0  0  0  0  0  0  0  0  0  0
   36.6630   31.2580   40.8030 C   0  0  0  0  0  0  0  0  0  0  0  0
   38.0000   31.0620   40.9220 N   0  0  0  0  0  0  0  0  0  0  0  0
   38.2540   29.7760   41.2400 C   0  0  0  0  0  0  0  0  0  0  0  0
   39.9670   29.5810   41.3380 S   0  0  0  0  0  0  0  0  0  0  0  0
   39.4055   26.6878   41.3774 H   0  0  0  0  0  0  0  0  0  0  0  0
   39.8176   23.7774   42.0393 H   0  0  0  0  0  0  0  0  0  0  0  0
   39.2992   24.4472   40.4698 H   0  0  0  0  0  0  0  0  0  0  0  0
   37.3048   23.5302   40.9435 H   0  0  0  0  0  0  0  0  0  0  0  0
   37.6895   23.2846   42.6404 H   0  0  0  0  0  0  0  0  0  0  0  0
   36.6495   25.8346   41.2395 H   0  0  0  0  0  0  0  0  0  0  0  0
   36.0823   25.1771   42.7543 H   0  0  0  0  0  0  0  0  0  0  0  0
   38.2119   25.7930   43.8620 H   0  0  0  0  0  0  0  0  0  0  0  0
   41.9508   27.6040   45.5351 H   0  0  0  0  0  0  0  0  0  0  0  0
   39.7808   27.5120   44.2925 H   0  0  0  0  0  0  0  0  0  0  0  0
   43.5481   24.6563   42.8963 H   0  0  0  0  0  0  0  0  0  0  0  0
   38.2972   28.1729   43.2685 H   0  0  0  0  0  0  0  0  0  0  0  0
   36.9511   27.6111   44.9908 H   0  0  0  0  0  0  0  0  0  0  0  0
   36.0700   28.7312   43.8973 H   0  0  0  0  0  0  0  0  0  0  0  0
   35.6738   26.9792   43.8973 H   0  0  0  0  0  0  0  0  0  0  0  0
   37.5425   27.1757   40.8418 H   0  0  0  0  0  0  0  0  0  0  0  0
   35.9130   27.4349   41.5191 H   0  0  0  0  0  0  0  0  0  0  0  0
   35.0313   29.8175   41.0578 H   0  0  0  0  0  0  0  0  0  0  0  0
   36.1409   32.1932   40.5524 H   0  0  0  0  0  0  0  0  0  0  0  0
   40.3472   29.5377   42.6535 H   0  0  0  0  0  0  0  0  0  0  0  0
  1  5  1  0
  1  8  1  0
  2  3  1  0
  2  1  1  0
  3  4  1  0
  4  5  1  0
  5 12  1  0
  7  6  2  0
  8  7  1  0
  9  8  2  0
  9 10  1  0
 10 11  2  0
 11  6  1  0
 12 13  1  0
 14 12  1  0
 15 14  1  0
 16 15  1  0
 17 18  1  0
 17 16  2  0
 18 19  2  0
 19 15  1  0
 19 20  1  0
  1 21  1  6
  2 22  1  0
  2 23  1  0
  3 24  1  0
  3 25  1  0
  4 26  1  0
  4 27  1  0
  5 28  1  1
  6 29  1  0
  7 30  1  0
 10 31  1  0
 12 32  1  1
 13 33  1  0
 13 34  1  0
 13 35  1  0
 14 36  1  0
 14 37  1  0
 16 38  1  0
 17 39  1  0
 20 40  1  0
M  ISO  8  21  13  22  13  23  13  24  13  25  13  26  13  27  13  28  13
M  ISO  8  29  14  30  14  31  14  32   8  33   8  34   8  35   8  36   8
M  ISO  4  37   8  38  14  39  14  40  11
M  END
>  <minimizedAffinity>  (1) 
-5.20317888

>  <minimizedRMSD>  (1) 
0.373380035

$$$$
