
     RDKit          3D

 28 30  0  0  0  0  0  0  0  0999 V2000
   40.4200   28.8910   42.5910 C   0  0  0  0  0  0  0  0  0  0  0  0
   40.1440   27.7220   43.1830 N   0  0  0  0  0  0  0  0  0  0  0  0
   41.1670   27.3840   43.9330 O   0  0  0  0  0  0  0  0  0  0  0  0
   42.1100   28.2930   43.8560 C   0  0  0  0  0  0  0  0  0  0  0  0
   41.6590   29.2430   43.0190 N   0  0  0  0  0  0  0  0  0  0  0  0
   43.3850   28.3970   44.4600 N   0  0  0  0  0  0  0  0  0  0  0  0
   44.2720   29.1660   43.7850 C   0  0  0  0  0  0  0  0  0  0  0  0
   45.5480   29.3480   44.2690 C   0  0  0  0  0  0  0  0  0  0  0  0
   45.8180   28.6860   45.4730 C   0  0  0  0  0  0  0  0  0  0  0  0
   46.9720   28.8060   45.9790 O   0  0  0  0  0  0  0  0  0  0  0  0
   44.9190   27.9280   46.1230 N   0  0  0  0  0  0  0  0  0  0  0  0
   43.6910   27.7850   45.6060 C   0  0  0  0  0  0  0  0  0  0  0  0
   42.8260   27.0850   46.1870 O   0  0  0  0  0  0  0  0  0  0  0  0
   39.4540   31.0850   41.7060 C   0  0  0  0  0  0  0  0  0  0  0  0
   39.6330   29.7120   41.6590 C   0  0  0  0  0  0  0  0  0  0  0  0
   39.0130   28.9770   40.6270 C   0  0  0  0  0  0  0  0  0  0  0  0
   38.2600   29.6780   39.7180 N   0  0  0  0  0  0  0  0  0  0  0  0
   38.1210   31.0170   39.8130 C   0  0  0  0  0  0  0  0  0  0  0  0
   38.7110   31.7100   40.7960 N   0  0  0  0  0  0  0  0  0  0  0  0
   37.2890   31.6710   38.7820 C   0  0  0  0  0  0  0  0  0  0  0  0
   36.7260   32.8230   39.2890 F   0  0  0  0  0  0  0  0  0  0  0  0
   38.0420   31.9910   37.6740 F   0  0  0  0  0  0  0  0  0  0  0  0
   36.2360   30.8400   38.4180 F   0  0  0  0  0  0  0  0  0  0  0  0
   43.9710   29.6486   42.8435 H   0  0  0  0  0  0  0  0  0  0  0  0
   46.2966   29.9650   43.7506 H   0  0  0  0  0  0  0  0  0  0  0  0
   45.1704   27.4630   47.0070 H   0  0  0  0  0  0  0  0  0  0  0  0
   39.9330   31.6669   42.5072 H   0  0  0  0  0  0  0  0  0  0  0  0
   39.1283   27.8855   40.5535 H   0  0  0  0  0  0  0  0  0  0  0  0
  1  5  1  0
  1  2  2  0
  2  3  1  0
  4  3  1  0
  4  6  1  0
  5  4  2  0
  6 12  1  0
  7  8  2  0
  7  6  1  0
  8  9  1  0
  9 10  2  0
  9 11  1  0
 12 11  1  0
 12 13  2  0
 15 14  2  0
 15  1  1  0
 16 15  1  0
 17 18  1  0
 17 16  2  0
 18 19  2  0
 19 14  1  0
 20 21  1  0
 20 18  1  0
 22 20  1  0
 23 20  1  0
  7 24  1  0
  8 25  1  0
 11 26  1  0
 14 27  1  0
 16 28  1  0
M  ISO  5  24  14  25  14  26   9  27  14  28  14
M  END
>  <minimizedAffinity>  (1) 
-4.57673931

>  <minimizedRMSD>  (1) 
3.2455225

$$$$
