
     RDKit          3D

 42 45  0  0  0  0  0  0  0  0999 V2000
   37.3130   29.2580   41.0310 C   0  0  0  0  0  0  0  0  0  0  0  0
   37.5960   27.9620   41.3950 C   0  0  0  0  0  0  0  0  0  0  0  0
   36.9350   26.9070   40.7170 C   0  0  0  0  0  0  0  0  0  0  0  0
   36.0450   27.2580   39.7300 N   0  0  0  0  0  0  0  0  0  0  0  0
   35.8130   28.5500   39.4220 C   0  0  0  0  0  0  0  0  0  0  0  0
   36.4430   29.5450   40.0670 N   0  0  0  0  0  0  0  0  0  0  0  0
   37.0840   25.5170   40.9390 N   0  0  0  0  0  0  0  0  0  0  0  0
   37.1170   24.8370   42.2240 C   0  0  0  0  0  0  0  0  0  0  0  0
   38.3840   24.0260   42.3860 C   0  0  0  0  0  0  0  0  0  0  0  0
   38.5910   23.1280   41.2670 N   0  0  0  0  0  0  0  0  0  0  0  0
   38.6070   23.9020   40.0520 C   0  0  0  0  0  0  0  0  0  0  0  0
   37.2300   24.5140   39.8790 C   0  0  0  0  0  0  0  0  0  0  0  0
   38.5270   27.5080   42.4310 C   0  0  0  0  0  0  0  0  0  0  0  0
   38.3760   27.3200   43.7430 N   0  0  0  0  0  0  0  0  0  0  0  0
   39.5120   26.9000   44.2530 O   0  0  0  0  0  0  0  0  0  0  0  0
   40.4130   26.8030   43.3200 C   0  0  0  0  0  0  0  0  0  0  0  0
   39.8090   27.1790   42.1840 N   0  0  0  0  0  0  0  0  0  0  0  0
   41.7760   26.4030   43.3350 N   0  0  0  0  0  0  0  0  0  0  0  0
   42.2350   25.9240   42.1490 C   0  0  0  0  0  0  0  0  0  0  0  0
   43.5500   25.5040   42.0420 C   0  0  0  0  0  0  0  0  0  0  0  0
   44.3040   25.6180   43.2050 C   0  0  0  0  0  0  0  0  0  0  0  0
   45.5180   25.2500   43.1770 O   0  0  0  0  0  0  0  0  0  0  0  0
   43.8120   26.0970   44.3570 N   0  0  0  0  0  0  0  0  0  0  0  0
   42.5390   26.4910   44.4170 C   0  0  0  0  0  0  0  0  0  0  0  0
   42.0550   26.9400   45.4740 O   0  0  0  0  0  0  0  0  0  0  0  0
   34.8390   28.8290   38.3470 C   0  0  0  0  0  0  0  0  0  0  0  0
   35.2610   29.8880   37.5760 F   0  0  0  0  0  0  0  0  0  0  0  0
   34.6430   27.7230   37.5610 F   0  0  0  0  0  0  0  0  0  0  0  0
   33.6210   29.2200   38.9140 F   0  0  0  0  0  0  0  0  0  0  0  0
   37.8217   30.0818   41.5530 H   0  0  0  0  0  0  0  0  0  0  0  0
   37.0666   25.5868   43.0273 H   0  0  0  0  0  0  0  0  0  0  0  0
   36.2580   24.1519   42.2757 H   0  0  0  0  0  0  0  0  0  0  0  0
   39.2406   24.7126   42.4556 H   0  0  0  0  0  0  0  0  0  0  0  0
   38.2898   23.4205   43.2995 H   0  0  0  0  0  0  0  0  0  0  0  0
   39.4899   22.6375   41.3776 H   0  0  0  0  0  0  0  0  0  0  0  0
   39.3642   24.6967   40.1236 H   0  0  0  0  0  0  0  0  0  0  0  0
   38.8568   23.2642   39.1913 H   0  0  0  0  0  0  0  0  0  0  0  0
   37.1473   24.9904   38.8910 H   0  0  0  0  0  0  0  0  0  0  0  0
   36.4431   23.7482   39.9449 H   0  0  0  0  0  0  0  0  0  0  0  0
   41.5651   25.8702   41.2782 H   0  0  0  0  0  0  0  0  0  0  0  0
   43.9682   25.1086   41.1046 H   0  0  0  0  0  0  0  0  0  0  0  0
   44.4136   26.1603   45.1906 H   0  0  0  0  0  0  0  0  0  0  0  0
  1  2  2  0
  2 13  1  0
  3  7  1  0
  3  2  1  0
  4  3  2  0
  5  4  1  0
  5  6  2  0
  6  1  1  0
  7  8  1  0
  8  9  1  0
 10  9  1  0
 11 10  1  0
 12 11  1  0
 12  7  1  0
 13 14  2  0
 14 15  1  0
 16 18  1  0
 16 15  1  0
 17 13  1  0
 17 16  2  0
 18 24  1  0
 19 18  1  0
 20 19  2  0
 20 21  1  0
 21 23  1  0
 22 21  2  0
 23 24  1  0
 24 25  2  0
 26 29  1  0
 26  5  1  0
 27 26  1  0
 28 26  1  0
  1 30  1  0
  8 31  1  0
  8 32  1  0
  9 33  1  0
  9 34  1  0
 10 35  1  0
 11 36  1  0
 11 37  1  0
 12 38  1  0
 12 39  1  0
 19 40  1  0
 20 41  1  0
 23 42  1  0
M  ISO  8  30  14  31  13  32  13  33  13  34  13  35   5  36  13  37  13
M  ISO  5  38  13  39  13  40  14  41  14  42   9
M  END
>  <minimizedAffinity>  (1) 
-6.22516441

>  <minimizedRMSD>  (1) 
3.2351501

$$$$
