
     RDKit          3D

 41 44  0  0  0  0  0  0  0  0999 V2000
   40.8570   31.6560   41.4120 C   0  0  0  0  0  0  0  0  0  0  0  0
   40.0430   30.6040   41.0610 C   0  0  0  0  0  0  0  0  0  0  0  0
   38.8190   30.8690   40.4360 C   0  0  0  0  0  0  0  0  0  0  0  0
   38.4900   32.1830   40.2040 N   0  0  0  0  0  0  0  0  0  0  0  0
   39.3280   33.1860   40.5700 C   0  0  0  0  0  0  0  0  0  0  0  0
   40.4950   32.9210   41.1660 N   0  0  0  0  0  0  0  0  0  0  0  0
   40.2970   29.1740   41.2780 C   0  0  0  0  0  0  0  0  0  0  0  0
   39.5590   28.0930   41.0160 N   0  0  0  0  0  0  0  0  0  0  0  0
   40.2290   27.0270   41.3980 O   0  0  0  0  0  0  0  0  0  0  0  0
   41.3800   27.3680   41.9010 C   0  0  0  0  0  0  0  0  0  0  0  0
   41.4490   28.7060   41.8400 N   0  0  0  0  0  0  0  0  0  0  0  0
   42.4470   26.6070   42.4440 N   0  0  0  0  0  0  0  0  0  0  0  0
   43.6620   27.2200   42.3930 C   0  0  0  0  0  0  0  0  0  0  0  0
   44.7810   26.5950   42.8830 C   0  0  0  0  0  0  0  0  0  0  0  0
   44.5480   25.3110   43.4180 C   0  0  0  0  0  0  0  0  0  0  0  0
   45.5330   24.6750   43.8890 O   0  0  0  0  0  0  0  0  0  0  0  0
   43.3270   24.7230   43.4560 N   0  0  0  0  0  0  0  0  0  0  0  0
   42.2750   25.3870   42.9620 C   0  0  0  0  0  0  0  0  0  0  0  0
   41.1320   24.8770   42.9790 O   0  0  0  0  0  0  0  0  0  0  0  0
   35.9810   28.2900   38.5900 C   0  0  0  0  0  0  0  0  0  0  0  0
   35.8710   28.5150   39.9560 C   0  0  0  0  0  0  0  0  0  0  0  0
   36.7660   29.3340   40.6160 C   0  0  0  0  0  0  0  0  0  0  0  0
   37.7890   29.9530   39.9490 C   0  0  0  0  0  0  0  0  0  0  0  0
   37.9100   29.7330   38.5720 C   0  0  0  0  0  0  0  0  0  0  0  0
   37.0060   28.9090   37.9250 C   0  0  0  0  0  0  0  0  0  0  0  0
   34.8400   27.2580   37.7510 S   0  0  0  0  0  0  0  0  0  0  0  0
   33.5990   28.0580   37.4570 O   0  0  0  0  0  0  0  0  0  0  0  0
   35.4560   26.8730   36.4360 O   0  0  0  0  0  0  0  0  0  0  0  0
   38.8960   34.5690   40.2890 C   0  0  0  0  0  0  0  0  0  0  0  0
   38.7640   35.2780   41.4530 F   0  0  0  0  0  0  0  0  0  0  0  0
   39.8040   35.1940   39.4560 F   0  0  0  0  0  0  0  0  0  0  0  0
   37.6340   34.5520   39.6870 F   0  0  0  0  0  0  0  0  0  0  0  0
   41.8207   31.4544   41.9026 H   0  0  0  0  0  0  0  0  0  0  0  0
   43.7471   28.2254   41.9550 H   0  0  0  0  0  0  0  0  0  0  0  0
   45.7787   27.0578   42.8604 H   0  0  0  0  0  0  0  0  0  0  0  0
   43.2109   23.7818   43.8580 H   0  0  0  0  0  0  0  0  0  0  0  0
   35.0589   28.0337   40.5207 H   0  0  0  0  0  0  0  0  0  0  0  0
   36.6548   29.4921   41.6989 H   0  0  0  0  0  0  0  0  0  0  0  0
   38.7214   30.2137   38.0058 H   0  0  0  0  0  0  0  0  0  0  0  0
   37.1140   28.7460   36.8425 H   0  0  0  0  0  0  0  0  0  0  0  0
   34.5378   26.1556   38.5061 H   0  0  0  0  0  0  0  0  0  0  0  0
  2  7  1  0
  2  1  2  0
  3  2  1  0
  4  3  2  0
  4  5  1  0
  5  6  2  0
  6  1  1  0
  7 11  1  0
  8  7  2  0
  8  9  1  0
  9 10  1  0
 10 12  1  0
 11 10  2  0
 12 18  1  0
 13 12  1  0
 13 14  2  0
 14 15  1  0
 15 17  1  0
 15 16  2  0
 18 19  2  0
 18 17  1  0
 20 21  2  0
 21 22  1  0
 23  3  1  0
 23 22  2  0
 24 23  1  0
 25 24  2  0
 25 20  1  0
 26 20  1  0
 27 26  2  0
 28 26  2  0
 29  5  1  0
 29 30  1  0
 31 29  1  0
 32 29  1  0
  1 33  1  0
 13 34  1  0
 14 35  1  0
 17 36  1  0
 21 37  1  0
 22 38  1  0
 24 39  1  0
 25 40  1  0
 26 41  1  0
M  ISO  8  33  14  34  14  35  14  36   9  37  14  38  14  39  14  40  14
M  ISO  1  41  11
M  END
>  <minimizedAffinity>  (1) 
-6.05277681

>  <minimizedRMSD>  (1) 
4.08138132

$$$$
