
     RDKit          3D

 38 41  0  0  0  0  0  0  0  0999 V2000
   39.0470   29.9290   40.7530 C   0  0  0  0  0  0  0  0  0  0  0  0
   39.0090   28.6150   41.1580 C   0  0  0  0  0  0  0  0  0  0  0  0
   38.1980   27.7080   40.4540 C   0  0  0  0  0  0  0  0  0  0  0  0
   37.4830   28.1870   39.3880 N   0  0  0  0  0  0  0  0  0  0  0  0
   37.5550   29.4830   39.0320 C   0  0  0  0  0  0  0  0  0  0  0  0
   38.3340   30.3510   39.7110 N   0  0  0  0  0  0  0  0  0  0  0  0
   39.7420   28.0080   42.2820 C   0  0  0  0  0  0  0  0  0  0  0  0
   39.3800   27.7170   43.5250 N   0  0  0  0  0  0  0  0  0  0  0  0
   40.3920   27.1800   44.1590 O   0  0  0  0  0  0  0  0  0  0  0  0
   41.4310   27.1010   43.3640 C   0  0  0  0  0  0  0  0  0  0  0  0
   41.0310   27.6150   42.2000 N   0  0  0  0  0  0  0  0  0  0  0  0
   42.7440   26.6100   43.5570 N   0  0  0  0  0  0  0  0  0  0  0  0
   43.3690   26.2040   42.4180 C   0  0  0  0  0  0  0  0  0  0  0  0
   44.6510   25.7050   42.4650 C   0  0  0  0  0  0  0  0  0  0  0  0
   45.2150   25.6610   43.7450 C   0  0  0  0  0  0  0  0  0  0  0  0
   46.3910   25.2150   43.8770 O   0  0  0  0  0  0  0  0  0  0  0  0
   44.5700   26.0680   44.8390 N   0  0  0  0  0  0  0  0  0  0  0  0
   43.3250   26.5470   44.7480 C   0  0  0  0  0  0  0  0  0  0  0  0
   42.7030   26.9330   45.7560 O   0  0  0  0  0  0  0  0  0  0  0  0
   37.9990   26.2850   40.7090 C   0  0  0  0  0  0  0  0  0  0  0  0
   37.0350   25.8320   41.6130 C   0  0  0  0  0  0  0  0  0  0  0  0
   36.8740   24.4790   41.8400 C   0  0  0  0  0  0  0  0  0  0  0  0
   37.6600   23.5590   41.1810 C   0  0  0  0  0  0  0  0  0  0  0  0
   38.6050   24.0300   40.2940 C   0  0  0  0  0  0  0  0  0  0  0  0
   38.7960   25.3740   40.0400 C   0  0  0  0  0  0  0  0  0  0  0  0
   36.7560   29.9330   37.8720 C   0  0  0  0  0  0  0  0  0  0  0  0
   36.9300   31.2710   37.6500 F   0  0  0  0  0  0  0  0  0  0  0  0
   37.0760   29.2100   36.7540 F   0  0  0  0  0  0  0  0  0  0  0  0
   35.3990   29.7580   38.1690 F   0  0  0  0  0  0  0  0  0  0  0  0
   39.6783   30.6445   41.3003 H   0  0  0  0  0  0  0  0  0  0  0  0
   42.8458   26.2752   41.4530 H   0  0  0  0  0  0  0  0  0  0  0  0
   45.1897   25.3675   41.5673 H   0  0  0  0  0  0  0  0  0  0  0  0
   45.0327   26.0131   45.7576 H   0  0  0  0  0  0  0  0  0  0  0  0
   36.4014   26.5559   42.1464 H   0  0  0  0  0  0  0  0  0  0  0  0
   36.1115   24.1329   42.5533 H   0  0  0  0  0  0  0  0  0  0  0  0
   37.5373   22.4802   41.3573 H   0  0  0  0  0  0  0  0  0  0  0  0
   39.2360   23.3013   39.7641 H   0  0  0  0  0  0  0  0  0  0  0  0
   39.5612   25.7107   39.3251 H   0  0  0  0  0  0  0  0  0  0  0  0
  1  2  2  0
  2  7  1  0
  3 20  1  0
  3  2  1  0
  4  3  2  0
  5  4  1  0
  5  6  2  0
  6  1  1  0
  7  8  2  0
  8  9  1  0
 10 12  1  0
 10  9  1  0
 11  7  1  0
 11 10  2  0
 12 18  1  0
 13 14  2  0
 13 12  1  0
 14 15  1  0
 15 16  2  0
 15 17  1  0
 18 17  1  0
 18 19  2  0
 20 21  2  0
 21 22  1  0
 23 22  2  0
 24 23  1  0
 25 24  2  0
 25 20  1  0
 26 29  1  0
 26  5  1  0
 27 26  1  0
 28 26  1  0
  1 30  1  0
 13 31  1  0
 14 32  1  0
 17 33  1  0
 21 34  1  0
 22 35  1  0
 23 36  1  0
 24 37  1  0
 25 38  1  0
M  ISO  8  30  14  31  14  32  14  33   9  34  14  35  14  36  14  37  14
M  ISO  1  38  14
M  END
>  <minimizedAffinity>  (1) 
-5.89580822

>  <minimizedRMSD>  (1) 
2.24818659

$$$$
