
     RDKit          3D

 44 47  0  0  0  0  0  0  0  0999 V2000
   39.4210   30.2190   40.7110 C   0  0  0  0  0  0  0  0  0  0  0  0
   39.2630   28.8900   41.0930 C   0  0  0  0  0  0  0  0  0  0  0  0
   38.3480   28.0810   40.4190 C   0  0  0  0  0  0  0  0  0  0  0  0
   37.6410   28.6690   39.3940 N   0  0  0  0  0  0  0  0  0  0  0  0
   37.8160   29.9520   39.0540 C   0  0  0  0  0  0  0  0  0  0  0  0
   38.6960   30.7140   39.7060 N   0  0  0  0  0  0  0  0  0  0  0  0
   39.9960   28.2070   42.1780 C   0  0  0  0  0  0  0  0  0  0  0  0
   39.6510   27.9060   43.4230 N   0  0  0  0  0  0  0  0  0  0  0  0
   40.6510   27.2890   43.9980 O   0  0  0  0  0  0  0  0  0  0  0  0
   41.6650   27.1700   43.1590 C   0  0  0  0  0  0  0  0  0  0  0  0
   41.2680   27.7370   42.0220 N   0  0  0  0  0  0  0  0  0  0  0  0
   42.9340   26.5910   43.3120 N   0  0  0  0  0  0  0  0  0  0  0  0
   43.5150   26.2100   42.1510 C   0  0  0  0  0  0  0  0  0  0  0  0
   44.7650   25.6140   42.1590 C   0  0  0  0  0  0  0  0  0  0  0  0
   45.3340   25.4560   43.4330 C   0  0  0  0  0  0  0  0  0  0  0  0
   46.4740   24.9180   43.5190 O   0  0  0  0  0  0  0  0  0  0  0  0
   44.7290   25.8480   44.5780 N   0  0  0  0  0  0  0  0  0  0  0  0
   43.5270   26.4130   44.4850 C   0  0  0  0  0  0  0  0  0  0  0  0
   42.9410   26.7870   45.5360 O   0  0  0  0  0  0  0  0  0  0  0  0
   38.0320   26.6710   40.6720 C   0  0  0  0  0  0  0  0  0  0  0  0
   36.9650   26.5430   41.7270 C   0  0  0  0  0  0  0  0  0  0  0  0
   36.8840   25.1390   42.2670 C   0  0  0  0  0  0  0  0  0  0  0  0
   36.9860   24.1770   41.1010 C   0  0  0  0  0  0  0  0  0  0  0  0
   36.4990   24.8720   39.8550 C   0  0  0  0  0  0  0  0  0  0  0  0
   37.4670   25.9840   39.4300 C   0  0  0  0  0  0  0  0  0  0  0  0
   37.0090   30.4870   37.9410 C   0  0  0  0  0  0  0  0  0  0  0  0
   36.9620   31.8530   37.9920 F   0  0  0  0  0  0  0  0  0  0  0  0
   37.4960   30.0680   36.7300 F   0  0  0  0  0  0  0  0  0  0  0  0
   35.6870   30.0490   38.0810 F   0  0  0  0  0  0  0  0  0  0  0  0
   40.1430   30.8608   41.2371 H   0  0  0  0  0  0  0  0  0  0  0  0
   42.9925   26.3743   41.1971 H   0  0  0  0  0  0  0  0  0  0  0  0
   45.2728   25.2895   41.2387 H   0  0  0  0  0  0  0  0  0  0  0  0
   45.1838   25.7136   45.4923 H   0  0  0  0  0  0  0  0  0  0  0  0
   38.9776   26.2037   40.9842 H   0  0  0  0  0  0  0  0  0  0  0  0
   37.1964   27.2306   42.5539 H   0  0  0  0  0  0  0  0  0  0  0  0
   35.9965   26.7914   41.2684 H   0  0  0  0  0  0  0  0  0  0  0  0
   37.7117   24.9618   42.9695 H   0  0  0  0  0  0  0  0  0  0  0  0
   35.9331   24.9910   42.7998 H   0  0  0  0  0  0  0  0  0  0  0  0
   38.0332   23.8680   40.9669 H   0  0  0  0  0  0  0  0  0  0  0  0
   36.3718   23.2856   41.2965 H   0  0  0  0  0  0  0  0  0  0  0  0
   36.4174   24.1361   39.0415 H   0  0  0  0  0  0  0  0  0  0  0  0
   35.5186   25.3236   40.0668 H   0  0  0  0  0  0  0  0  0  0  0  0
   38.2908   25.5490   38.8451 H   0  0  0  0  0  0  0  0  0  0  0  0
   36.9301   26.7218   38.8157 H   0  0  0  0  0  0  0  0  0  0  0  0
  1  2  2  0
  2  7  1  0
  3 20  1  0
  3  2  1  0
  4  3  2  0
  5  4  1  0
  5  6  2  0
  6  1  1  0
  7  8  2  0
  8  9  1  0
 10 12  1  0
 10  9  1  0
 11  7  1  0
 11 10  2  0
 12 18  1  0
 13 14  2  0
 13 12  1  0
 14 15  1  0
 15 16  2  0
 15 17  1  0
 18 17  1  0
 18 19  2  0
 20 21  1  0
 21 22  1  0
 23 22  1  0
 24 23  1  0
 25 24  1  0
 25 20  1  0
 26 27  1  0
 26 29  1  0
 26  5  1  0
 28 26  1  0
  1 30  1  0
 13 31  1  0
 14 32  1  0
 17 33  1  0
 20 34  1  0
 21 35  1  0
 21 36  1  0
 22 37  1  0
 22 38  1  0
 23 39  1  0
 23 40  1  0
 24 41  1  0
 24 42  1  0
 25 43  1  0
 25 44  1  0
M  ISO  8  30  14  31  14  32  14  33   9  34  13  35  13  36  13  37  13
M  ISO  7  38  13  39  13  40  13  41  13  42  13  43  13  44  13
M  END
>  <minimizedAffinity>  (1) 
-5.87161112

>  <minimizedRMSD>  (1) 
2.49171567

$$$$
