
     RDKit          3D

 35 38  0  0  0  0  0  0  0  0999 V2000
   37.0860   29.1350   41.5850 C   0  0  0  0  0  0  0  0  0  0  0  0
   37.6020   27.8660   41.7200 C   0  0  0  0  0  0  0  0  0  0  0  0
   37.1410   26.8620   40.8500 C   0  0  0  0  0  0  0  0  0  0  0  0
   36.1990   27.2120   39.9130 N   0  0  0  0  0  0  0  0  0  0  0  0
   35.7360   28.4630   39.8310 C   0  0  0  0  0  0  0  0  0  0  0  0
   36.1740   29.4270   40.6610 N   0  0  0  0  0  0  0  0  0  0  0  0
   38.6060   27.4080   42.6770 C   0  0  0  0  0  0  0  0  0  0  0  0
   38.5520   27.1820   43.9860 N   0  0  0  0  0  0  0  0  0  0  0  0
   39.7190   26.7790   44.4110 O   0  0  0  0  0  0  0  0  0  0  0  0
   40.5660   26.7270   43.4100 C   0  0  0  0  0  0  0  0  0  0  0  0
   39.8800   27.1170   42.3260 N   0  0  0  0  0  0  0  0  0  0  0  0
   41.9300   26.3620   43.3270 N   0  0  0  0  0  0  0  0  0  0  0  0
   42.3470   25.9670   42.1100 C   0  0  0  0  0  0  0  0  0  0  0  0
   43.6590   25.5900   41.9160 C   0  0  0  0  0  0  0  0  0  0  0  0
   44.4680   25.6560   43.0470 C   0  0  0  0  0  0  0  0  0  0  0  0
   45.6860   25.3230   42.9350 O   0  0  0  0  0  0  0  0  0  0  0  0
   44.0260   26.0530   44.2440 N   0  0  0  0  0  0  0  0  0  0  0  0
   42.7490   26.4070   44.3780 C   0  0  0  0  0  0  0  0  0  0  0  0
   42.3000   26.7860   45.4970 O   0  0  0  0  0  0  0  0  0  0  0  0
   37.5180   25.4550   40.7980 C   0  0  0  0  0  0  0  0  0  0  0  0
   36.8840   24.3510   41.3260 C   0  0  0  0  0  0  0  0  0  0  0  0
   37.6100   23.2710   41.0280 N   0  0  0  0  0  0  0  0  0  0  0  0
   38.6900   23.6510   40.3270 C   0  0  0  0  0  0  0  0  0  0  0  0
   38.6330   24.9920   40.1850 N   0  0  0  0  0  0  0  0  0  0  0  0
   34.7170   28.7650   38.7980 C   0  0  0  0  0  0  0  0  0  0  0  0
   35.1390   29.7770   37.9740 F   0  0  0  0  0  0  0  0  0  0  0  0
   34.4150   27.6480   38.0680 F   0  0  0  0  0  0  0  0  0  0  0  0
   33.5630   29.2360   39.4270 F   0  0  0  0  0  0  0  0  0  0  0  0
   37.4373   29.9297   42.2596 H   0  0  0  0  0  0  0  0  0  0  0  0
   41.6395   25.9448   41.2680 H   0  0  0  0  0  0  0  0  0  0  0  0
   44.0392   25.2607   40.9377 H   0  0  0  0  0  0  0  0  0  0  0  0
   44.6641   26.0848   45.0519 H   0  0  0  0  0  0  0  0  0  0  0  0
   35.9424   24.3585   41.8947 H   0  0  0  0  0  0  0  0  0  0  0  0
   39.4784   22.9894   39.9387 H   0  0  0  0  0  0  0  0  0  0  0  0
   39.3265   25.5704   39.6897 H   0  0  0  0  0  0  0  0  0  0  0  0
  1  2  2  0
  2  7  1  0
  3  2  1  0
  4  3  2  0
  5  4  1  0
  5  6  2  0
  6  1  1  0
  7  8  2  0
  8  9  1  0
 10  9  1  0
 11  7  1  0
 11 10  2  0
 12 10  1  0
 12 18  1  0
 13 12  1  0
 14 13  2  0
 14 15  1  0
 15 17  1  0
 16 15  2  0
 17 18  1  0
 18 19  2  0
 20  3  1  0
 20 21  2  0
 22 21  1  0
 23 22  2  0
 24 23  1  0
 24 20  1  0
 25 28  1  0
 25  5  1  0
 26 25  1  0
 27 25  1  0
  1 29  1  0
 13 30  1  0
 14 31  1  0
 17 32  1  0
 21 33  1  0
 23 34  1  0
 24 35  1  0
M  ISO  7  29  14  30  14  31  14  32   9  33  14  34  14  35   9
M  END
>  <minimizedAffinity>  (1) 
-5.84797144

>  <minimizedRMSD>  (1) 
3.23315144

$$$$
