
     RDKit          3D

 40 43  0  0  0  0  0  0  0  0999 V2000
   38.6800   29.7310   40.8480 C   0  0  0  0  0  0  0  0  0  0  0  0
   38.7890   28.4060   41.2060 C   0  0  0  0  0  0  0  0  0  0  0  0
   38.0980   27.4520   40.4490 C   0  0  0  0  0  0  0  0  0  0  0  0
   37.3420   27.8820   39.3820 N   0  0  0  0  0  0  0  0  0  0  0  0
   37.2720   29.1910   39.0780 C   0  0  0  0  0  0  0  0  0  0  0  0
   37.9310   30.0880   39.8030 N   0  0  0  0  0  0  0  0  0  0  0  0
   38.0680   26.0330   40.6410 N   0  0  0  0  0  0  0  0  0  0  0  0
   38.9660   24.9300   40.9260 C   0  0  0  0  0  0  0  0  0  0  0  0
   38.2400   24.1330   42.0200 C   0  0  0  0  0  0  0  0  0  0  0  0
   36.8180   24.5980   41.9320 C   0  0  0  0  0  0  0  0  0  0  0  0
   36.8270   25.2850   40.5620 C   0  0  0  0  0  0  0  0  0  0  0  0
   39.5600   27.8490   42.3160 C   0  0  0  0  0  0  0  0  0  0  0  0
   39.2220   27.5470   43.5670 N   0  0  0  0  0  0  0  0  0  0  0  0
   40.2740   27.0700   44.1890 O   0  0  0  0  0  0  0  0  0  0  0  0
   41.3120   27.0450   43.3830 C   0  0  0  0  0  0  0  0  0  0  0  0
   40.8710   27.5280   42.2210 N   0  0  0  0  0  0  0  0  0  0  0  0
   42.6440   26.6270   43.5760 N   0  0  0  0  0  0  0  0  0  0  0  0
   43.2890   26.2700   42.4270 C   0  0  0  0  0  0  0  0  0  0  0  0
   44.5890   25.8430   42.4640 C   0  0  0  0  0  0  0  0  0  0  0  0
   45.1610   25.8140   43.7530 C   0  0  0  0  0  0  0  0  0  0  0  0
   46.3600   25.4300   43.8690 O   0  0  0  0  0  0  0  0  0  0  0  0
   44.5010   26.1700   44.8550 N   0  0  0  0  0  0  0  0  0  0  0  0
   43.2330   26.5790   44.7620 C   0  0  0  0  0  0  0  0  0  0  0  0
   42.5860   26.9190   45.7750 O   0  0  0  0  0  0  0  0  0  0  0  0
   36.4400   29.5800   37.9220 C   0  0  0  0  0  0  0  0  0  0  0  0
   36.7500   30.8640   37.5160 F   0  0  0  0  0  0  0  0  0  0  0  0
   36.6040   28.7050   36.8850 F   0  0  0  0  0  0  0  0  0  0  0  0
   35.0940   29.5960   38.3050 F   0  0  0  0  0  0  0  0  0  0  0  0
   39.2133   30.4996   41.4267 H   0  0  0  0  0  0  0  0  0  0  0  0
   39.1221   24.3114   40.0300 H   0  0  0  0  0  0  0  0  0  0  0  0
   39.9647   25.2675   41.2402 H   0  0  0  0  0  0  0  0  0  0  0  0
   38.3097   23.0524   41.8266 H   0  0  0  0  0  0  0  0  0  0  0  0
   38.6749   24.2944   43.0174 H   0  0  0  0  0  0  0  0  0  0  0  0
   36.1133   23.7537   41.9573 H   0  0  0  0  0  0  0  0  0  0  0  0
   36.4965   25.2425   42.7634 H   0  0  0  0  0  0  0  0  0  0  0  0
   35.9603   25.9508   40.4373 H   0  0  0  0  0  0  0  0  0  0  0  0
   36.7641   24.5962   39.7067 H   0  0  0  0  0  0  0  0  0  0  0  0
   42.7600   26.3259   41.4642 H   0  0  0  0  0  0  0  0  0  0  0  0
   45.1430   25.5464   41.5612 H   0  0  0  0  0  0  0  0  0  0  0  0
   44.9663   26.1299   45.7731 H   0  0  0  0  0  0  0  0  0  0  0  0
  1  2  2  0
  2 12  1  0
  3  7  1  0
  3  2  1  0
  4  3  2  0
  5  4  1  0
  5  6  2  0
  6  1  1  0
  7  8  1  0
  8  9  1  0
 10  9  1  0
 11  7  1  0
 11 10  1  0
 12 13  2  0
 13 14  1  0
 15 17  1  0
 15 14  1  0
 16 12  1  0
 16 15  2  0
 17 23  1  0
 18 19  2  0
 18 17  1  0
 19 20  1  0
 20 21  2  0
 20 22  1  0
 23 22  1  0
 23 24  2  0
 25 28  1  0
 25  5  1  0
 26 25  1  0
 27 25  1  0
  1 29  1  0
  8 30  1  0
  8 31  1  0
  9 32  1  0
  9 33  1  0
 10 34  1  0
 10 35  1  0
 11 36  1  0
 11 37  1  0
 18 38  1  0
 19 39  1  0
 22 40  1  0
M  ISO  8  29  14  30  13  31  13  32  13  33  13  34  13  35  13  36  13
M  ISO  4  37  13  38  14  39  14  40   9
M  END
>  <minimizedAffinity>  (1) 
-5.84300709

>  <minimizedRMSD>  (1) 
2.28811669

$$$$
