
     RDKit          3D

 41 44  0  0  0  0  0  0  0  0999 V2000
   38.7150   29.8760   40.6020 C   0  0  0  0  0  0  0  0  0  0  0  0
   38.7900   28.5570   40.9850 C   0  0  0  0  0  0  0  0  0  0  0  0
   38.1070   27.5880   40.2140 C   0  0  0  0  0  0  0  0  0  0  0  0
   37.4060   28.0370   39.1210 N   0  0  0  0  0  0  0  0  0  0  0  0
   37.3710   29.3370   38.8010 C   0  0  0  0  0  0  0  0  0  0  0  0
   38.0200   30.2510   39.5340 N   0  0  0  0  0  0  0  0  0  0  0  0
   38.0580   26.1870   40.4350 N   0  0  0  0  0  0  0  0  0  0  0  0
   38.4690   25.0630   39.6180 C   0  0  0  0  0  0  0  0  0  0  0  0
   38.8530   23.9610   40.5960 C   0  0  0  0  0  0  0  0  0  0  0  0
   37.6790   23.4820   41.1470 O   0  0  0  0  0  0  0  0  0  0  0  0
   36.8280   24.4410   41.6320 C   0  0  0  0  0  0  0  0  0  0  0  0
   37.4970   25.8080   41.7120 C   0  0  0  0  0  0  0  0  0  0  0  0
   39.5130   28.0070   42.1280 C   0  0  0  0  0  0  0  0  0  0  0  0
   39.1420   27.7990   43.4000 N   0  0  0  0  0  0  0  0  0  0  0  0
   40.1530   27.2790   44.0570 O   0  0  0  0  0  0  0  0  0  0  0  0
   41.1870   27.1330   43.2650 C   0  0  0  0  0  0  0  0  0  0  0  0
   40.7900   27.5830   42.0750 N   0  0  0  0  0  0  0  0  0  0  0  0
   42.4820   26.6320   43.4840 N   0  0  0  0  0  0  0  0  0  0  0  0
   43.1100   26.1650   42.3700 C   0  0  0  0  0  0  0  0  0  0  0  0
   44.3900   25.6450   42.4560 C   0  0  0  0  0  0  0  0  0  0  0  0
   44.9390   25.6500   43.7440 C   0  0  0  0  0  0  0  0  0  0  0  0
   46.1040   25.1890   43.8930 O   0  0  0  0  0  0  0  0  0  0  0  0
   44.2990   26.1150   44.8250 N   0  0  0  0  0  0  0  0  0  0  0  0
   43.0580   26.6090   44.6830 C   0  0  0  0  0  0  0  0  0  0  0  0
   42.4370   27.0490   45.6700 O   0  0  0  0  0  0  0  0  0  0  0  0
   36.5900   29.7320   37.6050 C   0  0  0  0  0  0  0  0  0  0  0  0
   36.9630   30.9710   37.1630 F   0  0  0  0  0  0  0  0  0  0  0  0
   36.7510   28.8020   36.5920 F   0  0  0  0  0  0  0  0  0  0  0  0
   35.2400   29.8160   37.9430 F   0  0  0  0  0  0  0  0  0  0  0  0
   39.2429   30.6381   41.1940 H   0  0  0  0  0  0  0  0  0  0  0  0
   37.6400   24.7331   38.9747 H   0  0  0  0  0  0  0  0  0  0  0  0
   39.3063   25.3275   38.9554 H   0  0  0  0  0  0  0  0  0  0  0  0
   39.3792   23.1528   40.0668 H   0  0  0  0  0  0  0  0  0  0  0  0
   39.5246   24.3463   41.3773 H   0  0  0  0  0  0  0  0  0  0  0  0
   35.9550   24.5109   40.9665 H   0  0  0  0  0  0  0  0  0  0  0  0
   36.5293   24.1481   42.6493 H   0  0  0  0  0  0  0  0  0  0  0  0
   38.3014   25.7712   42.4614 H   0  0  0  0  0  0  0  0  0  0  0  0
   36.7387   26.5526   41.9959 H   0  0  0  0  0  0  0  0  0  0  0  0
   42.5979   26.2011   41.3971 H   0  0  0  0  0  0  0  0  0  0  0  0
   44.9332   25.2582   41.5811 H   0  0  0  0  0  0  0  0  0  0  0  0
   44.7512   26.0941   45.7502 H   0  0  0  0  0  0  0  0  0  0  0  0
  1  2  2  0
  2 13  1  0
  3  7  1  0
  3  2  1  0
  4  3  2  0
  5  4  1  0
  5  6  2  0
  6  1  1  0
  7 12  1  0
  8  7  1  0
  8  9  1  0
  9 10  1  0
 10 11  1  0
 11 12  1  0
 13 14  2  0
 14 15  1  0
 16 18  1  0
 16 15  1  0
 17 13  1  0
 17 16  2  0
 18 24  1  0
 19 20  2  0
 19 18  1  0
 20 21  1  0
 21 22  2  0
 21 23  1  0
 24 23  1  0
 24 25  2  0
 26 29  1  0
 26  5  1  0
 27 26  1  0
 28 26  1  0
  1 30  1  0
  8 31  1  0
  8 32  1  0
  9 33  1  0
  9 34  1  0
 11 35  1  0
 11 36  1  0
 12 37  1  0
 12 38  1  0
 19 39  1  0
 20 40  1  0
 23 41  1  0
M  ISO  8  30  14  31  13  32  13  33  13  34  13  35  13  36  13  37  13
M  ISO  4  38  13  39  14  40  14  41   9
M  END
>  <minimizedAffinity>  (1) 
-5.76398993

>  <minimizedRMSD>  (1) 
2.31930757

$$$$
