
     RDKit          3D

 36 39  0  0  0  0  0  0  0  0999 V2000
   38.9620   29.9080   40.7590 C   0  0  0  0  0  0  0  0  0  0  0  0
   38.9580   28.5800   41.1380 C   0  0  0  0  0  0  0  0  0  0  0  0
   38.1830   27.6660   40.4010 C   0  0  0  0  0  0  0  0  0  0  0  0
   37.4640   28.1480   39.3330 N   0  0  0  0  0  0  0  0  0  0  0  0
   37.5060   29.4510   39.0090 C   0  0  0  0  0  0  0  0  0  0  0  0
   38.2480   30.3190   39.7170 N   0  0  0  0  0  0  0  0  0  0  0  0
   39.6890   27.9750   42.2560 C   0  0  0  0  0  0  0  0  0  0  0  0
   39.3060   27.6730   43.5110 N   0  0  0  0  0  0  0  0  0  0  0  0
   40.3340   27.1400   44.1380 O   0  0  0  0  0  0  0  0  0  0  0  0
   41.3730   27.0800   43.3480 C   0  0  0  0  0  0  0  0  0  0  0  0
   40.9820   27.5980   42.1730 N   0  0  0  0  0  0  0  0  0  0  0  0
   42.6920   26.6020   43.5400 N   0  0  0  0  0  0  0  0  0  0  0  0
   43.3200   26.1990   42.4200 C   0  0  0  0  0  0  0  0  0  0  0  0
   44.6050   25.7140   42.4740 C   0  0  0  0  0  0  0  0  0  0  0  0
   45.1690   25.6850   43.7570 C   0  0  0  0  0  0  0  0  0  0  0  0
   46.3460   25.2520   43.8810 O   0  0  0  0  0  0  0  0  0  0  0  0
   44.5210   26.0940   44.8620 N   0  0  0  0  0  0  0  0  0  0  0  0
   43.2710   26.5540   44.7330 C   0  0  0  0  0  0  0  0  0  0  0  0
   42.6410   26.9440   45.7520 O   0  0  0  0  0  0  0  0  0  0  0  0
   38.1280   26.2470   40.7400 C   0  0  0  0  0  0  0  0  0  0  0  0
   37.0530   25.8720   41.5200 C   0  0  0  0  0  0  0  0  0  0  0  0
   36.9470   24.5250   41.8770 C   0  0  0  0  0  0  0  0  0  0  0  0
   37.8850   23.6550   41.4530 N   0  0  0  0  0  0  0  0  0  0  0  0
   38.9340   24.0440   40.6870 C   0  0  0  0  0  0  0  0  0  0  0  0
   39.0650   25.3530   40.3210 N   0  0  0  0  0  0  0  0  0  0  0  0
   36.7010   29.8730   37.8480 C   0  0  0  0  0  0  0  0  0  0  0  0
   36.9610   31.1860   37.5340 F   0  0  0  0  0  0  0  0  0  0  0  0
   37.0090   29.0980   36.7420 F   0  0  0  0  0  0  0  0  0  0  0  0
   35.3500   29.7810   38.1360 F   0  0  0  0  0  0  0  0  0  0  0  0
   39.5633   30.6336   41.3264 H   0  0  0  0  0  0  0  0  0  0  0  0
   42.8002   26.2583   41.4524 H   0  0  0  0  0  0  0  0  0  0  0  0
   45.1486   25.3749   41.5798 H   0  0  0  0  0  0  0  0  0  0  0  0
   44.9758   26.0542   45.7853 H   0  0  0  0  0  0  0  0  0  0  0  0
   36.3051   26.6083   41.8495 H   0  0  0  0  0  0  0  0  0  0  0  0
   36.1072   24.1786   42.4973 H   0  0  0  0  0  0  0  0  0  0  0  0
   39.6800   23.3046   40.3602 H   0  0  0  0  0  0  0  0  0  0  0  0
  1  2  2  0
  2  7  1  0
  3 20  1  0
  3  2  1  0
  4  3  2  0
  5  4  1  0
  5  6  2  0
  6  1  1  0
  7  8  2  0
  8  9  1  0
 10 12  1  0
 10  9  1  0
 11  7  1  0
 11 10  2  0
 12 18  1  0
 13 14  2  0
 13 12  1  0
 14 15  1  0
 15 16  2  0
 15 17  1  0
 18 17  1  0
 18 19  2  0
 20 21  2  0
 21 22  1  0
 23 22  2  0
 24 23  1  0
 25 24  2  0
 25 20  1  0
 26 29  1  0
 26  5  1  0
 27 26  1  0
 28 26  1  0
  1 30  1  0
 13 31  1  0
 14 32  1  0
 17 33  1  0
 21 34  1  0
 22 35  1  0
 24 36  1  0
M  ISO  7  30  14  31  14  32  14  33   9  34  14  35  14  36  14
M  END
>  <minimizedAffinity>  (1) 
-5.63363171

>  <minimizedRMSD>  (1) 
2.24837756

$$$$
