
     RDKit          3D

 34 36  0  0  0  0  0  0  0  0999 V2000
   39.2130   27.5710   42.9660 C   0  0  0  0  0  0  0  0  0  0  0  0
   39.2180   26.7460   44.0050 N   0  0  0  0  0  0  0  0  0  0  0  0
   40.4290   26.6690   44.4980 O   0  0  0  0  0  0  0  0  0  0  0  0
   41.2470   27.4350   43.8010 C   0  0  0  0  0  0  0  0  0  0  0  0
   40.5020   27.9980   42.8490 N   0  0  0  0  0  0  0  0  0  0  0  0
   42.6260   27.6890   43.9330 N   0  0  0  0  0  0  0  0  0  0  0  0
   43.2250   28.0860   42.7830 C   0  0  0  0  0  0  0  0  0  0  0  0
   44.5730   28.3700   42.7550 C   0  0  0  0  0  0  0  0  0  0  0  0
   45.2240   28.2100   43.9920 C   0  0  0  0  0  0  0  0  0  0  0  0
   46.4630   28.4490   44.0580 O   0  0  0  0  0  0  0  0  0  0  0  0
   44.6060   27.8190   45.1050 N   0  0  0  0  0  0  0  0  0  0  0  0
   43.2920   27.5560   45.0720 C   0  0  0  0  0  0  0  0  0  0  0  0
   42.6810   27.1860   46.1030 O   0  0  0  0  0  0  0  0  0  0  0  0
   37.6350   29.2840   41.9380 C   0  0  0  0  0  0  0  0  0  0  0  0
   38.1470   28.0070   42.0710 C   0  0  0  0  0  0  0  0  0  0  0  0
   37.6080   26.9990   41.2750 C   0  0  0  0  0  0  0  0  0  0  0  0
   36.5980   27.3360   40.4050 N   0  0  0  0  0  0  0  0  0  0  0  0
   36.1410   28.5940   40.3190 C   0  0  0  0  0  0  0  0  0  0  0  0
   36.6540   29.5630   41.0790 N   0  0  0  0  0  0  0  0  0  0  0  0
   35.0500   28.8560   39.3560 C   0  0  0  0  0  0  0  0  0  0  0  0
   35.3500   29.9470   38.5770 F   0  0  0  0  0  0  0  0  0  0  0  0
   34.8190   27.7590   38.5750 F   0  0  0  0  0  0  0  0  0  0  0  0
   33.8840   29.1870   40.0560 F   0  0  0  0  0  0  0  0  0  0  0  0
   37.9700   25.5390   41.2410 C   0  0  0  0  0  0  0  0  0  0  0  0
   36.9770   24.6750   41.9650 C   0  0  0  0  0  0  0  0  0  0  0  0
   42.6289   28.1822   41.8635 H   0  0  0  0  0  0  0  0  0  0  0  0
   45.0957   28.6942   41.8431 H   0  0  0  0  0  0  0  0  0  0  0  0
   45.1334   27.7195   45.9841 H   0  0  0  0  0  0  0  0  0  0  0  0
   38.0485   30.0929   42.5583 H   0  0  0  0  0  0  0  0  0  0  0  0
   38.0192   25.2136   40.1914 H   0  0  0  0  0  0  0  0  0  0  0  0
   38.9389   25.4266   41.7495 H   0  0  0  0  0  0  0  0  0  0  0  0
   37.1117   24.7922   43.0504 H   0  0  0  0  0  0  0  0  0  0  0  0
   35.9565   24.9776   41.6874 H   0  0  0  0  0  0  0  0  0  0  0  0
   37.1356   23.6225   41.6874 H   0  0  0  0  0  0  0  0  0  0  0  0
  1  2  2  0
  2  3  1  0
  4  6  1  0
  4  3  1  0
  5  1  1  0
  5  4  2  0
  6 12  1  0
  7  6  1  0
  8  7  2  0
  8  9  1  0
  9 10  2  0
  9 11  1  0
 12 11  1  0
 12 13  2  0
 14 15  2  0
 15  1  1  0
 16 15  1  0
 17 16  2  0
 18 17  1  0
 18 19  2  0
 19 14  1  0
 20 23  1  0
 20 18  1  0
 21 20  1  0
 22 20  1  0
 24 16  1  0
 24 25  1  0
  7 26  1  0
  8 27  1  0
 11 28  1  0
 14 29  1  0
 24 30  1  0
 24 31  1  0
 25 32  1  0
 25 33  1  0
 25 34  1  0
M  ISO  8  26  14  27  14  28   9  29  14  30   8  31   8  32   8  33   8
M  ISO  1  34   8
M  END
>  <minimizedAffinity>  (1) 
-5.31954336

>  <minimizedRMSD>  (1) 
2.50445652

$$$$
