
     RDKit          3D

 33 36  0  0  0  0  0  0  0  0999 V2000
   39.5000   30.1950   40.4930 C   0  0  0  0  0  0  0  0  0  0  0  0
   39.2600   28.8900   40.9480 C   0  0  0  0  0  0  0  0  0  0  0  0
   38.2780   28.1280   40.3190 C   0  0  0  0  0  0  0  0  0  0  0  0
   37.6090   28.7430   39.2790 N   0  0  0  0  0  0  0  0  0  0  0  0
   37.8690   29.9880   38.8780 C   0  0  0  0  0  0  0  0  0  0  0  0
   38.8070   30.7050   39.4810 N   0  0  0  0  0  0  0  0  0  0  0  0
   39.9510   28.2390   42.0550 C   0  0  0  0  0  0  0  0  0  0  0  0
   39.5570   27.9810   43.3040 N   0  0  0  0  0  0  0  0  0  0  0  0
   40.5130   27.3770   43.9500 O   0  0  0  0  0  0  0  0  0  0  0  0
   41.5550   27.2170   43.1620 C   0  0  0  0  0  0  0  0  0  0  0  0
   41.2140   27.7510   41.9830 N   0  0  0  0  0  0  0  0  0  0  0  0
   42.8360   26.6350   43.3500 N   0  0  0  0  0  0  0  0  0  0  0  0
   43.4640   26.2440   42.2320 C   0  0  0  0  0  0  0  0  0  0  0  0
   44.7170   25.6720   42.3050 C   0  0  0  0  0  0  0  0  0  0  0  0
   45.2360   25.5500   43.5980 C   0  0  0  0  0  0  0  0  0  0  0  0
   46.3830   25.0300   43.7060 O   0  0  0  0  0  0  0  0  0  0  0  0
   44.5800   25.9510   44.7050 N   0  0  0  0  0  0  0  0  0  0  0  0
   43.3700   26.4980   44.5770 C   0  0  0  0  0  0  0  0  0  0  0  0
   42.7360   26.8790   45.5770 O   0  0  0  0  0  0  0  0  0  0  0  0
   37.8780   26.7410   40.6220 C   0  0  0  0  0  0  0  0  0  0  0  0
   37.0250   26.2030   41.4960 N   0  0  0  0  0  0  0  0  0  0  0  0
   36.9740   24.9360   41.4310 O   0  0  0  0  0  0  0  0  0  0  0  0
   37.8090   24.5830   40.4920 C   0  0  0  0  0  0  0  0  0  0  0  0
   38.3760   25.6740   39.9800 N   0  0  0  0  0  0  0  0  0  0  0  0
   37.0660   30.4940   37.7530 C   0  0  0  0  0  0  0  0  0  0  0  0
   37.1540   31.8790   37.7050 F   0  0  0  0  0  0  0  0  0  0  0  0
   37.5390   29.9850   36.5520 F   0  0  0  0  0  0  0  0  0  0  0  0
   35.7290   30.1830   37.9150 F   0  0  0  0  0  0  0  0  0  0  0  0
   40.2738   30.8053   40.9816 H   0  0  0  0  0  0  0  0  0  0  0  0
   42.9789   26.3797   41.2541 H   0  0  0  0  0  0  0  0  0  0  0  0
   45.2668   25.3369   41.4132 H   0  0  0  0  0  0  0  0  0  0  0  0
   45.0064   25.8369   45.6356 H   0  0  0  0  0  0  0  0  0  0  0  0
   38.0120   23.5496   40.1743 H   0  0  0  0  0  0  0  0  0  0  0  0
  1  2  2  0
  2  7  1  0
  3 20  1  0
  3  2  1  0
  4  3  2  0
  5  4  1  0
  5  6  2  0
  6  1  1  0
  7  8  2  0
  8  9  1  0
 10 12  1  0
 10  9  1  0
 11  7  1  0
 11 10  2  0
 12 18  1  0
 13 14  2  0
 13 12  1  0
 14 15  1  0
 15 16  2  0
 15 17  1  0
 18 17  1  0
 18 19  2  0
 20 21  2  0
 22 21  1  0
 23 22  1  0
 24 23  2  0
 24 20  1  0
 25 28  1  0
 25  5  1  0
 26 25  1  0
 27 25  1  0
  1 29  1  0
 13 30  1  0
 14 31  1  0
 17 32  1  0
 23 33  1  0
M  ISO  5  29  14  30  14  31  14  32   9  33  14
M  END
>  <minimizedAffinity>  (1) 
-5.17883682

>  <minimizedRMSD>  (1) 
2.14783478

$$$$
