
     RDKit          3D

 35 38  0  0  0  0  0  0  0  0999 V2000
   38.8040   27.2010   42.5080 C   0  0  0  0  0  0  0  0  0  0  0  0
   38.6480   27.0880   43.8220 N   0  0  0  0  0  0  0  0  0  0  0  0
   39.8050   26.7700   44.3560 O   0  0  0  0  0  0  0  0  0  0  0  0
   40.7310   26.6690   43.4200 C   0  0  0  0  0  0  0  0  0  0  0  0
   40.1090   26.9360   42.2740 N   0  0  0  0  0  0  0  0  0  0  0  0
   42.1000   26.3570   43.4920 N   0  0  0  0  0  0  0  0  0  0  0  0
   42.6100   25.8480   42.3320 C   0  0  0  0  0  0  0  0  0  0  0  0
   43.9500   25.4980   42.2930 C   0  0  0  0  0  0  0  0  0  0  0  0
   44.6740   25.7000   43.4690 C   0  0  0  0  0  0  0  0  0  0  0  0
   45.8950   25.3880   43.4580 O   0  0  0  0  0  0  0  0  0  0  0  0
   44.1300   26.2000   44.5790 N   0  0  0  0  0  0  0  0  0  0  0  0
   42.8340   26.5300   44.5890 C   0  0  0  0  0  0  0  0  0  0  0  0
   42.2970   27.0030   45.6200 O   0  0  0  0  0  0  0  0  0  0  0  0
   37.0760   26.6550   40.7150 C   0  0  0  0  0  0  0  0  0  0  0  0
   37.8580   27.5290   41.4350 C   0  0  0  0  0  0  0  0  0  0  0  0
   37.7800   28.9110   41.1460 C   0  0  0  0  0  0  0  0  0  0  0  0
   36.9150   29.3090   40.1490 N   0  0  0  0  0  0  0  0  0  0  0  0
   36.1710   28.3970   39.4780 C   0  0  0  0  0  0  0  0  0  0  0  0
   36.2550   27.0850   39.7620 N   0  0  0  0  0  0  0  0  0  0  0  0
   35.2750   28.9190   38.4280 C   0  0  0  0  0  0  0  0  0  0  0  0
   35.2940   28.0740   37.3360 F   0  0  0  0  0  0  0  0  0  0  0  0
   33.9960   29.0540   38.8920 F   0  0  0  0  0  0  0  0  0  0  0  0
   35.7610   30.1430   37.9640 F   0  0  0  0  0  0  0  0  0  0  0  0
   38.5890   29.9100   41.8730 C   0  0  0  0  0  0  0  0  0  0  0  0
   38.7690   31.2940   41.4330 C   0  0  0  0  0  0  0  0  0  0  0  0
   39.8460   30.3520   41.0750 C   0  0  0  0  0  0  0  0  0  0  0  0
   41.9701   25.7185   41.4467 H   0  0  0  0  0  0  0  0  0  0  0  0
   44.4167   25.0845   41.3868 H   0  0  0  0  0  0  0  0  0  0  0  0
   44.7045   26.3313   45.4237 H   0  0  0  0  0  0  0  0  0  0  0  0
   37.1314   25.5782   40.9326 H   0  0  0  0  0  0  0  0  0  0  0  0
   38.3013   29.4957   42.8505 H   0  0  0  0  0  0  0  0  0  0  0  0
   38.1199   31.6968   40.6415 H   0  0  0  0  0  0  0  0  0  0  0  0
   38.7554   32.2606   41.9579 H   0  0  0  0  0  0  0  0  0  0  0  0
   39.9823   30.0338   40.0309 H   0  0  0  0  0  0  0  0  0  0  0  0
   40.9348   30.3022   41.2232 H   0  0  0  0  0  0  0  0  0  0  0  0
  1  2  2  0
  2  3  1  0
  4  6  1  0
  4  3  1  0
  5  1  1  0
  5  4  2  0
  6 12  1  0
  7  6  1  0
  8  7  2  0
  8  9  1  0
  9 11  1  0
 10  9  2  0
 11 12  1  0
 12 13  2  0
 14 15  2  0
 15  1  1  0
 16 15  1  0
 16 24  1  0
 17 16  2  0
 18 19  2  0
 18 17  1  0
 19 14  1  0
 20 22  1  0
 20 18  1  0
 21 20  1  0
 23 20  1  0
 25 24  1  0
 26 25  1  0
 26 24  1  0
  7 27  1  0
  8 28  1  0
 11 29  1  0
 14 30  1  0
 24 31  1  0
 25 32  1  0
 25 33  1  0
 26 34  1  0
 26 35  1  0
M  ISO  8  27  14  28  14  29   9  30  14  31  13  32  13  33  13  34  13
M  ISO  1  35  13
M  END
>  <minimizedAffinity>  (1) 
-5.12384939

>  <minimizedRMSD>  (1) 
3.38567042

$$$$
