
     RDKit          3D

 37 39  0  0  0  0  0  0  0  0999 V2000
   40.1640   27.5620   43.4030 C   0  0  0  0  0  0  0  0  0  0  0  0
   40.3890   26.4190   44.0560 N   0  0  0  0  0  0  0  0  0  0  0  0
   41.5940   26.4690   44.5630 O   0  0  0  0  0  0  0  0  0  0  0  0
   42.1810   27.6120   44.2660 C   0  0  0  0  0  0  0  0  0  0  0  0
   41.2920   28.2920   43.5450 N   0  0  0  0  0  0  0  0  0  0  0  0
   43.4520   28.1190   44.5800 N   0  0  0  0  0  0  0  0  0  0  0  0
   43.9060   29.0590   43.7060 C   0  0  0  0  0  0  0  0  0  0  0  0
   45.1510   29.6350   43.9060 C   0  0  0  0  0  0  0  0  0  0  0  0
   45.8490   29.1860   45.0210 C   0  0  0  0  0  0  0  0  0  0  0  0
   46.9900   29.6650   45.2670 O   0  0  0  0  0  0  0  0  0  0  0  0
   45.3650   28.2640   45.8500 N   0  0  0  0  0  0  0  0  0  0  0  0
   44.1680   27.7240   45.6400 C   0  0  0  0  0  0  0  0  0  0  0  0
   43.6920   26.8590   46.4010 O   0  0  0  0  0  0  0  0  0  0  0  0
   38.0330   28.9310   43.0810 C   0  0  0  0  0  0  0  0  0  0  0  0
   38.9960   28.0430   42.6540 C   0  0  0  0  0  0  0  0  0  0  0  0
   38.8800   27.5170   41.3600 C   0  0  0  0  0  0  0  0  0  0  0  0
   37.8190   27.9130   40.5940 N   0  0  0  0  0  0  0  0  0  0  0  0
   36.9090   28.7810   41.0590 C   0  0  0  0  0  0  0  0  0  0  0  0
   37.0220   29.2800   42.2870 N   0  0  0  0  0  0  0  0  0  0  0  0
   35.7980   29.1520   40.1610 C   0  0  0  0  0  0  0  0  0  0  0  0
   34.5950   28.9340   40.7750 F   0  0  0  0  0  0  0  0  0  0  0  0
   35.8970   30.4850   39.7940 F   0  0  0  0  0  0  0  0  0  0  0  0
   35.8390   28.3660   39.0130 F   0  0  0  0  0  0  0  0  0  0  0  0
   39.8220   26.5590   40.7540 C   0  0  0  0  0  0  0  0  0  0  0  0
   39.0050   25.3950   40.2290 C   0  0  0  0  0  0  0  0  0  0  0  0
   40.5460   27.2000   39.5880 C   0  0  0  0  0  0  0  0  0  0  0  0
   43.2888   29.3596   42.8465 H   0  0  0  0  0  0  0  0  0  0  0  0
   45.5598   30.3975   43.2267 H   0  0  0  0  0  0  0  0  0  0  0  0
   45.9233   27.9657   46.6625 H   0  0  0  0  0  0  0  0  0  0  0  0
   38.1000   29.3581   44.0925 H   0  0  0  0  0  0  0  0  0  0  0  0
   40.5630   26.2359   41.5000 H   0  0  0  0  0  0  0  0  0  0  0  0
   38.6010   24.8195   41.0749 H   0  0  0  0  0  0  0  0  0  0  0  0
   38.1754   25.7764   39.6156 H   0  0  0  0  0  0  0  0  0  0  0  0
   39.6457   24.7445   39.6156 H   0  0  0  0  0  0  0  0  0  0  0  0
   41.3189   27.8843   39.9678 H   0  0  0  0  0  0  0  0  0  0  0  0
   41.0178   26.4181   38.9747 H   0  0  0  0  0  0  0  0  0  0  0  0
   39.8270   27.7630   38.9747 H   0  0  0  0  0  0  0  0  0  0  0  0
  1  5  1  0
  1  2  2  0
  2  3  1  0
  4  3  1  0
  4  6  1  0
  5  4  2  0
  6 12  1  0
  7  8  2  0
  7  6  1  0
  8  9  1  0
  9 10  2  0
  9 11  1  0
 12 11  1  0
 12 13  2  0
 15 14  2  0
 15  1  1  0
 16 15  1  0
 17 18  1  0
 17 16  2  0
 18 19  2  0
 19 14  1  0
 20 21  1  0
 20 18  1  0
 22 20  1  0
 23 20  1  0
 24 16  1  0
 25 24  1  0
 26 24  1  0
  7 27  1  0
  8 28  1  0
 11 29  1  0
 14 30  1  0
 24 31  1  0
 25 32  1  0
 25 33  1  0
 25 34  1  0
 26 35  1  0
 26 36  1  0
 26 37  1  0
M  ISO  8  27  14  28  14  29   9  30  14  31   8  32   8  33   8  34   8
M  ISO  3  35   8  36   8  37   8
M  END
>  <minimizedAffinity>  (1) 
-5.06629324

>  <minimizedRMSD>  (1) 
2.09973025

$$$$
