
     RDKit          3D

 31 33  0  0  0  0  0  0  0  0999 V2000
   40.3060   28.8500   42.6180 C   0  0  0  0  0  0  0  0  0  0  0  0
   39.9680   27.7660   43.3190 N   0  0  0  0  0  0  0  0  0  0  0  0
   40.9960   27.3730   44.0290 O   0  0  0  0  0  0  0  0  0  0  0  0
   42.0140   28.1590   43.8260 C   0  0  0  0  0  0  0  0  0  0  0  0
   41.6050   29.0910   42.9470 N   0  0  0  0  0  0  0  0  0  0  0  0
   43.3430   28.1890   44.3310 N   0  0  0  0  0  0  0  0  0  0  0  0
   44.2510   28.7990   43.5520 C   0  0  0  0  0  0  0  0  0  0  0  0
   45.5650   28.8840   43.9500 C   0  0  0  0  0  0  0  0  0  0  0  0
   45.8450   28.3000   45.1850 C   0  0  0  0  0  0  0  0  0  0  0  0
   47.0360   28.3390   45.6150 O   0  0  0  0  0  0  0  0  0  0  0  0
   44.9240   27.6960   45.9430 N   0  0  0  0  0  0  0  0  0  0  0  0
   43.6590   27.6420   45.5090 C   0  0  0  0  0  0  0  0  0  0  0  0
   42.7730   27.0810   46.2010 O   0  0  0  0  0  0  0  0  0  0  0  0
   39.4350   31.0560   41.6930 C   0  0  0  0  0  0  0  0  0  0  0  0
   39.5600   29.6860   41.6830 C   0  0  0  0  0  0  0  0  0  0  0  0
   38.8990   28.9760   40.6760 C   0  0  0  0  0  0  0  0  0  0  0  0
   38.1640   29.6700   39.7520 N   0  0  0  0  0  0  0  0  0  0  0  0
   38.0750   31.0070   39.8090 C   0  0  0  0  0  0  0  0  0  0  0  0
   38.7060   31.6800   40.7710 N   0  0  0  0  0  0  0  0  0  0  0  0
   37.2660   31.7020   38.7910 C   0  0  0  0  0  0  0  0  0  0  0  0
   36.7080   32.8440   39.2960 F   0  0  0  0  0  0  0  0  0  0  0  0
   38.0300   31.9950   37.6810 F   0  0  0  0  0  0  0  0  0  0  0  0
   36.2120   30.8650   38.3990 F   0  0  0  0  0  0  0  0  0  0  0  0
   38.8700   27.5450   40.4320 C   0  0  0  0  0  0  0  0  0  0  0  0
   37.8680   26.8110   40.2450 O   0  0  0  0  0  0  0  0  0  0  0  0
   39.7950   26.5470   40.3220 O   0  0  0  0  0  0  0  0  0  0  0  0
   43.9421   29.2334   42.5897 H   0  0  0  0  0  0  0  0  0  0  0  0
   46.3370   29.3757   43.3399 H   0  0  0  0  0  0  0  0  0  0  0  0
   45.1842   27.2783   46.8478 H   0  0  0  0  0  0  0  0  0  0  0  0
   39.9436   31.6425   42.4723 H   0  0  0  0  0  0  0  0  0  0  0  0
   39.5021   25.6178   40.1461 H   0  0  0  0  0  0  0  0  0  0  0  0
  1  5  1  0
  1  2  2  0
  2  3  1  0
  4  3  1  0
  4  6  1  0
  5  4  2  0
  6 12  1  0
  7  8  2  0
  7  6  1  0
  8  9  1  0
  9 10  2  0
  9 11  1  0
 12 11  1  0
 12 13  2  0
 15 14  2  0
 15  1  1  0
 16 15  1  0
 17 18  1  0
 17 16  2  0
 18 19  2  0
 19 14  1  0
 20 21  1  0
 20 18  1  0
 22 20  1  0
 23 20  1  0
 24 16  1  0
 25 24  2  0
 26 24  1  0
  7 27  1  0
  8 28  1  0
 11 29  1  0
 14 30  1  0
 26 31  1  0
M  ISO  5  27  14  28  14  29   9  30  14  31   3
M  END
>  <minimizedAffinity>  (1) 
-4.77852726

>  <minimizedRMSD>  (1) 
0.252943516

$$$$
