
     RDKit          3D

 17 17  0  0  0  0  0  0  0  0999 V2000
   37.6860   29.0530   41.4860 C   0  0  0  0  0  0  0  0  0  0  0  0
   37.6290   27.7600   40.9350 C   0  0  0  0  0  0  0  0  0  0  0  0
   37.5810   26.6560   41.8060 C   0  0  0  0  0  0  0  0  0  0  0  0
   37.5940   26.9130   43.1510 N   0  0  0  0  0  0  0  0  0  0  0  0
   37.6490   28.1640   43.6480 C   0  0  0  0  0  0  0  0  0  0  0  0
   37.6940   29.2070   42.8120 N   0  0  0  0  0  0  0  0  0  0  0  0
   37.7370   30.2060   40.6500 N   0  0  0  0  0  0  0  0  0  0  0  0
   36.7750   31.2670   40.8130 C   0  0  0  0  0  0  0  0  0  0  0  0
   35.6070   30.9760   41.2750 N   0  0  0  0  0  0  0  0  0  0  0  0
   37.0870   32.6260   40.4750 N   0  0  0  0  0  0  0  0  0  0  0  0
   34.8370   31.6380   41.4370 H   0  0  0  0  0  0  0  0  0  0  0  0
   37.6221   27.6148   39.8446 H   0  0  0  0  0  0  0  0  0  0  0  0
   37.5348   25.6264   41.4215 H   0  0  0  0  0  0  0  0  0  0  0  0
   37.6569   28.3268   44.7359 H   0  0  0  0  0  0  0  0  0  0  0  0
   38.4652   30.2816   39.9254 H   0  0  0  0  0  0  0  0  0  0  0  0
   36.3795   33.3637   40.6020 H   0  0  0  0  0  0  0  0  0  0  0  0
   38.0185   32.8639   40.1053 H   0  0  0  0  0  0  0  0  0  0  0  0
  1  6  2  0
  2  1  1  0
  2  3  2  0
  3  4  1  0
  4  5  2  0
  6  5  1  0
  7  8  1  0
  7  1  1  0
  8  9  2  0
  9 11  1  0
 10  8  1  0
  2 12  1  0
  3 13  1  0
  5 14  1  0
  7 15  1  0
 10 16  1  0
 10 17  1  0
M  ISO  3  12  14  13  14  14  14
M  END
>  <minimizedAffinity>  (1) 
-4.16666079

>  <minimizedRMSD>  (1) 
3.9888041

$$$$
