
     RDKit          3D

 30 32  0  0  0  0  0  0  0  0999 V2000
   40.3730   28.8260   42.6380 C   0  0  0  0  0  0  0  0  0  0  0  0
   40.1100   27.6670   43.2360 N   0  0  0  0  0  0  0  0  0  0  0  0
   41.1550   27.3360   43.9740 O   0  0  0  0  0  0  0  0  0  0  0  0
   42.0890   28.2370   43.8790 C   0  0  0  0  0  0  0  0  0  0  0  0
   41.6180   29.1790   43.0460 N   0  0  0  0  0  0  0  0  0  0  0  0
   43.3790   28.3490   44.4610 N   0  0  0  0  0  0  0  0  0  0  0  0
   44.2510   29.0940   43.7600 C   0  0  0  0  0  0  0  0  0  0  0  0
   45.5380   29.2780   44.2250 C   0  0  0  0  0  0  0  0  0  0  0  0
   45.8220   28.6410   45.4360 C   0  0  0  0  0  0  0  0  0  0  0  0
   46.9850   28.7690   45.9180 O   0  0  0  0  0  0  0  0  0  0  0  0
   44.9290   27.9080   46.1050 N   0  0  0  0  0  0  0  0  0  0  0  0
   43.6920   27.7610   45.6120 C   0  0  0  0  0  0  0  0  0  0  0  0
   42.8390   27.0790   46.2200 O   0  0  0  0  0  0  0  0  0  0  0  0
   39.3080   31.0040   41.8100 C   0  0  0  0  0  0  0  0  0  0  0  0
   39.5890   29.6610   41.7140 C   0  0  0  0  0  0  0  0  0  0  0  0
   39.0800   28.9470   40.6040 C   0  0  0  0  0  0  0  0  0  0  0  0
   38.3360   29.6430   39.6880 N   0  0  0  0  0  0  0  0  0  0  0  0
   38.0990   30.9560   39.8410 C   0  0  0  0  0  0  0  0  0  0  0  0
   38.5770   31.6260   40.8860 N   0  0  0  0  0  0  0  0  0  0  0  0
   39.2760   27.5600   40.3540 N   0  0  0  0  0  0  0  0  0  0  0  0
   37.2860   31.6110   38.7990 C   0  0  0  0  0  0  0  0  0  0  0  0
   36.7330   32.7710   39.2800 F   0  0  0  0  0  0  0  0  0  0  0  0
   38.0480   31.8930   37.6820 F   0  0  0  0  0  0  0  0  0  0  0  0
   36.2250   30.7800   38.4250 F   0  0  0  0  0  0  0  0  0  0  0  0
   43.9384   29.5584   42.8131 H   0  0  0  0  0  0  0  0  0  0  0  0
   46.2828   29.8799   43.6837 H   0  0  0  0  0  0  0  0  0  0  0  0
   45.1894   27.4584   46.9944 H   0  0  0  0  0  0  0  0  0  0  0  0
   39.6944   31.5758   42.6666 H   0  0  0  0  0  0  0  0  0  0  0  0
   38.8653   27.1247   39.5157 H   0  0  0  0  0  0  0  0  0  0  0  0
   39.8286   26.9913   41.0113 H   0  0  0  0  0  0  0  0  0  0  0  0
  1  5  1  0
  1  2  2  0
  2  3  1  0
  4  3  1  0
  4  6  1  0
  5  4  2  0
  6 12  1  0
  7  8  2  0
  7  6  1  0
  8  9  1  0
  9 10  2  0
  9 11  1  0
 12 11  1  0
 12 13  2  0
 15 14  2  0
 15  1  1  0
 16 15  1  0
 17 18  1  0
 17 16  2  0
 18 19  2  0
 19 14  1  0
 20 16  1  0
 21 22  1  0
 21 18  1  0
 23 21  1  0
 24 21  1  0
  7 25  1  0
  8 26  1  0
 11 27  1  0
 14 28  1  0
 20 29  1  0
 20 30  1  0
M  ISO  4  25  14  26  14  27   9  28  14
M  END
>  <minimizedAffinity>  (1) 
-4.71786404

>  <minimizedRMSD>  (1) 
0.0930600464

$$$$
