
     RDKit          3D

 55 58  0  0  0  0  0  0  0  0999 V2000
   39.3060   30.7690   41.6480 C   0  0  0  0  0  0  0  0  0  0  0  0
   39.4150   29.3850   41.6340 C   0  0  0  0  0  0  0  0  0  0  0  0
   38.7450   28.6560   40.6250 C   0  0  0  0  0  0  0  0  0  0  0  0
   38.0230   29.4230   39.7220 N   0  0  0  0  0  0  0  0  0  0  0  0
   37.9510   30.7490   39.7830 C   0  0  0  0  0  0  0  0  0  0  0  0
   38.5870   31.4200   40.7370 N   0  0  0  0  0  0  0  0  0  0  0  0
   40.1650   28.5840   42.5760 C   0  0  0  0  0  0  0  0  0  0  0  0
   39.7770   27.7940   43.5590 N   0  0  0  0  0  0  0  0  0  0  0  0
   40.7880   27.2630   44.1550 O   0  0  0  0  0  0  0  0  0  0  0  0
   41.8980   27.6750   43.5940 C   0  0  0  0  0  0  0  0  0  0  0  0
   41.5220   28.4990   42.6100 N   0  0  0  0  0  0  0  0  0  0  0  0
   43.2740   27.4160   43.8360 N   0  0  0  0  0  0  0  0  0  0  0  0
   44.0930   27.6410   42.7870 C   0  0  0  0  0  0  0  0  0  0  0  0
   45.4510   27.4240   42.9170 C   0  0  0  0  0  0  0  0  0  0  0  0
   45.8610   26.9710   44.1800 C   0  0  0  0  0  0  0  0  0  0  0  0
   47.0900   26.7620   44.3360 O   0  0  0  0  0  0  0  0  0  0  0  0
   45.0080   26.7540   45.2130 N   0  0  0  0  0  0  0  0  0  0  0  0
   43.7060   26.9800   45.0310 C   0  0  0  0  0  0  0  0  0  0  0  0
   42.8970   26.7930   45.9520 O   0  0  0  0  0  0  0  0  0  0  0  0
   37.1370   31.4210   38.7470 C   0  0  0  0  0  0  0  0  0  0  0  0
   36.6420   32.6060   39.2380 F   0  0  0  0  0  0  0  0  0  0  0  0
   37.8770   31.6620   37.6350 F   0  0  0  0  0  0  0  0  0  0  0  0
   36.0360   30.6220   38.4080 F   0  0  0  0  0  0  0  0  0  0  0  0
   38.7220   27.1750   40.4260 C   0  0  0  0  0  0  0  0  0  0  0  0
   40.0590   26.5920   40.0640 C   0  0  0  0  0  0  0  0  0  0  0  0
   37.8840   26.9290   39.1270 C   0  0  0  0  0  0  0  0  0  0  0  0
   37.9870   26.4360   41.4790 C   0  0  0  0  0  0  0  0  0  0  0  0
   37.8840   25.0290   41.3910 N   0  0  0  0  0  0  0  0  0  0  0  0
   36.6590   24.3640   41.4700 C   0  0  0  0  0  0  0  0  0  0  0  0
   36.2880   23.6420   40.1600 C   0  0  0  0  0  0  0  0  0  0  0  0
   37.2880   22.5190   39.9990 C   0  0  0  0  0  0  0  0  0  0  0  0
   38.6840   23.0520   40.1860 C   0  0  0  0  0  0  0  0  0  0  0  0
   38.6490   24.5700   40.2520 C   0  0  0  0  0  0  0  0  0  0  0  0
   39.8262   31.3408   42.4306 H   0  0  0  0  0  0  0  0  0  0  0  0
   43.6802   27.9962   41.8312 H   0  0  0  0  0  0  0  0  0  0  0  0
   46.1583   27.5937   42.0918 H   0  0  0  0  0  0  0  0  0  0  0  0
   45.3599   26.4206   46.1218 H   0  0  0  0  0  0  0  0  0  0  0  0
   40.6142   26.3499   40.9822 H   0  0  0  0  0  0  0  0  0  0  0  0
   39.9117   25.6764   39.4724 H   0  0  0  0  0  0  0  0  0  0  0  0
   40.6297   27.3230   39.4724 H   0  0  0  0  0  0  0  0  0  0  0  0
   36.8619   26.6290   39.4014 H   0  0  0  0  0  0  0  0  0  0  0  0
   37.8476   27.8544   38.5334 H   0  0  0  0  0  0  0  0  0  0  0  0
   38.3536   26.1308   38.5334 H   0  0  0  0  0  0  0  0  0  0  0  0
   38.4814   26.6627   42.4351 H   0  0  0  0  0  0  0  0  0  0  0  0
   36.9490   26.7816   41.3645 H   0  0  0  0  0  0  0  0  0  0  0  0
   36.7141   23.6200   42.2783 H   0  0  0  0  0  0  0  0  0  0  0  0
   35.8831   25.1192   41.6641 H   0  0  0  0  0  0  0  0  0  0  0  0
   35.2671   23.2373   40.2237 H   0  0  0  0  0  0  0  0  0  0  0  0
   36.3159   24.3295   39.3018 H   0  0  0  0  0  0  0  0  0  0  0  0
   37.0894   21.7418   40.7517 H   0  0  0  0  0  0  0  0  0  0  0  0
   37.1941   22.0892   38.9908 H   0  0  0  0  0  0  0  0  0  0  0  0
   39.1045   22.6551   41.1217 H   0  0  0  0  0  0  0  0  0  0  0  0
   39.3098   22.7389   39.3373 H   0  0  0  0  0  0  0  0  0  0  0  0
   39.6783   24.9489   40.3355 H   0  0  0  0  0  0  0  0  0  0  0  0
   38.1688   24.9464   39.3367 H   0  0  0  0  0  0  0  0  0  0  0  0
  2  1  2  0
  2  7  1  0
  3  2  1  0
  4  5  1  0
  4  3  2  0
  5  6  2  0
  6  1  1  0
  7 11  1  0
  7  8  2  0
  8  9  1  0
 10 12  1  0
 10  9  1  0
 11 10  2  0
 12 18  1  0
 13 14  2  0
 13 12  1  0
 14 15  1  0
 15 16  2  0
 15 17  1  0
 18 17  1  0
 18 19  2  0
 20 21  1  0
 20  5  1  0
 22 20  1  0
 23 20  1  0
 24  3  1  0
 24 27  1  0
 25 24  1  0
 26 24  1  0
 28 29  1  0
 28 27  1  0
 30 29  1  0
 31 30  1  0
 31 32  1  0
 32 33  1  0
 33 28  1  0
  1 34  1  0
 13 35  1  0
 14 36  1  0
 17 37  1  0
 25 38  1  0
 25 39  1  0
 25 40  1  0
 26 41  1  0
 26 42  1  0
 26 43  1  0
 27 44  1  0
 27 45  1  0
 29 46  1  0
 29 47  1  0
 30 48  1  0
 30 49  1  0
 31 50  1  0
 31 51  1  0
 32 52  1  0
 32 53  1  0
 33 54  1  0
 33 55  1  0
M  ISO  8  34  14  35  14  36  14  37   9  38   8  39   8  40   8  41   8
M  ISO  8  42   8  43   8  44   8  45   8  46  13  47  13  48  13  49  13
M  ISO  6  50  13  51  13  52  13  53  13  54  13  55  13
M  END
>  <minimizedAffinity>  (1) 
-5.54728603

>  <minimizedRMSD>  (1) 
0.405039549

$$$$
