
     RDKit          3D

 49 52  0  0  0  0  0  0  0  0999 V2000
   39.1920   30.7210   41.7650 C   0  0  0  0  0  0  0  0  0  0  0  0
   39.4430   29.3680   41.6950 C   0  0  0  0  0  0  0  0  0  0  0  0
   38.9050   28.6270   40.6160 C   0  0  0  0  0  0  0  0  0  0  0  0
   38.1600   29.3760   39.7190 N   0  0  0  0  0  0  0  0  0  0  0  0
   37.9500   30.6790   39.8370 C   0  0  0  0  0  0  0  0  0  0  0  0
   38.4610   31.3520   40.8520 N   0  0  0  0  0  0  0  0  0  0  0  0
   40.2210   28.5920   42.6390 C   0  0  0  0  0  0  0  0  0  0  0  0
   39.8680   27.7060   43.5480 N   0  0  0  0  0  0  0  0  0  0  0  0
   40.8940   27.2470   44.1750 O   0  0  0  0  0  0  0  0  0  0  0  0
   41.9840   27.8020   43.7200 C   0  0  0  0  0  0  0  0  0  0  0  0
   41.5700   28.6390   42.7660 N   0  0  0  0  0  0  0  0  0  0  0  0
   43.3660   27.6890   44.0230 N   0  0  0  0  0  0  0  0  0  0  0  0
   44.2130   28.0800   43.0560 C   0  0  0  0  0  0  0  0  0  0  0  0
   45.5750   28.0000   43.2770 C   0  0  0  0  0  0  0  0  0  0  0  0
   45.9540   27.5030   44.5260 C   0  0  0  0  0  0  0  0  0  0  0  0
   47.1850   27.4180   44.7560 O   0  0  0  0  0  0  0  0  0  0  0  0
   45.0750   27.1200   45.4730 N   0  0  0  0  0  0  0  0  0  0  0  0
   43.7710   27.2130   45.2210 C   0  0  0  0  0  0  0  0  0  0  0  0
   42.9260   26.8660   46.0750 O   0  0  0  0  0  0  0  0  0  0  0  0
   37.1290   31.3280   38.7930 C   0  0  0  0  0  0  0  0  0  0  0  0
   36.6330   32.5210   39.2550 F   0  0  0  0  0  0  0  0  0  0  0  0
   37.8640   31.5480   37.6660 F   0  0  0  0  0  0  0  0  0  0  0  0
   36.0330   30.5280   38.4870 F   0  0  0  0  0  0  0  0  0  0  0  0
   39.0320   27.1590   40.3330 C   0  0  0  0  0  0  0  0  0  0  0  0
   40.4560   26.7220   40.1290 C   0  0  0  0  0  0  0  0  0  0  0  0
   38.3710   26.9230   38.9400 C   0  0  0  0  0  0  0  0  0  0  0  0
   38.2470   26.3100   41.2630 C   0  0  0  0  0  0  0  0  0  0  0  0
   37.6640   25.0610   40.7190 C   0  0  0  0  0  0  0  0  0  0  0  0
   36.4960   24.6690   40.1260 C   0  0  0  0  0  0  0  0  0  0  0  0
   36.1830   23.4030   39.7060 C   0  0  0  0  0  0  0  0  0  0  0  0
   37.1540   22.4540   39.9120 C   0  0  0  0  0  0  0  0  0  0  0  0
   38.3450   22.7830   40.5030 C   0  0  0  0  0  0  0  0  0  0  0  0
   38.5620   24.0410   40.8790 N   0  0  0  0  0  0  0  0  0  0  0  0
   39.6101   31.2973   42.6035 H   0  0  0  0  0  0  0  0  0  0  0  0
   43.8266   28.4597   42.0987 H   0  0  0  0  0  0  0  0  0  0  0  0
   46.3113   28.3072   42.5197 H   0  0  0  0  0  0  0  0  0  0  0  0
   45.4074   26.7603   46.3791 H   0  0  0  0  0  0  0  0  0  0  0  0
   40.9378   26.5741   41.1067 H   0  0  0  0  0  0  0  0  0  0  0  0
   40.4725   25.7774   39.5655 H   0  0  0  0  0  0  0  0  0  0  0  0
   40.9995   27.4947   39.5655 H   0  0  0  0  0  0  0  0  0  0  0  0
   37.3434   26.5561   39.0792 H   0  0  0  0  0  0  0  0  0  0  0  0
   38.3497   27.8691   38.3792 H   0  0  0  0  0  0  0  0  0  0  0  0
   38.9537   26.1774   38.3792 H   0  0  0  0  0  0  0  0  0  0  0  0
   38.9111   26.0296   42.0939 H   0  0  0  0  0  0  0  0  0  0  0  0
   37.3800   26.9265   41.5427 H   0  0  0  0  0  0  0  0  0  0  0  0
   35.7330   25.4461   39.9710 H   0  0  0  0  0  0  0  0  0  0  0  0
   35.2183   23.1628   39.2352 H   0  0  0  0  0  0  0  0  0  0  0  0
   36.9728   21.4154   39.5981 H   0  0  0  0  0  0  0  0  0  0  0  0
   39.1151   22.0145   40.6654 H   0  0  0  0  0  0  0  0  0  0  0  0
  2  1  2  0
  2  7  1  0
  3  2  1  0
  4  5  1  0
  4  3  2  0
  5  6  2  0
  6  1  1  0
  7 11  1  0
  7  8  2  0
  8  9  1  0
 10 12  1  0
 10  9  1  0
 11 10  2  0
 12 18  1  0
 13 14  2  0
 13 12  1  0
 14 15  1  0
 15 16  2  0
 15 17  1  0
 18 17  1  0
 18 19  2  0
 20 21  1  0
 20  5  1  0
 22 20  1  0
 23 20  1  0
 24  3  1  0
 24 27  1  0
 25 24  1  0
 26 24  1  0
 28 33  1  0
 28 27  1  0
 29 28  2  0
 30 31  2  0
 30 29  1  0
 31 32  1  0
 32 33  2  0
  1 34  1  0
 13 35  1  0
 14 36  1  0
 17 37  1  0
 25 38  1  0
 25 39  1  0
 25 40  1  0
 26 41  1  0
 26 42  1  0
 26 43  1  0
 27 44  1  0
 27 45  1  0
 29 46  1  0
 30 47  1  0
 31 48  1  0
 32 49  1  0
M  ISO  8  34  14  35  14  36  14  37   9  38   8  39   8  40   8  41   8
M  ISO  8  42   8  43   8  44   8  45   8  46  14  47  14  48  14  49  14
M  END
>  <minimizedAffinity>  (1) 
-5.51860285

>  <minimizedRMSD>  (1) 
0.636893511

$$$$
