
     RDKit          3D

 47 50  0  0  0  0  0  0  0  0999 V2000
   39.6660   30.9220   40.7560 C   0  0  0  0  0  0  0  0  0  0  0  0
   39.5140   29.5450   40.8670 C   0  0  0  0  0  0  0  0  0  0  0  0
   38.7570   28.8660   39.9070 C   0  0  0  0  0  0  0  0  0  0  0  0
   38.2140   29.6590   38.9060 N   0  0  0  0  0  0  0  0  0  0  0  0
   38.3960   30.9870   38.8520 C   0  0  0  0  0  0  0  0  0  0  0  0
   39.1130   31.6100   39.7650 N   0  0  0  0  0  0  0  0  0  0  0  0
   40.0790   28.7150   41.9120 C   0  0  0  0  0  0  0  0  0  0  0  0
   39.6040   28.3390   43.0830 N   0  0  0  0  0  0  0  0  0  0  0  0
   40.4420   27.5910   43.7080 O   0  0  0  0  0  0  0  0  0  0  0  0
   41.5230   27.4250   42.9870 C   0  0  0  0  0  0  0  0  0  0  0  0
   41.3090   28.1240   41.8580 N   0  0  0  0  0  0  0  0  0  0  0  0
   42.7450   26.7220   43.1600 N   0  0  0  0  0  0  0  0  0  0  0  0
   43.4160   26.4270   42.0440 C   0  0  0  0  0  0  0  0  0  0  0  0
   44.6130   25.7500   42.1200 C   0  0  0  0  0  0  0  0  0  0  0  0
   45.0300   25.4210   43.4230 C   0  0  0  0  0  0  0  0  0  0  0  0
   46.1190   24.8020   43.5440 O   0  0  0  0  0  0  0  0  0  0  0  0
   44.3280   25.7350   44.5280 N   0  0  0  0  0  0  0  0  0  0  0  0
   43.1790   26.3880   44.3930 C   0  0  0  0  0  0  0  0  0  0  0  0
   42.5040   26.6950   45.3920 O   0  0  0  0  0  0  0  0  0  0  0  0
   37.7560   31.7010   37.7260 C   0  0  0  0  0  0  0  0  0  0  0  0
   37.0490   32.7820   38.1920 F   0  0  0  0  0  0  0  0  0  0  0  0
   38.6810   32.1020   36.8150 F   0  0  0  0  0  0  0  0  0  0  0  0
   36.8200   30.8590   37.1010 F   0  0  0  0  0  0  0  0  0  0  0  0
   38.4620   27.4130   39.8310 C   0  0  0  0  0  0  0  0  0  0  0  0
   39.6730   26.5610   39.5440 C   0  0  0  0  0  0  0  0  0  0  0  0
   37.5800   27.2060   38.5470 C   0  0  0  0  0  0  0  0  0  0  0  0
   37.6260   26.8780   40.9270 C   0  0  0  0  0  0  0  0  0  0  0  0
   37.5520   25.3520   40.8580 C   0  0  0  0  0  0  0  0  0  0  0  0
   36.4890   24.7560   40.2270 C   0  0  0  0  0  0  0  0  0  0  0  0
   36.7040   23.3890   40.3290 C   0  0  0  0  0  0  0  0  0  0  0  0
   37.8900   23.2340   41.0170 C   0  0  0  0  0  0  0  0  0  0  0  0
   38.3590   24.4220   41.3110 O   0  0  0  0  0  0  0  0  0  0  0  0
   40.2614   31.4566   41.5108 H   0  0  0  0  0  0  0  0  0  0  0  0
   43.0131   26.7244   41.0646 H   0  0  0  0  0  0  0  0  0  0  0  0
   45.1998   25.4860   41.2278 H   0  0  0  0  0  0  0  0  0  0  0  0
   44.6756   25.4736   45.4616 H   0  0  0  0  0  0  0  0  0  0  0  0
   40.1288   26.2403   40.4924 H   0  0  0  0  0  0  0  0  0  0  0  0
   39.3699   25.6761   38.9652 H   0  0  0  0  0  0  0  0  0  0  0  0
   40.4035   27.1452   38.9652 H   0  0  0  0  0  0  0  0  0  0  0  0
   36.5492   26.9641   38.8453 H   0  0  0  0  0  0  0  0  0  0  0  0
   37.5815   28.1289   37.9484 H   0  0  0  0  0  0  0  0  0  0  0  0
   37.9919   26.3801   37.9484 H   0  0  0  0  0  0  0  0  0  0  0  0
   38.0631   27.1746   41.8918 H   0  0  0  0  0  0  0  0  0  0  0  0
   36.6092   27.2853   40.8261 H   0  0  0  0  0  0  0  0  0  0  0  0
   35.6404   25.2589   39.7401 H   0  0  0  0  0  0  0  0  0  0  0  0
   36.0579   22.5886   39.9392 H   0  0  0  0  0  0  0  0  0  0  0  0
   38.3624   22.2747   41.2753 H   0  0  0  0  0  0  0  0  0  0  0  0
  1  2  2  0
  2  7  1  0
  3  2  1  0
  4  3  2  0
  5  4  1  0
  5  6  2  0
  6  1  1  0
  7  8  2  0
  8  9  1  0
 10 12  1  0
 10  9  1  0
 11  7  1  0
 11 10  2  0
 12 18  1  0
 13 14  2  0
 13 12  1  0
 14 15  1  0
 15 16  2  0
 15 17  1  0
 18 17  1  0
 18 19  2  0
 20 21  1  0
 20  5  1  0
 22 20  1  0
 23 20  1  0
 24  3  1  0
 24 27  1  0
 25 24  1  0
 26 24  1  0
 28 27  1  0
 28 32  1  0
 29 30  1  0
 29 28  2  0
 30 31  2  0
 31 32  1  0
  1 33  1  0
 13 34  1  0
 14 35  1  0
 17 36  1  0
 25 37  1  0
 25 38  1  0
 25 39  1  0
 26 40  1  0
 26 41  1  0
 26 42  1  0
 27 43  1  0
 27 44  1  0
 29 45  1  0
 30 46  1  0
 31 47  1  0
M  ISO  8  33  14  34  14  35  14  36   9  37   8  38   8  39   8  40   8
M  ISO  7  41   8  42   8  43   8  44   8  45  14  46  14  47  14
M  END
>  <minimizedAffinity>  (1) 
-5.45450926

>  <minimizedRMSD>  (1) 
1.33407819

$$$$
