
     RDKit          3D

 48 51  0  0  0  0  0  0  0  0999 V2000
   39.1100   30.5510   41.7580 C   0  0  0  0  0  0  0  0  0  0  0  0
   39.3440   29.1850   41.7400 C   0  0  0  0  0  0  0  0  0  0  0  0
   38.7720   28.4090   40.7150 C   0  0  0  0  0  0  0  0  0  0  0  0
   38.0060   29.1080   39.7960 N   0  0  0  0  0  0  0  0  0  0  0  0
   37.8150   30.4320   39.8660 C   0  0  0  0  0  0  0  0  0  0  0  0
   38.3610   31.1470   40.8380 N   0  0  0  0  0  0  0  0  0  0  0  0
   40.1430   28.4470   42.6960 C   0  0  0  0  0  0  0  0  0  0  0  0
   39.8090   27.5950   43.6440 N   0  0  0  0  0  0  0  0  0  0  0  0
   40.8470   27.1620   44.2690 O   0  0  0  0  0  0  0  0  0  0  0  0
   41.9290   27.7030   43.7730 C   0  0  0  0  0  0  0  0  0  0  0  0
   41.5010   28.5060   42.7920 N   0  0  0  0  0  0  0  0  0  0  0  0
   43.3220   27.6080   44.0520 N   0  0  0  0  0  0  0  0  0  0  0  0
   44.1490   27.9670   43.0670 C   0  0  0  0  0  0  0  0  0  0  0  0
   45.5110   27.9050   43.2630 C   0  0  0  0  0  0  0  0  0  0  0  0
   45.9130   27.4520   44.5290 C   0  0  0  0  0  0  0  0  0  0  0  0
   47.1510   27.3820   44.7430 O   0  0  0  0  0  0  0  0  0  0  0  0
   45.0520   27.0980   45.4970 N   0  0  0  0  0  0  0  0  0  0  0  0
   43.7450   27.1740   45.2630 C   0  0  0  0  0  0  0  0  0  0  0  0
   42.9270   26.8540   46.1370 O   0  0  0  0  0  0  0  0  0  0  0  0
   36.9740   31.0420   38.8160 C   0  0  0  0  0  0  0  0  0  0  0  0
   36.5850   32.3030   39.1970 F   0  0  0  0  0  0  0  0  0  0  0  0
   37.6440   31.0960   37.6300 F   0  0  0  0  0  0  0  0  0  0  0  0
   35.7900   30.2960   38.6710 F   0  0  0  0  0  0  0  0  0  0  0  0
   38.8840   26.9370   40.5010 C   0  0  0  0  0  0  0  0  0  0  0  0
   40.2900   26.4520   40.3430 C   0  0  0  0  0  0  0  0  0  0  0  0
   38.2370   26.6430   39.0980 C   0  0  0  0  0  0  0  0  0  0  0  0
   38.0780   26.1130   41.4340 C   0  0  0  0  0  0  0  0  0  0  0  0
   37.8600   24.7110   40.8770 C   0  0  0  0  0  0  0  0  0  0  0  0
   36.5640   24.5000   40.4110 C   0  0  0  0  0  0  0  0  0  0  0  0
   36.2100   23.2800   39.8760 C   0  0  0  0  0  0  0  0  0  0  0  0
   37.0960   22.2730   39.7910 N   0  0  0  0  0  0  0  0  0  0  0  0
   38.3440   22.4910   40.2440 C   0  0  0  0  0  0  0  0  0  0  0  0
   38.7060   23.6730   40.7680 N   0  0  0  0  0  0  0  0  0  0  0  0
   39.5579   31.1590   42.5578 H   0  0  0  0  0  0  0  0  0  0  0  0
   43.7445   28.3107   42.1035 H   0  0  0  0  0  0  0  0  0  0  0  0
   46.2322   28.1902   42.4829 H   0  0  0  0  0  0  0  0  0  0  0  0
   45.3998   26.7715   46.4099 H   0  0  0  0  0  0  0  0  0  0  0  0
   40.7382   26.2974   41.3356 H   0  0  0  0  0  0  0  0  0  0  0  0
   40.2900   25.5019   39.7886 H   0  0  0  0  0  0  0  0  0  0  0  0
   40.8758   27.2000   39.7886 H   0  0  0  0  0  0  0  0  0  0  0  0
   37.2439   26.1917   39.2395 H   0  0  0  0  0  0  0  0  0  0  0  0
   38.1357   27.5835   38.5366 H   0  0  0  0  0  0  0  0  0  0  0  0
   38.8789   25.9481   38.5366 H   0  0  0  0  0  0  0  0  0  0  0  0
   38.6056   26.0395   42.3964 H   0  0  0  0  0  0  0  0  0  0  0  0
   37.0973   26.5931   41.5673 H   0  0  0  0  0  0  0  0  0  0  0  0
   35.8213   25.3092   40.4702 H   0  0  0  0  0  0  0  0  0  0  0  0
   35.1832   23.1278   39.5119 H   0  0  0  0  0  0  0  0  0  0  0  0
   39.0859   21.6811   40.1836 H   0  0  0  0  0  0  0  0  0  0  0  0
  2  1  2  0
  2  7  1  0
  3  2  1  0
  4  5  1  0
  4  3  2  0
  5  6  2  0
  6  1  1  0
  7 11  1  0
  7  8  2  0
  8  9  1  0
 10 12  1  0
 10  9  1  0
 11 10  2  0
 12 18  1  0
 13 14  2  0
 13 12  1  0
 14 15  1  0
 15 16  2  0
 15 17  1  0
 18 17  1  0
 18 19  2  0
 20 21  1  0
 20  5  1  0
 22 20  1  0
 23 20  1  0
 24  3  1  0
 24 27  1  0
 25 24  1  0
 26 24  1  0
 28 27  1  0
 29 28  2  0
 30 29  1  0
 31 30  2  0
 31 32  1  0
 32 33  2  0
 33 28  1  0
  1 34  1  0
 13 35  1  0
 14 36  1  0
 17 37  1  0
 25 38  1  0
 25 39  1  0
 25 40  1  0
 26 41  1  0
 26 42  1  0
 26 43  1  0
 27 44  1  0
 27 45  1  0
 29 46  1  0
 30 47  1  0
 32 48  1  0
M  ISO  8  34  14  35  14  36  14  37   9  38   8  39   8  40   8  41   8
M  ISO  7  42   8  43   8  44   8  45   8  46  14  47  14  48  14
M  END
>  <minimizedAffinity>  (1) 
-5.43500662

>  <minimizedRMSD>  (1) 
0.71891135

$$$$
