
     RDKit          3D

 13 13  0  0  0  0  0  0  0  0999 V2000
   36.8590   28.4110   42.4060 C   0  0  0  0  0  0  0  0  0  0  0  0
   37.8250   29.4340   42.4470 C   0  0  0  0  0  0  0  0  0  0  0  0
   37.7460   30.4370   41.4770 C   0  0  0  0  0  0  0  0  0  0  0  0
   36.7410   30.3660   40.5540 N   0  0  0  0  0  0  0  0  0  0  0  0
   35.8340   29.3700   40.5480 C   0  0  0  0  0  0  0  0  0  0  0  0
   35.8860   28.3830   41.4750 N   0  0  0  0  0  0  0  0  0  0  0  0
   36.8990   27.3190   43.4160 C   0  0  0  0  0  0  0  0  0  0  0  0
   35.8720   27.4200   44.3190 F   0  0  0  0  0  0  0  0  0  0  0  0
   38.1260   27.3270   44.0760 F   0  0  0  0  0  0  0  0  0  0  0  0
   36.7690   26.1060   42.7440 F   0  0  0  0  0  0  0  0  0  0  0  0
   38.6131   29.4436   43.2143 H   0  0  0  0  0  0  0  0  0  0  0  0
   38.4736   31.2617   41.4571 H   0  0  0  0  0  0  0  0  0  0  0  0
   35.0435   29.3578   39.7832 H   0  0  0  0  0  0  0  0  0  0  0  0
  1  2  2  0
  1  7  1  0
  3  2  1  0
  4  3  2  0
  5  4  1  0
  5  6  2  0
  6  1  1  0
  7  9  1  0
  7  8  1  0
 10  7  1  0
  2 11  1  0
  3 12  1  0
  5 13  1  0
M  ISO  3  11  14  12  14  13  14
M  END
>  <minimizedAffinity>  (1) 
-3.70104098

>  <minimizedRMSD>  (1) 
3.2761507

$$$$
