
     RDKit          3D

 45 48  0  0  0  0  0  0  0  0999 V2000
   39.7620   30.9850   40.6440 C   0  0  0  0  0  0  0  0  0  0  0  0
   39.4770   29.6450   40.8570 C   0  0  0  0  0  0  0  0  0  0  0  0
   38.5750   28.9940   39.9870 C   0  0  0  0  0  0  0  0  0  0  0  0
   38.0580   29.7930   38.9860 N   0  0  0  0  0  0  0  0  0  0  0  0
   38.3670   31.0780   38.8300 C   0  0  0  0  0  0  0  0  0  0  0  0
   39.2090   31.6700   39.6480 N   0  0  0  0  0  0  0  0  0  0  0  0
   40.0280   28.8170   41.9120 C   0  0  0  0  0  0  0  0  0  0  0  0
   39.5550   28.4780   43.0940 N   0  0  0  0  0  0  0  0  0  0  0  0
   40.3760   27.7170   43.7250 O   0  0  0  0  0  0  0  0  0  0  0  0
   41.4400   27.5060   43.0010 C   0  0  0  0  0  0  0  0  0  0  0  0
   41.2300   28.1900   41.8670 N   0  0  0  0  0  0  0  0  0  0  0  0
   42.6470   26.7690   43.1710 N   0  0  0  0  0  0  0  0  0  0  0  0
   43.2960   26.4390   42.0510 C   0  0  0  0  0  0  0  0  0  0  0  0
   44.4740   25.7280   42.1360 C   0  0  0  0  0  0  0  0  0  0  0  0
   44.8930   25.4100   43.4250 C   0  0  0  0  0  0  0  0  0  0  0  0
   45.9640   24.7610   43.5380 O   0  0  0  0  0  0  0  0  0  0  0  0
   44.2110   25.7600   44.5430 N   0  0  0  0  0  0  0  0  0  0  0  0
   43.0800   26.4460   44.4070 C   0  0  0  0  0  0  0  0  0  0  0  0
   42.4320   26.7820   45.4070 O   0  0  0  0  0  0  0  0  0  0  0  0
   37.7160   31.7840   37.6990 C   0  0  0  0  0  0  0  0  0  0  0  0
   37.0360   32.8820   38.1720 F   0  0  0  0  0  0  0  0  0  0  0  0
   38.6400   32.1830   36.7810 F   0  0  0  0  0  0  0  0  0  0  0  0
   36.7720   30.9470   37.0980 F   0  0  0  0  0  0  0  0  0  0  0  0
   38.1370   27.5860   40.0370 C   0  0  0  0  0  0  0  0  0  0  0  0
   39.2270   26.5830   39.7480 C   0  0  0  0  0  0  0  0  0  0  0  0
   37.1860   27.3720   38.7970 C   0  0  0  0  0  0  0  0  0  0  0  0
   37.2990   27.2130   41.1970 C   0  0  0  0  0  0  0  0  0  0  0  0
   37.5000   25.7390   41.4950 C   0  0  0  0  0  0  0  0  0  0  0  0
   36.8600   24.6330   41.0100 N   0  0  0  0  0  0  0  0  0  0  0  0
   37.3790   23.5750   41.5590 O   0  0  0  0  0  0  0  0  0  0  0  0
   38.3330   23.9360   42.3830 C   0  0  0  0  0  0  0  0  0  0  0  0
   38.4120   25.2890   42.3470 N   0  0  0  0  0  0  0  0  0  0  0  0
   40.4655   31.4956   41.3181 H   0  0  0  0  0  0  0  0  0  0  0  0
   42.8941   26.7319   41.0698 H   0  0  0  0  0  0  0  0  0  0  0  0
   45.0453   25.4314   41.2440 H   0  0  0  0  0  0  0  0  0  0  0  0
   44.5608   25.5005   45.4764 H   0  0  0  0  0  0  0  0  0  0  0  0
   39.6380   26.2048   40.6957 H   0  0  0  0  0  0  0  0  0  0  0  0
   38.8106   25.7456   39.1688 H   0  0  0  0  0  0  0  0  0  0  0  0
   40.0269   27.0675   39.1688 H   0  0  0  0  0  0  0  0  0  0  0  0
   36.1695   27.1433   39.1497 H   0  0  0  0  0  0  0  0  0  0  0  0
   37.1655   28.2880   38.1883 H   0  0  0  0  0  0  0  0  0  0  0  0
   37.5598   26.5355   38.1883 H   0  0  0  0  0  0  0  0  0  0  0  0
   37.5936   27.8102   42.0725 H   0  0  0  0  0  0  0  0  0  0  0  0
   36.2403   27.4061   40.9693 H   0  0  0  0  0  0  0  0  0  0  0  0
   38.9554   23.2640   42.9921 H   0  0  0  0  0  0  0  0  0  0  0  0
  1  2  2  0
  2  7  1  0
  3 24  1  0
  3  2  1  0
  4  3  2  0
  5  4  1  0
  5  6  2  0
  6  1  1  0
  7  8  2  0
  8  9  1  0
 10 12  1  0
 10  9  1  0
 11  7  1  0
 11 10  2  0
 12 18  1  0
 13 14  2  0
 13 12  1  0
 14 15  1  0
 15 16  2  0
 15 17  1  0
 18 17  1  0
 18 19  2  0
 20 21  1  0
 20  5  1  0
 22 20  1  0
 23 20  1  0
 24 27  1  0
 25 24  1  0
 26 24  1  0
 27 28  1  0
 28 32  1  0
 29 28  2  0
 29 30  1  0
 30 31  1  0
 32 31  2  0
  1 33  1  0
 13 34  1  0
 14 35  1  0
 17 36  1  0
 25 37  1  0
 25 38  1  0
 25 39  1  0
 26 40  1  0
 26 41  1  0
 26 42  1  0
 27 43  1  0
 27 44  1  0
 31 45  1  0
M  ISO  8  33  14  34  14  35  14  36   9  37   8  38   8  39   8  40   8
M  ISO  5  41   8  42   8  43   8  44   8  45  14
M  END
>  <minimizedAffinity>  (1) 
-5.39638186

>  <minimizedRMSD>  (1) 
1.47040558

$$$$
