
     RDKit          3D

 47 50  0  0  0  0  0  0  0  0999 V2000
   39.9070   30.8490   40.8370 C   0  0  0  0  0  0  0  0  0  0  0  0
   39.7540   29.4840   41.0030 C   0  0  0  0  0  0  0  0  0  0  0  0
   38.9120   28.7810   40.1250 C   0  0  0  0  0  0  0  0  0  0  0  0
   38.2930   29.5500   39.1420 N   0  0  0  0  0  0  0  0  0  0  0  0
   38.4830   30.8730   39.0330 C   0  0  0  0  0  0  0  0  0  0  0  0
   39.2830   31.5160   39.8730 N   0  0  0  0  0  0  0  0  0  0  0  0
   40.3910   28.6730   42.0200 C   0  0  0  0  0  0  0  0  0  0  0  0
   40.0170   28.3420   43.2390 N   0  0  0  0  0  0  0  0  0  0  0  0
   40.8960   27.5920   43.8070 O   0  0  0  0  0  0  0  0  0  0  0  0
   41.9020   27.3850   43.0000 C   0  0  0  0  0  0  0  0  0  0  0  0
   41.5910   28.0590   41.8790 N   0  0  0  0  0  0  0  0  0  0  0  0
   43.1270   26.6610   43.0760 N   0  0  0  0  0  0  0  0  0  0  0  0
   43.6840   26.3180   41.9140 C   0  0  0  0  0  0  0  0  0  0  0  0
   44.8730   25.6210   41.9160 C   0  0  0  0  0  0  0  0  0  0  0  0
   45.4010   25.3290   43.1790 C   0  0  0  0  0  0  0  0  0  0  0  0
   46.4850   24.6960   43.2220 O   0  0  0  0  0  0  0  0  0  0  0  0
   44.8060   25.6940   44.3410 N   0  0  0  0  0  0  0  0  0  0  0  0
   43.6630   26.3630   44.2770 C   0  0  0  0  0  0  0  0  0  0  0  0
   43.0890   26.7130   45.3270 O   0  0  0  0  0  0  0  0  0  0  0  0
   37.7660   31.5630   37.9470 C   0  0  0  0  0  0  0  0  0  0  0  0
   37.0840   32.6470   38.4410 F   0  0  0  0  0  0  0  0  0  0  0  0
   38.6240   31.9560   36.9720 F   0  0  0  0  0  0  0  0  0  0  0  0
   36.8010   30.7080   37.4000 F   0  0  0  0  0  0  0  0  0  0  0  0
   38.5890   27.3450   40.1060 C   0  0  0  0  0  0  0  0  0  0  0  0
   39.6360   26.4850   39.4180 C   0  0  0  0  0  0  0  0  0  0  0  0
   37.3490   27.1460   39.1700 C   0  0  0  0  0  0  0  0  0  0  0  0
   38.1680   26.7600   41.4040 C   0  0  0  0  0  0  0  0  0  0  0  0
   36.7500   27.2060   41.7980 C   0  0  0  0  0  0  0  0  0  0  0  0
   36.4710   27.1750   43.3370 C   0  0  0  0  0  0  0  0  0  0  0  0
   36.5900   28.4670   42.6150 C   0  0  0  0  0  0  0  0  0  0  0  0
   40.5660   31.3989   41.5249 H   0  0  0  0  0  0  0  0  0  0  0  0
   43.1997   26.5884   40.9641 H   0  0  0  0  0  0  0  0  0  0  0  0
   45.3741   25.3143   40.9861 H   0  0  0  0  0  0  0  0  0  0  0  0
   45.2304   25.4580   45.2493 H   0  0  0  0  0  0  0  0  0  0  0  0
   40.2515   25.9795   40.1767 H   0  0  0  0  0  0  0  0  0  0  0  0
   39.1371   25.7325   38.7896 H   0  0  0  0  0  0  0  0  0  0  0  0
   40.2773   27.1205   38.7896 H   0  0  0  0  0  0  0  0  0  0  0  0
   36.4468   27.0012   39.7824 H   0  0  0  0  0  0  0  0  0  0  0  0
   37.2224   28.0353   38.5351 H   0  0  0  0  0  0  0  0  0  0  0  0
   37.5070   26.2617   38.5351 H   0  0  0  0  0  0  0  0  0  0  0  0
   38.1867   25.6631   41.3230 H   0  0  0  0  0  0  0  0  0  0  0  0
   38.8648   27.1110   42.1794 H   0  0  0  0  0  0  0  0  0  0  0  0
   36.2864   26.8247   40.8762 H   0  0  0  0  0  0  0  0  0  0  0  0
   35.4929   26.8415   43.7139 H   0  0  0  0  0  0  0  0  0  0  0  0
   36.9600   26.7201   44.2110 H   0  0  0  0  0  0  0  0  0  0  0  0
   37.4641   29.1099   42.7956 H   0  0  0  0  0  0  0  0  0  0  0  0
   35.9421   29.3517   42.5283 H   0  0  0  0  0  0  0  0  0  0  0  0
  1  2  2  0
  2  7  1  0
  3  2  1  0
  4  3  2  0
  5  4  1  0
  5  6  2  0
  6  1  1  0
  7  8  2  0
  8  9  1  0
 10 12  1  0
 10  9  1  0
 11  7  1  0
 11 10  2  0
 12 18  1  0
 13 14  2  0
 13 12  1  0
 14 15  1  0
 15 16  2  0
 15 17  1  0
 18 17  1  0
 18 19  2  0
 20 21  1  0
 20  5  1  0
 22 20  1  0
 23 20  1  0
 24  3  1  0
 24 27  1  0
 25 24  1  0
 26 24  1  0
 27 28  1  0
 28 30  1  0
 28 29  1  0
 30 29  1  0
  1 31  1  0
 13 32  1  0
 14 33  1  0
 17 34  1  0
 25 35  1  0
 25 36  1  0
 25 37  1  0
 26 38  1  0
 26 39  1  0
 26 40  1  0
 27 41  1  0
 27 42  1  0
 28 43  1  0
 29 44  1  0
 29 45  1  0
 30 46  1  0
 30 47  1  0
M  ISO  8  31  14  32  14  33  14  34   9  35   8  36   8  37   8  38   8
M  ISO  8  39   8  40   8  41   8  42   8  43  13  44  13  45  13  46  13
M  ISO  1  47  13
M  END
>  <minimizedAffinity>  (1) 
-5.262537

>  <minimizedRMSD>  (1) 
1.34370005

$$$$
