
     RDKit          3D

 41 43  0  0  0  0  0  0  0  0999 V2000
   39.2870   30.7290   41.5640 C   0  0  0  0  0  0  0  0  0  0  0  0
   39.3550   29.3450   41.6000 C   0  0  0  0  0  0  0  0  0  0  0  0
   38.6440   28.6040   40.6320 C   0  0  0  0  0  0  0  0  0  0  0  0
   37.9290   29.3620   39.7200 N   0  0  0  0  0  0  0  0  0  0  0  0
   37.9000   30.6970   39.7350 C   0  0  0  0  0  0  0  0  0  0  0  0
   38.5710   31.3730   40.6470 N   0  0  0  0  0  0  0  0  0  0  0  0
   40.1030   28.5550   42.5540 C   0  0  0  0  0  0  0  0  0  0  0  0
   39.7120   27.7880   43.5550 N   0  0  0  0  0  0  0  0  0  0  0  0
   40.7180   27.2590   44.1600 O   0  0  0  0  0  0  0  0  0  0  0  0
   41.8340   27.6470   43.5920 C   0  0  0  0  0  0  0  0  0  0  0  0
   41.4610   28.4540   42.5910 N   0  0  0  0  0  0  0  0  0  0  0  0
   43.2140   27.3950   43.8200 N   0  0  0  0  0  0  0  0  0  0  0  0
   44.0320   27.5990   42.7840 C   0  0  0  0  0  0  0  0  0  0  0  0
   45.3860   27.3800   42.9260 C   0  0  0  0  0  0  0  0  0  0  0  0
   45.7900   26.9470   44.1950 C   0  0  0  0  0  0  0  0  0  0  0  0
   47.0170   26.7360   44.3660 O   0  0  0  0  0  0  0  0  0  0  0  0
   44.9350   26.7470   45.2330 N   0  0  0  0  0  0  0  0  0  0  0  0
   43.6390   26.9750   45.0360 C   0  0  0  0  0  0  0  0  0  0  0  0
   42.8260   26.8040   45.9620 O   0  0  0  0  0  0  0  0  0  0  0  0
   37.0870   31.3570   38.6890 C   0  0  0  0  0  0  0  0  0  0  0  0
   36.5920   32.5490   39.1740 F   0  0  0  0  0  0  0  0  0  0  0  0
   37.8280   31.5830   37.5720 F   0  0  0  0  0  0  0  0  0  0  0  0
   35.9790   30.5520   38.3700 F   0  0  0  0  0  0  0  0  0  0  0  0
   38.5750   27.1360   40.4890 C   0  0  0  0  0  0  0  0  0  0  0  0
   39.9120   26.4720   40.2490 C   0  0  0  0  0  0  0  0  0  0  0  0
   37.8240   26.8480   39.1370 C   0  0  0  0  0  0  0  0  0  0  0  0
   37.7560   26.4360   41.5020 C   0  0  0  0  0  0  0  0  0  0  0  0
   38.3740   24.7620   41.8740 S   0  0  0  0  0  0  0  0  0  0  0  0
   39.8410   31.3110   42.3152 H   0  0  0  0  0  0  0  0  0  0  0  0
   43.6267   27.9408   41.8202 H   0  0  0  0  0  0  0  0  0  0  0  0
   46.0977   27.5343   42.1016 H   0  0  0  0  0  0  0  0  0  0  0  0
   45.2817   26.4271   46.1486 H   0  0  0  0  0  0  0  0  0  0  0  0
   40.3837   26.2378   41.2147 H   0  0  0  0  0  0  0  0  0  0  0  0
   39.7630   25.5432   39.6788 H   0  0  0  0  0  0  0  0  0  0  0  0
   40.5620   27.1520   39.6788 H   0  0  0  0  0  0  0  0  0  0  0  0
   36.8168   26.4617   39.3521 H   0  0  0  0  0  0  0  0  0  0  0  0
   37.7435   27.7790   38.5568 H   0  0  0  0  0  0  0  0  0  0  0  0
   38.3866   26.1018   38.5568 H   0  0  0  0  0  0  0  0  0  0  0  0
   37.7626   27.0275   42.4294 H   0  0  0  0  0  0  0  0  0  0  0  0
   36.7404   26.3313   41.0927 H   0  0  0  0  0  0  0  0  0  0  0  0
   38.4375   24.5899   43.2317 H   0  0  0  0  0  0  0  0  0  0  0  0
  1  2  2  0
  2  7  1  0
  3  2  1  0
  4  5  1  0
  4  3  2  0
  5  6  2  0
  6  1  1  0
  7 11  1  0
  7  8  2  0
  8  9  1  0
 10 12  1  0
 10  9  1  0
 11 10  2  0
 12 18  1  0
 13 14  2  0
 13 12  1  0
 14 15  1  0
 15 16  2  0
 15 17  1  0
 18 17  1  0
 18 19  2  0
 20 21  1  0
 20  5  1  0
 22 20  1  0
 23 20  1  0
 24  3  1  0
 24 27  1  0
 25 24  1  0
 26 24  1  0
 27 28  1  0
  1 29  1  0
 13 30  1  0
 14 31  1  0
 17 32  1  0
 25 33  1  0
 25 34  1  0
 25 35  1  0
 26 36  1  0
 26 37  1  0
 26 38  1  0
 27 39  1  0
 27 40  1  0
 28 41  1  0
M  ISO  8  29  14  30  14  31  14  32   9  33   8  34   8  35   8  36   8
M  ISO  5  37   8  38   8  39   8  40   8  41  11
M  END
>  <minimizedAffinity>  (1) 
-4.76576662

>  <minimizedRMSD>  (1) 
0.386913836

$$$$
