
     RDKit          3D

 42 44  0  0  0  0  0  0  0  0999 V2000
   39.1210   30.6980   41.7990 C   0  0  0  0  0  0  0  0  0  0  0  0
   39.4320   29.3540   41.6840 C   0  0  0  0  0  0  0  0  0  0  0  0
   38.9710   28.6390   40.5660 C   0  0  0  0  0  0  0  0  0  0  0  0
   38.2230   29.3850   39.6610 N   0  0  0  0  0  0  0  0  0  0  0  0
   37.9550   30.6790   39.8240 C   0  0  0  0  0  0  0  0  0  0  0  0
   38.3980   31.3300   40.8810 N   0  0  0  0  0  0  0  0  0  0  0  0
   40.2100   28.5760   42.6270 C   0  0  0  0  0  0  0  0  0  0  0  0
   39.8570   27.6820   43.5320 N   0  0  0  0  0  0  0  0  0  0  0  0
   40.8860   27.2290   44.1600 O   0  0  0  0  0  0  0  0  0  0  0  0
   41.9760   27.7920   43.7120 C   0  0  0  0  0  0  0  0  0  0  0  0
   41.5690   28.6370   42.7520 N   0  0  0  0  0  0  0  0  0  0  0  0
   43.3640   27.6940   44.0130 N   0  0  0  0  0  0  0  0  0  0  0  0
   44.2090   28.0870   43.0610 C   0  0  0  0  0  0  0  0  0  0  0  0
   45.5650   28.0220   43.2950 C   0  0  0  0  0  0  0  0  0  0  0  0
   45.9420   27.5340   44.5480 C   0  0  0  0  0  0  0  0  0  0  0  0
   47.1720   27.4610   44.7980 O   0  0  0  0  0  0  0  0  0  0  0  0
   45.0540   27.1430   45.4930 N   0  0  0  0  0  0  0  0  0  0  0  0
   43.7580   27.2250   45.2200 C   0  0  0  0  0  0  0  0  0  0  0  0
   42.9210   26.8740   46.0640 O   0  0  0  0  0  0  0  0  0  0  0  0
   37.1450   31.3320   38.7720 C   0  0  0  0  0  0  0  0  0  0  0  0
   36.6310   32.5130   39.2410 F   0  0  0  0  0  0  0  0  0  0  0  0
   37.8850   31.5520   37.6560 F   0  0  0  0  0  0  0  0  0  0  0  0
   36.0340   30.5260   38.4630 F   0  0  0  0  0  0  0  0  0  0  0  0
   39.1720   27.2170   40.2380 C   0  0  0  0  0  0  0  0  0  0  0  0
   40.6240   26.8120   40.1040 C   0  0  0  0  0  0  0  0  0  0  0  0
   38.6460   26.9940   38.7740 C   0  0  0  0  0  0  0  0  0  0  0  0
   38.3900   26.2520   41.0500 C   0  0  0  0  0  0  0  0  0  0  0  0
   37.0150   26.7380   41.2950 N   0  0  0  0  0  0  0  0  0  0  0  0
   39.4823   31.2579   42.6742 H   0  0  0  0  0  0  0  0  0  0  0  0
   43.8281   28.4593   42.0986 H   0  0  0  0  0  0  0  0  0  0  0  0
   46.3040   28.3347   42.5426 H   0  0  0  0  0  0  0  0  0  0  0  0
   45.3779   26.7894   46.4046 H   0  0  0  0  0  0  0  0  0  0  0  0
   41.0642   26.6892   41.1046 H   0  0  0  0  0  0  0  0  0  0  0  0
   40.6903   25.8611   39.5550 H   0  0  0  0  0  0  0  0  0  0  0  0
   41.1729   27.5913   39.5550 H   0  0  0  0  0  0  0  0  0  0  0  0
   37.6338   26.5649   38.8095 H   0  0  0  0  0  0  0  0  0  0  0  0
   38.6175   27.9574   38.2439 H   0  0  0  0  0  0  0  0  0  0  0  0
   39.3186   26.3036   38.2439 H   0  0  0  0  0  0  0  0  0  0  0  0
   38.3397   25.2926   40.5143 H   0  0  0  0  0  0  0  0  0  0  0  0
   38.8918   26.1326   42.0216 H   0  0  0  0  0  0  0  0  0  0  0  0
   36.8475   26.7972   42.3096 H   0  0  0  0  0  0  0  0  0  0  0  0
   36.9002   27.6706   40.8730 H   0  0  0  0  0  0  0  0  0  0  0  0
  2  1  2  0
  2  7  1  0
  3  2  1  0
  4  5  1  0
  4  3  2  0
  5  6  2  0
  6  1  1  0
  7 11  1  0
  7  8  2  0
  8  9  1  0
 10 12  1  0
 10  9  1  0
 11 10  2  0
 12 18  1  0
 13 14  2  0
 13 12  1  0
 14 15  1  0
 15 16  2  0
 15 17  1  0
 18 17  1  0
 18 19  2  0
 20 21  1  0
 20  5  1  0
 22 20  1  0
 23 20  1  0
 24  3  1  0
 24 27  1  0
 25 24  1  0
 26 24  1  0
 27 28  1  0
  1 29  1  0
 13 30  1  0
 14 31  1  0
 17 32  1  0
 25 33  1  0
 25 34  1  0
 25 35  1  0
 26 36  1  0
 26 37  1  0
 26 38  1  0
 27 39  1  0
 27 40  1  0
 28 41  1  0
 28 42  1  0
M  ISO  8  29  14  30  14  31  14  32   9  33   8  34   8  35   8  36   8
M  ISO  6  37   8  38   8  39   8  40   8  41   5  42   5
M  END
>  <minimizedAffinity>  (1) 
-4.74645758

>  <minimizedRMSD>  (1) 
0.246927872

$$$$
