
     RDKit          3D

 17 18  0  0  0  0  0  0  0  0999 V2000
   37.3300   31.5380   38.6210 C   0  0  0  0  0  0  0  0  0  0  0  0
   36.5950   30.5450   39.2880 C   0  0  0  0  0  0  0  0  0  0  0  0
   36.1120   29.4720   38.5440 C   0  0  0  0  0  0  0  0  0  0  0  0
   36.3790   29.4450   37.2090 N   0  0  0  0  0  0  0  0  0  0  0  0
   37.0810   30.4070   36.6020 C   0  0  0  0  0  0  0  0  0  0  0  0
   37.5630   31.4540   37.2850 N   0  0  0  0  0  0  0  0  0  0  0  0
   37.8850   32.6900   39.2470 N   0  0  0  0  0  0  0  0  0  0  0  0
   37.4750   33.9040   39.6560 C   0  0  0  0  0  0  0  0  0  0  0  0
   38.5360   34.5430   40.1920 N   0  0  0  0  0  0  0  0  0  0  0  0
   39.6010   33.7060   40.1060 C   0  0  0  0  0  0  0  0  0  0  0  0
   39.1690   32.5720   39.5180 N   0  0  0  0  0  0  0  0  0  0  0  0
   36.3420   30.7390   41.0290 S   0  0  0  0  0  0  0  0  0  0  0  0
   35.5312   28.6688   39.0210 H   0  0  0  0  0  0  0  0  0  0  0  0
   37.2667   30.3377   35.5200 H   0  0  0  0  0  0  0  0  0  0  0  0
   36.4545   34.3053   39.5689 H   0  0  0  0  0  0  0  0  0  0  0  0
   40.6246   33.9137   40.4512 H   0  0  0  0  0  0  0  0  0  0  0  0
   37.2850   30.0159   41.7109 H   0  0  0  0  0  0  0  0  0  0  0  0
  1  7  1  0
  1  2  2  0
  2 12  1  0
  3  2  1  0
  4  3  2  0
  5  4  1  0
  5  6  2  0
  6  1  1  0
  7 11  1  0
  7  8  1  0
  8  9  2  0
 10  9  1  0
 11 10  2  0
  3 13  1  0
  5 14  1  0
  8 15  1  0
 10 16  1  0
 12 17  1  0
M  ISO  5  13  14  14  14  15  14  16  14  17  11
M  END
>  <minimizedAffinity>  (1) 
-3.38581038

>  <minimizedRMSD>  (1) 
1.81179881

$$$$
