
     RDKit          3D

 22 23  0  0  0  0  0  0  0  0999 V2000
   38.7450   31.0530   40.1860 C   0  0  0  0  0  0  0  0  0  0  0  0
   37.4350   31.5070   39.9810 C   0  0  0  0  0  0  0  0  0  0  0  0
   36.4260   31.0060   40.8020 C   0  0  0  0  0  0  0  0  0  0  0  0
   36.7790   30.0960   41.7620 N   0  0  0  0  0  0  0  0  0  0  0  0
   38.0340   29.6840   41.9320 C   0  0  0  0  0  0  0  0  0  0  0  0
   39.0290   30.1450   41.1600 N   0  0  0  0  0  0  0  0  0  0  0  0
   39.8680   31.4770   39.4350 N   0  0  0  0  0  0  0  0  0  0  0  0
   40.4740   31.2060   38.2740 C   0  0  0  0  0  0  0  0  0  0  0  0
   41.5590   31.9980   38.1370 N   0  0  0  0  0  0  0  0  0  0  0  0
   41.6120   32.7820   39.2590 C   0  0  0  0  0  0  0  0  0  0  0  0
   40.5650   32.4370   40.0270 N   0  0  0  0  0  0  0  0  0  0  0  0
   37.1540   32.4720   38.9260 C   0  0  0  0  0  0  0  0  0  0  0  0
   37.2470   33.8710   39.5030 C   0  0  0  0  0  0  0  0  0  0  0  0
   35.3818   31.3307   40.6826 H   0  0  0  0  0  0  0  0  0  0  0  0
   38.2588   28.9513   42.7210 H   0  0  0  0  0  0  0  0  0  0  0  0
   40.1402   30.4542   37.5437 H   0  0  0  0  0  0  0  0  0  0  0  0
   42.3677   33.5480   39.4876 H   0  0  0  0  0  0  0  0  0  0  0  0
   36.1418   32.3023   38.5303 H   0  0  0  0  0  0  0  0  0  0  0  0
   37.8831   32.3558   38.1106 H   0  0  0  0  0  0  0  0  0  0  0  0
   37.2433   33.8155   40.6016 H   0  0  0  0  0  0  0  0  0  0  0  0
   38.1787   34.3467   39.1630 H   0  0  0  0  0  0  0  0  0  0  0  0
   36.3864   34.4658   39.1630 H   0  0  0  0  0  0  0  0  0  0  0  0
  1  6  1  0
  2  1  2  0
  2  3  1  0
  3  4  2  0
  4  5  1  0
  6  5  2  0
  7 11  1  0
  7  1  1  0
  8  7  1  0
  9  8  2  0
  9 10  1  0
 10 11  2  0
 12 13  1  0
 12  2  1  0
  3 14  1  0
  5 15  1  0
  8 16  1  0
 10 17  1  0
 12 18  1  0
 12 19  1  0
 13 20  1  0
 13 21  1  0
 13 22  1  0
M  ISO  8  14  14  15  14  16  14  17  14  18   8  19   8  20   8  21   8
M  ISO  1  22   8
M  END
>  <minimizedAffinity>  (1) 
-3.33527565

>  <minimizedRMSD>  (1) 
3.12083602

$$$$
