
     RDKit          3D

 33 36  0  0  0  0  0  0  0  0999 V2000
   37.5180   31.0600   40.9880 C   0  0  0  0  0  0  0  0  0  0  0  0
   36.7240   28.7460   41.3720 C   0  0  0  0  0  0  0  0  0  0  0  0
   37.5640   29.8040   41.7280 C   0  0  0  0  0  0  0  0  0  0  0  0
   38.4400   29.6330   42.7960 C   0  0  0  0  0  0  0  0  0  0  0  0
   38.4260   28.4290   43.4390 N   0  0  0  0  0  0  0  0  0  0  0  0
   37.6140   27.4270   43.0830 C   0  0  0  0  0  0  0  0  0  0  0  0
   36.7600   27.5630   42.0570 N   0  0  0  0  0  0  0  0  0  0  0  0
   35.7930   28.7800   40.3150 N   0  0  0  0  0  0  0  0  0  0  0  0
   34.5550   29.1980   40.0620 C   0  0  0  0  0  0  0  0  0  0  0  0
   34.2270   28.9160   38.7840 N   0  0  0  0  0  0  0  0  0  0  0  0
   35.3130   28.3000   38.2380 C   0  0  0  0  0  0  0  0  0  0  0  0
   36.2550   28.2300   39.1990 N   0  0  0  0  0  0  0  0  0  0  0  0
   38.4140   30.9600   39.7820 C   0  0  0  0  0  0  0  0  0  0  0  0
   39.6070   31.7600   40.0910 N   0  0  0  0  0  0  0  0  0  0  0  0
   40.8770   31.3920   40.3530 C   0  0  0  0  0  0  0  0  0  0  0  0
   41.6200   32.4930   40.5800 N   0  0  0  0  0  0  0  0  0  0  0  0
   40.7940   33.5470   40.4540 C   0  0  0  0  0  0  0  0  0  0  0  0
   41.0340   34.8950   40.5830 C   0  0  0  0  0  0  0  0  0  0  0  0
   40.0370   35.7590   40.4090 N   0  0  0  0  0  0  0  0  0  0  0  0
   38.8000   35.3020   40.1080 C   0  0  0  0  0  0  0  0  0  0  0  0
   38.5300   33.9960   39.9760 N   0  0  0  0  0  0  0  0  0  0  0  0
   39.5100   33.1170   40.1450 C   0  0  0  0  0  0  0  0  0  0  0  0
   36.4857   31.2577   40.6635 H   0  0  0  0  0  0  0  0  0  0  0  0
   37.8605   31.8814   41.6345 H   0  0  0  0  0  0  0  0  0  0  0  0
   39.1192   30.4391   43.1106 H   0  0  0  0  0  0  0  0  0  0  0  0
   37.6470   26.4785   43.6391 H   0  0  0  0  0  0  0  0  0  0  0  0
   33.8969   29.6990   40.7872 H   0  0  0  0  0  0  0  0  0  0  0  0
   35.4037   27.9294   37.2063 H   0  0  0  0  0  0  0  0  0  0  0  0
   37.9045   31.3622   38.8939 H   0  0  0  0  0  0  0  0  0  0  0  0
   38.6776   29.9146   39.5637 H   0  0  0  0  0  0  0  0  0  0  0  0
   41.2481   30.3568   40.3776 H   0  0  0  0  0  0  0  0  0  0  0  0
   42.0435   35.2566   40.8284 H   0  0  0  0  0  0  0  0  0  0  0  0
   37.9863   36.0285   39.9665 H   0  0  0  0  0  0  0  0  0  0  0  0
  1  3  1  0
  2  3  1  0
  2  7  2  0
  3  4  2  0
  4  5  1  0
  6  5  2  0
  7  6  1  0
  8  2  1  0
  9  8  1  0
 10  9  2  0
 11 10  1  0
 11 12  2  0
 12  8  1  0
 13 14  1  0
 13  1  1  0
 14 22  1  0
 14 15  1  0
 15 16  2  0
 17 16  1  0
 17 18  2  0
 19 18  1  0
 20 19  2  0
 21 20  1  0
 21 22  2  0
 22 17  1  0
  1 23  1  0
  1 24  1  0
  4 25  1  0
  6 26  1  0
  9 27  1  0
 11 28  1  0
 13 29  1  0
 13 30  1  0
 15 31  1  0
 18 32  1  0
 20 33  1  0
M  ISO  8  23   8  24   8  25  14  26  14  27  14  28  14  29   8  30   8
M  ISO  3  31  14  32  14  33  14
M  END
>  <minimizedAffinity>  (1) 
-5.3294096

>  <minimizedRMSD>  (1) 
5.30033445

$$$$
