
     RDKit          3D

 28 30  0  0  0  0  0  0  0  0999 V2000
   37.3840   31.5830   38.6870 C   0  0  0  0  0  0  0  0  0  0  0  0
   36.7810   30.5550   39.4120 C   0  0  0  0  0  0  0  0  0  0  0  0
   36.3140   29.4310   38.7200 C   0  0  0  0  0  0  0  0  0  0  0  0
   36.4830   29.4150   37.3560 N   0  0  0  0  0  0  0  0  0  0  0  0
   37.0640   30.4130   36.6920 C   0  0  0  0  0  0  0  0  0  0  0  0
   37.5210   31.5010   37.3310 N   0  0  0  0  0  0  0  0  0  0  0  0
   37.8980   32.7680   39.2580 N   0  0  0  0  0  0  0  0  0  0  0  0
   37.4690   33.9580   39.6710 C   0  0  0  0  0  0  0  0  0  0  0  0
   38.5140   34.6780   40.1420 N   0  0  0  0  0  0  0  0  0  0  0  0
   39.6240   33.8800   40.0050 C   0  0  0  0  0  0  0  0  0  0  0  0
   39.2070   32.7220   39.4630 N   0  0  0  0  0  0  0  0  0  0  0  0
   36.6380   30.6470   40.8540 C   0  0  0  0  0  0  0  0  0  0  0  0
   37.8810   30.1160   41.5200 C   0  0  0  0  0  0  0  0  0  0  0  0
   37.4360   29.1230   42.4960 N   0  0  0  0  0  0  0  0  0  0  0  0
   36.6160   28.1020   42.1480 C   0  0  0  0  0  0  0  0  0  0  0  0
   36.3460   27.3180   43.2190 N   0  0  0  0  0  0  0  0  0  0  0  0
   37.0320   27.8980   44.2430 C   0  0  0  0  0  0  0  0  0  0  0  0
   37.6900   28.9960   43.7850 N   0  0  0  0  0  0  0  0  0  0  0  0
   35.8313   28.5945   39.2466 H   0  0  0  0  0  0  0  0  0  0  0  0
   37.1712   30.3440   35.5994 H   0  0  0  0  0  0  0  0  0  0  0  0
   36.4253   34.3036   39.6352 H   0  0  0  0  0  0  0  0  0  0  0  0
   40.6559   34.1387   40.2849 H   0  0  0  0  0  0  0  0  0  0  0  0
   36.4897   31.6985   41.1408 H   0  0  0  0  0  0  0  0  0  0  0  0
   35.7697   30.0522   41.1737 H   0  0  0  0  0  0  0  0  0  0  0  0
   38.5409   29.6476   40.7750 H   0  0  0  0  0  0  0  0  0  0  0  0
   38.4491   30.9238   42.0046 H   0  0  0  0  0  0  0  0  0  0  0  0
   36.2233   27.9330   41.1345 H   0  0  0  0  0  0  0  0  0  0  0  0
   37.0507   27.5340   45.2808 H   0  0  0  0  0  0  0  0  0  0  0  0
  1  7  1  0
  1  2  1  0
  2 12  1  0
  3  2  2  0
  4  3  1  0
  5  6  1  0
  5  4  2  0
  6  1  2  0
  7 11  1  0
  7  8  1  0
  8  9  2  0
 10  9  1  0
 11 10  2  0
 12 13  1  0
 13 14  1  0
 14 18  1  0
 15 14  1  0
 15 16  2  0
 16 17  1  0
 18 17  2  0
  3 19  1  0
  5 20  1  0
  8 21  1  0
 10 22  1  0
 12 23  1  0
 12 24  1  0
 13 25  1  0
 13 26  1  0
 15 27  1  0
 17 28  1  0
M  ISO  8  19  14  20  14  21  14  22  14  23   8  24   8  25   8  26   8
M  ISO  2  27  14  28  14
M  END
>  <minimizedAffinity>  (1) 
-4.90199804

>  <minimizedRMSD>  (1) 
5.72575998

$$$$
