
     RDKit          3D

 29 30  0  0  0  0  0  0  0  0999 V2000
   37.4980   31.5880   40.0650 C   0  0  0  0  0  0  0  0  0  0  0  0
   38.6650   31.3550   40.7860 C   0  0  0  0  0  0  0  0  0  0  0  0
   39.4580   32.4590   41.1100 C   0  0  0  0  0  0  0  0  0  0  0  0
   39.0510   33.6900   40.7060 N   0  0  0  0  0  0  0  0  0  0  0  0
   37.9210   33.8830   40.0110 C   0  0  0  0  0  0  0  0  0  0  0  0
   37.1420   32.8470   39.6870 N   0  0  0  0  0  0  0  0  0  0  0  0
   36.5880   30.5750   39.6620 N   0  0  0  0  0  0  0  0  0  0  0  0
   36.2820   29.8650   38.5790 C   0  0  0  0  0  0  0  0  0  0  0  0
   35.2680   29.0240   38.8610 N   0  0  0  0  0  0  0  0  0  0  0  0
   34.9420   29.2310   40.1760 C   0  0  0  0  0  0  0  0  0  0  0  0
   35.7740   30.1930   40.6390 N   0  0  0  0  0  0  0  0  0  0  0  0
   39.0370   30.0120   41.1840 C   0  0  0  0  0  0  0  0  0  0  0  0
   39.0520   29.9210   42.6980 C   0  0  0  0  0  0  0  0  0  0  0  0
   37.7060   29.5460   43.1160 N   0  0  0  0  0  0  0  0  0  0  0  0
   37.4860   28.4020   43.8920 C   0  0  0  0  0  0  0  0  0  0  0  0
   38.2410   27.3750   43.7670 N   0  0  0  0  0  0  0  0  0  0  0  0
   36.4140   28.3870   44.8220 N   0  0  0  0  0  0  0  0  0  0  0  0
   39.0390   27.2350   43.1530 H   0  0  0  0  0  0  0  0  0  0  0  0
   40.3908   32.3338   41.6794 H   0  0  0  0  0  0  0  0  0  0  0  0
   37.6335   34.9000   39.7058 H   0  0  0  0  0  0  0  0  0  0  0  0
   36.7809   29.9515   37.6025 H   0  0  0  0  0  0  0  0  0  0  0  0
   34.1554   28.7146   40.7457 H   0  0  0  0  0  0  0  0  0  0  0  0
   38.3075   29.2943   40.7804 H   0  0  0  0  0  0  0  0  0  0  0  0
   40.0374   29.7765   40.7919 H   0  0  0  0  0  0  0  0  0  0  0  0
   39.7749   29.1584   43.0235 H   0  0  0  0  0  0  0  0  0  0  0  0
   39.3491   30.8807   43.1460 H   0  0  0  0  0  0  0  0  0  0  0  0
   36.9059   30.1313   42.8362 H   0  0  0  0  0  0  0  0  0  0  0  0
   36.2435   27.5502   45.3979 H   0  0  0  0  0  0  0  0  0  0  0  0
   35.8065   29.2129   44.9211 H   0  0  0  0  0  0  0  0  0  0  0  0
  1  2  2  0
  2  3  1  0
  2 12  1  0
  4  3  2  0
  5  4  1  0
  6  5  2  0
  6  1  1  0
  7  1  1  0
  7 11  1  0
  8  9  2  0
  8  7  1  0
  9 10  1  0
 10 11  2  0
 12 13  1  0
 13 14  1  0
 14 15  1  0
 15 17  1  0
 16 15  2  0
 18 16  1  0
  3 19  1  0
  5 20  1  0
  8 21  1  0
 10 22  1  0
 12 23  1  0
 12 24  1  0
 13 25  1  0
 13 26  1  0
 14 27  1  0
 17 28  1  0
 17 29  1  0
M  ISO  8  19  14  20  14  21  14  22  14  23   8  24   8  25   8  26   8
M  END
>  <minimizedAffinity>  (1) 
-4.88138342

>  <minimizedRMSD>  (1) 
6.05671883

$$$$
