
     RDKit          3D

 30 32  0  0  0  0  0  0  0  0999 V2000
   38.1910   30.3310   39.6870 C   0  0  0  0  0  0  0  0  0  0  0  0
   37.3540   31.3480   40.1390 C   0  0  0  0  0  0  0  0  0  0  0  0
   36.2240   31.0200   40.8800 C   0  0  0  0  0  0  0  0  0  0  0  0
   36.0050   29.6810   41.1210 N   0  0  0  0  0  0  0  0  0  0  0  0
   36.8180   28.7330   40.6790 C   0  0  0  0  0  0  0  0  0  0  0  0
   37.9140   29.0290   39.9610 N   0  0  0  0  0  0  0  0  0  0  0  0
   39.3590   30.5270   38.9330 N   0  0  0  0  0  0  0  0  0  0  0  0
   39.7270   30.7340   37.6560 C   0  0  0  0  0  0  0  0  0  0  0  0
   41.0770   30.8480   37.5890 N   0  0  0  0  0  0  0  0  0  0  0  0
   41.5400   30.7040   38.8770 C   0  0  0  0  0  0  0  0  0  0  0  0
   40.4660   30.5130   39.6490 N   0  0  0  0  0  0  0  0  0  0  0  0
   37.6680   32.7390   39.8330 C   0  0  0  0  0  0  0  0  0  0  0  0
   38.6130   33.2870   40.8770 C   0  0  0  0  0  0  0  0  0  0  0  0
   39.4990   34.3420   40.3190 C   0  0  0  0  0  0  0  0  0  0  0  0
   39.1110   35.6490   40.4980 C   0  0  0  0  0  0  0  0  0  0  0  0
   39.8580   36.7160   40.0210 C   0  0  0  0  0  0  0  0  0  0  0  0
   41.0010   36.4130   39.3630 N   0  0  0  0  0  0  0  0  0  0  0  0
   41.3700   35.1250   39.1950 C   0  0  0  0  0  0  0  0  0  0  0  0
   40.6430   34.0900   39.6600 N   0  0  0  0  0  0  0  0  0  0  0  0
   35.5374   31.7928   41.2560 H   0  0  0  0  0  0  0  0  0  0  0  0
   36.5906   27.6807   40.9048 H   0  0  0  0  0  0  0  0  0  0  0  0
   39.0402   30.8005   36.7994 H   0  0  0  0  0  0  0  0  0  0  0  0
   42.5889   30.7392   39.2066 H   0  0  0  0  0  0  0  0  0  0  0  0
   38.1429   32.7977   38.8425 H   0  0  0  0  0  0  0  0  0  0  0  0
   36.7410   33.3311   39.8327 H   0  0  0  0  0  0  0  0  0  0  0  0
   38.0237   33.7158   41.7009 H   0  0  0  0  0  0  0  0  0  0  0  0
   39.2464   32.4610   41.2327 H   0  0  0  0  0  0  0  0  0  0  0  0
   38.1754   35.8556   41.0384 H   0  0  0  0  0  0  0  0  0  0  0  0
   39.5370   37.7575   40.1703 H   0  0  0  0  0  0  0  0  0  0  0  0
   42.3044   34.9114   38.6553 H   0  0  0  0  0  0  0  0  0  0  0  0
  1  6  2  0
  1  2  1  0
  2  3  2  0
  3  4  1  0
  5  4  2  0
  6  5  1  0
  7 11  1  0
  7  1  1  0
  8  7  1  0
  9  8  2  0
  9 10  1  0
 10 11  2  0
 12  2  1  0
 12 13  1  0
 14 15  2  0
 14 13  1  0
 16 15  1  0
 17 16  2  0
 18 17  1  0
 18 19  2  0
 19 14  1  0
  3 20  1  0
  5 21  1  0
  8 22  1  0
 10 23  1  0
 12 24  1  0
 12 25  1  0
 13 26  1  0
 13 27  1  0
 15 28  1  0
 16 29  1  0
 18 30  1  0
M  ISO  8  20  14  21  14  22  14  23  14  24   8  25   8  26   8  27   8
M  ISO  3  28  14  29  14  30  14
M  END
>  <minimizedAffinity>  (1) 
-4.71959019

>  <minimizedRMSD>  (1) 
2.87452006

$$$$
