
     RDKit          3D

 29 31  0  0  0  0  0  0  0  0999 V2000
   38.5650   31.1090   39.2140 C   0  0  0  0  0  0  0  0  0  0  0  0
   37.7000   31.9880   39.8820 C   0  0  0  0  0  0  0  0  0  0  0  0
   36.6220   31.4480   40.5770 C   0  0  0  0  0  0  0  0  0  0  0  0
   36.4680   30.0980   40.5680 N   0  0  0  0  0  0  0  0  0  0  0  0
   37.3050   29.2720   39.9220 C   0  0  0  0  0  0  0  0  0  0  0  0
   38.3580   29.7610   39.2410 N   0  0  0  0  0  0  0  0  0  0  0  0
   39.6950   31.5060   38.4770 N   0  0  0  0  0  0  0  0  0  0  0  0
   40.0150   31.9570   37.2640 C   0  0  0  0  0  0  0  0  0  0  0  0
   41.3460   32.1590   37.1780 N   0  0  0  0  0  0  0  0  0  0  0  0
   41.8570   31.8110   38.3970 C   0  0  0  0  0  0  0  0  0  0  0  0
   40.8250   31.4180   39.1650 N   0  0  0  0  0  0  0  0  0  0  0  0
   37.9390   33.4210   39.8360 C   0  0  0  0  0  0  0  0  0  0  0  0
   38.8570   33.8020   40.9760 C   0  0  0  0  0  0  0  0  0  0  0  0
   39.3850   35.1670   40.6340 C   0  0  0  0  0  0  0  0  0  0  0  0
   40.6240   35.7080   40.9300 C   0  0  0  0  0  0  0  0  0  0  0  0
   40.6960   36.9940   40.4310 C   0  0  0  0  0  0  0  0  0  0  0  0
   39.4620   37.1880   39.8360 C   0  0  0  0  0  0  0  0  0  0  0  0
   38.7350   36.1080   39.9770 O   0  0  0  0  0  0  0  0  0  0  0  0
   35.9155   32.0949   41.1176 H   0  0  0  0  0  0  0  0  0  0  0  0
   37.1293   28.1865   39.9491 H   0  0  0  0  0  0  0  0  0  0  0  0
   39.2972   32.1383   36.4505 H   0  0  0  0  0  0  0  0  0  0  0  0
   42.9154   31.8458   38.6946 H   0  0  0  0  0  0  0  0  0  0  0  0
   38.4104   33.6861   38.8781 H   0  0  0  0  0  0  0  0  0  0  0  0
   36.9852   33.9609   39.9295 H   0  0  0  0  0  0  0  0  0  0  0  0
   38.2993   33.8328   41.9237 H   0  0  0  0  0  0  0  0  0  0  0  0
   39.6702   33.0723   41.1037 H   0  0  0  0  0  0  0  0  0  0  0  0
   41.4272   35.1935   41.4779 H   0  0  0  0  0  0  0  0  0  0  0  0
   41.5379   37.6993   40.4923 H   0  0  0  0  0  0  0  0  0  0  0  0
   39.1413   38.1071   39.3238 H   0  0  0  0  0  0  0  0  0  0  0  0
  1  6  2  0
  1  2  1  0
  2  3  2  0
  4  3  1  0
  5  4  2  0
  6  5  1  0
  7 11  1  0
  7  1  1  0
  8  7  1  0
  9  8  2  0
  9 10  1  0
 10 11  2  0
 12  2  1  0
 12 13  1  0
 14 15  2  0
 14 13  1  0
 16 15  1  0
 17 18  1  0
 17 16  2  0
 18 14  1  0
  3 19  1  0
  5 20  1  0
  8 21  1  0
 10 22  1  0
 12 23  1  0
 12 24  1  0
 13 25  1  0
 13 26  1  0
 15 27  1  0
 16 28  1  0
 17 29  1  0
M  ISO  8  19  14  20  14  21  14  22  14  23   8  24   8  25   8  26   8
M  ISO  3  27  14  28  14  29  14
M  END
>  <minimizedAffinity>  (1) 
-4.63298988

>  <minimizedRMSD>  (1) 
2.62904787

$$$$
