
     RDKit          3D

 35 37  0  0  0  0  0  0  0  0999 V2000
   40.4170   31.9860   39.8310 C   0  0  0  0  0  0  0  0  0  0  0  0
   40.6570   31.0600   40.8410 C   0  0  0  0  0  0  0  0  0  0  0  0
   41.6960   30.1520   40.6720 C   0  0  0  0  0  0  0  0  0  0  0  0
   42.4260   30.2210   39.5210 N   0  0  0  0  0  0  0  0  0  0  0  0
   42.1780   31.1220   38.5600 C   0  0  0  0  0  0  0  0  0  0  0  0
   41.1810   32.0130   38.6910 N   0  0  0  0  0  0  0  0  0  0  0  0
   39.3950   32.9700   39.8700 N   0  0  0  0  0  0  0  0  0  0  0  0
   38.0910   33.0770   39.6230 C   0  0  0  0  0  0  0  0  0  0  0  0
   37.6960   34.3520   39.8660 N   0  0  0  0  0  0  0  0  0  0  0  0
   38.8170   35.0360   40.2780 C   0  0  0  0  0  0  0  0  0  0  0  0
   39.8330   34.1590   40.2670 N   0  0  0  0  0  0  0  0  0  0  0  0
   39.8340   31.0350   42.0400 C   0  0  0  0  0  0  0  0  0  0  0  0
   39.9120   29.6560   42.6680 C   0  0  0  0  0  0  0  0  0  0  0  0
   38.5410   29.2550   43.0080 N   0  0  0  0  0  0  0  0  0  0  0  0
   38.5390   27.8100   42.9040 C   0  0  0  0  0  0  0  0  0  0  0  0
   37.1800   27.2260   43.1430 C   0  0  0  0  0  0  0  0  0  0  0  0
   36.1950   27.9050   42.4510 O   0  0  0  0  0  0  0  0  0  0  0  0
   36.7790   28.6490   41.4400 C   0  0  0  0  0  0  0  0  0  0  0  0
   37.6050   29.7870   42.0240 C   0  0  0  0  0  0  0  0  0  0  0  0
   41.9229   29.4006   41.4427 H   0  0  0  0  0  0  0  0  0  0  0  0
   42.7990   31.1320   37.6521 H   0  0  0  0  0  0  0  0  0  0  0  0
   37.4383   32.2619   39.2772 H   0  0  0  0  0  0  0  0  0  0  0  0
   38.8701   36.0974   40.5618 H   0  0  0  0  0  0  0  0  0  0  0  0
   40.2014   31.7863   42.7545 H   0  0  0  0  0  0  0  0  0  0  0  0
   38.7905   31.2639   41.7777 H   0  0  0  0  0  0  0  0  0  0  0  0
   40.3477   28.9411   41.9545 H   0  0  0  0  0  0  0  0  0  0  0  0
   40.5480   29.6712   43.5653 H   0  0  0  0  0  0  0  0  0  0  0  0
   38.8734   27.5272   41.8949 H   0  0  0  0  0  0  0  0  0  0  0  0
   39.2160   27.4155   43.6760 H   0  0  0  0  0  0  0  0  0  0  0  0
   37.1828   26.1754   42.8172 H   0  0  0  0  0  0  0  0  0  0  0  0
   36.9589   27.3092   44.2173 H   0  0  0  0  0  0  0  0  0  0  0  0
   35.9907   29.0670   40.7966 H   0  0  0  0  0  0  0  0  0  0  0  0
   37.4402   27.9944   40.8532 H   0  0  0  0  0  0  0  0  0  0  0  0
   38.1642   30.2849   41.2182 H   0  0  0  0  0  0  0  0  0  0  0  0
   36.9363   30.5128   42.5099 H   0  0  0  0  0  0  0  0  0  0  0  0
  1  7  1  0
  1  2  1  0
  2 12  1  0
  3  2  2  0
  4  3  1  0
  5  6  1  0
  5  4  2  0
  6  1  2  0
  7 11  1  0
  8  9  2  0
  8  7  1  0
  9 10  1  0
 11 10  2  0
 12 13  1  0
 13 14  1  0
 15 14  1  0
 15 16  1  0
 17 16  1  0
 18 19  1  0
 18 17  1  0
 19 14  1  0
  3 20  1  0
  5 21  1  0
  8 22  1  0
 10 23  1  0
 12 24  1  0
 12 25  1  0
 13 26  1  0
 13 27  1  0
 15 28  1  0
 15 29  1  0
 16 30  1  0
 16 31  1  0
 18 32  1  0
 18 33  1  0
 19 34  1  0
 19 35  1  0
M  ISO  8  20  14  21  14  22  14  23  14  24   8  25   8  26   8  27   8
M  ISO  8  28  13  29  13  30  13  31  13  32  13  33  13  34  13  35  13
M  END
>  <minimizedAffinity>  (1) 
-4.29139042

>  <minimizedRMSD>  (1) 
6.07027292

$$$$
