
     RDKit          3D

 31 33  0  0  0  0  0  0  0  0999 V2000
   38.9080   30.9820   39.8070 C   0  0  0  0  0  0  0  0  0  0  0  0
   38.7570   29.8070   39.0590 C   0  0  0  0  0  0  0  0  0  0  0  0
   37.8920   29.8320   37.9700 C   0  0  0  0  0  0  0  0  0  0  0  0
   37.2480   30.9980   37.6980 N   0  0  0  0  0  0  0  0  0  0  0  0
   37.4080   32.1060   38.4260 C   0  0  0  0  0  0  0  0  0  0  0  0
   38.2350   32.1150   39.4820 N   0  0  0  0  0  0  0  0  0  0  0  0
   39.7520   31.1080   40.9390 N   0  0  0  0  0  0  0  0  0  0  0  0
   39.7570   30.8600   42.2450 C   0  0  0  0  0  0  0  0  0  0  0  0
   40.9300   31.2350   42.7810 N   0  0  0  0  0  0  0  0  0  0  0  0
   41.6810   31.7370   41.7580 C   0  0  0  0  0  0  0  0  0  0  0  0
   40.9300   31.6450   40.6450 N   0  0  0  0  0  0  0  0  0  0  0  0
   39.4890   28.6060   39.4290 C   0  0  0  0  0  0  0  0  0  0  0  0
   38.5070   27.4990   39.7110 C   0  0  0  0  0  0  0  0  0  0  0  0
   38.1890   27.5570   41.1770 C   0  0  0  0  0  0  0  0  0  0  0  0
   39.1160   27.3360   42.1740 C   0  0  0  0  0  0  0  0  0  0  0  0
   38.8430   27.3850   43.5040 C   0  0  0  0  0  0  0  0  0  0  0  0
   37.5550   27.6740   43.9000 C   0  0  0  0  0  0  0  0  0  0  0  0
   36.6090   27.8990   42.9200 C   0  0  0  0  0  0  0  0  0  0  0  0
   36.9260   27.8400   41.5990 N   0  0  0  0  0  0  0  0  0  0  0  0
   37.7342   28.9377   37.3493 H   0  0  0  0  0  0  0  0  0  0  0  0
   36.8568   33.0192   38.1573 H   0  0  0  0  0  0  0  0  0  0  0  0
   38.9223   30.4130   42.8049 H   0  0  0  0  0  0  0  0  0  0  0  0
   42.7024   32.1390   41.8293 H   0  0  0  0  0  0  0  0  0  0  0  0
   40.1518   28.3091   38.6028 H   0  0  0  0  0  0  0  0  0  0  0  0
   40.0948   28.8021   40.3260 H   0  0  0  0  0  0  0  0  0  0  0  0
   37.5913   27.6467   39.1197 H   0  0  0  0  0  0  0  0  0  0  0  0
   38.9300   26.5205   39.4396 H   0  0  0  0  0  0  0  0  0  0  0  0
   40.1478   27.1040   41.8714 H   0  0  0  0  0  0  0  0  0  0  0  0
   39.6318   27.1983   44.2476 H   0  0  0  0  0  0  0  0  0  0  0  0
   37.2884   27.7240   44.9660 H   0  0  0  0  0  0  0  0  0  0  0  0
   35.5750   28.1314   43.2146 H   0  0  0  0  0  0  0  0  0  0  0  0
  1  7  1  0
  2 12  1  0
  2  1  1  0
  3  2  2  0
  4  3  1  0
  4  5  2  0
  5  6  1  0
  6  1  2  0
  7  8  1  0
  8  9  2  0
 10  9  1  0
 11  7  1  0
 11 10  2  0
 12 13  1  0
 13 14  1  0
 14 19  1  0
 14 15  2  0
 15 16  1  0
 16 17  2  0
 18 17  1  0
 19 18  2  0
  3 20  1  0
  5 21  1  0
  8 22  1  0
 10 23  1  0
 12 24  1  0
 12 25  1  0
 13 26  1  0
 13 27  1  0
 15 28  1  0
 16 29  1  0
 17 30  1  0
 18 31  1  0
M  ISO  8  20  14  21  14  22  14  23  14  24   8  25   8  26   8  27   8
M  ISO  4  28  14  29  14  30  14  31  14
M  END
>  <minimizedAffinity>  (1) 
-4.22431946

>  <minimizedRMSD>  (1) 
6.38632345

$$$$
