
     RDKit          3D

 42 44  0  0  1  0  0  0  0  0999 V2000
   38.1940   33.4870   40.0680 C   0  0  0  0  0  0  0  0  0  0  0  0
   39.3270   34.3690   39.9430 N   0  0  0  0  0  0  0  0  0  0  0  0
   39.1500   35.6280   40.5620 C   0  0  0  0  0  0  0  0  0  0  0  0
   40.0970   36.6470   40.0080 C   0  0  0  0  0  0  0  0  0  0  0  0
   41.2320   36.0450   39.3810 N   0  0  0  0  0  0  0  0  0  0  0  0
   41.6590   34.8530   40.0500 C   0  0  0  0  0  0  0  0  0  0  0  0
   40.5820   33.7540   39.9970 C   0  0  2  0  0  0  0  0  0  0  0  0
   40.9500   33.0520   38.6690 C   0  0  0  0  0  0  0  0  0  0  0  0
   42.3940   32.6450   38.6680 C   0  0  0  0  0  0  0  0  0  0  0  0
   38.4300   32.1610   39.3840 C   0  0  0  0  0  0  0  0  0  0  0  0
   38.3490   30.3100   41.0210 C   0  0  0  0  0  0  0  0  0  0  0  0
   37.7000   31.1250   40.0980 C   0  0  0  0  0  0  0  0  0  0  0  0
   36.3480   30.9170   39.8730 C   0  0  0  0  0  0  0  0  0  0  0  0
   35.7360   29.9020   40.5910 N   0  0  0  0  0  0  0  0  0  0  0  0
   36.3940   29.1510   41.4620 C   0  0  0  0  0  0  0  0  0  0  0  0
   37.7130   29.3340   41.7000 N   0  0  0  0  0  0  0  0  0  0  0  0
   39.7350   30.4230   41.3420 N   0  0  0  0  0  0  0  0  0  0  0  0
   40.9120   30.0300   40.8460 C   0  0  0  0  0  0  0  0  0  0  0  0
   41.8920   30.4750   41.6470 N   0  0  0  0  0  0  0  0  0  0  0  0
   41.2850   31.1660   42.6730 C   0  0  0  0  0  0  0  0  0  0  0  0
   39.9650   31.1090   42.4470 N   0  0  0  0  0  0  0  0  0  0  0  0
   38.0009   33.3063   41.1357 H   0  0  0  0  0  0  0  0  0  0  0  0
   37.3326   33.9702   39.5837 H   0  0  0  0  0  0  0  0  0  0  0  0
   38.1180   35.9686   40.3918 H   0  0  0  0  0  0  0  0  0  0  0  0
   39.3518   35.5164   41.6376 H   0  0  0  0  0  0  0  0  0  0  0  0
   39.5644   37.2583   39.2646 H   0  0  0  0  0  0  0  0  0  0  0  0
   40.4600   37.2611   40.8454 H   0  0  0  0  0  0  0  0  0  0  0  0
   40.9859   35.8085   38.4092 H   0  0  0  0  0  0  0  0  0  0  0  0
   42.5732   34.4800   39.5652 H   0  0  0  0  0  0  0  0  0  0  0  0
   41.8456   35.1000   41.1055 H   0  0  0  0  0  0  0  0  0  0  0  0
   40.5423   33.0617   40.8509 H   0  0  0  0  0  0  0  0  0  0  0  0
   40.3223   32.1569   38.5475 H   0  0  0  0  0  0  0  0  0  0  0  0
   40.7791   33.7530   37.8387 H   0  0  0  0  0  0  0  0  0  0  0  0
   42.7476   32.5453   39.7048 H   0  0  0  0  0  0  0  0  0  0  0  0
   42.5029   31.6812   38.1492 H   0  0  0  0  0  0  0  0  0  0  0  0
   42.9902   33.4101   38.1492 H   0  0  0  0  0  0  0  0  0  0  0  0
   38.0742   32.2135   38.3444 H   0  0  0  0  0  0  0  0  0  0  0  0
   39.5049   31.9274   39.3855 H   0  0  0  0  0  0  0  0  0  0  0  0
   35.7850   31.5315   39.1551 H   0  0  0  0  0  0  0  0  0  0  0  0
   35.8550   28.3601   42.0043 H   0  0  0  0  0  0  0  0  0  0  0  0
   41.0542   29.4379   39.9299 H   0  0  0  0  0  0  0  0  0  0  0  0
   41.7863   31.6671   43.5142 H   0  0  0  0  0  0  0  0  0  0  0  0
  2  7  1  0
  2  1  1  0
  2  3  1  0
  4  3  1  0
  5  4  1  0
  5  6  1  0
  7  6  1  0
  8  7  1  0
  9  8  1  0
 10  1  1  0
 10 12  1  0
 11 17  1  0
 11 16  2  0
 12 11  1  0
 13 12  2  0
 13 14  1  0
 14 15  2  0
 15 16  1  0
 17 21  1  0
 18 17  1  0
 18 19  2  0
 19 20  1  0
 21 20  2  0
  1 22  1  0
  1 23  1  0
  3 24  1  0
  3 25  1  0
  4 26  1  0
  4 27  1  0
  5 28  1  0
  6 29  1  0
  6 30  1  0
  7 31  1  1
  8 32  1  0
  8 33  1  0
  9 34  1  0
  9 35  1  0
  9 36  1  0
 10 37  1  0
 10 38  1  0
 13 39  1  0
 15 40  1  0
 18 41  1  0
 20 42  1  0
M  ISO  8  22   8  23   8  24  13  25  13  26  13  27  13  28   5  29  13
M  ISO  8  30  13  31  13  32   8  33   8  34   8  35   8  36   8  37   8
M  ISO  5  38   8  39  14  40  14  41  14  42  14
M  END
>  <minimizedAffinity>  (1) 
-4.76438618

>  <minimizedRMSD>  (1) 
3.15267491

$$$$
