
     RDKit          3D

 37 39  0  0  1  0  0  0  0  0999 V2000
   40.9280   33.2250   38.6290 C   0  0  0  0  0  0  0  0  0  0  0  0
   42.3510   33.3760   38.6810 N   0  0  0  0  0  0  0  0  0  0  0  0
   42.9560   32.6200   39.7320 C   0  0  0  0  0  0  0  0  0  0  0  0
   44.3080   33.1520   40.0900 C   0  0  0  0  0  0  0  0  0  0  0  0
   44.8480   33.9580   39.0410 N   0  0  0  0  0  0  0  0  0  0  0  0
   44.5140   33.4970   37.7280 C   0  0  0  0  0  0  0  0  0  0  0  0
   43.0330   33.4010   37.4470 C   0  0  2  0  0  0  0  0  0  0  0  0
   42.6300   34.4840   36.6720 O   0  0  0  0  0  0  0  0  0  0  0  0
   40.5120   31.7750   38.5600 C   0  0  0  0  0  0  0  0  0  0  0  0
   39.0580   31.0590   40.4320 C   0  0  0  0  0  0  0  0  0  0  0  0
   39.2020   31.6180   39.1510 C   0  0  0  0  0  0  0  0  0  0  0  0
   38.0510   32.0090   38.4840 C   0  0  0  0  0  0  0  0  0  0  0  0
   36.8430   31.8250   39.1170 N   0  0  0  0  0  0  0  0  0  0  0  0
   36.7450   31.2920   40.3290 C   0  0  0  0  0  0  0  0  0  0  0  0
   37.8490   30.8970   41.0120 N   0  0  0  0  0  0  0  0  0  0  0  0
   40.1450   30.6140   41.2280 N   0  0  0  0  0  0  0  0  0  0  0  0
   40.9270   29.5400   41.3450 C   0  0  0  0  0  0  0  0  0  0  0  0
   41.8110   29.7520   42.3390 N   0  0  0  0  0  0  0  0  0  0  0  0
   41.5560   30.9900   42.8380 C   0  0  0  0  0  0  0  0  0  0  0  0
   40.5250   31.4980   42.1350 N   0  0  0  0  0  0  0  0  0  0  0  0
   40.4903   33.6769   39.5314 H   0  0  0  0  0  0  0  0  0  0  0  0
   40.5678   33.7241   37.7173 H   0  0  0  0  0  0  0  0  0  0  0  0
   42.3090   32.6640   40.6205 H   0  0  0  0  0  0  0  0  0  0  0  0
   43.0770   31.5839   39.3829 H   0  0  0  0  0  0  0  0  0  0  0  0
   44.2223   33.7619   41.0014 H   0  0  0  0  0  0  0  0  0  0  0  0
   44.9830   32.2987   40.2520 H   0  0  0  0  0  0  0  0  0  0  0  0
   44.4878   34.9168   39.1499 H   0  0  0  0  0  0  0  0  0  0  0  0
   44.9561   34.1918   36.9988 H   0  0  0  0  0  0  0  0  0  0  0  0
   44.9106   32.4740   37.6492 H   0  0  0  0  0  0  0  0  0  0  0  0
   42.8023   32.4835   36.8858 H   0  0  0  0  0  0  0  0  0  0  0  0
   42.3531   35.2281   37.2634 H   0  0  0  0  0  0  0  0  0  0  0  0
   40.4804   31.4528   37.5087 H   0  0  0  0  0  0  0  0  0  0  0  0
   41.2380   31.1599   39.1119 H   0  0  0  0  0  0  0  0  0  0  0  0
   38.1019   32.4530   37.4789 H   0  0  0  0  0  0  0  0  0  0  0  0
   35.7526   31.1686   40.7870 H   0  0  0  0  0  0  0  0  0  0  0  0
   40.8609   28.6301   40.7304 H   0  0  0  0  0  0  0  0  0  0  0  0
   42.0912   31.4848   43.6618 H   0  0  0  0  0  0  0  0  0  0  0  0
  1  2  1  0
  2  3  1  0
  3  4  1  0
  5  4  1  0
  6  5  1  0
  7  6  1  0
  7  2  1  0
  8  7  1  0
  9  1  1  0
  9 11  1  0
 10 15  1  0
 10 16  1  0
 11 10  2  0
 12 13  2  0
 12 11  1  0
 13 14  1  0
 14 15  2  0
 16 17  1  0
 16 20  1  0
 17 18  2  0
 18 19  1  0
 20 19  2  0
  1 21  1  0
  1 22  1  0
  3 23  1  0
  3 24  1  0
  4 25  1  0
  4 26  1  0
  5 27  1  0
  6 28  1  0
  6 29  1  0
  7 30  1  6
  8 31  1  0
  9 32  1  0
  9 33  1  0
 12 34  1  0
 14 35  1  0
 17 36  1  0
 19 37  1  0
M  ISO  8  21   8  22   8  23  13  24  13  25  13  26  13  27   5  28  13
M  ISO  8  29  13  30  13  31   3  32   8  33   8  34  14  35  14  36  14
M  ISO  1  37  14
M  END
>  <minimizedAffinity>  (1) 
-4.51370096

>  <minimizedRMSD>  (1) 
4.05832052

$$$$
