
     RDKit          3D

 39 41  0  0  1  0  0  0  0  0999 V2000
   39.0060   33.1610   41.2730 C   0  0  0  0  0  0  0  0  0  0  0  0
   40.1550   33.9050   40.8520 N   0  0  0  0  0  0  0  0  0  0  0  0
   41.3880   33.1980   41.0110 C   0  0  0  0  0  0  0  0  0  0  0  0
   42.5630   34.1230   41.0090 C   0  0  0  0  0  0  0  0  0  0  0  0
   42.2360   35.3960   40.4510 N   0  0  0  0  0  0  0  0  0  0  0  0
   41.3440   35.3110   39.3480 C   0  0  0  0  0  0  0  0  0  0  0  0
   39.9980   34.7010   39.7110 C   0  0  2  0  0  0  0  0  0  0  0  0
   39.0870   35.8670   40.0800 C   0  0  0  0  0  0  0  0  0  0  0  0
   37.9720   33.0560   40.1740 C   0  0  0  0  0  0  0  0  0  0  0  0
   38.2470   30.7980   39.1810 C   0  0  0  0  0  0  0  0  0  0  0  0
   37.5630   31.6680   40.0440 C   0  0  0  0  0  0  0  0  0  0  0  0
   36.4900   31.1540   40.7630 C   0  0  0  0  0  0  0  0  0  0  0  0
   36.1700   29.8330   40.5840 N   0  0  0  0  0  0  0  0  0  0  0  0
   36.8430   29.0390   39.7550 C   0  0  0  0  0  0  0  0  0  0  0  0
   37.8920   29.5040   39.0390 N   0  0  0  0  0  0  0  0  0  0  0  0
   39.3640   31.1870   38.3840 N   0  0  0  0  0  0  0  0  0  0  0  0
   39.5960   31.7990   37.2250 C   0  0  0  0  0  0  0  0  0  0  0  0
   40.9210   31.8630   37.0260 N   0  0  0  0  0  0  0  0  0  0  0  0
   41.5150   31.2640   38.1140 C   0  0  0  0  0  0  0  0  0  0  0  0
   40.5250   30.8580   38.9340 N   0  0  0  0  0  0  0  0  0  0  0  0
   39.3236   32.1480   41.5612 H   0  0  0  0  0  0  0  0  0  0  0  0
   38.5493   33.6887   42.1233 H   0  0  0  0  0  0  0  0  0  0  0  0
   41.3654   32.6532   41.9664 H   0  0  0  0  0  0  0  0  0  0  0  0
   41.4967   32.5054   40.1633 H   0  0  0  0  0  0  0  0  0  0  0  0
   42.9053   34.2657   42.0446 H   0  0  0  0  0  0  0  0  0  0  0  0
   43.3521   33.6713   40.3899 H   0  0  0  0  0  0  0  0  0  0  0  0
   41.7968   35.9716   41.1836 H   0  0  0  0  0  0  0  0  0  0  0  0
   41.8102   34.6905   38.5684 H   0  0  0  0  0  0  0  0  0  0  0  0
   41.1547   36.3375   39.0009 H   0  0  0  0  0  0  0  0  0  0  0  0
   39.5946   34.0980   38.8842 H   0  0  0  0  0  0  0  0  0  0  0  0
   39.0225   35.9496   41.1750 H   0  0  0  0  0  0  0  0  0  0  0  0
   39.4985   36.7992   39.6656 H   0  0  0  0  0  0  0  0  0  0  0  0
   38.0830   35.6933   39.6656 H   0  0  0  0  0  0  0  0  0  0  0  0
   37.0994   33.6759   40.4275 H   0  0  0  0  0  0  0  0  0  0  0  0
   38.4003   33.4089   39.2243 H   0  0  0  0  0  0  0  0  0  0  0  0
   35.9153   31.7878   41.4544 H   0  0  0  0  0  0  0  0  0  0  0  0
   36.5410   27.9865   39.6502 H   0  0  0  0  0  0  0  0  0  0  0  0
   38.8268   32.1886   36.5419 H   0  0  0  0  0  0  0  0  0  0  0  0
   42.5949   31.1399   38.2826 H   0  0  0  0  0  0  0  0  0  0  0  0
  2  3  1  0
  2  1  1  0
  4  3  1  0
  5  4  1  0
  6  7  1  0
  6  5  1  0
  7  8  1  0
  7  2  1  0
  9  1  1  0
 10 11  1  0
 11  9  1  0
 11 12  2  0
 13 12  1  0
 14 13  2  0
 15 10  2  0
 15 14  1  0
 16 20  1  0
 16 10  1  0
 17 16  1  0
 18 17  2  0
 18 19  1  0
 19 20  2  0
  1 21  1  0
  1 22  1  0
  3 23  1  0
  3 24  1  0
  4 25  1  0
  4 26  1  0
  5 27  1  0
  6 28  1  0
  6 29  1  0
  7 30  1  6
  8 31  1  0
  8 32  1  0
  8 33  1  0
  9 34  1  0
  9 35  1  0
 12 36  1  0
 14 37  1  0
 17 38  1  0
 19 39  1  0
M  ISO  8  21   8  22   8  23  13  24  13  25  13  26  13  27   5  28  13
M  ISO  8  29  13  30  13  31   8  32   8  33   8  34   8  35   8  36  14
M  ISO  3  37  14  38  14  39  14
M  END
>  <minimizedAffinity>  (1) 
-4.50821877

>  <minimizedRMSD>  (1) 
1.23814011

$$$$
