
     RDKit          3D

 45 48  0  0  1  0  0  0  0  0999 V2000
   38.9730   31.9310   40.9390 C   0  0  0  0  0  0  0  0  0  0  0  0
   38.2550   29.5590   41.0820 C   0  0  0  0  0  0  0  0  0  0  0  0
   37.9250   30.9190   40.9330 C   0  0  0  0  0  0  0  0  0  0  0  0
   36.5890   31.2590   40.7860 C   0  0  0  0  0  0  0  0  0  0  0  0
   35.6830   30.2280   40.7980 N   0  0  0  0  0  0  0  0  0  0  0  0
   36.0400   28.9640   40.9400 C   0  0  0  0  0  0  0  0  0  0  0  0
   37.3290   28.6000   41.0850 N   0  0  0  0  0  0  0  0  0  0  0  0
   39.5980   29.1080   41.2370 N   0  0  0  0  0  0  0  0  0  0  0  0
   40.6410   28.8400   40.4460 C   0  0  0  0  0  0  0  0  0  0  0  0
   41.6680   28.4270   41.2120 N   0  0  0  0  0  0  0  0  0  0  0  0
   41.2290   28.4460   42.4990 C   0  0  0  0  0  0  0  0  0  0  0  0
   39.9410   28.8750   42.4740 N   0  0  0  0  0  0  0  0  0  0  0  0
   41.9970   28.0790   43.6640 N   0  0  0  0  0  0  0  0  0  0  0  0
   43.0430   28.7450   44.1200 C   0  0  0  0  0  0  0  0  0  0  0  0
   43.4820   28.0570   45.2500 C   0  0  0  0  0  0  0  0  0  0  0  0
   42.6540   26.9960   45.4030 N   0  0  0  0  0  0  0  0  0  0  0  0
   41.7350   27.0120   44.4190 C   0  0  0  0  0  0  0  0  0  0  0  0
   38.8400   32.8110   39.7080 C   0  0  0  0  0  0  0  0  0  0  0  0
   39.6930   33.9590   39.8080 N   0  0  0  0  0  0  0  0  0  0  0  0
   39.0820   35.0630   40.4590 C   0  0  0  0  0  0  0  0  0  0  0  0
   39.7610   36.3510   40.1340 C   0  0  0  0  0  0  0  0  0  0  0  0
   41.0720   36.1420   39.6330 N   0  0  0  0  0  0  0  0  0  0  0  0
   41.7590   35.0540   40.2570 C   0  0  0  0  0  0  0  0  0  0  0  0
   41.0460   33.7170   40.0390 C   0  0  2  0  0  0  0  0  0  0  0  0
   41.6970   33.1890   38.8070 C   0  0  0  0  0  0  0  0  0  0  0  0
   41.7000   33.8110   37.7500 O   0  0  0  0  0  0  0  0  0  0  0  0
   38.8786   32.5501   41.8433 H   0  0  0  0  0  0  0  0  0  0  0  0
   39.9563   31.4380   40.9306 H   0  0  0  0  0  0  0  0  0  0  0  0
   36.2703   32.3049   40.6655 H   0  0  0  0  0  0  0  0  0  0  0  0
   35.2622   28.1862   40.9398 H   0  0  0  0  0  0  0  0  0  0  0  0
   40.6577   28.9402   39.3507 H   0  0  0  0  0  0  0  0  0  0  0  0
   43.4801   29.6597   43.6932 H   0  0  0  0  0  0  0  0  0  0  0  0
   44.3344   28.3236   45.8921 H   0  0  0  0  0  0  0  0  0  0  0  0
   40.9240   26.2845   44.2673 H   0  0  0  0  0  0  0  0  0  0  0  0
   37.7960   33.1446   39.6143 H   0  0  0  0  0  0  0  0  0  0  0  0
   39.1365   32.2275   38.8239 H   0  0  0  0  0  0  0  0  0  0  0  0
   38.0310   35.1256   40.1404 H   0  0  0  0  0  0  0  0  0  0  0  0
   39.1606   34.9026   41.5444 H   0  0  0  0  0  0  0  0  0  0  0  0
   39.1700   36.8837   39.3745 H   0  0  0  0  0  0  0  0  0  0  0  0
   39.8378   36.9409   41.0593 H   0  0  0  0  0  0  0  0  0  0  0  0
   41.0074   35.9495   38.6232 H   0  0  0  0  0  0  0  0  0  0  0  0
   42.7729   34.9873   39.8357 H   0  0  0  0  0  0  0  0  0  0  0  0
   41.7865   35.2489   41.3392 H   0  0  0  0  0  0  0  0  0  0  0  0
   41.1142   33.0235   40.8901 H   0  0  0  0  0  0  0  0  0  0  0  0
   42.1920   32.2075   38.8469 H   0  0  0  0  0  0  0  0  0  0  0  0
  2  7  1  0
  2  8  1  0
  3  1  1  0
  3  2  2  0
  4  5  2  0
  4  3  1  0
  5  6  1  0
  6  7  2  0
  8 12  1  0
  9 10  2  0
  9  8  1  0
 10 11  1  0
 11 13  1  0
 12 11  2  0
 13 14  1  0
 13 17  1  0
 14 15  2  0
 15 16  1  0
 17 16  2  0
 18 19  1  0
 18  1  1  0
 19 24  1  0
 19 20  1  0
 21 20  1  0
 22 21  1  0
 22 23  1  0
 24 23  1  0
 25 24  1  0
 26 25  2  0
  1 27  1  0
  1 28  1  0
  4 29  1  0
  6 30  1  0
  9 31  1  0
 14 32  1  0
 15 33  1  0
 17 34  1  0
 18 35  1  0
 18 36  1  0
 20 37  1  0
 20 38  1  0
 21 39  1  0
 21 40  1  0
 22 41  1  0
 23 42  1  0
 23 43  1  0
 24 44  1  1
 25 45  1  0
M  ISO  8  27   8  28   8  29  14  30  14  31  14  32  14  33  14  34  14
M  ISO  8  35   8  36   8  37  13  38  13  39  13  40  13  41   5  42  13
M  ISO  3  43  13  44  13  45   6
M  END
>  <minimizedAffinity>  (1) 
-5.79708815

>  <minimizedRMSD>  (1) 
2.30733824

$$$$
