
     RDKit          3D

 54 57  0  0  1  0  0  0  0  0999 V2000
   37.1960   30.9620   38.7680 C   0  0  0  0  0  0  0  0  0  0  0  0
   37.7670   28.6540   39.4810 C   0  0  0  0  0  0  0  0  0  0  0  0
   36.9970   29.8280   39.6560 C   0  0  0  0  0  0  0  0  0  0  0  0
   36.0740   29.8520   40.6850 C   0  0  0  0  0  0  0  0  0  0  0  0
   35.9710   28.7300   41.4660 N   0  0  0  0  0  0  0  0  0  0  0  0
   36.7150   27.6520   41.2610 C   0  0  0  0  0  0  0  0  0  0  0  0
   37.6260   27.5890   40.2710 N   0  0  0  0  0  0  0  0  0  0  0  0
   38.7430   28.5230   38.4500 N   0  0  0  0  0  0  0  0  0  0  0  0
   38.7600   28.2270   37.1460 C   0  0  0  0  0  0  0  0  0  0  0  0
   40.0350   28.2550   36.7200 N   0  0  0  0  0  0  0  0  0  0  0  0
   40.8070   28.5780   37.7940 C   0  0  0  0  0  0  0  0  0  0  0  0
   39.9660   28.7370   38.8500 N   0  0  0  0  0  0  0  0  0  0  0  0
   42.3040   28.7200   37.7680 C   0  0  0  0  0  0  0  0  0  0  0  0
   42.8660   28.7770   36.3810 C   0  0  0  0  0  0  0  0  0  0  0  0
   42.8820   30.2150   35.9270 C   0  0  0  0  0  0  0  0  0  0  0  0
   44.0690   30.8820   36.5990 C   0  0  0  0  0  0  0  0  0  0  0  0
   44.1520   30.3200   38.0020 C   0  0  0  0  0  0  0  0  0  0  0  0
   42.7650   29.9420   38.5180 C   0  0  0  0  0  0  0  0  0  0  0  0
   37.1470   32.2520   39.5700 C   0  0  0  0  0  0  0  0  0  0  0  0
   38.3980   32.9470   39.4940 N   0  0  0  0  0  0  0  0  0  0  0  0
   38.6030   33.8660   40.5660 C   0  0  0  0  0  0  0  0  0  0  0  0
   39.6290   34.8950   40.2280 C   0  0  0  0  0  0  0  0  0  0  0  0
   40.4470   34.4870   39.1420 N   0  0  0  0  0  0  0  0  0  0  0  0
   40.7490   33.0860   39.1470 C   0  0  0  0  0  0  0  0  0  0  0  0
   39.4900   32.2230   39.0280 C   0  0  2  0  0  0  0  0  0  0  0  0
   39.3790   32.0070   37.5550 C   0  0  0  0  0  0  0  0  0  0  0  0
   40.1900   32.4720   36.7590 O   0  0  0  0  0  0  0  0  0  0  0  0
   36.4026   30.9741   38.0062 H   0  0  0  0  0  0  0  0  0  0  0  0
   38.1764   30.8740   38.2770 H   0  0  0  0  0  0  0  0  0  0  0  0
   35.4469   30.7366   40.8698 H   0  0  0  0  0  0  0  0  0  0  0  0
   36.5841   26.7814   41.9204 H   0  0  0  0  0  0  0  0  0  0  0  0
   37.8799   27.9992   36.5267 H   0  0  0  0  0  0  0  0  0  0  0  0
   42.6815   27.8125   38.2619 H   0  0  0  0  0  0  0  0  0  0  0  0
   43.8905   28.3765   36.3795 H   0  0  0  0  0  0  0  0  0  0  0  0
   42.2470   28.1747   35.6997 H   0  0  0  0  0  0  0  0  0  0  0  0
   42.9907   30.2643   34.8335 H   0  0  0  0  0  0  0  0  0  0  0  0
   41.9436   30.7214   36.1972 H   0  0  0  0  0  0  0  0  0  0  0  0
   44.9928   30.6567   36.0459 H   0  0  0  0  0  0  0  0  0  0  0  0
   43.9475   31.9751   36.6189 H   0  0  0  0  0  0  0  0  0  0  0  0
   44.7904   29.4242   37.9945 H   0  0  0  0  0  0  0  0  0  0  0  0
   44.5775   31.0880   38.6648 H   0  0  0  0  0  0  0  0  0  0  0  0
   42.0640   30.7719   38.3454 H   0  0  0  0  0  0  0  0  0  0  0  0
   42.8034   29.7347   39.5976 H   0  0  0  0  0  0  0  0  0  0  0  0
   36.3515   32.8965   39.1678 H   0  0  0  0  0  0  0  0  0  0  0  0
   36.9446   32.0050   40.6226 H   0  0  0  0  0  0  0  0  0  0  0  0
   37.6517   34.3718   40.7877 H   0  0  0  0  0  0  0  0  0  0  0  0
   38.9630   33.2989   41.4371 H   0  0  0  0  0  0  0  0  0  0  0  0
   39.1187   35.8311   39.9573 H   0  0  0  0  0  0  0  0  0  0  0  0
   40.2741   35.0364   41.1077 H   0  0  0  0  0  0  0  0  0  0  0  0
   41.3325   35.0113   39.1861 H   0  0  0  0  0  0  0  0  0  0  0  0
   41.4126   32.8635   38.2984 H   0  0  0  0  0  0  0  0  0  0  0  0
   41.2324   32.8480   40.1060 H   0  0  0  0  0  0  0  0  0  0  0  0
   39.5272   31.2848   39.6010 H   0  0  0  0  0  0  0  0  0  0  0  0
   38.5401   31.4095   37.1687 H   0  0  0  0  0  0  0  0  0  0  0  0
  1 19  1  0
  1  3  1  0
  2  3  1  0
  2  7  2  0
  3  4  2  0
  4  5  1  0
  6  5  2  0
  7  6  1  0
  8 12  1  0
  8  2  1  0
  9  8  1  0
 10  9  2  0
 10 11  1  0
 11 12  2  0
 13 11  1  0
 13 18  1  0
 14 13  1  0
 15 14  1  0
 15 16  1  0
 16 17  1  0
 17 18  1  0
 20 19  1  0
 20 21  1  0
 22 21  1  0
 23 24  1  0
 23 22  1  0
 25 24  1  0
 25 20  1  0
 26 25  1  0
 27 26  2  0
  1 28  1  0
  1 29  1  0
  4 30  1  0
  6 31  1  0
  9 32  1  0
 13 33  1  0
 14 34  1  0
 14 35  1  0
 15 36  1  0
 15 37  1  0
 16 38  1  0
 16 39  1  0
 17 40  1  0
 17 41  1  0
 18 42  1  0
 18 43  1  0
 19 44  1  0
 19 45  1  0
 21 46  1  0
 21 47  1  0
 22 48  1  0
 22 49  1  0
 23 50  1  0
 24 51  1  0
 24 52  1  0
 25 53  1  1
 26 54  1  0
M  ISO  8  28   8  29   8  30  14  31  14  32  14  33  13  34  13  35  13
M  ISO  8  36  13  37  13  38  13  39  13  40  13  41  13  42  13  43  13
M  ISO  8  44   8  45   8  46  13  47  13  48  13  49  13  50   5  51  13
M  ISO  3  52  13  53  13  54   6
M  END
>  <minimizedAffinity>  (1) 
-5.52712297

>  <minimizedRMSD>  (1) 
4.33936977

$$$$
