
     RDKit          3D

 30 32  0  0  1  0  0  0  0  0999 V2000
   36.8460   28.0650   39.8930 C   0  0  1  0  0  0  0  0  0  0  0  0
   36.1890   26.8280   39.3850 C   0  0  0  0  0  0  0  0  0  0  0  0
   35.5790   27.3430   38.0890 C   0  0  0  0  0  0  0  0  0  0  0  0
   35.2180   28.7850   38.3890 C   0  0  0  0  0  0  0  0  0  0  0  0
   35.7380   29.0780   39.7950 C   0  0  2  0  0  0  0  0  0  0  0  0
   37.0210   27.7350   43.5560 C   0  0  0  0  0  0  0  0  0  0  0  0
   38.4290   27.5340   43.7660 C   0  0  0  0  0  0  0  0  0  0  0  0
   39.2860   27.5240   42.6500 C   0  0  0  0  0  0  0  0  0  0  0  0
   38.7520   27.7040   41.4280 N   0  0  0  0  0  0  0  0  0  0  0  0
   37.4090   27.8940   41.2570 C   0  0  0  0  0  0  0  0  0  0  0  0
   36.5620   27.9090   42.3010 N   0  0  0  0  0  0  0  0  0  0  0  0
   36.2970   30.4540   39.7540 C   0  0  0  0  0  0  0  0  0  0  0  0
   36.9120   31.1870   38.7550 C   0  0  0  0  0  0  0  0  0  0  0  0
   37.2310   32.4210   39.2790 C   0  0  0  0  0  0  0  0  0  0  0  0
   36.7970   32.3710   40.5550 N   0  0  0  0  0  0  0  0  0  0  0  0
   36.2340   31.2040   40.8630 N   0  0  0  0  0  0  0  0  0  0  0  0
   37.7360   28.3682   39.3221 H   0  0  0  0  0  0  0  0  0  0  0  0
   36.9206   26.0280   39.1986 H   0  0  0  0  0  0  0  0  0  0  0  0
   35.4669   26.3762   40.0811 H   0  0  0  0  0  0  0  0  0  0  0  0
   34.6819   26.7642   37.8241 H   0  0  0  0  0  0  0  0  0  0  0  0
   36.2677   27.2519   37.2362 H   0  0  0  0  0  0  0  0  0  0  0  0
   35.6953   29.4560   37.6597 H   0  0  0  0  0  0  0  0  0  0  0  0
   34.1316   28.9450   38.3250 H   0  0  0  0  0  0  0  0  0  0  0  0
   35.0148   29.0209   40.6219 H   0  0  0  0  0  0  0  0  0  0  0  0
   36.3269   27.7466   44.4093 H   0  0  0  0  0  0  0  0  0  0  0  0
   38.8290   27.3906   44.7806 H   0  0  0  0  0  0  0  0  0  0  0  0
   40.3685   27.3724   42.7737 H   0  0  0  0  0  0  0  0  0  0  0  0
   37.1105   30.8465   37.7280 H   0  0  0  0  0  0  0  0  0  0  0  0
   37.7286   33.2597   38.7701 H   0  0  0  0  0  0  0  0  0  0  0  0
   36.8909   33.1518   41.2201 H   0  0  0  0  0  0  0  0  0  0  0  0
  1 10  1  0
  2  1  1  0
  3  4  1  0
  3  2  1  0
  4  5  1  0
  5  1  1  0
  6  7  2  0
  8  7  1  0
  9  8  2  0
 10  9  1  0
 10 11  2  0
 11  6  1  0
 12  5  1  0
 12 16  2  0
 13 14  2  0
 13 12  1  0
 14 15  1  0
 15 16  1  0
  1 17  1  6
  2 18  1  0
  2 19  1  0
  3 20  1  0
  3 21  1  0
  4 22  1  0
  4 23  1  0
  5 24  1  1
  6 25  1  0
  7 26  1  0
  8 27  1  0
 13 28  1  0
 14 29  1  0
 15 30  1  0
M  ISO  8  17  13  18  13  19  13  20  13  21  13  22  13  23  13  24  13
M  ISO  6  25  14  26  14  27  14  28  14  29  14  30   9
M  END
>  <minimizedAffinity>  (1) 
-5.04248857

>  <minimizedRMSD>  (1) 
3.51881576

$$$$
