
     RDKit          3D

 19 20  0  0  0  0  0  0  0  0999 V2000
   39.6370   28.0200   43.1740 C   0  0  0  0  0  0  0  0  0  0  0  0
   38.5750   27.1670   43.5680 C   0  0  0  0  0  0  0  0  0  0  0  0
   37.2890   27.5160   43.1660 C   0  0  0  0  0  0  0  0  0  0  0  0
   37.1080   28.6410   42.4250 N   0  0  0  0  0  0  0  0  0  0  0  0
   38.1490   29.4330   42.0670 C   0  0  0  0  0  0  0  0  0  0  0  0
   39.4080   29.1220   42.4410 N   0  0  0  0  0  0  0  0  0  0  0  0
   37.9980   30.6080   41.2990 N   0  0  0  0  0  0  0  0  0  0  0  0
   39.1100   31.1580   40.8440 N   0  0  0  0  0  0  0  0  0  0  0  0
   38.8150   32.2670   40.1320 C   0  0  0  0  0  0  0  0  0  0  0  0
   37.4410   32.3620   40.1800 C   0  0  0  0  0  0  0  0  0  0  0  0
   36.9210   31.3150   40.9160 C   0  0  0  0  0  0  0  0  0  0  0  0
   35.6130   30.9140   41.2860 N   0  0  0  0  0  0  0  0  0  0  0  0
   40.6665   27.7749   43.4739 H   0  0  0  0  0  0  0  0  0  0  0  0
   38.7604   26.2641   44.1683 H   0  0  0  0  0  0  0  0  0  0  0  0
   36.4293   26.8888   43.4447 H   0  0  0  0  0  0  0  0  0  0  0  0
   39.5171   32.9454   39.6252 H   0  0  0  0  0  0  0  0  0  0  0  0
   36.8461   33.1546   39.7027 H   0  0  0  0  0  0  0  0  0  0  0  0
   35.4760   30.0684   41.8579 H   0  0  0  0  0  0  0  0  0  0  0  0
   34.7994   31.4682   40.9830 H   0  0  0  0  0  0  0  0  0  0  0  0
  1  2  2  0
  3  2  1  0
  4  3  2  0
  5  4  1  0
  5  6  2  0
  6  1  1  0
  7  5  1  0
  8  7  1  0
  9 10  1  0
  9  8  2  0
 10 11  2  0
 11 12  1  0
 11  7  1  0
  1 13  1  0
  2 14  1  0
  3 15  1  0
  9 16  1  0
 10 17  1  0
 12 18  1  0
 12 19  1  0
M  ISO  5  13  14  14  14  15  14  16  14  17  14
M  END
>  <minimizedAffinity>  (1) 
-4.62311268

>  <minimizedRMSD>  (1) 
1.17088485

$$$$
