
     RDKit          3D

 11 11  0  0  0  0  0  0  0  0999 V2000
   38.2030   29.5950   42.6560 C   0  0  0  0  0  0  0  0  0  0  0  0
   37.9870   28.4500   43.4510 C   0  0  0  0  0  0  0  0  0  0  0  0
   36.9110   27.6110   43.0840 C   0  0  0  0  0  0  0  0  0  0  0  0
   36.1580   27.9450   42.0070 N   0  0  0  0  0  0  0  0  0  0  0  0
   36.4050   29.0520   41.2790 C   0  0  0  0  0  0  0  0  0  0  0  0
   37.4230   29.8690   41.6060 N   0  0  0  0  0  0  0  0  0  0  0  0
   39.2470   30.4040   43.0170 O   0  0  0  0  0  0  0  0  0  0  0  0
   38.6264   28.2210   44.3163 H   0  0  0  0  0  0  0  0  0  0  0  0
   36.6880   26.7022   43.6622 H   0  0  0  0  0  0  0  0  0  0  0  0
   35.7706   29.2891   40.4122 H   0  0  0  0  0  0  0  0  0  0  0  0
   39.4439   31.2211   42.4939 H   0  0  0  0  0  0  0  0  0  0  0  0
  1  7  1  0
  1  2  2  0
  3  2  1  0
  4  3  2  0
  5  6  2  0
  5  4  1  0
  6  1  1  0
  2  8  1  0
  3  9  1  0
  5 10  1  0
  7 11  1  0
M  ISO  4   8  14   9  14  10  14  11   3
M  END
>  <minimizedAffinity>  (1) 
-2.43671155

>  <minimizedRMSD>  (1) 
0.771697879

$$$$
