
     RDKit          3D

 32 34  0  0  1  0  0  0  0  0999 V2000
   36.7020   30.4340   40.4340 C   0  0  1  0  0  0  0  0  0  0  0  0
   37.3430   31.7660   40.6030 C   0  0  0  0  0  0  0  0  0  0  0  0
   37.0630   32.4020   39.2480 C   0  0  0  0  0  0  0  0  0  0  0  0
   37.0040   31.2400   38.2710 C   0  0  0  0  0  0  0  0  0  0  0  0
   37.1870   29.9670   39.0920 C   0  0  2  0  0  0  0  0  0  0  0  0
   38.3640   28.9850   43.3810 C   0  0  0  0  0  0  0  0  0  0  0  0
   37.5450   27.8350   43.6460 C   0  0  0  0  0  0  0  0  0  0  0  0
   36.4470   27.5770   42.8050 C   0  0  0  0  0  0  0  0  0  0  0  0
   36.2060   28.4180   41.7840 N   0  0  0  0  0  0  0  0  0  0  0  0
   37.0030   29.5070   41.5540 C   0  0  0  0  0  0  0  0  0  0  0  0
   38.0630   29.7830   42.3390 N   0  0  0  0  0  0  0  0  0  0  0  0
   36.2490   28.9780   38.4960 C   0  0  0  0  0  0  0  0  0  0  0  0
   34.9360   29.1990   38.1660 C   0  0  0  0  0  0  0  0  0  0  0  0
   34.1790   28.1920   37.6190 C   0  0  0  0  0  0  0  0  0  0  0  0
   34.7880   26.9570   37.4160 C   0  0  0  0  0  0  0  0  0  0  0  0
   36.1070   26.7410   37.7510 C   0  0  0  0  0  0  0  0  0  0  0  0
   36.8210   27.7600   38.2870 N   0  0  0  0  0  0  0  0  0  0  0  0
   35.6034   30.4801   40.4637 H   0  0  0  0  0  0  0  0  0  0  0  0
   36.8777   32.3367   41.4202 H   0  0  0  0  0  0  0  0  0  0  0  0
   38.4091   31.7237   40.8706 H   0  0  0  0  0  0  0  0  0  0  0  0
   36.1045   32.9414   39.2651 H   0  0  0  0  0  0  0  0  0  0  0  0
   37.8335   33.1362   38.9698 H   0  0  0  0  0  0  0  0  0  0  0  0
   37.8085   31.3297   37.5262 H   0  0  0  0  0  0  0  0  0  0  0  0
   36.0469   31.2270   37.7290 H   0  0  0  0  0  0  0  0  0  0  0  0
   38.1903   29.5179   39.1340 H   0  0  0  0  0  0  0  0  0  0  0  0
   39.2282   29.2114   44.0227 H   0  0  0  0  0  0  0  0  0  0  0  0
   37.7721   27.1683   44.4910 H   0  0  0  0  0  0  0  0  0  0  0  0
   35.7991   26.7053   42.9792 H   0  0  0  0  0  0  0  0  0  0  0  0
   34.4870   30.1880   38.3404 H   0  0  0  0  0  0  0  0  0  0  0  0
   33.1251   28.3562   37.3499 H   0  0  0  0  0  0  0  0  0  0  0  0
   34.2030   26.1347   36.9782 H   0  0  0  0  0  0  0  0  0  0  0  0
   36.5723   25.7580   37.5861 H   0  0  0  0  0  0  0  0  0  0  0  0
  1  2  1  0
  1 10  1  0
  3  2  1  0
  4  5  1  0
  4  3  1  0
  5  1  1  0
  6  7  2  0
  8  7  1  0
  9  8  2  0
 10  9  1  0
 10 11  2  0
 11  6  1  0
 12  5  1  0
 13 12  2  0
 14 13  1  0
 15 14  2  0
 15 16  1  0
 16 17  2  0
 17 12  1  0
  1 18  1  6
  2 19  1  0
  2 20  1  0
  3 21  1  0
  3 22  1  0
  4 23  1  0
  4 24  1  0
  5 25  1  1
  6 26  1  0
  7 27  1  0
  8 28  1  0
 13 29  1  0
 14 30  1  0
 15 31  1  0
 16 32  1  0
M  ISO  8  18  13  19  13  20  13  21  13  22  13  23  13  24  13  25  13
M  ISO  7  26  14  27  14  28  14  29  14  30  14  31  14  32  14
M  END
>  <minimizedAffinity>  (1) 
-4.77856064

>  <minimizedRMSD>  (1) 
1.59206629

$$$$
