
     RDKit          3D

 30 31  0  0  1  0  0  0  0  0999 V2000
   37.0530   31.3780   40.6880 C   0  0  1  0  0  0  0  0  0  0  0  0
   38.1000   32.4120   40.9470 C   0  0  0  0  0  0  0  0  0  0  0  0
   37.6950   33.4620   39.9200 C   0  0  0  0  0  0  0  0  0  0  0  0
   37.2330   32.6360   38.7320 C   0  0  0  0  0  0  0  0  0  0  0  0
   37.0850   31.2010   39.2030 C   0  0  1  0  0  0  0  0  0  0  0  0
   38.5960   28.9620   42.9950 C   0  0  0  0  0  0  0  0  0  0  0  0
   37.6650   27.8730   42.9750 C   0  0  0  0  0  0  0  0  0  0  0  0
   36.5280   27.9990   42.1540 C   0  0  0  0  0  0  0  0  0  0  0  0
   36.3470   29.1300   41.4130 N   0  0  0  0  0  0  0  0  0  0  0  0
   37.2690   30.1400   41.4690 C   0  0  0  0  0  0  0  0  0  0  0  0
   38.3660   30.0580   42.2390 N   0  0  0  0  0  0  0  0  0  0  0  0
   38.1210   30.3290   38.7280 N   0  0  0  0  0  0  0  0  0  0  0  0
   38.7740   30.7670   37.5290 C   0  0  0  0  0  0  0  0  0  0  0  0
   38.3820   31.7450   36.7530 N   0  0  0  0  0  0  0  0  0  0  0  0
   39.9680   30.0990   37.1060 N   0  0  0  0  0  0  0  0  0  0  0  0
   37.5060   32.2620   37.0300 H   0  0  0  0  0  0  0  0  0  0  0  0
   36.0508   31.6816   41.0246 H   0  0  0  0  0  0  0  0  0  0  0  0
   38.0431   32.8022   41.9739 H   0  0  0  0  0  0  0  0  0  0  0  0
   39.1364   32.0539   40.8593 H   0  0  0  0  0  0  0  0  0  0  0  0
   36.8782   34.0917   40.3026 H   0  0  0  0  0  0  0  0  0  0  0  0
   38.5127   34.1537   39.6690 H   0  0  0  0  0  0  0  0  0  0  0  0
   37.9776   32.6911   37.9242 H   0  0  0  0  0  0  0  0  0  0  0  0
   36.2766   33.0167   38.3443 H   0  0  0  0  0  0  0  0  0  0  0  0
   36.1930   30.6910   38.8103 H   0  0  0  0  0  0  0  0  0  0  0  0
   39.4962   28.9059   43.6246 H   0  0  0  0  0  0  0  0  0  0  0  0
   37.8327   26.9698   43.5801 H   0  0  0  0  0  0  0  0  0  0  0  0
   35.7872   27.1871   42.1102 H   0  0  0  0  0  0  0  0  0  0  0  0
   38.3759   29.4558   39.2111 H   0  0  0  0  0  0  0  0  0  0  0  0
   40.4501   30.4005   36.2472 H   0  0  0  0  0  0  0  0  0  0  0  0
   40.3447   29.3171   37.6606 H   0  0  0  0  0  0  0  0  0  0  0  0
  1  2  1  0
  1 10  1  0
  3  2  1  0
  4  5  1  0
  4  3  1  0
  5  1  1  0
  7  6  2  0
  8  7  1  0
  9 10  1  0
  9  8  2  0
 10 11  2  0
 11  6  1  0
 12  5  1  0
 13 12  1  0
 14 16  1  0
 14 13  2  0
 15 13  1  0
  1 17  1  6
  2 18  1  0
  2 19  1  0
  3 20  1  0
  3 21  1  0
  4 22  1  0
  4 23  1  0
  5 24  1  6
  6 25  1  0
  7 26  1  0
  8 27  1  0
 12 28  1  0
 15 29  1  0
 15 30  1  0
M  ISO  8  17  13  18  13  19  13  20  13  21  13  22  13  23  13  24  13
M  ISO  3  25  14  26  14  27  14
M  END
>  <minimizedAffinity>  (1) 
-4.60010529

>  <minimizedRMSD>  (1) 
0.161316887

$$$$
