
     RDKit          3D

 35 36  0  0  1  0  0  0  0  0999 V2000
   37.3080   31.4980   40.8680 C   0  0  1  0  0  0  0  0  0  0  0  0
   38.5680   32.2810   40.9590 C   0  0  0  0  0  0  0  0  0  0  0  0
   38.1810   33.5240   40.1760 C   0  0  0  0  0  0  0  0  0  0  0  0
   37.2090   33.0230   39.1270 C   0  0  0  0  0  0  0  0  0  0  0  0
   36.8940   31.5620   39.4700 C   0  0  1  0  0  0  0  0  0  0  0  0
   38.5730   28.7120   42.8640 C   0  0  0  0  0  0  0  0  0  0  0  0
   37.5170   27.7490   42.7550 C   0  0  0  0  0  0  0  0  0  0  0  0
   36.3900   28.0770   41.9830 C   0  0  0  0  0  0  0  0  0  0  0  0
   36.3500   29.2820   41.3790 N   0  0  0  0  0  0  0  0  0  0  0  0
   37.3790   30.1810   41.5040 C   0  0  0  0  0  0  0  0  0  0  0  0
   38.4760   29.8870   42.2420 N   0  0  0  0  0  0  0  0  0  0  0  0
   37.4580   30.6920   38.4420 C   0  0  0  0  0  0  0  0  0  0  0  0
   37.6960   31.5790   37.2050 C   0  0  0  0  0  0  0  0  0  0  0  0
   38.7640   30.0370   38.7100 C   0  0  0  0  0  0  0  0  0  0  0  0
   36.5030   29.6210   37.9600 C   0  0  0  0  0  0  0  0  0  0  0  0
   36.5009   31.9311   41.4771 H   0  0  0  0  0  0  0  0  0  0  0  0
   38.8221   32.5212   42.0020 H   0  0  0  0  0  0  0  0  0  0  0  0
   39.4591   31.7598   40.5791 H   0  0  0  0  0  0  0  0  0  0  0  0
   37.6981   34.2627   40.8326 H   0  0  0  0  0  0  0  0  0  0  0  0
   39.0526   34.0278   39.7326 H   0  0  0  0  0  0  0  0  0  0  0  0
   37.6651   33.0868   38.1281 H   0  0  0  0  0  0  0  0  0  0  0  0
   36.2923   33.6310   39.1186 H   0  0  0  0  0  0  0  0  0  0  0  0
   35.8588   31.1918   39.4343 H   0  0  0  0  0  0  0  0  0  0  0  0
   39.4663   28.4807   43.4628 H   0  0  0  0  0  0  0  0  0  0  0  0
   37.5873   26.7762   43.2637 H   0  0  0  0  0  0  0  0  0  0  0  0
   35.5579   27.3660   41.8736 H   0  0  0  0  0  0  0  0  0  0  0  0
   37.9684   32.5943   37.5288 H   0  0  0  0  0  0  0  0  0  0  0  0
   38.5122   31.1552   36.6015 H   0  0  0  0  0  0  0  0  0  0  0  0
   36.7773   31.6207   36.6015 H   0  0  0  0  0  0  0  0  0  0  0  0
   38.9191   29.9592   39.7962 H   0  0  0  0  0  0  0  0  0  0  0  0
   38.7674   29.0305   38.2661 H   0  0  0  0  0  0  0  0  0  0  0  0
   39.5727   30.6362   38.2661 H   0  0  0  0  0  0  0  0  0  0  0  0
   36.0519   29.1151   38.8264 H   0  0  0  0  0  0  0  0  0  0  0  0
   35.7112   30.0826   37.3517 H   0  0  0  0  0  0  0  0  0  0  0  0
   37.0519   28.8871   37.3517 H   0  0  0  0  0  0  0  0  0  0  0  0
  1  2  1  0
  1 10  1  0
  3  2  1  0
  4  5  1  0
  4  3  1  0
  5  1  1  0
  7  6  2  0
  8  7  1  0
  9 10  1  0
  9  8  2  0
 10 11  2  0
 11  6  1  0
 12 14  1  0
 12  5  1  0
 13 12  1  0
 15 12  1  0
  1 16  1  1
  2 17  1  0
  2 18  1  0
  3 19  1  0
  3 20  1  0
  4 21  1  0
  4 22  1  0
  5 23  1  1
  6 24  1  0
  7 25  1  0
  8 26  1  0
 13 27  1  0
 13 28  1  0
 13 29  1  0
 14 30  1  0
 14 31  1  0
 14 32  1  0
 15 33  1  0
 15 34  1  0
 15 35  1  0
M  ISO  8  16  13  17  13  18  13  19  13  20  13  21  13  22  13  23  13
M  ISO  8  24  14  25  14  26  14  27   8  28   8  29   8  30   8  31   8
M  ISO  4  32   8  33   8  34   8  35   8
M  END
>  <minimizedAffinity>  (1) 
-4.57957363

>  <minimizedRMSD>  (1) 
0.637185514

$$$$
