
     RDKit          3D

 36 38  0  0  1  0  0  0  0  0999 V2000
   36.9040   30.8980   40.1930 C   0  0  1  0  0  0  0  0  0  0  0  0
   37.4080   32.2500   40.5710 C   0  0  0  0  0  0  0  0  0  0  0  0
   37.2560   33.0030   39.2660 C   0  0  0  0  0  0  0  0  0  0  0  0
   37.3710   31.9320   38.1750 C   0  0  0  0  0  0  0  0  0  0  0  0
   37.6450   30.6340   38.9110 C   0  0  2  0  0  0  0  0  0  0  0  0
   38.4060   29.1710   43.0780 C   0  0  0  0  0  0  0  0  0  0  0  0
   37.5330   28.0430   43.2540 C   0  0  0  0  0  0  0  0  0  0  0  0
   36.4540   27.9090   42.3630 C   0  0  0  0  0  0  0  0  0  0  0  0
   36.2720   28.8300   41.3820 N   0  0  0  0  0  0  0  0  0  0  0  0
   37.1290   29.8860   41.2520 C   0  0  0  0  0  0  0  0  0  0  0  0
   38.1750   30.0520   42.0840 N   0  0  0  0  0  0  0  0  0  0  0  0
   37.2790   29.4610   38.2100 N   0  0  0  0  0  0  0  0  0  0  0  0
   38.3350   29.1930   37.2200 C   0  0  0  0  0  0  0  0  0  0  0  0
   37.8410   28.2430   36.1550 C   0  0  0  0  0  0  0  0  0  0  0  0
   36.8890   27.4210   36.7370 O   0  0  0  0  0  0  0  0  0  0  0  0
   35.7230   28.1630   36.9090 C   0  0  0  0  0  0  0  0  0  0  0  0
   36.0000   29.4910   37.5850 C   0  0  0  0  0  0  0  0  0  0  0  0
   35.8128   30.8447   40.0645 H   0  0  0  0  0  0  0  0  0  0  0  0
   36.7965   32.6988   41.3677 H   0  0  0  0  0  0  0  0  0  0  0  0
   38.4317   32.2512   40.9735 H   0  0  0  0  0  0  0  0  0  0  0  0
   36.2759   33.5001   39.2182 H   0  0  0  0  0  0  0  0  0  0  0  0
   38.0145   33.7915   39.1529 H   0  0  0  0  0  0  0  0  0  0  0  0
   38.1987   32.1680   37.4899 H   0  0  0  0  0  0  0  0  0  0  0  0
   36.4581   31.8708   37.5643 H   0  0  0  0  0  0  0  0  0  0  0  0
   38.7105   30.4031   39.0577 H   0  0  0  0  0  0  0  0  0  0  0  0
   39.2619   29.3154   43.7537 H   0  0  0  0  0  0  0  0  0  0  0  0
   37.7030   27.3108   44.0571 H   0  0  0  0  0  0  0  0  0  0  0  0
   35.7598   27.0613   42.4601 H   0  0  0  0  0  0  0  0  0  0  0  0
   38.6356   30.1399   36.7477 H   0  0  0  0  0  0  0  0  0  0  0  0
   39.1921   28.7331   37.7336 H   0  0  0  0  0  0  0  0  0  0  0  0
   38.6772   27.6380   35.7747 H   0  0  0  0  0  0  0  0  0  0  0  0
   37.4075   28.7997   35.3111 H   0  0  0  0  0  0  0  0  0  0  0  0
   35.2715   28.3515   35.9238 H   0  0  0  0  0  0  0  0  0  0  0  0
   35.0405   27.5866   37.5508 H   0  0  0  0  0  0  0  0  0  0  0  0
   35.9805   30.2937   36.8331 H   0  0  0  0  0  0  0  0  0  0  0  0
   35.2293   29.6760   38.3477 H   0  0  0  0  0  0  0  0  0  0  0  0
  1  2  1  0
  1 10  1  0
  3  2  1  0
  4  5  1  0
  4  3  1  0
  5  1  1  0
  6  7  2  0
  8  7  1  0
  9  8  2  0
 10  9  1  0
 10 11  2  0
 11  6  1  0
 12  5  1  0
 13 12  1  0
 14 15  1  0
 14 13  1  0
 15 16  1  0
 16 17  1  0
 17 12  1  0
  1 18  1  6
  2 19  1  0
  2 20  1  0
  3 21  1  0
  3 22  1  0
  4 23  1  0
  4 24  1  0
  5 25  1  1
  6 26  1  0
  7 27  1  0
  8 28  1  0
 13 29  1  0
 13 30  1  0
 14 31  1  0
 14 32  1  0
 16 33  1  0
 16 34  1  0
 17 35  1  0
 17 36  1  0
M  ISO  8  18  13  19  13  20  13  21  13  22  13  23  13  24  13  25  13
M  ISO  8  26  14  27  14  28  14  29  13  30  13  31  13  32  13  33  13
M  ISO  3  34  13  35  13  36  13
M  END
>  <minimizedAffinity>  (1) 
-4.52463007

>  <minimizedRMSD>  (1) 
1.63197279

$$$$
