
     RDKit          3D

 26 27  0  0  1  0  0  0  0  0999 V2000
   36.8630   30.9640   40.2560 C   0  0  1  0  0  0  0  0  0  0  0  0
   37.5190   32.2650   40.5980 C   0  0  0  0  0  0  0  0  0  0  0  0
   37.2510   33.0660   39.3320 C   0  0  0  0  0  0  0  0  0  0  0  0
   37.3080   32.0330   38.2270 C   0  0  0  0  0  0  0  0  0  0  0  0
   37.4050   30.6610   38.8970 C   0  0  2  0  0  0  0  0  0  0  0  0
   38.4030   29.1670   43.0740 C   0  0  0  0  0  0  0  0  0  0  0  0
   37.5390   28.0300   43.2260 C   0  0  0  0  0  0  0  0  0  0  0  0
   36.4500   27.9140   42.3400 C   0  0  0  0  0  0  0  0  0  0  0  0
   36.2670   28.8640   41.3960 N   0  0  0  0  0  0  0  0  0  0  0  0
   37.1040   29.9250   41.2840 C   0  0  0  0  0  0  0  0  0  0  0  0
   38.1530   30.0740   42.1070 N   0  0  0  0  0  0  0  0  0  0  0  0
   36.5130   29.7560   38.0670 C   0  0  0  0  0  0  0  0  0  0  0  0
   36.6290   30.1040   36.7220 F   0  0  0  0  0  0  0  0  0  0  0  0
   36.9910   28.4360   38.1320 F   0  0  0  0  0  0  0  0  0  0  0  0
   35.2140   29.7450   38.4570 F   0  0  0  0  0  0  0  0  0  0  0  0
   35.7638   31.0038   40.2413 H   0  0  0  0  0  0  0  0  0  0  0  0
   37.0540   32.7329   41.4783 H   0  0  0  0  0  0  0  0  0  0  0  0
   38.5828   32.1805   40.8648 H   0  0  0  0  0  0  0  0  0  0  0  0
   36.2598   33.5413   39.3724 H   0  0  0  0  0  0  0  0  0  0  0  0
   37.9736   33.8825   39.1863 H   0  0  0  0  0  0  0  0  0  0  0  0
   38.1904   32.2066   37.5936 H   0  0  0  0  0  0  0  0  0  0  0  0
   36.4146   32.0940   37.5881 H   0  0  0  0  0  0  0  0  0  0  0  0
   38.3881   30.1730   38.9700 H   0  0  0  0  0  0  0  0  0  0  0  0
   39.2657   29.2980   43.7437 H   0  0  0  0  0  0  0  0  0  0  0  0
   37.7211   27.2765   44.0065 H   0  0  0  0  0  0  0  0  0  0  0  0
   35.7581   27.0621   42.4153 H   0  0  0  0  0  0  0  0  0  0  0  0
  1  2  1  0
  1 10  1  0
  3  2  1  0
  4  5  1  0
  4  3  1  0
  5  1  1  0
  6  7  2  0
  8  7  1  0
  9  8  2  0
 10  9  1  0
 10 11  2  0
 11  6  1  0
 12 14  1  0
 12 15  1  0
 12  5  1  0
 13 12  1  0
  1 16  1  6
  2 17  1  0
  2 18  1  0
  3 19  1  0
  3 20  1  0
  4 21  1  0
  4 22  1  0
  5 23  1  1
  6 24  1  0
  7 25  1  0
  8 26  1  0
M  ISO  8  16  13  17  13  18  13  19  13  20  13  21  13  22  13  23  13
M  ISO  3  24  14  25  14  26  14
M  END
>  <minimizedAffinity>  (1) 
-4.5209465

>  <minimizedRMSD>  (1) 
0.826851189

$$$$
