
     RDKit          3D

 26 27  0  0  1  0  0  0  0  0999 V2000
   38.2780   30.9240   41.7790 C   0  0  1  0  0  0  0  0  0  0  0  0
   39.5680   31.6430   41.5860 C   0  0  0  0  0  0  0  0  0  0  0  0
   39.1210   32.8320   40.7450 C   0  0  0  0  0  0  0  0  0  0  0  0
   37.8850   32.3630   40.0110 C   0  0  0  0  0  0  0  0  0  0  0  0
   37.7180   30.8910   40.3810 C   0  0  2  0  0  0  0  0  0  0  0  0
   39.8200   27.7340   42.7690 C   0  0  0  0  0  0  0  0  0  0  0  0
   38.8020   27.1540   43.5990 C   0  0  0  0  0  0  0  0  0  0  0  0
   37.6050   27.8690   43.7920 C   0  0  0  0  0  0  0  0  0  0  0  0
   37.4590   29.0700   43.1930 N   0  0  0  0  0  0  0  0  0  0  0  0
   38.4540   29.5900   42.4060 C   0  0  0  0  0  0  0  0  0  0  0  0
   39.6030   28.9360   42.2020 N   0  0  0  0  0  0  0  0  0  0  0  0
   36.2820   30.5010   40.3670 C   0  0  0  0  0  0  0  0  0  0  0  0
   35.6400   29.7870   39.5360 O   0  0  0  0  0  0  0  0  0  0  0  0
   35.5710   31.0160   41.4390 O   0  0  0  0  0  0  0  0  0  0  0  0
   37.5938   31.4127   42.4882 H   0  0  0  0  0  0  0  0  0  0  0  0
   39.9967   31.9666   42.5459 H   0  0  0  0  0  0  0  0  0  0  0  0
   40.3591   31.0347   41.1233 H   0  0  0  0  0  0  0  0  0  0  0  0
   38.8831   33.6913   41.3892 H   0  0  0  0  0  0  0  0  0  0  0  0
   39.9085   33.1612   40.0511 H   0  0  0  0  0  0  0  0  0  0  0  0
   38.0194   32.4725   38.9247 H   0  0  0  0  0  0  0  0  0  0  0  0
   36.9996   32.9541   40.2880 H   0  0  0  0  0  0  0  0  0  0  0  0
   38.2008   30.1688   39.7062 H   0  0  0  0  0  0  0  0  0  0  0  0
   40.7675   27.2019   42.5980 H   0  0  0  0  0  0  0  0  0  0  0  0
   38.9541   26.1732   44.0733 H   0  0  0  0  0  0  0  0  0  0  0  0
   36.8020   27.4561   44.4203 H   0  0  0  0  0  0  0  0  0  0  0  0
   34.6049   30.8207   41.5319 H   0  0  0  0  0  0  0  0  0  0  0  0
  1 10  1  0
  2  1  1  0
  3  2  1  0
  4  5  1  0
  4  3  1  0
  5  1  1  0
  6  7  2  0
  7  8  1  0
  9  8  2  0
 10  9  1  0
 11 10  2  0
 11  6  1  0
 12  5  1  0
 12 14  1  0
 13 12  2  0
  1 15  1  1
  2 16  1  0
  2 17  1  0
  3 18  1  0
  3 19  1  0
  4 20  1  0
  4 21  1  0
  5 22  1  6
  6 23  1  0
  7 24  1  0
  8 25  1  0
 14 26  1  0
M  ISO  8  15  13  16  13  17  13  18  13  19  13  20  13  21  13  22  13
M  ISO  4  23  14  24  14  25  14  26   3
M  END
>  <minimizedAffinity>  (1) 
-4.46404028

>  <minimizedRMSD>  (1) 
1.83203542

$$$$
