
     RDKit          3D

 35 37  0  0  1  0  0  0  0  0999 V2000
   36.9030   30.9720   40.2270 C   0  0  1  0  0  0  0  0  0  0  0  0
   37.4710   32.2980   40.6010 C   0  0  0  0  0  0  0  0  0  0  0  0
   37.3400   33.0640   39.2860 C   0  0  0  0  0  0  0  0  0  0  0  0
   37.2820   32.0100   38.1970 C   0  0  0  0  0  0  0  0  0  0  0  0
   37.5680   30.7060   38.9040 C   0  0  2  0  0  0  0  0  0  0  0  0
   38.4640   29.1600   43.0280 C   0  0  0  0  0  0  0  0  0  0  0  0
   37.5750   28.0450   43.1970 C   0  0  0  0  0  0  0  0  0  0  0  0
   36.4660   27.9380   42.3390 C   0  0  0  0  0  0  0  0  0  0  0  0
   36.2730   28.8870   41.3830 N   0  0  0  0  0  0  0  0  0  0  0  0
   37.1430   29.9300   41.2570 C   0  0  0  0  0  0  0  0  0  0  0  0
   38.2180   30.0660   42.0610 N   0  0  0  0  0  0  0  0  0  0  0  0
   37.1260   29.5500   38.2540 N   0  0  0  0  0  0  0  0  0  0  0  0
   35.8200   29.4900   37.7650 C   0  0  0  0  0  0  0  0  0  0  0  0
   35.8810   28.6250   36.5250 C   0  0  0  0  0  0  0  0  0  0  0  0
   37.3160   28.7620   36.0970 C   0  0  0  0  0  0  0  0  0  0  0  0
   38.0430   28.8770   37.4180 C   0  0  0  0  0  0  0  0  0  0  0  0
   35.8055   30.9596   40.1542 H   0  0  0  0  0  0  0  0  0  0  0  0
   36.8879   32.7736   41.4034 H   0  0  0  0  0  0  0  0  0  0  0  0
   38.4972   32.2527   40.9946 H   0  0  0  0  0  0  0  0  0  0  0  0
   36.4202   33.6674   39.2843 H   0  0  0  0  0  0  0  0  0  0  0  0
   38.1819   33.7557   39.1351 H   0  0  0  0  0  0  0  0  0  0  0  0
   38.0417   32.2073   37.4263 H   0  0  0  0  0  0  0  0  0  0  0  0
   36.3096   31.9982   37.6829 H   0  0  0  0  0  0  0  0  0  0  0  0
   38.6396   30.4650   38.9646 H   0  0  0  0  0  0  0  0  0  0  0  0
   39.3400   29.2739   43.6835 H   0  0  0  0  0  0  0  0  0  0  0  0
   37.7571   27.2928   43.9787 H   0  0  0  0  0  0  0  0  0  0  0  0
   35.7633   27.0977   42.4394 H   0  0  0  0  0  0  0  0  0  0  0  0
   35.1515   29.0394   38.5134 H   0  0  0  0  0  0  0  0  0  0  0  0
   35.4267   30.4922   37.5394 H   0  0  0  0  0  0  0  0  0  0  0  0
   35.6349   27.5787   36.7587 H   0  0  0  0  0  0  0  0  0  0  0  0
   35.1630   28.9251   35.7476 H   0  0  0  0  0  0  0  0  0  0  0  0
   37.6495   27.8767   35.5357 H   0  0  0  0  0  0  0  0  0  0  0  0
   37.4930   29.6138   35.4239 H   0  0  0  0  0  0  0  0  0  0  0  0
   38.2820   27.8817   37.8209 H   0  0  0  0  0  0  0  0  0  0  0  0
   39.0028   29.4069   37.3287 H   0  0  0  0  0  0  0  0  0  0  0  0
  1  2  1  0
  1 10  1  0
  3  2  1  0
  4  5  1  0
  4  3  1  0
  5  1  1  0
  6  7  2  0
  8  7  1  0
  9  8  2  0
 10  9  1  0
 10 11  2  0
 11  6  1  0
 12 13  1  0
 12  5  1  0
 14 13  1  0
 15 14  1  0
 15 16  1  0
 16 12  1  0
  1 17  1  6
  2 18  1  0
  2 19  1  0
  3 20  1  0
  3 21  1  0
  4 22  1  0
  4 23  1  0
  5 24  1  1
  6 25  1  0
  7 26  1  0
  8 27  1  0
 13 28  1  0
 13 29  1  0
 14 30  1  0
 14 31  1  0
 15 32  1  0
 15 33  1  0
 16 34  1  0
 16 35  1  0
M  ISO  8  17  13  18  13  19  13  20  13  21  13  22  13  23  13  24  13
M  ISO  8  25  14  26  14  27  14  28  13  29  13  30  13  31  13  32  13
M  ISO  3  33  13  34  13  35  13
M  END
>  <minimizedAffinity>  (1) 
-4.43333101

>  <minimizedRMSD>  (1) 
1.63669956

$$$$
