
     RDKit          3D

 11 11  0  0  0  0  0  0  0  0999 V2000
   38.2310   30.9630   39.6080 C   0  0  0  0  0  0  0  0  0  0  0  0
   36.8770   31.3110   39.8380 C   0  0  0  0  0  0  0  0  0  0  0  0
   36.2560   30.8220   41.0010 C   0  0  0  0  0  0  0  0  0  0  0  0
   37.0000   30.0440   41.8290 N   0  0  0  0  0  0  0  0  0  0  0  0
   38.2840   29.7270   41.5890 C   0  0  0  0  0  0  0  0  0  0  0  0
   38.8920   30.1870   40.4810 N   0  0  0  0  0  0  0  0  0  0  0  0
   38.9080   31.6460   38.0980 S   0  0  0  0  0  0  0  0  0  0  0  0
   36.3273   31.9455   39.1272 H   0  0  0  0  0  0  0  0  0  0  0  0
   35.2072   31.0606   41.2314 H   0  0  0  0  0  0  0  0  0  0  0  0
   38.8366   29.0925   42.2976 H   0  0  0  0  0  0  0  0  0  0  0  0
   39.8477   32.5940   38.4067 H   0  0  0  0  0  0  0  0  0  0  0  0
  1  2  2  0
  1  6  1  0
  2  3  1  0
  3  4  2  0
  5  4  1  0
  6  5  2  0
  7  1  1  0
  2  8  1  0
  3  9  1  0
  5 10  1  0
  7 11  1  0
M  ISO  4   8  14   9  14  10  14  11  11
M  END
>  <minimizedAffinity>  (1) 
-2.11060762

>  <minimizedRMSD>  (1) 
4.03310633

$$$$
