
     RDKit          3D

 30 32  0  0  1  0  0  0  0  0999 V2000
   36.8970   30.7000   40.1700 C   0  0  1  0  0  0  0  0  0  0  0  0
   37.2760   32.0980   40.5010 C   0  0  0  0  0  0  0  0  0  0  0  0
   37.1760   32.7730   39.1420 C   0  0  0  0  0  0  0  0  0  0  0  0
   37.3950   31.6730   38.1190 C   0  0  0  0  0  0  0  0  0  0  0  0
   37.6860   30.4070   38.9210 C   0  0  2  0  0  0  0  0  0  0  0  0
   38.4710   29.1680   43.1290 C   0  0  0  0  0  0  0  0  0  0  0  0
   37.6090   28.0520   43.3950 C   0  0  0  0  0  0  0  0  0  0  0  0
   36.5120   27.8540   42.5350 C   0  0  0  0  0  0  0  0  0  0  0  0
   36.2980   28.7060   41.4980 N   0  0  0  0  0  0  0  0  0  0  0  0
   37.1520   29.7590   41.2890 C   0  0  0  0  0  0  0  0  0  0  0  0
   38.2160   29.9860   42.0870 N   0  0  0  0  0  0  0  0  0  0  0  0
   37.0110   29.2680   38.1860 C   0  0  0  0  0  0  0  0  0  0  0  0
   35.5250   29.4840   37.9880 C   0  0  0  0  0  0  0  0  0  0  0  0
   36.4850   29.4220   36.8250 C   0  0  0  0  0  0  0  0  0  0  0  0
   35.8173   30.5724   40.0025 H   0  0  0  0  0  0  0  0  0  0  0  0
   36.5755   32.5434   41.2227 H   0  0  0  0  0  0  0  0  0  0  0  0
   38.2637   32.1930   40.9758 H   0  0  0  0  0  0  0  0  0  0  0  0
   36.1822   33.2260   39.0111 H   0  0  0  0  0  0  0  0  0  0  0  0
   37.9156   33.5801   39.0345 H   0  0  0  0  0  0  0  0  0  0  0  0
   38.2480   31.9189   37.4695 H   0  0  0  0  0  0  0  0  0  0  0  0
   36.5170   31.5460   37.4686 H   0  0  0  0  0  0  0  0  0  0  0  0
   38.7448   30.1591   39.0866 H   0  0  0  0  0  0  0  0  0  0  0  0
   39.3407   29.3567   43.7755 H   0  0  0  0  0  0  0  0  0  0  0  0
   37.7986   27.3751   44.2410 H   0  0  0  0  0  0  0  0  0  0  0  0
   35.8277   27.0092   42.7025 H   0  0  0  0  0  0  0  0  0  0  0  0
   37.6852   28.5139   38.6182 H   0  0  0  0  0  0  0  0  0  0  0  0
   34.8157   28.6625   38.1670 H   0  0  0  0  0  0  0  0  0  0  0  0
   34.7759   30.2008   38.3555 H   0  0  0  0  0  0  0  0  0  0  0  0
   36.4654   28.5573   36.1453 H   0  0  0  0  0  0  0  0  0  0  0  0
   36.7161   30.0870   35.9798 H   0  0  0  0  0  0  0  0  0  0  0  0
  1  2  1  0
  1 10  1  0
  3  2  1  0
  4  5  1  0
  4  3  1  0
  5  1  1  0
  6  7  2  0
  8  7  1  0
  9  8  2  0
 10  9  1  0
 10 11  2  0
 11  6  1  0
 12  5  1  0
 13 12  1  0
 14 13  1  0
 14 12  1  0
  1 15  1  6
  2 16  1  0
  2 17  1  0
  3 18  1  0
  3 19  1  0
  4 20  1  0
  4 21  1  0
  5 22  1  1
  6 23  1  0
  7 24  1  0
  8 25  1  0
 12 26  1  0
 13 27  1  0
 13 28  1  0
 14 29  1  0
 14 30  1  0
M  ISO  8  15  13  16  13  17  13  18  13  19  13  20  13  21  13  22  13
M  ISO  8  23  14  24  14  25  14  26  13  27  13  28  13  29  13  30  13
M  END
>  <minimizedAffinity>  (1) 
-4.38188362

>  <minimizedRMSD>  (1) 
1.25382495

$$$$
