
     RDKit          3D

 28 30  0  0  1  0  0  0  0  0999 V2000
   36.8750   30.8870   40.2380 C   0  0  1  0  0  0  0  0  0  0  0  0
   37.4230   32.2270   40.5860 C   0  0  0  0  0  0  0  0  0  0  0  0
   37.2910   32.9690   39.2580 C   0  0  0  0  0  0  0  0  0  0  0  0
   37.2560   31.8970   38.1890 C   0  0  0  0  0  0  0  0  0  0  0  0
   37.5270   30.5860   38.9140 C   0  0  2  0  0  0  0  0  0  0  0  0
   38.4280   29.1690   43.0940 C   0  0  0  0  0  0  0  0  0  0  0  0
   37.5600   28.0390   43.2790 C   0  0  0  0  0  0  0  0  0  0  0  0
   36.4660   27.8940   42.4080 C   0  0  0  0  0  0  0  0  0  0  0  0
   36.2670   28.8150   41.4310 N   0  0  0  0  0  0  0  0  0  0  0  0
   37.1220   29.8740   41.2950 C   0  0  0  0  0  0  0  0  0  0  0  0
   38.1760   30.0510   42.1000 N   0  0  0  0  0  0  0  0  0  0  0  0
   36.8910   29.4720   38.1870 C   0  0  0  0  0  0  0  0  0  0  0  0
   35.6650   29.5030   37.6870 N   0  0  0  0  0  0  0  0  0  0  0  0
   35.4360   28.3650   37.1210 O   0  0  0  0  0  0  0  0  0  0  0  0
   36.4930   27.6100   37.2520 C   0  0  0  0  0  0  0  0  0  0  0  0
   37.4610   28.2770   37.9330 N   0  0  0  0  0  0  0  0  0  0  0  0
   35.7778   30.8668   40.1624 H   0  0  0  0  0  0  0  0  0  0  0  0
   36.8295   32.7102   41.3762 H   0  0  0  0  0  0  0  0  0  0  0  0
   38.4484   32.2010   40.9833 H   0  0  0  0  0  0  0  0  0  0  0  0
   36.3629   33.5591   39.2394 H   0  0  0  0  0  0  0  0  0  0  0  0
   38.1237   33.6704   39.1013 H   0  0  0  0  0  0  0  0  0  0  0  0
   38.0317   32.0844   37.4319 H   0  0  0  0  0  0  0  0  0  0  0  0
   36.2902   31.8787   37.6627 H   0  0  0  0  0  0  0  0  0  0  0  0
   38.5790   30.2777   39.0051 H   0  0  0  0  0  0  0  0  0  0  0  0
   39.2930   29.3160   43.7574 H   0  0  0  0  0  0  0  0  0  0  0  0
   37.7462   27.3080   44.0796 H   0  0  0  0  0  0  0  0  0  0  0  0
   35.7781   27.0426   42.5172 H   0  0  0  0  0  0  0  0  0  0  0  0
   36.5862   26.5837   36.8672 H   0  0  0  0  0  0  0  0  0  0  0  0
  1  2  1  0
  1 10  1  0
  3  2  1  0
  4  5  1  0
  4  3  1  0
  5  1  1  0
  6  7  2  0
  8  7  1  0
  9  8  2  0
 10  9  1  0
 10 11  2  0
 11  6  1  0
 12  5  1  0
 13 12  2  0
 14 15  1  0
 14 13  1  0
 15 16  2  0
 16 12  1  0
  1 17  1  6
  2 18  1  0
  2 19  1  0
  3 20  1  0
  3 21  1  0
  4 22  1  0
  4 23  1  0
  5 24  1  1
  6 25  1  0
  7 26  1  0
  8 27  1  0
 15 28  1  0
M  ISO  8  17  13  18  13  19  13  20  13  21  13  22  13  23  13  24  13
M  ISO  4  25  14  26  14  27  14  28  14
M  END
>  <minimizedAffinity>  (1) 
-4.35326672

>  <minimizedRMSD>  (1) 
1.15137458

$$$$
