
     RDKit          3D

 26 27  0  0  1  0  0  0  0  0999 V2000
   36.8530   30.9690   40.2800 C   0  0  1  0  0  0  0  0  0  0  0  0
   37.5220   32.2600   40.6070 C   0  0  0  0  0  0  0  0  0  0  0  0
   37.2910   33.0480   39.3250 C   0  0  0  0  0  0  0  0  0  0  0  0
   37.2410   31.9970   38.2180 C   0  0  0  0  0  0  0  0  0  0  0  0
   37.3790   30.6430   38.9090 C   0  0  2  0  0  0  0  0  0  0  0  0
   38.4100   29.1520   43.0780 C   0  0  0  0  0  0  0  0  0  0  0  0
   37.5360   28.0230   43.2300 C   0  0  0  0  0  0  0  0  0  0  0  0
   36.4360   27.9110   42.3580 C   0  0  0  0  0  0  0  0  0  0  0  0
   36.2380   28.8650   41.4090 N   0  0  0  0  0  0  0  0  0  0  0  0
   37.0980   29.9220   41.3030 C   0  0  0  0  0  0  0  0  0  0  0  0
   38.1510   30.0610   42.1120 N   0  0  0  0  0  0  0  0  0  0  0  0
   36.4130   29.7120   38.2000 C   0  0  0  0  0  0  0  0  0  0  0  0
   35.7549   31.0327   40.2832 H   0  0  0  0  0  0  0  0  0  0  0  0
   37.0507   32.7502   41.4716 H   0  0  0  0  0  0  0  0  0  0  0  0
   38.5802   32.1602   40.8903 H   0  0  0  0  0  0  0  0  0  0  0  0
   36.3412   33.6004   39.3767 H   0  0  0  0  0  0  0  0  0  0  0  0
   38.0804   33.7940   39.1509 H   0  0  0  0  0  0  0  0  0  0  0  0
   38.0687   32.1497   37.5097 H   0  0  0  0  0  0  0  0  0  0  0  0
   36.3033   32.0614   37.6465 H   0  0  0  0  0  0  0  0  0  0  0  0
   38.3801   30.1872   38.9169 H   0  0  0  0  0  0  0  0  0  0  0  0
   39.2799   29.2756   43.7398 H   0  0  0  0  0  0  0  0  0  0  0  0
   37.7207   27.2661   44.0065 H   0  0  0  0  0  0  0  0  0  0  0  0
   35.7437   27.0604   42.4435 H   0  0  0  0  0  0  0  0  0  0  0  0
   35.8307   29.1508   38.9456 H   0  0  0  0  0  0  0  0  0  0  0  0
   35.7308   30.3019   37.5702 H   0  0  0  0  0  0  0  0  0  0  0  0
   36.9773   29.0085   37.5702 H   0  0  0  0  0  0  0  0  0  0  0  0
  1  2  1  0
  1 10  1  0
  3  2  1  0
  4  5  1  0
  4  3  1  0
  5  1  1  0
  6  7  2  0
  8  7  1  0
  9  8  2  0
 10  9  1  0
 10 11  2  0
 11  6  1  0
 12  5  1  0
  1 13  1  6
  2 14  1  0
  2 15  1  0
  3 16  1  0
  3 17  1  0
  4 18  1  0
  4 19  1  0
  5 20  1  1
  6 21  1  0
  7 22  1  0
  8 23  1  0
 12 24  1  0
 12 25  1  0
 12 26  1  0
M  ISO  8  13  13  14  13  15  13  16  13  17  13  18  13  19  13  20  13
M  ISO  6  21  14  22  14  23  14  24   8  25   8  26   8
M  END
>  <minimizedAffinity>  (1) 
-4.1121664

>  <minimizedRMSD>  (1) 
0.532149971

$$$$
