
     RDKit          3D

 44 48  0  0  1  0  0  0  0  0999 V2000
   37.6050   31.1860   40.7780 C   0  0  1  0  0  0  0  0  0  0  0  0
   38.3410   32.4610   40.8200 C   0  0  0  0  0  0  0  0  0  0  0  0
   37.7480   33.2110   39.6300 C   0  0  0  0  0  0  0  0  0  0  0  0
   37.1350   32.1670   38.7320 C   0  0  0  0  0  0  0  0  0  0  0  0
   37.5990   30.8390   39.2950 C   0  0  2  0  0  0  0  0  0  0  0  0
   40.1520   28.9420   42.2330 C   0  0  0  0  0  0  0  0  0  0  0  0
   39.3840   28.2280   43.2270 C   0  0  0  0  0  0  0  0  0  0  0  0
   38.0040   28.5350   43.3580 C   0  0  0  0  0  0  0  0  0  0  0  0
   37.4480   29.4790   42.5570 N   0  0  0  0  0  0  0  0  0  0  0  0
   38.2190   30.1250   41.6340 C   0  0  0  0  0  0  0  0  0  0  0  0
   39.5430   29.8690   41.4670 N   0  0  0  0  0  0  0  0  0  0  0  0
   36.7190   29.7330   38.9640 C   0  0  0  0  0  0  0  0  0  0  0  0
   35.3700   29.5110   38.6990 C   0  0  0  0  0  0  0  0  0  0  0  0
   34.9490   28.2560   38.4300 C   0  0  0  0  0  0  0  0  0  0  0  0
   35.8610   27.2080   38.4220 C   0  0  0  0  0  0  0  0  0  0  0  0
   37.4790   28.0620   38.8340 S   0  0  0  0  0  0  0  0  0  0  0  0
   35.6870   25.8790   38.1830 N   0  0  0  0  0  0  0  0  0  0  0  0
   34.9480   25.4380   37.1470 C   0  0  0  0  0  0  0  0  0  0  0  0
   34.9490   24.0790   37.1530 N   0  0  0  0  0  0  0  0  0  0  0  0
   35.6860   23.6550   38.1900 C   0  0  0  0  0  0  0  0  0  0  0  0
   36.0130   22.3880   38.6540 C   0  0  0  0  0  0  0  0  0  0  0  0
   35.5760   21.3780   38.0450 O   0  0  0  0  0  0  0  0  0  0  0  0
   36.7920   22.3340   39.7500 N   0  0  0  0  0  0  0  0  0  0  0  0
   37.2430   23.4480   40.3780 C   0  0  0  0  0  0  0  0  0  0  0  0
   38.0670   23.2980   41.5360 N   0  0  0  0  0  0  0  0  0  0  0  0
   36.9330   24.6890   39.9360 N   0  0  0  0  0  0  0  0  0  0  0  0
   36.1550   24.7990   38.8430 C   0  0  0  0  0  0  0  0  0  0  0  0
   36.5903   31.2663   41.1951 H   0  0  0  0  0  0  0  0  0  0  0  0
   38.1568   32.9977   41.7624 H   0  0  0  0  0  0  0  0  0  0  0  0
   39.4336   32.3436   40.7697 H   0  0  0  0  0  0  0  0  0  0  0  0
   36.9782   33.9186   39.9715 H   0  0  0  0  0  0  0  0  0  0  0  0
   38.5180   33.7908   39.1000 H   0  0  0  0  0  0  0  0  0  0  0  0
   37.4878   32.2922   37.6977 H   0  0  0  0  0  0  0  0  0  0  0  0
   36.0379   32.2413   38.7033 H   0  0  0  0  0  0  0  0  0  0  0  0
   38.5595   30.4770   38.8995 H   0  0  0  0  0  0  0  0  0  0  0  0
   41.2237   28.7311   42.1026 H   0  0  0  0  0  0  0  0  0  0  0  0
   39.8560   27.4667   43.8654 H   0  0  0  0  0  0  0  0  0  0  0  0
   37.3891   28.0108   44.1044 H   0  0  0  0  0  0  0  0  0  0  0  0
   34.6558   30.3476   38.7086 H   0  0  0  0  0  0  0  0  0  0  0  0
   33.8868   28.0643   38.2178 H   0  0  0  0  0  0  0  0  0  0  0  0
   34.4284   26.0741   36.4153 H   0  0  0  0  0  0  0  0  0  0  0  0
   37.0555   21.4120   40.1259 H   0  0  0  0  0  0  0  0  0  0  0  0
   38.4203   24.1310   42.0281 H   0  0  0  0  0  0  0  0  0  0  0  0
   38.3076   22.3569   41.8785 H   0  0  0  0  0  0  0  0  0  0  0  0
  1  2  1  0
  1 10  1  0
  3  2  1  0
  4  5  1  0
  4  3  1  0
  5  1  1  0
  6  7  2  0
  7  8  1  0
  9  8  2  0
 10  9  1  0
 11 10  2  0
 11  6  1  0
 12  5  1  0
 13 12  2  0
 14 13  1  0
 15 14  2  0
 15 16  1  0
 16 12  1  0
 17 15  1  0
 17 27  1  0
 18 19  2  0
 18 17  1  0
 19 20  1  0
 20 21  1  0
 20 27  2  0
 21 23  1  0
 22 21  2  0
 23 24  1  0
 24 25  1  0
 26 24  2  0
 27 26  1  0
  1 28  1  1
  2 29  1  0
  2 30  1  0
  3 31  1  0
  3 32  1  0
  4 33  1  0
  4 34  1  0
  5 35  1  6
  6 36  1  0
  7 37  1  0
  8 38  1  0
 13 39  1  0
 14 40  1  0
 18 41  1  0
 23 42  1  0
 25 43  1  0
 25 44  1  0
M  ISO  8  28  13  29  13  30  13  31  13  32  13  33  13  34  13  35  13
M  ISO  7  36  14  37  14  38  14  39  14  40  14  41  14  42   9
M  END
>  <minimizedAffinity>  (1) 
-5.67667198

>  <minimizedRMSD>  (1) 
2.18365097

$$$$
