
     RDKit          3D

 41 45  0  0  1  0  0  0  0  0999 V2000
   36.9180   30.9340   40.4390 C   0  0  1  0  0  0  0  0  0  0  0  0
   37.7070   32.1710   40.5590 C   0  0  0  0  0  0  0  0  0  0  0  0
   37.3990   32.8640   39.2370 C   0  0  0  0  0  0  0  0  0  0  0  0
   37.0350   31.7550   38.2640 C   0  0  0  0  0  0  0  0  0  0  0  0
   37.2490   30.4690   39.0250 C   0  0  2  0  0  0  0  0  0  0  0  0
   38.7680   29.1870   43.1170 C   0  0  0  0  0  0  0  0  0  0  0  0
   37.8570   28.1190   43.4540 C   0  0  0  0  0  0  0  0  0  0  0  0
   36.6350   28.0260   42.7410 C   0  0  0  0  0  0  0  0  0  0  0  0
   36.3500   28.9350   41.7640 N   0  0  0  0  0  0  0  0  0  0  0  0
   37.2490   29.9230   41.4900 C   0  0  0  0  0  0  0  0  0  0  0  0
   38.4340   30.0570   42.1430 N   0  0  0  0  0  0  0  0  0  0  0  0
   36.4110   29.3760   38.5680 C   0  0  0  0  0  0  0  0  0  0  0  0
   35.1080   29.1530   38.1650 C   0  0  0  0  0  0  0  0  0  0  0  0
   34.7080   27.9150   37.8030 C   0  0  0  0  0  0  0  0  0  0  0  0
   35.6240   26.8680   37.8400 C   0  0  0  0  0  0  0  0  0  0  0  0
   37.1850   27.7090   38.4380 S   0  0  0  0  0  0  0  0  0  0  0  0
   35.4990   25.5480   37.5360 N   0  0  0  0  0  0  0  0  0  0  0  0
   34.9610   25.1210   36.3700 C   0  0  0  0  0  0  0  0  0  0  0  0
   34.9490   23.7790   36.3090 N   0  0  0  0  0  0  0  0  0  0  0  0
   35.4850   23.3390   37.4520 C   0  0  0  0  0  0  0  0  0  0  0  0
   35.7240   22.0560   37.9320 C   0  0  0  0  0  0  0  0  0  0  0  0
   36.2880   21.9110   39.1400 N   0  0  0  0  0  0  0  0  0  0  0  0
   36.6180   23.0010   39.8780 C   0  0  0  0  0  0  0  0  0  0  0  0
   36.3990   24.2730   39.4380 N   0  0  0  0  0  0  0  0  0  0  0  0
   35.8330   24.4440   38.2270 C   0  0  0  0  0  0  0  0  0  0  0  0
   35.8406   31.0896   40.5971 H   0  0  0  0  0  0  0  0  0  0  0  0
   37.3757   32.7763   41.4157 H   0  0  0  0  0  0  0  0  0  0  0  0
   38.7795   32.0010   40.7346 H   0  0  0  0  0  0  0  0  0  0  0  0
   36.5561   33.5606   39.3568 H   0  0  0  0  0  0  0  0  0  0  0  0
   38.2566   33.4522   38.8785 H   0  0  0  0  0  0  0  0  0  0  0  0
   37.6861   31.7910   37.3781 H   0  0  0  0  0  0  0  0  0  0  0  0
   36.0001   31.8500   37.9034 H   0  0  0  0  0  0  0  0  0  0  0  0
   38.2535   30.0360   38.9089 H   0  0  0  0  0  0  0  0  0  0  0  0
   39.7250   29.2898   43.6496 H   0  0  0  0  0  0  0  0  0  0  0  0
   38.1048   27.3952   44.2444 H   0  0  0  0  0  0  0  0  0  0  0  0
   35.9193   27.2240   42.9746 H   0  0  0  0  0  0  0  0  0  0  0  0
   34.3929   29.9884   38.1390 H   0  0  0  0  0  0  0  0  0  0  0  0
   33.6709   27.7364   37.4828 H   0  0  0  0  0  0  0  0  0  0  0  0
   34.5838   25.7843   35.5777 H   0  0  0  0  0  0  0  0  0  0  0  0
   35.4550   21.1749   37.3310 H   0  0  0  0  0  0  0  0  0  0  0  0
   37.0784   22.8532   40.8660 H   0  0  0  0  0  0  0  0  0  0  0  0
  1  2  1  0
  1 10  1  0
  3  2  1  0
  4  5  1  0
  4  3  1  0
  5  1  1  0
  6  7  2  0
  8  7  1  0
  9  8  2  0
 10  9  1  0
 10 11  2  0
 11  6  1  0
 12  5  1  0
 13 12  2  0
 14 15  2  0
 14 13  1  0
 15 16  1  0
 16 12  1  0
 17 15  1  0
 17 25  1  0
 18 17  1  0
 19 18  2  0
 19 20  1  0
 20 21  2  0
 20 25  1  0
 21 22  1  0
 22 23  2  0
 24 23  1  0
 25 24  2  0
  1 26  1  6
  2 27  1  0
  2 28  1  0
  3 29  1  0
  3 30  1  0
  4 31  1  0
  4 32  1  0
  5 33  1  1
  6 34  1  0
  7 35  1  0
  8 36  1  0
 13 37  1  0
 14 38  1  0
 18 39  1  0
 21 40  1  0
 23 41  1  0
M  ISO  8  26  13  27  13  28  13  29  13  30  13  31  13  32  13  33  13
M  ISO  8  34  14  35  14  36  14  37  14  38  14  39  14  40  14  41  14
M  END
>  <minimizedAffinity>  (1) 
-5.16692352

>  <minimizedRMSD>  (1) 
0.943016231

$$$$
