
     RDKit          3D

 43 46  0  0  1  0  0  0  0  0999 V2000
   36.8840   30.8760   40.4170 C   0  0  1  0  0  0  0  0  0  0  0  0
   37.6930   32.0960   40.5650 C   0  0  0  0  0  0  0  0  0  0  0  0
   37.4740   32.7890   39.2250 C   0  0  0  0  0  0  0  0  0  0  0  0
   37.0560   31.7070   38.2510 C   0  0  0  0  0  0  0  0  0  0  0  0
   37.2150   30.4090   39.0060 C   0  0  2  0  0  0  0  0  0  0  0  0
   38.6030   29.0990   43.1610 C   0  0  0  0  0  0  0  0  0  0  0  0
   37.6850   28.0160   43.4280 C   0  0  0  0  0  0  0  0  0  0  0  0
   36.5050   27.9220   42.6460 C   0  0  0  0  0  0  0  0  0  0  0  0
   36.2690   28.8440   41.6770 N   0  0  0  0  0  0  0  0  0  0  0  0
   37.1690   29.8490   41.4670 C   0  0  0  0  0  0  0  0  0  0  0  0
   38.3150   29.9840   42.1860 N   0  0  0  0  0  0  0  0  0  0  0  0
   36.3380   29.3500   38.5330 C   0  0  0  0  0  0  0  0  0  0  0  0
   35.0200   29.1780   38.1460 C   0  0  0  0  0  0  0  0  0  0  0  0
   34.5950   27.9550   37.7650 C   0  0  0  0  0  0  0  0  0  0  0  0
   35.4750   26.8840   37.7620 C   0  0  0  0  0  0  0  0  0  0  0  0
   37.0620   27.6660   38.3550 S   0  0  0  0  0  0  0  0  0  0  0  0
   35.4900   25.4900   37.4580 C   0  0  0  0  0  0  0  0  0  0  0  0
   34.0360   25.0580   37.2380 C   0  0  0  0  0  0  0  0  0  0  0  0
   33.9930   23.6000   37.6320 C   0  0  0  0  0  0  0  0  0  0  0  0
   35.2820   23.3240   38.3590 C   0  0  0  0  0  0  0  0  0  0  0  0
   35.8590   24.6920   38.6650 C   0  0  0  0  0  0  0  0  0  0  0  0
   35.8085   31.0601   40.5565 H   0  0  0  0  0  0  0  0  0  0  0  0
   37.3318   32.7159   41.3988 H   0  0  0  0  0  0  0  0  0  0  0  0
   38.7509   31.9004   40.7944 H   0  0  0  0  0  0  0  0  0  0  0  0
   36.6830   33.5483   39.3135 H   0  0  0  0  0  0  0  0  0  0  0  0
   38.3862   33.3019   38.8860 H   0  0  0  0  0  0  0  0  0  0  0  0
   37.7037   31.7176   37.3620 H   0  0  0  0  0  0  0  0  0  0  0  0
   36.0252   31.8511   37.8952 H   0  0  0  0  0  0  0  0  0  0  0  0
   38.2045   29.9409   38.8977 H   0  0  0  0  0  0  0  0  0  0  0  0
   39.5280   29.2004   43.7476 H   0  0  0  0  0  0  0  0  0  0  0  0
   37.8960   27.2814   44.2191 H   0  0  0  0  0  0  0  0  0  0  0  0
   35.7864   27.1082   42.8232 H   0  0  0  0  0  0  0  0  0  0  0  0
   34.3251   30.0307   38.1490 H   0  0  0  0  0  0  0  0  0  0  0  0
   33.5494   27.8080   37.4566 H   0  0  0  0  0  0  0  0  0  0  0  0
   36.1761   25.3351   36.6122 H   0  0  0  0  0  0  0  0  0  0  0  0
   33.3578   25.6490   37.8711 H   0  0  0  0  0  0  0  0  0  0  0  0
   33.7136   25.2128   36.1978 H   0  0  0  0  0  0  0  0  0  0  0  0
   33.1342   23.4084   38.2921 H   0  0  0  0  0  0  0  0  0  0  0  0
   33.8817   22.9497   36.7518 H   0  0  0  0  0  0  0  0  0  0  0  0
   35.0904   22.7682   39.2887 H   0  0  0  0  0  0  0  0  0  0  0  0
   35.9706   22.7088   37.7612 H   0  0  0  0  0  0  0  0  0  0  0  0
   36.9510   24.6421   38.7873 H   0  0  0  0  0  0  0  0  0  0  0  0
   35.4783   25.1231   39.6026 H   0  0  0  0  0  0  0  0  0  0  0  0
  1  2  1  0
  1 10  1  0
  3  2  1  0
  4  5  1  0
  4  3  1  0
  5  1  1  0
  6  7  2  0
  8  7  1  0
  9  8  2  0
 10  9  1  0
 10 11  2  0
 11  6  1  0
 12  5  1  0
 13 12  2  0
 14 13  1  0
 15 14  2  0
 15 16  1  0
 16 12  1  0
 17 15  1  0
 17 21  1  0
 18 17  1  0
 18 19  1  0
 19 20  1  0
 20 21  1  0
  1 22  1  6
  2 23  1  0
  2 24  1  0
  3 25  1  0
  3 26  1  0
  4 27  1  0
  4 28  1  0
  5 29  1  1
  6 30  1  0
  7 31  1  0
  8 32  1  0
 13 33  1  0
 14 34  1  0
 17 35  1  0
 18 36  1  0
 18 37  1  0
 19 38  1  0
 19 39  1  0
 20 40  1  0
 20 41  1  0
 21 42  1  0
 21 43  1  0
M  ISO  8  22  13  23  13  24  13  25  13  26  13  27  13  28  13  29  13
M  ISO  8  30  14  31  14  32  14  33  14  34  14  35  13  36  13  37  13
M  ISO  6  38  13  39  13  40  13  41  13  42  13  43  13
M  END
>  <minimizedAffinity>  (1) 
-5.10813141

>  <minimizedRMSD>  (1) 
0.670623422

$$$$
