
     RDKit          3D

 44 47  0  0  1  0  0  0  0  0999 V2000
   36.8670   30.7180   40.5470 C   0  0  1  0  0  0  0  0  0  0  0  0
   37.6870   31.9230   40.7270 C   0  0  0  0  0  0  0  0  0  0  0  0
   37.4250   32.6870   39.4310 C   0  0  0  0  0  0  0  0  0  0  0  0
   36.9820   31.6430   38.4300 C   0  0  0  0  0  0  0  0  0  0  0  0
   37.2010   30.3030   39.1160 C   0  0  2  0  0  0  0  0  0  0  0  0
   38.5820   28.8280   43.2050 C   0  0  0  0  0  0  0  0  0  0  0  0
   37.6700   27.7460   43.4500 C   0  0  0  0  0  0  0  0  0  0  0  0
   36.4800   27.6870   42.6830 C   0  0  0  0  0  0  0  0  0  0  0  0
   36.2360   28.6450   41.7470 N   0  0  0  0  0  0  0  0  0  0  0  0
   37.1490   29.6570   41.5600 C   0  0  0  0  0  0  0  0  0  0  0  0
   38.3030   29.7570   42.2670 N   0  0  0  0  0  0  0  0  0  0  0  0
   36.3310   29.2560   38.6000 C   0  0  0  0  0  0  0  0  0  0  0  0
   35.0080   29.0790   38.2480 C   0  0  0  0  0  0  0  0  0  0  0  0
   34.5850   27.8780   37.7930 C   0  0  0  0  0  0  0  0  0  0  0  0
   35.4990   26.8320   37.6860 C   0  0  0  0  0  0  0  0  0  0  0  0
   37.0970   27.6140   38.2810 S   0  0  0  0  0  0  0  0  0  0  0  0
   35.3260   25.5620   37.2610 N   0  0  0  0  0  0  0  0  0  0  0  0
   36.4630   24.7400   36.9240 C   0  0  0  0  0  0  0  0  0  0  0  0
   36.3890   23.3730   37.5610 C   0  0  0  0  0  0  0  0  0  0  0  0
   35.0780   22.8080   37.6170 N   0  0  0  0  0  0  0  0  0  0  0  0
   34.0290   23.7250   37.9820 C   0  0  0  0  0  0  0  0  0  0  0  0
   34.0100   24.9490   37.1080 C   0  0  0  0  0  0  0  0  0  0  0  0
   35.7925   30.8977   40.6988 H   0  0  0  0  0  0  0  0  0  0  0  0
   37.3598   32.5009   41.6039 H   0  0  0  0  0  0  0  0  0  0  0  0
   38.7511   31.7105   40.9073 H   0  0  0  0  0  0  0  0  0  0  0  0
   36.6343   33.4371   39.5799 H   0  0  0  0  0  0  0  0  0  0  0  0
   38.3191   33.2283   39.0880 H   0  0  0  0  0  0  0  0  0  0  0  0
   37.5862   31.7088   37.5132 H   0  0  0  0  0  0  0  0  0  0  0  0
   35.9321   31.7824   38.1327 H   0  0  0  0  0  0  0  0  0  0  0  0
   38.1958   29.8540   38.9795 H   0  0  0  0  0  0  0  0  0  0  0  0
   39.5136   28.8999   43.7855 H   0  0  0  0  0  0  0  0  0  0  0  0
   37.8893   26.9839   44.2123 H   0  0  0  0  0  0  0  0  0  0  0  0
   35.7581   26.8725   42.8428 H   0  0  0  0  0  0  0  0  0  0  0  0
   34.2982   29.9146   38.3376 H   0  0  0  0  0  0  0  0  0  0  0  0
   33.5323   27.7287   37.5108 H   0  0  0  0  0  0  0  0  0  0  0  0
   36.5014   24.6197   35.8313 H   0  0  0  0  0  0  0  0  0  0  0  0
   37.3656   25.2407   37.3043 H   0  0  0  0  0  0  0  0  0  0  0  0
   37.0310   22.6913   36.9837 H   0  0  0  0  0  0  0  0  0  0  0  0
   36.7165   23.4992   38.6035 H   0  0  0  0  0  0  0  0  0  0  0  0
   34.8565   22.4246   36.6870 H   0  0  0  0  0  0  0  0  0  0  0  0
   33.0614   23.2100   37.8903 H   0  0  0  0  0  0  0  0  0  0  0  0
   34.2137   24.0528   39.0156 H   0  0  0  0  0  0  0  0  0  0  0  0
   33.2226   25.6432   37.4368 H   0  0  0  0  0  0  0  0  0  0  0  0
   33.7986   24.6961   36.0585 H   0  0  0  0  0  0  0  0  0  0  0  0
  1  2  1  0
  1 10  1  0
  3  2  1  0
  4  5  1  0
  4  3  1  0
  5  1  1  0
  6  7  2  0
  8  7  1  0
  9  8  2  0
 10  9  1  0
 10 11  2  0
 11  6  1  0
 12  5  1  0
 13 12  2  0
 14 13  1  0
 15 14  2  0
 15 16  1  0
 16 12  1  0
 17 15  1  0
 18 17  1  0
 18 19  1  0
 19 20  1  0
 20 21  1  0
 22 17  1  0
 22 21  1  0
  1 23  1  6
  2 24  1  0
  2 25  1  0
  3 26  1  0
  3 27  1  0
  4 28  1  0
  4 29  1  0
  5 30  1  1
  6 31  1  0
  7 32  1  0
  8 33  1  0
 13 34  1  0
 14 35  1  0
 18 36  1  0
 18 37  1  0
 19 38  1  0
 19 39  1  0
 20 40  1  0
 21 41  1  0
 21 42  1  0
 22 43  1  0
 22 44  1  0
M  ISO  8  23  13  24  13  25  13  26  13  27  13  28  13  29  13  30  13
M  ISO  8  31  14  32  14  33  14  34  14  35  14  36  13  37  13  38  13
M  ISO  6  39  13  40   5  41  13  42  13  43  13  44  13
M  END
>  <minimizedAffinity>  (1) 
-4.83281422

>  <minimizedRMSD>  (1) 
0.617612123

$$$$
