
     RDKit          3D

 24 25  0  0  0  0  0  0  0  0999 V2000
   38.4340   28.8980   42.5950 C   0  0  0  0  0  0  0  0  0  0  0  0
   37.9330   28.0650   43.6060 C   0  0  0  0  0  0  0  0  0  0  0  0
   36.6950   27.4600   43.3990 C   0  0  0  0  0  0  0  0  0  0  0  0
   36.0400   27.7160   42.2170 N   0  0  0  0  0  0  0  0  0  0  0  0
   36.5550   28.5220   41.2720 C   0  0  0  0  0  0  0  0  0  0  0  0
   37.7470   29.1170   41.4490 N   0  0  0  0  0  0  0  0  0  0  0  0
   39.6860   29.5710   42.6940 N   0  0  0  0  0  0  0  0  0  0  0  0
   39.8440   31.0120   42.7060 C   0  0  0  0  0  0  0  0  0  0  0  0
   40.9450   31.2610   41.6660 C   0  0  0  0  0  0  0  0  0  0  0  0
   42.1660   30.8110   42.2690 N   0  0  0  0  0  0  0  0  0  0  0  0
   42.1450   29.5020   42.8040 C   0  0  0  0  0  0  0  0  0  0  0  0
   40.8620   28.7610   42.7870 C   0  0  0  0  0  0  0  0  0  0  0  0
   38.4996   27.8946   44.5333 H   0  0  0  0  0  0  0  0  0  0  0  0
   36.2546   26.7973   44.1585 H   0  0  0  0  0  0  0  0  0  0  0  0
   35.9936   28.6966   40.3423 H   0  0  0  0  0  0  0  0  0  0  0  0
   38.9085   31.5124   42.4155 H   0  0  0  0  0  0  0  0  0  0  0  0
   40.0976   31.4067   43.7009 H   0  0  0  0  0  0  0  0  0  0  0  0
   41.0092   32.3326   41.4262 H   0  0  0  0  0  0  0  0  0  0  0  0
   40.7394   30.7286   40.7256 H   0  0  0  0  0  0  0  0  0  0  0  0
   42.9042   30.8469   41.5516 H   0  0  0  0  0  0  0  0  0  0  0  0
   42.8741   28.9054   42.2361 H   0  0  0  0  0  0  0  0  0  0  0  0
   42.3670   29.6398   43.8725 H   0  0  0  0  0  0  0  0  0  0  0  0
   40.7970   28.1738   43.7149 H   0  0  0  0  0  0  0  0  0  0  0  0
   40.8793   28.1464   41.8749 H   0  0  0  0  0  0  0  0  0  0  0  0
  1  7  1  0
  1  2  2  0
  3  2  1  0
  4  3  2  0
  5  6  2  0
  5  4  1  0
  6  1  1  0
  7  8  1  0
  7 12  1  0
  9 10  1  0
  9  8  1  0
 10 11  1  0
 12 11  1  0
  2 13  1  0
  3 14  1  0
  5 15  1  0
  8 16  1  0
  8 17  1  0
  9 18  1  0
  9 19  1  0
 10 20  1  0
 11 21  1  0
 11 22  1  0
 12 23  1  0
 12 24  1  0
M  ISO  8  13  14  14  14  15  14  16  13  17  13  18  13  19  13  20   5
M  ISO  4  21  13  22  13  23  13  24  13
M  END
>  <minimizedAffinity>  (1) 
-2.93231869

>  <minimizedRMSD>  (1) 
1.53165495

$$$$
