
     RDKit          3D

 37 40  0  0  1  0  0  0  0  0999 V2000
   36.8970   30.7510   40.5520 C   0  0  1  0  0  0  0  0  0  0  0  0
   37.7130   31.9660   40.7130 C   0  0  0  0  0  0  0  0  0  0  0  0
   37.4430   32.7020   39.4050 C   0  0  0  0  0  0  0  0  0  0  0  0
   37.0200   31.6440   38.4060 C   0  0  0  0  0  0  0  0  0  0  0  0
   37.2010   30.3270   39.1210 C   0  0  2  0  0  0  0  0  0  0  0  0
   38.7160   28.8560   43.1480 C   0  0  0  0  0  0  0  0  0  0  0  0
   37.7740   27.8070   43.4640 C   0  0  0  0  0  0  0  0  0  0  0  0
   36.5420   27.7800   42.7620 C   0  0  0  0  0  0  0  0  0  0  0  0
   36.2770   28.7280   41.8210 N   0  0  0  0  0  0  0  0  0  0  0  0
   37.2070   29.6970   41.5660 C   0  0  0  0  0  0  0  0  0  0  0  0
   38.4040   29.7700   42.2070 N   0  0  0  0  0  0  0  0  0  0  0  0
   36.3230   29.2760   38.6350 C   0  0  0  0  0  0  0  0  0  0  0  0
   35.0210   29.1110   38.2210 C   0  0  0  0  0  0  0  0  0  0  0  0
   34.5720   27.8990   37.8290 C   0  0  0  0  0  0  0  0  0  0  0  0
   35.4430   26.8210   37.8500 C   0  0  0  0  0  0  0  0  0  0  0  0
   37.0310   27.5840   38.4770 S   0  0  0  0  0  0  0  0  0  0  0  0
   35.3330   25.4760   37.5300 C   0  0  0  0  0  0  0  0  0  0  0  0
   35.5040   24.3770   38.3430 C   0  0  0  0  0  0  0  0  0  0  0  0
   35.2810   23.2630   37.5280 C   0  0  0  0  0  0  0  0  0  0  0  0
   34.9870   23.7740   36.2580 C   0  0  0  0  0  0  0  0  0  0  0  0
   35.0330   25.0840   36.3180 O   0  0  0  0  0  0  0  0  0  0  0  0
   35.8246   30.9275   40.7215 H   0  0  0  0  0  0  0  0  0  0  0  0
   37.3835   32.5572   41.5801 H   0  0  0  0  0  0  0  0  0  0  0  0
   38.7785   31.7645   40.8978 H   0  0  0  0  0  0  0  0  0  0  0  0
   36.6395   33.4408   39.5417 H   0  0  0  0  0  0  0  0  0  0  0  0
   38.3339   33.2470   39.0596 H   0  0  0  0  0  0  0  0  0  0  0  0
   37.6546   31.6857   37.5085 H   0  0  0  0  0  0  0  0  0  0  0  0
   35.9829   31.7889   38.0691 H   0  0  0  0  0  0  0  0  0  0  0  0
   38.1910   29.8687   38.9802 H   0  0  0  0  0  0  0  0  0  0  0  0
   39.6818   28.9087   43.6719 H   0  0  0  0  0  0  0  0  0  0  0  0
   38.0060   27.0503   44.2279 H   0  0  0  0  0  0  0  0  0  0  0  0
   35.8021   26.9950   42.9772 H   0  0  0  0  0  0  0  0  0  0  0  0
   34.3395   29.9744   38.2092 H   0  0  0  0  0  0  0  0  0  0  0  0
   33.5310   27.7694   37.4981 H   0  0  0  0  0  0  0  0  0  0  0  0
   35.7625   24.3761   39.4122 H   0  0  0  0  0  0  0  0  0  0  0  0
   35.3270   22.2044   37.8234 H   0  0  0  0  0  0  0  0  0  0  0  0
   34.7566   23.1785   35.3623 H   0  0  0  0  0  0  0  0  0  0  0  0
  1  2  1  0
  1 10  1  0
  3  2  1  0
  4  5  1  0
  4  3  1  0
  5  1  1  0
  6  7  2  0
  8  7  1  0
  9  8  2  0
 10  9  1  0
 10 11  2  0
 11  6  1  0
 12  5  1  0
 13 12  2  0
 14 15  2  0
 14 13  1  0
 15 16  1  0
 16 12  1  0
 17 15  1  0
 17 18  2  0
 19 18  1  0
 20 21  1  0
 20 19  2  0
 21 17  1  0
  1 22  1  6
  2 23  1  0
  2 24  1  0
  3 25  1  0
  3 26  1  0
  4 27  1  0
  4 28  1  0
  5 29  1  1
  6 30  1  0
  7 31  1  0
  8 32  1  0
 13 33  1  0
 14 34  1  0
 18 35  1  0
 19 36  1  0
 20 37  1  0
M  ISO  8  22  13  23  13  24  13  25  13  26  13  27  13  28  13  29  13
M  ISO  8  30  14  31  14  32  14  33  14  34  14  35  14  36  14  37  14
M  END
>  <minimizedAffinity>  (1) 
-4.77497959

>  <minimizedRMSD>  (1) 
0.753207088

$$$$
