
     RDKit          3D

 37 40  0  0  1  0  0  0  0  0999 V2000
   36.9030   30.7420   40.5480 C   0  0  1  0  0  0  0  0  0  0  0  0
   37.7270   31.9520   40.7010 C   0  0  0  0  0  0  0  0  0  0  0  0
   37.4630   32.6840   39.3920 C   0  0  0  0  0  0  0  0  0  0  0  0
   37.0100   31.6290   38.4030 C   0  0  0  0  0  0  0  0  0  0  0  0
   37.2020   30.3090   39.1190 C   0  0  2  0  0  0  0  0  0  0  0  0
   38.7150   28.8490   43.1500 C   0  0  0  0  0  0  0  0  0  0  0  0
   37.7720   27.8010   43.4700 C   0  0  0  0  0  0  0  0  0  0  0  0
   36.5400   27.7790   42.7650 C   0  0  0  0  0  0  0  0  0  0  0  0
   36.2740   28.7240   41.8200 N   0  0  0  0  0  0  0  0  0  0  0  0
   37.2120   29.6900   41.5640 C   0  0  0  0  0  0  0  0  0  0  0  0
   38.4090   29.7630   42.2060 N   0  0  0  0  0  0  0  0  0  0  0  0
   36.3230   29.2610   38.6360 C   0  0  0  0  0  0  0  0  0  0  0  0
   35.0140   29.1010   38.2180 C   0  0  0  0  0  0  0  0  0  0  0  0
   34.5620   27.8910   37.8310 C   0  0  0  0  0  0  0  0  0  0  0  0
   35.4370   26.8090   37.8600 C   0  0  0  0  0  0  0  0  0  0  0  0
   37.0260   27.5660   38.4850 S   0  0  0  0  0  0  0  0  0  0  0  0
   35.1620   25.4350   37.4900 C   0  0  0  0  0  0  0  0  0  0  0  0
   34.0300   24.7110   37.2890 C   0  0  0  0  0  0  0  0  0  0  0  0
   34.4420   23.4390   36.9500 C   0  0  0  0  0  0  0  0  0  0  0  0
   35.7880   23.3970   36.9480 N   0  0  0  0  0  0  0  0  0  0  0  0
   36.2360   24.6180   37.2770 N   0  0  0  0  0  0  0  0  0  0  0  0
   35.8323   30.9266   40.7201 H   0  0  0  0  0  0  0  0  0  0  0  0
   37.4023   32.5497   41.5655 H   0  0  0  0  0  0  0  0  0  0  0  0
   38.7912   31.7430   40.8849 H   0  0  0  0  0  0  0  0  0  0  0  0
   36.6765   33.4405   39.5298 H   0  0  0  0  0  0  0  0  0  0  0  0
   38.3627   33.2075   39.0364 H   0  0  0  0  0  0  0  0  0  0  0  0
   37.6233   31.6662   37.4906 H   0  0  0  0  0  0  0  0  0  0  0  0
   35.9666   31.7795   38.0888 H   0  0  0  0  0  0  0  0  0  0  0  0
   38.1905   29.8475   38.9780 H   0  0  0  0  0  0  0  0  0  0  0  0
   39.6801   28.9011   43.6752 H   0  0  0  0  0  0  0  0  0  0  0  0
   38.0017   27.0449   44.2352 H   0  0  0  0  0  0  0  0  0  0  0  0
   35.7978   26.9967   42.9822 H   0  0  0  0  0  0  0  0  0  0  0  0
   34.3367   29.9676   38.2012 H   0  0  0  0  0  0  0  0  0  0  0  0
   33.5214   27.7615   37.4987 H   0  0  0  0  0  0  0  0  0  0  0  0
   32.9933   25.0676   37.3786 H   0  0  0  0  0  0  0  0  0  0  0  0
   33.7772   22.5938   36.7183 H   0  0  0  0  0  0  0  0  0  0  0  0
   36.3695   22.5746   36.7325 H   0  0  0  0  0  0  0  0  0  0  0  0
  1  2  1  0
  1 10  1  0
  3  2  1  0
  4  5  1  0
  4  3  1  0
  5  1  1  0
  6  7  2  0
  8  7  1  0
  9  8  2  0
 10  9  1  0
 10 11  2  0
 11  6  1  0
 12  5  1  0
 13 12  2  0
 14 15  2  0
 14 13  1  0
 15 16  1  0
 16 12  1  0
 17 15  1  0
 18 17  1  0
 19 18  2  0
 20 19  1  0
 20 21  1  0
 21 17  2  0
  1 22  1  6
  2 23  1  0
  2 24  1  0
  3 25  1  0
  3 26  1  0
  4 27  1  0
  4 28  1  0
  5 29  1  1
  6 30  1  0
  7 31  1  0
  8 32  1  0
 13 33  1  0
 14 34  1  0
 18 35  1  0
 19 36  1  0
 20 37  1  0
M  ISO  8  22  13  23  13  24  13  25  13  26  13  27  13  28  13  29  13
M  ISO  8  30  14  31  14  32  14  33  14  34  14  35  14  36  14  37   9
M  END
>  <minimizedAffinity>  (1) 
-4.73090696

>  <minimizedRMSD>  (1) 
0.764363408

$$$$
