
     RDKit          3D

 35 38  0  0  1  0  0  0  0  0999 V2000
   36.8830   30.8730   40.4170 C   0  0  1  0  0  0  0  0  0  0  0  0
   37.6940   32.0910   40.5630 C   0  0  0  0  0  0  0  0  0  0  0  0
   37.4720   32.7870   39.2270 C   0  0  0  0  0  0  0  0  0  0  0  0
   37.0510   31.7050   38.2510 C   0  0  0  0  0  0  0  0  0  0  0  0
   37.2130   30.4040   39.0060 C   0  0  2  0  0  0  0  0  0  0  0  0
   38.6040   29.1020   43.1640 C   0  0  0  0  0  0  0  0  0  0  0  0
   37.6860   28.0160   43.4230 C   0  0  0  0  0  0  0  0  0  0  0  0
   36.5070   27.9160   42.6430 C   0  0  0  0  0  0  0  0  0  0  0  0
   36.2690   28.8380   41.6730 N   0  0  0  0  0  0  0  0  0  0  0  0
   37.1690   29.8460   41.4680 C   0  0  0  0  0  0  0  0  0  0  0  0
   38.3140   29.9860   42.1890 N   0  0  0  0  0  0  0  0  0  0  0  0
   36.3350   29.3490   38.5340 C   0  0  0  0  0  0  0  0  0  0  0  0
   35.0280   29.1580   38.1560 C   0  0  0  0  0  0  0  0  0  0  0  0
   34.5820   27.9480   37.7630 C   0  0  0  0  0  0  0  0  0  0  0  0
   35.4790   26.8860   37.7470 C   0  0  0  0  0  0  0  0  0  0  0  0
   37.0650   27.6690   38.3330 S   0  0  0  0  0  0  0  0  0  0  0  0
   35.2530   25.5190   37.3750 C   0  0  0  0  0  0  0  0  0  0  0  0
   33.9830   25.1120   37.2120 N   0  0  0  0  0  0  0  0  0  0  0  0
   33.9360   23.8600   36.8780 O   0  0  0  0  0  0  0  0  0  0  0  0
   35.1780   23.4510   36.8220 C   0  0  0  0  0  0  0  0  0  0  0  0
   36.0250   24.4750   37.1320 N   0  0  0  0  0  0  0  0  0  0  0  0
   35.8079   31.0587   40.5572 H   0  0  0  0  0  0  0  0  0  0  0  0
   37.3371   32.7100   41.3994 H   0  0  0  0  0  0  0  0  0  0  0  0
   38.7525   31.8926   40.7871 H   0  0  0  0  0  0  0  0  0  0  0  0
   36.6812   33.5460   39.3192 H   0  0  0  0  0  0  0  0  0  0  0  0
   38.3828   33.3014   38.8868 H   0  0  0  0  0  0  0  0  0  0  0  0
   37.6963   31.7169   37.3602 H   0  0  0  0  0  0  0  0  0  0  0  0
   36.0194   31.8492   37.8976 H   0  0  0  0  0  0  0  0  0  0  0  0
   38.2018   29.9344   38.8972 H   0  0  0  0  0  0  0  0  0  0  0  0
   39.5263   29.2055   43.7544 H   0  0  0  0  0  0  0  0  0  0  0  0
   37.8989   27.2797   44.2120 H   0  0  0  0  0  0  0  0  0  0  0  0
   35.7912   27.0999   42.8209 H   0  0  0  0  0  0  0  0  0  0  0  0
   34.3316   30.0093   38.1744 H   0  0  0  0  0  0  0  0  0  0  0  0
   33.5337   27.8045   37.4623 H   0  0  0  0  0  0  0  0  0  0  0  0
   35.4934   22.4296   36.5626 H   0  0  0  0  0  0  0  0  0  0  0  0
  1  2  1  0
  1 10  1  0
  3  2  1  0
  4  5  1  0
  4  3  1  0
  5  1  1  0
  6  7  2  0
  8  7  1  0
  9  8  2  0
 10  9  1  0
 10 11  2  0
 11  6  1  0
 12  5  1  0
 13 12  2  0
 14 13  1  0
 15 14  2  0
 15 16  1  0
 16 12  1  0
 17 15  1  0
 18 17  2  0
 19 18  1  0
 20 19  1  0
 20 21  2  0
 21 17  1  0
  1 22  1  6
  2 23  1  0
  2 24  1  0
  3 25  1  0
  3 26  1  0
  4 27  1  0
  4 28  1  0
  5 29  1  1
  6 30  1  0
  7 31  1  0
  8 32  1  0
 13 33  1  0
 14 34  1  0
 20 35  1  0
M  ISO  8  22  13  23  13  24  13  25  13  26  13  27  13  28  13  29  13
M  ISO  6  30  14  31  14  32  14  33  14  34  14  35  14
M  END
>  <minimizedAffinity>  (1) 
-4.71488905

>  <minimizedRMSD>  (1) 
0.645249248

$$$$
