
     RDKit          3D

 37 40  0  0  1  0  0  0  0  0999 V2000
   36.9700   30.8330   40.5970 C   0  0  1  0  0  0  0  0  0  0  0  0
   37.8520   32.0050   40.7480 C   0  0  0  0  0  0  0  0  0  0  0  0
   37.5770   32.7770   39.4620 C   0  0  0  0  0  0  0  0  0  0  0  0
   37.0300   31.7660   38.4800 C   0  0  0  0  0  0  0  0  0  0  0  0
   37.2320   30.4240   39.1500 C   0  0  2  0  0  0  0  0  0  0  0  0
   38.7540   28.8600   43.1590 C   0  0  0  0  0  0  0  0  0  0  0  0
   37.8020   27.8100   43.4410 C   0  0  0  0  0  0  0  0  0  0  0  0
   36.5760   27.8110   42.7270 C   0  0  0  0  0  0  0  0  0  0  0  0
   36.3260   28.7840   41.8070 N   0  0  0  0  0  0  0  0  0  0  0  0
   37.2630   29.7510   41.5840 C   0  0  0  0  0  0  0  0  0  0  0  0
   38.4540   29.7990   42.2390 N   0  0  0  0  0  0  0  0  0  0  0  0
   36.3180   29.4030   38.6650 C   0  0  0  0  0  0  0  0  0  0  0  0
   34.9800   29.2730   38.3210 C   0  0  0  0  0  0  0  0  0  0  0  0
   34.5060   28.0830   37.8960 C   0  0  0  0  0  0  0  0  0  0  0  0
   35.3670   26.9970   37.8060 C   0  0  0  0  0  0  0  0  0  0  0  0
   37.0020   27.7220   38.3750 S   0  0  0  0  0  0  0  0  0  0  0  0
   35.1550   25.7110   37.4140 N   0  0  0  0  0  0  0  0  0  0  0  0
   36.2090   24.8950   37.2600 N   0  0  0  0  0  0  0  0  0  0  0  0
   35.8080   23.6730   36.8720 C   0  0  0  0  0  0  0  0  0  0  0  0
   34.4320   23.7520   36.7870 C   0  0  0  0  0  0  0  0  0  0  0  0
   34.0110   25.0390   37.1280 C   0  0  0  0  0  0  0  0  0  0  0  0
   35.9108   31.0497   40.7996 H   0  0  0  0  0  0  0  0  0  0  0  0
   37.5818   32.5969   41.6349 H   0  0  0  0  0  0  0  0  0  0  0  0
   38.9115   31.7469   40.8922 H   0  0  0  0  0  0  0  0  0  0  0  0
   36.8388   33.5721   39.6436 H   0  0  0  0  0  0  0  0  0  0  0  0
   38.4878   33.2601   39.0786 H   0  0  0  0  0  0  0  0  0  0  0  0
   37.5824   31.8113   37.5298 H   0  0  0  0  0  0  0  0  0  0  0  0
   35.9734   31.9533   38.2380 H   0  0  0  0  0  0  0  0  0  0  0  0
   38.2087   29.9510   38.9704 H   0  0  0  0  0  0  0  0  0  0  0  0
   39.7163   28.8930   43.6909 H   0  0  0  0  0  0  0  0  0  0  0  0
   38.0215   27.0325   44.1876 H   0  0  0  0  0  0  0  0  0  0  0  0
   35.8281   27.0269   42.9161 H   0  0  0  0  0  0  0  0  0  0  0  0
   34.3061   30.1393   38.3947 H   0  0  0  0  0  0  0  0  0  0  0  0
   33.4460   27.9741   37.6230 H   0  0  0  0  0  0  0  0  0  0  0  0
   36.4405   22.7969   36.6661 H   0  0  0  0  0  0  0  0  0  0  0  0
   33.7676   22.9255   36.4947 H   0  0  0  0  0  0  0  0  0  0  0  0
   32.9807   25.4230   37.1581 H   0  0  0  0  0  0  0  0  0  0  0  0
  1  2  1  0
  1 10  1  0
  3  2  1  0
  4  5  1  0
  4  3  1  0
  5  1  1  0
  6  7  2  0
  8  7  1  0
  9  8  2  0
 10  9  1  0
 10 11  2  0
 11  6  1  0
 12  5  1  0
 13 12  2  0
 14 13  1  0
 15 14  2  0
 15 16  1  0
 16 12  1  0
 17 15  1  0
 18 17  1  0
 19 18  2  0
 20 19  1  0
 20 21  2  0
 21 17  1  0
  1 22  1  6
  2 23  1  0
  2 24  1  0
  3 25  1  0
  3 26  1  0
  4 27  1  0
  4 28  1  0
  5 29  1  1
  6 30  1  0
  7 31  1  0
  8 32  1  0
 13 33  1  0
 14 34  1  0
 19 35  1  0
 20 36  1  0
 21 37  1  0
M  ISO  8  22  13  23  13  24  13  25  13  26  13  27  13  28  13  29  13
M  ISO  8  30  14  31  14  32  14  33  14  34  14  35  14  36  14  37  14
M  END
>  <minimizedAffinity>  (1) 
-4.67396069

>  <minimizedRMSD>  (1) 
0.734230161

$$$$
