
     RDKit          3D

 33 35  0  0  1  0  0  0  0  0999 V2000
   36.9230   31.0810   40.2860 C   0  0  1  0  0  0  0  0  0  0  0  0
   37.5500   32.3640   40.6440 C   0  0  0  0  0  0  0  0  0  0  0  0
   37.3430   33.1640   39.3610 C   0  0  0  0  0  0  0  0  0  0  0  0
   37.2850   32.1380   38.2440 C   0  0  0  0  0  0  0  0  0  0  0  0
   37.5140   30.8030   38.9090 C   0  0  2  0  0  0  0  0  0  0  0  0
   38.5790   29.1750   42.9770 C   0  0  0  0  0  0  0  0  0  0  0  0
   37.6770   28.0580   43.1470 C   0  0  0  0  0  0  0  0  0  0  0  0
   36.5260   27.9930   42.3180 C   0  0  0  0  0  0  0  0  0  0  0  0
   36.3000   28.9680   41.3960 N   0  0  0  0  0  0  0  0  0  0  0  0
   37.1930   30.0000   41.2830 C   0  0  0  0  0  0  0  0  0  0  0  0
   38.3110   30.1150   42.0490 N   0  0  0  0  0  0  0  0  0  0  0  0
   36.8760   29.6920   38.2210 C   0  0  0  0  0  0  0  0  0  0  0  0
   35.6290   29.3290   37.7520 C   0  0  0  0  0  0  0  0  0  0  0  0
   35.4410   28.1430   37.1420 C   0  0  0  0  0  0  0  0  0  0  0  0
   36.5230   27.2930   36.9940 C   0  0  0  0  0  0  0  0  0  0  0  0
   37.9280   28.2490   37.7840 S   0  0  0  0  0  0  0  0  0  0  0  0
   36.7240   25.9940   36.4240 C   0  0  0  0  0  0  0  0  0  0  0  0
   36.4060   24.9670   37.0370 O   0  0  0  0  0  0  0  0  0  0  0  0
   37.2860   26.0200   35.1710 O   0  0  0  0  0  0  0  0  0  0  0  0
   35.8237   31.1185   40.2788 H   0  0  0  0  0  0  0  0  0  0  0  0
   37.0434   32.8354   41.4991 H   0  0  0  0  0  0  0  0  0  0  0  0
   38.6006   32.2804   40.9591 H   0  0  0  0  0  0  0  0  0  0  0  0
   36.4020   33.7315   39.4101 H   0  0  0  0  0  0  0  0  0  0  0  0
   38.1509   33.8933   39.2017 H   0  0  0  0  0  0  0  0  0  0  0  0
   38.0700   32.3360   37.4993 H   0  0  0  0  0  0  0  0  0  0  0  0
   36.3227   32.1686   37.7119 H   0  0  0  0  0  0  0  0  0  0  0  0
   38.5647   30.4774   38.9201 H   0  0  0  0  0  0  0  0  0  0  0  0
   39.4802   29.2574   43.6024 H   0  0  0  0  0  0  0  0  0  0  0  0
   37.8769   27.2796   43.8981 H   0  0  0  0  0  0  0  0  0  0  0  0
   35.8189   27.1567   42.4208 H   0  0  0  0  0  0  0  0  0  0  0  0
   34.7795   30.0163   37.8780 H   0  0  0  0  0  0  0  0  0  0  0  0
   34.4469   27.8557   36.7688 H   0  0  0  0  0  0  0  0  0  0  0  0
   37.4654   25.1728   34.6913 H   0  0  0  0  0  0  0  0  0  0  0  0
  1  2  1  0
  1 10  1  0
  3  2  1  0
  4  5  1  0
  4  3  1  0
  5  1  1  0
  6  7  2  0
  8  7  1  0
  9  8  2  0
 10  9  1  0
 10 11  2  0
 11  6  1  0
 12  5  1  0
 13 12  2  0
 14 13  1  0
 15 14  2  0
 15 16  1  0
 16 12  1  0
 17 15  1  0
 17 18  2  0
 19 17  1  0
  1 20  1  6
  2 21  1  0
  2 22  1  0
  3 23  1  0
  3 24  1  0
  4 25  1  0
  4 26  1  0
  5 27  1  1
  6 28  1  0
  7 29  1  0
  8 30  1  0
 13 31  1  0
 14 32  1  0
 19 33  1  0
M  ISO  8  20  13  21  13  22  13  23  13  24  13  25  13  26  13  27  13
M  ISO  6  28  14  29  14  30  14  31  14  32  14  33   3
M  END
>  <minimizedAffinity>  (1) 
-4.61770725

>  <minimizedRMSD>  (1) 
0.447612852

$$$$
