
     RDKit          3D

 20 21  0  0  0  0  0  0  0  0999 V2000
   38.3380   27.6660   43.5850 C   0  0  0  0  0  0  0  0  0  0  0  0
   37.0600   27.1830   43.1510 C   0  0  0  0  0  0  0  0  0  0  0  0
   36.3670   27.9170   42.1690 C   0  0  0  0  0  0  0  0  0  0  0  0
   36.9560   29.0500   41.6880 N   0  0  0  0  0  0  0  0  0  0  0  0
   38.1530   29.4640   42.1250 C   0  0  0  0  0  0  0  0  0  0  0  0
   38.8470   28.7840   43.0670 N   0  0  0  0  0  0  0  0  0  0  0  0
   38.8050   30.6460   41.6460 N   0  0  0  0  0  0  0  0  0  0  0  0
   40.0610   30.8300   42.0390 N   0  0  0  0  0  0  0  0  0  0  0  0
   40.5140   31.9870   41.4960 C   0  0  0  0  0  0  0  0  0  0  0  0
   39.4510   32.4720   40.7620 C   0  0  0  0  0  0  0  0  0  0  0  0
   38.3560   31.6360   40.8440 C   0  0  0  0  0  0  0  0  0  0  0  0
   37.0250   31.6960   40.2670 C   0  0  0  0  0  0  0  0  0  0  0  0
   36.9390   30.6470   39.3400 F   0  0  0  0  0  0  0  0  0  0  0  0
   36.8440   32.9080   39.6030 F   0  0  0  0  0  0  0  0  0  0  0  0
   36.0020   31.4330   41.1580 F   0  0  0  0  0  0  0  0  0  0  0  0
   38.9017   27.1112   44.3495 H   0  0  0  0  0  0  0  0  0  0  0  0
   36.6315   26.2625   43.5742 H   0  0  0  0  0  0  0  0  0  0  0  0
   35.3836   27.5879   41.8020 H   0  0  0  0  0  0  0  0  0  0  0  0
   41.5097   32.4393   41.6145 H   0  0  0  0  0  0  0  0  0  0  0  0
   39.4735   33.4076   40.1840 H   0  0  0  0  0  0  0  0  0  0  0  0
  2  1  2  0
  3  2  1  0
  4  5  1  0
  4  3  2  0
  5  6  2  0
  6  1  1  0
  7  8  1  0
  7  5  1  0
  9  8  2  0
 10 11  2  0
 10  9  1  0
 11  7  1  0
 12 11  1  0
 12 15  1  0
 13 12  1  0
 14 12  1  0
  1 16  1  0
  2 17  1  0
  3 18  1  0
  9 19  1  0
 10 20  1  0
M  ISO  5  16  14  17  14  18  14  19  14  20  14
M  END
>  <minimizedAffinity>  (1) 
-4.52810192

>  <minimizedRMSD>  (1) 
1.52410007

$$$$
