
     RDKit          3D

 46 49  0  0  1  0  0  0  0  0999 V2000
   37.0560   30.9880   40.4940 C   0  0  1  0  0  0  0  0  0  0  0  0
   37.8640   32.1650   40.7840 C   0  0  0  0  0  0  0  0  0  0  0  0
   37.7090   32.9850   39.5100 C   0  0  0  0  0  0  0  0  0  0  0  0
   37.2910   32.0070   38.4290 C   0  0  0  0  0  0  0  0  0  0  0  0
   37.4610   30.6390   39.0490 C   0  0  2  0  0  0  0  0  0  0  0  0
   38.7220   28.8670   43.0270 C   0  0  0  0  0  0  0  0  0  0  0  0
   37.7140   27.8420   43.2380 C   0  0  0  0  0  0  0  0  0  0  0  0
   36.4970   27.9040   42.4940 C   0  0  0  0  0  0  0  0  0  0  0  0
   36.3010   28.9180   41.6050 N   0  0  0  0  0  0  0  0  0  0  0  0
   37.2800   29.8500   41.4500 C   0  0  0  0  0  0  0  0  0  0  0  0
   38.4670   29.8430   42.1330 N   0  0  0  0  0  0  0  0  0  0  0  0
   36.5980   29.6380   38.4450 C   0  0  0  0  0  0  0  0  0  0  0  0
   35.3070   29.5380   37.9350 C   0  0  0  0  0  0  0  0  0  0  0  0
   34.8540   28.3590   37.4590 C   0  0  0  0  0  0  0  0  0  0  0  0
   35.6910   27.2650   37.4870 C   0  0  0  0  0  0  0  0  0  0  0  0
   37.2470   27.9430   38.2490 S   0  0  0  0  0  0  0  0  0  0  0  0
   30.7640   28.7950   36.3090 C   0  0  0  0  0  0  0  0  0  0  0  0
   31.5270   27.8250   35.7090 C   0  0  0  0  0  0  0  0  0  0  0  0
   32.8350   27.6410   36.0480 C   0  0  0  0  0  0  0  0  0  0  0  0
   33.4620   28.4110   37.0030 C   0  0  0  0  0  0  0  0  0  0  0  0
   32.6240   29.3790   37.5730 C   0  0  0  0  0  0  0  0  0  0  0  0
   31.2980   29.6080   37.2690 C   0  0  0  0  0  0  0  0  0  0  0  0
   29.0900   28.9910   35.8380 S   0  0  0  0  0  0  0  0  0  0  0  0
   28.9070   30.3020   35.1300 O   0  0  0  0  0  0  0  0  0  0  0  0
   28.2620   28.9820   37.0850 O   0  0  0  0  0  0  0  0  0  0  0  0
   35.4970   25.9190   37.0470 C   0  0  0  0  0  0  0  0  0  0  0  0
   35.2820   25.7600   35.6780 F   0  0  0  0  0  0  0  0  0  0  0  0
   36.6070   25.2230   37.3890 F   0  0  0  0  0  0  0  0  0  0  0  0
   34.4100   25.3820   37.7220 F   0  0  0  0  0  0  0  0  0  0  0  0
   35.9796   31.1837   40.6084 H   0  0  0  0  0  0  0  0  0  0  0  0
   37.4764   32.7091   41.6579 H   0  0  0  0  0  0  0  0  0  0  0  0
   38.9095   31.9316   41.0339 H   0  0  0  0  0  0  0  0  0  0  0  0
   36.9378   33.7577   39.6447 H   0  0  0  0  0  0  0  0  0  0  0  0
   38.6450   33.4994   39.2466 H   0  0  0  0  0  0  0  0  0  0  0  0
   37.9345   32.1122   37.5431 H   0  0  0  0  0  0  0  0  0  0  0  0
   36.2585   32.1815   38.0920 H   0  0  0  0  0  0  0  0  0  0  0  0
   38.4561   30.1845   38.9340 H   0  0  0  0  0  0  0  0  0  0  0  0
   39.6706   28.8470   43.5836 H   0  0  0  0  0  0  0  0  0  0  0  0
   37.8860   27.0303   43.9602 H   0  0  0  0  0  0  0  0  0  0  0  0
   35.7216   27.1372   42.6377 H   0  0  0  0  0  0  0  0  0  0  0  0
   34.6536   30.4228   37.9198 H   0  0  0  0  0  0  0  0  0  0  0  0
   31.0744   27.1829   34.9390 H   0  0  0  0  0  0  0  0  0  0  0  0
   33.4090   26.8509   35.5417 H   0  0  0  0  0  0  0  0  0  0  0  0
   33.0706   30.0241   38.3440 H   0  0  0  0  0  0  0  0  0  0  0  0
   30.7095   30.3930   37.7664 H   0  0  0  0  0  0  0  0  0  0  0  0
   28.7131   27.9799   34.9939 H   0  0  0  0  0  0  0  0  0  0  0  0
  1  2  1  0
  1 10  1  0
  3  2  1  0
  4  5  1  0
  4  3  1  0
  5  1  1  0
  6  7  2  0
  8  7  1  0
  9  8  2  0
 10  9  1  0
 10 11  2  0
 11  6  1  0
 12  5  1  0
 13 12  2  0
 14 15  2  0
 14 13  1  0
 15 16  1  0
 16 12  1  0
 17 22  2  0
 18 19  2  0
 18 17  1  0
 19 20  1  0
 20 14  1  0
 20 21  2  0
 22 21  1  0
 23 17  1  0
 23 25  2  0
 24 23  2  0
 26 28  1  0
 26 15  1  0
 26 29  1  0
 27 26  1  0
  1 30  1  6
  2 31  1  0
  2 32  1  0
  3 33  1  0
  3 34  1  0
  4 35  1  0
  4 36  1  0
  5 37  1  1
  6 38  1  0
  7 39  1  0
  8 40  1  0
 13 41  1  0
 18 42  1  0
 19 43  1  0
 21 44  1  0
 22 45  1  0
 23 46  1  0
M  ISO  8  30  13  31  13  32  13  33  13  34  13  35  13  36  13  37  13
M  ISO  8  38  14  39  14  40  14  41  14  42  14  43  14  44  14  45  14
M  ISO  1  46  11
M  END
>  <minimizedAffinity>  (1) 
-5.49790239

>  <minimizedRMSD>  (1) 
1.01646543

$$$$
