
     RDKit          3D

 47 51  0  0  1  0  0  0  0  0999 V2000
   37.0100   29.9020   38.4730 C   0  0  0  0  0  0  0  0  0  0  0  0
   35.9140   29.9820   37.6470 C   0  0  0  0  0  0  0  0  0  0  0  0
   35.3040   28.8750   37.1820 C   0  0  0  0  0  0  0  0  0  0  0  0
   35.8160   27.6530   37.5620 C   0  0  0  0  0  0  0  0  0  0  0  0
   37.2490   28.1040   38.6460 S   0  0  0  0  0  0  0  0  0  0  0  0
   34.1710   28.9280   36.3270 N   0  0  0  0  0  0  0  0  0  0  0  0
   34.1680   28.7530   34.9890 C   0  0  0  0  0  0  0  0  0  0  0  0
   32.8770   28.8870   34.5810 N   0  0  0  0  0  0  0  0  0  0  0  0
   32.1220   29.1420   35.6850 C   0  0  0  0  0  0  0  0  0  0  0  0
   30.7510   29.3570   35.7990 C   0  0  0  0  0  0  0  0  0  0  0  0
   29.9580   29.3430   34.8150 O   0  0  0  0  0  0  0  0  0  0  0  0
   30.3140   29.5860   37.0520 N   0  0  0  0  0  0  0  0  0  0  0  0
   31.0920   29.6170   38.1510 C   0  0  0  0  0  0  0  0  0  0  0  0
   30.5570   29.8660   39.4460 N   0  0  0  0  0  0  0  0  0  0  0  0
   32.4250   29.4050   38.0150 N   0  0  0  0  0  0  0  0  0  0  0  0
   32.9400   29.1720   36.8120 C   0  0  0  0  0  0  0  0  0  0  0  0
   37.5150   31.0560   40.6330 C   0  0  1  0  0  0  0  0  0  0  0  0
   38.4130   32.1340   41.0290 C   0  0  0  0  0  0  0  0  0  0  0  0
   38.3580   33.0620   39.8230 C   0  0  0  0  0  0  0  0  0  0  0  0
   37.8620   32.2200   38.6670 C   0  0  0  0  0  0  0  0  0  0  0  0
   37.9200   30.7960   39.1700 C   0  0  2  0  0  0  0  0  0  0  0  0
   39.0780   28.3990   42.6830 C   0  0  0  0  0  0  0  0  0  0  0  0
   37.9110   27.6400   43.1070 C   0  0  0  0  0  0  0  0  0  0  0  0
   36.6220   28.0650   42.6620 C   0  0  0  0  0  0  0  0  0  0  0  0
   36.5040   29.1640   41.8560 N   0  0  0  0  0  0  0  0  0  0  0  0
   37.6350   29.8300   41.4960 C   0  0  0  0  0  0  0  0  0  0  0  0
   38.8970   29.4710   41.8880 N   0  0  0  0  0  0  0  0  0  0  0  0
   35.3960   26.3120   37.2350 C   0  0  0  0  0  0  0  0  0  0  0  0
   35.5880   25.9390   35.9070 F   0  0  0  0  0  0  0  0  0  0  0  0
   36.1020   25.4720   38.0290 F   0  0  0  0  0  0  0  0  0  0  0  0
   34.0360   26.1970   37.5590 F   0  0  0  0  0  0  0  0  0  0  0  0
   35.5272   30.9709   37.3599 H   0  0  0  0  0  0  0  0  0  0  0  0
   35.0398   28.5429   34.3520 H   0  0  0  0  0  0  0  0  0  0  0  0
   29.3053   29.7504   37.1800 H   0  0  0  0  0  0  0  0  0  0  0  0
   31.1800   29.8829   40.2661 H   0  0  0  0  0  0  0  0  0  0  0  0
   29.5468   30.0293   39.5632 H   0  0  0  0  0  0  0  0  0  0  0  0
   36.4550   31.3263   40.7486 H   0  0  0  0  0  0  0  0  0  0  0  0
   38.0526   32.6393   41.9372 H   0  0  0  0  0  0  0  0  0  0  0  0
   39.4291   31.7924   41.2759 H   0  0  0  0  0  0  0  0  0  0  0  0
   37.6650   33.8948   40.0135 H   0  0  0  0  0  0  0  0  0  0  0  0
   39.3441   33.4992   39.6074 H   0  0  0  0  0  0  0  0  0  0  0  0
   38.5121   32.3470   37.7888 H   0  0  0  0  0  0  0  0  0  0  0  0
   36.8480   32.5066   38.3511 H   0  0  0  0  0  0  0  0  0  0  0  0
   38.8818   30.2816   39.0273 H   0  0  0  0  0  0  0  0  0  0  0  0
   40.0873   28.1032   43.0052 H   0  0  0  0  0  0  0  0  0  0  0  0
   38.0192   26.7584   43.7559 H   0  0  0  0  0  0  0  0  0  0  0  0
   35.7238   27.5083   42.9675 H   0  0  0  0  0  0  0  0  0  0  0  0
  1  5  1  0
  1 21  1  0
  2  1  2  0
  3  4  2  0
  3  2  1  0
  4  5  1  0
  6 16  1  0
  6  3  1  0
  7  6  1  0
  8  7  2  0
  8  9  1  0
  9 10  1  0
  9 16  2  0
 10 12  1  0
 11 10  2  0
 12 13  1  0
 13 14  1  0
 15 13  2  0
 16 15  1  0
 17 18  1  0
 17 26  1  0
 19 18  1  0
 20 21  1  0
 20 19  1  0
 21 17  1  0
 22 23  2  0
 24 23  1  0
 25 24  2  0
 26 25  1  0
 26 27  2  0
 27 22  1  0
 28 31  1  0
 28  4  1  0
 28 30  1  0
 29 28  1  0
  2 32  1  0
  7 33  1  0
 12 34  1  0
 14 35  1  0
 14 36  1  0
 17 37  1  6
 18 38  1  0
 18 39  1  0
 19 40  1  0
 19 41  1  0
 20 42  1  0
 20 43  1  0
 21 44  1  1
 22 45  1  0
 23 46  1  0
 24 47  1  0
M  ISO  8  32  14  33  14  34   9  37  13  38  13  39  13  40  13  41  13
M  ISO  6  42  13  43  13  44  13  45  14  46  14  47  14
M  END
>  <minimizedAffinity>  (1) 
-5.46831083

>  <minimizedRMSD>  (1) 
1.43912351

$$$$
