
     RDKit          3D

 41 44  0  0  1  0  0  0  0  0999 V2000
   37.0170   30.9740   40.5180 C   0  0  1  0  0  0  0  0  0  0  0  0
   37.8080   32.1640   40.8020 C   0  0  0  0  0  0  0  0  0  0  0  0
   37.6410   32.9800   39.5300 C   0  0  0  0  0  0  0  0  0  0  0  0
   37.2070   32.0000   38.4550 C   0  0  0  0  0  0  0  0  0  0  0  0
   37.4150   30.6300   39.0690 C   0  0  2  0  0  0  0  0  0  0  0  0
   38.7370   28.8830   43.0360 C   0  0  0  0  0  0  0  0  0  0  0  0
   37.7500   27.8410   43.2600 C   0  0  0  0  0  0  0  0  0  0  0  0
   36.5230   27.8850   42.5270 C   0  0  0  0  0  0  0  0  0  0  0  0
   36.3010   28.8930   41.6390 N   0  0  0  0  0  0  0  0  0  0  0  0
   37.2690   29.8410   41.4760 C   0  0  0  0  0  0  0  0  0  0  0  0
   38.4600   29.8530   42.1440 N   0  0  0  0  0  0  0  0  0  0  0  0
   36.5640   29.6110   38.4680 C   0  0  0  0  0  0  0  0  0  0  0  0
   35.2910   29.4770   37.9730 C   0  0  0  0  0  0  0  0  0  0  0  0
   34.8490   28.3030   37.4950 C   0  0  0  0  0  0  0  0  0  0  0  0
   35.6960   27.2290   37.5090 C   0  0  0  0  0  0  0  0  0  0  0  0
   37.2530   27.9370   38.2620 S   0  0  0  0  0  0  0  0  0  0  0  0
   33.4490   28.3610   37.0000 C   0  0  0  0  0  0  0  0  0  0  0  0
   32.5230   29.3240   37.3330 C   0  0  0  0  0  0  0  0  0  0  0  0
   31.2150   29.4310   36.9270 C   0  0  0  0  0  0  0  0  0  0  0  0
   30.8090   28.4640   36.1000 N   0  0  0  0  0  0  0  0  0  0  0  0
   31.6540   27.4890   35.7270 C   0  0  0  0  0  0  0  0  0  0  0  0
   32.8860   27.5120   36.1960 N   0  0  0  0  0  0  0  0  0  0  0  0
   35.5370   25.8820   37.0700 C   0  0  0  0  0  0  0  0  0  0  0  0
   35.3490   25.7030   35.7030 F   0  0  0  0  0  0  0  0  0  0  0  0
   36.6810   25.2070   37.4080 F   0  0  0  0  0  0  0  0  0  0  0  0
   34.4900   25.3010   37.7520 F   0  0  0  0  0  0  0  0  0  0  0  0
   35.9381   31.1513   40.6388 H   0  0  0  0  0  0  0  0  0  0  0  0
   37.4142   32.7042   41.6756 H   0  0  0  0  0  0  0  0  0  0  0  0
   38.8574   31.9450   41.0484 H   0  0  0  0  0  0  0  0  0  0  0  0
   36.8738   33.7554   39.6719 H   0  0  0  0  0  0  0  0  0  0  0  0
   38.5755   33.4907   39.2546 H   0  0  0  0  0  0  0  0  0  0  0  0
   37.8245   32.1173   37.5523 H   0  0  0  0  0  0  0  0  0  0  0  0
   36.1639   32.1607   38.1450 H   0  0  0  0  0  0  0  0  0  0  0  0
   38.4165   30.1925   38.9438 H   0  0  0  0  0  0  0  0  0  0  0  0
   39.6909   28.8797   43.5837 H   0  0  0  0  0  0  0  0  0  0  0  0
   37.9430   27.0326   43.9806 H   0  0  0  0  0  0  0  0  0  0  0  0
   35.7608   27.1068   42.6801 H   0  0  0  0  0  0  0  0  0  0  0  0
   34.6198   30.3485   37.9678 H   0  0  0  0  0  0  0  0  0  0  0  0
   32.8774   30.1117   38.0141 H   0  0  0  0  0  0  0  0  0  0  0  0
   30.5553   30.2472   37.2564 H   0  0  0  0  0  0  0  0  0  0  0  0
   31.3258   26.6899   35.0461 H   0  0  0  0  0  0  0  0  0  0  0  0
  1  2  1  0
  1 10  1  0
  3  2  1  0
  4  5  1  0
  4  3  1  0
  5  1  1  0
  6  7  2  0
  8  7  1  0
  9  8  2  0
 10  9  1  0
 10 11  2  0
 11  6  1  0
 12  5  1  0
 13 12  2  0
 14 15  2  0
 14 13  1  0
 15 16  1  0
 16 12  1  0
 17 18  2  0
 17 14  1  0
 19 18  1  0
 20 19  2  0
 21 20  1  0
 21 22  2  0
 22 17  1  0
 23 25  1  0
 23 15  1  0
 23 26  1  0
 24 23  1  0
  1 27  1  6
  2 28  1  0
  2 29  1  0
  3 30  1  0
  3 31  1  0
  4 32  1  0
  4 33  1  0
  5 34  1  1
  6 35  1  0
  7 36  1  0
  8 37  1  0
 13 38  1  0
 18 39  1  0
 19 40  1  0
 21 41  1  0
M  ISO  8  27  13  28  13  29  13  30  13  31  13  32  13  33  13  34  13
M  ISO  7  35  14  36  14  37  14  38  14  39  14  40  14  41  14
M  END
>  <minimizedAffinity>  (1) 
-5.25476217

>  <minimizedRMSD>  (1) 
0.682781994

$$$$
