
     RDKit          3D

 40 43  0  0  1  0  0  0  0  0999 V2000
   36.9840   31.0000   40.5080 C   0  0  1  0  0  0  0  0  0  0  0  0
   37.7920   32.1820   40.7850 C   0  0  0  0  0  0  0  0  0  0  0  0
   37.6400   32.9890   39.4990 C   0  0  0  0  0  0  0  0  0  0  0  0
   37.2050   31.9960   38.4390 C   0  0  0  0  0  0  0  0  0  0  0  0
   37.4020   30.6290   39.0740 C   0  0  2  0  0  0  0  0  0  0  0  0
   38.6080   28.9670   43.1390 C   0  0  0  0  0  0  0  0  0  0  0  0
   37.6500   27.9030   43.3090 C   0  0  0  0  0  0  0  0  0  0  0  0
   36.4680   27.9040   42.5020 C   0  0  0  0  0  0  0  0  0  0  0  0
   36.2690   28.9020   41.5980 N   0  0  0  0  0  0  0  0  0  0  0  0
   37.2090   29.8790   41.4830 C   0  0  0  0  0  0  0  0  0  0  0  0
   38.3550   29.9250   42.2280 N   0  0  0  0  0  0  0  0  0  0  0  0
   36.5490   29.6100   38.4880 C   0  0  0  0  0  0  0  0  0  0  0  0
   35.2510   29.4790   38.0070 C   0  0  0  0  0  0  0  0  0  0  0  0
   34.8170   28.3050   37.5120 C   0  0  0  0  0  0  0  0  0  0  0  0
   35.6710   27.2450   37.4900 C   0  0  0  0  0  0  0  0  0  0  0  0
   37.2390   27.9470   38.2320 S   0  0  0  0  0  0  0  0  0  0  0  0
   33.4280   28.4510   37.0890 C   0  0  0  0  0  0  0  0  0  0  0  0
   32.8480   28.0100   35.9240 C   0  0  0  0  0  0  0  0  0  0  0  0
   31.5630   28.4110   35.7980 N   0  0  0  0  0  0  0  0  0  0  0  0
   31.2470   29.1460   36.8950 C   0  0  0  0  0  0  0  0  0  0  0  0
   32.3770   29.1250   37.5990 N   0  0  0  0  0  0  0  0  0  0  0  0
   35.5060   25.9020   37.0420 C   0  0  0  0  0  0  0  0  0  0  0  0
   35.3600   25.7290   35.6690 F   0  0  0  0  0  0  0  0  0  0  0  0
   36.6420   25.2080   37.3990 F   0  0  0  0  0  0  0  0  0  0  0  0
   34.4480   25.3200   37.7130 F   0  0  0  0  0  0  0  0  0  0  0  0
   35.9063   31.1951   40.6107 H   0  0  0  0  0  0  0  0  0  0  0  0
   37.4026   32.7365   41.6516 H   0  0  0  0  0  0  0  0  0  0  0  0
   38.8371   31.9513   41.0391 H   0  0  0  0  0  0  0  0  0  0  0  0
   36.8784   33.7725   39.6259 H   0  0  0  0  0  0  0  0  0  0  0  0
   38.5784   33.4920   39.2227 H   0  0  0  0  0  0  0  0  0  0  0  0
   37.8268   32.0963   37.5372 H   0  0  0  0  0  0  0  0  0  0  0  0
   36.1637   32.1584   38.1240 H   0  0  0  0  0  0  0  0  0  0  0  0
   38.4022   30.1851   38.9622 H   0  0  0  0  0  0  0  0  0  0  0  0
   39.5276   28.9953   43.7420 H   0  0  0  0  0  0  0  0  0  0  0  0
   37.8244   27.1049   44.0456 H   0  0  0  0  0  0  0  0  0  0  0  0
   35.7235   27.1017   42.6118 H   0  0  0  0  0  0  0  0  0  0  0  0
   34.5717   30.3439   38.0313 H   0  0  0  0  0  0  0  0  0  0  0  0
   33.3720   27.3975   35.1755 H   0  0  0  0  0  0  0  0  0  0  0  0
   30.2939   29.6370   37.1411 H   0  0  0  0  0  0  0  0  0  0  0  0
   32.4464   29.6088   38.5056 H   0  0  0  0  0  0  0  0  0  0  0  0
  1  2  1  0
  1 10  1  0
  3  2  1  0
  4  5  1  0
  4  3  1  0
  5  1  1  0
  6  7  2  0
  8  7  1  0
  9  8  2  0
 10  9  1  0
 10 11  2  0
 11  6  1  0
 12  5  1  0
 13 12  2  0
 14 13  1  0
 15 14  2  0
 15 16  1  0
 16 12  1  0
 17 14  1  0
 17 21  1  0
 18 17  2  0
 19 18  1  0
 19 20  2  0
 20 21  1  0
 22 24  1  0
 22 15  1  0
 22 25  1  0
 23 22  1  0
  1 26  1  6
  2 27  1  0
  2 28  1  0
  3 29  1  0
  3 30  1  0
  4 31  1  0
  4 32  1  0
  5 33  1  1
  6 34  1  0
  7 35  1  0
  8 36  1  0
 13 37  1  0
 18 38  1  0
 20 39  1  0
 21 40  1  0
M  ISO  8  26  13  27  13  28  13  29  13  30  13  31  13  32  13  33  13
M  ISO  7  34  14  35  14  36  14  37  14  38  14  39  14  40   9
M  END
>  <minimizedAffinity>  (1) 
-5.19907188

>  <minimizedRMSD>  (1) 
0.858544648

$$$$
