
     RDKit          3D

 36 38  0  0  1  0  0  0  0  0999 V2000
   36.9840   31.2140   40.3510 C   0  0  1  0  0  0  0  0  0  0  0  0
   37.6290   32.4580   40.7570 C   0  0  0  0  0  0  0  0  0  0  0  0
   37.4810   33.3130   39.5010 C   0  0  0  0  0  0  0  0  0  0  0  0
   37.2940   32.3380   38.3580 C   0  0  0  0  0  0  0  0  0  0  0  0
   37.5700   30.9740   38.9430 C   0  0  2  0  0  0  0  0  0  0  0  0
   38.6600   29.1410   42.9140 C   0  0  0  0  0  0  0  0  0  0  0  0
   37.7170   28.0480   43.0590 C   0  0  0  0  0  0  0  0  0  0  0  0
   36.5320   28.0510   42.2550 C   0  0  0  0  0  0  0  0  0  0  0  0
   36.3150   29.0720   41.3800 N   0  0  0  0  0  0  0  0  0  0  0  0
   37.2400   30.0700   41.2920 C   0  0  0  0  0  0  0  0  0  0  0  0
   38.3920   30.1230   42.0310 N   0  0  0  0  0  0  0  0  0  0  0  0
   36.8950   29.9020   38.2240 C   0  0  0  0  0  0  0  0  0  0  0  0
   35.5990   29.4720   37.9730 C   0  0  0  0  0  0  0  0  0  0  0  0
   35.3830   28.3680   37.2430 C   0  0  0  0  0  0  0  0  0  0  0  0
   36.4570   27.6690   36.7460 C   0  0  0  0  0  0  0  0  0  0  0  0
   37.9020   28.6570   37.3670 S   0  0  0  0  0  0  0  0  0  0  0  0
   36.5490   26.4900   35.9320 C   0  0  0  0  0  0  0  0  0  0  0  0
   35.8230   26.5340   34.7420 F   0  0  0  0  0  0  0  0  0  0  0  0
   37.8570   26.3120   35.6320 F   0  0  0  0  0  0  0  0  0  0  0  0
   36.1190   25.4060   36.6810 F   0  0  0  0  0  0  0  0  0  0  0  0
   33.9720   27.9170   36.9760 C   0  0  0  0  0  0  0  0  0  0  0  0
   33.6980   28.1380   35.6420 F   0  0  0  0  0  0  0  0  0  0  0  0
   33.0300   28.6970   37.6390 F   0  0  0  0  0  0  0  0  0  0  0  0
   33.7250   26.6440   37.4100 F   0  0  0  0  0  0  0  0  0  0  0  0
   35.8863   31.2846   40.3596 H   0  0  0  0  0  0  0  0  0  0  0  0
   37.1137   32.9145   41.6149 H   0  0  0  0  0  0  0  0  0  0  0  0
   38.6701   32.3315   41.0888 H   0  0  0  0  0  0  0  0  0  0  0  0
   36.6057   33.9735   39.5882 H   0  0  0  0  0  0  0  0  0  0  0  0
   38.3587   33.9573   39.3441 H   0  0  0  0  0  0  0  0  0  0  0  0
   38.0016   32.5581   37.5451 H   0  0  0  0  0  0  0  0  0  0  0  0
   36.2833   32.4012   37.9285 H   0  0  0  0  0  0  0  0  0  0  0  0
   38.6188   30.6437   38.9114 H   0  0  0  0  0  0  0  0  0  0  0  0
   39.5802   29.1677   43.5160 H   0  0  0  0  0  0  0  0  0  0  0  0
   37.9085   27.2330   43.7725 H   0  0  0  0  0  0  0  0  0  0  0  0
   35.8013   27.2335   42.3435 H   0  0  0  0  0  0  0  0  0  0  0  0
   34.7461   30.0390   38.3744 H   0  0  0  0  0  0  0  0  0  0  0  0
  1  2  1  0
  1 10  1  0
  3  2  1  0
  4  5  1  0
  4  3  1  0
  5  1  1  0
  6  7  2  0
  8  7  1  0
  9  8  2  0
 10  9  1  0
 10 11  2  0
 11  6  1  0
 12  5  1  0
 13 12  2  0
 14 13  1  0
 15 14  2  0
 15 16  1  0
 16 12  1  0
 17 20  1  0
 17 15  1  0
 18 17  1  0
 19 17  1  0
 21 14  1  0
 21 24  1  0
 21 23  1  0
 22 21  1  0
  1 25  1  6
  2 26  1  0
  2 27  1  0
  3 28  1  0
  3 29  1  0
  4 30  1  0
  4 31  1  0
  5 32  1  1
  6 33  1  0
  7 34  1  0
  8 35  1  0
 13 36  1  0
M  ISO  8  25  13  26  13  27  13  28  13  29  13  30  13  31  13  32  13
M  ISO  4  33  14  34  14  35  14  36  14
M  END
>  <minimizedAffinity>  (1) 
-5.03386545

>  <minimizedRMSD>  (1) 
1.39142203

$$$$
