
     RDKit          3D

 39 42  0  0  1  0  0  0  0  0999 V2000
   36.8960   30.8980   40.3690 C   0  0  1  0  0  0  0  0  0  0  0  0
   37.6080   32.1490   40.5940 C   0  0  0  0  0  0  0  0  0  0  0  0
   37.4500   32.8600   39.2480 C   0  0  0  0  0  0  0  0  0  0  0  0
   37.1000   31.7780   38.2520 C   0  0  0  0  0  0  0  0  0  0  0  0
   37.3720   30.4680   38.9710 C   0  0  2  0  0  0  0  0  0  0  0  0
   38.5760   29.1200   43.1410 C   0  0  0  0  0  0  0  0  0  0  0  0
   37.6440   28.0300   43.3890 C   0  0  0  0  0  0  0  0  0  0  0  0
   36.4680   27.9370   42.5840 C   0  0  0  0  0  0  0  0  0  0  0  0
   36.2440   28.8630   41.6070 N   0  0  0  0  0  0  0  0  0  0  0  0
   37.1580   29.8620   41.4250 C   0  0  0  0  0  0  0  0  0  0  0  0
   38.2990   30.0020   42.1610 N   0  0  0  0  0  0  0  0  0  0  0  0
   36.6100   29.3650   38.4210 C   0  0  0  0  0  0  0  0  0  0  0  0
   35.3490   29.1230   37.8900 C   0  0  0  0  0  0  0  0  0  0  0  0
   34.9750   27.8850   37.4970 C   0  0  0  0  0  0  0  0  0  0  0  0
   35.8890   26.8660   37.6330 C   0  0  0  0  0  0  0  0  0  0  0  0
   37.3830   27.7190   38.3770 S   0  0  0  0  0  0  0  0  0  0  0  0
   33.5930   27.9260   36.9460 C   0  0  0  0  0  0  0  0  0  0  0  0
   32.8960   29.1070   37.1200 C   0  0  0  0  0  0  0  0  0  0  0  0
   31.3930   28.9580   36.2860 S   0  0  0  0  0  0  0  0  0  0  0  0
   31.8440   27.1770   35.7150 C   0  0  0  0  0  0  0  0  0  0  0  0
   32.8380   27.1710   36.2210 N   0  0  0  0  0  0  0  0  0  0  0  0
   35.8300   25.4860   37.2860 C   0  0  0  0  0  0  0  0  0  0  0  0
   35.6000   25.1940   35.9370 F   0  0  0  0  0  0  0  0  0  0  0  0
   37.0280   24.9380   37.6210 F   0  0  0  0  0  0  0  0  0  0  0  0
   34.8390   24.8800   38.0280 F   0  0  0  0  0  0  0  0  0  0  0  0
   35.8045   31.0220   40.4269 H   0  0  0  0  0  0  0  0  0  0  0  0
   37.1475   32.7289   41.4074 H   0  0  0  0  0  0  0  0  0  0  0  0
   38.6558   32.0111   40.8993 H   0  0  0  0  0  0  0  0  0  0  0  0
   36.6445   33.6073   39.3013 H   0  0  0  0  0  0  0  0  0  0  0  0
   38.3677   33.3943   38.9611 H   0  0  0  0  0  0  0  0  0  0  0  0
   37.7297   31.8626   37.3540 H   0  0  0  0  0  0  0  0  0  0  0  0
   36.0551   31.8522   37.9162 H   0  0  0  0  0  0  0  0  0  0  0  0
   38.4004   30.0819   38.9143 H   0  0  0  0  0  0  0  0  0  0  0  0
   39.4908   29.2219   43.7433 H   0  0  0  0  0  0  0  0  0  0  0  0
   37.8415   27.2924   44.1808 H   0  0  0  0  0  0  0  0  0  0  0  0
   35.7467   27.1234   42.7506 H   0  0  0  0  0  0  0  0  0  0  0  0
   34.6395   29.9573   37.7872 H   0  0  0  0  0  0  0  0  0  0  0  0
   33.2382   29.9845   37.6883 H   0  0  0  0  0  0  0  0  0  0  0  0
   31.3116   26.4310   35.1067 H   0  0  0  0  0  0  0  0  0  0  0  0
  1  2  1  0
  1 10  1  0
  3  2  1  0
  4  5  1  0
  4  3  1  0
  5  1  1  0
  6  7  2  0
  8  7  1  0
  9  8  2  0
 10  9  1  0
 10 11  2  0
 11  6  1  0
 12  5  1  0
 13 12  2  0
 14 15  2  0
 14 13  1  0
 15 16  1  0
 16 12  1  0
 17 18  2  0
 17 14  1  0
 19 18  1  0
 20 21  2  0
 20 19  1  0
 21 17  1  0
 22 24  1  0
 22 15  1  0
 22 25  1  0
 23 22  1  0
  1 26  1  6
  2 27  1  0
  2 28  1  0
  3 29  1  0
  3 30  1  0
  4 31  1  0
  4 32  1  0
  5 33  1  1
  6 34  1  0
  7 35  1  0
  8 36  1  0
 13 37  1  0
 18 38  1  0
 20 39  1  0
M  ISO  8  26  13  27  13  28  13  29  13  30  13  31  13  32  13  33  13
M  ISO  6  34  14  35  14  36  14  37  14  38  14  39  14
M  END
>  <minimizedAffinity>  (1) 
-5.02401447

>  <minimizedRMSD>  (1) 
0.919259965

$$$$
