
     RDKit          3D

 46 49  0  0  1  0  0  0  0  0999 V2000
   36.9430   31.1620   40.2750 C   0  0  1  0  0  0  0  0  0  0  0  0
   37.5190   32.4340   40.6980 C   0  0  0  0  0  0  0  0  0  0  0  0
   37.4300   33.2720   39.4300 C   0  0  0  0  0  0  0  0  0  0  0  0
   37.3280   32.2820   38.2850 C   0  0  0  0  0  0  0  0  0  0  0  0
   37.6220   30.9320   38.9080 C   0  0  2  0  0  0  0  0  0  0  0  0
   38.6150   29.1680   42.9080 C   0  0  0  0  0  0  0  0  0  0  0  0
   37.6840   28.0600   43.0530 C   0  0  0  0  0  0  0  0  0  0  0  0
   36.5140   28.0280   42.2300 C   0  0  0  0  0  0  0  0  0  0  0  0
   36.2870   29.0280   41.3290 N   0  0  0  0  0  0  0  0  0  0  0  0
   37.2000   30.0400   41.2450 C   0  0  0  0  0  0  0  0  0  0  0  0
   38.3410   30.1280   42.0030 N   0  0  0  0  0  0  0  0  0  0  0  0
   37.0470   29.8280   38.1670 C   0  0  0  0  0  0  0  0  0  0  0  0
   35.8100   29.3730   37.7720 C   0  0  0  0  0  0  0  0  0  0  0  0
   35.6740   28.2330   37.0510 C   0  0  0  0  0  0  0  0  0  0  0  0
   36.8210   27.5460   36.7280 C   0  0  0  0  0  0  0  0  0  0  0  0
   38.1680   28.5620   37.4830 S   0  0  0  0  0  0  0  0  0  0  0  0
   34.2850   27.9430   36.7630 N   0  0  0  0  0  0  0  0  0  0  0  0
   33.5310   26.7350   36.7140 C   0  0  0  0  0  0  0  0  0  0  0  0
   32.6800   26.7070   35.4760 C   0  0  0  0  0  0  0  0  0  0  0  0
   33.0170   27.6670   34.5650 O   0  0  0  0  0  0  0  0  0  0  0  0
   33.0220   28.9640   35.0090 C   0  0  0  0  0  0  0  0  0  0  0  0
   33.4110   29.0890   36.4640 C   0  0  0  0  0  0  0  0  0  0  0  0
   36.9960   26.3360   35.9850 C   0  0  0  0  0  0  0  0  0  0  0  0
   36.3300   26.2740   34.7620 F   0  0  0  0  0  0  0  0  0  0  0  0
   38.3360   26.2150   35.7270 F   0  0  0  0  0  0  0  0  0  0  0  0
   36.6140   25.2530   36.7600 F   0  0  0  0  0  0  0  0  0  0  0  0
   35.8446   31.1866   40.2218 H   0  0  0  0  0  0  0  0  0  0  0  0
   36.9342   32.8838   41.5139 H   0  0  0  0  0  0  0  0  0  0  0  0
   38.5414   32.3432   41.0935 H   0  0  0  0  0  0  0  0  0  0  0  0
   36.5393   33.9168   39.4590 H   0  0  0  0  0  0  0  0  0  0  0  0
   38.3040   33.9306   39.3184 H   0  0  0  0  0  0  0  0  0  0  0  0
   38.0661   32.5166   37.5039 H   0  0  0  0  0  0  0  0  0  0  0  0
   36.3400   32.3084   37.8021 H   0  0  0  0  0  0  0  0  0  0  0  0
   38.6835   30.6461   38.9461 H   0  0  0  0  0  0  0  0  0  0  0  0
   39.5244   29.2212   43.5246 H   0  0  0  0  0  0  0  0  0  0  0  0
   37.8762   27.2600   43.7831 H   0  0  0  0  0  0  0  0  0  0  0  0
   35.7980   27.1982   42.3233 H   0  0  0  0  0  0  0  0  0  0  0  0
   34.9124   29.9464   38.0470 H   0  0  0  0  0  0  0  0  0  0  0  0
   34.2191   25.8769   36.7019 H   0  0  0  0  0  0  0  0  0  0  0  0
   32.8804   26.6807   37.5993 H   0  0  0  0  0  0  0  0  0  0  0  0
   32.7887   25.7212   35.0002 H   0  0  0  0  0  0  0  0  0  0  0  0
   31.6443   26.9053   35.7890 H   0  0  0  0  0  0  0  0  0  0  0  0
   33.7387   29.5388   34.4040 H   0  0  0  0  0  0  0  0  0  0  0  0
   31.9969   29.3500   34.9083 H   0  0  0  0  0  0  0  0  0  0  0  0
   33.9504   30.0326   36.6334 H   0  0  0  0  0  0  0  0  0  0  0  0
   32.5236   29.0927   37.1140 H   0  0  0  0  0  0  0  0  0  0  0  0
  1  2  1  0
  1 10  1  0
  3  2  1  0
  4  5  1  0
  4  3  1  0
  5  1  1  0
  6  7  2  0
  8  7  1  0
  9  8  2  0
 10  9  1  0
 10 11  2  0
 11  6  1  0
 12  5  1  0
 13 12  2  0
 14 13  1  0
 15 14  2  0
 15 16  1  0
 16 12  1  0
 17 14  1  0
 18 17  1  0
 19 18  1  0
 20 21  1  0
 20 19  1  0
 21 22  1  0
 22 17  1  0
 23 15  1  0
 23 26  1  0
 24 23  1  0
 25 23  1  0
  1 27  1  6
  2 28  1  0
  2 29  1  0
  3 30  1  0
  3 31  1  0
  4 32  1  0
  4 33  1  0
  5 34  1  1
  6 35  1  0
  7 36  1  0
  8 37  1  0
 13 38  1  0
 18 39  1  0
 18 40  1  0
 19 41  1  0
 19 42  1  0
 21 43  1  0
 21 44  1  0
 22 45  1  0
 22 46  1  0
M  ISO  8  27  13  28  13  29  13  30  13  31  13  32  13  33  13  34  13
M  ISO  8  35  14  36  14  37  14  38  14  39  13  40  13  41  13  42  13
M  ISO  4  43  13  44  13  45  13  46  13
M  END
>  <minimizedAffinity>  (1) 
-5.01812935

>  <minimizedRMSD>  (1) 
1.59668565

$$$$
