
     RDKit          3D

 42 44  0  0  1  0  0  0  0  0999 V2000
   36.9560   31.0200   40.4220 C   0  0  1  0  0  0  0  0  0  0  0  0
   37.6820   32.2530   40.7010 C   0  0  0  0  0  0  0  0  0  0  0  0
   37.5630   33.0130   39.3880 C   0  0  0  0  0  0  0  0  0  0  0  0
   37.2130   31.9740   38.3370 C   0  0  0  0  0  0  0  0  0  0  0  0
   37.4490   30.6440   39.0090 C   0  0  2  0  0  0  0  0  0  0  0  0
   38.6190   29.0920   43.1070 C   0  0  0  0  0  0  0  0  0  0  0  0
   37.6600   28.0190   43.3230 C   0  0  0  0  0  0  0  0  0  0  0  0
   36.4750   27.9890   42.5240 C   0  0  0  0  0  0  0  0  0  0  0  0
   36.2670   28.9560   41.5880 N   0  0  0  0  0  0  0  0  0  0  0  0
   37.2050   29.9360   41.4340 C   0  0  0  0  0  0  0  0  0  0  0  0
   38.3600   30.0210   42.1650 N   0  0  0  0  0  0  0  0  0  0  0  0
   36.6770   29.5620   38.4070 C   0  0  0  0  0  0  0  0  0  0  0  0
   35.4290   29.3830   37.8180 C   0  0  0  0  0  0  0  0  0  0  0  0
   35.0570   28.1670   37.3920 C   0  0  0  0  0  0  0  0  0  0  0  0
   35.9220   27.1090   37.5410 C   0  0  0  0  0  0  0  0  0  0  0  0
   37.3930   27.8950   38.3600 S   0  0  0  0  0  0  0  0  0  0  0  0
   35.8290   25.7230   37.1690 C   0  0  0  0  0  0  0  0  0  0  0  0
   35.6330   25.4870   35.8070 F   0  0  0  0  0  0  0  0  0  0  0  0
   36.9820   25.1290   37.5550 F   0  0  0  0  0  0  0  0  0  0  0  0
   34.7670   25.1570   37.8540 F   0  0  0  0  0  0  0  0  0  0  0  0
   33.6880   28.0160   36.7720 C   0  0  0  0  0  0  0  0  0  0  0  0
   33.8280   28.2900   35.3140 C   0  0  0  0  0  0  0  0  0  0  0  0
   32.7230   29.1070   37.2810 C   0  0  0  0  0  0  0  0  0  0  0  0
   35.8654   31.1517   40.4790 H   0  0  0  0  0  0  0  0  0  0  0  0
   37.2151   32.8106   41.5262 H   0  0  0  0  0  0  0  0  0  0  0  0
   38.7223   32.0861   41.0170 H   0  0  0  0  0  0  0  0  0  0  0  0
   36.7694   33.7717   39.4554 H   0  0  0  0  0  0  0  0  0  0  0  0
   38.4960   33.5403   39.1402 H   0  0  0  0  0  0  0  0  0  0  0  0
   37.8618   32.0822   37.4553 H   0  0  0  0  0  0  0  0  0  0  0  0
   36.1775   32.0790   37.9809 H   0  0  0  0  0  0  0  0  0  0  0  0
   38.4752   30.2522   38.9500 H   0  0  0  0  0  0  0  0  0  0  0  0
   39.5417   29.1443   43.7036 H   0  0  0  0  0  0  0  0  0  0  0  0
   37.8431   27.2472   44.0851 H   0  0  0  0  0  0  0  0  0  0  0  0
   35.7342   27.1881   42.6647 H   0  0  0  0  0  0  0  0  0  0  0  0
   34.7477   30.2388   37.7018 H   0  0  0  0  0  0  0  0  0  0  0  0
   33.3083   27.0122   37.0132 H   0  0  0  0  0  0  0  0  0  0  0  0
   34.3242   29.2610   35.1694 H   0  0  0  0  0  0  0  0  0  0  0  0
   34.4314   27.4970   34.8482 H   0  0  0  0  0  0  0  0  0  0  0  0
   32.8318   28.3143   34.8482 H   0  0  0  0  0  0  0  0  0  0  0  0
   32.7203   29.1100   38.3810 H   0  0  0  0  0  0  0  0  0  0  0  0
   33.0531   30.0895   36.9124 H   0  0  0  0  0  0  0  0  0  0  0  0
   31.7076   28.8994   36.9124 H   0  0  0  0  0  0  0  0  0  0  0  0
  1  2  1  0
  1 10  1  0
  3  2  1  0
  4  5  1  0
  4  3  1  0
  5  1  1  0
  6  7  2  0
  8  7  1  0
  9  8  2  0
 10  9  1  0
 10 11  2  0
 11  6  1  0
 12  5  1  0
 13 12  2  0
 14 15  2  0
 14 13  1  0
 15 16  1  0
 16 12  1  0
 17 15  1  0
 17 19  1  0
 17 20  1  0
 18 17  1  0
 21 23  1  0
 21 14  1  0
 22 21  1  0
  1 24  1  6
  2 25  1  0
  2 26  1  0
  3 27  1  0
  3 28  1  0
  4 29  1  0
  4 30  1  0
  5 31  1  1
  6 32  1  0
  7 33  1  0
  8 34  1  0
 13 35  1  0
 21 36  1  0
 22 37  1  0
 22 38  1  0
 22 39  1  0
 23 40  1  0
 23 41  1  0
 23 42  1  0
M  ISO  8  24  13  25  13  26  13  27  13  28  13  29  13  30  13  31  13
M  ISO  8  32  14  33  14  34  14  35  14  36   8  37   8  38   8  39   8
M  ISO  3  40   8  41   8  42   8
M  END
>  <minimizedAffinity>  (1) 
-4.96410227

>  <minimizedRMSD>  (1) 
0.727115273

$$$$
