
     RDKit          3D

 39 41  0  0  1  0  0  0  0  0999 V2000
   36.9140   31.0010   40.3860 C   0  0  1  0  0  0  0  0  0  0  0  0
   37.6230   32.2440   40.6510 C   0  0  0  0  0  0  0  0  0  0  0  0
   37.4690   32.9960   39.3290 C   0  0  0  0  0  0  0  0  0  0  0  0
   37.1500   31.9390   38.2890 C   0  0  0  0  0  0  0  0  0  0  0  0
   37.4010   30.6140   38.9750 C   0  0  2  0  0  0  0  0  0  0  0  0
   38.5760   29.1340   43.1120 C   0  0  0  0  0  0  0  0  0  0  0  0
   37.6640   28.0430   43.3160 C   0  0  0  0  0  0  0  0  0  0  0  0
   36.5040   27.9700   42.5040 C   0  0  0  0  0  0  0  0  0  0  0  0
   36.2770   28.9230   41.5580 N   0  0  0  0  0  0  0  0  0  0  0  0
   37.1700   29.9350   41.4050 C   0  0  0  0  0  0  0  0  0  0  0  0
   38.3010   30.0460   42.1610 N   0  0  0  0  0  0  0  0  0  0  0  0
   36.6320   29.5230   38.3890 C   0  0  0  0  0  0  0  0  0  0  0  0
   35.3520   29.2910   37.9050 C   0  0  0  0  0  0  0  0  0  0  0  0
   35.0110   28.0760   37.4440 C   0  0  0  0  0  0  0  0  0  0  0  0
   35.9550   27.0700   37.4560 C   0  0  0  0  0  0  0  0  0  0  0  0
   37.4520   27.9090   38.1870 S   0  0  0  0  0  0  0  0  0  0  0  0
   35.9050   25.6990   37.0270 C   0  0  0  0  0  0  0  0  0  0  0  0
   35.5190   25.5030   35.7040 F   0  0  0  0  0  0  0  0  0  0  0  0
   37.1430   25.1780   37.2080 F   0  0  0  0  0  0  0  0  0  0  0  0
   35.0160   25.0190   37.8510 F   0  0  0  0  0  0  0  0  0  0  0  0
   33.5850   27.9190   36.9630 C   0  0  0  0  0  0  0  0  0  0  0  0
   32.7600   29.1740   37.2020 C   0  0  0  0  0  0  0  0  0  0  0  0
   35.8224   31.1232   40.4444 H   0  0  0  0  0  0  0  0  0  0  0  0
   37.1593   32.7979   41.4806 H   0  0  0  0  0  0  0  0  0  0  0  0
   38.6701   32.0974   40.9546 H   0  0  0  0  0  0  0  0  0  0  0  0
   36.6495   33.7267   39.3968 H   0  0  0  0  0  0  0  0  0  0  0  0
   38.3806   33.5555   39.0722 H   0  0  0  0  0  0  0  0  0  0  0  0
   37.8065   32.0498   37.4134 H   0  0  0  0  0  0  0  0  0  0  0  0
   36.1155   32.0221   37.9243 H   0  0  0  0  0  0  0  0  0  0  0  0
   38.4294   30.2285   38.9142 H   0  0  0  0  0  0  0  0  0  0  0  0
   39.4857   29.2228   43.7240 H   0  0  0  0  0  0  0  0  0  0  0  0
   37.8612   27.2814   44.0848 H   0  0  0  0  0  0  0  0  0  0  0  0
   35.7887   27.1451   42.6379 H   0  0  0  0  0  0  0  0  0  0  0  0
   34.6132   30.1059   37.8988 H   0  0  0  0  0  0  0  0  0  0  0  0
   33.1193   27.0803   37.5013 H   0  0  0  0  0  0  0  0  0  0  0  0
   33.6114   27.7318   35.8794 H   0  0  0  0  0  0  0  0  0  0  0  0
   32.6506   29.3404   38.2838 H   0  0  0  0  0  0  0  0  0  0  0  0
   33.2668   30.0380   36.7475 H   0  0  0  0  0  0  0  0  0  0  0  0
   31.7658   29.0513   36.7475 H   0  0  0  0  0  0  0  0  0  0  0  0
  1  2  1  0
  1 10  1  0
  3  2  1  0
  4  5  1  0
  4  3  1  0
  5  1  1  0
  6  7  2  0
  8  7  1  0
  9  8  2  0
 10  9  1  0
 10 11  2  0
 11  6  1  0
 12  5  1  0
 13 12  2  0
 14 15  2  0
 14 13  1  0
 15 16  1  0
 16 12  1  0
 17 19  1  0
 17 15  1  0
 17 20  1  0
 18 17  1  0
 21 22  1  0
 21 14  1  0
  1 23  1  6
  2 24  1  0
  2 25  1  0
  3 26  1  0
  3 27  1  0
  4 28  1  0
  4 29  1  0
  5 30  1  1
  6 31  1  0
  7 32  1  0
  8 33  1  0
 13 34  1  0
 21 35  1  0
 21 36  1  0
 22 37  1  0
 22 38  1  0
 22 39  1  0
M  ISO  8  23  13  24  13  25  13  26  13  27  13  28  13  29  13  30  13
M  ISO  8  31  14  32  14  33  14  34  14  35   8  36   8  37   8  38   8
M  ISO  1  39   8
M  END
>  <minimizedAffinity>  (1) 
-4.85095119

>  <minimizedRMSD>  (1) 
0.818142533

$$$$
