
     RDKit          3D

 40 43  0  0  1  0  0  0  0  0999 V2000
   36.9820   31.2050   40.2440 C   0  0  1  0  0  0  0  0  0  0  0  0
   37.5520   32.4720   40.6970 C   0  0  0  0  0  0  0  0  0  0  0  0
   37.4680   33.3330   39.4470 C   0  0  0  0  0  0  0  0  0  0  0  0
   37.3820   32.3560   38.2840 C   0  0  0  0  0  0  0  0  0  0  0  0
   37.6930   31.0070   38.8930 C   0  0  2  0  0  0  0  0  0  0  0  0
   38.5870   29.1730   42.8840 C   0  0  0  0  0  0  0  0  0  0  0  0
   37.6500   28.0680   42.9970 C   0  0  0  0  0  0  0  0  0  0  0  0
   36.4990   28.0510   42.1520 C   0  0  0  0  0  0  0  0  0  0  0  0
   36.3020   29.0620   41.2620 N   0  0  0  0  0  0  0  0  0  0  0  0
   37.2110   30.0690   41.2000 C   0  0  0  0  0  0  0  0  0  0  0  0
   38.3330   30.1410   41.9830 N   0  0  0  0  0  0  0  0  0  0  0  0
   37.1610   29.9000   38.1170 C   0  0  0  0  0  0  0  0  0  0  0  0
   35.9400   29.4790   37.6040 C   0  0  0  0  0  0  0  0  0  0  0  0
   35.8600   28.3290   36.9160 C   0  0  0  0  0  0  0  0  0  0  0  0
   36.9980   27.5750   36.7270 C   0  0  0  0  0  0  0  0  0  0  0  0
   38.3050   28.5750   37.5980 S   0  0  0  0  0  0  0  0  0  0  0  0
   34.6260   27.8590   36.3710 N   0  0  0  0  0  0  0  0  0  0  0  0
   33.8080   26.9560   36.9370 C   0  0  0  0  0  0  0  0  0  0  0  0
   32.7200   26.7810   36.0810 C   0  0  0  0  0  0  0  0  0  0  0  0
   32.9030   27.5870   35.0080 N   0  0  0  0  0  0  0  0  0  0  0  0
   34.0640   28.2350   35.1980 C   0  0  0  0  0  0  0  0  0  0  0  0
   37.2150   26.3300   36.0400 C   0  0  0  0  0  0  0  0  0  0  0  0
   36.6100   26.2340   34.7900 F   0  0  0  0  0  0  0  0  0  0  0  0
   38.5540   26.1880   35.8980 F   0  0  0  0  0  0  0  0  0  0  0  0
   36.7310   25.3020   36.8620 F   0  0  0  0  0  0  0  0  0  0  0  0
   35.8847   31.2244   40.1689 H   0  0  0  0  0  0  0  0  0  0  0  0
   36.9606   32.9035   41.5180 H   0  0  0  0  0  0  0  0  0  0  0  0
   38.5721   32.3769   41.0975 H   0  0  0  0  0  0  0  0  0  0  0  0
   36.5727   33.9713   39.4796 H   0  0  0  0  0  0  0  0  0  0  0  0
   38.3361   34.0021   39.3539 H   0  0  0  0  0  0  0  0  0  0  0  0
   38.1189   32.6106   37.5080 H   0  0  0  0  0  0  0  0  0  0  0  0
   36.3964   32.3753   37.7958 H   0  0  0  0  0  0  0  0  0  0  0  0
   38.7585   30.7405   38.9540 H   0  0  0  0  0  0  0  0  0  0  0  0
   39.4834   29.2177   43.5200 H   0  0  0  0  0  0  0  0  0  0  0  0
   37.8244   27.2585   43.7211 H   0  0  0  0  0  0  0  0  0  0  0  0
   35.7754   27.2253   42.2199 H   0  0  0  0  0  0  0  0  0  0  0  0
   35.0381   30.0887   37.7618 H   0  0  0  0  0  0  0  0  0  0  0  0
   33.9669   26.4475   37.8994 H   0  0  0  0  0  0  0  0  0  0  0  0
   31.8658   26.1083   36.2479 H   0  0  0  0  0  0  0  0  0  0  0  0
   34.4966   28.9669   34.5000 H   0  0  0  0  0  0  0  0  0  0  0  0
  1  2  1  0
  1 10  1  0
  3  2  1  0
  4  5  1  0
  4  3  1  0
  5  1  1  0
  6  7  2  0
  8  7  1  0
  9  8  2  0
 10  9  1  0
 10 11  2  0
 11  6  1  0
 12  5  1  0
 13 12  2  0
 14 13  1  0
 15 14  2  0
 15 16  1  0
 16 12  1  0
 17 14  1  0
 17 18  1  0
 19 18  2  0
 20 21  2  0
 20 19  1  0
 21 17  1  0
 22 15  1  0
 22 25  1  0
 23 22  1  0
 24 22  1  0
  1 26  1  6
  2 27  1  0
  2 28  1  0
  3 29  1  0
  3 30  1  0
  4 31  1  0
  4 32  1  0
  5 33  1  1
  6 34  1  0
  7 35  1  0
  8 36  1  0
 13 37  1  0
 18 38  1  0
 19 39  1  0
 21 40  1  0
M  ISO  8  26  13  27  13  28  13  29  13  30  13  31  13  32  13  33  13
M  ISO  7  34  14  35  14  36  14  37  14  38  14  39  14  40  14
M  END
>  <minimizedAffinity>  (1) 
-4.82934809

>  <minimizedRMSD>  (1) 
1.77529359

$$$$
