
     RDKit          3D

 47 50  0  0  1  0  0  0  0  0999 V2000
   36.9770   31.2490   40.3320 C   0  0  1  0  0  0  0  0  0  0  0  0
   37.6240   32.4640   40.7790 C   0  0  0  0  0  0  0  0  0  0  0  0
   37.5480   33.3510   39.5430 C   0  0  0  0  0  0  0  0  0  0  0  0
   37.4000   32.4100   38.3610 C   0  0  0  0  0  0  0  0  0  0  0  0
   37.6200   31.0290   38.9290 C   0  0  2  0  0  0  0  0  0  0  0  0
   38.6130   29.0900   42.8650 C   0  0  0  0  0  0  0  0  0  0  0  0
   37.6630   28.0010   42.9580 C   0  0  0  0  0  0  0  0  0  0  0  0
   36.4860   28.0350   42.1340 C   0  0  0  0  0  0  0  0  0  0  0  0
   36.2670   29.0850   41.2750 N   0  0  0  0  0  0  0  0  0  0  0  0
   37.2040   30.0700   41.2450 C   0  0  0  0  0  0  0  0  0  0  0  0
   38.3550   30.1000   42.0070 N   0  0  0  0  0  0  0  0  0  0  0  0
   36.9720   29.9780   38.1720 C   0  0  0  0  0  0  0  0  0  0  0  0
   35.6990   29.6210   37.7870 C   0  0  0  0  0  0  0  0  0  0  0  0
   35.4570   28.5330   37.0460 C   0  0  0  0  0  0  0  0  0  0  0  0
   36.5370   27.7690   36.6770 C   0  0  0  0  0  0  0  0  0  0  0  0
   37.9590   28.6620   37.4320 S   0  0  0  0  0  0  0  0  0  0  0  0
   36.6510   26.5490   35.9050 C   0  0  0  0  0  0  0  0  0  0  0  0
   36.0490   26.5720   34.6640 F   0  0  0  0  0  0  0  0  0  0  0  0
   37.9630   26.2820   35.7450 F   0  0  0  0  0  0  0  0  0  0  0  0
   36.0640   25.5130   36.6700 F   0  0  0  0  0  0  0  0  0  0  0  0
   33.8210   28.0170   36.5340 S   0  0  0  0  0  0  0  0  0  0  0  0
   32.8440   29.4890   36.2420 C   0  0  0  0  0  0  0  0  0  0  0  0
   32.1530   29.4360   34.8670 C   0  0  0  0  0  0  0  0  0  0  0  0
   31.2610   30.6590   34.9840 C   0  0  0  0  0  0  0  0  0  0  0  0
   30.5760   30.3580   36.3110 C   0  0  0  0  0  0  0  0  0  0  0  0
   31.6220   29.6060   37.1240 C   0  0  0  0  0  0  0  0  0  0  0  0
   35.8808   31.3394   40.3166 H   0  0  0  0  0  0  0  0  0  0  0  0
   37.0840   32.9139   41.6251 H   0  0  0  0  0  0  0  0  0  0  0  0
   38.6498   32.3063   41.1435 H   0  0  0  0  0  0  0  0  0  0  0  0
   36.6795   34.0230   39.6076 H   0  0  0  0  0  0  0  0  0  0  0  0
   38.4429   33.9831   39.4451 H   0  0  0  0  0  0  0  0  0  0  0  0
   38.1526   32.6355   37.5911 H   0  0  0  0  0  0  0  0  0  0  0  0
   36.4162   32.5056   37.8783 H   0  0  0  0  0  0  0  0  0  0  0  0
   38.6650   30.6857   38.9280 H   0  0  0  0  0  0  0  0  0  0  0  0
   39.5250   29.0942   43.4800 H   0  0  0  0  0  0  0  0  0  0  0  0
   37.8392   27.1622   43.6475 H   0  0  0  0  0  0  0  0  0  0  0  0
   35.7553   27.2148   42.1913 H   0  0  0  0  0  0  0  0  0  0  0  0
   34.8529   30.2509   38.0988 H   0  0  0  0  0  0  0  0  0  0  0  0
   33.5788   30.2935   36.3932 H   0  0  0  0  0  0  0  0  0  0  0  0
   31.5684   28.5133   34.7374 H   0  0  0  0  0  0  0  0  0  0  0  0
   32.8330   29.4349   34.0023 H   0  0  0  0  0  0  0  0  0  0  0  0
   31.8466   31.5891   35.0282 H   0  0  0  0  0  0  0  0  0  0  0  0
   30.5794   30.8192   34.1356 H   0  0  0  0  0  0  0  0  0  0  0  0
   30.2867   31.2901   36.8185 H   0  0  0  0  0  0  0  0  0  0  0  0
   29.6525   29.7750   36.1799 H   0  0  0  0  0  0  0  0  0  0  0  0
   31.2492   28.6065   37.3922 H   0  0  0  0  0  0  0  0  0  0  0  0
   31.8549   30.1340   38.0605 H   0  0  0  0  0  0  0  0  0  0  0  0
  1  2  1  0
  1 10  1  0
  3  2  1  0
  4  5  1  0
  4  3  1  0
  5  1  1  0
  6  7  2  0
  8  7  1  0
  9  8  2  0
 10  9  1  0
 10 11  2  0
 11  6  1  0
 12  5  1  0
 13 12  2  0
 14 13  1  0
 15 14  2  0
 15 16  1  0
 16 12  1  0
 17 20  1  0
 17 15  1  0
 18 17  1  0
 19 17  1  0
 21 14  1  0
 22 21  1  0
 22 26  1  0
 23 24  1  0
 23 22  1  0
 24 25  1  0
 25 26  1  0
  1 27  1  6
  2 28  1  0
  2 29  1  0
  3 30  1  0
  3 31  1  0
  4 32  1  0
  4 33  1  0
  5 34  1  1
  6 35  1  0
  7 36  1  0
  8 37  1  0
 13 38  1  0
 22 39  1  0
 23 40  1  0
 23 41  1  0
 24 42  1  0
 24 43  1  0
 25 44  1  0
 25 45  1  0
 26 46  1  0
 26 47  1  0
M  ISO  8  27  13  28  13  29  13  30  13  31  13  32  13  33  13  34  13
M  ISO  8  35  14  36  14  37  14  38  14  39  13  40  13  41  13  42  13
M  ISO  5  43  13  44  13  45  13  46  13  47  13
M  END
>  <minimizedAffinity>  (1) 
-5.22022724

>  <minimizedRMSD>  (1) 
1.37005901

$$$$
