
     RDKit          3D

 25 27  0  0  0  0  0  0  0  0999 V2000
   37.9820   30.6120   40.9510 N   0  0  0  0  0  0  0  0  0  0  0  0
   36.6390   30.5990   40.8620 C   0  0  0  0  0  0  0  0  0  0  0  0
   36.1630   29.5970   41.6370 N   0  0  0  0  0  0  0  0  0  0  0  0
   37.2150   28.9760   42.2180 C   0  0  0  0  0  0  0  0  0  0  0  0
   37.2730   27.8960   43.0970 C   0  0  0  0  0  0  0  0  0  0  0  0
   36.2030   27.3330   43.4740 O   0  0  0  0  0  0  0  0  0  0  0  0
   38.4810   27.4510   43.5470 N   0  0  0  0  0  0  0  0  0  0  0  0
   39.5860   28.0880   43.1140 C   0  0  0  0  0  0  0  0  0  0  0  0
   40.8920   27.6950   43.5300 N   0  0  0  0  0  0  0  0  0  0  0  0
   39.5140   29.1320   42.2630 N   0  0  0  0  0  0  0  0  0  0  0  0
   38.3540   29.6200   41.7820 C   0  0  0  0  0  0  0  0  0  0  0  0
   38.9380   31.4750   40.3230 C   0  0  0  0  0  0  0  0  0  0  0  0
   39.9730   31.0840   39.4750 C   0  0  0  0  0  0  0  0  0  0  0  0
   40.8070   32.0650   38.9560 C   0  0  0  0  0  0  0  0  0  0  0  0
   40.5760   33.3620   39.2970 N   0  0  0  0  0  0  0  0  0  0  0  0
   39.5720   33.7180   40.1160 C   0  0  0  0  0  0  0  0  0  0  0  0
   38.7560   32.7750   40.6260 N   0  0  0  0  0  0  0  0  0  0  0  0
   39.3280   35.4430   40.5210 S   0  0  0  0  0  0  0  0  0  0  0  0
   36.0295   31.2884   40.2593 H   0  0  0  0  0  0  0  0  0  0  0  0
   38.5462   26.6542   44.1964 H   0  0  0  0  0  0  0  0  0  0  0  0
   41.7179   28.2021   43.1813 H   0  0  0  0  0  0  0  0  0  0  0  0
   41.0095   26.9040   44.1792 H   0  0  0  0  0  0  0  0  0  0  0  0
   40.1252   30.0241   39.2232 H   0  0  0  0  0  0  0  0  0  0  0  0
   41.6364   31.7997   38.2839 H   0  0  0  0  0  0  0  0  0  0  0  0
   39.3067   35.5938   41.8825 H   0  0  0  0  0  0  0  0  0  0  0  0
  1 11  1  0
  2  1  1  0
  2  3  2  0
  3  4  1  0
  4  5  1  0
  5  6  2  0
  5  7  1  0
  8  9  1  0
  8  7  1  0
 10  8  2  0
 11  4  2  0
 11 10  1  0
 12 17  1  0
 12  1  1  0
 13 12  2  0
 14 15  2  0
 14 13  1  0
 15 16  1  0
 16 18  1  0
 16 17  2  0
  2 19  1  0
  7 20  1  0
  9 21  1  0
  9 22  1  0
 13 23  1  0
 14 24  1  0
 18 25  1  0
M  ISO  5  19  14  20   9  23  14  24  14  25  11
M  END
>  <minimizedAffinity>  (1) 
-4.92062616

>  <minimizedRMSD>  (1) 
5.26457167

$$$$
