
     RDKit          3D

 20 20  0  0  0  0  0  0  0  0999 V2000
   37.1560   29.1310   42.3160 C   0  0  0  0  0  0  0  0  0  0  0  0
   36.1470   28.3980   41.6830 C   0  0  0  0  0  0  0  0  0  0  0  0
   35.5320   28.9220   40.5330 C   0  0  0  0  0  0  0  0  0  0  0  0
   35.9650   30.1430   40.0900 N   0  0  0  0  0  0  0  0  0  0  0  0
   36.9480   30.8280   40.7300 C   0  0  0  0  0  0  0  0  0  0  0  0
   37.5310   30.3210   41.8280 N   0  0  0  0  0  0  0  0  0  0  0  0
   37.8240   28.6010   43.5330 C   0  0  0  0  0  0  0  0  0  0  0  0
   38.7930   27.5010   43.0790 C   0  0  0  0  0  0  0  0  0  0  0  0
   36.8550   28.0520   44.5330 C   0  0  0  0  0  0  0  0  0  0  0  0
   37.4610   32.4250   40.0880 S   0  0  0  0  0  0  0  0  0  0  0  0
   35.8376   27.4205   42.0815 H   0  0  0  0  0  0  0  0  0  0  0  0
   34.7349   28.3733   40.0099 H   0  0  0  0  0  0  0  0  0  0  0  0
   38.3508   29.4237   44.0386 H   0  0  0  0  0  0  0  0  0  0  0  0
   39.2273   27.0080   43.9612 H   0  0  0  0  0  0  0  0  0  0  0  0
   38.2492   26.7596   42.4752 H   0  0  0  0  0  0  0  0  0  0  0  0
   39.5971   27.9470   42.4752 H   0  0  0  0  0  0  0  0  0  0  0  0
   37.2205   28.2591   45.5496 H   0  0  0  0  0  0  0  0  0  0  0  0
   35.8735   28.5282   44.3921 H   0  0  0  0  0  0  0  0  0  0  0  0
   36.7589   26.9653   44.3921 H   0  0  0  0  0  0  0  0  0  0  0  0
   37.7326   33.2706   41.1311 H   0  0  0  0  0  0  0  0  0  0  0  0
  1  7  1  0
  2  1  2  0
  3  2  1  0
  4  3  2  0
  4  5  1  0
  5  6  2  0
  6  1  1  0
  7  9  1  0
  8  7  1  0
 10  5  1  0
  2 11  1  0
  3 12  1  0
  7 13  1  0
  8 14  1  0
  8 15  1  0
  8 16  1  0
  9 17  1  0
  9 18  1  0
  9 19  1  0
 10 20  1  0
M  ISO  8  11  14  12  14  13   8  14   8  15   8  16   8  17   8  18   8
M  ISO  2  19   8  20  11
M  END
>  <minimizedAffinity>  (1) 
-3.78207374

>  <minimizedRMSD>  (1) 
2.71540499

$$$$
