
     RDKit          3D

 18 19  0  0  0  0  0  0  0  0999 V2000
   37.2460   30.3680   40.5310 C   0  0  0  0  0  0  0  0  0  0  0  0
   36.8140   30.1940   39.2160 C   0  0  0  0  0  0  0  0  0  0  0  0
   36.9910   31.2420   38.3240 C   0  0  0  0  0  0  0  0  0  0  0  0
   37.5770   32.3940   38.7640 N   0  0  0  0  0  0  0  0  0  0  0  0
   37.9840   32.5240   40.0480 C   0  0  0  0  0  0  0  0  0  0  0  0
   37.8190   31.5220   40.9180 N   0  0  0  0  0  0  0  0  0  0  0  0
   37.1450   29.3990   41.5870 N   0  0  0  0  0  0  0  0  0  0  0  0
   37.9200   29.4910   42.6820 C   0  0  0  0  0  0  0  0  0  0  0  0
   37.5680   28.4130   43.4790 C   0  0  0  0  0  0  0  0  0  0  0  0
   36.6060   27.7130   42.8500 N   0  0  0  0  0  0  0  0  0  0  0  0
   36.3300   28.3080   41.6740 C   0  0  0  0  0  0  0  0  0  0  0  0
   38.7440   34.0620   40.5610 S   0  0  0  0  0  0  0  0  0  0  0  0
   36.3459   29.2518   38.8950 H   0  0  0  0  0  0  0  0  0  0  0  0
   36.6641   31.1461   37.2781 H   0  0  0  0  0  0  0  0  0  0  0  0
   38.6752   30.2606   42.8997 H   0  0  0  0  0  0  0  0  0  0  0  0
   38.0019   28.1705   44.4603 H   0  0  0  0  0  0  0  0  0  0  0  0
   35.5913   27.9787   40.9285 H   0  0  0  0  0  0  0  0  0  0  0  0
   38.7739   34.1225   41.9293 H   0  0  0  0  0  0  0  0  0  0  0  0
  1  6  1  0
  1  7  1  0
  2  1  2  0
  3  4  2  0
  3  2  1  0
  4  5  1  0
  5 12  1  0
  5  6  2  0
  7 11  1  0
  7  8  1  0
  8  9  2  0
 10  9  1  0
 11 10  2  0
  2 13  1  0
  3 14  1  0
  8 15  1  0
  9 16  1  0
 11 17  1  0
 12 18  1  0
M  ISO  6  13  14  14  14  15  14  16  14  17  14  18  11
M  END
>  <minimizedAffinity>  (1) 
-3.6168046

>  <minimizedRMSD>  (1) 
4.50192404

$$$$
