
     RDKit          3D

 14 14  0  0  0  0  0  0  0  0999 V2000
   38.4330   29.6790   42.4960 C   0  0  0  0  0  0  0  0  0  0  0  0
   38.4020   28.5790   43.3560 C   0  0  0  0  0  0  0  0  0  0  0  0
   37.3640   27.6650   43.2460 C   0  0  0  0  0  0  0  0  0  0  0  0
   36.4030   27.8820   42.2860 N   0  0  0  0  0  0  0  0  0  0  0  0
   36.4700   28.9560   41.4740 C   0  0  0  0  0  0  0  0  0  0  0  0
   37.4740   29.8450   41.5780 N   0  0  0  0  0  0  0  0  0  0  0  0
   35.1990   29.2040   40.2360 S   0  0  0  0  0  0  0  0  0  0  0  0
   39.5730   30.6230   42.6670 C   0  0  0  0  0  0  0  0  0  0  0  0
   39.1901   28.4391   44.1105 H   0  0  0  0  0  0  0  0  0  0  0  0
   37.3109   26.7892   43.9095 H   0  0  0  0  0  0  0  0  0  0  0  0
   33.9990   29.4382   40.8541 H   0  0  0  0  0  0  0  0  0  0  0  0
   39.7619   30.7794   43.7393 H   0  0  0  0  0  0  0  0  0  0  0  0
   40.4722   30.2015   42.1940 H   0  0  0  0  0  0  0  0  0  0  0  0
   39.3266   31.5850   42.1940 H   0  0  0  0  0  0  0  0  0  0  0  0
  1  8  1  0
  1  2  2  0
  3  2  1  0
  4  3  2  0
  5  6  2  0
  5  4  1  0
  6  1  1  0
  7  5  1  0
  2  9  1  0
  3 10  1  0
  7 11  1  0
  8 12  1  0
  8 13  1  0
  8 14  1  0
M  ISO  6   9  14  10  14  11  11  12   8  13   8  14   8
M  END
>  <minimizedAffinity>  (1) 
-2.87566423

>  <minimizedRMSD>  (1) 
1.06794047

$$$$
