
     RDKit          3D

 13 13  0  0  0  0  0  0  0  0999 V2000
   38.3870   29.6100   42.6030 C   0  0  0  0  0  0  0  0  0  0  0  0
   38.3160   28.4780   43.4180 C   0  0  0  0  0  0  0  0  0  0  0  0
   37.2780   27.5730   43.2440 C   0  0  0  0  0  0  0  0  0  0  0  0
   36.3580   27.8490   42.2560 N   0  0  0  0  0  0  0  0  0  0  0  0
   36.4470   28.9430   41.4850 C   0  0  0  0  0  0  0  0  0  0  0  0
   37.4480   29.8280   41.6450 N   0  0  0  0  0  0  0  0  0  0  0  0
   39.4280   30.5730   42.7350 N   0  0  0  0  0  0  0  0  0  0  0  0
   35.2130   29.2340   40.2220 S   0  0  0  0  0  0  0  0  0  0  0  0
   39.0776   28.3048   44.1926 H   0  0  0  0  0  0  0  0  0  0  0  0
   37.1933   26.6721   43.8694 H   0  0  0  0  0  0  0  0  0  0  0  0
   39.4493   31.3964   42.1166 H   0  0  0  0  0  0  0  0  0  0  0  0
   40.1596   30.4460   43.4489 H   0  0  0  0  0  0  0  0  0  0  0  0
   34.0109   29.5175   40.8148 H   0  0  0  0  0  0  0  0  0  0  0  0
  1  7  1  0
  1  2  2  0
  3  2  1  0
  4  3  2  0
  5  6  2  0
  5  4  1  0
  6  1  1  0
  8  5  1  0
  2  9  1  0
  3 10  1  0
  7 11  1  0
  7 12  1  0
  8 13  1  0
M  ISO  3   9  14  10  14  13  11
M  END
>  <minimizedAffinity>  (1) 
-2.79149389

>  <minimizedRMSD>  (1) 
0.971370041

$$$$
