
     RDKit          3D

 14 14  0  0  0  0  0  0  0  0999 V2000
   37.0120   29.2270   42.1620 C   0  0  0  0  0  0  0  0  0  0  0  0
   36.0460   28.4910   41.4760 C   0  0  0  0  0  0  0  0  0  0  0  0
   35.5090   29.0300   40.3030 C   0  0  0  0  0  0  0  0  0  0  0  0
   35.9620   30.2530   39.8900 N   0  0  0  0  0  0  0  0  0  0  0  0
   36.8950   30.9310   40.5800 C   0  0  0  0  0  0  0  0  0  0  0  0
   37.4200   30.4210   41.7130 N   0  0  0  0  0  0  0  0  0  0  0  0
   37.4510   32.5260   39.9950 S   0  0  0  0  0  0  0  0  0  0  0  0
   37.5740   28.6680   43.3870 C   0  0  0  0  0  0  0  0  0  0  0  0
   38.6990   28.1270   43.4020 O   0  0  0  0  0  0  0  0  0  0  0  0
   36.8710   28.7250   44.5720 O   0  0  0  0  0  0  0  0  0  0  0  0
   35.7148   27.5105   41.8487 H   0  0  0  0  0  0  0  0  0  0  0  0
   34.7443   28.4864   39.7288 H   0  0  0  0  0  0  0  0  0  0  0  0
   37.7322   33.3326   41.0661 H   0  0  0  0  0  0  0  0  0  0  0  0
   37.2610   28.3428   45.3978 H   0  0  0  0  0  0  0  0  0  0  0  0
  1  8  1  0
  2  1  2  0
  3  2  1  0
  4  3  2  0
  4  5  1  0
  5  6  2  0
  6  1  1  0
  7  5  1  0
  8  9  2  0
  8 10  1  0
  2 11  1  0
  3 12  1  0
  7 13  1  0
 10 14  1  0
M  ISO  4  11  14  12  14  13  11  14   3
M  END
>  <minimizedAffinity>  (1) 
-3.66718602

>  <minimizedRMSD>  (1) 
2.62501144

$$$$
