
     RDKit          3D

 21 22  0  0  0  0  0  0  0  0999 V2000
   36.2220   30.0030   39.1440 C   0  0  0  0  0  0  0  0  0  0  0  0
   36.5710   29.7540   37.8080 C   0  0  0  0  0  0  0  0  0  0  0  0
   37.3160   30.7080   37.1190 C   0  0  0  0  0  0  0  0  0  0  0  0
   37.6680   31.8390   37.7830 N   0  0  0  0  0  0  0  0  0  0  0  0
   37.3210   32.0610   39.0700 C   0  0  0  0  0  0  0  0  0  0  0  0
   36.6000   31.1340   39.7330 N   0  0  0  0  0  0  0  0  0  0  0  0
   37.8100   33.5630   39.9020 S   0  0  0  0  0  0  0  0  0  0  0  0
   35.4420   29.0020   39.8580 C   0  0  0  0  0  0  0  0  0  0  0  0
   34.2410   29.1600   40.1100 O   0  0  0  0  0  0  0  0  0  0  0  0
   36.0490   27.8280   40.2790 O   0  0  0  0  0  0  0  0  0  0  0  0
   36.9080   27.8190   41.3790 C   0  0  0  0  0  0  0  0  0  0  0  0
   36.5110   27.7130   42.7070 C   0  0  0  0  0  0  0  0  0  0  0  0
   37.4710   27.7190   43.6800 C   0  0  0  0  0  0  0  0  0  0  0  0
   38.8280   27.8320   43.3020 C   0  0  0  0  0  0  0  0  0  0  0  0
   38.6740   27.9350   41.4080 S   0  0  0  0  0  0  0  0  0  0  0  0
   36.2616   28.8215   37.3133 H   0  0  0  0  0  0  0  0  0  0  0  0
   37.6098   30.5504   36.0707 H   0  0  0  0  0  0  0  0  0  0  0  0
   37.7487   33.3748   41.2576 H   0  0  0  0  0  0  0  0  0  0  0  0
   35.4463   27.6261   42.9694 H   0  0  0  0  0  0  0  0  0  0  0  0
   37.1916   27.6371   44.7408 H   0  0  0  0  0  0  0  0  0  0  0  0
   39.7294   27.8544   43.9321 H   0  0  0  0  0  0  0  0  0  0  0  0
  1  6  1  0
  1  8  1  0
  2  1  2  0
  3  4  2  0
  3  2  1  0
  4  5  1  0
  5  6  2  0
  5  7  1  0
  8  9  2  0
  8 10  1  0
 10 11  1  0
 11 15  1  0
 11 12  2  0
 12 13  1  0
 14 13  2  0
 15 14  1  0
  2 16  1  0
  3 17  1  0
  7 18  1  0
 12 19  1  0
 13 20  1  0
 14 21  1  0
M  ISO  6  16  14  17  14  18  11  19  14  20  14  21  14
M  END
>  <minimizedAffinity>  (1) 
-4.17118502

>  <minimizedRMSD>  (1) 
4.0284605

$$$$
