
     RDKit          3D

 29 30  0  0  0  0  0  0  0  0999 V2000
   37.3260   27.6330   38.8850 C   0  0  0  0  0  0  0  0  0  0  0  0
   35.9770   27.3560   38.7230 C   0  0  0  0  0  0  0  0  0  0  0  0
   35.1520   28.3370   38.1720 C   0  0  0  0  0  0  0  0  0  0  0  0
   35.7240   29.5310   37.8170 N   0  0  0  0  0  0  0  0  0  0  0  0
   37.0280   29.7570   37.9900 C   0  0  0  0  0  0  0  0  0  0  0  0
   37.8520   28.8200   38.5240 N   0  0  0  0  0  0  0  0  0  0  0  0
   37.7320   31.3330   37.5120 S   0  0  0  0  0  0  0  0  0  0  0  0
   38.1920   26.6020   39.4650 C   0  0  0  0  0  0  0  0  0  0  0  0
   38.5920   25.6340   38.7720 O   0  0  0  0  0  0  0  0  0  0  0  0
   38.5760   26.6870   40.7770 O   0  0  0  0  0  0  0  0  0  0  0  0
   37.1040   28.5900   44.1800 N   0  0  0  0  0  0  0  0  0  0  0  0
   36.3550   27.5250   43.5900 C   0  0  0  0  0  0  0  0  0  0  0  0
   37.2270   26.5680   42.7960 C   0  0  0  0  0  0  0  0  0  0  0  0
   37.9240   27.4150   41.7670 C   0  0  0  0  0  0  0  0  0  0  0  0
   38.8650   28.3300   42.5390 C   0  0  0  0  0  0  0  0  0  0  0  0
   37.9770   29.2980   43.3020 C   0  0  0  0  0  0  0  0  0  0  0  0
   35.5651   26.3812   39.0232 H   0  0  0  0  0  0  0  0  0  0  0  0
   34.0764   28.1579   38.0270 H   0  0  0  0  0  0  0  0  0  0  0  0
   38.0521   32.0496   38.6349 H   0  0  0  0  0  0  0  0  0  0  0  0
   36.4344   29.2669   44.5729 H   0  0  0  0  0  0  0  0  0  0  0  0
   35.8524   26.9622   44.3904 H   0  0  0  0  0  0  0  0  0  0  0  0
   35.6313   27.9728   42.8930 H   0  0  0  0  0  0  0  0  0  0  0  0
   37.9617   26.0817   43.4546 H   0  0  0  0  0  0  0  0  0  0  0  0
   36.6334   25.7677   42.3301 H   0  0  0  0  0  0  0  0  0  0  0  0
   37.1822   27.9930   41.1963 H   0  0  0  0  0  0  0  0  0  0  0  0
   39.4799   27.7438   43.2377 H   0  0  0  0  0  0  0  0  0  0  0  0
   39.5531   28.8610   41.8648 H   0  0  0  0  0  0  0  0  0  0  0  0
   38.6076   29.9800   43.8912 H   0  0  0  0  0  0  0  0  0  0  0  0
   37.3714   29.8679   42.5819 H   0  0  0  0  0  0  0  0  0  0  0  0
  1  8  1  0
  2  1  2  0
  3  2  1  0
  4  5  1  0
  4  3  2  0
  5  6  2  0
  6  1  1  0
  7  5  1  0
  8 10  1  0
  9  8  2  0
 10 14  1  0
 12 11  1  0
 13 12  1  0
 14 15  1  0
 14 13  1  0
 15 16  1  0
 16 11  1  0
  2 17  1  0
  3 18  1  0
  7 19  1  0
 11 20  1  0
 12 21  1  0
 12 22  1  0
 13 23  1  0
 13 24  1  0
 14 25  1  0
 15 26  1  0
 15 27  1  0
 16 28  1  0
 16 29  1  0
M  ISO  8  17  14  18  14  19  11  20   5  21  13  22  13  23  13  24  13
M  ISO  5  25  13  26  13  27  13  28  13  29  13
M  END
>  <minimizedAffinity>  (1) 
-3.90389466

>  <minimizedRMSD>  (1) 
3.92734027

$$$$
