
     RDKit          3D

 17 17  0  0  0  0  0  0  0  0999 V2000
   36.9300   29.3910   41.7920 C   0  0  0  0  0  0  0  0  0  0  0  0
   35.8920   28.6780   41.2120 C   0  0  0  0  0  0  0  0  0  0  0  0
   35.2620   29.1840   40.0830 C   0  0  0  0  0  0  0  0  0  0  0  0
   35.7040   30.3730   39.5950 N   0  0  0  0  0  0  0  0  0  0  0  0
   36.7190   31.0530   40.1760 C   0  0  0  0  0  0  0  0  0  0  0  0
   37.3230   30.5540   41.2700 N   0  0  0  0  0  0  0  0  0  0  0  0
   37.2730   32.6160   39.5000 S   0  0  0  0  0  0  0  0  0  0  0  0
   37.5850   28.8490   42.9860 C   0  0  0  0  0  0  0  0  0  0  0  0
   38.7080   29.2330   43.3370 O   0  0  0  0  0  0  0  0  0  0  0  0
   36.9360   27.8820   43.7410 O   0  0  0  0  0  0  0  0  0  0  0  0
   36.5460   28.1310   45.0780 C   0  0  0  0  0  0  0  0  0  0  0  0
   35.5700   27.7186   41.6431 H   0  0  0  0  0  0  0  0  0  0  0  0
   34.4350   28.6422   39.6009 H   0  0  0  0  0  0  0  0  0  0  0  0
   37.5772   33.4741   40.5237 H   0  0  0  0  0  0  0  0  0  0  0  0
   37.2710   27.6681   45.7637 H   0  0  0  0  0  0  0  0  0  0  0  0
   36.5152   29.2162   45.2549 H   0  0  0  0  0  0  0  0  0  0  0  0
   35.5486   27.7022   45.2549 H   0  0  0  0  0  0  0  0  0  0  0  0
  1  8  1  0
  2  1  2  0
  3  2  1  0
  4  3  2  0
  4  5  1  0
  5  6  2  0
  6  1  1  0
  7  5  1  0
  8  9  2  0
  8 10  1  0
 10 11  1  0
  2 12  1  0
  3 13  1  0
  7 14  1  0
 11 15  1  0
 11 16  1  0
 11 17  1  0
M  ISO  6  12  14  13  14  14  11  15   8  16   8  17   8
M  END
>  <minimizedAffinity>  (1) 
-3.30623603

>  <minimizedRMSD>  (1) 
0.695760906

$$$$
