
     RDKit          3D

 26 26  0  0  0  0  0  0  0  0999 V2000
   37.2550   29.2510   40.7750 C   0  0  0  0  0  0  0  0  0  0  0  0
   38.3340   30.1310   40.8670 C   0  0  0  0  0  0  0  0  0  0  0  0
   38.9450   30.3140   42.1120 C   0  0  0  0  0  0  0  0  0  0  0  0
   38.4520   29.6230   43.1700 N   0  0  0  0  0  0  0  0  0  0  0  0
   37.4120   28.7840   43.0450 C   0  0  0  0  0  0  0  0  0  0  0  0
   36.8030   28.5890   41.8520 N   0  0  0  0  0  0  0  0  0  0  0  0
   36.7990   27.8860   44.4750 S   0  0  0  0  0  0  0  0  0  0  0  0
   36.6170   29.0610   39.4690 C   0  0  0  0  0  0  0  0  0  0  0  0
   36.1930   27.9530   39.1140 O   0  0  0  0  0  0  0  0  0  0  0  0
   36.4780   30.1270   38.6110 O   0  0  0  0  0  0  0  0  0  0  0  0
   37.2120   30.1700   37.4020 C   0  0  0  0  0  0  0  0  0  0  0  0
   36.3480   29.7160   36.2400 C   0  0  0  0  0  0  0  0  0  0  0  0
   38.4000   29.2330   37.4450 C   0  0  0  0  0  0  0  0  0  0  0  0
   37.7330   31.5390   37.1060 C   0  0  0  0  0  0  0  0  0  0  0  0
   38.6966   30.6696   39.9790 H   0  0  0  0  0  0  0  0  0  0  0  0
   39.7990   30.9973   42.2294 H   0  0  0  0  0  0  0  0  0  0  0  0
   37.2229   28.5069   45.6203 H   0  0  0  0  0  0  0  0  0  0  0  0
   35.4363   29.2369   36.6263 H   0  0  0  0  0  0  0  0  0  0  0  0
   36.0730   30.5861   35.6257 H   0  0  0  0  0  0  0  0  0  0  0  0
   36.9085   28.9959   35.6257 H   0  0  0  0  0  0  0  0  0  0  0  0
   38.6646   29.0243   38.4921 H   0  0  0  0  0  0  0  0  0  0  0  0
   38.1431   28.2917   36.9371 H   0  0  0  0  0  0  0  0  0  0  0  0
   39.2556   29.7021   36.9371 H   0  0  0  0  0  0  0  0  0  0  0  0
   37.9339   32.0669   38.0499 H   0  0  0  0  0  0  0  0  0  0  0  0
   38.6637   31.4595   36.5251 H   0  0  0  0  0  0  0  0  0  0  0  0
   36.9849   32.0984   36.5251 H   0  0  0  0  0  0  0  0  0  0  0  0
  1  2  2  0
  1  6  1  0
  2  3  1  0
  3  4  2  0
  5  4  1  0
  5  7  1  0
  6  5  2  0
  8  1  1  0
  9  8  2  0
 10  8  1  0
 11 13  1  0
 11 10  1  0
 12 11  1  0
 14 11  1  0
  2 15  1  0
  3 16  1  0
  7 17  1  0
 12 18  1  0
 12 19  1  0
 12 20  1  0
 13 21  1  0
 13 22  1  0
 13 23  1  0
 14 24  1  0
 14 25  1  0
 14 26  1  0
M  ISO  8  15  14  16  14  17  11  18   8  19   8  20   8  21   8  22   8
M  ISO  4  23   8  24   8  25   8  26   8
M  END
>  <minimizedAffinity>  (1) 
-3.21357656

>  <minimizedRMSD>  (1) 
6.21646595

$$$$
