
     RDKit          3D

 36 38  0  0  1  0  0  0  0  0999 V2000
   38.2490   29.5190   40.4270 N   0  0  0  0  0  0  0  0  0  0  0  0
   37.8080   29.7500   39.0640 C   0  0  0  0  0  0  0  0  0  0  0  0
   37.6560   31.2830   38.9860 C   0  0  0  0  0  0  0  0  0  0  0  0
   36.5090   31.6300   39.7470 N   0  0  0  0  0  0  0  0  0  0  0  0
   36.4200   31.0530   41.0410 C   0  0  0  0  0  0  0  0  0  0  0  0
   37.4920   30.1280   41.4600 C   0  0  1  0  0  0  0  0  0  0  0  0
   39.3750   28.7440   40.7840 C   0  0  0  0  0  0  0  0  0  0  0  0
   39.4810   27.3860   40.5210 C   0  0  0  0  0  0  0  0  0  0  0  0
   40.6040   26.6780   40.8990 C   0  0  0  0  0  0  0  0  0  0  0  0
   41.5850   27.3920   41.5380 N   0  0  0  0  0  0  0  0  0  0  0  0
   41.4680   28.6990   41.7840 C   0  0  0  0  0  0  0  0  0  0  0  0
   40.3730   29.3820   41.4130 N   0  0  0  0  0  0  0  0  0  0  0  0
   37.0480   29.2620   42.5170 N   0  0  0  0  0  0  0  0  0  0  0  0
   38.0350   28.8560   43.4770 C   0  0  0  0  0  0  0  0  0  0  0  0
   37.1010   28.0540   44.4060 C   0  0  0  0  0  0  0  0  0  0  0  0
   36.3080   27.2840   43.3390 C   0  0  0  0  0  0  0  0  0  0  0  0
   36.6560   27.9680   42.0090 C   0  0  0  0  0  0  0  0  0  0  0  0
   38.5578   29.3926   38.3428 H   0  0  0  0  0  0  0  0  0  0  0  0
   36.8781   29.2156   38.8196 H   0  0  0  0  0  0  0  0  0  0  0  0
   38.5481   31.7720   39.4044 H   0  0  0  0  0  0  0  0  0  0  0  0
   37.5464   31.6121   37.9421 H   0  0  0  0  0  0  0  0  0  0  0  0
   36.5029   32.6540   39.8580 H   0  0  0  0  0  0  0  0  0  0  0  0
   36.3976   31.8789   41.7672 H   0  0  0  0  0  0  0  0  0  0  0  0
   35.5156   30.4281   41.0029 H   0  0  0  0  0  0  0  0  0  0  0  0
   38.2778   30.7641   41.8935 H   0  0  0  0  0  0  0  0  0  0  0  0
   38.6599   26.8670   40.0048 H   0  0  0  0  0  0  0  0  0  0  0  0
   40.7063   25.6012   40.6988 H   0  0  0  0  0  0  0  0  0  0  0  0
   42.2838   29.2262   42.3002 H   0  0  0  0  0  0  0  0  0  0  0  0
   38.8196   28.2280   43.0298 H   0  0  0  0  0  0  0  0  0  0  0  0
   38.6142   29.6631   43.9494 H   0  0  0  0  0  0  0  0  0  0  0  0
   37.6601   27.3798   45.0714 H   0  0  0  0  0  0  0  0  0  0  0  0
   36.4980   28.6533   45.1040 H   0  0  0  0  0  0  0  0  0  0  0  0
   36.6117   26.2269   43.3204 H   0  0  0  0  0  0  0  0  0  0  0  0
   35.2265   27.2992   43.5391 H   0  0  0  0  0  0  0  0  0  0  0  0
   35.7861   28.0340   41.3390 H   0  0  0  0  0  0  0  0  0  0  0  0
   37.4090   27.4528   41.3946 H   0  0  0  0  0  0  0  0  0  0  0  0
  1  7  1  0
  1  6  1  0
  2  1  1  0
  3  2  1  0
  3  4  1  0
  4  5  1  0
  5  6  1  0
  6 13  1  0
  7 12  1  0
  8  7  2  0
  8  9  1  0
  9 10  2  0
 10 11  1  0
 12 11  2  0
 13 14  1  0
 14 15  1  0
 16 15  1  0
 17 13  1  0
 17 16  1  0
  2 18  1  0
  2 19  1  0
  3 20  1  0
  3 21  1  0
  4 22  1  0
  5 23  1  0
  5 24  1  0
  6 25  1  1
  8 26  1  0
  9 27  1  0
 11 28  1  0
 14 29  1  0
 14 30  1  0
 15 31  1  0
 15 32  1  0
 16 33  1  0
 16 34  1  0
 17 35  1  0
 17 36  1  0
M  ISO  8  18  13  19  13  20  13  21  13  22   5  23  13  24  13  25  13
M  ISO  8  26  14  27  14  28  14  29  13  30  13  31  13  32  13  33  13
M  ISO  3  34  13  35  13  36  13
M  END
>  <minimizedAffinity>  (1) 
-4.39709949

>  <minimizedRMSD>  (1) 
4.38534451

$$$$
