
     RDKit          3D

 42 44  0  0  1  0  0  0  0  0999 V2000
   37.2660   30.9290   40.8660 N   0  0  0  0  0  0  0  0  0  0  0  0
   37.3370   32.2490   40.3350 C   0  0  0  0  0  0  0  0  0  0  0  0
   38.4390   32.4060   39.2740 C   0  0  0  0  0  0  0  0  0  0  0  0
   39.7050   31.9580   40.0160 C   0  0  1  0  0  0  0  0  0  0  0  0
   39.5590   30.4650   40.2260 C   0  0  0  0  0  0  0  0  0  0  0  0
   38.4980   30.3470   41.3160 C   0  0  2  0  0  0  0  0  0  0  0  0
   38.3590   29.0580   41.8560 N   0  0  0  0  0  0  0  0  0  0  0  0
   39.4850   28.6670   42.6820 C   0  0  0  0  0  0  0  0  0  0  0  0
   39.2150   27.3580   43.3910 C   0  0  0  0  0  0  0  0  0  0  0  0
   38.0470   27.3730   44.1180 O   0  0  0  0  0  0  0  0  0  0  0  0
   36.9450   27.7110   43.3390 C   0  0  0  0  0  0  0  0  0  0  0  0
   37.1980   29.0530   42.7270 C   0  0  0  0  0  0  0  0  0  0  0  0
   40.8090   32.2980   39.3220 O   0  0  0  0  0  0  0  0  0  0  0  0
   41.2330   33.5310   38.8810 C   0  0  0  0  0  0  0  0  0  0  0  0
   41.4860   33.6860   37.6880 O   0  0  0  0  0  0  0  0  0  0  0  0
   41.3710   34.6320   39.8510 C   0  0  0  0  0  0  0  0  0  0  0  0
   40.3490   35.5400   39.8790 C   0  0  0  0  0  0  0  0  0  0  0  0
   40.4000   36.5520   40.8650 C   0  0  0  0  0  0  0  0  0  0  0  0
   41.4730   36.5520   41.7270 N   0  0  0  0  0  0  0  0  0  0  0  0
   42.4410   35.6210   41.6370 C   0  0  0  0  0  0  0  0  0  0  0  0
   42.4030   34.6310   40.6830 N   0  0  0  0  0  0  0  0  0  0  0  0
   43.8100   35.6750   42.7770 S   0  0  0  0  0  0  0  0  0  0  0  0
   36.8822   30.3175   40.1313 H   0  0  0  0  0  0  0  0  0  0  0  0
   36.3686   32.4954   39.8751 H   0  0  0  0  0  0  0  0  0  0  0  0
   37.5784   32.9278   41.1662 H   0  0  0  0  0  0  0  0  0  0  0  0
   38.5238   33.4522   38.9450 H   0  0  0  0  0  0  0  0  0  0  0  0
   38.2451   31.8243   38.3608 H   0  0  0  0  0  0  0  0  0  0  0  0
   39.8208   32.4575   40.9892 H   0  0  0  0  0  0  0  0  0  0  0  0
   39.2261   29.9709   39.3013 H   0  0  0  0  0  0  0  0  0  0  0  0
   40.5073   29.9821   40.5045 H   0  0  0  0  0  0  0  0  0  0  0  0
   38.8497   30.9306   42.1796 H   0  0  0  0  0  0  0  0  0  0  0  0
   40.3747   28.5533   42.0452 H   0  0  0  0  0  0  0  0  0  0  0  0
   39.6480   29.4468   43.4405 H   0  0  0  0  0  0  0  0  0  0  0  0
   39.1496   26.5584   42.6384 H   0  0  0  0  0  0  0  0  0  0  0  0
   40.0410   27.1892   44.0975 H   0  0  0  0  0  0  0  0  0  0  0  0
   36.8051   26.9609   42.5466 H   0  0  0  0  0  0  0  0  0  0  0  0
   36.0369   27.7416   43.9589 H   0  0  0  0  0  0  0  0  0  0  0  0
   37.3592   29.7835   43.5335 H   0  0  0  0  0  0  0  0  0  0  0  0
   36.3210   29.3116   42.1155 H   0  0  0  0  0  0  0  0  0  0  0  0
   39.5177   35.4851   39.1608 H   0  0  0  0  0  0  0  0  0  0  0  0
   39.6094   37.3131   40.9406 H   0  0  0  0  0  0  0  0  0  0  0  0
   43.3352   35.6563   44.0620 H   0  0  0  0  0  0  0  0  0  0  0  0
  1  6  1  0
  2  1  1  0
  3  4  1  0
  3  2  1  0
  4  5  1  0
  5  6  1  0
  6  7  1  0
  7  8  1  0
  7 12  1  0
  8  9  1  0
  9 10  1  0
 11 10  1  0
 12 11  1  0
 13  4  1  0
 14 13  1  0
 14 16  1  0
 15 14  2  0
 16 17  2  0
 16 21  1  0
 17 18  1  0
 18 19  2  0
 20 19  1  0
 20 22  1  0
 21 20  2  0
  1 23  1  0
  2 24  1  0
  2 25  1  0
  3 26  1  0
  3 27  1  0
  4 28  1  1
  5 29  1  0
  5 30  1  0
  6 31  1  1
  8 32  1  0
  8 33  1  0
  9 34  1  0
  9 35  1  0
 11 36  1  0
 11 37  1  0
 12 38  1  0
 12 39  1  0
 17 40  1  0
 18 41  1  0
 22 42  1  0
M  ISO  8  23   5  24  13  25  13  26  13  27  13  28  13  29  13  30  13
M  ISO  8  31  13  32  13  33  13  34  13  35  13  36  13  37  13  38  13
M  ISO  4  39  13  40  14  41  14  42  11
M  END
>  <minimizedAffinity>  (1) 
-5.49672985

>  <minimizedRMSD>  (1) 
6.69216537

$$$$
