
     RDKit          3D

 36 38  0  0  1  0  0  0  0  0999 V2000
   37.6000   28.5080   39.6110 N   0  0  0  0  0  0  0  0  0  0  0  0
   37.8340   28.9690   38.2790 C   0  0  0  0  0  0  0  0  0  0  0  0
   38.8300   30.1370   38.2270 C   0  0  0  0  0  0  0  0  0  0  0  0
   38.1930   31.1860   39.1460 C   0  0  1  0  0  0  0  0  0  0  0  0
   38.3140   30.6350   40.5520 C   0  0  0  0  0  0  0  0  0  0  0  0
   37.3050   29.4930   40.6050 C   0  0  2  0  0  0  0  0  0  0  0  0
   37.2340   28.8870   41.8890 N   0  0  0  0  0  0  0  0  0  0  0  0
   37.7630   29.2200   43.0330 N   0  0  0  0  0  0  0  0  0  0  0  0
   37.4110   28.3270   43.9940 C   0  0  0  0  0  0  0  0  0  0  0  0
   36.6070   27.3810   43.3820 C   0  0  0  0  0  0  0  0  0  0  0  0
   36.5010   27.7460   42.0490 C   0  0  0  0  0  0  0  0  0  0  0  0
   38.7870   32.3840   38.9890 O   0  0  0  0  0  0  0  0  0  0  0  0
   38.5200   33.5920   39.5870 C   0  0  0  0  0  0  0  0  0  0  0  0
   37.3490   33.9490   39.7050 O   0  0  0  0  0  0  0  0  0  0  0  0
   39.6380   34.4210   40.0680 C   0  0  0  0  0  0  0  0  0  0  0  0
   39.3460   35.7290   40.3350 C   0  0  0  0  0  0  0  0  0  0  0  0
   40.3730   36.5280   40.8880 C   0  0  0  0  0  0  0  0  0  0  0  0
   41.5940   35.9330   41.1200 N   0  0  0  0  0  0  0  0  0  0  0  0
   41.8020   34.6360   40.8310 C   0  0  0  0  0  0  0  0  0  0  0  0
   40.8130   33.8460   40.2920 N   0  0  0  0  0  0  0  0  0  0  0  0
   43.4060   33.9240   41.1510 S   0  0  0  0  0  0  0  0  0  0  0  0
   38.4446   28.0038   39.9165 H   0  0  0  0  0  0  0  0  0  0  0  0
   38.2356   28.1362   37.6830 H   0  0  0  0  0  0  0  0  0  0  0  0
   36.8755   29.3291   37.8768 H   0  0  0  0  0  0  0  0  0  0  0  0
   39.8168   29.8303   38.6040 H   0  0  0  0  0  0  0  0  0  0  0  0
   39.0045   30.5084   37.2064 H   0  0  0  0  0  0  0  0  0  0  0  0
   37.1344   31.3647   38.9063 H   0  0  0  0  0  0  0  0  0  0  0  0
   39.3324   30.2625   40.7369 H   0  0  0  0  0  0  0  0  0  0  0  0
   38.1194   31.3998   41.3183 H   0  0  0  0  0  0  0  0  0  0  0  0
   36.3192   29.9341   40.3960 H   0  0  0  0  0  0  0  0  0  0  0  0
   37.7074   28.3509   45.0531 H   0  0  0  0  0  0  0  0  0  0  0  0
   36.1415   26.5072   43.8615 H   0  0  0  0  0  0  0  0  0  0  0  0
   35.9343   27.2172   41.2685 H   0  0  0  0  0  0  0  0  0  0  0  0
   38.3490   36.1448   40.1274 H   0  0  0  0  0  0  0  0  0  0  0  0
   40.2031   37.5886   41.1250 H   0  0  0  0  0  0  0  0  0  0  0  0
   43.6048   33.8357   42.5036 H   0  0  0  0  0  0  0  0  0  0  0  0
  1  6  1  0
  2  1  1  0
  3  2  1  0
  3  4  1  0
  4  5  1  0
  5  6  1  0
  6  7  1  0
  7 11  1  0
  7  8  1  0
  8  9  2  0
 10  9  1  0
 11 10  2  0
 12  4  1  0
 12 13  1  0
 13 14  2  0
 13 15  1  0
 15 20  1  0
 15 16  2  0
 16 17  1  0
 17 18  2  0
 19 18  1  0
 19 21  1  0
 20 19  2  0
  1 22  1  0
  2 23  1  0
  2 24  1  0
  3 25  1  0
  3 26  1  0
  4 27  1  6
  5 28  1  0
  5 29  1  0
  6 30  1  6
  9 31  1  0
 10 32  1  0
 11 33  1  0
 16 34  1  0
 17 35  1  0
 21 36  1  0
M  ISO  8  22   5  23  13  24  13  25  13  26  13  27  13  28  13  29  13
M  ISO  7  30  13  31  14  32  14  33  14  34  14  35  14  36  11
M  END
>  <minimizedAffinity>  (1) 
-5.29450035

>  <minimizedRMSD>  (1) 
6.33011627

$$$$
