
     RDKit          3D

 36 38  0  0  1  0  0  0  0  0999 V2000
   37.2430   29.3120   43.4460 N   0  0  0  0  0  0  0  0  0  0  0  0
   37.1940   28.1010   44.1980 C   0  0  0  0  0  0  0  0  0  0  0  0
   38.2020   27.0620   43.6870 C   0  0  0  0  0  0  0  0  0  0  0  0
   37.8130   26.8880   42.2140 C   0  0  1  0  0  0  0  0  0  0  0  0
   38.1990   28.1840   41.5300 C   0  0  0  0  0  0  0  0  0  0  0  0
   37.1680   29.1960   42.0190 C   0  0  2  0  0  0  0  0  0  0  0  0
   37.2960   30.4960   41.3780 C   0  0  0  0  0  0  0  0  0  0  0  0
   38.4580   31.2170   41.0940 C   0  0  0  0  0  0  0  0  0  0  0  0
   38.0190   32.3770   40.4860 C   0  0  0  0  0  0  0  0  0  0  0  0
   36.6680   32.3590   40.4050 N   0  0  0  0  0  0  0  0  0  0  0  0
   36.2490   31.2190   40.9480 N   0  0  0  0  0  0  0  0  0  0  0  0
   38.4100   25.8030   41.6840 O   0  0  0  0  0  0  0  0  0  0  0  0
   37.8630   24.6980   41.0740 C   0  0  0  0  0  0  0  0  0  0  0  0
   37.8670   23.6260   41.6750 O   0  0  0  0  0  0  0  0  0  0  0  0
   37.2890   24.8320   39.7240 C   0  0  0  0  0  0  0  0  0  0  0  0
   36.0480   24.2910   39.5410 C   0  0  0  0  0  0  0  0  0  0  0  0
   35.4280   24.4840   38.2860 C   0  0  0  0  0  0  0  0  0  0  0  0
   36.1150   25.2060   37.3350 N   0  0  0  0  0  0  0  0  0  0  0  0
   37.3360   25.7100   37.5920 C   0  0  0  0  0  0  0  0  0  0  0  0
   37.9520   25.5280   38.8090 N   0  0  0  0  0  0  0  0  0  0  0  0
   38.1810   26.6320   36.3200 S   0  0  0  0  0  0  0  0  0  0  0  0
   36.4543   29.8997   43.7518 H   0  0  0  0  0  0  0  0  0  0  0  0
   37.4210   28.3276   45.2502 H   0  0  0  0  0  0  0  0  0  0  0  0
   36.1853   27.6758   44.0896 H   0  0  0  0  0  0  0  0  0  0  0  0
   39.2330   27.4337   43.7810 H   0  0  0  0  0  0  0  0  0  0  0  0
   38.1738   26.1198   44.2539 H   0  0  0  0  0  0  0  0  0  0  0  0
   36.7365   26.7034   42.0830 H   0  0  0  0  0  0  0  0  0  0  0  0
   38.1496   28.0761   40.4364 H   0  0  0  0  0  0  0  0  0  0  0  0
   39.2292   28.4900   41.7646 H   0  0  0  0  0  0  0  0  0  0  0  0
   36.1751   28.8179   41.7341 H   0  0  0  0  0  0  0  0  0  0  0  0
   39.4967   30.9247   41.3079 H   0  0  0  0  0  0  0  0  0  0  0  0
   38.6666   33.1891   40.1239 H   0  0  0  0  0  0  0  0  0  0  0  0
   36.0727   33.0940   39.9972 H   0  0  0  0  0  0  0  0  0  0  0  0
   35.5493   23.7254   40.3419 H   0  0  0  0  0  0  0  0  0  0  0  0
   34.4302   24.0715   38.0755 H   0  0  0  0  0  0  0  0  0  0  0  0
   39.0196   27.5470   36.8999 H   0  0  0  0  0  0  0  0  0  0  0  0
  1  2  1  0
  3  2  1  0
  4  3  1  0
  5  6  1  0
  5  4  1  0
  6  1  1  0
  7  6  1  0
  8  7  1  0
  9  8  2  0
 10  9  1  0
 10 11  1  0
 11  7  2  0
 12  4  1  0
 13 14  2  0
 13 12  1  0
 15 13  1  0
 16 15  2  0
 17 16  1  0
 18 19  1  0
 18 17  2  0
 19 20  2  0
 20 15  1  0
 21 19  1  0
  1 22  1  0
  2 23  1  0
  2 24  1  0
  3 25  1  0
  3 26  1  0
  4 27  1  1
  5 28  1  0
  5 29  1  0
  6 30  1  1
  8 31  1  0
  9 32  1  0
 10 33  1  0
 16 34  1  0
 17 35  1  0
 21 36  1  0
M  ISO  8  22   5  23  13  24  13  25  13  26  13  27  13  28  13  29  13
M  ISO  7  30  13  31  14  32  14  33   9  34  14  35  14  36  11
M  END
>  <minimizedAffinity>  (1) 
-5.2350812

>  <minimizedRMSD>  (1) 
3.36334825

$$$$
