
     RDKit          3D

 36 38  0  0  1  0  0  0  0  0999 V2000
   37.1210   28.7900   43.8240 N   0  0  0  0  0  0  0  0  0  0  0  0
   36.3950   27.6650   43.3320 C   0  0  0  0  0  0  0  0  0  0  0  0
   37.3040   26.5460   42.8060 C   0  0  0  0  0  0  0  0  0  0  0  0
   38.1660   27.2570   41.7550 C   0  0  1  0  0  0  0  0  0  0  0  0
   39.0920   28.1720   42.5290 C   0  0  0  0  0  0  0  0  0  0  0  0
   38.1970   29.2940   43.0330 C   0  0  1  0  0  0  0  0  0  0  0  0
   37.7860   30.1910   41.9850 N   0  0  0  0  0  0  0  0  0  0  0  0
   38.6340   31.0280   41.3210 C   0  0  0  0  0  0  0  0  0  0  0  0
   37.8030   31.6900   40.4120 C   0  0  0  0  0  0  0  0  0  0  0  0
   36.5440   31.2590   40.5440 N   0  0  0  0  0  0  0  0  0  0  0  0
   36.5370   30.3290   41.5190 C   0  0  0  0  0  0  0  0  0  0  0  0
   38.8190   26.3610   40.9920 O   0  0  0  0  0  0  0  0  0  0  0  0
   38.7990   26.1730   39.6290 C   0  0  0  0  0  0  0  0  0  0  0  0
   39.6510   25.4500   39.1180 O   0  0  0  0  0  0  0  0  0  0  0  0
   37.7600   26.8400   38.8270 C   0  0  0  0  0  0  0  0  0  0  0  0
   36.5670   26.1820   38.7220 C   0  0  0  0  0  0  0  0  0  0  0  0
   35.5170   26.8420   38.0400 C   0  0  0  0  0  0  0  0  0  0  0  0
   35.7710   28.0990   37.5330 N   0  0  0  0  0  0  0  0  0  0  0  0
   36.9780   28.6800   37.6810 C   0  0  0  0  0  0  0  0  0  0  0  0
   38.0040   28.0490   38.3400 N   0  0  0  0  0  0  0  0  0  0  0  0
   37.2460   30.3020   36.9880 S   0  0  0  0  0  0  0  0  0  0  0  0
   36.4467   29.5586   43.9483 H   0  0  0  0  0  0  0  0  0  0  0  0
   35.7792   27.2610   44.1491 H   0  0  0  0  0  0  0  0  0  0  0  0
   35.7816   28.0136   42.4881 H   0  0  0  0  0  0  0  0  0  0  0  0
   37.9272   26.1325   43.6127 H   0  0  0  0  0  0  0  0  0  0  0  0
   36.7436   25.6922   42.3973 H   0  0  0  0  0  0  0  0  0  0  0  0
   37.5650   27.8472   41.0476 H   0  0  0  0  0  0  0  0  0  0  0  0
   39.5521   27.6351   43.3716 H   0  0  0  0  0  0  0  0  0  0  0  0
   39.9191   28.5474   41.9085 H   0  0  0  0  0  0  0  0  0  0  0  0
   38.7998   29.9189   43.7084 H   0  0  0  0  0  0  0  0  0  0  0  0
   39.7172   31.1529   41.4665 H   0  0  0  0  0  0  0  0  0  0  0  0
   38.1361   32.4535   39.6936 H   0  0  0  0  0  0  0  0  0  0  0  0
   35.6545   29.7760   41.8730 H   0  0  0  0  0  0  0  0  0  0  0  0
   36.4281   25.1786   39.1508 H   0  0  0  0  0  0  0  0  0  0  0  0
   34.5317   26.3683   37.9185 H   0  0  0  0  0  0  0  0  0  0  0  0
   37.3964   31.2122   38.0008 H   0  0  0  0  0  0  0  0  0  0  0  0
  2  1  1  0
  3  2  1  0
  4  5  1  0
  4  3  1  0
  5  6  1  0
  6  1  1  0
  7  6  1  0
  8  7  1  0
  9 10  1  0
  9  8  2  0
 10 11  2  0
 11  7  1  0
 12  4  1  0
 13 12  1  0
 14 13  2  0
 15 13  1  0
 16 15  2  0
 17 16  1  0
 18 19  1  0
 18 17  2  0
 19 20  2  0
 20 15  1  0
 21 19  1  0
  1 22  1  0
  2 23  1  0
  2 24  1  0
  3 25  1  0
  3 26  1  0
  4 27  1  6
  5 28  1  0
  5 29  1  0
  6 30  1  1
  8 31  1  0
  9 32  1  0
 11 33  1  0
 16 34  1  0
 17 35  1  0
 21 36  1  0
M  ISO  8  22   5  23  13  24  13  25  13  26  13  27  13  28  13  29  13
M  ISO  7  30  13  31  14  32  14  33  14  34  14  35  14  36  11
M  END
>  <minimizedAffinity>  (1) 
-4.67145395

>  <minimizedRMSD>  (1) 
0.916776359

$$$$
