
     RDKit          3D

 36 38  0  0  1  0  0  0  0  0999 V2000
   37.3660   28.8270   44.0340 N   0  0  0  0  0  0  0  0  0  0  0  0
   36.3590   27.8180   44.0250 C   0  0  0  0  0  0  0  0  0  0  0  0
   36.7490   26.6250   43.1380 C   0  0  0  0  0  0  0  0  0  0  0  0
   36.9860   27.2670   41.7660 C   0  0  1  0  0  0  0  0  0  0  0  0
   38.2640   28.0680   41.9080 C   0  0  0  0  0  0  0  0  0  0  0  0
   37.8790   29.2660   42.7690 C   0  0  2  0  0  0  0  0  0  0  0  0
   39.0770   30.1280   43.0540 C   0  0  0  0  0  0  0  0  0  0  0  0
   40.3910   29.7770   42.4680 C   0  0  0  0  0  0  0  0  0  0  0  0
   39.5530   30.9490   41.8820 C   0  0  0  0  0  0  0  0  0  0  0  0
   37.0450   26.3250   40.8060 O   0  0  0  0  0  0  0  0  0  0  0  0
   36.5480   26.3320   39.5230 C   0  0  0  0  0  0  0  0  0  0  0  0
   36.1580   25.2760   39.0340 O   0  0  0  0  0  0  0  0  0  0  0  0
   36.5010   27.6030   38.7810 C   0  0  0  0  0  0  0  0  0  0  0  0
   35.2640   28.0270   38.3860 C   0  0  0  0  0  0  0  0  0  0  0  0
   35.1760   29.2880   37.7550 C   0  0  0  0  0  0  0  0  0  0  0  0
   36.3410   30.0030   37.5830 N   0  0  0  0  0  0  0  0  0  0  0  0
   37.5240   29.5180   38.0030 C   0  0  0  0  0  0  0  0  0  0  0  0
   37.6250   28.2900   38.6190 N   0  0  0  0  0  0  0  0  0  0  0  0
   38.9960   30.4890   37.7450 S   0  0  0  0  0  0  0  0  0  0  0  0
   36.9716   29.6514   44.5092 H   0  0  0  0  0  0  0  0  0  0  0  0
   36.2049   27.4605   45.0538 H   0  0  0  0  0  0  0  0  0  0  0  0
   35.4384   28.2597   43.6158 H   0  0  0  0  0  0  0  0  0  0  0  0
   37.6640   26.1405   43.5095 H   0  0  0  0  0  0  0  0  0  0  0  0
   35.9828   25.8360   43.1171 H   0  0  0  0  0  0  0  0  0  0  0  0
   36.1636   27.9288   41.4568 H   0  0  0  0  0  0  0  0  0  0  0  0
   39.0434   27.4697   42.4027 H   0  0  0  0  0  0  0  0  0  0  0  0
   38.6742   28.3716   40.9336 H   0  0  0  0  0  0  0  0  0  0  0  0
   37.1198   29.8350   42.2124 H   0  0  0  0  0  0  0  0  0  0  0  0
   38.7683   30.3304   44.0902 H   0  0  0  0  0  0  0  0  0  0  0  0
   41.3165   29.9854   43.0249 H   0  0  0  0  0  0  0  0  0  0  0  0
   40.8447   28.8615   42.0605 H   0  0  0  0  0  0  0  0  0  0  0  0
   39.8759   31.9904   42.0273 H   0  0  0  0  0  0  0  0  0  0  0  0
   39.1554   31.2192   40.8926 H   0  0  0  0  0  0  0  0  0  0  0  0
   34.3693   27.4093   38.5531 H   0  0  0  0  0  0  0  0  0  0  0  0
   34.2093   29.6857   37.4124 H   0  0  0  0  0  0  0  0  0  0  0  0
   39.5293   30.8408   38.9569 H   0  0  0  0  0  0  0  0  0  0  0  0
  2  1  1  0
  3  2  1  0
  4  5  1  0
  4  3  1  0
  5  6  1  0
  6  7  1  0
  6  1  1  0
  8  7  1  0
  9  8  1  0
  9  7  1  0
 10  4  1  0
 11 10  1  0
 12 11  2  0
 13 11  1  0
 14 13  2  0
 15 14  1  0
 16 15  2  0
 16 17  1  0
 17 18  2  0
 18 13  1  0
 19 17  1  0
  1 20  1  0
  2 21  1  0
  2 22  1  0
  3 23  1  0
  3 24  1  0
  4 25  1  6
  5 26  1  0
  5 27  1  0
  6 28  1  6
  7 29  1  0
  8 30  1  0
  8 31  1  0
  9 32  1  0
  9 33  1  0
 14 34  1  0
 15 35  1  0
 19 36  1  0
M  ISO  8  20   5  21  13  22  13  23  13  24  13  25  13  26  13  27  13
M  ISO  8  28  13  29  13  30  13  31  13  32  13  33  13  34  14  35  14
M  ISO  1  36  11
M  END
>  <minimizedAffinity>  (1) 
-4.2755456

>  <minimizedRMSD>  (1) 
1.21115756

$$$$
