
     RDKit          3D

 33 35  0  0  0  0  0  0  0  0999 V2000
   38.4500   31.2320   41.2860 C   0  0  0  0  0  0  0  0  0  0  0  0
   38.5900   30.0850   42.0860 C   0  0  0  0  0  0  0  0  0  0  0  0
   37.4830   29.2050   42.2470 C   0  0  0  0  0  0  0  0  0  0  0  0
   36.3380   29.5490   41.5970 N   0  0  0  0  0  0  0  0  0  0  0  0
   36.2220   30.6490   40.8360 C   0  0  0  0  0  0  0  0  0  0  0  0
   37.2650   31.4870   40.6790 N   0  0  0  0  0  0  0  0  0  0  0  0
   39.6160   32.1000   41.1550 C   0  0  0  0  0  0  0  0  0  0  0  0
   40.9420   31.8060   41.4000 C   0  0  0  0  0  0  0  0  0  0  0  0
   41.6670   32.9100   41.1450 N   0  0  0  0  0  0  0  0  0  0  0  0
   40.8830   33.9210   40.7440 C   0  0  0  0  0  0  0  0  0  0  0  0
   41.0830   35.2380   40.3630 C   0  0  0  0  0  0  0  0  0  0  0  0
   40.0580   36.0750   39.9870 C   0  0  0  0  0  0  0  0  0  0  0  0
   38.7740   35.5560   39.9970 C   0  0  0  0  0  0  0  0  0  0  0  0
   38.5570   34.2500   40.3730 C   0  0  0  0  0  0  0  0  0  0  0  0
   39.6050   33.4200   40.7490 C   0  0  0  0  0  0  0  0  0  0  0  0
   37.6150   27.9890   43.0840 C   0  0  0  0  0  0  0  0  0  0  0  0
   36.9080   28.1210   44.4060 C   0  0  0  0  0  0  0  0  0  0  0  0
   39.1320   27.7580   43.2910 C   0  0  0  0  0  0  0  0  0  0  0  0
   39.5470   29.8692   42.5835 H   0  0  0  0  0  0  0  0  0  0  0  0
   35.2668   30.8679   40.3363 H   0  0  0  0  0  0  0  0  0  0  0  0
   41.3368   30.8385   41.7436 H   0  0  0  0  0  0  0  0  0  0  0  0
   42.6904   32.9707   41.2447 H   0  0  0  0  0  0  0  0  0  0  0  0
   42.1097   35.6329   40.3611 H   0  0  0  0  0  0  0  0  0  0  0  0
   40.2508   37.1164   39.6898 H   0  0  0  0  0  0  0  0  0  0  0  0
   37.9244   36.1900   39.7033 H   0  0  0  0  0  0  0  0  0  0  0  0
   37.5305   33.8547   40.3758 H   0  0  0  0  0  0  0  0  0  0  0  0
   37.1408   27.1339   42.5800 H   0  0  0  0  0  0  0  0  0  0  0  0
   37.6313   27.9860   45.2237 H   0  0  0  0  0  0  0  0  0  0  0  0
   36.4528   29.1196   44.4803 H   0  0  0  0  0  0  0  0  0  0  0  0
   36.1231   27.3539   44.4803 H   0  0  0  0  0  0  0  0  0  0  0  0
   39.3542   27.7242   44.3678 H   0  0  0  0  0  0  0  0  0  0  0  0
   39.4246   26.8050   42.8261 H   0  0  0  0  0  0  0  0  0  0  0  0
   39.6950   28.5808   42.8261 H   0  0  0  0  0  0  0  0  0  0  0  0
  1  2  2  0
  2  3  1  0
  3 16  1  0
  4  3  2  0
  5  4  1  0
  6  5  2  0
  6  1  1  0
  7  1  1  0
  7  8  2  0
  9  8  1  0
 10 15  2  0
 10  9  1  0
 11 10  1  0
 12 13  1  0
 12 11  2  0
 13 14  2  0
 14 15  1  0
 15  7  1  0
 16 18  1  0
 16 17  1  0
  2 19  1  0
  5 20  1  0
  8 21  1  0
  9 22  1  0
 11 23  1  0
 12 24  1  0
 13 25  1  0
 14 26  1  0
 16 27  1  0
 17 28  1  0
 17 29  1  0
 17 30  1  0
 18 31  1  0
 18 32  1  0
 18 33  1  0
M  ISO  8  19  14  20  14  21  14  22   9  23  14  24  14  25  14  26  14
M  ISO  7  27   8  28   8  29   8  30   8  31   8  32   8  33   8
M  END
>  <minimizedAffinity>  (1) 
-5.88114452

>  <minimizedRMSD>  (1) 
2.81870294

$$$$
