
     RDKit          3D

 29 30  0  0  0  0  0  0  0  0999 V2000
   37.3200   30.0310   40.8370 C   0  0  0  0  0  0  0  0  0  0  0  0
   37.5380   29.4070   42.0680 C   0  0  0  0  0  0  0  0  0  0  0  0
   37.1220   28.0600   42.2490 C   0  0  0  0  0  0  0  0  0  0  0  0
   36.5250   27.4500   41.1860 N   0  0  0  0  0  0  0  0  0  0  0  0
   36.3270   28.0770   40.0050 C   0  0  0  0  0  0  0  0  0  0  0  0
   36.7260   29.3640   39.8360 N   0  0  0  0  0  0  0  0  0  0  0  0
   37.7300   31.4080   40.6080 C   0  0  0  0  0  0  0  0  0  0  0  0
   36.9520   32.1630   39.7490 C   0  0  0  0  0  0  0  0  0  0  0  0
   37.2450   33.4940   39.4530 C   0  0  0  0  0  0  0  0  0  0  0  0
   38.3680   34.0530   40.0580 C   0  0  0  0  0  0  0  0  0  0  0  0
   39.1630   33.3250   40.9170 C   0  0  0  0  0  0  0  0  0  0  0  0
   38.8090   32.0110   41.1640 C   0  0  0  0  0  0  0  0  0  0  0  0
   37.3440   27.3730   43.5460 C   0  0  0  0  0  0  0  0  0  0  0  0
   36.7540   28.1320   44.7020 C   0  0  0  0  0  0  0  0  0  0  0  0
   38.8730   27.2310   43.7190 C   0  0  0  0  0  0  0  0  0  0  0  0
   38.0266   29.9526   42.8887 H   0  0  0  0  0  0  0  0  0  0  0  0
   35.8401   27.5419   39.1764 H   0  0  0  0  0  0  0  0  0  0  0  0
   36.0712   31.6972   39.2829 H   0  0  0  0  0  0  0  0  0  0  0  0
   36.6137   34.0795   38.7684 H   0  0  0  0  0  0  0  0  0  0  0  0
   38.6268   35.1007   39.8452 H   0  0  0  0  0  0  0  0  0  0  0  0
   40.0489   33.7738   41.3900 H   0  0  0  0  0  0  0  0  0  0  0  0
   39.4375   31.4232   41.8492 H   0  0  0  0  0  0  0  0  0  0  0  0
   36.8435   26.3935   43.5381 H   0  0  0  0  0  0  0  0  0  0  0  0
   37.0995   27.6875   45.6470 H   0  0  0  0  0  0  0  0  0  0  0  0
   37.0745   29.1831   44.6524 H   0  0  0  0  0  0  0  0  0  0  0  0
   35.6563   28.0807   44.6524 H   0  0  0  0  0  0  0  0  0  0  0  0
   39.1202   27.2080   44.7906 H   0  0  0  0  0  0  0  0  0  0  0  0
   39.2106   26.2976   43.2448 H   0  0  0  0  0  0  0  0  0  0  0  0
   39.3767   28.0862   43.2448 H   0  0  0  0  0  0  0  0  0  0  0  0
  1  2  2  0
  2  3  1  0
  3 13  1  0
  4  3  2  0
  5  4  1  0
  6  5  2  0
  6  1  1  0
  7  1  1  0
  7 12  1  0
  8  7  2  0
  9  8  1  0
  9 10  2  0
 10 11  1  0
 11 12  2  0
 13 15  1  0
 13 14  1  0
  2 16  1  0
  5 17  1  0
  8 18  1  0
  9 19  1  0
 10 20  1  0
 11 21  1  0
 12 22  1  0
 13 23  1  0
 14 24  1  0
 14 25  1  0
 14 26  1  0
 15 27  1  0
 15 28  1  0
 15 29  1  0
M  ISO  8  16  14  17  14  18  14  19  14  20  14  21  14  22  14  23   8
M  ISO  6  24   8  25   8  26   8  27   8  28   8  29   8
M  END
>  <minimizedAffinity>  (1) 
-5.00446987

>  <minimizedRMSD>  (1) 
3.74498129

$$$$
