
     RDKit          3D

 26 27  0  0  0  0  0  0  0  0999 V2000
   37.2220   30.7060   41.0350 C   0  0  0  0  0  0  0  0  0  0  0  0
   37.6500   29.8300   42.0570 C   0  0  0  0  0  0  0  0  0  0  0  0
   36.8960   28.6350   42.2250 C   0  0  0  0  0  0  0  0  0  0  0  0
   35.8180   28.4050   41.4010 N   0  0  0  0  0  0  0  0  0  0  0  0
   35.4710   29.2910   40.4450 C   0  0  0  0  0  0  0  0  0  0  0  0
   36.1640   30.4350   40.2590 N   0  0  0  0  0  0  0  0  0  0  0  0
   37.9600   31.9470   40.8210 C   0  0  0  0  0  0  0  0  0  0  0  0
   37.5740   33.0030   40.0050 C   0  0  0  0  0  0  0  0  0  0  0  0
   38.5770   33.9440   40.1190 C   0  0  0  0  0  0  0  0  0  0  0  0
   39.5250   33.4890   40.9600 N   0  0  0  0  0  0  0  0  0  0  0  0
   39.1370   32.2930   41.3690 N   0  0  0  0  0  0  0  0  0  0  0  0
   37.2920   27.6670   43.2840 C   0  0  0  0  0  0  0  0  0  0  0  0
   36.7300   28.0300   44.6340 C   0  0  0  0  0  0  0  0  0  0  0  0
   38.8400   27.6530   43.3110 C   0  0  0  0  0  0  0  0  0  0  0  0
   38.5202   30.0594   42.6896 H   0  0  0  0  0  0  0  0  0  0  0  0
   34.6042   29.0769   39.8025 H   0  0  0  0  0  0  0  0  0  0  0  0
   36.6608   33.0741   39.3960 H   0  0  0  0  0  0  0  0  0  0  0  0
   38.5987   34.9152   39.6029 H   0  0  0  0  0  0  0  0  0  0  0  0
   40.3886   33.9796   41.2329 H   0  0  0  0  0  0  0  0  0  0  0  0
   36.8847   26.6709   43.0560 H   0  0  0  0  0  0  0  0  0  0  0  0
   37.3738   27.6142   45.4230 H   0  0  0  0  0  0  0  0  0  0  0  0
   36.6903   29.1249   44.7323 H   0  0  0  0  0  0  0  0  0  0  0  0
   35.7156   27.6160   44.7323 H   0  0  0  0  0  0  0  0  0  0  0  0
   39.1885   27.6498   44.3543 H   0  0  0  0  0  0  0  0  0  0  0  0
   39.2075   26.7515   42.7989 H   0  0  0  0  0  0  0  0  0  0  0  0
   39.2238   28.5477   42.7989 H   0  0  0  0  0  0  0  0  0  0  0  0
  1  2  2  0
  2  3  1  0
  3 12  1  0
  4  3  2  0
  5  4  1  0
  6  5  2  0
  6  1  1  0
  7  1  1  0
  7 11  2  0
  8  9  2  0
  8  7  1  0
  9 10  1  0
 10 11  1  0
 12 14  1  0
 12 13  1  0
  2 15  1  0
  5 16  1  0
  8 17  1  0
  9 18  1  0
 10 19  1  0
 12 20  1  0
 13 21  1  0
 13 22  1  0
 13 23  1  0
 14 24  1  0
 14 25  1  0
 14 26  1  0
M  ISO  8  15  14  16  14  17  14  18  14  19   9  20   8  21   8  22   8
M  ISO  4  23   8  24   8  25   8  26   8
M  END
>  <minimizedAffinity>  (1) 
-4.92879248

>  <minimizedRMSD>  (1) 
3.12245727

$$$$
