
     RDKit          3D

 32 33  0  0  0  0  0  0  0  0999 V2000
   36.9130   30.3610   40.8530 C   0  0  0  0  0  0  0  0  0  0  0  0
   37.2870   29.6530   42.0070 C   0  0  0  0  0  0  0  0  0  0  0  0
   36.9390   28.2960   42.1420 C   0  0  0  0  0  0  0  0  0  0  0  0
   36.2360   27.7150   41.1180 N   0  0  0  0  0  0  0  0  0  0  0  0
   35.8890   28.4190   40.0170 C   0  0  0  0  0  0  0  0  0  0  0  0
   36.2160   29.7090   39.8830 N   0  0  0  0  0  0  0  0  0  0  0  0
   37.3000   31.7580   40.7690 C   0  0  0  0  0  0  0  0  0  0  0  0
   38.7670   32.0510   40.9770 C   0  0  0  0  0  0  0  0  0  0  0  0
   38.7560   33.5530   40.7640 C   0  0  0  0  0  0  0  0  0  0  0  0
   37.6570   33.7970   39.7340 C   0  0  0  0  0  0  0  0  0  0  0  0
   37.0970   32.4040   39.4130 C   0  0  0  0  0  0  0  0  0  0  0  0
   37.3360   27.5430   43.3590 C   0  0  0  0  0  0  0  0  0  0  0  0
   36.7340   28.1150   44.6170 C   0  0  0  0  0  0  0  0  0  0  0  0
   38.8830   27.5920   43.4250 C   0  0  0  0  0  0  0  0  0  0  0  0
   37.8513   30.1586   42.8044 H   0  0  0  0  0  0  0  0  0  0  0  0
   35.3258   27.9202   39.2145 H   0  0  0  0  0  0  0  0  0  0  0  0
   36.6494   32.1477   41.5658 H   0  0  0  0  0  0  0  0  0  0  0  0
   39.0991   31.7829   41.9908 H   0  0  0  0  0  0  0  0  0  0  0  0
   39.4530   31.4910   40.3245 H   0  0  0  0  0  0  0  0  0  0  0  0
   38.5273   34.0753   41.7047 H   0  0  0  0  0  0  0  0  0  0  0  0
   39.7321   33.9296   40.4243 H   0  0  0  0  0  0  0  0  0  0  0  0
   36.8710   34.4426   40.1528 H   0  0  0  0  0  0  0  0  0  0  0  0
   38.0377   34.3062   38.8363 H   0  0  0  0  0  0  0  0  0  0  0  0
   36.0355   32.4406   39.1268 H   0  0  0  0  0  0  0  0  0  0  0  0
   37.5665   31.8861   38.5637 H   0  0  0  0  0  0  0  0  0  0  0  0
   36.9627   26.5103   43.2941 H   0  0  0  0  0  0  0  0  0  0  0  0
   37.2150   27.6580   45.4943 H   0  0  0  0  0  0  0  0  0  0  0  0
   36.8925   29.2033   44.6373 H   0  0  0  0  0  0  0  0  0  0  0  0
   35.6552   27.9011   44.6373 H   0  0  0  0  0  0  0  0  0  0  0  0
   39.2050   27.6022   44.4768 H   0  0  0  0  0  0  0  0  0  0  0  0
   39.2997   26.7066   42.9225 H   0  0  0  0  0  0  0  0  0  0  0  0
   39.2428   28.5020   42.9225 H   0  0  0  0  0  0  0  0  0  0  0  0
  1  2  2  0
  2  3  1  0
  3 12  1  0
  4  3  2  0
  5  4  1  0
  6  5  2  0
  6  1  1  0
  7  1  1  0
  7  8  1  0
  9  8  1  0
 10  9  1  0
 11 10  1  0
 11  7  1  0
 12 14  1  0
 12 13  1  0
  2 15  1  0
  5 16  1  0
  7 17  1  0
  8 18  1  0
  8 19  1  0
  9 20  1  0
  9 21  1  0
 10 22  1  0
 10 23  1  0
 11 24  1  0
 11 25  1  0
 12 26  1  0
 13 27  1  0
 13 28  1  0
 13 29  1  0
 14 30  1  0
 14 31  1  0
 14 32  1  0
M  ISO  8  15  14  16  14  17  13  18  13  19  13  20  13  21  13  22  13
M  ISO  8  23  13  24  13  25  13  26   8  27   8  28   8  29   8  30   8
M  ISO  2  31   8  32   8
M  END
>  <minimizedAffinity>  (1) 
-4.78812122

>  <minimizedRMSD>  (1) 
3.7262671

$$$$
