
     RDKit          3D

 28 29  0  0  0  0  0  0  0  0999 V2000
   37.1260   30.7500   40.7160 C   0  0  0  0  0  0  0  0  0  0  0  0
   37.3030   29.8140   41.7320 C   0  0  0  0  0  0  0  0  0  0  0  0
   36.4310   28.7090   41.8190 C   0  0  0  0  0  0  0  0  0  0  0  0
   35.4410   28.6240   40.8760 N   0  0  0  0  0  0  0  0  0  0  0  0
   35.2880   29.5390   39.9030 C   0  0  0  0  0  0  0  0  0  0  0  0
   36.1280   30.5990   39.8250 N   0  0  0  0  0  0  0  0  0  0  0  0
   37.9980   31.9010   40.5900 C   0  0  0  0  0  0  0  0  0  0  0  0
   37.6140   33.1300   40.1530 C   0  0  0  0  0  0  0  0  0  0  0  0
   38.4360   34.2330   40.0280 C   0  0  0  0  0  0  0  0  0  0  0  0
   39.7650   34.0870   40.3750 C   0  0  0  0  0  0  0  0  0  0  0  0
   40.1680   32.8460   40.8190 C   0  0  0  0  0  0  0  0  0  0  0  0
   39.3180   31.8250   40.9140 N   0  0  0  0  0  0  0  0  0  0  0  0
   36.6000   27.7000   42.8810 C   0  0  0  0  0  0  0  0  0  0  0  0
   37.4430   28.2000   44.0260 C   0  0  0  0  0  0  0  0  0  0  0  0
   37.2640   26.4620   42.2310 C   0  0  0  0  0  0  0  0  0  0  0  0
   38.1172   29.9357   42.4615 H   0  0  0  0  0  0  0  0  0  0  0  0
   34.4778   29.4266   39.1675 H   0  0  0  0  0  0  0  0  0  0  0  0
   36.5573   33.2568   39.8750 H   0  0  0  0  0  0  0  0  0  0  0  0
   38.0455   35.1950   39.6645 H   0  0  0  0  0  0  0  0  0  0  0  0
   40.4722   34.9262   40.3001 H   0  0  0  0  0  0  0  0  0  0  0  0
   41.2200   32.6947   41.1025 H   0  0  0  0  0  0  0  0  0  0  0  0
   35.6165   27.4566   43.3093 H   0  0  0  0  0  0  0  0  0  0  0  0
   36.9704   27.9197   44.9790 H   0  0  0  0  0  0  0  0  0  0  0  0
   38.4451   27.7501   43.9673 H   0  0  0  0  0  0  0  0  0  0  0  0
   37.5287   29.2951   43.9673 H   0  0  0  0  0  0  0  0  0  0  0  0
   37.6271   25.7850   43.0183 H   0  0  0  0  0  0  0  0  0  0  0  0
   36.5269   25.9361   41.6064 H   0  0  0  0  0  0  0  0  0  0  0  0
   38.1099   26.7851   41.6064 H   0  0  0  0  0  0  0  0  0  0  0  0
  1  2  2  0
  2  3  1  0
  3 13  1  0
  4  3  2  0
  5  4  1  0
  6  5  2  0
  6  1  1  0
  7  1  1  0
  7 12  1  0
  8  7  2  0
  9  8  1  0
  9 10  2  0
 10 11  1  0
 11 12  2  0
 13 14  1  0
 15 13  1  0
  2 16  1  0
  5 17  1  0
  8 18  1  0
  9 19  1  0
 10 20  1  0
 11 21  1  0
 13 22  1  0
 14 23  1  0
 14 24  1  0
 14 25  1  0
 15 26  1  0
 15 27  1  0
 15 28  1  0
M  ISO  8  16  14  17  14  18  14  19  14  20  14  21  14  22   8  23   8
M  ISO  5  24   8  25   8  26   8  27   8  28   8
M  END
>  <minimizedAffinity>  (1) 
-4.77336931

>  <minimizedRMSD>  (1) 
3.32178187

$$$$
