
     RDKit          3D

 25 26  0  0  0  0  0  0  0  0999 V2000
   37.1410   30.7270   40.8380 C   0  0  0  0  0  0  0  0  0  0  0  0
   37.3410   29.7720   41.8540 C   0  0  0  0  0  0  0  0  0  0  0  0
   36.4470   28.6640   41.8720 C   0  0  0  0  0  0  0  0  0  0  0  0
   35.4710   28.6160   40.9080 N   0  0  0  0  0  0  0  0  0  0  0  0
   35.3260   29.5560   39.9650 C   0  0  0  0  0  0  0  0  0  0  0  0
   36.1620   30.6090   39.9300 N   0  0  0  0  0  0  0  0  0  0  0  0
   38.0170   31.8510   40.7870 N   0  0  0  0  0  0  0  0  0  0  0  0
   39.2530   32.1790   41.2160 C   0  0  0  0  0  0  0  0  0  0  0  0
   39.4820   33.4470   40.8160 N   0  0  0  0  0  0  0  0  0  0  0  0
   38.4070   33.9160   40.1430 C   0  0  0  0  0  0  0  0  0  0  0  0
   37.5040   32.9040   40.1370 N   0  0  0  0  0  0  0  0  0  0  0  0
   36.5790   27.5900   42.9040 C   0  0  0  0  0  0  0  0  0  0  0  0
   37.2880   28.0860   44.1340 C   0  0  0  0  0  0  0  0  0  0  0  0
   37.3950   26.4640   42.2320 C   0  0  0  0  0  0  0  0  0  0  0  0
   38.1467   29.8769   42.5956 H   0  0  0  0  0  0  0  0  0  0  0  0
   34.5228   29.4668   39.2188 H   0  0  0  0  0  0  0  0  0  0  0  0
   39.9421   31.5360   41.7832 H   0  0  0  0  0  0  0  0  0  0  0  0
   38.2892   34.9128   39.6931 H   0  0  0  0  0  0  0  0  0  0  0  0
   35.5896   27.2438   43.2376 H   0  0  0  0  0  0  0  0  0  0  0  0
   36.7658   27.7207   45.0306 H   0  0  0  0  0  0  0  0  0  0  0  0
   38.3232   27.7141   44.1355 H   0  0  0  0  0  0  0  0  0  0  0  0
   37.2935   29.1860   44.1355 H   0  0  0  0  0  0  0  0  0  0  0  0
   37.8535   25.8313   43.0062 H   0  0  0  0  0  0  0  0  0  0  0  0
   36.7291   25.8523   41.6056 H   0  0  0  0  0  0  0  0  0  0  0  0
   38.1836   26.9064   41.6056 H   0  0  0  0  0  0  0  0  0  0  0  0
  1  2  2  0
  2  3  1  0
  3 12  1  0
  4  3  2  0
  5  4  1  0
  6  5  2  0
  6  1  1  0
  7  1  1  0
  7  8  1  0
  9  8  2  0
 10  9  1  0
 11 10  2  0
 11  7  1  0
 12 13  1  0
 14 12  1  0
  2 15  1  0
  5 16  1  0
  8 17  1  0
 10 18  1  0
 12 19  1  0
 13 20  1  0
 13 21  1  0
 13 22  1  0
 14 23  1  0
 14 24  1  0
 14 25  1  0
M  ISO  8  15  14  16  14  17  14  18  14  19   8  20   8  21   8  22   8
M  ISO  3  23   8  24   8  25   8
M  END
>  <minimizedAffinity>  (1) 
-4.52027845

>  <minimizedRMSD>  (1) 
3.08900166

$$$$
