
     RDKit          3D

 22 22  0  0  0  0  0  0  0  0999 V2000
   37.8560   30.5960   41.2610 C   0  0  0  0  0  0  0  0  0  0  0  0
   37.8220   29.5540   42.2100 C   0  0  0  0  0  0  0  0  0  0  0  0
   36.7150   28.6630   42.1490 C   0  0  0  0  0  0  0  0  0  0  0  0
   35.7570   28.8730   41.1770 N   0  0  0  0  0  0  0  0  0  0  0  0
   35.8540   29.8970   40.2960 C   0  0  0  0  0  0  0  0  0  0  0  0
   36.8960   30.7500   40.3390 N   0  0  0  0  0  0  0  0  0  0  0  0
   39.0080   31.5370   41.3100 C   0  0  0  0  0  0  0  0  0  0  0  0
   38.5570   32.8520   41.2250 F   0  0  0  0  0  0  0  0  0  0  0  0
   39.6140   31.4190   42.5660 F   0  0  0  0  0  0  0  0  0  0  0  0
   39.9400   31.2960   40.3350 F   0  0  0  0  0  0  0  0  0  0  0  0
   36.5940   27.5310   43.1110 C   0  0  0  0  0  0  0  0  0  0  0  0
   36.8170   27.9770   44.5310 C   0  0  0  0  0  0  0  0  0  0  0  0
   37.6660   26.4990   42.6950 C   0  0  0  0  0  0  0  0  0  0  0  0
   38.6151   29.4355   42.9630 H   0  0  0  0  0  0  0  0  0  0  0  0
   35.0715   30.0341   39.5351 H   0  0  0  0  0  0  0  0  0  0  0  0
   35.5803   27.1051   43.0793 H   0  0  0  0  0  0  0  0  0  0  0  0
   36.4337   27.2104   45.2206 H   0  0  0  0  0  0  0  0  0  0  0  0
   37.8935   28.1216   44.7052 H   0  0  0  0  0  0  0  0  0  0  0  0
   36.2868   28.9249   44.7052 H   0  0  0  0  0  0  0  0  0  0  0  0
   38.1216   26.0604   43.5951 H   0  0  0  0  0  0  0  0  0  0  0  0
   37.1969   25.7039   42.0969 H   0  0  0  0  0  0  0  0  0  0  0  0
   38.4427   26.9980   42.0969 H   0  0  0  0  0  0  0  0  0  0  0  0
  1  7  1  0
  1  2  2  0
  3  2  1  0
  3 11  1  0
  4  3  2  0
  5  6  2  0
  5  4  1  0
  6  1  1  0
  7  9  1  0
  8  7  1  0
 10  7  1  0
 11 12  1  0
 13 11  1  0
  2 14  1  0
  5 15  1  0
 11 16  1  0
 12 17  1  0
 12 18  1  0
 12 19  1  0
 13 20  1  0
 13 21  1  0
 13 22  1  0
M  ISO  8  14  14  15  14  16   8  17   8  18   8  19   8  20   8  21   8
M  ISO  1  22   8
M  END
>  <minimizedAffinity>  (1) 
-4.16530371

>  <minimizedRMSD>  (1) 
1.84644616

$$$$
