
     RDKit          3D

 22 22  0  0  0  0  0  0  0  0999 V2000
   38.3200   30.7490   41.5570 C   0  0  0  0  0  0  0  0  0  0  0  0
   38.3210   29.7130   42.4980 C   0  0  0  0  0  0  0  0  0  0  0  0
   37.2540   28.7680   42.5260 C   0  0  0  0  0  0  0  0  0  0  0  0
   36.2850   28.9670   41.5920 N   0  0  0  0  0  0  0  0  0  0  0  0
   36.2880   29.9560   40.6970 C   0  0  0  0  0  0  0  0  0  0  0  0
   37.2890   30.8370   40.6750 N   0  0  0  0  0  0  0  0  0  0  0  0
   37.2490   27.6690   43.5120 C   0  0  0  0  0  0  0  0  0  0  0  0
   36.6870   28.0890   44.8430 C   0  0  0  0  0  0  0  0  0  0  0  0
   38.7210   27.2170   43.6580 C   0  0  0  0  0  0  0  0  0  0  0  0
   39.4390   31.6810   41.5820 C   0  0  0  0  0  0  0  0  0  0  0  0
   40.5780   31.1650   41.7190 O   0  0  0  0  0  0  0  0  0  0  0  0
   39.2320   33.0480   41.4610 O   0  0  0  0  0  0  0  0  0  0  0  0
   39.1479   29.6276   43.2184 H   0  0  0  0  0  0  0  0  0  0  0  0
   35.4627   30.0452   39.9752 H   0  0  0  0  0  0  0  0  0  0  0  0
   36.5994   26.8522   43.1644 H   0  0  0  0  0  0  0  0  0  0  0  0
   37.2849   27.6421   45.6510 H   0  0  0  0  0  0  0  0  0  0  0  0
   36.7203   29.1854   44.9256 H   0  0  0  0  0  0  0  0  0  0  0  0
   35.6449   27.7465   44.9256 H   0  0  0  0  0  0  0  0  0  0  0  0
   38.9764   27.1386   44.7251 H   0  0  0  0  0  0  0  0  0  0  0  0
   38.8531   26.2369   43.1764 H   0  0  0  0  0  0  0  0  0  0  0  0
   39.3804   27.9541   43.1764 H   0  0  0  0  0  0  0  0  0  0  0  0
   40.0028   33.6689   41.4798 H   0  0  0  0  0  0  0  0  0  0  0  0
  1 10  1  0
  1  2  2  0
  2  3  1  0
  3  7  1  0
  4  3  2  0
  5  4  1  0
  6  5  2  0
  6  1  1  0
  7  9  1  0
  7  8  1  0
 10 11  2  0
 12 10  1  0
  2 13  1  0
  5 14  1  0
  7 15  1  0
  8 16  1  0
  8 17  1  0
  8 18  1  0
  9 19  1  0
  9 20  1  0
  9 21  1  0
 12 22  1  0
M  ISO  8  13  14  14  14  15   8  16   8  17   8  18   8  19   8  20   8
M  ISO  2  21   8  22   3
M  END
>  <minimizedAffinity>  (1) 
-4.08262539

>  <minimizedRMSD>  (1) 
1.63358068

$$$$
