
     RDKit          3D

 22 22  0  0  0  0  0  0  0  0999 V2000
   39.1760   30.5130   42.2510 C   0  0  0  0  0  0  0  0  0  0  0  0
   38.5800   29.4150   42.8890 C   0  0  0  0  0  0  0  0  0  0  0  0
   37.2710   28.9910   42.5220 C   0  0  0  0  0  0  0  0  0  0  0  0
   36.6760   29.7180   41.5360 N   0  0  0  0  0  0  0  0  0  0  0  0
   37.2530   30.7620   40.9350 C   0  0  0  0  0  0  0  0  0  0  0  0
   38.4810   31.1610   41.2780 N   0  0  0  0  0  0  0  0  0  0  0  0
   36.6500   27.8330   43.1930 C   0  0  0  0  0  0  0  0  0  0  0  0
   36.7250   27.9270   44.6950 C   0  0  0  0  0  0  0  0  0  0  0  0
   37.4130   26.5800   42.6980 C   0  0  0  0  0  0  0  0  0  0  0  0
   40.5420   30.9410   42.6480 C   0  0  0  0  0  0  0  0  0  0  0  0
   39.1273   28.8781   43.6778 H   0  0  0  0  0  0  0  0  0  0  0  0
   36.7089   31.3014   40.1457 H   0  0  0  0  0  0  0  0  0  0  0  0
   35.5790   27.7908   42.9459 H   0  0  0  0  0  0  0  0  0  0  0  0
   36.0985   27.1418   45.1433 H   0  0  0  0  0  0  0  0  0  0  0  0
   37.7677   27.7938   45.0191 H   0  0  0  0  0  0  0  0  0  0  0  0
   36.3636   28.9141   45.0191 H   0  0  0  0  0  0  0  0  0  0  0  0
   37.7661   26.0001   43.5634 H   0  0  0  0  0  0  0  0  0  0  0  0
   36.7404   25.9577   42.0894 H   0  0  0  0  0  0  0  0  0  0  0  0
   38.2746   26.8920   42.0894 H   0  0  0  0  0  0  0  0  0  0  0  0
   40.6147   30.9638   43.7454 H   0  0  0  0  0  0  0  0  0  0  0  0
   41.2799   30.2310   42.2463 H   0  0  0  0  0  0  0  0  0  0  0  0
   40.7429   31.9451   42.2463 H   0  0  0  0  0  0  0  0  0  0  0  0
  1 10  1  0
  1  2  2  0
  3  2  1  0
  3  7  1  0
  4  3  2  0
  5  6  2  0
  5  4  1  0
  6  1  1  0
  7  8  1  0
  9  7  1  0
  2 11  1  0
  5 12  1  0
  7 13  1  0
  8 14  1  0
  8 15  1  0
  8 16  1  0
  9 17  1  0
  9 18  1  0
  9 19  1  0
 10 20  1  0
 10 21  1  0
 10 22  1  0
M  ISO  8  11  14  12  14  13   8  14   8  15   8  16   8  17   8  18   8
M  ISO  4  19   8  20   8  21   8  22   8
M  END
>  <minimizedAffinity>  (1) 
-3.77734613

>  <minimizedRMSD>  (1) 
0.172921389

$$$$
