
     RDKit          3D

 21 21  0  0  0  0  0  0  0  0999 V2000
   39.1940   30.4990   42.2650 C   0  0  0  0  0  0  0  0  0  0  0  0
   38.5920   29.4040   42.8990 C   0  0  0  0  0  0  0  0  0  0  0  0
   37.2820   28.9880   42.5290 C   0  0  0  0  0  0  0  0  0  0  0  0
   36.6800   29.7110   41.5450 N   0  0  0  0  0  0  0  0  0  0  0  0
   37.2740   30.7630   40.9460 C   0  0  0  0  0  0  0  0  0  0  0  0
   38.5190   31.1590   41.2980 N   0  0  0  0  0  0  0  0  0  0  0  0
   40.4960   30.8560   42.6830 N   0  0  0  0  0  0  0  0  0  0  0  0
   36.6530   27.8340   43.1980 C   0  0  0  0  0  0  0  0  0  0  0  0
   36.7130   27.9270   44.6990 C   0  0  0  0  0  0  0  0  0  0  0  0
   37.3960   26.5740   42.6970 C   0  0  0  0  0  0  0  0  0  0  0  0
   39.1351   28.8625   43.6875 H   0  0  0  0  0  0  0  0  0  0  0  0
   36.7366   31.3092   40.1568 H   0  0  0  0  0  0  0  0  0  0  0  0
   40.9769   31.6543   42.2445 H   0  0  0  0  0  0  0  0  0  0  0  0
   40.9640   30.3178   43.4261 H   0  0  0  0  0  0  0  0  0  0  0  0
   35.5819   27.8008   42.9496 H   0  0  0  0  0  0  0  0  0  0  0  0
   36.1669   27.0806   45.1409 H   0  0  0  0  0  0  0  0  0  0  0  0
   37.7627   27.8973   45.0265 H   0  0  0  0  0  0  0  0  0  0  0  0
   36.2533   28.8711   45.0265 H   0  0  0  0  0  0  0  0  0  0  0  0
   37.7429   25.9857   43.5593 H   0  0  0  0  0  0  0  0  0  0  0  0
   36.7132   25.9637   42.0876 H   0  0  0  0  0  0  0  0  0  0  0  0
   38.2605   26.8761   42.0876 H   0  0  0  0  0  0  0  0  0  0  0  0
  1  7  1  0
  1  2  2  0
  3  2  1  0
  3  8  1  0
  4  3  2  0
  5  6  2  0
  5  4  1  0
  6  1  1  0
  8  9  1  0
 10  8  1  0
  2 11  1  0
  5 12  1  0
  7 13  1  0
  7 14  1  0
  8 15  1  0
  9 16  1  0
  9 17  1  0
  9 18  1  0
 10 19  1  0
 10 20  1  0
 10 21  1  0
M  ISO  8  11  14  12  14  15   8  16   8  17   8  18   8  19   8  20   8
M  ISO  1  21   8
M  END
>  <minimizedAffinity>  (1) 
-3.69081831

>  <minimizedRMSD>  (1) 
0.149562687

$$$$
