
     RDKit          3D

 20 20  0  0  0  0  0  0  0  0999 V2000
   39.2450   30.5310   42.1660 C   0  0  0  0  0  0  0  0  0  0  0  0
   38.6820   29.4260   42.8330 C   0  0  0  0  0  0  0  0  0  0  0  0
   37.3430   29.0560   42.5140 C   0  0  0  0  0  0  0  0  0  0  0  0
   36.6840   29.8070   41.5680 N   0  0  0  0  0  0  0  0  0  0  0  0
   37.2610   30.8580   40.9540 C   0  0  0  0  0  0  0  0  0  0  0  0
   38.5310   31.2210   41.2460 N   0  0  0  0  0  0  0  0  0  0  0  0
   36.7080   27.9020   43.1820 C   0  0  0  0  0  0  0  0  0  0  0  0
   36.7610   27.9950   44.6840 C   0  0  0  0  0  0  0  0  0  0  0  0
   37.4900   26.6500   42.7190 C   0  0  0  0  0  0  0  0  0  0  0  0
   40.9170   30.9230   42.6230 S   0  0  0  0  0  0  0  0  0  0  0  0
   39.2603   28.8632   43.5805 H   0  0  0  0  0  0  0  0  0  0  0  0
   36.6920   31.4286   40.2053 H   0  0  0  0  0  0  0  0  0  0  0  0
   35.6423   27.8648   42.9120 H   0  0  0  0  0  0  0  0  0  0  0  0
   36.2617   27.1189   45.1235 H   0  0  0  0  0  0  0  0  0  0  0  0
   37.8103   28.0223   45.0129 H   0  0  0  0  0  0  0  0  0  0  0  0
   36.2497   28.9117   45.0129 H   0  0  0  0  0  0  0  0  0  0  0  0
   37.8398   26.0900   43.5988 H   0  0  0  0  0  0  0  0  0  0  0  0
   36.8314   26.0091   42.1145 H   0  0  0  0  0  0  0  0  0  0  0  0
   38.3549   26.9607   42.1145 H   0  0  0  0  0  0  0  0  0  0  0  0
   41.0233   30.9479   43.9886 H   0  0  0  0  0  0  0  0  0  0  0  0
  1 10  1  0
  1  2  2  0
  3  2  1  0
  3  7  1  0
  4  3  2  0
  5  6  2  0
  5  4  1  0
  6  1  1  0
  7  8  1  0
  9  7  1  0
  2 11  1  0
  5 12  1  0
  7 13  1  0
  8 14  1  0
  8 15  1  0
  8 16  1  0
  9 17  1  0
  9 18  1  0
  9 19  1  0
 10 20  1  0
M  ISO  8  11  14  12  14  13   8  14   8  15   8  16   8  17   8  18   8
M  ISO  2  19   8  20  11
M  END
>  <minimizedAffinity>  (1) 
-3.65821791

>  <minimizedRMSD>  (1) 
0.207993075

$$$$
