
     RDKit          3D

 31 32  0  0  1  0  0  0  0  0999 V2000
   40.1290   28.6620   41.9920 N   0  0  0  0  0  0  0  0  0  0  0  0
   40.2430   29.5790   40.8870 C   0  0  0  0  0  0  0  0  0  0  0  0
   41.3440   29.0120   40.0230 C   0  0  0  0  0  0  0  0  0  0  0  0
   42.5750   29.1240   40.7250 N   0  0  0  0  0  0  0  0  0  0  0  0
   42.5450   28.9360   42.1230 C   0  0  0  0  0  0  0  0  0  0  0  0
   41.3340   28.2820   42.6680 C   0  0  2  0  0  0  0  0  0  0  0  0
   38.9070   28.1070   42.4600 C   0  0  0  0  0  0  0  0  0  0  0  0
   38.1650   28.6940   43.5070 C   0  0  0  0  0  0  0  0  0  0  0  0
   36.9730   28.0630   43.8900 C   0  0  0  0  0  0  0  0  0  0  0  0
   36.6080   26.9210   43.2280 N   0  0  0  0  0  0  0  0  0  0  0  0
   37.3520   26.4050   42.2380 C   0  0  0  0  0  0  0  0  0  0  0  0
   38.5000   26.9790   41.8400 N   0  0  0  0  0  0  0  0  0  0  0  0
   41.5050   26.8390   42.5550 N   0  0  0  0  0  0  0  0  0  0  0  0
   41.9810   26.1070   43.6730 C   0  0  0  0  0  0  0  0  0  0  0  0
   41.7060   26.5720   44.8530 N   0  0  0  0  0  0  0  0  0  0  0  0
   42.7420   24.8970   43.4810 N   0  0  0  0  0  0  0  0  0  0  0  0
   42.0610   26.0260   45.6570 H   0  0  0  0  0  0  0  0  0  0  0  0
   39.2979   29.6287   40.3263 H   0  0  0  0  0  0  0  0  0  0  0  0
   40.4646   30.6035   41.2205 H   0  0  0  0  0  0  0  0  0  0  0  0
   41.4025   29.5756   39.0802 H   0  0  0  0  0  0  0  0  0  0  0  0
   41.1364   27.9561   39.7948 H   0  0  0  0  0  0  0  0  0  0  0  0
   43.2192   28.4225   40.3328 H   0  0  0  0  0  0  0  0  0  0  0  0
   43.4126   28.3180   42.3973 H   0  0  0  0  0  0  0  0  0  0  0  0
   42.5544   29.9469   42.5565 H   0  0  0  0  0  0  0  0  0  0  0  0
   41.2263   28.6048   43.7141 H   0  0  0  0  0  0  0  0  0  0  0  0
   38.5091   29.6128   44.0043 H   0  0  0  0  0  0  0  0  0  0  0  0
   36.3495   28.4730   44.6982 H   0  0  0  0  0  0  0  0  0  0  0  0
   37.0126   25.4859   41.7379 H   0  0  0  0  0  0  0  0  0  0  0  0
   41.2826   26.3559   41.6729 H   0  0  0  0  0  0  0  0  0  0  0  0
   43.0851   24.3695   44.2965 H   0  0  0  0  0  0  0  0  0  0  0  0
   42.9424   24.5603   42.5284 H   0  0  0  0  0  0  0  0  0  0  0  0
  1  7  1  0
  1  6  1  0
  2  1  1  0
  3  4  1  0
  3  2  1  0
  4  5  1  0
  5  6  1  0
  7  8  2  0
  8  9  1  0
 10  9  2  0
 11 10  1  0
 12 11  2  0
 12  7  1  0
 13  6  1  0
 13 14  1  0
 14 15  2  0
 15 17  1  0
 16 14  1  0
  2 18  1  0
  2 19  1  0
  3 20  1  0
  3 21  1  0
  4 22  1  0
  5 23  1  0
  5 24  1  0
  6 25  1  1
  8 26  1  0
  9 27  1  0
 11 28  1  0
 13 29  1  0
 16 30  1  0
 16 31  1  0
M  ISO  8  18  13  19  13  20  13  21  13  22   5  23  13  24  13  25  13
M  ISO  3  26  14  27  14  28  14
M  END
>  <minimizedAffinity>  (1) 
-4.08254337

>  <minimizedRMSD>  (1) 
2.70813107

$$$$
