
     RDKit          3D

 44 47  0  0  1  0  0  0  0  0999 V2000
   39.1140   30.7800   41.8580 C   0  0  0  0  0  0  0  0  0  0  0  0
   38.7200   29.6380   42.5400 C   0  0  0  0  0  0  0  0  0  0  0  0
   37.4600   29.0580   42.5040 C   0  0  0  0  0  0  0  0  0  0  0  0
   36.6010   29.7280   41.7130 N   0  0  0  0  0  0  0  0  0  0  0  0
   36.9190   30.8230   41.0400 C   0  0  0  0  0  0  0  0  0  0  0  0
   38.1450   31.3180   41.1230 N   0  0  0  0  0  0  0  0  0  0  0  0
   40.3850   31.4300   41.8740 C   0  0  0  0  0  0  0  0  0  0  0  0
   41.3490   30.9740   42.7700 C   0  0  0  0  0  0  0  0  0  0  0  0
   42.6010   31.5300   42.9250 C   0  0  0  0  0  0  0  0  0  0  0  0
   42.9410   32.6060   42.1560 C   0  0  0  0  0  0  0  0  0  0  0  0
   42.0320   33.1160   41.2390 C   0  0  0  0  0  0  0  0  0  0  0  0
   42.3570   34.1910   40.4580 C   0  0  0  0  0  0  0  0  0  0  0  0
   41.4780   34.7220   39.5290 C   0  0  0  0  0  0  0  0  0  0  0  0
   40.2490   34.0940   39.4420 C   0  0  0  0  0  0  0  0  0  0  0  0
   39.9760   33.0270   40.2460 C   0  0  0  0  0  0  0  0  0  0  0  0
   40.8310   32.5000   41.1610 C   0  0  0  0  0  0  0  0  0  0  0  0
   37.1640   27.8700   43.3270 C   0  0  2  0  0  0  0  0  0  0  0  0
   36.8100   28.2160   44.7550 C   0  0  0  0  0  0  0  0  0  0  0  0
   38.3060   26.8950   43.2390 C   0  0  0  0  0  0  0  0  0  0  0  0
   38.1070   25.7170   42.4140 C   0  0  0  0  0  0  0  0  0  0  0  0
   37.0780   24.8750   42.0810 C   0  0  0  0  0  0  0  0  0  0  0  0
   37.1100   23.8150   41.2370 C   0  0  0  0  0  0  0  0  0  0  0  0
   38.2630   23.4820   40.6080 C   0  0  0  0  0  0  0  0  0  0  0  0
   39.3300   24.3010   40.9090 C   0  0  0  0  0  0  0  0  0  0  0  0
   39.2410   25.3290   41.7460 N   0  0  0  0  0  0  0  0  0  0  0  0
   39.4774   29.1462   43.1681 H   0  0  0  0  0  0  0  0  0  0  0  0
   36.1656   31.3214   40.4123 H   0  0  0  0  0  0  0  0  0  0  0  0
   41.0931   30.1085   43.3988 H   0  0  0  0  0  0  0  0  0  0  0  0
   43.3124   31.1149   43.6541 H   0  0  0  0  0  0  0  0  0  0  0  0
   43.9336   33.0679   42.2630 H   0  0  0  0  0  0  0  0  0  0  0  0
   43.3505   34.6493   40.5718 H   0  0  0  0  0  0  0  0  0  0  0  0
   41.7401   35.5866   38.9015 H   0  0  0  0  0  0  0  0  0  0  0  0
   39.4945   34.4538   38.7270 H   0  0  0  0  0  0  0  0  0  0  0  0
   38.9868   32.5564   40.1460 H   0  0  0  0  0  0  0  0  0  0  0  0
   36.2622   27.3903   42.9188 H   0  0  0  0  0  0  0  0  0  0  0  0
   37.4249   27.6150   45.4411 H   0  0  0  0  0  0  0  0  0  0  0  0
   37.0015   29.2847   44.9316 H   0  0  0  0  0  0  0  0  0  0  0  0
   35.7460   28.0001   44.9316 H   0  0  0  0  0  0  0  0  0  0  0  0
   39.1749   27.4375   42.8381 H   0  0  0  0  0  0  0  0  0  0  0  0
   38.4304   26.5090   44.2615 H   0  0  0  0  0  0  0  0  0  0  0  0
   36.1086   25.0851   42.5565 H   0  0  0  0  0  0  0  0  0  0  0  0
   36.1987   23.2242   41.0624 H   0  0  0  0  0  0  0  0  0  0  0  0
   38.3409   22.6305   39.9160 H   0  0  0  0  0  0  0  0  0  0  0  0
   40.3004   24.0939   40.4341 H   0  0  0  0  0  0  0  0  0  0  0  0
  1  7  1  0
  1  2  2  0
  3  2  1  0
  3 17  1  0
  4  3  2  0
  5  6  2  0
  5  4  1  0
  6  1  1  0
  7  8  2  0
  8  9  1  0
 10  9  2  0
 11 10  1  0
 12 11  2  0
 13 12  1  0
 14 13  2  0
 14 15  1  0
 15 16  2  0
 16 11  1  0
 16  7  1  0
 17 18  1  0
 19 17  1  0
 20 19  1  0
 21 20  2  0
 22 21  1  0
 23 24  1  0
 23 22  2  0
 24 25  2  0
 25 20  1  0
  2 26  1  0
  5 27  1  0
  8 28  1  0
  9 29  1  0
 10 30  1  0
 12 31  1  0
 13 32  1  0
 14 33  1  0
 15 34  1  0
 17 35  1  6
 18 36  1  0
 18 37  1  0
 18 38  1  0
 19 39  1  0
 19 40  1  0
 21 41  1  0
 22 42  1  0
 23 43  1  0
 24 44  1  0
M  ISO  8  26  14  27  14  28  14  29  14  30  14  31  14  32  14  33  14
M  ISO  8  34  14  35   8  36   8  37   8  38   8  39   8  40   8  41  14
M  ISO  3  42  14  43  14  44  14
M  END
>  <minimizedAffinity>  (1) 
-6.52553797

>  <minimizedRMSD>  (1) 
1.30624461

$$$$
