
     RDKit          3D

 50 53  0  0  1  0  0  0  0  0999 V2000
   39.0670   30.8400   41.7500 C   0  0  0  0  0  0  0  0  0  0  0  0
   38.6340   29.6670   42.3560 C   0  0  0  0  0  0  0  0  0  0  0  0
   37.3610   29.1230   42.2770 C   0  0  0  0  0  0  0  0  0  0  0  0
   36.5290   29.8760   41.5130 N   0  0  0  0  0  0  0  0  0  0  0  0
   36.8850   31.0080   40.9080 C   0  0  0  0  0  0  0  0  0  0  0  0
   38.1220   31.4590   41.0360 N   0  0  0  0  0  0  0  0  0  0  0  0
   40.3520   31.4520   41.8240 C   0  0  0  0  0  0  0  0  0  0  0  0
   41.2670   30.9620   42.7550 C   0  0  0  0  0  0  0  0  0  0  0  0
   42.5280   31.4790   42.9600 C   0  0  0  0  0  0  0  0  0  0  0  0
   42.9370   32.5560   42.2070 C   0  0  0  0  0  0  0  0  0  0  0  0
   42.0720   33.0900   41.2620 C   0  0  0  0  0  0  0  0  0  0  0  0
   42.4630   34.1590   40.4960 C   0  0  0  0  0  0  0  0  0  0  0  0
   41.6440   34.7200   39.5370 C   0  0  0  0  0  0  0  0  0  0  0  0
   40.4050   34.1250   39.4060 C   0  0  0  0  0  0  0  0  0  0  0  0
   40.0580   33.0620   40.1920 C   0  0  0  0  0  0  0  0  0  0  0  0
   40.8590   32.5110   41.1360 C   0  0  0  0  0  0  0  0  0  0  0  0
   36.9770   27.8810   42.9700 C   0  0  2  0  0  0  0  0  0  0  0  0
   36.8720   28.1080   44.4830 C   0  0  0  0  0  0  0  0  0  0  0  0
   38.0840   26.8580   42.7320 C   0  0  0  0  0  0  0  0  0  0  0  0
   38.1480   26.3720   41.3990 N   0  0  0  0  0  0  0  0  0  0  0  0
   36.9710   25.7830   40.8660 C   0  0  0  0  0  0  0  0  0  0  0  0
   36.7190   24.3870   41.4020 C   0  0  0  0  0  0  0  0  0  0  0  0
   37.9200   23.5040   41.2790 C   0  0  0  0  0  0  0  0  0  0  0  0
   39.0960   24.1770   41.9260 C   0  0  0  0  0  0  0  0  0  0  0  0
   39.2770   25.5020   41.2090 C   0  0  0  0  0  0  0  0  0  0  0  0
   39.3729   29.1164   42.9568 H   0  0  0  0  0  0  0  0  0  0  0  0
   36.1535   31.5654   40.3045 H   0  0  0  0  0  0  0  0  0  0  0  0
   40.9609   30.1023   43.3691 H   0  0  0  0  0  0  0  0  0  0  0  0
   43.1970   31.0378   43.7135 H   0  0  0  0  0  0  0  0  0  0  0  0
   43.9379   32.9886   42.3524 H   0  0  0  0  0  0  0  0  0  0  0  0
   43.4654   34.5844   40.6518 H   0  0  0  0  0  0  0  0  0  0  0  0
   41.9554   35.5776   38.9226 H   0  0  0  0  0  0  0  0  0  0  0  0
   39.6911   34.5097   38.6628 H   0  0  0  0  0  0  0  0  0  0  0  0
   39.0595   32.6234   40.0484 H   0  0  0  0  0  0  0  0  0  0  0  0
   36.0033   27.5407   42.5878 H   0  0  0  0  0  0  0  0  0  0  0  0
   37.2765   27.2336   45.0139 H   0  0  0  0  0  0  0  0  0  0  0  0
   37.4473   29.0037   44.7602 H   0  0  0  0  0  0  0  0  0  0  0  0
   35.8170   28.2496   44.7602 H   0  0  0  0  0  0  0  0  0  0  0  0
   39.0479   27.3294   42.9744 H   0  0  0  0  0  0  0  0  0  0  0  0
   37.8602   25.9935   43.3743 H   0  0  0  0  0  0  0  0  0  0  0  0
   36.1116   26.4192   41.1241 H   0  0  0  0  0  0  0  0  0  0  0  0
   37.1050   25.7010   39.7773 H   0  0  0  0  0  0  0  0  0  0  0  0
   36.4421   24.4609   42.4640 H   0  0  0  0  0  0  0  0  0  0  0  0
   35.9108   23.9392   40.8051 H   0  0  0  0  0  0  0  0  0  0  0  0
   37.7239   22.5444   41.7797 H   0  0  0  0  0  0  0  0  0  0  0  0
   38.1373   23.3216   40.2162 H   0  0  0  0  0  0  0  0  0  0  0  0
   38.8973   24.3464   42.9946 H   0  0  0  0  0  0  0  0  0  0  0  0
   40.0013   23.5564   41.8531 H   0  0  0  0  0  0  0  0  0  0  0  0
   39.4013   25.3102   40.1330 H   0  0  0  0  0  0  0  0  0  0  0  0
   40.1647   25.9984   41.6280 H   0  0  0  0  0  0  0  0  0  0  0  0
  1  7  1  0
  1  2  2  0
  3  2  1  0
  3 17  1  0
  4  3  2  0
  5  6  2  0
  5  4  1  0
  6  1  1  0
  7  8  2  0
  8  9  1  0
 10  9  2  0
 11 10  1  0
 12 11  2  0
 13 12  1  0
 14 13  2  0
 14 15  1  0
 15 16  2  0
 16 11  1  0
 16  7  1  0
 17 18  1  0
 19 17  1  0
 20 19  1  0
 21 20  1  0
 21 22  1  0
 23 22  1  0
 23 24  1  0
 25 20  1  0
 25 24  1  0
  2 26  1  0
  5 27  1  0
  8 28  1  0
  9 29  1  0
 10 30  1  0
 12 31  1  0
 13 32  1  0
 14 33  1  0
 15 34  1  0
 17 35  1  6
 18 36  1  0
 18 37  1  0
 18 38  1  0
 19 39  1  0
 19 40  1  0
 21 41  1  0
 21 42  1  0
 22 43  1  0
 22 44  1  0
 23 45  1  0
 23 46  1  0
 24 47  1  0
 24 48  1  0
 25 49  1  0
 25 50  1  0
M  ISO  8  26  14  27  14  28  14  29  14  30  14  31  14  32  14  33  14
M  ISO  8  34  14  35   8  36   8  37   8  38   8  39   8  40   8  41  13
M  ISO  8  42  13  43  13  44  13  45  13  46  13  47  13  48  13  49  13
M  ISO  1  50  13
M  END
>  <minimizedAffinity>  (1) 
-6.38554525

>  <minimizedRMSD>  (1) 
1.265751

$$$$
