
     RDKit          3D

 38 40  0  0  1  0  0  0  0  0999 V2000
   39.8270   29.2060   42.7560 N   0  0  0  0  0  0  0  0  0  0  0  0
   40.1230   30.6120   42.6220 C   0  0  0  0  0  0  0  0  0  0  0  0
   41.2870   30.6490   41.6450 C   0  0  0  0  0  0  0  0  0  0  0  0
   42.4230   30.1680   42.3410 N   0  0  0  0  0  0  0  0  0  0  0  0
   42.2730   28.8950   42.9440 C   0  0  0  0  0  0  0  0  0  0  0  0
   40.9130   28.3090   43.0310 C   0  0  2  0  0  0  0  0  0  0  0  0
   38.5210   28.6480   42.6400 C   0  0  0  0  0  0  0  0  0  0  0  0
   37.8790   28.0520   43.7320 C   0  0  0  0  0  0  0  0  0  0  0  0
   36.5940   27.5310   43.5210 C   0  0  0  0  0  0  0  0  0  0  0  0
   36.0550   27.6450   42.2580 N   0  0  0  0  0  0  0  0  0  0  0  0
   36.7190   28.2260   41.2560 C   0  0  0  0  0  0  0  0  0  0  0  0
   37.9450   28.7300   41.4270 N   0  0  0  0  0  0  0  0  0  0  0  0
   40.8620   27.0480   42.3960 N   0  0  0  0  0  0  0  0  0  0  0  0
   41.3290   26.9120   41.0790 C   0  0  0  0  0  0  0  0  0  0  0  0
   41.7900   25.4480   40.9540 C   0  0  0  0  0  0  0  0  0  0  0  0
   42.8410   25.2770   41.9070 N   0  0  0  0  0  0  0  0  0  0  0  0
   42.3000   25.2410   43.2310 C   0  0  0  0  0  0  0  0  0  0  0  0
   40.9420   25.9130   43.2370 C   0  0  0  0  0  0  0  0  0  0  0  0
   39.2568   31.1577   42.2196 H   0  0  0  0  0  0  0  0  0  0  0  0
   40.3614   31.0889   43.5841 H   0  0  0  0  0  0  0  0  0  0  0  0
   41.4613   31.6798   41.3029 H   0  0  0  0  0  0  0  0  0  0  0  0
   41.0774   30.0319   40.7589 H   0  0  0  0  0  0  0  0  0  0  0  0
   43.2050   30.1128   41.6729 H   0  0  0  0  0  0  0  0  0  0  0  0
   42.8945   28.1898   42.3727 H   0  0  0  0  0  0  0  0  0  0  0  0
   42.5638   29.0576   43.9923 H   0  0  0  0  0  0  0  0  0  0  0  0
   40.7241   28.1148   44.0971 H   0  0  0  0  0  0  0  0  0  0  0  0
   38.3638   27.9945   44.7177 H   0  0  0  0  0  0  0  0  0  0  0  0
   36.0354   27.0478   44.3361 H   0  0  0  0  0  0  0  0  0  0  0  0
   36.2454   28.2915   40.2653 H   0  0  0  0  0  0  0  0  0  0  0  0
   40.5225   27.1235   40.3615 H   0  0  0  0  0  0  0  0  0  0  0  0
   42.1452   27.6165   40.8611 H   0  0  0  0  0  0  0  0  0  0  0  0
   40.9570   24.7656   41.1787 H   0  0  0  0  0  0  0  0  0  0  0  0
   42.1340   25.2223   39.9338 H   0  0  0  0  0  0  0  0  0  0  0  0
   43.3342   24.3932   41.7159 H   0  0  0  0  0  0  0  0  0  0  0  0
   42.1938   24.1955   43.5560 H   0  0  0  0  0  0  0  0  0  0  0  0
   42.9755   25.7705   43.9190 H   0  0  0  0  0  0  0  0  0  0  0  0
   40.7155   26.2276   44.2664 H   0  0  0  0  0  0  0  0  0  0  0  0
   40.2196   25.1781   42.8523 H   0  0  0  0  0  0  0  0  0  0  0  0
  1  6  1  0
  2  1  1  0
  3  4  1  0
  3  2  1  0
  4  5  1  0
  5  6  1  0
  7  1  1  0
  7  8  2  0
  9  8  1  0
 10  9  2  0
 11 12  2  0
 11 10  1  0
 12  7  1  0
 13  6  1  0
 13 18  1  0
 14 13  1  0
 15 14  1  0
 15 16  1  0
 16 17  1  0
 17 18  1  0
  2 19  1  0
  2 20  1  0
  3 21  1  0
  3 22  1  0
  4 23  1  0
  5 24  1  0
  5 25  1  0
  6 26  1  1
  8 27  1  0
  9 28  1  0
 11 29  1  0
 14 30  1  0
 14 31  1  0
 15 32  1  0
 15 33  1  0
 16 34  1  0
 17 35  1  0
 17 36  1  0
 18 37  1  0
 18 38  1  0
M  ISO  8  19  13  20  13  21  13  22  13  23   5  24  13  25  13  26  13
M  ISO  8  27  14  28  14  29  14  30  13  31  13  32  13  33  13  34   5
M  ISO  4  35  13  36  13  37  13  38  13
M  END
>  <minimizedAffinity>  (1) 
-3.84210515

>  <minimizedRMSD>  (1) 
1.17493618

$$$$
