
     RDKit          3D

 43 46  0  0  1  0  0  0  0  0999 V2000
   39.1270   30.8030   41.8340 C   0  0  0  0  0  0  0  0  0  0  0  0
   38.7560   29.6400   42.4990 C   0  0  0  0  0  0  0  0  0  0  0  0
   37.4880   29.0600   42.4690 C   0  0  0  0  0  0  0  0  0  0  0  0
   36.6180   29.7560   41.7010 N   0  0  0  0  0  0  0  0  0  0  0  0
   36.9140   30.8650   41.0460 C   0  0  0  0  0  0  0  0  0  0  0  0
   38.1410   31.3530   41.1290 N   0  0  0  0  0  0  0  0  0  0  0  0
   40.3890   31.4650   41.8470 C   0  0  0  0  0  0  0  0  0  0  0  0
   41.3570   31.0140   42.7430 C   0  0  0  0  0  0  0  0  0  0  0  0
   42.6110   31.5730   42.9040 C   0  0  0  0  0  0  0  0  0  0  0  0
   42.9440   32.6600   42.1240 C   0  0  0  0  0  0  0  0  0  0  0  0
   42.0220   33.1570   41.2110 C   0  0  0  0  0  0  0  0  0  0  0  0
   42.3490   34.2350   40.4290 C   0  0  0  0  0  0  0  0  0  0  0  0
   41.4720   34.7610   39.5030 C   0  0  0  0  0  0  0  0  0  0  0  0
   40.2440   34.1230   39.4190 C   0  0  0  0  0  0  0  0  0  0  0  0
   39.9700   33.0540   40.2210 C   0  0  0  0  0  0  0  0  0  0  0  0
   40.8260   32.5340   41.1350 C   0  0  0  0  0  0  0  0  0  0  0  0
   37.1780   27.8460   43.2480 C   0  0  2  0  0  0  0  0  0  0  0  0
   36.7940   28.1960   44.6870 C   0  0  0  0  0  0  0  0  0  0  0  0
   38.3980   26.9610   43.2960 C   0  0  0  0  0  0  0  0  0  0  0  0
   38.3040   25.7370   42.5000 C   0  0  0  0  0  0  0  0  0  0  0  0
   39.2650   24.8870   41.9910 C   0  0  0  0  0  0  0  0  0  0  0  0
   38.9040   23.7780   41.2550 C   0  0  0  0  0  0  0  0  0  0  0  0
   37.6150   23.4840   41.0100 N   0  0  0  0  0  0  0  0  0  0  0  0
   36.6910   24.3160   41.5110 C   0  0  0  0  0  0  0  0  0  0  0  0
   37.0000   25.4200   42.2390 N   0  0  0  0  0  0  0  0  0  0  0  0
   39.5271   29.1349   43.0992 H   0  0  0  0  0  0  0  0  0  0  0  0
   36.1508   31.3753   40.4402 H   0  0  0  0  0  0  0  0  0  0  0  0
   41.1035   30.1466   43.3702 H   0  0  0  0  0  0  0  0  0  0  0  0
   43.3235   31.1619   43.6343 H   0  0  0  0  0  0  0  0  0  0  0  0
   43.9332   33.1307   42.2238 H   0  0  0  0  0  0  0  0  0  0  0  0
   43.3417   34.6947   40.5437 H   0  0  0  0  0  0  0  0  0  0  0  0
   41.7292   35.6266   38.8749 H   0  0  0  0  0  0  0  0  0  0  0  0
   39.4884   34.4798   38.7036 H   0  0  0  0  0  0  0  0  0  0  0  0
   38.9829   32.5794   40.1188 H   0  0  0  0  0  0  0  0  0  0  0  0
   36.3345   27.3357   42.7600 H   0  0  0  0  0  0  0  0  0  0  0  0
   37.4229   27.6228   45.3841 H   0  0  0  0  0  0  0  0  0  0  0  0
   36.9465   29.2722   44.8558 H   0  0  0  0  0  0  0  0  0  0  0  0
   35.7365   27.9446   44.8558 H   0  0  0  0  0  0  0  0  0  0  0  0
   39.2563   27.5424   42.9283 H   0  0  0  0  0  0  0  0  0  0  0  0
   38.5049   26.6403   44.3428 H   0  0  0  0  0  0  0  0  0  0  0  0
   40.3293   25.0962   42.1742 H   0  0  0  0  0  0  0  0  0  0  0  0
   39.6897   23.1179   40.8587 H   0  0  0  0  0  0  0  0  0  0  0  0
   35.6302   24.0935   41.3232 H   0  0  0  0  0  0  0  0  0  0  0  0
  1  7  1  0
  1  2  2  0
  3  2  1  0
  3 17  1  0
  4  3  2  0
  5  6  2  0
  5  4  1  0
  6  1  1  0
  7  8  2  0
  8  9  1  0
 10  9  2  0
 11 10  1  0
 12 11  2  0
 13 12  1  0
 14 13  2  0
 14 15  1  0
 15 16  2  0
 16 11  1  0
 16  7  1  0
 17 19  1  0
 17 18  1  0
 20 19  1  0
 21 20  2  0
 22 21  1  0
 23 22  2  0
 23 24  1  0
 24 25  2  0
 25 20  1  0
  2 26  1  0
  5 27  1  0
  8 28  1  0
  9 29  1  0
 10 30  1  0
 12 31  1  0
 13 32  1  0
 14 33  1  0
 15 34  1  0
 17 35  1  6
 18 36  1  0
 18 37  1  0
 18 38  1  0
 19 39  1  0
 19 40  1  0
 21 41  1  0
 22 42  1  0
 24 43  1  0
M  ISO  8  26  14  27  14  28  14  29  14  30  14  31  14  32  14  33  14
M  ISO  8  34  14  35   8  36   8  37   8  38   8  39   8  40   8  41  14
M  ISO  2  42  14  43  14
M  END
>  <minimizedAffinity>  (1) 
-6.38354635

>  <minimizedRMSD>  (1) 
1.38575983

$$$$
