
     RDKit          3D

 51 54  0  0  1  0  0  0  0  0999 V2000
   39.1860   30.7450   41.8930 C   0  0  0  0  0  0  0  0  0  0  0  0
   38.8310   29.5960   42.5920 C   0  0  0  0  0  0  0  0  0  0  0  0
   37.5880   28.9990   42.5680 C   0  0  0  0  0  0  0  0  0  0  0  0
   36.6980   29.6460   41.7760 N   0  0  0  0  0  0  0  0  0  0  0  0
   36.9790   30.7480   41.0850 C   0  0  0  0  0  0  0  0  0  0  0  0
   38.1940   31.2720   41.1510 N   0  0  0  0  0  0  0  0  0  0  0  0
   40.4410   31.4220   41.8910 C   0  0  0  0  0  0  0  0  0  0  0  0
   41.4100   31.0170   42.8080 C   0  0  0  0  0  0  0  0  0  0  0  0
   42.6520   31.6060   42.9430 C   0  0  0  0  0  0  0  0  0  0  0  0
   42.9800   32.6650   42.1320 C   0  0  0  0  0  0  0  0  0  0  0  0
   42.0550   33.1140   41.1960 C   0  0  0  0  0  0  0  0  0  0  0  0
   42.3760   34.1620   40.3780 C   0  0  0  0  0  0  0  0  0  0  0  0
   41.4930   34.6390   39.4220 C   0  0  0  0  0  0  0  0  0  0  0  0
   40.2780   33.9820   39.3580 C   0  0  0  0  0  0  0  0  0  0  0  0
   40.0130   32.9390   40.2050 C   0  0  0  0  0  0  0  0  0  0  0  0
   40.8710   32.4700   41.1420 C   0  0  0  0  0  0  0  0  0  0  0  0
   37.2930   27.7760   43.3500 C   0  0  2  0  0  0  0  0  0  0  0  0
   36.7730   28.1130   44.7410 C   0  0  0  0  0  0  0  0  0  0  0  0
   38.5540   26.9590   43.4230 C   0  0  0  0  0  0  0  0  0  0  0  0
   38.4020   25.5530   42.8550 C   0  0  0  0  0  0  0  0  0  0  0  0
   39.5840   25.3740   41.8800 C   0  0  0  0  0  0  0  0  0  0  0  0
   39.2130   24.3050   40.8920 C   0  0  0  0  0  0  0  0  0  0  0  0
   38.2330   24.9080   39.9240 C   0  0  0  0  0  0  0  0  0  0  0  0
   37.1900   25.6840   40.6630 C   0  0  0  0  0  0  0  0  0  0  0  0
   37.0980   25.3460   42.1320 C   0  0  0  0  0  0  0  0  0  0  0  0
   39.6054   29.1248   43.2152 H   0  0  0  0  0  0  0  0  0  0  0  0
   36.2061   31.2216   40.4619 H   0  0  0  0  0  0  0  0  0  0  0  0
   41.1691   30.1711   43.4687 H   0  0  0  0  0  0  0  0  0  0  0  0
   43.3684   31.2323   43.6894 H   0  0  0  0  0  0  0  0  0  0  0  0
   43.9623   33.1518   42.2219 H   0  0  0  0  0  0  0  0  0  0  0  0
   43.3616   34.6393   40.4816 H   0  0  0  0  0  0  0  0  0  0  0  0
   41.7415   35.4817   38.7602 H   0  0  0  0  0  0  0  0  0  0  0  0
   39.5218   34.2981   38.6244 H   0  0  0  0  0  0  0  0  0  0  0  0
   39.0331   32.4469   40.1180 H   0  0  0  0  0  0  0  0  0  0  0  0
   36.4977   27.2003   42.8540 H   0  0  0  0  0  0  0  0  0  0  0  0
   37.4428   27.6789   45.4979 H   0  0  0  0  0  0  0  0  0  0  0  0
   36.7388   29.2055   44.8649 H   0  0  0  0  0  0  0  0  0  0  0  0
   35.7618   27.6980   44.8649 H   0  0  0  0  0  0  0  0  0  0  0  0
   39.3397   27.4802   42.8564 H   0  0  0  0  0  0  0  0  0  0  0  0
   38.8084   26.8517   44.4878 H   0  0  0  0  0  0  0  0  0  0  0  0
   38.4023   24.8151   43.6708 H   0  0  0  0  0  0  0  0  0  0  0  0
   39.7787   26.3191   41.3519 H   0  0  0  0  0  0  0  0  0  0  0  0
   40.4927   25.0876   42.4297 H   0  0  0  0  0  0  0  0  0  0  0  0
   40.1095   23.9620   40.3548 H   0  0  0  0  0  0  0  0  0  0  0  0
   38.7694   23.4390   41.4050 H   0  0  0  0  0  0  0  0  0  0  0  0
   37.7492   24.1049   39.3488 H   0  0  0  0  0  0  0  0  0  0  0  0
   38.7702   25.5852   39.2437 H   0  0  0  0  0  0  0  0  0  0  0  0
   37.4239   26.7547   40.5685 H   0  0  0  0  0  0  0  0  0  0  0  0
   36.2206   25.4207   40.2148 H   0  0  0  0  0  0  0  0  0  0  0  0
   36.3330   25.9873   42.5941 H   0  0  0  0  0  0  0  0  0  0  0  0
   36.8366   24.2806   42.2136 H   0  0  0  0  0  0  0  0  0  0  0  0
  1  2  2  0
  3  2  1  0
  3 17  1  0
  4  3  2  0
  5  6  2  0
  5  4  1  0
  6  1  1  0
  7  1  1  0
  7  8  2  0
  8  9  1  0
 10  9  2  0
 11 10  1  0
 12 11  2  0
 13 12  1  0
 14 13  2  0
 14 15  1  0
 15 16  2  0
 16 11  1  0
 16  7  1  0
 17 19  1  0
 17 18  1  0
 20 19  1  0
 21 20  1  0
 22 21  1  0
 23 24  1  0
 23 22  1  0
 24 25  1  0
 25 20  1  0
  2 26  1  0
  5 27  1  0
  8 28  1  0
  9 29  1  0
 10 30  1  0
 12 31  1  0
 13 32  1  0
 14 33  1  0
 15 34  1  0
 17 35  1  6
 18 36  1  0
 18 37  1  0
 18 38  1  0
 19 39  1  0
 19 40  1  0
 20 41  1  0
 21 42  1  0
 21 43  1  0
 22 44  1  0
 22 45  1  0
 23 46  1  0
 23 47  1  0
 24 48  1  0
 24 49  1  0
 25 50  1  0
 25 51  1  0
M  ISO  8  26  14  27  14  28  14  29  14  30  14  31  14  32  14  33  14
M  ISO  8  34  14  35   8  36   8  37   8  38   8  39   8  40   8  41  13
M  ISO  8  42  13  43  13  44  13  45  13  46  13  47  13  48  13  49  13
M  ISO  2  50  13  51  13
M  END
>  <minimizedAffinity>  (1) 
-6.38215542

>  <minimizedRMSD>  (1) 
1.41600943

$$$$
