
     RDKit          3D

 46 50  0  0  1  0  0  0  0  0999 V2000
   38.9310   30.7360   41.7790 C   0  0  0  0  0  0  0  0  0  0  0  0
   38.4780   29.5920   42.4100 C   0  0  0  0  0  0  0  0  0  0  0  0
   37.2260   29.0340   42.3230 C   0  0  0  0  0  0  0  0  0  0  0  0
   36.4010   29.7390   41.5150 N   0  0  0  0  0  0  0  0  0  0  0  0
   36.7650   30.8410   40.8820 C   0  0  0  0  0  0  0  0  0  0  0  0
   37.9930   31.3040   41.0250 N   0  0  0  0  0  0  0  0  0  0  0  0
   40.2160   31.3460   41.8460 C   0  0  0  0  0  0  0  0  0  0  0  0
   41.1250   30.8860   42.7890 C   0  0  0  0  0  0  0  0  0  0  0  0
   42.3920   31.3950   42.9820 C   0  0  0  0  0  0  0  0  0  0  0  0
   42.8070   32.4410   42.1930 C   0  0  0  0  0  0  0  0  0  0  0  0
   41.9480   32.9470   41.2340 C   0  0  0  0  0  0  0  0  0  0  0  0
   42.3540   33.9880   40.4450 C   0  0  0  0  0  0  0  0  0  0  0  0
   41.5410   34.5320   39.4690 C   0  0  0  0  0  0  0  0  0  0  0  0
   40.2900   33.9540   39.3450 C   0  0  0  0  0  0  0  0  0  0  0  0
   39.9410   32.9200   40.1600 C   0  0  0  0  0  0  0  0  0  0  0  0
   40.7300   32.3790   41.1210 C   0  0  0  0  0  0  0  0  0  0  0  0
   36.9170   27.8060   43.0940 C   0  0  2  0  0  0  0  0  0  0  0  0
   36.7960   28.0960   44.5660 C   0  0  0  0  0  0  0  0  0  0  0  0
   37.7870   26.6980   42.6970 C   0  0  0  0  0  0  0  0  0  0  0  0
   39.0710   26.3370   42.9760 N   0  0  0  0  0  0  0  0  0  0  0  0
   39.9000   26.3340   44.0360 C   0  0  0  0  0  0  0  0  0  0  0  0
   41.1330   25.9850   43.7380 N   0  0  0  0  0  0  0  0  0  0  0  0
   41.2020   25.7300   42.4420 C   0  0  0  0  0  0  0  0  0  0  0  0
   42.2520   25.3350   41.6460 C   0  0  0  0  0  0  0  0  0  0  0  0
   42.0020   25.1520   40.3240 N   0  0  0  0  0  0  0  0  0  0  0  0
   40.7790   25.3550   39.8430 C   0  0  0  0  0  0  0  0  0  0  0  0
   39.7950   25.7360   40.6410 N   0  0  0  0  0  0  0  0  0  0  0  0
   39.9410   25.9470   41.9850 C   0  0  0  0  0  0  0  0  0  0  0  0
   39.2015   29.0704   43.0538 H   0  0  0  0  0  0  0  0  0  0  0  0
   36.0471   31.3704   40.2383 H   0  0  0  0  0  0  0  0  0  0  0  0
   40.8103   30.0509   43.4320 H   0  0  0  0  0  0  0  0  0  0  0  0
   43.0561   30.9730   43.7507 H   0  0  0  0  0  0  0  0  0  0  0  0
   43.8111   32.8711   42.3227 H   0  0  0  0  0  0  0  0  0  0  0  0
   43.3608   34.4059   40.5923 H   0  0  0  0  0  0  0  0  0  0  0  0
   41.8666   35.3685   38.8332 H   0  0  0  0  0  0  0  0  0  0  0  0
   39.5807   34.3278   38.5918 H   0  0  0  0  0  0  0  0  0  0  0  0
   38.9377   32.4888   40.0279 H   0  0  0  0  0  0  0  0  0  0  0  0
   35.9129   27.4392   42.8346 H   0  0  0  0  0  0  0  0  0  0  0  0
   37.1571   27.2306   45.1411 H   0  0  0  0  0  0  0  0  0  0  0  0
   37.4001   28.9805   44.8163 H   0  0  0  0  0  0  0  0  0  0  0  0
   35.7424   28.2888   44.8163 H   0  0  0  0  0  0  0  0  0  0  0  0
   37.7867   26.7689   41.5993 H   0  0  0  0  0  0  0  0  0  0  0  0
   37.3310   25.9678   43.3817 H   0  0  0  0  0  0  0  0  0  0  0  0
   39.5776   26.5980   45.0540 H   0  0  0  0  0  0  0  0  0  0  0  0
   43.2563   25.1735   42.0646 H   0  0  0  0  0  0  0  0  0  0  0  0
   40.5836   25.2046   38.7710 H   0  0  0  0  0  0  0  0  0  0  0  0
  1  7  1  0
  1  2  2  0
  3  2  1  0
  3 17  1  0
  4  3  2  0
  5  6  2  0
  5  4  1  0
  6  1  1  0
  7  8  2  0
  8  9  1  0
 10  9  2  0
 11 10  1  0
 12 11  2  0
 13 12  1  0
 14 13  2  0
 14 15  1  0
 15 16  2  0
 16 11  1  0
 16  7  1  0
 17 18  1  0
 19 20  1  0
 19 17  1  0
 20 21  1  0
 22 21  2  0
 23 22  1  0
 24 23  2  0
 25 24  1  0
 26 25  2  0
 26 27  1  0
 27 28  2  0
 28 23  1  0
 28 20  1  0
  2 29  1  0
  5 30  1  0
  8 31  1  0
  9 32  1  0
 10 33  1  0
 12 34  1  0
 13 35  1  0
 14 36  1  0
 15 37  1  0
 17 38  1  6
 18 39  1  0
 18 40  1  0
 18 41  1  0
 19 42  1  0
 19 43  1  0
 21 44  1  0
 24 45  1  0
 26 46  1  0
M  ISO  8  29  14  30  14  31  14  32  14  33  14  34  14  35  14  36  14
M  ISO  8  37  14  38   8  39   8  40   8  41   8  42   8  43   8  44  14
M  ISO  2  45  14  46  14
M  END
>  <minimizedAffinity>  (1) 
-6.37409449

>  <minimizedRMSD>  (1) 
1.77346933

$$$$
