
     RDKit          3D

 42 45  0  0  1  0  0  0  0  0999 V2000
   39.1580   30.7760   41.8390 C   0  0  0  0  0  0  0  0  0  0  0  0
   38.7990   29.6100   42.5030 C   0  0  0  0  0  0  0  0  0  0  0  0
   37.5330   29.0240   42.4750 C   0  0  0  0  0  0  0  0  0  0  0  0
   36.6490   29.7140   41.7140 N   0  0  0  0  0  0  0  0  0  0  0  0
   36.9470   30.8240   41.0690 C   0  0  0  0  0  0  0  0  0  0  0  0
   38.1730   31.3260   41.1410 N   0  0  0  0  0  0  0  0  0  0  0  0
   40.4210   31.4430   41.8550 C   0  0  0  0  0  0  0  0  0  0  0  0
   41.3960   31.0050   42.7590 C   0  0  0  0  0  0  0  0  0  0  0  0
   42.6320   31.5860   42.9150 C   0  0  0  0  0  0  0  0  0  0  0  0
   42.9530   32.6690   42.1430 C   0  0  0  0  0  0  0  0  0  0  0  0
   42.0330   33.1560   41.2230 C   0  0  0  0  0  0  0  0  0  0  0  0
   42.3510   34.2360   40.4400 C   0  0  0  0  0  0  0  0  0  0  0  0
   41.4800   34.7540   39.5050 C   0  0  0  0  0  0  0  0  0  0  0  0
   40.2590   34.0980   39.4170 C   0  0  0  0  0  0  0  0  0  0  0  0
   39.9900   33.0290   40.2180 C   0  0  0  0  0  0  0  0  0  0  0  0
   40.8470   32.5200   41.1410 C   0  0  0  0  0  0  0  0  0  0  0  0
   37.2400   27.8110   43.2630 C   0  0  2  0  0  0  0  0  0  0  0  0
   36.7710   28.1500   44.6670 C   0  0  0  0  0  0  0  0  0  0  0  0
   38.4780   26.9470   43.3160 C   0  0  0  0  0  0  0  0  0  0  0  0
   38.3450   25.7160   42.5610 N   0  0  0  0  0  0  0  0  0  0  0  0
   39.1070   24.7570   42.0820 N   0  0  0  0  0  0  0  0  0  0  0  0
   38.4430   23.8240   41.4350 C   0  0  0  0  0  0  0  0  0  0  0  0
   37.1230   24.1440   41.4590 C   0  0  0  0  0  0  0  0  0  0  0  0
   37.1130   25.3260   42.1690 C   0  0  0  0  0  0  0  0  0  0  0  0
   39.5754   29.1081   43.0990 H   0  0  0  0  0  0  0  0  0  0  0  0
   36.1784   31.3348   40.4703 H   0  0  0  0  0  0  0  0  0  0  0  0
   41.1564   30.1353   43.3884 H   0  0  0  0  0  0  0  0  0  0  0  0
   43.3498   31.1875   43.6471 H   0  0  0  0  0  0  0  0  0  0  0  0
   43.9354   33.1521   42.2503 H   0  0  0  0  0  0  0  0  0  0  0  0
   43.3377   34.7066   40.5624 H   0  0  0  0  0  0  0  0  0  0  0  0
   41.7329   35.6207   38.8767 H   0  0  0  0  0  0  0  0  0  0  0  0
   39.5039   34.4438   38.6957 H   0  0  0  0  0  0  0  0  0  0  0  0
   39.0089   32.5435   40.1095 H   0  0  0  0  0  0  0  0  0  0  0  0
   36.4213   27.2648   42.7716 H   0  0  0  0  0  0  0  0  0  0  0  0
   37.4349   27.6702   45.4012 H   0  0  0  0  0  0  0  0  0  0  0  0
   36.7954   29.2406   44.8084 H   0  0  0  0  0  0  0  0  0  0  0  0
   35.7431   27.7848   44.8084 H   0  0  0  0  0  0  0  0  0  0  0  0
   39.3226   27.5199   42.9057 H   0  0  0  0  0  0  0  0  0  0  0  0
   38.6405   26.6706   44.3682 H   0  0  0  0  0  0  0  0  0  0  0  0
   38.8817   22.9361   40.9562 H   0  0  0  0  0  0  0  0  0  0  0  0
   36.2747   23.5972   41.0216 H   0  0  0  0  0  0  0  0  0  0  0  0
   36.1969   25.8923   42.3928 H   0  0  0  0  0  0  0  0  0  0  0  0
  1  7  1  0
  1  2  2  0
  3  2  1  0
  3 17  1  0
  4  3  2  0
  5  6  2  0
  5  4  1  0
  6  1  1  0
  7  8  2  0
  8  9  1  0
 10  9  2  0
 11 10  1  0
 12 11  2  0
 13 12  1  0
 14 13  2  0
 14 15  1  0
 15 16  2  0
 16 11  1  0
 16  7  1  0
 17 19  1  0
 17 18  1  0
 20 19  1  0
 21 20  1  0
 22 23  1  0
 22 21  2  0
 23 24  2  0
 24 20  1  0
  2 25  1  0
  5 26  1  0
  8 27  1  0
  9 28  1  0
 10 29  1  0
 12 30  1  0
 13 31  1  0
 14 32  1  0
 15 33  1  0
 17 34  1  6
 18 35  1  0
 18 36  1  0
 18 37  1  0
 19 38  1  0
 19 39  1  0
 22 40  1  0
 23 41  1  0
 24 42  1  0
M  ISO  8  25  14  26  14  27  14  28  14  29  14  30  14  31  14  32  14
M  ISO  8  33  14  34   8  35   8  36   8  37   8  38   8  39   8  40  14
M  ISO  2  41  14  42  14
M  END
>  <minimizedAffinity>  (1) 
-6.15304518

>  <minimizedRMSD>  (1) 
1.20309293

$$$$
