
     RDKit          3D

 42 44  0  0  1  0  0  0  0  0999 V2000
   39.0940   30.6290   41.8470 C   0  0  0  0  0  0  0  0  0  0  0  0
   38.7070   29.4710   42.5080 C   0  0  0  0  0  0  0  0  0  0  0  0
   37.4460   28.8860   42.4630 C   0  0  0  0  0  0  0  0  0  0  0  0
   36.5840   29.5870   41.6710 N   0  0  0  0  0  0  0  0  0  0  0  0
   36.8990   30.6990   41.0170 C   0  0  0  0  0  0  0  0  0  0  0  0
   38.1260   31.1890   41.1160 N   0  0  0  0  0  0  0  0  0  0  0  0
   40.3530   31.2960   41.8840 C   0  0  0  0  0  0  0  0  0  0  0  0
   41.3150   30.8220   42.7820 C   0  0  0  0  0  0  0  0  0  0  0  0
   42.5640   31.3900   42.9630 C   0  0  0  0  0  0  0  0  0  0  0  0
   42.8980   32.4910   42.2210 C   0  0  0  0  0  0  0  0  0  0  0  0
   41.9870   33.0120   41.3090 C   0  0  0  0  0  0  0  0  0  0  0  0
   42.3140   34.1110   40.5600 C   0  0  0  0  0  0  0  0  0  0  0  0
   41.4320   34.6580   39.6340 C   0  0  0  0  0  0  0  0  0  0  0  0
   40.2140   34.0130   39.5280 C   0  0  0  0  0  0  0  0  0  0  0  0
   39.9420   32.9220   40.2990 C   0  0  0  0  0  0  0  0  0  0  0  0
   40.7960   32.3850   41.2060 C   0  0  0  0  0  0  0  0  0  0  0  0
   37.0980   27.6700   43.2160 C   0  0  2  0  0  0  0  0  0  0  0  0
   36.8260   27.9920   44.6910 C   0  0  0  0  0  0  0  0  0  0  0  0
   38.3080   26.7440   43.1660 C   0  0  0  0  0  0  0  0  0  0  0  0
   38.2080   25.8170   42.0650 N   0  0  0  0  0  0  0  0  0  0  0  0
   38.5170   24.4610   42.2920 C   0  0  0  0  0  0  0  0  0  0  0  0
   39.4240   24.2370   43.2130 N   0  0  0  0  0  0  0  0  0  0  0  0
   37.9550   23.3380   41.6290 N   0  0  0  0  0  0  0  0  0  0  0  0
   39.7450   23.2900   43.4810 H   0  0  0  0  0  0  0  0  0  0  0  0
   39.4680   28.9699   43.1242 H   0  0  0  0  0  0  0  0  0  0  0  0
   36.1468   31.2095   40.3977 H   0  0  0  0  0  0  0  0  0  0  0  0
   41.0616   29.9378   43.3853 H   0  0  0  0  0  0  0  0  0  0  0  0
   43.2738   30.9655   43.6882 H   0  0  0  0  0  0  0  0  0  0  0  0
   43.8842   32.9620   42.3460 H   0  0  0  0  0  0  0  0  0  0  0  0
   43.3025   34.5744   40.6946 H   0  0  0  0  0  0  0  0  0  0  0  0
   41.6857   35.5410   39.0291 H   0  0  0  0  0  0  0  0  0  0  0  0
   39.4598   34.3821   38.8174 H   0  0  0  0  0  0  0  0  0  0  0  0
   38.9595   32.4427   40.1768 H   0  0  0  0  0  0  0  0  0  0  0  0
   36.1974   27.2174   42.7755 H   0  0  0  0  0  0  0  0  0  0  0  0
   37.4045   27.3072   45.3285 H   0  0  0  0  0  0  0  0  0  0  0  0
   37.1254   29.0294   44.9011 H   0  0  0  0  0  0  0  0  0  0  0  0
   35.7531   27.8703   44.9011 H   0  0  0  0  0  0  0  0  0  0  0  0
   39.2186   27.3491   43.0445 H   0  0  0  0  0  0  0  0  0  0  0  0
   38.3473   26.1698   44.1034 H   0  0  0  0  0  0  0  0  0  0  0  0
   37.9165   26.1400   41.1314 H   0  0  0  0  0  0  0  0  0  0  0  0
   38.2595   22.3865   41.8795 H   0  0  0  0  0  0  0  0  0  0  0  0
   37.2428   23.4750   40.8976 H   0  0  0  0  0  0  0  0  0  0  0  0
  1  7  1  0
  1  2  2  0
  3  2  1  0
  3 17  1  0
  4  3  2  0
  5  6  2  0
  5  4  1  0
  6  1  1  0
  7  8  2  0
  8  9  1  0
 10  9  2  0
 11 10  1  0
 12 11  2  0
 13 12  1  0
 14 13  2  0
 14 15  1  0
 15 16  2  0
 16 11  1  0
 16  7  1  0
 17 18  1  0
 19 17  1  0
 20 21  1  0
 20 19  1  0
 21 22  2  0
 22 24  1  0
 23 21  1  0
  2 25  1  0
  5 26  1  0
  8 27  1  0
  9 28  1  0
 10 29  1  0
 12 30  1  0
 13 31  1  0
 14 32  1  0
 15 33  1  0
 17 34  1  6
 18 35  1  0
 18 36  1  0
 18 37  1  0
 19 38  1  0
 19 39  1  0
 20 40  1  0
 23 41  1  0
 23 42  1  0
M  ISO  8  25  14  26  14  27  14  28  14  29  14  30  14  31  14  32  14
M  ISO  7  33  14  34   8  35   8  36   8  37   8  38   8  39   8
M  END
>  <minimizedAffinity>  (1) 
-6.13949203

>  <minimizedRMSD>  (1) 
0.769430101

$$$$
