
     RDKit          3D

 42 45  0  0  1  0  0  0  0  0999 V2000
   39.1420   30.7810   41.8510 C   0  0  0  0  0  0  0  0  0  0  0  0
   38.7700   29.6200   42.5140 C   0  0  0  0  0  0  0  0  0  0  0  0
   37.5130   29.0260   42.4780 C   0  0  0  0  0  0  0  0  0  0  0  0
   36.6360   29.7050   41.7050 N   0  0  0  0  0  0  0  0  0  0  0  0
   36.9360   30.8140   41.0540 C   0  0  0  0  0  0  0  0  0  0  0  0
   38.1570   31.3190   41.1390 N   0  0  0  0  0  0  0  0  0  0  0  0
   40.4030   31.4450   41.8650 C   0  0  0  0  0  0  0  0  0  0  0  0
   41.3760   31.0000   42.7580 C   0  0  0  0  0  0  0  0  0  0  0  0
   42.6240   31.5710   42.9070 C   0  0  0  0  0  0  0  0  0  0  0  0
   42.9500   32.6500   42.1360 C   0  0  0  0  0  0  0  0  0  0  0  0
   42.0250   33.1430   41.2250 C   0  0  0  0  0  0  0  0  0  0  0  0
   42.3460   34.2190   40.4400 C   0  0  0  0  0  0  0  0  0  0  0  0
   41.4700   34.7440   39.5140 C   0  0  0  0  0  0  0  0  0  0  0  0
   40.2470   34.1040   39.4320 C   0  0  0  0  0  0  0  0  0  0  0  0
   39.9770   33.0370   40.2350 C   0  0  0  0  0  0  0  0  0  0  0  0
   40.8340   32.5170   41.1510 C   0  0  0  0  0  0  0  0  0  0  0  0
   37.2310   27.8180   43.2750 C   0  0  2  0  0  0  0  0  0  0  0  0
   36.7730   28.1510   44.6800 C   0  0  0  0  0  0  0  0  0  0  0  0
   38.4480   26.9370   43.3160 C   0  0  0  0  0  0  0  0  0  0  0  0
   38.3820   25.7240   42.5780 N   0  0  0  0  0  0  0  0  0  0  0  0
   37.1490   25.3050   42.1290 C   0  0  0  0  0  0  0  0  0  0  0  0
   37.1560   24.1150   41.4360 C   0  0  0  0  0  0  0  0  0  0  0  0
   38.4770   23.7680   41.4530 N   0  0  0  0  0  0  0  0  0  0  0  0
   39.1440   24.7170   42.1190 C   0  0  0  0  0  0  0  0  0  0  0  0
   39.5397   29.1242   43.1237 H   0  0  0  0  0  0  0  0  0  0  0  0
   36.1729   31.3174   40.4422 H   0  0  0  0  0  0  0  0  0  0  0  0
   41.1323   30.1324   43.3888 H   0  0  0  0  0  0  0  0  0  0  0  0
   43.3428   31.1643   43.6336 H   0  0  0  0  0  0  0  0  0  0  0  0
   43.9372   33.1248   42.2357 H   0  0  0  0  0  0  0  0  0  0  0  0
   43.3381   34.6805   40.5526 H   0  0  0  0  0  0  0  0  0  0  0  0
   41.7256   35.6098   38.8855 H   0  0  0  0  0  0  0  0  0  0  0  0
   39.4900   34.4573   38.7164 H   0  0  0  0  0  0  0  0  0  0  0  0
   38.9905   32.5609   40.1337 H   0  0  0  0  0  0  0  0  0  0  0  0
   36.4046   27.2822   42.7850 H   0  0  0  0  0  0  0  0  0  0  0  0
   37.4401   27.6659   45.4078 H   0  0  0  0  0  0  0  0  0  0  0  0
   36.8013   29.2409   44.8262 H   0  0  0  0  0  0  0  0  0  0  0  0
   35.7450   27.7880   44.8262 H   0  0  0  0  0  0  0  0  0  0  0  0
   39.2949   27.5198   42.9247 H   0  0  0  0  0  0  0  0  0  0  0  0
   38.5485   26.6309   44.3678 H   0  0  0  0  0  0  0  0  0  0  0  0
   36.2278   25.8781   42.3104 H   0  0  0  0  0  0  0  0  0  0  0  0
   36.3097   23.5783   40.9824 H   0  0  0  0  0  0  0  0  0  0  0  0
   40.2316   24.6762   42.2785 H   0  0  0  0  0  0  0  0  0  0  0  0
  1  7  1  0
  1  2  2  0
  3  2  1  0
  3 17  1  0
  4  3  2  0
  5  6  2  0
  5  4  1  0
  6  1  1  0
  7  8  2  0
  8  9  1  0
 10  9  2  0
 11 10  1  0
 12 11  2  0
 13 12  1  0
 14 13  2  0
 14 15  1  0
 15 16  2  0
 16 11  1  0
 16  7  1  0
 17 19  1  0
 17 18  1  0
 20 19  1  0
 21 20  1  0
 22 23  1  0
 22 21  2  0
 23 24  2  0
 24 20  1  0
  2 25  1  0
  5 26  1  0
  8 27  1  0
  9 28  1  0
 10 29  1  0
 12 30  1  0
 13 31  1  0
 14 32  1  0
 15 33  1  0
 17 34  1  6
 18 35  1  0
 18 36  1  0
 18 37  1  0
 19 38  1  0
 19 39  1  0
 21 40  1  0
 22 41  1  0
 24 42  1  0
M  ISO  8  25  14  26  14  27  14  28  14  29  14  30  14  31  14  32  14
M  ISO  8  33  14  34   8  35   8  36   8  37   8  38   8  39   8  40  14
M  ISO  2  41  14  42  14
M  END
>  <minimizedAffinity>  (1) 
-6.06893635

>  <minimizedRMSD>  (1) 
1.07964873

$$$$
