
     RDKit          3D

 41 44  0  0  1  0  0  0  0  0999 V2000
   39.1510   30.7730   41.8500 C   0  0  0  0  0  0  0  0  0  0  0  0
   38.7800   29.6110   42.5160 C   0  0  0  0  0  0  0  0  0  0  0  0
   37.5200   29.0230   42.4730 C   0  0  0  0  0  0  0  0  0  0  0  0
   36.6500   29.7010   41.7000 N   0  0  0  0  0  0  0  0  0  0  0  0
   36.9460   30.8110   41.0450 C   0  0  0  0  0  0  0  0  0  0  0  0
   38.1660   31.3140   41.1330 N   0  0  0  0  0  0  0  0  0  0  0  0
   40.4070   31.4460   41.8630 C   0  0  0  0  0  0  0  0  0  0  0  0
   41.3760   31.0060   42.7570 C   0  0  0  0  0  0  0  0  0  0  0  0
   42.6250   31.5770   42.9130 C   0  0  0  0  0  0  0  0  0  0  0  0
   42.9540   32.6640   42.1350 C   0  0  0  0  0  0  0  0  0  0  0  0
   42.0280   33.1490   41.2210 C   0  0  0  0  0  0  0  0  0  0  0  0
   42.3440   34.2230   40.4370 C   0  0  0  0  0  0  0  0  0  0  0  0
   41.4730   34.7470   39.5060 C   0  0  0  0  0  0  0  0  0  0  0  0
   40.2410   34.0970   39.4230 C   0  0  0  0  0  0  0  0  0  0  0  0
   39.9800   33.0300   40.2310 C   0  0  0  0  0  0  0  0  0  0  0  0
   40.8370   32.5170   41.1490 C   0  0  0  0  0  0  0  0  0  0  0  0
   37.2230   27.8010   43.2530 C   0  0  2  0  0  0  0  0  0  0  0  0
   36.7480   28.1200   44.6600 C   0  0  0  0  0  0  0  0  0  0  0  0
   38.4710   26.9440   43.3090 C   0  0  0  0  0  0  0  0  0  0  0  0
   38.3550   25.7190   42.5520 N   0  0  0  0  0  0  0  0  0  0  0  0
   37.1250   25.2940   42.1970 C   0  0  0  0  0  0  0  0  0  0  0  0
   37.1720   24.1430   41.5010 N   0  0  0  0  0  0  0  0  0  0  0  0
   38.4710   23.8300   41.4160 C   0  0  0  0  0  0  0  0  0  0  0  0
   39.1280   24.7930   42.0520 N   0  0  0  0  0  0  0  0  0  0  0  0
   39.5470   29.1146   43.1285 H   0  0  0  0  0  0  0  0  0  0  0  0
   36.1830   31.3123   40.4314 H   0  0  0  0  0  0  0  0  0  0  0  0
   41.1306   30.1386   43.3874 H   0  0  0  0  0  0  0  0  0  0  0  0
   43.3408   31.1715   43.6432 H   0  0  0  0  0  0  0  0  0  0  0  0
   43.9391   33.1429   42.2362 H   0  0  0  0  0  0  0  0  0  0  0  0
   43.3339   34.6883   40.5538 H   0  0  0  0  0  0  0  0  0  0  0  0
   41.7296   35.6117   38.8764 H   0  0  0  0  0  0  0  0  0  0  0  0
   39.4817   34.4447   38.7071 H   0  0  0  0  0  0  0  0  0  0  0  0
   38.9968   32.5471   40.1305 H   0  0  0  0  0  0  0  0  0  0  0  0
   36.4058   27.2613   42.7522 H   0  0  0  0  0  0  0  0  0  0  0  0
   37.4309   27.6614   45.3903 H   0  0  0  0  0  0  0  0  0  0  0  0
   36.7353   29.2104   44.8043 H   0  0  0  0  0  0  0  0  0  0  0  0
   35.7338   27.7192   44.8043 H   0  0  0  0  0  0  0  0  0  0  0  0
   39.3129   27.5258   42.9056 H   0  0  0  0  0  0  0  0  0  0  0  0
   38.6283   26.6643   44.3611 H   0  0  0  0  0  0  0  0  0  0  0  0
   36.1945   25.8249   42.4466 H   0  0  0  0  0  0  0  0  0  0  0  0
   38.9069   22.9509   40.9188 H   0  0  0  0  0  0  0  0  0  0  0  0
  1  7  1  0
  1  2  2  0
  3  2  1  0
  3 17  1  0
  4  3  2  0
  5  6  2  0
  5  4  1  0
  6  1  1  0
  7  8  2  0
  8  9  1  0
 10  9  2  0
 11 10  1  0
 12 11  2  0
 13 12  1  0
 14 13  2  0
 14 15  1  0
 15 16  2  0
 16 11  1  0
 16  7  1  0
 17 19  1  0
 17 18  1  0
 20 19  1  0
 21 20  1  0
 22 21  2  0
 23 22  1  0
 23 24  2  0
 24 20  1  0
  2 25  1  0
  5 26  1  0
  8 27  1  0
  9 28  1  0
 10 29  1  0
 12 30  1  0
 13 31  1  0
 14 32  1  0
 15 33  1  0
 17 34  1  6
 18 35  1  0
 18 36  1  0
 18 37  1  0
 19 38  1  0
 19 39  1  0
 21 40  1  0
 23 41  1  0
M  ISO  8  25  14  26  14  27  14  28  14  29  14  30  14  31  14  32  14
M  ISO  8  33  14  34   8  35   8  36   8  37   8  38   8  39   8  40  14
M  ISO  1  41  14
M  END
>  <minimizedAffinity>  (1) 
-6.04886389

>  <minimizedRMSD>  (1) 
1.13698483

$$$$
