
     RDKit          3D

 37 39  0  0  1  0  0  0  0  0999 V2000
   38.9480   31.4830   41.1470 C   0  0  0  0  0  0  0  0  0  0  0  0
   38.9640   30.2720   41.8240 C   0  0  0  0  0  0  0  0  0  0  0  0
   37.8570   29.4650   42.0620 C   0  0  0  0  0  0  0  0  0  0  0  0
   36.7130   29.9790   41.5550 N   0  0  0  0  0  0  0  0  0  0  0  0
   36.6390   31.1350   40.8980 C   0  0  0  0  0  0  0  0  0  0  0  0
   37.7400   31.8500   40.7110 N   0  0  0  0  0  0  0  0  0  0  0  0
   40.0290   32.3850   40.9160 C   0  0  0  0  0  0  0  0  0  0  0  0
   41.3360   31.9090   41.0840 C   0  0  0  0  0  0  0  0  0  0  0  0
   42.4720   32.6680   40.9610 C   0  0  0  0  0  0  0  0  0  0  0  0
   42.3450   33.9910   40.6500 C   0  0  0  0  0  0  0  0  0  0  0  0
   41.0830   34.5350   40.4660 C   0  0  0  0  0  0  0  0  0  0  0  0
   40.9370   35.8620   40.1510 C   0  0  0  0  0  0  0  0  0  0  0  0
   39.6920   36.4380   39.9530 C   0  0  0  0  0  0  0  0  0  0  0  0
   38.6070   35.5940   40.0930 C   0  0  0  0  0  0  0  0  0  0  0  0
   38.8110   34.2840   40.4100 C   0  0  0  0  0  0  0  0  0  0  0  0
   40.0240   33.7060   40.6080 C   0  0  0  0  0  0  0  0  0  0  0  0
   37.9600   28.2040   42.8270 C   0  0  2  0  0  0  0  0  0  0  0  0
   37.1390   28.2590   44.1130 C   0  0  0  0  0  0  0  0  0  0  0  0
   39.4220   27.9800   43.1700 C   0  0  0  0  0  0  0  0  0  0  0  0
   39.4250   26.7220   43.9430 N   0  0  0  0  0  0  0  0  0  0  0  0
   39.9344   29.9207   42.2046 H   0  0  0  0  0  0  0  0  0  0  0  0
   35.6727   31.4937   40.5137 H   0  0  0  0  0  0  0  0  0  0  0  0
   41.4608   30.8450   41.3337 H   0  0  0  0  0  0  0  0  0  0  0  0
   43.4653   32.2195   41.1100 H   0  0  0  0  0  0  0  0  0  0  0  0
   43.2396   34.6226   40.5458 H   0  0  0  0  0  0  0  0  0  0  0  0
   41.8358   36.4884   40.0525 H   0  0  0  0  0  0  0  0  0  0  0  0
   39.5748   37.5020   39.6999 H   0  0  0  0  0  0  0  0  0  0  0  0
   37.5857   35.9765   39.9496 H   0  0  0  0  0  0  0  0  0  0  0  0
   37.9224   33.6440   40.5137 H   0  0  0  0  0  0  0  0  0  0  0  0
   37.5649   27.3800   42.2148 H   0  0  0  0  0  0  0  0  0  0  0  0
   37.8134   28.2138   44.9808 H   0  0  0  0  0  0  0  0  0  0  0  0
   36.5660   29.1975   44.1424 H   0  0  0  0  0  0  0  0  0  0  0  0
   36.4460   27.4053   44.1424 H   0  0  0  0  0  0  0  0  0  0  0  0
   40.0257   27.8776   42.2562 H   0  0  0  0  0  0  0  0  0  0  0  0
   39.8561   28.8203   43.7317 H   0  0  0  0  0  0  0  0  0  0  0  0
   39.4245   26.9379   44.9501 H   0  0  0  0  0  0  0  0  0  0  0  0
   38.5853   26.1733   43.7091 H   0  0  0  0  0  0  0  0  0  0  0  0
  1  2  2  0
  2  3  1  0
  3 17  1  0
  4  3  2  0
  5  4  1  0
  6  5  2  0
  6  1  1  0
  7  8  2  0
  7  1  1  0
  9  8  1  0
 10  9  2  0
 11 16  2  0
 11 10  1  0
 12 11  1  0
 13 14  1  0
 13 12  2  0
 14 15  2  0
 15 16  1  0
 16  7  1  0
 17 19  1  0
 17 18  1  0
 19 20  1  0
  2 21  1  0
  5 22  1  0
  8 23  1  0
  9 24  1  0
 10 25  1  0
 12 26  1  0
 13 27  1  0
 14 28  1  0
 15 29  1  0
 17 30  1  6
 18 31  1  0
 18 32  1  0
 18 33  1  0
 19 34  1  0
 19 35  1  0
 20 36  1  0
 20 37  1  0
M  ISO  8  21  14  22  14  23  14  24  14  25  14  26  14  27  14  28  14
M  ISO  8  29  14  30   8  31   8  32   8  33   8  34   8  35   8  36   5
M  ISO  1  37   5
M  END
>  <minimizedAffinity>  (1) 
-5.90418053

>  <minimizedRMSD>  (1) 
1.61413789

$$$$
