
     RDKit          3D

 36 38  0  0  1  0  0  0  0  0999 V2000
   38.8820   30.7350   41.5670 C   0  0  0  0  0  0  0  0  0  0  0  0
   38.4500   29.4780   41.9720 C   0  0  0  0  0  0  0  0  0  0  0  0
   37.1490   28.9980   41.8580 C   0  0  0  0  0  0  0  0  0  0  0  0
   36.3120   29.8960   41.2970 N   0  0  0  0  0  0  0  0  0  0  0  0
   36.6640   31.1060   40.8920 C   0  0  0  0  0  0  0  0  0  0  0  0
   37.9250   31.4940   41.0350 N   0  0  0  0  0  0  0  0  0  0  0  0
   40.1810   31.3120   41.7000 C   0  0  0  0  0  0  0  0  0  0  0  0
   40.9850   30.8890   42.7700 C   0  0  0  0  0  0  0  0  0  0  0  0
   42.2310   31.3980   43.0590 C   0  0  0  0  0  0  0  0  0  0  0  0
   42.7410   32.3880   42.2560 C   0  0  0  0  0  0  0  0  0  0  0  0
   41.9940   32.8500   41.1780 C   0  0  0  0  0  0  0  0  0  0  0  0
   42.4970   33.8390   40.3670 C   0  0  0  0  0  0  0  0  0  0  0  0
   41.7880   34.3260   39.2780 C   0  0  0  0  0  0  0  0  0  0  0  0
   40.5500   33.7480   39.0700 C   0  0  0  0  0  0  0  0  0  0  0  0
   40.1010   32.7710   39.9080 C   0  0  0  0  0  0  0  0  0  0  0  0
   40.7850   32.2900   40.9770 C   0  0  0  0  0  0  0  0  0  0  0  0
   36.7650   27.6570   42.3510 C   0  0  2  0  0  0  0  0  0  0  0  0
   36.6100   27.6440   43.8740 C   0  0  0  0  0  0  0  0  0  0  0  0
   37.8750   26.6830   41.9740 C   0  0  0  0  0  0  0  0  0  0  0  0
   37.1220   25.0280   42.0370 S   0  0  0  0  0  0  0  0  0  0  0  0
   39.1981   28.8072   42.4196 H   0  0  0  0  0  0  0  0  0  0  0  0
   35.9209   31.7812   40.4427 H   0  0  0  0  0  0  0  0  0  0  0  0
   40.5922   30.0957   43.4230 H   0  0  0  0  0  0  0  0  0  0  0  0
   42.8066   31.0190   43.9163 H   0  0  0  0  0  0  0  0  0  0  0  0
   43.7340   32.8129   42.4641 H   0  0  0  0  0  0  0  0  0  0  0  0
   43.4904   34.2567   40.5875 H   0  0  0  0  0  0  0  0  0  0  0  0
   42.1842   35.1177   38.6252 H   0  0  0  0  0  0  0  0  0  0  0  0
   39.9255   34.0770   38.2263 H   0  0  0  0  0  0  0  0  0  0  0  0
   39.1100   32.3402   39.7023 H   0  0  0  0  0  0  0  0  0  0  0  0
   35.8015   27.3757   41.9009 H   0  0  0  0  0  0  0  0  0  0  0  0
   37.6010   27.7271   44.3441 H   0  0  0  0  0  0  0  0  0  0  0  0
   35.9838   28.4928   44.1861 H   0  0  0  0  0  0  0  0  0  0  0  0
   36.1339   26.7028   44.1861 H   0  0  0  0  0  0  0  0  0  0  0  0
   38.7065   26.7534   42.6907 H   0  0  0  0  0  0  0  0  0  0  0  0
   38.2870   26.9034   40.9782 H   0  0  0  0  0  0  0  0  0  0  0  0
   36.9515   24.6533   43.3437 H   0  0  0  0  0  0  0  0  0  0  0  0
  1  7  1  0
  1  2  2  0
  3  2  1  0
  3 17  1  0
  4  3  2  0
  5  6  2  0
  5  4  1  0
  6  1  1  0
  7  8  2  0
  8  9  1  0
 10  9  2  0
 11 10  1  0
 12 11  2  0
 13 12  1  0
 14 13  2  0
 14 15  1  0
 15 16  2  0
 16 11  1  0
 16  7  1  0
 17 18  1  0
 19 20  1  0
 19 17  1  0
  2 21  1  0
  5 22  1  0
  8 23  1  0
  9 24  1  0
 10 25  1  0
 12 26  1  0
 13 27  1  0
 14 28  1  0
 15 29  1  0
 17 30  1  6
 18 31  1  0
 18 32  1  0
 18 33  1  0
 19 34  1  0
 19 35  1  0
 20 36  1  0
M  ISO  8  21  14  22  14  23  14  24  14  25  14  26  14  27  14  28  14
M  ISO  8  29  14  30   8  31   8  32   8  33   8  34   8  35   8  36  11
M  END
>  <minimizedAffinity>  (1) 
-5.19166851

>  <minimizedRMSD>  (1) 
0.98342818

$$$$
