
     RDKit          3D

 30 31  0  0  1  0  0  0  0  0999 V2000
   38.6740   30.2550   41.2750 N   0  0  0  0  0  0  0  0  0  0  0  0
   40.0910   30.3310   40.9380 C   0  0  0  0  0  0  0  0  0  0  0  0
   40.5150   31.6830   41.5410 C   0  0  0  0  0  0  0  0  0  0  0  0
   39.9440   32.6740   40.6750 N   0  0  0  0  0  0  0  0  0  0  0  0
   38.5690   32.5130   40.3540 C   0  0  0  0  0  0  0  0  0  0  0  0
   37.8490   31.3870   41.0210 C   0  0  1  0  0  0  0  0  0  0  0  0
   38.0700   29.1010   41.8540 C   0  0  0  0  0  0  0  0  0  0  0  0
   37.7550   27.9620   41.1290 C   0  0  0  0  0  0  0  0  0  0  0  0
   37.1590   26.8940   41.7730 C   0  0  0  0  0  0  0  0  0  0  0  0
   36.9140   27.0330   43.1190 N   0  0  0  0  0  0  0  0  0  0  0  0
   37.2330   28.1530   43.8020 C   0  0  0  0  0  0  0  0  0  0  0  0
   37.8160   29.2110   43.1870 N   0  0  0  0  0  0  0  0  0  0  0  0
   36.5600   31.2050   40.3320 C   0  0  0  0  0  0  0  0  0  0  0  0
   36.8190   30.9900   38.8330 C   0  0  0  0  0  0  0  0  0  0  0  0
   40.6513   29.5012   41.3935 H   0  0  0  0  0  0  0  0  0  0  0  0
   40.2856   30.2565   39.8579 H   0  0  0  0  0  0  0  0  0  0  0  0
   40.1220   31.7904   42.5628 H   0  0  0  0  0  0  0  0  0  0  0  0
   41.6086   31.7780   41.6114 H   0  0  0  0  0  0  0  0  0  0  0  0
   40.0544   33.5907   41.1315 H   0  0  0  0  0  0  0  0  0  0  0  0
   38.0525   33.4455   40.6255 H   0  0  0  0  0  0  0  0  0  0  0  0
   38.5503   32.2712   39.2811 H   0  0  0  0  0  0  0  0  0  0  0  0
   37.5851   31.6205   42.0630 H   0  0  0  0  0  0  0  0  0  0  0  0
   37.9770   27.9088   40.0529 H   0  0  0  0  0  0  0  0  0  0  0  0
   36.8925   25.9736   41.2327 H   0  0  0  0  0  0  0  0  0  0  0  0
   37.0155   28.2081   44.8789 H   0  0  0  0  0  0  0  0  0  0  0  0
   36.0413   30.3277   40.7460 H   0  0  0  0  0  0  0  0  0  0  0  0
   35.9328   32.0971   40.4762 H   0  0  0  0  0  0  0  0  0  0  0  0
   37.6594   30.2924   38.7025 H   0  0  0  0  0  0  0  0  0  0  0  0
   35.9179   30.5708   38.3616 H   0  0  0  0  0  0  0  0  0  0  0  0
   37.0652   31.9529   38.3616 H   0  0  0  0  0  0  0  0  0  0  0  0
  1  7  1  0
  2  1  1  0
  2  3  1  0
  4  3  1  0
  5  4  1  0
  5  6  1  0
  6  1  1  0
  7 12  2  0
  8  9  2  0
  8  7  1  0
  9 10  1  0
 10 11  2  0
 12 11  1  0
 13  6  1  0
 14 13  1  0
  2 15  1  0
  2 16  1  0
  3 17  1  0
  3 18  1  0
  4 19  1  0
  5 20  1  0
  5 21  1  0
  6 22  1  1
  8 23  1  0
  9 24  1  0
 11 25  1  0
 13 26  1  0
 13 27  1  0
 14 28  1  0
 14 29  1  0
 14 30  1  0
M  ISO  8  15  13  16  13  17  13  18  13  19   5  20  13  21  13  22  13
M  ISO  8  23  14  24  14  25  14  26   8  27   8  28   8  29   8  30   8
M  END
>  <minimizedAffinity>  (1) 
-3.75487494

>  <minimizedRMSD>  (1) 
3.74681187

$$$$
