
     RDKit          3D

 34 37  0  0  0  0  0  0  0  0999 V2000
   38.3310   31.1560   40.9500 C   0  0  0  0  0  0  0  0  0  0  0  0
   39.3000   32.1160   41.2190 C   0  0  0  0  0  0  0  0  0  0  0  0
   39.1850   33.3660   40.6630 C   0  0  0  0  0  0  0  0  0  0  0  0
   38.0880   33.6450   39.8360 C   0  0  0  0  0  0  0  0  0  0  0  0
   37.1170   32.6720   39.5700 C   0  0  0  0  0  0  0  0  0  0  0  0
   37.2290   31.4260   40.1220 C   0  0  0  0  0  0  0  0  0  0  0  0
   36.2370   30.4420   39.8470 N   0  0  0  0  0  0  0  0  0  0  0  0
   35.2230   29.8600   40.5400 C   0  0  0  0  0  0  0  0  0  0  0  0
   34.5900   28.9770   39.7800 N   0  0  0  0  0  0  0  0  0  0  0  0
   35.1630   28.9490   38.5670 C   0  0  0  0  0  0  0  0  0  0  0  0
   34.8390   28.1930   37.4770 C   0  0  0  0  0  0  0  0  0  0  0  0
   33.9090   27.3650   37.4380 O   0  0  0  0  0  0  0  0  0  0  0  0
   35.5790   28.3520   36.3580 N   0  0  0  0  0  0  0  0  0  0  0  0
   36.5880   29.2390   36.3770 C   0  0  0  0  0  0  0  0  0  0  0  0
   37.3560   29.3890   35.1810 N   0  0  0  0  0  0  0  0  0  0  0  0
   36.9010   29.9810   37.4560 N   0  0  0  0  0  0  0  0  0  0  0  0
   36.1950   29.8700   38.6160 C   0  0  0  0  0  0  0  0  0  0  0  0
   39.2070   27.6190   41.3650 C   0  0  0  0  0  0  0  0  0  0  0  0
   38.7450   27.3300   42.6730 C   0  0  0  0  0  0  0  0  0  0  0  0
   38.1250   28.3780   43.4130 C   0  0  0  0  0  0  0  0  0  0  0  0
   38.0180   29.5880   42.8110 N   0  0  0  0  0  0  0  0  0  0  0  0
   38.4740   29.8250   41.5540 C   0  0  0  0  0  0  0  0  0  0  0  0
   39.0590   28.8440   40.8500 N   0  0  0  0  0  0  0  0  0  0  0  0
   40.1520   31.8759   41.8721 H   0  0  0  0  0  0  0  0  0  0  0  0
   39.9429   34.1376   40.8636 H   0  0  0  0  0  0  0  0  0  0  0  0
   37.9884   34.6450   39.3886 H   0  0  0  0  0  0  0  0  0  0  0  0
   36.2643   32.9098   38.9171 H   0  0  0  0  0  0  0  0  0  0  0  0
   34.9640   30.0892   41.5842 H   0  0  0  0  0  0  0  0  0  0  0  0
   35.3743   27.8055   35.5093 H   0  0  0  0  0  0  0  0  0  0  0  0
   38.1386   30.0580   35.1520 H   0  0  0  0  0  0  0  0  0  0  0  0
   37.1269   28.8281   34.3481 H   0  0  0  0  0  0  0  0  0  0  0  0
   39.6905   26.8306   40.7695 H   0  0  0  0  0  0  0  0  0  0  0  0
   38.8617   26.3251   43.1049 H   0  0  0  0  0  0  0  0  0  0  0  0
   37.7479   28.2118   44.4329 H   0  0  0  0  0  0  0  0  0  0  0  0
  1  2  2  0
  1 22  1  0
  3  2  1  0
  4  3  2  0
  5  4  1  0
  5  6  2  0
  6  1  1  0
  7  6  1  0
  7  8  1  0
  9  8  2  0
 10 17  2  0
 10  9  1  0
 11 10  1  0
 12 11  2  0
 13 14  1  0
 13 11  1  0
 14 16  2  0
 15 14  1  0
 16 17  1  0
 17  7  1  0
 18 19  2  0
 19 20  1  0
 21 20  2  0
 22 21  1  0
 23 18  1  0
 23 22  2  0
  2 24  1  0
  3 25  1  0
  4 26  1  0
  5 27  1  0
  8 28  1  0
 13 29  1  0
 15 30  1  0
 15 31  1  0
 18 32  1  0
 19 33  1  0
 20 34  1  0
M  ISO  8  24  14  25  14  26  14  27  14  28  14  29   9  32  14  33  14
M  ISO  1  34  14
M  END
>  <minimizedAffinity>  (1) 
-5.68722963

>  <minimizedRMSD>  (1) 
5.42974377

$$$$
