
     RDKit          3D

 30 32  0  0  0  0  0  0  0  0999 V2000
   38.4510   31.5510   40.8430 C   0  0  0  0  0  0  0  0  0  0  0  0
   39.2950   32.5820   41.2410 C   0  0  0  0  0  0  0  0  0  0  0  0
   39.0830   33.8540   40.7690 C   0  0  0  0  0  0  0  0  0  0  0  0
   38.0260   34.0700   39.9020 C   0  0  0  0  0  0  0  0  0  0  0  0
   37.1890   33.0430   39.5080 C   0  0  0  0  0  0  0  0  0  0  0  0
   37.3950   31.7740   39.9760 C   0  0  0  0  0  0  0  0  0  0  0  0
   39.5530   28.0560   41.0180 C   0  0  0  0  0  0  0  0  0  0  0  0
   39.1750   27.6620   42.3040 C   0  0  0  0  0  0  0  0  0  0  0  0
   38.5340   28.6140   43.1150 C   0  0  0  0  0  0  0  0  0  0  0  0
   38.3200   29.8510   42.6110 N   0  0  0  0  0  0  0  0  0  0  0  0
   38.6990   30.1930   41.3640 C   0  0  0  0  0  0  0  0  0  0  0  0
   39.3060   29.2900   40.5930 N   0  0  0  0  0  0  0  0  0  0  0  0
   36.5040   30.7150   39.5500 C   0  0  0  0  0  0  0  0  0  0  0  0
   35.5950   30.1340   40.4260 C   0  0  0  0  0  0  0  0  0  0  0  0
   34.7840   29.1220   39.9160 C   0  0  0  0  0  0  0  0  0  0  0  0
   34.8010   28.6470   38.6330 C   0  0  0  0  0  0  0  0  0  0  0  0
   35.7130   29.2450   37.7990 C   0  0  0  0  0  0  0  0  0  0  0  0
   36.5600   30.2680   38.2370 C   0  0  0  0  0  0  0  0  0  0  0  0
   40.1281   32.3797   41.9303 H   0  0  0  0  0  0  0  0  0  0  0  0
   39.7388   34.6830   41.0733 H   0  0  0  0  0  0  0  0  0  0  0  0
   37.8475   35.0847   39.5167 H   0  0  0  0  0  0  0  0  0  0  0  0
   36.3569   33.2461   38.8178 H   0  0  0  0  0  0  0  0  0  0  0  0
   40.0583   27.3399   40.3533 H   0  0  0  0  0  0  0  0  0  0  0  0
   39.3721   26.6431   42.6687 H   0  0  0  0  0  0  0  0  0  0  0  0
   38.2137   28.3592   44.1360 H   0  0  0  0  0  0  0  0  0  0  0  0
   35.5191   30.4582   41.4744 H   0  0  0  0  0  0  0  0  0  0  0  0
   34.0637   28.6626   40.6089 H   0  0  0  0  0  0  0  0  0  0  0  0
   34.1314   27.8429   38.2937 H   0  0  0  0  0  0  0  0  0  0  0  0
   35.7796   28.9090   36.7537 H   0  0  0  0  0  0  0  0  0  0  0  0
   37.2759   30.7218   37.5359 H   0  0  0  0  0  0  0  0  0  0  0  0
  1  2  2  0
  1 11  1  0
  3  2  1  0
  4  3  2  0
  5  4  1  0
  5  6  2  0
  6  1  1  0
  7  8  2  0
  8  9  1  0
 10  9  2  0
 11 10  1  0
 12  7  1  0
 12 11  2  0
 13  6  1  0
 13 14  2  0
 15 14  1  0
 16 15  2  0
 17 18  2  0
 17 16  1  0
 18 13  1  0
  2 19  1  0
  3 20  1  0
  4 21  1  0
  5 22  1  0
  7 23  1  0
  8 24  1  0
  9 25  1  0
 14 26  1  0
 15 27  1  0
 16 28  1  0
 17 29  1  0
 18 30  1  0
M  ISO  8  19  14  20  14  21  14  22  14  23  14  24  14  25  14  26  14
M  ISO  4  27  14  28  14  29  14  30  14
M  END
>  <minimizedAffinity>  (1) 
-5.42695332

>  <minimizedRMSD>  (1) 
4.54673672

$$$$
