
     RDKit          3D

 34 36  0  0  1  0  0  0  0  0999 V2000
   39.6200   29.5580   42.7150 N   0  0  0  0  0  0  0  0  0  0  0  0
   39.7960   30.9930   42.6930 C   0  0  0  0  0  0  0  0  0  0  0  0
   40.8700   31.2170   41.6360 C   0  0  0  0  0  0  0  0  0  0  0  0
   42.0930   30.8010   42.2270 N   0  0  0  0  0  0  0  0  0  0  0  0
   42.0860   29.4420   42.6540 C   0  0  0  0  0  0  0  0  0  0  0  0
   40.7960   28.7560   42.8530 C   0  0  2  0  0  0  0  0  0  0  0  0
   38.3660   28.8930   42.6170 C   0  0  0  0  0  0  0  0  0  0  0  0
   37.8140   28.1900   43.6880 C   0  0  0  0  0  0  0  0  0  0  0  0
   36.5900   27.5670   43.5310 C   0  0  0  0  0  0  0  0  0  0  0  0
   35.9840   27.6860   42.2980 N   0  0  0  0  0  0  0  0  0  0  0  0
   36.5510   28.3760   41.2830 C   0  0  0  0  0  0  0  0  0  0  0  0
   37.7310   28.9760   41.4370 N   0  0  0  0  0  0  0  0  0  0  0  0
   40.7530   27.4630   42.1110 C   0  0  0  0  0  0  0  0  0  0  0  0
   40.6240   26.2370   42.7010 C   0  0  0  0  0  0  0  0  0  0  0  0
   40.5850   25.0440   42.0100 C   0  0  0  0  0  0  0  0  0  0  0  0
   40.6800   25.0530   40.6380 C   0  0  0  0  0  0  0  0  0  0  0  0
   40.8120   26.2530   39.9770 C   0  0  0  0  0  0  0  0  0  0  0  0
   40.8450   27.4080   40.7140 C   0  0  0  0  0  0  0  0  0  0  0  0
   38.8597   31.4974   42.4120 H   0  0  0  0  0  0  0  0  0  0  0  0
   40.0777   31.3999   43.6754 H   0  0  0  0  0  0  0  0  0  0  0  0
   40.9204   32.2811   41.3617 H   0  0  0  0  0  0  0  0  0  0  0  0
   40.6544   30.6533   40.7164 H   0  0  0  0  0  0  0  0  0  0  0  0
   42.8466   30.9212   41.5352 H   0  0  0  0  0  0  0  0  0  0  0  0
   42.6433   28.8658   41.9007 H   0  0  0  0  0  0  0  0  0  0  0  0
   42.5182   29.4837   43.6647 H   0  0  0  0  0  0  0  0  0  0  0  0
   40.7611   28.5216   43.9272 H   0  0  0  0  0  0  0  0  0  0  0  0
   38.3475   28.1320   44.6482 H   0  0  0  0  0  0  0  0  0  0  0  0
   36.1215   27.0029   44.3509 H   0  0  0  0  0  0  0  0  0  0  0  0
   36.0309   28.4431   40.3161 H   0  0  0  0  0  0  0  0  0  0  0  0
   40.5463   26.1993   43.7976 H   0  0  0  0  0  0  0  0  0  0  0  0
   40.4787   24.0927   42.5520 H   0  0  0  0  0  0  0  0  0  0  0  0
   40.6507   24.1092   40.0737 H   0  0  0  0  0  0  0  0  0  0  0  0
   40.8894   26.2844   38.8802 H   0  0  0  0  0  0  0  0  0  0  0  0
   40.9512   28.3585   40.1706 H   0  0  0  0  0  0  0  0  0  0  0  0
  1  6  1  0
  2  1  1  0
  3  4  1  0
  3  2  1  0
  4  5  1  0
  5  6  1  0
  7  1  1  0
  7  8  2  0
  9  8  1  0
 10  9  2  0
 11 12  2  0
 11 10  1  0
 12  7  1  0
 13 14  2  0
 13  6  1  0
 15 14  1  0
 16 15  2  0
 17 16  1  0
 17 18  2  0
 18 13  1  0
  2 19  1  0
  2 20  1  0
  3 21  1  0
  3 22  1  0
  4 23  1  0
  5 24  1  0
  5 25  1  0
  6 26  1  1
  8 27  1  0
  9 28  1  0
 11 29  1  0
 14 30  1  0
 15 31  1  0
 16 32  1  0
 17 33  1  0
 18 34  1  0
M  ISO  8  19  13  20  13  21  13  22  13  23   5  24  13  25  13  26  13
M  ISO  8  27  14  28  14  29  14  30  14  31  14  32  14  33  14  34  14
M  END
>  <minimizedAffinity>  (1) 
-3.68311572

>  <minimizedRMSD>  (1) 
0.483223498

$$$$
