
     RDKit          3D

 27 29  0  0  0  0  0  0  0  0999 V2000
   38.1640   31.1740   40.8880 C   0  0  0  0  0  0  0  0  0  0  0  0
   38.9880   32.1840   41.3930 C   0  0  0  0  0  0  0  0  0  0  0  0
   38.8990   33.4490   40.8480 C   0  0  0  0  0  0  0  0  0  0  0  0
   37.9960   33.6830   39.8170 C   0  0  0  0  0  0  0  0  0  0  0  0
   37.1820   32.6790   39.3220 C   0  0  0  0  0  0  0  0  0  0  0  0
   37.2690   31.4280   39.8610 C   0  0  0  0  0  0  0  0  0  0  0  0
   39.1190   27.6600   41.3320 C   0  0  0  0  0  0  0  0  0  0  0  0
   38.4710   27.3100   42.5150 C   0  0  0  0  0  0  0  0  0  0  0  0
   37.6980   28.2830   43.1720 C   0  0  0  0  0  0  0  0  0  0  0  0
   37.6150   29.5270   42.6190 N   0  0  0  0  0  0  0  0  0  0  0  0
   38.2650   29.8220   41.4590 C   0  0  0  0  0  0  0  0  0  0  0  0
   38.9990   28.8970   40.8390 N   0  0  0  0  0  0  0  0  0  0  0  0
   36.3990   30.4050   39.3270 C   0  0  0  0  0  0  0  0  0  0  0  0
   36.4060   29.9670   37.9060 C   0  0  0  0  0  0  0  0  0  0  0  0
   35.5130   28.9980   37.5610 C   0  0  0  0  0  0  0  0  0  0  0  0
   34.6140   28.4160   38.4710 C   0  0  0  0  0  0  0  0  0  0  0  0
   35.0480   29.3290   40.0560 S   0  0  0  0  0  0  0  0  0  0  0  0
   39.6944   31.9745   42.2098 H   0  0  0  0  0  0  0  0  0  0  0  0
   39.5355   34.2630   41.2252 H   0  0  0  0  0  0  0  0  0  0  0  0
   37.9268   34.6917   39.3837 H   0  0  0  0  0  0  0  0  0  0  0  0
   36.4747   32.8864   38.5055 H   0  0  0  0  0  0  0  0  0  0  0  0
   39.7315   26.9158   40.8018 H   0  0  0  0  0  0  0  0  0  0  0  0
   38.5625   26.2938   42.9260 H   0  0  0  0  0  0  0  0  0  0  0  0
   37.1728   28.0469   44.1093 H   0  0  0  0  0  0  0  0  0  0  0  0
   37.0976   30.4036   37.1704 H   0  0  0  0  0  0  0  0  0  0  0  0
   35.4946   28.6533   36.5165 H   0  0  0  0  0  0  0  0  0  0  0  0
   33.8583   27.6349   38.3012 H   0  0  0  0  0  0  0  0  0  0  0  0
  1  2  2  0
  1 11  1  0
  3  2  1  0
  4  3  2  0
  5  4  1  0
  5  6  2  0
  6  1  1  0
  7  8  2  0
  8  9  1  0
 10  9  2  0
 11 10  1  0
 12  7  1  0
 12 11  2  0
 13  6  1  0
 13 17  1  0
 14 13  2  0
 15 14  1  0
 15 16  2  0
 16 17  1  0
  2 18  1  0
  3 19  1  0
  4 20  1  0
  5 21  1  0
  7 22  1  0
  8 23  1  0
  9 24  1  0
 14 25  1  0
 15 26  1  0
 16 27  1  0
M  ISO  8  18  14  19  14  20  14  21  14  22  14  23  14  24  14  25  14
M  ISO  2  26  14  27  14
M  END
>  <minimizedAffinity>  (1) 
-4.77253485

>  <minimizedRMSD>  (1) 
4.43176365

$$$$
