
     RDKit          3D

 31 33  0  0  0  0  0  0  0  0999 V2000
   37.8030   29.7320   39.3800 C   0  0  0  0  0  0  0  0  0  0  0  0
   37.1310   30.3170   38.3060 C   0  0  0  0  0  0  0  0  0  0  0  0
   35.9150   29.7710   37.9370 C   0  0  0  0  0  0  0  0  0  0  0  0
   35.4090   28.6810   38.6280 C   0  0  0  0  0  0  0  0  0  0  0  0
   36.1050   28.1300   39.6830 C   0  0  0  0  0  0  0  0  0  0  0  0
   37.3080   28.6430   40.0770 C   0  0  0  0  0  0  0  0  0  0  0  0
   38.0020   28.0560   41.1680 N   0  0  0  0  0  0  0  0  0  0  0  0
   38.8240   27.0240   40.9010 C   0  0  0  0  0  0  0  0  0  0  0  0
   39.4900   26.4590   41.9410 C   0  0  0  0  0  0  0  0  0  0  0  0
   39.2720   26.9890   43.1950 C   0  0  0  0  0  0  0  0  0  0  0  0
   39.9130   26.4830   44.3590 N   0  0  0  0  0  0  0  0  0  0  0  0
   38.4420   28.0220   43.4130 N   0  0  0  0  0  0  0  0  0  0  0  0
   37.7650   28.6000   42.3760 C   0  0  0  0  0  0  0  0  0  0  0  0
   36.9800   29.5640   42.5240 O   0  0  0  0  0  0  0  0  0  0  0  0
   40.2820   31.9100   41.0000 C   0  0  0  0  0  0  0  0  0  0  0  0
   41.5060   31.4160   40.5100 C   0  0  0  0  0  0  0  0  0  0  0  0
   41.4750   30.3310   39.6200 C   0  0  0  0  0  0  0  0  0  0  0  0
   40.2630   29.8210   39.2840 N   0  0  0  0  0  0  0  0  0  0  0  0
   39.1050   30.3200   39.7740 C   0  0  0  0  0  0  0  0  0  0  0  0
   39.1240   31.3590   40.6270 N   0  0  0  0  0  0  0  0  0  0  0  0
   37.5531   31.1812   37.7721 H   0  0  0  0  0  0  0  0  0  0  0  0
   35.3503   30.2010   37.0966 H   0  0  0  0  0  0  0  0  0  0  0  0
   34.4411   28.2507   38.3312 H   0  0  0  0  0  0  0  0  0  0  0  0
   35.6850   27.2640   40.2155 H   0  0  0  0  0  0  0  0  0  0  0  0
   38.9521   26.6506   39.8743 H   0  0  0  0  0  0  0  0  0  0  0  0
   40.1758   25.6125   41.7890 H   0  0  0  0  0  0  0  0  0  0  0  0
   39.7224   26.9078   45.2777 H   0  0  0  0  0  0  0  0  0  0  0  0
   40.5679   25.6916   44.2834 H   0  0  0  0  0  0  0  0  0  0  0  0
   40.2794   32.7599   41.6983 H   0  0  0  0  0  0  0  0  0  0  0  0
   42.4608   31.8681   40.8164 H   0  0  0  0  0  0  0  0  0  0  0  0
   42.4030   29.9078   39.2082 H   0  0  0  0  0  0  0  0  0  0  0  0
  1 19  1  0
  1  6  1  0
  2  1  2  0
  3  2  1  0
  3  4  2  0
  4  5  1  0
  5  6  2  0
  6  7  1  0
  7 13  1  0
  8  7  1  0
  8  9  2  0
  9 10  1  0
 10 12  2  0
 10 11  1  0
 13 14  2  0
 13 12  1  0
 16 15  2  0
 17 16  1  0
 18 17  2  0
 18 19  1  0
 19 20  2  0
 20 15  1  0
  2 21  1  0
  3 22  1  0
  4 23  1  0
  5 24  1  0
  8 25  1  0
  9 26  1  0
 11 27  1  0
 11 28  1  0
 15 29  1  0
 16 30  1  0
 17 31  1  0
M  ISO  8  21  14  22  14  23  14  24  14  25  14  26  14  29  14  30  14
M  ISO  1  31  14
M  END
>  <minimizedAffinity>  (1) 
-4.65733528

>  <minimizedRMSD>  (1) 
4.47005796

$$$$
