
     RDKit          3D

 29 30  0  0  0  0  0  0  0  0999 V2000
   37.9690   30.6700   40.9980 C   0  0  0  0  0  0  0  0  0  0  0  0
   38.6780   31.8370   41.3350 C   0  0  0  0  0  0  0  0  0  0  0  0
   38.4710   32.9430   40.5270 C   0  0  0  0  0  0  0  0  0  0  0  0
   37.5980   32.8600   39.4490 C   0  0  0  0  0  0  0  0  0  0  0  0
   36.9190   31.7000   39.1480 C   0  0  0  0  0  0  0  0  0  0  0  0
   37.0990   30.5870   39.9250 C   0  0  0  0  0  0  0  0  0  0  0  0
   39.4090   27.5930   42.3320 C   0  0  0  0  0  0  0  0  0  0  0  0
   38.6220   27.2970   43.4470 C   0  0  0  0  0  0  0  0  0  0  0  0
   37.5680   28.1750   43.7480 C   0  0  0  0  0  0  0  0  0  0  0  0
   37.4000   29.2350   42.9340 N   0  0  0  0  0  0  0  0  0  0  0  0
   38.1840   29.4930   41.8570 C   0  0  0  0  0  0  0  0  0  0  0  0
   39.1750   28.6520   41.5890 N   0  0  0  0  0  0  0  0  0  0  0  0
   36.3350   29.3930   39.5050 C   0  0  0  0  0  0  0  0  0  0  0  0
   34.9660   29.3490   40.1900 C   0  0  0  0  0  0  0  0  0  0  0  0
   35.9920   29.4780   38.0090 C   0  0  0  0  0  0  0  0  0  0  0  0
   39.3618   31.8698   42.1960 H   0  0  0  0  0  0  0  0  0  0  0  0
   38.9970   33.8857   40.7384 H   0  0  0  0  0  0  0  0  0  0  0  0
   37.4446   33.7473   38.8171 H   0  0  0  0  0  0  0  0  0  0  0  0
   36.2351   31.6679   38.2871 H   0  0  0  0  0  0  0  0  0  0  0  0
   40.2430   26.9254   42.0697 H   0  0  0  0  0  0  0  0  0  0  0  0
   38.8202   26.4096   44.0661 H   0  0  0  0  0  0  0  0  0  0  0  0
   36.9081   28.0044   44.6113 H   0  0  0  0  0  0  0  0  0  0  0  0
   36.9604   28.5239   39.7570 H   0  0  0  0  0  0  0  0  0  0  0  0
   35.1019   29.3534   41.2816 H   0  0  0  0  0  0  0  0  0  0  0  0
   34.3776   30.2287   39.8902 H   0  0  0  0  0  0  0  0  0  0  0  0
   34.4353   28.4333   39.8902 H   0  0  0  0  0  0  0  0  0  0  0  0
   34.9305   29.7411   37.8906 H   0  0  0  0  0  0  0  0  0  0  0  0
   36.6161   30.2487   37.5329 H   0  0  0  0  0  0  0  0  0  0  0  0
   36.1840   28.5051   37.5329 H   0  0  0  0  0  0  0  0  0  0  0  0
  1  2  2  0
  1 11  1  0
  3  2  1  0
  4  3  2  0
  5  4  1  0
  5  6  2  0
  6  1  1  0
  7  8  2  0
  8  9  1  0
 10  9  2  0
 11 10  1  0
 12 11  2  0
 12  7  1  0
 13  6  1  0
 13 14  1  0
 15 13  1  0
  2 16  1  0
  3 17  1  0
  4 18  1  0
  5 19  1  0
  7 20  1  0
  8 21  1  0
  9 22  1  0
 13 23  1  0
 14 24  1  0
 14 25  1  0
 14 26  1  0
 15 27  1  0
 15 28  1  0
 15 29  1  0
M  ISO  8  16  14  17  14  18  14  19  14  20  14  21  14  22  14  23   8
M  ISO  6  24   8  25   8  26   8  27   8  28   8  29   8
M  END
>  <minimizedAffinity>  (1) 
-4.4699235

>  <minimizedRMSD>  (1) 
3.40850234

$$$$
