
     RDKit          3D

 27 29  0  0  0  0  0  0  0  0999 V2000
   37.8830   30.5910   41.2980 C   0  0  0  0  0  0  0  0  0  0  0  0
   36.9110   31.2000   40.4960 C   0  0  0  0  0  0  0  0  0  0  0  0
   37.1710   32.4710   40.0170 C   0  0  0  0  0  0  0  0  0  0  0  0
   38.3850   33.0870   40.3500 C   0  0  0  0  0  0  0  0  0  0  0  0
   39.3340   32.4620   41.1470 C   0  0  0  0  0  0  0  0  0  0  0  0
   39.0820   31.2090   41.6230 C   0  0  0  0  0  0  0  0  0  0  0  0
   37.0570   27.8720   43.6100 C   0  0  0  0  0  0  0  0  0  0  0  0
   37.0360   26.7380   42.7630 C   0  0  0  0  0  0  0  0  0  0  0  0
   37.3070   26.9100   41.3910 C   0  0  0  0  0  0  0  0  0  0  0  0
   37.5730   28.1620   40.9650 N   0  0  0  0  0  0  0  0  0  0  0  0
   37.5870   29.2340   41.8010 C   0  0  0  0  0  0  0  0  0  0  0  0
   37.3280   29.0770   43.1200 N   0  0  0  0  0  0  0  0  0  0  0  0
   40.0750   30.5370   42.4650 C   0  0  0  0  0  0  0  0  0  0  0  0
   41.4290   31.1490   42.5990 C   0  0  0  0  0  0  0  0  0  0  0  0
   41.2630   29.8770   41.8120 C   0  0  0  0  0  0  0  0  0  0  0  0
   35.9701   30.6840   40.2543 H   0  0  0  0  0  0  0  0  0  0  0  0
   36.4362   32.9905   39.3843 H   0  0  0  0  0  0  0  0  0  0  0  0
   38.5922   34.0974   39.9678 H   0  0  0  0  0  0  0  0  0  0  0  0
   40.2779   32.9711   41.3918 H   0  0  0  0  0  0  0  0  0  0  0  0
   36.8471   27.7546   44.6834 H   0  0  0  0  0  0  0  0  0  0  0  0
   36.8121   25.7403   43.1686 H   0  0  0  0  0  0  0  0  0  0  0  0
   37.3019   26.0578   40.6954 H   0  0  0  0  0  0  0  0  0  0  0  0
   39.2958   30.2069   43.1678 H   0  0  0  0  0  0  0  0  0  0  0  0
   41.6598   32.0902   42.0786 H   0  0  0  0  0  0  0  0  0  0  0  0
   42.0588   31.4606   43.4453 H   0  0  0  0  0  0  0  0  0  0  0  0
   41.6538   28.9281   42.2081 H   0  0  0  0  0  0  0  0  0  0  0  0
   41.5129   29.5511   40.7915 H   0  0  0  0  0  0  0  0  0  0  0  0
  1  6  1  0
  1 11  1  0
  2  1  2  0
  3  4  2  0
  3  2  1  0
  4  5  1  0
  5  6  2  0
  6 13  1  0
  8  7  2  0
  9  8  1  0
 10  9  2  0
 10 11  1  0
 11 12  2  0
 12  7  1  0
 13 14  1  0
 15 13  1  0
 15 14  1  0
  2 16  1  0
  3 17  1  0
  4 18  1  0
  5 19  1  0
  7 20  1  0
  8 21  1  0
  9 22  1  0
 13 23  1  0
 14 24  1  0
 14 25  1  0
 15 26  1  0
 15 27  1  0
M  ISO  8  16  14  17  14  18  14  19  14  20  14  21  14  22  14  23  13
M  ISO  4  24  13  25  13  26  13  27  13
M  END
>  <minimizedAffinity>  (1) 
-4.35587215

>  <minimizedRMSD>  (1) 
0.975704193

$$$$
