
     RDKit          3D

 26 28  0  0  0  0  0  0  0  0999 V2000
   37.1320   27.5820   41.1310 C   0  0  0  0  0  0  0  0  0  0  0  0
   36.0730   28.1410   40.4390 C   0  0  0  0  0  0  0  0  0  0  0  0
   35.7730   29.4710   40.6090 C   0  0  0  0  0  0  0  0  0  0  0  0
   36.5460   30.2240   41.4770 C   0  0  0  0  0  0  0  0  0  0  0  0
   37.6110   29.6710   42.1770 C   0  0  0  0  0  0  0  0  0  0  0  0
   37.8980   28.3440   41.9960 C   0  0  0  0  0  0  0  0  0  0  0  0
   37.1350   23.9530   41.5820 C   0  0  0  0  0  0  0  0  0  0  0  0
   37.9840   23.4970   40.5720 C   0  0  0  0  0  0  0  0  0  0  0  0
   38.5640   24.4550   39.7230 C   0  0  0  0  0  0  0  0  0  0  0  0
   38.2540   25.7500   39.9500 N   0  0  0  0  0  0  0  0  0  0  0  0
   37.4320   26.1610   40.9320 C   0  0  0  0  0  0  0  0  0  0  0  0
   36.8820   25.2500   41.7380 N   0  0  0  0  0  0  0  0  0  0  0  0
   38.9930   27.7910   42.7200 N   0  0  0  0  0  0  0  0  0  0  0  0
   39.0880   27.0450   43.8510 C   0  0  0  0  0  0  0  0  0  0  0  0
   40.3860   26.7850   44.1030 N   0  0  0  0  0  0  0  0  0  0  0  0
   41.1040   27.3700   43.1260 C   0  0  0  0  0  0  0  0  0  0  0  0
   40.2490   27.9840   42.2840 N   0  0  0  0  0  0  0  0  0  0  0  0
   35.4730   27.5229   39.7549 H   0  0  0  0  0  0  0  0  0  0  0  0
   34.9338   29.9295   40.0654 H   0  0  0  0  0  0  0  0  0  0  0  0
   36.3102   31.2894   41.6160 H   0  0  0  0  0  0  0  0  0  0  0  0
   38.2117   30.2865   42.8628 H   0  0  0  0  0  0  0  0  0  0  0  0
   36.6663   23.2263   42.2618 H   0  0  0  0  0  0  0  0  0  0  0  0
   38.1919   22.4243   40.4450 H   0  0  0  0  0  0  0  0  0  0  0  0
   39.2421   24.1625   38.9077 H   0  0  0  0  0  0  0  0  0  0  0  0
   38.2397   26.7066   44.4642 H   0  0  0  0  0  0  0  0  0  0  0  0
   42.1997   27.3503   43.0311 H   0  0  0  0  0  0  0  0  0  0  0  0
  1  6  2  0
  2  3  2  0
  2  1  1  0
  3  4  1  0
  4  5  2  0
  6  5  1  0
  6 13  1  0
  7 12  2  0
  8  7  1  0
  9 10  1  0
  9  8  2  0
 10 11  2  0
 11  1  1  0
 11 12  1  0
 13 14  1  0
 14 15  2  0
 16 15  1  0
 17 13  1  0
 17 16  2  0
  2 18  1  0
  3 19  1  0
  4 20  1  0
  5 21  1  0
  7 22  1  0
  8 23  1  0
  9 24  1  0
 14 25  1  0
 16 26  1  0
M  ISO  8  18  14  19  14  20  14  21  14  22  14  23  14  24  14  25  14
M  ISO  1  26  14
M  END
>  <minimizedAffinity>  (1) 
-4.35208321

>  <minimizedRMSD>  (1) 
4.19031382

$$$$
