
     RDKit          3D

 27 29  0  0  0  0  0  0  0  0999 V2000
   37.8510   30.6720   41.0870 C   0  0  0  0  0  0  0  0  0  0  0  0
   36.7760   31.3840   40.5350 C   0  0  0  0  0  0  0  0  0  0  0  0
   37.0540   32.6100   39.9500 C   0  0  0  0  0  0  0  0  0  0  0  0
   38.3500   33.1000   39.9210 C   0  0  0  0  0  0  0  0  0  0  0  0
   39.3950   32.3810   40.4720 C   0  0  0  0  0  0  0  0  0  0  0  0
   39.1460   31.1710   41.0530 C   0  0  0  0  0  0  0  0  0  0  0  0
   37.2630   28.1430   43.6670 C   0  0  0  0  0  0  0  0  0  0  0  0
   37.0650   26.9760   42.9240 C   0  0  0  0  0  0  0  0  0  0  0  0
   37.1310   27.0450   41.5060 C   0  0  0  0  0  0  0  0  0  0  0  0
   37.3880   28.2600   40.9500 N   0  0  0  0  0  0  0  0  0  0  0  0
   37.5760   29.3740   41.7100 C   0  0  0  0  0  0  0  0  0  0  0  0
   37.5090   29.2900   43.0470 N   0  0  0  0  0  0  0  0  0  0  0  0
   40.2380   30.4540   41.6120 N   0  0  0  0  0  0  0  0  0  0  0  0
   40.7770   29.4240   40.9530 N   0  0  0  0  0  0  0  0  0  0  0  0
   41.7950   28.8920   41.6590 C   0  0  0  0  0  0  0  0  0  0  0  0
   41.9170   29.6250   42.8440 C   0  0  0  0  0  0  0  0  0  0  0  0
   40.9300   30.5860   42.7740 C   0  0  0  0  0  0  0  0  0  0  0  0
   35.7514   30.9850   40.5650 H   0  0  0  0  0  0  0  0  0  0  0  0
   36.2385   33.1990   39.5049 H   0  0  0  0  0  0  0  0  0  0  0  0
   38.5504   34.0750   39.4529 H   0  0  0  0  0  0  0  0  0  0  0  0
   40.4192   32.7811   40.4423 H   0  0  0  0  0  0  0  0  0  0  0  0
   37.2149   28.1106   44.7655 H   0  0  0  0  0  0  0  0  0  0  0  0
   36.8614   26.0199   43.4284 H   0  0  0  0  0  0  0  0  0  0  0  0
   36.9803   26.1514   40.8825 H   0  0  0  0  0  0  0  0  0  0  0  0
   42.4171   28.0363   41.3576 H   0  0  0  0  0  0  0  0  0  0  0  0
   42.6427   29.4689   43.6558 H   0  0  0  0  0  0  0  0  0  0  0  0
   40.7325   31.3461   43.5442 H   0  0  0  0  0  0  0  0  0  0  0  0
  1 11  1  0
  2  1  2  0
  3  2  1  0
  4  3  2  0
  4  5  1  0
  5  6  2  0
  6  1  1  0
  6 13  1  0
  8  7  2  0
  9  8  1  0
 10  9  2  0
 10 11  1  0
 11 12  2  0
 12  7  1  0
 13 17  1  0
 14 13  1  0
 14 15  2  0
 15 16  1  0
 17 16  2  0
  2 18  1  0
  3 19  1  0
  4 20  1  0
  5 21  1  0
  7 22  1  0
  8 23  1  0
  9 24  1  0
 15 25  1  0
 16 26  1  0
 17 27  1  0
M  ISO  8  18  14  19  14  20  14  21  14  22  14  23  14  24  14  25  14
M  ISO  2  26  14  27  14
M  END
>  <minimizedAffinity>  (1) 
-4.31530142

>  <minimizedRMSD>  (1) 
1.09160864

$$$$
