
     RDKit          3D

 31 33  0  0  1  0  0  0  0  0999 V2000
   39.5990   29.4510   42.0100 N   0  0  0  0  0  0  0  0  0  0  0  0
   39.4650   30.4920   40.9880 C   0  0  0  0  0  0  0  0  0  0  0  0
   40.6770   30.2510   40.0840 C   0  0  0  0  0  0  0  0  0  0  0  0
   41.8340   30.6500   40.8100 N   0  0  0  0  0  0  0  0  0  0  0  0
   41.9190   30.2240   42.1610 C   0  0  0  0  0  0  0  0  0  0  0  0
   40.8700   29.2880   42.6360 C   0  0  2  0  0  0  0  0  0  0  0  0
   38.5440   28.5990   42.4140 C   0  0  0  0  0  0  0  0  0  0  0  0
   37.9210   28.6660   43.6620 C   0  0  0  0  0  0  0  0  0  0  0  0
   36.8970   27.7850   43.9580 C   0  0  0  0  0  0  0  0  0  0  0  0
   36.5450   26.8840   42.9960 N   0  0  0  0  0  0  0  0  0  0  0  0
   37.1550   26.8280   41.7890 C   0  0  0  0  0  0  0  0  0  0  0  0
   38.1500   27.6880   41.5090 N   0  0  0  0  0  0  0  0  0  0  0  0
   41.2720   27.8600   42.6160 C   0  0  0  0  0  0  0  0  0  0  0  0
   41.6590   27.0750   41.6040 C   0  0  0  0  0  0  0  0  0  0  0  0
   41.9970   25.7640   41.8250 C   0  0  0  0  0  0  0  0  0  0  0  0
   41.9030   25.3380   43.1660 C   0  0  0  0  0  0  0  0  0  0  0  0
   41.3110   26.9140   44.0400 S   0  0  0  0  0  0  0  0  0  0  0  0
   38.5255   30.3764   40.4277 H   0  0  0  0  0  0  0  0  0  0  0  0
   39.4347   31.5082   41.4080 H   0  0  0  0  0  0  0  0  0  0  0  0
   40.5853   30.8481   39.1647 H   0  0  0  0  0  0  0  0  0  0  0  0
   40.7439   29.1910   39.7977 H   0  0  0  0  0  0  0  0  0  0  0  0
   42.6568   30.2790   40.3137 H   0  0  0  0  0  0  0  0  0  0  0  0
   42.8918   29.7277   42.2926 H   0  0  0  0  0  0  0  0  0  0  0  0
   41.7817   31.1369   42.7592 H   0  0  0  0  0  0  0  0  0  0  0  0
   40.7519   29.5843   43.6887 H   0  0  0  0  0  0  0  0  0  0  0  0
   38.2419   29.4129   44.4030 H   0  0  0  0  0  0  0  0  0  0  0  0
   36.3859   27.8098   44.9317 H   0  0  0  0  0  0  0  0  0  0  0  0
   36.8390   26.0843   41.0426 H   0  0  0  0  0  0  0  0  0  0  0  0
   41.7066   27.4850   40.5844 H   0  0  0  0  0  0  0  0  0  0  0  0
   42.3182   25.0933   41.0145 H   0  0  0  0  0  0  0  0  0  0  0  0
   42.1175   24.3478   43.5944 H   0  0  0  0  0  0  0  0  0  0  0  0
  1  7  1  0
  1  6  1  0
  2  1  1  0
  3  4  1  0
  3  2  1  0
  4  5  1  0
  5  6  1  0
  7  8  2  0
  8  9  1  0
 10  9  2  0
 11 10  1  0
 12 11  2  0
 12  7  1  0
 13  6  1  0
 13 17  1  0
 14 15  1  0
 14 13  2  0
 15 16  2  0
 16 17  1  0
  2 18  1  0
  2 19  1  0
  3 20  1  0
  3 21  1  0
  4 22  1  0
  5 23  1  0
  5 24  1  0
  6 25  1  1
  8 26  1  0
  9 27  1  0
 11 28  1  0
 14 29  1  0
 15 30  1  0
 16 31  1  0
M  ISO  8  18  13  19  13  20  13  21  13  22   5  23  13  24  13  25  13
M  ISO  6  26  14  27  14  28  14  29  14  30  14  31  14
M  END
>  <minimizedAffinity>  (1) 
-3.56080317

>  <minimizedRMSD>  (1) 
1.70251119

$$$$
