
     RDKit          3D

 32 34  0  0  0  0  0  0  0  0999 V2000
   37.5360   30.4720   40.2290 C   0  0  0  0  0  0  0  0  0  0  0  0
   37.1150   31.7590   40.5010 C   0  0  0  0  0  0  0  0  0  0  0  0
   37.0920   32.6550   39.4430 C   0  0  0  0  0  0  0  0  0  0  0  0
   37.4830   32.2300   38.1840 C   0  0  0  0  0  0  0  0  0  0  0  0
   37.9030   30.9410   37.9160 C   0  0  0  0  0  0  0  0  0  0  0  0
   37.9230   30.0730   38.9610 C   0  0  0  0  0  0  0  0  0  0  0  0
   38.6910   28.6390   43.1810 C   0  0  0  0  0  0  0  0  0  0  0  0
   37.6370   27.7260   43.4300 C   0  0  0  0  0  0  0  0  0  0  0  0
   36.5120   27.7450   42.5620 C   0  0  0  0  0  0  0  0  0  0  0  0
   36.5480   28.6450   41.5610 N   0  0  0  0  0  0  0  0  0  0  0  0
   37.5650   29.5030   41.3470 C   0  0  0  0  0  0  0  0  0  0  0  0
   38.6160   29.4860   42.1580 N   0  0  0  0  0  0  0  0  0  0  0  0
   38.3810   28.7770   38.5950 N   0  0  0  0  0  0  0  0  0  0  0  0
   39.5090   27.8740   38.6750 C   0  0  0  0  0  0  0  0  0  0  0  0
   39.8040   27.6360   37.1860 C   0  0  0  0  0  0  0  0  0  0  0  0
   38.4180   27.3020   36.7140 C   0  0  0  0  0  0  0  0  0  0  0  0
   37.5640   27.8090   37.8510 C   0  0  0  0  0  0  0  0  0  0  0  0
   36.8108   32.0605   41.5142 H   0  0  0  0  0  0  0  0  0  0  0  0
   36.7663   33.6936   39.6020 H   0  0  0  0  0  0  0  0  0  0  0  0
   37.4580   32.9544   37.3565 H   0  0  0  0  0  0  0  0  0  0  0  0
   38.2067   30.6324   36.9048 H   0  0  0  0  0  0  0  0  0  0  0  0
   39.5747   28.6476   43.8359 H   0  0  0  0  0  0  0  0  0  0  0  0
   37.6880   27.0210   44.2729 H   0  0  0  0  0  0  0  0  0  0  0  0
   35.6600   27.0631   42.7000 H   0  0  0  0  0  0  0  0  0  0  0  0
   40.3640   28.3407   39.1861 H   0  0  0  0  0  0  0  0  0  0  0  0
   39.3141   26.9566   39.2498 H   0  0  0  0  0  0  0  0  0  0  0  0
   40.1990   28.5380   36.6958 H   0  0  0  0  0  0  0  0  0  0  0  0
   40.5689   26.8744   36.9743 H   0  0  0  0  0  0  0  0  0  0  0  0
   38.1805   27.8218   35.7741 H   0  0  0  0  0  0  0  0  0  0  0  0
   38.2716   26.2343   36.4934 H   0  0  0  0  0  0  0  0  0  0  0  0
   36.6610   28.2986   37.4575 H   0  0  0  0  0  0  0  0  0  0  0  0
   37.2404   26.9828   38.5011 H   0  0  0  0  0  0  0  0  0  0  0  0
  1  2  2  0
  1 11  1  0
  3  2  1  0
  4  3  2  0
  5  4  1  0
  5  6  2  0
  6  1  1  0
  7  8  2  0
  9  8  1  0
 10  9  2  0
 11 10  1  0
 11 12  2  0
 12  7  1  0
 13 14  1  0
 13  6  1  0
 15 14  1  0
 16 15  1  0
 16 17  1  0
 17 13  1  0
  2 18  1  0
  3 19  1  0
  4 20  1  0
  5 21  1  0
  7 22  1  0
  8 23  1  0
  9 24  1  0
 14 25  1  0
 14 26  1  0
 15 27  1  0
 15 28  1  0
 16 29  1  0
 16 30  1  0
 17 31  1  0
 17 32  1  0
M  ISO  8  18  14  19  14  20  14  21  14  22  14  23  14  24  14  25  13
M  ISO  7  26  13  27  13  28  13  29  13  30  13  31  13  32  13
M  END
>  <minimizedAffinity>  (1) 
-4.28212833

>  <minimizedRMSD>  (1) 
4.12605524

$$$$
