
     RDKit          3D

 26 27  0  0  0  0  0  0  0  0999 V2000
   38.1230   30.9070   41.1450 C   0  0  0  0  0  0  0  0  0  0  0  0
   39.1220   31.8240   41.4430 C   0  0  0  0  0  0  0  0  0  0  0  0
   39.0840   33.0620   40.8060 C   0  0  0  0  0  0  0  0  0  0  0  0
   38.0580   33.3170   39.9120 C   0  0  0  0  0  0  0  0  0  0  0  0
   37.0730   32.3960   39.6270 C   0  0  0  0  0  0  0  0  0  0  0  0
   37.1100   31.1870   40.2480 C   0  0  0  0  0  0  0  0  0  0  0  0
   38.9910   27.4350   41.9010 C   0  0  0  0  0  0  0  0  0  0  0  0
   38.3010   27.1780   43.0910 C   0  0  0  0  0  0  0  0  0  0  0  0
   37.5260   28.2060   43.6480 C   0  0  0  0  0  0  0  0  0  0  0  0
   37.5120   29.3720   42.9760 N   0  0  0  0  0  0  0  0  0  0  0  0
   38.1740   29.6120   41.8360 C   0  0  0  0  0  0  0  0  0  0  0  0
   38.8960   28.6310   41.3300 N   0  0  0  0  0  0  0  0  0  0  0  0
   36.0280   30.2420   39.8690 C   0  0  0  0  0  0  0  0  0  0  0  0
   36.0840   29.8280   38.4130 C   0  0  0  0  0  0  0  0  0  0  0  0
   39.9194   31.5801   42.1605 H   0  0  0  0  0  0  0  0  0  0  0  0
   39.8533   33.8216   41.0090 H   0  0  0  0  0  0  0  0  0  0  0  0
   38.0277   34.2946   39.4086 H   0  0  0  0  0  0  0  0  0  0  0  0
   36.2726   32.6344   38.9111 H   0  0  0  0  0  0  0  0  0  0  0  0
   39.6093   26.6504   41.4404 H   0  0  0  0  0  0  0  0  0  0  0  0
   38.3648   26.1937   43.5778 H   0  0  0  0  0  0  0  0  0  0  0  0
   36.9613   28.0669   44.5817 H   0  0  0  0  0  0  0  0  0  0  0  0
   36.1161   29.3404   40.4930 H   0  0  0  0  0  0  0  0  0  0  0  0
   35.0703   30.7597   40.0263 H   0  0  0  0  0  0  0  0  0  0  0  0
   36.2312   28.7399   38.3466 H   0  0  0  0  0  0  0  0  0  0  0  0
   35.1407   30.1013   37.9175 H   0  0  0  0  0  0  0  0  0  0  0  0
   36.9208   30.3421   37.9175 H   0  0  0  0  0  0  0  0  0  0  0  0
  1  2  2  0
  1 11  1  0
  3  2  1  0
  4  3  2  0
  5  4  1  0
  5  6  2  0
  6  1  1  0
  7  8  2  0
  8  9  1  0
 10  9  2  0
 11 10  1  0
 12 11  2  0
 12  7  1  0
 13  6  1  0
 14 13  1  0
  2 15  1  0
  3 16  1  0
  4 17  1  0
  5 18  1  0
  7 19  1  0
  8 20  1  0
  9 21  1  0
 13 22  1  0
 13 23  1  0
 14 24  1  0
 14 25  1  0
 14 26  1  0
M  ISO  8  15  14  16  14  17  14  18  14  19  14  20  14  21  14  22   8
M  ISO  4  23   8  24   8  25   8  26   8
M  END
>  <minimizedAffinity>  (1) 
-4.20535421

>  <minimizedRMSD>  (1) 
2.75345325

$$$$
