
     RDKit          3D

 22 23  0  0  0  0  0  0  0  0999 V2000
   37.9040   31.2720   40.8760 C   0  0  0  0  0  0  0  0  0  0  0  0
   37.0110   31.7780   39.9480 C   0  0  0  0  0  0  0  0  0  0  0  0
   37.1720   33.0520   39.4650 C   0  0  0  0  0  0  0  0  0  0  0  0
   38.2420   33.7930   39.9340 C   0  0  0  0  0  0  0  0  0  0  0  0
   39.1370   33.2900   40.8620 C   0  0  0  0  0  0  0  0  0  0  0  0
   38.9840   32.0210   41.3500 C   0  0  0  0  0  0  0  0  0  0  0  0
   37.4260   28.4520   43.1860 C   0  0  0  0  0  0  0  0  0  0  0  0
   37.3450   27.3500   42.3320 C   0  0  0  0  0  0  0  0  0  0  0  0
   37.4560   27.5860   40.9500 C   0  0  0  0  0  0  0  0  0  0  0  0
   37.6350   28.8540   40.5120 N   0  0  0  0  0  0  0  0  0  0  0  0
   37.7080   29.8970   41.3810 C   0  0  0  0  0  0  0  0  0  0  0  0
   37.6020   29.6710   42.6930 N   0  0  0  0  0  0  0  0  0  0  0  0
   39.8820   31.4670   42.3030 N   0  0  0  0  0  0  0  0  0  0  0  0
   36.1721   31.1588   39.5976 H   0  0  0  0  0  0  0  0  0  0  0  0
   36.4718   33.4714   38.7275 H   0  0  0  0  0  0  0  0  0  0  0  0
   38.3862   34.8162   39.5567 H   0  0  0  0  0  0  0  0  0  0  0  0
   39.9747   33.9129   41.2087 H   0  0  0  0  0  0  0  0  0  0  0  0
   37.3434   28.3085   44.2735 H   0  0  0  0  0  0  0  0  0  0  0  0
   37.1995   26.3334   42.7263 H   0  0  0  0  0  0  0  0  0  0  0  0
   37.3982   26.7519   40.2352 H   0  0  0  0  0  0  0  0  0  0  0  0
   40.6759   32.0253   42.6478 H   0  0  0  0  0  0  0  0  0  0  0  0
   39.7386   30.5074   42.6486 H   0  0  0  0  0  0  0  0  0  0  0  0
  1  6  1  0
  1 11  1  0
  2  1  2  0
  3  4  2  0
  3  2  1  0
  4  5  1  0
  5  6  2  0
  6 13  1  0
  8  7  2  0
  9  8  1  0
 10  9  2  0
 10 11  1  0
 11 12  2  0
 12  7  1  0
  2 14  1  0
  3 15  1  0
  4 16  1  0
  5 17  1  0
  7 18  1  0
  8 19  1  0
  9 20  1  0
 13 21  1  0
 13 22  1  0
M  ISO  7  14  14  15  14  16  14  17  14  18  14  19  14  20  14
M  END
>  <minimizedAffinity>  (1) 
-4.20221138

>  <minimizedRMSD>  (1) 
0.680711329

$$$$
