
     RDKit          3D

 32 34  0  0  1  0  0  0  0  0999 V2000
   39.6980   29.4800   42.7220 N   0  0  0  0  0  0  0  0  0  0  0  0
   39.9040   30.9220   42.7080 C   0  0  0  0  0  0  0  0  0  0  0  0
   41.0380   31.0980   41.6930 C   0  0  0  0  0  0  0  0  0  0  0  0
   42.2160   30.6540   42.3710 N   0  0  0  0  0  0  0  0  0  0  0  0
   42.1470   29.3440   42.8760 C   0  0  0  0  0  0  0  0  0  0  0  0
   40.8440   28.6190   42.8610 C   0  0  2  0  0  0  0  0  0  0  0  0
   38.4280   28.8550   42.6070 C   0  0  0  0  0  0  0  0  0  0  0  0
   37.8630   28.0880   43.6350 C   0  0  0  0  0  0  0  0  0  0  0  0
   36.6200   27.5130   43.4420 C   0  0  0  0  0  0  0  0  0  0  0  0
   36.0080   27.7320   42.2390 N   0  0  0  0  0  0  0  0  0  0  0  0
   36.5760   28.4780   41.2610 C   0  0  0  0  0  0  0  0  0  0  0  0
   37.7850   29.0440   41.4360 N   0  0  0  0  0  0  0  0  0  0  0  0
   40.8470   27.5160   41.8620 C   0  0  0  0  0  0  0  0  0  0  0  0
   40.7250   26.1920   42.2580 C   0  0  0  0  0  0  0  0  0  0  0  0
   40.7310   25.1890   41.3080 C   0  0  0  0  0  0  0  0  0  0  0  0
   40.8510   25.4340   39.9750 N   0  0  0  0  0  0  0  0  0  0  0  0
   40.9660   26.7240   39.6240 C   0  0  0  0  0  0  0  0  0  0  0  0
   40.9630   27.7100   40.5330 N   0  0  0  0  0  0  0  0  0  0  0  0
   38.9951   31.4481   42.3806 H   0  0  0  0  0  0  0  0  0  0  0  0
   40.1412   31.3357   43.6992 H   0  0  0  0  0  0  0  0  0  0  0  0
   41.1350   32.1542   41.4014 H   0  0  0  0  0  0  0  0  0  0  0  0
   40.8557   30.5307   40.7684 H   0  0  0  0  0  0  0  0  0  0  0  0
   43.0037   30.7012   41.7090 H   0  0  0  0  0  0  0  0  0  0  0  0
   42.8567   28.7386   42.2931 H   0  0  0  0  0  0  0  0  0  0  0  0
   42.3609   29.4687   43.9478 H   0  0  0  0  0  0  0  0  0  0  0  0
   40.7386   28.1676   43.8586 H   0  0  0  0  0  0  0  0  0  0  0  0
   38.4014   27.9451   44.5835 H   0  0  0  0  0  0  0  0  0  0  0  0
   36.1432   26.9043   44.2244 H   0  0  0  0  0  0  0  0  0  0  0  0
   36.0418   28.6233   40.3105 H   0  0  0  0  0  0  0  0  0  0  0  0
   40.6239   25.9418   43.3244 H   0  0  0  0  0  0  0  0  0  0  0  0
   40.6345   24.1461   41.6441 H   0  0  0  0  0  0  0  0  0  0  0  0
   41.0657   26.9804   38.5590 H   0  0  0  0  0  0  0  0  0  0  0  0
  1  6  1  0
  2  1  1  0
  3  4  1  0
  3  2  1  0
  4  5  1  0
  6  5  1  0
  7  1  1  0
  7  8  2  0
  9  8  1  0
 10  9  2  0
 11 12  2  0
 11 10  1  0
 12  7  1  0
 13 14  2  0
 13  6  1  0
 15 14  1  0
 16 15  2  0
 17 16  1  0
 17 18  2  0
 18 13  1  0
  2 19  1  0
  2 20  1  0
  3 21  1  0
  3 22  1  0
  4 23  1  0
  5 24  1  0
  5 25  1  0
  6 26  1  1
  8 27  1  0
  9 28  1  0
 11 29  1  0
 14 30  1  0
 15 31  1  0
 17 32  1  0
M  ISO  8  19  13  20  13  21  13  22  13  23   5  24  13  25  13  26  13
M  ISO  6  27  14  28  14  29  14  30  14  31  14  32  14
M  END
>  <minimizedAffinity>  (1) 
-3.52918172

>  <minimizedRMSD>  (1) 
0.172007278

$$$$
