
     RDKit          3D

 38 41  0  0  1  0  0  0  0  0999 V2000
   42.0690   31.1030   41.8630 N   0  0  0  0  0  0  0  0  0  0  0  0
   40.6350   31.3630   42.0170 C   0  0  0  0  0  0  0  0  0  0  0  0
   40.3120   32.1860   40.7580 C   0  0  0  0  0  0  0  0  0  0  0  0
   40.8660   33.4780   41.0060 N   0  0  0  0  0  0  0  0  0  0  0  0
   42.2290   33.4950   41.3800 C   0  0  0  0  0  0  0  0  0  0  0  0
   42.9180   32.1680   41.4810 C   0  0  1  0  0  0  0  0  0  0  0  0
   44.1220   32.3610   42.2530 N   0  0  0  0  0  0  0  0  0  0  0  0
   44.2440   32.4450   43.6100 C   0  0  0  0  0  0  0  0  0  0  0  0
   45.5330   32.6370   43.9160 N   0  0  0  0  0  0  0  0  0  0  0  0
   46.2240   32.6760   42.7610 C   0  0  0  0  0  0  0  0  0  0  0  0
   47.5780   32.8500   42.5150 C   0  0  0  0  0  0  0  0  0  0  0  0
   48.3910   33.0080   43.4620 O   0  0  0  0  0  0  0  0  0  0  0  0
   48.0500   32.8510   41.2350 N   0  0  0  0  0  0  0  0  0  0  0  0
   47.1880   32.6830   40.2200 C   0  0  0  0  0  0  0  0  0  0  0  0
   47.7120   32.6900   38.9020 N   0  0  0  0  0  0  0  0  0  0  0  0
   45.8680   32.5120   40.4500 N   0  0  0  0  0  0  0  0  0  0  0  0
   45.3720   32.5070   41.7190 C   0  0  0  0  0  0  0  0  0  0  0  0
   42.6550   29.8310   42.0610 C   0  0  0  0  0  0  0  0  0  0  0  0
   42.6340   29.1300   43.2600 C   0  0  0  0  0  0  0  0  0  0  0  0
   43.2460   27.8910   43.3480 C   0  0  0  0  0  0  0  0  0  0  0  0
   43.8550   27.4160   42.2130 N   0  0  0  0  0  0  0  0  0  0  0  0
   43.8680   28.1060   41.0550 C   0  0  0  0  0  0  0  0  0  0  0  0
   43.2720   29.3180   40.9590 N   0  0  0  0  0  0  0  0  0  0  0  0
   40.0604   30.4252   42.0378 H   0  0  0  0  0  0  0  0  0  0  0  0
   40.3795   31.8766   42.9556 H   0  0  0  0  0  0  0  0  0  0  0  0
   39.2242   32.2542   40.6098 H   0  0  0  0  0  0  0  0  0  0  0  0
   40.7268   31.7274   39.8482 H   0  0  0  0  0  0  0  0  0  0  0  0
   40.7660   34.0363   40.1462 H   0  0  0  0  0  0  0  0  0  0  0  0
   42.7712   34.0957   40.6349 H   0  0  0  0  0  0  0  0  0  0  0  0
   42.2426   33.9051   42.4006 H   0  0  0  0  0  0  0  0  0  0  0  0
   43.2222   31.8090   40.4867 H   0  0  0  0  0  0  0  0  0  0  0  0
   43.4188   32.3676   44.3332 H   0  0  0  0  0  0  0  0  0  0  0  0
   49.0551   32.9791   41.0499 H   0  0  0  0  0  0  0  0  0  0  0  0
   48.7221   32.8221   38.7501 H   0  0  0  0  0  0  0  0  0  0  0  0
   47.0824   32.5630   38.0968 H   0  0  0  0  0  0  0  0  0  0  0  0
   42.1313   29.5590   44.1394 H   0  0  0  0  0  0  0  0  0  0  0  0
   43.2443   27.3138   44.2844 H   0  0  0  0  0  0  0  0  0  0  0  0
   44.3703   27.6780   40.1749 H   0  0  0  0  0  0  0  0  0  0  0  0
  1  2  1  0
  1 18  1  0
  3  4  1  0
  3  2  1  0
  4  5  1  0
  5  6  1  0
  6  1  1  0
  6  7  1  0
  7  8  1  0
  8  9  2  0
 10  9  1  0
 11 10  1  0
 11 12  2  0
 13 11  1  0
 14 16  2  0
 14 13  1  0
 15 14  1  0
 16 17  1  0
 17  7  1  0
 17 10  2  0
 18 19  2  0
 19 20  1  0
 21 20  2  0
 22 21  1  0
 23 22  2  0
 23 18  1  0
  2 24  1  0
  2 25  1  0
  3 26  1  0
  3 27  1  0
  4 28  1  0
  5 29  1  0
  5 30  1  0
  6 31  1  6
  8 32  1  0
 13 33  1  0
 15 34  1  0
 15 35  1  0
 19 36  1  0
 20 37  1  0
 22 38  1  0
M  ISO  8  24  13  25  13  26  13  27  13  28   5  29  13  30  13  31  13
M  ISO  5  32  14  33   9  36  14  37  14  38  14
M  END
>  <minimizedAffinity>  (1) 
-3.51719403

>  <minimizedRMSD>  (1) 
6.95498753

$$$$
