
     RDKit          3D

 48 52  0  0  1  0  0  0  0  0999 V2000
   39.0290   29.0990   38.3680 N   0  0  0  0  0  0  0  0  0  0  0  0
   39.6330   28.7870   37.0890 C   0  0  0  0  0  0  0  0  0  0  0  0
   40.5970   27.6720   37.0610 C   0  0  0  0  0  0  0  0  0  0  0  0
   40.3710   26.7040   38.1220 N   0  0  0  0  0  0  0  0  0  0  0  0
   38.9580   26.6960   38.4740 C   0  0  0  0  0  0  0  0  0  0  0  0
   38.6900   27.9840   39.2070 C   0  0  1  0  0  0  0  0  0  0  0  0
   37.3540   30.7270   39.3450 C   0  0  0  0  0  0  0  0  0  0  0  0
   37.1340   31.8640   40.0960 C   0  0  0  0  0  0  0  0  0  0  0  0
   38.2390   32.5560   40.5780 C   0  0  0  0  0  0  0  0  0  0  0  0
   39.5110   32.0880   40.2920 C   0  0  0  0  0  0  0  0  0  0  0  0
   39.7050   30.9460   39.5370 C   0  0  0  0  0  0  0  0  0  0  0  0
   38.6380   30.2590   39.0630 C   0  0  0  0  0  0  0  0  0  0  0  0
   34.1630   28.9610   39.1440 C   0  0  0  0  0  0  0  0  0  0  0  0
   34.0100   28.6830   37.7800 C   0  0  0  0  0  0  0  0  0  0  0  0
   35.0240   29.1150   36.9300 C   0  0  0  0  0  0  0  0  0  0  0  0
   36.0530   29.7570   37.4920 N   0  0  0  0  0  0  0  0  0  0  0  0
   36.1900   30.0200   38.8100 C   0  0  0  0  0  0  0  0  0  0  0  0
   35.2320   29.6100   39.6030 N   0  0  0  0  0  0  0  0  0  0  0  0
   39.1620   27.9360   40.5840 C   0  0  0  0  0  0  0  0  0  0  0  0
   40.4360   27.8990   41.1760 C   0  0  0  0  0  0  0  0  0  0  0  0
   40.3670   27.7870   42.5150 N   0  0  0  0  0  0  0  0  0  0  0  0
   39.0950   27.7410   42.8960 C   0  0  0  0  0  0  0  0  0  0  0  0
   38.4260   27.6340   44.0920 C   0  0  0  0  0  0  0  0  0  0  0  0
   37.0540   27.6100   44.1990 C   0  0  0  0  0  0  0  0  0  0  0  0
   36.2980   27.6980   43.0490 C   0  0  0  0  0  0  0  0  0  0  0  0
   36.9740   27.8060   41.8540 C   0  0  0  0  0  0  0  0  0  0  0  0
   38.3700   27.8310   41.7370 C   0  0  0  0  0  0  0  0  0  0  0  0
   38.8208   28.5417   36.3889 H   0  0  0  0  0  0  0  0  0  0  0  0
   40.2188   29.6793   36.8232 H   0  0  0  0  0  0  0  0  0  0  0  0
   40.5114   27.1579   36.0923 H   0  0  0  0  0  0  0  0  0  0  0  0
   41.6001   28.0981   37.2101 H   0  0  0  0  0  0  0  0  0  0  0  0
   40.6500   25.7670   37.7979 H   0  0  0  0  0  0  0  0  0  0  0  0
   38.3407   26.6410   37.5652 H   0  0  0  0  0  0  0  0  0  0  0  0
   38.7096   25.8251   39.0984 H   0  0  0  0  0  0  0  0  0  0  0  0
   37.6174   28.1464   39.3894 H   0  0  0  0  0  0  0  0  0  0  0  0
   36.1124   32.2129   40.3072 H   0  0  0  0  0  0  0  0  0  0  0  0
   38.1046   33.4664   41.1807 H   0  0  0  0  0  0  0  0  0  0  0  0
   40.3850   32.6363   40.6735 H   0  0  0  0  0  0  0  0  0  0  0  0
   40.7251   30.5955   39.3214 H   0  0  0  0  0  0  0  0  0  0  0  0
   33.3848   28.6369   39.8506 H   0  0  0  0  0  0  0  0  0  0  0  0
   33.1285   28.1475   37.3977 H   0  0  0  0  0  0  0  0  0  0  0  0
   34.9806   28.9363   35.8455 H   0  0  0  0  0  0  0  0  0  0  0  0
   41.3783   27.9550   40.6113 H   0  0  0  0  0  0  0  0  0  0  0  0
   41.1777   27.7435   43.1489 H   0  0  0  0  0  0  0  0  0  0  0  0
   39.0202   27.5636   45.0150 H   0  0  0  0  0  0  0  0  0  0  0  0
   36.5699   27.5223   45.1828 H   0  0  0  0  0  0  0  0  0  0  0  0
   35.1987   27.6825   43.0848 H   0  0  0  0  0  0  0  0  0  0  0  0
   36.3793   27.8773   40.9314 H   0  0  0  0  0  0  0  0  0  0  0  0
  1 12  1  0
  1  6  1  0
  2  1  1  0
  3  2  1  0
  3  4  1  0
  4  5  1  0
  5  6  1  0
  6 19  1  0
  7  8  2  0
  8  9  1  0
 10  9  2  0
 11 10  1  0
 12  7  1  0
 12 11  2  0
 13 18  2  0
 14 13  1  0
 15 16  1  0
 15 14  2  0
 16 17  2  0
 17  7  1  0
 17 18  1  0
 19 20  2  0
 19 27  1  0
 20 21  1  0
 21 22  1  0
 22 23  2  0
 23 24  1  0
 25 24  2  0
 26 25  1  0
 27 26  2  0
 27 22  1  0
  2 28  1  0
  2 29  1  0
  3 30  1  0
  3 31  1  0
  4 32  1  0
  5 33  1  0
  5 34  1  0
  6 35  1  1
  8 36  1  0
  9 37  1  0
 10 38  1  0
 11 39  1  0
 13 40  1  0
 14 41  1  0
 15 42  1  0
 20 43  1  0
 21 44  1  0
 23 45  1  0
 24 46  1  0
 25 47  1  0
 26 48  1  0
M  ISO  8  28  13  29  13  30  13  31  13  32   5  33  13  34  13  35  13
M  ISO  8  36  14  37  14  38  14  39  14  40  14  41  14  42  14  43  14
M  ISO  5  44   9  45  14  46  14  47  14  48  14
M  END
>  <minimizedAffinity>  (1) 
-5.64898825

>  <minimizedRMSD>  (1) 
3.54509473

$$$$
