
     RDKit          3D

 37 39  0  0  1  0  0  0  0  0999 V2000
   37.4390   31.5600   39.7090 C   0  0  0  0  0  0  0  0  0  0  0  0
   37.1010   32.8870   39.6380 C   0  0  0  0  0  0  0  0  0  0  0  0
   38.0450   33.8260   40.0370 C   0  0  0  0  0  0  0  0  0  0  0  0
   39.2750   33.3960   40.4840 C   0  0  0  0  0  0  0  0  0  0  0  0
   39.5950   32.0540   40.5470 C   0  0  0  0  0  0  0  0  0  0  0  0
   38.6800   31.1260   40.1620 C   0  0  0  0  0  0  0  0  0  0  0  0
   39.1700   29.7960   40.3230 N   0  0  0  0  0  0  0  0  0  0  0  0
   40.3410   29.0590   39.9160 C   0  0  0  0  0  0  0  0  0  0  0  0
   40.8640   28.0800   40.8980 C   0  0  0  0  0  0  0  0  0  0  0  0
   39.8720   27.6200   41.8440 N   0  0  0  0  0  0  0  0  0  0  0  0
   38.5700   27.6500   41.1850 C   0  0  0  0  0  0  0  0  0  0  0  0
   38.1530   29.1120   41.1030 C   0  0  1  0  0  0  0  0  0  0  0  0
   38.1250   29.5250   42.5430 C   0  0  0  0  0  0  0  0  0  0  0  0
   39.0830   29.9300   43.2880 O   0  0  0  0  0  0  0  0  0  0  0  0
   36.8150   29.4310   43.0740 O   0  0  0  0  0  0  0  0  0  0  0  0
   34.6410   29.2000   39.7070 C   0  0  0  0  0  0  0  0  0  0  0  0
   34.6130   28.7120   38.3890 C   0  0  0  0  0  0  0  0  0  0  0  0
   35.5690   29.2070   37.5100 C   0  0  0  0  0  0  0  0  0  0  0  0
   36.4350   30.1070   37.9910 N   0  0  0  0  0  0  0  0  0  0  0  0
   36.4510   30.5710   39.2630 C   0  0  0  0  0  0  0  0  0  0  0  0
   35.5460   30.0980   40.0850 N   0  0  0  0  0  0  0  0  0  0  0  0
   36.1106   33.1996   39.2755 H   0  0  0  0  0  0  0  0  0  0  0  0
   37.8125   34.9004   39.9963 H   0  0  0  0  0  0  0  0  0  0  0  0
   40.0212   34.1404   40.7987 H   0  0  0  0  0  0  0  0  0  0  0  0
   40.5853   31.7380   40.9069 H   0  0  0  0  0  0  0  0  0  0  0  0
   40.0915   28.5118   38.9949 H   0  0  0  0  0  0  0  0  0  0  0  0
   41.1360   29.8090   39.7914 H   0  0  0  0  0  0  0  0  0  0  0  0
   41.2500   27.2089   40.3483 H   0  0  0  0  0  0  0  0  0  0  0  0
   41.6473   28.5917   41.4765 H   0  0  0  0  0  0  0  0  0  0  0  0
   40.0914   26.6582   42.1403 H   0  0  0  0  0  0  0  0  0  0  0  0
   38.6466   27.2207   40.1751 H   0  0  0  0  0  0  0  0  0  0  0  0
   37.8302   27.0590   41.7448 H   0  0  0  0  0  0  0  0  0  0  0  0
   37.1884   29.3279   40.6203 H   0  0  0  0  0  0  0  0  0  0  0  0
   36.6453   29.6733   44.0188 H   0  0  0  0  0  0  0  0  0  0  0  0
   33.9035   28.8337   40.4363 H   0  0  0  0  0  0  0  0  0  0  0  0
   33.8668   27.9705   38.0673 H   0  0  0  0  0  0  0  0  0  0  0  0
   35.6121   28.8731   36.4628 H   0  0  0  0  0  0  0  0  0  0  0  0
  1  6  1  0
  2  1  2  0
  2  3  1  0
  3  4  2  0
  4  5  1  0
  6  7  1  0
  6  5  2  0
  7 12  1  0
  8  7  1  0
  8  9  1  0
  9 10  1  0
 11 10  1  0
 12 11  1  0
 12 13  1  0
 13 15  1  0
 13 14  2  0
 16 21  2  0
 17 16  1  0
 18 19  1  0
 18 17  2  0
 19 20  2  0
 20  1  1  0
 20 21  1  0
  2 22  1  0
  3 23  1  0
  4 24  1  0
  5 25  1  0
  8 26  1  0
  8 27  1  0
  9 28  1  0
  9 29  1  0
 10 30  1  0
 11 31  1  0
 11 32  1  0
 12 33  1  6
 15 34  1  0
 16 35  1  0
 17 36  1  0
 18 37  1  0
M  ISO  8  22  14  23  14  24  14  25  14  26  13  27  13  28  13  29  13
M  ISO  8  30   5  31  13  32  13  33  13  34   3  35  14  36  14  37  14
M  END
>  <minimizedAffinity>  (1) 
-5.19908094

>  <minimizedRMSD>  (1) 
1.1940732

$$$$
