
     RDKit          3D

 41 44  0  0  1  0  0  0  0  0999 V2000
   35.8990   28.3170   40.1630 N   0  0  0  0  0  0  0  0  0  0  0  0
   34.8250   29.0360   39.5010 C   0  0  0  0  0  0  0  0  0  0  0  0
   34.9610   29.1930   38.0300 C   0  0  0  0  0  0  0  0  0  0  0  0
   35.7710   28.1740   37.4270 N   0  0  0  0  0  0  0  0  0  0  0  0
   35.7030   26.9680   38.2010 C   0  0  0  0  0  0  0  0  0  0  0  0
   36.4740   27.1750   39.4920 C   0  0  1  0  0  0  0  0  0  0  0  0
   37.4380   29.4280   41.8470 C   0  0  0  0  0  0  0  0  0  0  0  0
   37.9980   29.4240   43.1030 C   0  0  0  0  0  0  0  0  0  0  0  0
   37.6870   28.3600   43.9480 C   0  0  0  0  0  0  0  0  0  0  0  0
   36.8400   27.3610   43.5000 C   0  0  0  0  0  0  0  0  0  0  0  0
   36.2950   27.3980   42.2310 C   0  0  0  0  0  0  0  0  0  0  0  0
   36.5810   28.4250   41.3930 C   0  0  0  0  0  0  0  0  0  0  0  0
   37.2650   32.5400   39.9230 C   0  0  0  0  0  0  0  0  0  0  0  0
   38.4890   32.5820   39.2350 C   0  0  0  0  0  0  0  0  0  0  0  0
   39.3740   31.5260   39.4450 C   0  0  0  0  0  0  0  0  0  0  0  0
   38.9730   30.5650   40.2860 N   0  0  0  0  0  0  0  0  0  0  0  0
   37.7930   30.5340   40.9440 C   0  0  0  0  0  0  0  0  0  0  0  0
   36.9730   31.5330   40.7380 N   0  0  0  0  0  0  0  0  0  0  0  0
   37.9190   27.1900   39.2150 C   0  0  0  0  0  0  0  0  0  0  0  0
   38.5000   27.9100   38.1590 C   0  0  0  0  0  0  0  0  0  0  0  0
   39.8660   27.7560   38.1320 C   0  0  0  0  0  0  0  0  0  0  0  0
   40.0800   26.9200   39.2080 C   0  0  0  0  0  0  0  0  0  0  0  0
   38.9680   26.6130   39.8060 O   0  0  0  0  0  0  0  0  0  0  0  0
   33.8868   28.4964   39.6973 H   0  0  0  0  0  0  0  0  0  0  0  0
   34.8502   30.0555   39.9133 H   0  0  0  0  0  0  0  0  0  0  0  0
   33.9581   29.1548   37.5798 H   0  0  0  0  0  0  0  0  0  0  0  0
   35.4582   30.1572   37.8480 H   0  0  0  0  0  0  0  0  0  0  0  0
   35.4290   27.9867   36.4736 H   0  0  0  0  0  0  0  0  0  0  0  0
   34.6529   26.7339   38.4303 H   0  0  0  0  0  0  0  0  0  0  0  0
   36.1393   26.1329   37.6333 H   0  0  0  0  0  0  0  0  0  0  0  0
   36.3793   26.3456   40.2083 H   0  0  0  0  0  0  0  0  0  0  0  0
   38.6683   30.2327   43.4296 H   0  0  0  0  0  0  0  0  0  0  0  0
   38.1109   28.3146   44.9620 H   0  0  0  0  0  0  0  0  0  0  0  0
   36.5961   26.5213   44.1674 H   0  0  0  0  0  0  0  0  0  0  0  0
   35.6259   26.5905   41.8989 H   0  0  0  0  0  0  0  0  0  0  0  0
   36.5375   33.3534   39.7846 H   0  0  0  0  0  0  0  0  0  0  0  0
   38.7384   33.4132   38.5591 H   0  0  0  0  0  0  0  0  0  0  0  0
   40.3528   31.4844   38.9448 H   0  0  0  0  0  0  0  0  0  0  0  0
   37.9326   28.5216   37.4420 H   0  0  0  0  0  0  0  0  0  0  0  0
   40.5981   28.1875   37.4336 H   0  0  0  0  0  0  0  0  0  0  0  0
   41.0702   26.5577   39.5213 H   0  0  0  0  0  0  0  0  0  0  0  0
  1 12  1  0
  2  1  1  0
  3  2  1  0
  4  3  1  0
  4  5  1  0
  5  6  1  0
  6  1  1  0
  7  8  2  0
  8  9  1  0
 10  9  2  0
 11 10  1  0
 12  7  1  0
 12 11  2  0
 13 18  2  0
 14 15  2  0
 14 13  1  0
 15 16  1  0
 16 17  2  0
 17  7  1  0
 18 17  1  0
 19  6  1  0
 19 23  1  0
 20 19  2  0
 21 20  1  0
 21 22  2  0
 22 23  1  0
  2 24  1  0
  2 25  1  0
  3 26  1  0
  3 27  1  0
  4 28  1  0
  5 29  1  0
  5 30  1  0
  6 31  1  1
  8 32  1  0
  9 33  1  0
 10 34  1  0
 11 35  1  0
 13 36  1  0
 14 37  1  0
 15 38  1  0
 20 39  1  0
 21 40  1  0
 22 41  1  0
M  ISO  8  24  13  25  13  26  13  27  13  28   5  29  13  30  13  31  13
M  ISO  8  32  14  33  14  34  14  35  14  36  14  37  14  38  14  39  14
M  ISO  2  40  14  41  14
M  END
>  <minimizedAffinity>  (1) 
-5.08405161

>  <minimizedRMSD>  (1) 
5.45543337

$$$$
