
     RDKit          3D

 41 44  0  0  1  0  0  0  0  0999 V2000
   38.1320   27.9440   39.5650 N   0  0  0  0  0  0  0  0  0  0  0  0
   38.9790   27.1420   38.7000 C   0  0  0  0  0  0  0  0  0  0  0  0
   39.5040   25.8860   39.2850 C   0  0  0  0  0  0  0  0  0  0  0  0
   38.6820   25.3640   40.3410 N   0  0  0  0  0  0  0  0  0  0  0  0
   37.3150   25.7730   40.1430 C   0  0  0  0  0  0  0  0  0  0  0  0
   37.2000   27.2440   40.4270 C   0  0  1  0  0  0  0  0  0  0  0  0
   36.9210   30.1620   39.3540 C   0  0  0  0  0  0  0  0  0  0  0  0
   36.8400   31.4820   39.7140 C   0  0  0  0  0  0  0  0  0  0  0  0
   37.8150   31.9930   40.5590 C   0  0  0  0  0  0  0  0  0  0  0  0
   38.8230   31.1680   41.0030 C   0  0  0  0  0  0  0  0  0  0  0  0
   38.8860   29.8370   40.6270 C   0  0  0  0  0  0  0  0  0  0  0  0
   37.9390   29.3200   39.8050 C   0  0  0  0  0  0  0  0  0  0  0  0
   33.8120   28.7260   38.0450 C   0  0  0  0  0  0  0  0  0  0  0  0
   34.0360   28.6340   36.6720 C   0  0  0  0  0  0  0  0  0  0  0  0
   35.2680   29.0730   36.1940 C   0  0  0  0  0  0  0  0  0  0  0  0
   36.1290   29.5460   37.1020 N   0  0  0  0  0  0  0  0  0  0  0  0
   35.9060   29.6320   38.4300 C   0  0  0  0  0  0  0  0  0  0  0  0
   34.7430   29.2160   38.8600 N   0  0  0  0  0  0  0  0  0  0  0  0
   37.3400   27.4270   41.8340 N   0  0  0  0  0  0  0  0  0  0  0  0
   38.4970   27.1350   42.4500 N   0  0  0  0  0  0  0  0  0  0  0  0
   38.4120   27.3980   43.7430 C   0  0  0  0  0  0  0  0  0  0  0  0
   37.1590   27.8890   44.0470 C   0  0  0  0  0  0  0  0  0  0  0  0
   36.5290   27.8870   42.8190 C   0  0  0  0  0  0  0  0  0  0  0  0
   39.8393   27.7605   38.4045 H   0  0  0  0  0  0  0  0  0  0  0  0
   38.3370   26.8322   37.8622 H   0  0  0  0  0  0  0  0  0  0  0  0
   39.5701   25.1306   38.4881 H   0  0  0  0  0  0  0  0  0  0  0  0
   40.4874   26.1158   39.7209 H   0  0  0  0  0  0  0  0  0  0  0  0
   38.7349   24.3354   40.3388 H   0  0  0  0  0  0  0  0  0  0  0  0
   37.0170   25.5735   39.1031 H   0  0  0  0  0  0  0  0  0  0  0  0
   36.6562   25.2104   40.8208 H   0  0  0  0  0  0  0  0  0  0  0  0
   36.2216   27.6841   40.1838 H   0  0  0  0  0  0  0  0  0  0  0  0
   36.0239   32.1194   39.3430 H   0  0  0  0  0  0  0  0  0  0  0  0
   37.7824   33.0474   40.8709 H   0  0  0  0  0  0  0  0  0  0  0  0
   39.5959   31.5751   41.6715 H   0  0  0  0  0  0  0  0  0  0  0  0
   39.7034   29.1993   40.9946 H   0  0  0  0  0  0  0  0  0  0  0  0
   32.8512   28.3885   38.4609 H   0  0  0  0  0  0  0  0  0  0  0  0
   33.2700   28.2307   35.9933 H   0  0  0  0  0  0  0  0  0  0  0  0
   35.5204   29.0329   35.1241 H   0  0  0  0  0  0  0  0  0  0  0  0
   39.2228   27.2472   44.4709 H   0  0  0  0  0  0  0  0  0  0  0  0
   36.7617   28.2033   45.0234 H   0  0  0  0  0  0  0  0  0  0  0  0
   35.4927   28.2189   42.6583 H   0  0  0  0  0  0  0  0  0  0  0  0
  1 12  1  0
  1  6  1  0
  2  3  1  0
  2  1  1  0
  3  4  1  0
  5  4  1  0
  5  6  1  0
  6 19  1  0
  7  8  2  0
  7 12  1  0
  8  9  1  0
  9 10  2  0
 11 10  1  0
 12 11  2  0
 13 18  2  0
 14 13  1  0
 15 14  2  0
 15 16  1  0
 16 17  2  0
 17 18  1  0
 17  7  1  0
 19 20  1  0
 19 23  1  0
 20 21  2  0
 21 22  1  0
 23 22  2  0
  2 24  1  0
  2 25  1  0
  3 26  1  0
  3 27  1  0
  4 28  1  0
  5 29  1  0
  5 30  1  0
  6 31  1  6
  8 32  1  0
  9 33  1  0
 10 34  1  0
 11 35  1  0
 13 36  1  0
 14 37  1  0
 15 38  1  0
 21 39  1  0
 22 40  1  0
 23 41  1  0
M  ISO  8  24  13  25  13  26  13  27  13  28   5  29  13  30  13  31  13
M  ISO  8  32  14  33  14  34  14  35  14  36  14  37  14  38  14  39  14
M  ISO  2  40  14  41  14
M  END
>  <minimizedAffinity>  (1) 
-5.05924606

>  <minimizedRMSD>  (1) 
3.03245091

$$$$
