
     RDKit          3D

 41 44  0  0  1  0  0  0  0  0999 V2000
   38.5370   33.1140   39.7390 C   0  0  0  0  0  0  0  0  0  0  0  0
   38.0870   34.3500   40.1440 C   0  0  0  0  0  0  0  0  0  0  0  0
   38.9770   35.4110   40.1950 C   0  0  0  0  0  0  0  0  0  0  0  0
   40.2930   35.1970   39.8370 C   0  0  0  0  0  0  0  0  0  0  0  0
   40.7470   33.9530   39.4290 C   0  0  0  0  0  0  0  0  0  0  0  0
   39.8730   32.9160   39.3820 C   0  0  0  0  0  0  0  0  0  0  0  0
   40.5080   31.7170   38.9780 N   0  0  0  0  0  0  0  0  0  0  0  0
   41.0730   31.2100   37.7310 C   0  0  0  0  0  0  0  0  0  0  0  0
   42.3090   30.4150   37.8470 C   0  0  0  0  0  0  0  0  0  0  0  0
   42.4720   29.8010   39.1500 N   0  0  0  0  0  0  0  0  0  0  0  0
   41.1690   29.5500   39.7100 C   0  0  0  0  0  0  0  0  0  0  0  0
   40.5540   30.8520   40.1280 C   0  0  1  0  0  0  0  0  0  0  0  0
   41.0070   31.3810   41.4280 C   0  0  0  0  0  0  0  0  0  0  0  0
   40.0590   31.1780   42.6430 C   0  0  0  0  0  0  0  0  0  0  0  0
   41.4270   30.6150   42.5950 C   0  0  0  0  0  0  0  0  0  0  0  0
   36.1320   30.5510   40.7300 C   0  0  0  0  0  0  0  0  0  0  0  0
   35.8100   29.9050   39.5340 C   0  0  0  0  0  0  0  0  0  0  0  0
   36.4350   30.3710   38.3780 C   0  0  0  0  0  0  0  0  0  0  0  0
   37.2880   31.3950   38.5200 N   0  0  0  0  0  0  0  0  0  0  0  0
   37.5900   32.0090   39.6780 C   0  0  0  0  0  0  0  0  0  0  0  0
   36.9960   31.5600   40.7540 N   0  0  0  0  0  0  0  0  0  0  0  0
   37.0330   34.4940   40.4240 H   0  0  0  0  0  0  0  0  0  0  0  0
   38.6402   36.4079   40.5156 H   0  0  0  0  0  0  0  0  0  0  0  0
   41.0012   36.0378   39.8768 H   0  0  0  0  0  0  0  0  0  0  0  0
   41.8004   33.8082   39.1473 H   0  0  0  0  0  0  0  0  0  0  0  0
   41.2903   32.0743   37.0862 H   0  0  0  0  0  0  0  0  0  0  0  0
   40.3180   30.5192   37.3276 H   0  0  0  0  0  0  0  0  0  0  0  0
   42.2866   29.6207   37.0864 H   0  0  0  0  0  0  0  0  0  0  0  0
   43.1552   31.1025   37.7011 H   0  0  0  0  0  0  0  0  0  0  0  0
   42.9841   28.9127   39.0526 H   0  0  0  0  0  0  0  0  0  0  0  0
   40.5309   29.0669   38.9554 H   0  0  0  0  0  0  0  0  0  0  0  0
   41.2629   28.8879   40.5834 H   0  0  0  0  0  0  0  0  0  0  0  0
   39.5050   30.7125   40.4281 H   0  0  0  0  0  0  0  0  0  0  0  0
   41.5068   32.1873   40.8712 H   0  0  0  0  0  0  0  0  0  0  0  0
   39.8254   32.0179   43.3138 H   0  0  0  0  0  0  0  0  0  0  0  0
   39.0442   30.7836   42.7998 H   0  0  0  0  0  0  0  0  0  0  0  0
   41.5590   29.5266   42.5063 H   0  0  0  0  0  0  0  0  0  0  0  0
   42.2940   30.6814   43.2687 H   0  0  0  0  0  0  0  0  0  0  0  0
   35.6624   30.2187   41.6676 H   0  0  0  0  0  0  0  0  0  0  0  0
   35.0969   29.0680   39.5055 H   0  0  0  0  0  0  0  0  0  0  0  0
   36.2371   29.9191   37.3948 H   0  0  0  0  0  0  0  0  0  0  0  0
  1  2  2  0
  2  3  1  0
  4  3  2  0
  5  4  1  0
  6  5  2  0
  6  1  1  0
  7  6  1  0
  7 12  1  0
  8  9  1  0
  8  7  1  0
  9 10  1  0
 10 11  1  0
 11 12  1  0
 12 13  1  0
 13 15  1  0
 13 14  1  0
 15 14  1  0
 16 21  2  0
 17 16  1  0
 18 19  1  0
 18 17  2  0
 19 20  2  0
 20  1  1  0
 20 21  1  0
  2 22  1  0
  3 23  1  0
  4 24  1  0
  5 25  1  0
  8 26  1  0
  8 27  1  0
  9 28  1  0
  9 29  1  0
 10 30  1  0
 11 31  1  0
 11 32  1  0
 12 33  1  1
 13 34  1  0
 14 35  1  0
 14 36  1  0
 15 37  1  0
 15 38  1  0
 16 39  1  0
 17 40  1  0
 18 41  1  0
M  ISO  8  22  14  23  14  24  14  25  14  26  13  27  13  28  13  29  13
M  ISO  8  30   5  31  13  32  13  33  13  34  13  35  13  36  13  37  13
M  ISO  4  38  13  39  14  40  14  41  14
M  END
>  <minimizedAffinity>  (1) 
-4.97876167

>  <minimizedRMSD>  (1) 
3.08442736

$$$$
