
     RDKit          3D

 43 45  0  0  1  0  0  0  0  0999 V2000
   37.6330   31.8860   39.6540 C   0  0  0  0  0  0  0  0  0  0  0  0
   37.2010   33.1860   39.7720 C   0  0  0  0  0  0  0  0  0  0  0  0
   38.1450   34.1760   39.9960 C   0  0  0  0  0  0  0  0  0  0  0  0
   39.4770   33.8310   40.0920 C   0  0  0  0  0  0  0  0  0  0  0  0
   39.8970   32.5190   39.9710 C   0  0  0  0  0  0  0  0  0  0  0  0
   38.9840   31.5440   39.7550 C   0  0  0  0  0  0  0  0  0  0  0  0
   39.5890   30.2540   39.7220 N   0  0  0  0  0  0  0  0  0  0  0  0
   40.5100   29.5770   38.8460 C   0  0  0  0  0  0  0  0  0  0  0  0
   41.4930   28.6780   39.5000 C   0  0  0  0  0  0  0  0  0  0  0  0
   41.0560   28.1990   40.8070 N   0  0  0  0  0  0  0  0  0  0  0  0
   39.6180   28.1330   40.7910 C   0  0  0  0  0  0  0  0  0  0  0  0
   39.0740   29.5400   40.8690 C   0  0  1  0  0  0  0  0  0  0  0  0
   39.3300   30.0050   42.2350 C   0  0  0  0  0  0  0  0  0  0  0  0
   38.7220   28.8770   43.1190 C   0  0  0  0  0  0  0  0  0  0  0  0
   40.7720   29.9850   42.6910 C   0  0  0  0  0  0  0  0  0  0  0  0
   34.9850   29.4050   40.1070 C   0  0  0  0  0  0  0  0  0  0  0  0
   34.7930   28.8810   38.8300 C   0  0  0  0  0  0  0  0  0  0  0  0
   35.5830   29.3880   37.8030 C   0  0  0  0  0  0  0  0  0  0  0  0
   36.4630   30.3410   38.1380 N   0  0  0  0  0  0  0  0  0  0  0  0
   36.6430   30.8430   39.3790 C   0  0  0  0  0  0  0  0  0  0  0  0
   35.8900   30.3530   40.3300 N   0  0  0  0  0  0  0  0  0  0  0  0
   36.1325   33.4343   39.6906 H   0  0  0  0  0  0  0  0  0  0  0  0
   37.8348   35.2266   40.0962 H   0  0  0  0  0  0  0  0  0  0  0  0
   40.2237   34.6190   40.2692 H   0  0  0  0  0  0  0  0  0  0  0  0
   40.9655   32.2698   40.0498 H   0  0  0  0  0  0  0  0  0  0  0  0
   41.0721   30.3435   38.2924 H   0  0  0  0  0  0  0  0  0  0  0  0
   39.8901   28.9256   38.2125 H   0  0  0  0  0  0  0  0  0  0  0  0
   41.6593   27.8085   38.8471 H   0  0  0  0  0  0  0  0  0  0  0  0
   42.4130   29.2602   39.6571 H   0  0  0  0  0  0  0  0  0  0  0  0
   41.4481   27.2637   40.9868 H   0  0  0  0  0  0  0  0  0  0  0  0
   39.2786   27.6548   39.8603 H   0  0  0  0  0  0  0  0  0  0  0  0
   39.2578   27.5412   41.6454 H   0  0  0  0  0  0  0  0  0  0  0  0
   37.9890   29.6866   40.7628 H   0  0  0  0  0  0  0  0  0  0  0  0
   38.9508   31.0358   42.2963 H   0  0  0  0  0  0  0  0  0  0  0  0
   38.8582   29.1297   44.1809 H   0  0  0  0  0  0  0  0  0  0  0  0
   37.6485   28.7783   42.9004 H   0  0  0  0  0  0  0  0  0  0  0  0
   39.2297   27.9260   42.9004 H   0  0  0  0  0  0  0  0  0  0  0  0
   40.8089   29.9845   43.7904 H   0  0  0  0  0  0  0  0  0  0  0  0
   41.2654   29.0799   42.3071 H   0  0  0  0  0  0  0  0  0  0  0  0
   41.2903   30.8760   42.3071 H   0  0  0  0  0  0  0  0  0  0  0  0
   34.3782   29.0283   40.9436 H   0  0  0  0  0  0  0  0  0  0  0  0
   34.0454   28.0965   38.6412 H   0  0  0  0  0  0  0  0  0  0  0  0
   35.4898   29.0249   36.7688 H   0  0  0  0  0  0  0  0  0  0  0  0
  1  6  1  0
  1  2  2  0
  2  3  1  0
  3  4  2  0
  5  4  1  0
  6  5  2  0
  7  6  1  0
  7 12  1  0
  8  9  1  0
  8  7  1  0
  9 10  1  0
 11 10  1  0
 11 12  1  0
 12 13  1  0
 13 15  1  0
 13 14  1  0
 16 21  2  0
 17 16  1  0
 18 19  1  0
 18 17  2  0
 19 20  2  0
 20  1  1  0
 20 21  1  0
  2 22  1  0
  3 23  1  0
  4 24  1  0
  5 25  1  0
  8 26  1  0
  8 27  1  0
  9 28  1  0
  9 29  1  0
 10 30  1  0
 11 31  1  0
 11 32  1  0
 12 33  1  6
 13 34  1  0
 14 35  1  0
 14 36  1  0
 14 37  1  0
 15 38  1  0
 15 39  1  0
 15 40  1  0
 16 41  1  0
 17 42  1  0
 18 43  1  0
M  ISO  8  22  14  23  14  24  14  25  14  26  13  27  13  28  13  29  13
M  ISO  8  30   5  31  13  32  13  33  13  34   8  35   8  36   8  37   8
M  ISO  6  38   8  39   8  40   8  41  14  42  14  43  14
M  END
>  <minimizedAffinity>  (1) 
-4.87776804

>  <minimizedRMSD>  (1) 
1.55729425

$$$$
