
     RDKit          3D

 31 33  0  0  1  0  0  0  0  0999 V2000
   39.7410   29.2940   42.6110 N   0  0  0  0  0  0  0  0  0  0  0  0
   39.9220   30.5830   41.9530 C   0  0  0  0  0  0  0  0  0  0  0  0
   41.1070   30.3490   41.0230 C   0  0  0  0  0  0  0  0  0  0  0  0
   42.2630   30.2270   41.8450 N   0  0  0  0  0  0  0  0  0  0  0  0
   42.1660   29.3730   42.9720 C   0  0  0  0  0  0  0  0  0  0  0  0
   40.8820   28.6600   43.1770 C   0  0  2  0  0  0  0  0  0  0  0  0
   38.4800   28.6440   42.7140 C   0  0  0  0  0  0  0  0  0  0  0  0
   37.8810   28.3780   43.9650 C   0  0  0  0  0  0  0  0  0  0  0  0
   36.6440   27.7360   43.9730 C   0  0  0  0  0  0  0  0  0  0  0  0
   36.0820   27.4010   42.7640 N   0  0  0  0  0  0  0  0  0  0  0  0
   36.6940   27.6760   41.6000 C   0  0  0  0  0  0  0  0  0  0  0  0
   37.8880   28.2940   41.5600 N   0  0  0  0  0  0  0  0  0  0  0  0
   40.9920   27.2220   42.8050 C   0  0  0  0  0  0  0  0  0  0  0  0
   40.8830   26.0840   43.6020 C   0  0  0  0  0  0  0  0  0  0  0  0
   41.0510   24.9450   42.8560 C   0  0  0  0  0  0  0  0  0  0  0  0
   41.2620   25.3770   41.6190 N   0  0  0  0  0  0  0  0  0  0  0  0
   41.2310   26.6880   41.5720 N   0  0  0  0  0  0  0  0  0  0  0  0
   39.0240   30.8618   41.3821 H   0  0  0  0  0  0  0  0  0  0  0  0
   40.0930   31.4049   42.6638 H   0  0  0  0  0  0  0  0  0  0  0  0
   41.2208   31.1995   40.3347 H   0  0  0  0  0  0  0  0  0  0  0  0
   40.9581   29.4427   40.4176 H   0  0  0  0  0  0  0  0  0  0  0  0
   43.0288   29.8743   41.2533 H   0  0  0  0  0  0  0  0  0  0  0  0
   42.9551   28.6123   42.8789 H   0  0  0  0  0  0  0  0  0  0  0  0
   42.2598   30.0408   43.8410 H   0  0  0  0  0  0  0  0  0  0  0  0
   40.6923   28.7138   44.2592 H   0  0  0  0  0  0  0  0  0  0  0  0
   38.3753   28.6685   44.9038 H   0  0  0  0  0  0  0  0  0  0  0  0
   36.1325   27.5042   44.9188 H   0  0  0  0  0  0  0  0  0  0  0  0
   36.2067   27.3887   40.6566 H   0  0  0  0  0  0  0  0  0  0  0  0
   40.6883   26.0973   44.6845 H   0  0  0  0  0  0  0  0  0  0  0  0
   41.0181   23.9027   43.2062 H   0  0  0  0  0  0  0  0  0  0  0  0
   41.4276   24.7662   40.8063 H   0  0  0  0  0  0  0  0  0  0  0  0
  1  7  1  0
  1  6  1  0
  2  1  1  0
  3  4  1  0
  3  2  1  0
  4  5  1  0
  5  6  1  0
  7  8  2  0
  8  9  1  0
 10  9  2  0
 11 10  1  0
 12 11  2  0
 12  7  1  0
 13  6  1  0
 13 14  1  0
 15 14  2  0
 16 15  1  0
 17 16  1  0
 17 13  2  0
  2 18  1  0
  2 19  1  0
  3 20  1  0
  3 21  1  0
  4 22  1  0
  5 23  1  0
  5 24  1  0
  6 25  1  1
  8 26  1  0
  9 27  1  0
 11 28  1  0
 14 29  1  0
 15 30  1  0
 16 31  1  0
M  ISO  8  18  13  19  13  20  13  21  13  22   5  23  13  24  13  25  13
M  ISO  6  26  14  27  14  28  14  29  14  30  14  31   9
M  END
>  <minimizedAffinity>  (1) 
-3.39041734

>  <minimizedRMSD>  (1) 
1.21056139

$$$$
