
     RDKit          3D

 42 45  0  0  1  0  0  0  0  0999 V2000
   38.2060   28.8650   38.5710 N   0  0  0  0  0  0  0  0  0  0  0  0
   37.6620   27.7830   37.7680 C   0  0  0  0  0  0  0  0  0  0  0  0
   38.6140   27.0630   36.8950 C   0  0  0  0  0  0  0  0  0  0  0  0
   39.9940   27.1810   37.3340 N   0  0  0  0  0  0  0  0  0  0  0  0
   40.0040   27.2990   38.7720 C   0  0  0  0  0  0  0  0  0  0  0  0
   39.5220   28.6730   39.1430 C   0  0  1  0  0  0  0  0  0  0  0  0
   37.4110   30.5570   40.2780 C   0  0  0  0  0  0  0  0  0  0  0  0
   37.0500   31.8600   40.5480 C   0  0  0  0  0  0  0  0  0  0  0  0
   37.0560   32.7730   39.4990 C   0  0  0  0  0  0  0  0  0  0  0  0
   37.4140   32.3570   38.2420 C   0  0  0  0  0  0  0  0  0  0  0  0
   37.7730   31.0470   37.9850 C   0  0  0  0  0  0  0  0  0  0  0  0
   37.7760   30.1450   39.0000 C   0  0  0  0  0  0  0  0  0  0  0  0
   38.2490   28.8020   43.3690 C   0  0  0  0  0  0  0  0  0  0  0  0
   37.3200   27.7640   43.4370 C   0  0  0  0  0  0  0  0  0  0  0  0
   36.3940   27.6730   42.4000 C   0  0  0  0  0  0  0  0  0  0  0  0
   36.4790   28.5920   41.4290 N   0  0  0  0  0  0  0  0  0  0  0  0
   37.3820   29.5930   41.3740 C   0  0  0  0  0  0  0  0  0  0  0  0
   38.2430   29.6600   42.3570 N   0  0  0  0  0  0  0  0  0  0  0  0
   40.5060   29.7160   38.9610 C   0  0  0  0  0  0  0  0  0  0  0  0
   41.1220   30.6000   39.8560 C   0  0  0  0  0  0  0  0  0  0  0  0
   42.0660   31.5090   39.4390 C   0  0  0  0  0  0  0  0  0  0  0  0
   42.4180   31.5630   38.1410 N   0  0  0  0  0  0  0  0  0  0  0  0
   41.8340   30.7140   37.2580 C   0  0  0  0  0  0  0  0  0  0  0  0
   40.8960   29.8080   37.6540 N   0  0  0  0  0  0  0  0  0  0  0  0
   37.2180   27.0479   38.4554 H   0  0  0  0  0  0  0  0  0  0  0  0
   36.9459   28.2614   37.0837 H   0  0  0  0  0  0  0  0  0  0  0  0
   38.5344   27.4732   35.8775 H   0  0  0  0  0  0  0  0  0  0  0  0
   38.3491   25.9960   36.9319 H   0  0  0  0  0  0  0  0  0  0  0  0
   40.5226   26.3440   37.0496 H   0  0  0  0  0  0  0  0  0  0  0  0
   39.3379   26.5415   39.2107 H   0  0  0  0  0  0  0  0  0  0  0  0
   41.0231   27.1418   39.1551 H   0  0  0  0  0  0  0  0  0  0  0  0
   39.3908   28.7583   40.2318 H   0  0  0  0  0  0  0  0  0  0  0  0
   36.7652   32.1687   41.5647 H   0  0  0  0  0  0  0  0  0  0  0  0
   36.7755   33.8218   39.6762 H   0  0  0  0  0  0  0  0  0  0  0  0
   37.4155   33.0846   37.4170 H   0  0  0  0  0  0  0  0  0  0  0  0
   38.0537   30.7380   36.9673 H   0  0  0  0  0  0  0  0  0  0  0  0
   38.9984   28.9110   44.1668 H   0  0  0  0  0  0  0  0  0  0  0  0
   37.3185   27.0486   44.2726 H   0  0  0  0  0  0  0  0  0  0  0  0
   35.6286   26.8832   42.3795 H   0  0  0  0  0  0  0  0  0  0  0  0
   40.8436   30.5663   40.9196 H   0  0  0  0  0  0  0  0  0  0  0  0
   42.5327   32.1909   40.1651 H   0  0  0  0  0  0  0  0  0  0  0  0
   42.1244   30.7581   36.1980 H   0  0  0  0  0  0  0  0  0  0  0  0
  1 12  1  0
  1  6  1  0
  2  1  1  0
  3  4  1  0
  3  2  1  0
  4  5  1  0
  5  6  1  0
  7  8  2  0
  7 17  1  0
  9  8  1  0
 10  9  2  0
 11 10  1  0
 11 12  2  0
 12  7  1  0
 13 14  2  0
 15 14  1  0
 16 15  2  0
 17 16  1  0
 17 18  2  0
 18 13  1  0
 19  6  1  0
 19 20  2  0
 21 20  1  0
 22 21  2  0
 23 24  2  0
 23 22  1  0
 24 19  1  0
  2 25  1  0
  2 26  1  0
  3 27  1  0
  3 28  1  0
  4 29  1  0
  5 30  1  0
  5 31  1  0
  6 32  1  1
  8 33  1  0
  9 34  1  0
 10 35  1  0
 11 36  1  0
 13 37  1  0
 14 38  1  0
 15 39  1  0
 20 40  1  0
 21 41  1  0
 23 42  1  0
M  ISO  8  25  13  26  13  27  13  28  13  29   5  30  13  31  13  32  13
M  ISO  8  33  14  34  14  35  14  36  14  37  14  38  14  39  14  40  14
M  ISO  2  41  14  42  14
M  END
>  <minimizedAffinity>  (1) 
-4.87594366

>  <minimizedRMSD>  (1) 
4.5706954

$$$$
