
     RDKit          3D

 40 43  0  0  1  0  0  0  0  0999 V2000
   37.5810   31.3640   38.9620 C   0  0  0  0  0  0  0  0  0  0  0  0
   37.0640   32.5550   39.4140 C   0  0  0  0  0  0  0  0  0  0  0  0
   37.9000   33.4310   40.0850 C   0  0  0  0  0  0  0  0  0  0  0  0
   39.2200   33.0900   40.2840 C   0  0  0  0  0  0  0  0  0  0  0  0
   39.7370   31.8790   39.8230 C   0  0  0  0  0  0  0  0  0  0  0  0
   38.9030   31.0180   39.1590 C   0  0  0  0  0  0  0  0  0  0  0  0
   39.5920   29.8420   38.7660 N   0  0  0  0  0  0  0  0  0  0  0  0
   40.0590   29.2360   37.5490 C   0  0  0  0  0  0  0  0  0  0  0  0
   41.3610   28.5280   37.6080 C   0  0  0  0  0  0  0  0  0  0  0  0
   41.6920   28.0530   38.9340 N   0  0  0  0  0  0  0  0  0  0  0  0
   40.4680   27.7870   39.6650 C   0  0  0  0  0  0  0  0  0  0  0  0
   39.8610   29.1130   39.9890 C   0  0  2  0  0  0  0  0  0  0  0  0
   38.8410   29.0850   40.9640 N   0  0  0  0  0  0  0  0  0  0  0  0
   38.7520   29.7970   42.1260 C   0  0  0  0  0  0  0  0  0  0  0  0
   37.6070   29.4660   42.7650 N   0  0  0  0  0  0  0  0  0  0  0  0
   36.9840   28.5490   42.0020 C   0  0  0  0  0  0  0  0  0  0  0  0
   37.7500   28.3370   40.9200 N   0  0  0  0  0  0  0  0  0  0  0  0
   34.9130   28.9450   38.2890 C   0  0  0  0  0  0  0  0  0  0  0  0
   35.0230   28.7020   36.9100 C   0  0  0  0  0  0  0  0  0  0  0  0
   36.0250   29.3840   36.2240 C   0  0  0  0  0  0  0  0  0  0  0  0
   36.8030   30.2150   36.9360 N   0  0  0  0  0  0  0  0  0  0  0  0
   36.6990   30.4460   38.2540 C   0  0  0  0  0  0  0  0  0  0  0  0
   35.7440   29.7870   38.8590 N   0  0  0  0  0  0  0  0  0  0  0  0
   36.0066   32.8070   39.2457 H   0  0  0  0  0  0  0  0  0  0  0  0
   37.5135   34.3916   40.4563 H   0  0  0  0  0  0  0  0  0  0  0  0
   39.8810   33.7882   40.8183 H   0  0  0  0  0  0  0  0  0  0  0  0
   40.7932   31.6204   39.9892 H   0  0  0  0  0  0  0  0  0  0  0  0
   40.1473   30.0315   36.7944 H   0  0  0  0  0  0  0  0  0  0  0  0
   39.3192   28.4563   37.3149 H   0  0  0  0  0  0  0  0  0  0  0  0
   41.3207   27.6648   36.9274 H   0  0  0  0  0  0  0  0  0  0  0  0
   42.1386   29.2489   37.3155 H   0  0  0  0  0  0  0  0  0  0  0  0
   42.2450   27.1871   38.8616 H   0  0  0  0  0  0  0  0  0  0  0  0
   39.7777   27.1960   39.0451 H   0  0  0  0  0  0  0  0  0  0  0  0
   40.6724   27.2125   40.5805 H   0  0  0  0  0  0  0  0  0  0  0  0
   40.6040   29.7114   40.5367 H   0  0  0  0  0  0  0  0  0  0  0  0
   39.4944   30.5248   42.4854 H   0  0  0  0  0  0  0  0  0  0  0  0
   36.0229   28.0622   42.2242 H   0  0  0  0  0  0  0  0  0  0  0  0
   34.1403   28.4363   38.8841 H   0  0  0  0  0  0  0  0  0  0  0  0
   34.3474   28.0036   36.3944 H   0  0  0  0  0  0  0  0  0  0  0  0
   36.1730   29.2474   35.1426 H   0  0  0  0  0  0  0  0  0  0  0  0
  1  6  1  0
  1  2  2  0
  2  3  1  0
  3  4  2  0
  5  4  1  0
  6  5  2  0
  7  6  1  0
  7 12  1  0
  8  9  1  0
  8  7  1  0
  9 10  1  0
 10 11  1  0
 11 12  1  0
 12 13  1  0
 13 14  1  0
 14 15  2  0
 16 15  1  0
 17 13  1  0
 17 16  2  0
 18 23  2  0
 19 18  1  0
 20 19  2  0
 20 21  1  0
 21 22  2  0
 22 23  1  0
 22  1  1  0
  2 24  1  0
  3 25  1  0
  4 26  1  0
  5 27  1  0
  8 28  1  0
  8 29  1  0
  9 30  1  0
  9 31  1  0
 10 32  1  0
 11 33  1  0
 11 34  1  0
 12 35  1  1
 14 36  1  0
 16 37  1  0
 18 38  1  0
 19 39  1  0
 20 40  1  0
M  ISO  8  24  14  25  14  26  14  27  14  28  13  29  13  30  13  31  13
M  ISO  8  32   5  33  13  34  13  35  13  36  14  37  14  38  14  39  14
M  ISO  1  40  14
M  END
>  <minimizedAffinity>  (1) 
-4.68645048

>  <minimizedRMSD>  (1) 
2.61325121

$$$$
