
     RDKit          3D

 29 32  0  0  0  0  0  0  0  0999 V2000
   39.5650   29.8120   41.7180 C   0  0  0  0  0  0  0  0  0  0  0  0
   38.7210   29.5270   40.6810 N   0  0  0  0  0  0  0  0  0  0  0  0
   38.3580   30.6230   40.0830 O   0  0  0  0  0  0  0  0  0  0  0  0
   38.9280   31.6470   40.6810 C   0  0  0  0  0  0  0  0  0  0  0  0
   39.7000   31.1810   41.7190 N   0  0  0  0  0  0  0  0  0  0  0  0
   38.8500   33.0430   40.4100 N   0  0  0  0  0  0  0  0  0  0  0  0
   37.7540   33.7300   40.0370 C   0  0  0  0  0  0  0  0  0  0  0  0
   38.0840   35.0200   39.8780 N   0  0  0  0  0  0  0  0  0  0  0  0
   39.3960   35.1350   40.1550 C   0  0  0  0  0  0  0  0  0  0  0  0
   40.2070   36.2740   40.1320 C   0  0  0  0  0  0  0  0  0  0  0  0
   39.6860   37.3760   39.8140 O   0  0  0  0  0  0  0  0  0  0  0  0
   41.4980   36.0790   40.4590 N   0  0  0  0  0  0  0  0  0  0  0  0
   41.9700   34.8610   40.7870 C   0  0  0  0  0  0  0  0  0  0  0  0
   43.3560   34.8670   41.1010 N   0  0  0  0  0  0  0  0  0  0  0  0
   41.1960   33.7650   40.8110 N   0  0  0  0  0  0  0  0  0  0  0  0
   39.8920   33.8920   40.4920 C   0  0  0  0  0  0  0  0  0  0  0  0
   41.8430   27.6790   43.7020 C   0  0  0  0  0  0  0  0  0  0  0  0
   40.9380   26.7080   44.1590 C   0  0  0  0  0  0  0  0  0  0  0  0
   39.5940   26.7980   43.7890 C   0  0  0  0  0  0  0  0  0  0  0  0
   39.2340   27.8600   42.9780 N   0  0  0  0  0  0  0  0  0  0  0  0
   40.1300   28.7660   42.5640 C   0  0  0  0  0  0  0  0  0  0  0  0
   41.4150   28.6710   42.9250 N   0  0  0  0  0  0  0  0  0  0  0  0
   36.7514   33.3029   39.8871 H   0  0  0  0  0  0  0  0  0  0  0  0
   42.1422   36.8827   40.4584 H   0  0  0  0  0  0  0  0  0  0  0  0
   43.8276   33.9908   41.3670 H   0  0  0  0  0  0  0  0  0  0  0  0
   43.8889   35.7476   41.0626 H   0  0  0  0  0  0  0  0  0  0  0  0
   42.9041   27.6200   43.9857 H   0  0  0  0  0  0  0  0  0  0  0  0
   41.2836   25.8849   44.8017 H   0  0  0  0  0  0  0  0  0  0  0  0
   38.8544   26.0574   44.1274 H   0  0  0  0  0  0  0  0  0  0  0  0
  1  5  1  0
  1 21  1  0
  2  1  2  0
  3  2  1  0
  3  4  1  0
  4  5  2  0
  6 16  1  0
  6  4  1  0
  7  6  1  0
  8  7  2  0
  8  9  1  0
  9 16  2  0
 10  9  1  0
 10 12  1  0
 11 10  2  0
 12 13  1  0
 13 15  2  0
 13 14  1  0
 16 15  1  0
 17 18  2  0
 19 18  1  0
 20 19  2  0
 21 22  2  0
 21 20  1  0
 22 17  1  0
  7 23  1  0
 12 24  1  0
 14 25  1  0
 14 26  1  0
 17 27  1  0
 18 28  1  0
 19 29  1  0
M  ISO  5  23  14  24   9  27  14  28  14  29  14
M  END
>  <minimizedAffinity>  (1) 
-6.38727045

>  <minimizedRMSD>  (1) 
1.88877344

$$$$
