
     RDKit          3D

 26 28  0  0  0  0  0  0  0  0999 V2000
   37.5860   30.2900   41.2590 C   0  0  0  0  0  0  0  0  0  0  0  0
   36.5630   31.0830   40.8290 N   0  0  0  0  0  0  0  0  0  0  0  0
   37.0020   32.2760   40.5270 O   0  0  0  0  0  0  0  0  0  0  0  0
   38.2980   32.3080   40.7400 C   0  0  0  0  0  0  0  0  0  0  0  0
   38.7060   31.0850   41.2000 N   0  0  0  0  0  0  0  0  0  0  0  0
   39.0440   33.4790   40.4980 N   0  0  0  0  0  0  0  0  0  0  0  0
   38.4020   34.6280   40.2540 C   0  0  0  0  0  0  0  0  0  0  0  0
   39.1040   35.7990   40.0110 C   0  0  0  0  0  0  0  0  0  0  0  0
   40.4960   35.7370   40.0290 C   0  0  0  0  0  0  0  0  0  0  0  0
   41.2630   36.8960   39.7890 N   0  0  0  0  0  0  0  0  0  0  0  0
   41.1290   34.5720   40.2750 N   0  0  0  0  0  0  0  0  0  0  0  0
   40.3960   33.4660   40.5050 C   0  0  0  0  0  0  0  0  0  0  0  0
   40.9430   32.3470   40.7410 O   0  0  0  0  0  0  0  0  0  0  0  0
   37.0960   26.6360   41.3270 C   0  0  0  0  0  0  0  0  0  0  0  0
   36.9470   26.4100   42.7050 C   0  0  0  0  0  0  0  0  0  0  0  0
   37.0190   27.5030   43.5580 C   0  0  0  0  0  0  0  0  0  0  0  0
   37.2310   28.7320   42.9860 N   0  0  0  0  0  0  0  0  0  0  0  0
   37.3700   28.9170   41.6580 C   0  0  0  0  0  0  0  0  0  0  0  0
   37.3020   27.8640   40.8140 N   0  0  0  0  0  0  0  0  0  0  0  0
   37.3021   34.6435   40.2461 H   0  0  0  0  0  0  0  0  0  0  0  0
   38.5796   36.7450   39.8108 H   0  0  0  0  0  0  0  0  0  0  0  0
   42.2916   36.8450   39.8034 H   0  0  0  0  0  0  0  0  0  0  0  0
   40.7945   37.7935   39.5993 H   0  0  0  0  0  0  0  0  0  0  0  0
   37.0424   25.7778   40.6410 H   0  0  0  0  0  0  0  0  0  0  0  0
   36.7781   25.3963   43.0972 H   0  0  0  0  0  0  0  0  0  0  0  0
   36.9106   27.3885   44.6466 H   0  0  0  0  0  0  0  0  0  0  0  0
  1 18  1  0
  2  1  2  0
  3  4  1  0
  3  2  1  0
  4  5  2  0
  5  1  1  0
  6 12  1  0
  6  4  1  0
  7  6  1  0
  8  9  1  0
  8  7  2  0
  9 11  2  0
 10  9  1  0
 11 12  1  0
 12 13  2  0
 14 15  2  0
 15 16  1  0
 17 16  2  0
 18 17  1  0
 19 14  1  0
 19 18  2  0
  7 20  1  0
  8 21  1  0
 10 22  1  0
 10 23  1  0
 14 24  1  0
 15 25  1  0
 16 26  1  0
M  ISO  5  20  14  21  14  24  14  25  14  26  14
M  END
>  <minimizedAffinity>  (1) 
-6.0910058

>  <minimizedRMSD>  (1) 
1.6238327

$$$$
