
     RDKit          3D

 25 27  0  0  0  0  0  0  0  0999 V2000
   38.5040   30.8790   41.5660 C   0  0  0  0  0  0  0  0  0  0  0  0
   37.3750   31.2610   40.9260 N   0  0  0  0  0  0  0  0  0  0  0  0
   37.5410   32.4090   40.3330 O   0  0  0  0  0  0  0  0  0  0  0  0
   38.7670   32.8290   40.5520 C   0  0  0  0  0  0  0  0  0  0  0  0
   39.3830   31.8820   41.3210 N   0  0  0  0  0  0  0  0  0  0  0  0
   39.6480   27.7740   43.1890 C   0  0  0  0  0  0  0  0  0  0  0  0
   38.4400   27.2990   43.7440 C   0  0  0  0  0  0  0  0  0  0  0  0
   37.2910   28.0500   43.5480 C   0  0  0  0  0  0  0  0  0  0  0  0
   37.3970   29.2110   42.8220 N   0  0  0  0  0  0  0  0  0  0  0  0
   38.5760   29.6280   42.3060 C   0  0  0  0  0  0  0  0  0  0  0  0
   39.7110   28.9190   42.4820 N   0  0  0  0  0  0  0  0  0  0  0  0
   39.5350   33.9950   40.1730 C   0  0  0  0  0  0  0  0  0  0  0  0
   40.8020   34.0400   39.6200 C   0  0  0  0  0  0  0  0  0  0  0  0
   41.3640   35.2580   39.3280 C   0  0  0  0  0  0  0  0  0  0  0  0
   40.7220   36.4530   39.5630 C   0  0  0  0  0  0  0  0  0  0  0  0
   39.4500   36.4320   40.1180 C   0  0  0  0  0  0  0  0  0  0  0  0
   38.8820   35.2030   40.4120 C   0  0  0  0  0  0  0  0  0  0  0  0
   40.5681   27.1900   43.3388 H   0  0  0  0  0  0  0  0  0  0  0  0
   38.4111   26.3597   44.3157 H   0  0  0  0  0  0  0  0  0  0  0  0
   36.3244   27.7259   43.9612 H   0  0  0  0  0  0  0  0  0  0  0  0
   41.3532   33.1101   39.4164 H   0  0  0  0  0  0  0  0  0  0  0  0
   42.3715   35.2801   38.8869 H   0  0  0  0  0  0  0  0  0  0  0  0
   41.2087   37.4078   39.3152 H   0  0  0  0  0  0  0  0  0  0  0  0
   38.9068   37.3671   40.3193 H   0  0  0  0  0  0  0  0  0  0  0  0
   37.8742   35.1796   40.8522 H   0  0  0  0  0  0  0  0  0  0  0  0
  1 10  1  0
  2  1  2  0
  3  4  1  0
  3  2  1  0
  4  5  2  0
  5  1  1  0
  6  7  2  0
  8  7  1  0
  9  8  2  0
 10 11  2  0
 10  9  1  0
 11  6  1  0
 12 17  1  0
 12  4  1  0
 13 12  2  0
 14 15  2  0
 14 13  1  0
 15 16  1  0
 16 17  2  0
  6 18  1  0
  7 19  1  0
  8 20  1  0
 13 21  1  0
 14 22  1  0
 15 23  1  0
 16 24  1  0
 17 25  1  0
M  ISO  8  18  14  19  14  20  14  21  14  22  14  23  14  24  14  25  14
M  END
>  <minimizedAffinity>  (1) 
-5.53452444

>  <minimizedRMSD>  (1) 
0.90567708

$$$$
