
     RDKit          3D

 27 28  0  0  1  0  0  0  0  0999 V2000
   39.7650   29.3610   42.6650 N   0  0  0  0  0  0  0  0  0  0  0  0
   39.6300   30.8190   42.7380 C   0  0  0  0  0  0  0  0  0  0  0  0
   40.5790   31.3400   41.6770 C   0  0  0  0  0  0  0  0  0  0  0  0
   41.9060   31.1200   42.1660 N   0  0  0  0  0  0  0  0  0  0  0  0
   42.1640   29.8430   42.7020 C   0  0  0  0  0  0  0  0  0  0  0  0
   41.0750   28.8220   42.6270 C   0  0  1  0  0  0  0  0  0  0  0  0
   38.6670   28.4710   42.6210 C   0  0  0  0  0  0  0  0  0  0  0  0
   37.7230   28.3650   43.6350 C   0  0  0  0  0  0  0  0  0  0  0  0
   36.6840   27.4540   43.4920 C   0  0  0  0  0  0  0  0  0  0  0  0
   36.6490   26.6990   42.3370 N   0  0  0  0  0  0  0  0  0  0  0  0
   37.5790   26.8240   41.3680 C   0  0  0  0  0  0  0  0  0  0  0  0
   38.5860   27.7010   41.4980 N   0  0  0  0  0  0  0  0  0  0  0  0
   41.3970   27.7440   43.6140 C   0  0  0  0  0  0  0  0  0  0  0  0
   38.5963   31.1255   42.5198 H   0  0  0  0  0  0  0  0  0  0  0  0
   39.8638   31.2118   43.7385 H   0  0  0  0  0  0  0  0  0  0  0  0
   40.4095   32.4142   41.5117 H   0  0  0  0  0  0  0  0  0  0  0  0
   40.4209   30.8246   40.7182 H   0  0  0  0  0  0  0  0  0  0  0  0
   42.5589   31.2710   41.3838 H   0  0  0  0  0  0  0  0  0  0  0  0
   43.0348   29.4335   42.1691 H   0  0  0  0  0  0  0  0  0  0  0  0
   42.3053   30.0182   43.7787 H   0  0  0  0  0  0  0  0  0  0  0  0
   41.0489   28.3575   41.6302 H   0  0  0  0  0  0  0  0  0  0  0  0
   37.7971   28.9919   44.5358 H   0  0  0  0  0  0  0  0  0  0  0  0
   35.9165   27.3384   44.2715 H   0  0  0  0  0  0  0  0  0  0  0  0
   37.5112   26.2016   40.4635 H   0  0  0  0  0  0  0  0  0  0  0  0
   41.2801   28.1352   44.6354 H   0  0  0  0  0  0  0  0  0  0  0  0
   40.7132   26.8952   43.4660 H   0  0  0  0  0  0  0  0  0  0  0  0
   42.4343   27.4093   43.4660 H   0  0  0  0  0  0  0  0  0  0  0  0
  1  2  1  0
  3  4  1  0
  3  2  1  0
  4  5  1  0
  6  1  1  0
  6  5  1  0
  6 13  1  0
  7  1  1  0
  7  8  2  0
  9  8  1  0
 10  9  2  0
 11 12  2  0
 11 10  1  0
 12  7  1  0
  2 14  1  0
  2 15  1  0
  3 16  1  0
  3 17  1  0
  4 18  1  0
  5 19  1  0
  5 20  1  0
  6 21  1  6
  8 22  1  0
  9 23  1  0
 11 24  1  0
 13 25  1  0
 13 26  1  0
 13 27  1  0
M  ISO  8  14  13  15  13  16  13  17  13  18   5  19  13  20  13  21  13
M  ISO  6  22  14  23  14  24  14  25   8  26   8  27   8
M  END
>  <minimizedAffinity>  (1) 
-3.20854282

>  <minimizedRMSD>  (1) 
0.842066467

$$$$
