
     RDKit          3D

 22 24  0  0  0  0  0  0  0  0999 V2000
   38.4810   30.9320   41.5830 C   0  0  0  0  0  0  0  0  0  0  0  0
   37.3440   31.2860   40.9090 N   0  0  0  0  0  0  0  0  0  0  0  0
   37.4950   32.4530   40.3560 O   0  0  0  0  0  0  0  0  0  0  0  0
   38.6980   32.9040   40.6320 C   0  0  0  0  0  0  0  0  0  0  0  0
   39.3550   31.9770   41.4040 N   0  0  0  0  0  0  0  0  0  0  0  0
   39.4250   34.0860   40.3180 N   0  0  0  0  0  0  0  0  0  0  0  0
   40.6850   34.2380   40.0100 N   0  0  0  0  0  0  0  0  0  0  0  0
   40.9540   35.5570   39.7830 C   0  0  0  0  0  0  0  0  0  0  0  0
   39.7630   36.2420   39.9710 C   0  0  0  0  0  0  0  0  0  0  0  0
   38.8040   35.2810   40.3100 C   0  0  0  0  0  0  0  0  0  0  0  0
   39.7070   27.8160   43.1340 C   0  0  0  0  0  0  0  0  0  0  0  0
   38.5090   27.3150   43.7040 C   0  0  0  0  0  0  0  0  0  0  0  0
   37.3360   28.0570   43.5360 C   0  0  0  0  0  0  0  0  0  0  0  0
   37.4270   29.2320   42.8240 N   0  0  0  0  0  0  0  0  0  0  0  0
   38.5950   29.6650   42.3020 C   0  0  0  0  0  0  0  0  0  0  0  0
   39.7200   28.9650   42.4540 N   0  0  0  0  0  0  0  0  0  0  0  0
   41.9256   35.9915   39.5052 H   0  0  0  0  0  0  0  0  0  0  0  0
   39.6037   37.3260   39.8731 H   0  0  0  0  0  0  0  0  0  0  0  0
   37.7421   35.4668   40.5289 H   0  0  0  0  0  0  0  0  0  0  0  0
   40.6415   27.2483   43.2541 H   0  0  0  0  0  0  0  0  0  0  0  0
   38.5028   26.3679   44.2634 H   0  0  0  0  0  0  0  0  0  0  0  0
   36.3784   27.7156   43.9560 H   0  0  0  0  0  0  0  0  0  0  0  0
  1 15  1  0
  2  1  2  0
  3  4  1  0
  3  2  1  0
  4  5  2  0
  5  1  1  0
  6  4  1  0
  7  6  1  0
  8  9  1  0
  8  7  2  0
  9 10  2  0
 10  6  1  0
 11 12  2  0
 13 12  1  0
 14 13  2  0
 15 16  2  0
 15 14  1  0
 16 11  1  0
  8 17  1  0
  9 18  1  0
 10 19  1  0
 11 20  1  0
 12 21  1  0
 13 22  1  0
M  ISO  6  17  14  18  14  19  14  20  14  21  14  22  14
M  END
>  <minimizedAffinity>  (1) 
-5.29262257

>  <minimizedRMSD>  (1) 
0.443293422

$$$$
