
     RDKit          3D

 22 24  0  0  0  0  0  0  0  0999 V2000
   37.7530   31.7190   40.7950 C   0  0  0  0  0  0  0  0  0  0  0  0
   36.9430   32.3510   39.9190 N   0  0  0  0  0  0  0  0  0  0  0  0
   37.4600   33.4920   39.5570 O   0  0  0  0  0  0  0  0  0  0  0  0
   38.6120   33.6520   40.1720 C   0  0  0  0  0  0  0  0  0  0  0  0
   38.8070   32.5580   40.9450 N   0  0  0  0  0  0  0  0  0  0  0  0
   37.6810   28.6240   42.8160 C   0  0  0  0  0  0  0  0  0  0  0  0
   36.5830   27.9630   42.2400 C   0  0  0  0  0  0  0  0  0  0  0  0
   35.9150   28.5880   41.1960 C   0  0  0  0  0  0  0  0  0  0  0  0
   36.3710   29.8190   40.7900 N   0  0  0  0  0  0  0  0  0  0  0  0
   37.4290   30.4240   41.3680 C   0  0  0  0  0  0  0  0  0  0  0  0
   38.0680   29.8180   42.3710 N   0  0  0  0  0  0  0  0  0  0  0  0
   39.5090   34.7810   40.0520 C   0  0  0  0  0  0  0  0  0  0  0  0
   39.1460   36.1110   40.0770 C   0  0  0  0  0  0  0  0  0  0  0  0
   40.3290   36.7910   39.9280 C   0  0  0  0  0  0  0  0  0  0  0  0
   41.3690   35.9430   39.8180 N   0  0  0  0  0  0  0  0  0  0  0  0
   40.8400   34.7310   39.8960 N   0  0  0  0  0  0  0  0  0  0  0  0
   38.2275   28.1495   43.6444 H   0  0  0  0  0  0  0  0  0  0  0  0
   36.2615   26.9769   42.6065 H   0  0  0  0  0  0  0  0  0  0  0  0
   35.0496   28.1137   40.7100 H   0  0  0  0  0  0  0  0  0  0  0  0
   38.1362   36.5321   40.1907 H   0  0  0  0  0  0  0  0  0  0  0  0
   40.4161   37.8872   39.9018 H   0  0  0  0  0  0  0  0  0  0  0  0
   42.3631   36.1849   39.6987 H   0  0  0  0  0  0  0  0  0  0  0  0
  1  5  1  0
  1 10  1  0
  2  1  2  0
  3  2  1  0
  3  4  1  0
  4  5  2  0
  7  6  2  0
  8  7  1  0
  9  8  2  0
  9 10  1  0
 10 11  2  0
 11  6  1  0
 12 13  1  0
 12  4  1  0
 14 13  2  0
 15 16  1  0
 15 14  1  0
 16 12  2  0
  6 17  1  0
  7 18  1  0
  8 19  1  0
 13 20  1  0
 14 21  1  0
 15 22  1  0
M  ISO  6  17  14  18  14  19  14  20  14  21  14  22   9
M  END
>  <minimizedAffinity>  (1) 
-5.2559495

>  <minimizedRMSD>  (1) 
1.90676701

$$$$
