
     RDKit          3D

 22 24  0  0  0  0  0  0  0  0999 V2000
   37.7170   30.8120   41.2950 C   0  0  0  0  0  0  0  0  0  0  0  0
   36.7240   31.4030   40.5730 N   0  0  0  0  0  0  0  0  0  0  0  0
   37.1250   32.5640   40.1300 O   0  0  0  0  0  0  0  0  0  0  0  0
   38.3560   32.7710   40.5340 C   0  0  0  0  0  0  0  0  0  0  0  0
   38.7470   31.6940   41.2610 N   0  0  0  0  0  0  0  0  0  0  0  0
   37.5210   27.9750   43.6470 C   0  0  0  0  0  0  0  0  0  0  0  0
   37.0820   26.9560   42.7900 C   0  0  0  0  0  0  0  0  0  0  0  0
   36.8670   27.2520   41.4520 C   0  0  0  0  0  0  0  0  0  0  0  0
   37.1010   28.5470   41.0500 N   0  0  0  0  0  0  0  0  0  0  0  0
   37.5240   29.5110   41.8980 C   0  0  0  0  0  0  0  0  0  0  0  0
   37.7360   29.2260   43.2050 N   0  0  0  0  0  0  0  0  0  0  0  0
   39.1390   33.9410   40.2450 C   0  0  0  0  0  0  0  0  0  0  0  0
   38.8550   35.2500   40.3610 C   0  0  0  0  0  0  0  0  0  0  0  0
   39.8010   36.1670   40.0090 C   0  0  0  0  0  0  0  0  0  0  0  0
   41.0170   35.7020   39.5430 C   0  0  0  0  0  0  0  0  0  0  0  0
   40.8010   33.8620   39.6140 S   0  0  0  0  0  0  0  0  0  0  0  0
   37.6940   27.7447   44.7086 H   0  0  0  0  0  0  0  0  0  0  0  0
   36.9109   25.9388   43.1722 H   0  0  0  0  0  0  0  0  0  0  0  0
   36.5241   26.4843   40.7427 H   0  0  0  0  0  0  0  0  0  0  0  0
   37.8733   35.5767   40.7346 H   0  0  0  0  0  0  0  0  0  0  0  0
   39.6024   37.2456   40.0934 H   0  0  0  0  0  0  0  0  0  0  0  0
   41.8932   36.2793   39.2128 H   0  0  0  0  0  0  0  0  0  0  0  0
  1 10  1  0
  2  1  2  0
  3  4  1  0
  3  2  1  0
  4  5  2  0
  5  1  1  0
  7  6  2  0
  8  7  1  0
  9  8  2  0
  9 10  1  0
 10 11  2  0
 11  6  1  0
 12 13  2  0
 12  4  1  0
 14 13  1  0
 15 16  1  0
 15 14  2  0
 16 12  1  0
  6 17  1  0
  7 18  1  0
  8 19  1  0
 13 20  1  0
 14 21  1  0
 15 22  1  0
M  ISO  6  17  14  18  14  19  14  20  14  21  14  22  14
M  END
>  <minimizedAffinity>  (1) 
-5.21423388

>  <minimizedRMSD>  (1) 
1.50355256

$$$$
