
     RDKit          3D

 28 30  0  0  0  0  0  0  0  0999 V2000
   38.5100   30.8760   41.5440 C   0  0  0  0  0  0  0  0  0  0  0  0
   37.3330   31.3430   41.0770 N   0  0  0  0  0  0  0  0  0  0  0  0
   37.5030   32.4650   40.4400 O   0  0  0  0  0  0  0  0  0  0  0  0
   38.7800   32.7750   40.4630 C   0  0  0  0  0  0  0  0  0  0  0  0
   39.4280   31.8010   41.1450 N   0  0  0  0  0  0  0  0  0  0  0  0
   39.4630   33.8950   39.9090 N   0  0  0  0  0  0  0  0  0  0  0  0
   40.7050   33.8450   39.1610 C   0  0  0  0  0  0  0  0  0  0  0  0
   41.3900   35.1800   39.4010 C   0  0  0  0  0  0  0  0  0  0  0  0
   41.1990   35.6450   40.6900 O   0  0  0  0  0  0  0  0  0  0  0  0
   39.9020   35.9200   41.0280 C   0  0  0  0  0  0  0  0  0  0  0  0
   38.9510   35.2480   40.0520 C   0  0  0  0  0  0  0  0  0  0  0  0
   39.6510   27.7840   43.1920 C   0  0  0  0  0  0  0  0  0  0  0  0
   38.4570   27.3100   43.7570 C   0  0  0  0  0  0  0  0  0  0  0  0
   37.3040   28.0610   43.5570 C   0  0  0  0  0  0  0  0  0  0  0  0
   37.4170   29.2190   42.8170 N   0  0  0  0  0  0  0  0  0  0  0  0
   38.5900   29.6320   42.2930 C   0  0  0  0  0  0  0  0  0  0  0  0
   39.7200   28.9170   42.4760 N   0  0  0  0  0  0  0  0  0  0  0  0
   40.5007   33.7071   38.0890 H   0  0  0  0  0  0  0  0  0  0  0  0
   41.3364   33.0036   39.4826 H   0  0  0  0  0  0  0  0  0  0  0  0
   42.4692   35.0604   39.2246 H   0  0  0  0  0  0  0  0  0  0  0  0
   40.9483   35.9133   38.7103 H   0  0  0  0  0  0  0  0  0  0  0  0
   39.7042   35.5463   42.0435 H   0  0  0  0  0  0  0  0  0  0  0  0
   39.7446   37.0080   40.9906 H   0  0  0  0  0  0  0  0  0  0  0  0
   38.9571   35.7693   39.0834 H   0  0  0  0  0  0  0  0  0  0  0  0
   37.9103   35.2634   40.4080 H   0  0  0  0  0  0  0  0  0  0  0  0
   40.5714   27.2008   43.3427 H   0  0  0  0  0  0  0  0  0  0  0  0
   38.4341   26.3763   44.3382 H   0  0  0  0  0  0  0  0  0  0  0  0
   36.3370   27.7429   43.9739 H   0  0  0  0  0  0  0  0  0  0  0  0
  1 16  1  0
  2  1  2  0
  3  4  1  0
  3  2  1  0
  4  5  2  0
  5  1  1  0
  6 11  1  0
  6  4  1  0
  7  8  1  0
  7  6  1  0
  8  9  1  0
  9 10  1  0
 11 10  1  0
 12 13  2  0
 14 13  1  0
 15 14  2  0
 16 17  2  0
 16 15  1  0
 17 12  1  0
  7 18  1  0
  7 19  1  0
  8 20  1  0
  8 21  1  0
 10 22  1  0
 10 23  1  0
 11 24  1  0
 11 25  1  0
 12 26  1  0
 13 27  1  0
 14 28  1  0
M  ISO  8  18  13  19  13  20  13  21  13  22  13  23  13  24  13  25  13
M  ISO  3  26  14  27  14  28  14
M  END
>  <minimizedAffinity>  (1) 
-5.19227648

>  <minimizedRMSD>  (1) 
0.643471777

$$$$
