
     RDKit          3D

 22 24  0  0  0  0  0  0  0  0999 V2000
   37.6520   28.9990   41.6180 C   0  0  0  0  0  0  0  0  0  0  0  0
   36.3660   28.6800   41.1580 C   0  0  0  0  0  0  0  0  0  0  0  0
   35.6360   29.6830   40.5230 C   0  0  0  0  0  0  0  0  0  0  0  0
   36.2100   30.9220   40.3800 N   0  0  0  0  0  0  0  0  0  0  0  0
   37.4550   31.1800   40.8410 C   0  0  0  0  0  0  0  0  0  0  0  0
   38.1530   30.2210   41.4490 N   0  0  0  0  0  0  0  0  0  0  0  0
   37.9040   32.5470   40.6050 C   0  0  0  0  0  0  0  0  0  0  0  0
   37.2650   33.3690   39.7210 N   0  0  0  0  0  0  0  0  0  0  0  0
   37.8570   34.5240   39.6930 O   0  0  0  0  0  0  0  0  0  0  0  0
   38.8730   34.5130   40.5250 C   0  0  0  0  0  0  0  0  0  0  0  0
   38.9340   33.2830   41.1180 N   0  0  0  0  0  0  0  0  0  0  0  0
   39.8050   35.6190   40.7960 C   0  0  0  0  0  0  0  0  0  0  0  0
   39.7950   36.8690   40.0000 C   0  0  0  0  0  0  0  0  0  0  0  0
   40.8160   35.8240   39.6470 C   0  0  0  0  0  0  0  0  0  0  0  0
   38.2540   28.2303   42.1246 H   0  0  0  0  0  0  0  0  0  0  0  0
   35.9476   27.6718   41.2939 H   0  0  0  0  0  0  0  0  0  0  0  0
   34.6220   29.4863   40.1446 H   0  0  0  0  0  0  0  0  0  0  0  0
   39.7942   35.4523   41.8832 H   0  0  0  0  0  0  0  0  0  0  0  0
   38.9607   37.0682   39.3114 H   0  0  0  0  0  0  0  0  0  0  0  0
   39.8520   37.9376   40.2548 H   0  0  0  0  0  0  0  0  0  0  0  0
   40.7210   35.2479   38.7148 H   0  0  0  0  0  0  0  0  0  0  0  0
   41.9109   35.7941   39.5456 H   0  0  0  0  0  0  0  0  0  0  0  0
  2  1  2  0
  3  2  1  0
  4  3  2  0
  4  5  1  0
  5  6  2  0
  6  1  1  0
  7  5  1  0
  7 11  1  0
  8  7  2  0
  9  8  1  0
  9 10  1  0
 10 12  1  0
 10 11  2  0
 13 12  1  0
 14 13  1  0
 14 12  1  0
  1 15  1  0
  2 16  1  0
  3 17  1  0
 12 18  1  0
 13 19  1  0
 13 20  1  0
 14 21  1  0
 14 22  1  0
M  ISO  8  15  14  16  14  17  14  18  13  19  13  20  13  21  13  22  13
M  END
>  <minimizedAffinity>  (1) 
-4.59869766

>  <minimizedRMSD>  (1) 
2.74362922

$$$$
