
     RDKit          3D

 25 26  0  0  1  0  0  0  0  0999 V2000
   39.6760   29.5990   42.6950 N   0  0  0  0  0  0  0  0  0  0  0  0
   39.8260   31.0260   42.7680 C   0  0  0  0  0  0  0  0  0  0  0  0
   40.8910   31.3440   41.7080 C   0  0  0  0  0  0  0  0  0  0  0  0
   42.1280   30.8910   42.3030 N   0  0  0  0  0  0  0  0  0  0  0  0
   42.1480   29.5370   42.6970 C   0  0  0  0  0  0  0  0  0  0  0  0
   40.8690   28.7970   42.7110 C   0  0  2  0  0  0  0  0  0  0  0  0
   38.4410   28.9040   42.6050 C   0  0  0  0  0  0  0  0  0  0  0  0
   37.8830   28.1680   43.6690 C   0  0  0  0  0  0  0  0  0  0  0  0
   36.6690   27.5290   43.4570 C   0  0  0  0  0  0  0  0  0  0  0  0
   36.0810   27.6520   42.2210 N   0  0  0  0  0  0  0  0  0  0  0  0
   36.6440   28.3600   41.2370 C   0  0  0  0  0  0  0  0  0  0  0  0
   37.8220   28.9970   41.3950 N   0  0  0  0  0  0  0  0  0  0  0  0
   40.7810   27.9250   41.6170 O   0  0  0  0  0  0  0  0  0  0  0  0
   38.8776   31.5311   42.5328 H   0  0  0  0  0  0  0  0  0  0  0  0
   40.1134   31.3700   43.7725 H   0  0  0  0  0  0  0  0  0  0  0  0
   40.9285   32.4243   41.5042 H   0  0  0  0  0  0  0  0  0  0  0  0
   40.6842   30.8580   40.7431 H   0  0  0  0  0  0  0  0  0  0  0  0
   42.8822   31.0335   41.6161 H   0  0  0  0  0  0  0  0  0  0  0  0
   42.8244   29.0070   42.0103 H   0  0  0  0  0  0  0  0  0  0  0  0
   42.4602   29.5635   43.7514 H   0  0  0  0  0  0  0  0  0  0  0  0
   40.9017   28.2708   43.6764 H   0  0  0  0  0  0  0  0  0  0  0  0
   38.3949   28.1016   44.6403 H   0  0  0  0  0  0  0  0  0  0  0  0
   36.1916   26.9414   44.2550 H   0  0  0  0  0  0  0  0  0  0  0  0
   36.1297   28.4252   40.2668 H   0  0  0  0  0  0  0  0  0  0  0  0
   40.6871   26.9950   41.9430 H   0  0  0  0  0  0  0  0  0  0  0  0
  1  6  1  0
  1  2  1  0
  3  4  1  0
  3  2  1  0
  4  5  1  0
  5  6  1  0
  7  1  1  0
  7  8  2  0
  9  8  1  0
 10  9  2  0
 11 12  2  0
 11 10  1  0
 12  7  1  0
 13  6  1  0
  2 14  1  0
  2 15  1  0
  3 16  1  0
  3 17  1  0
  4 18  1  0
  5 19  1  0
  5 20  1  0
  6 21  1  1
  8 22  1  0
  9 23  1  0
 11 24  1  0
 13 25  1  0
M  ISO  8  14  13  15  13  16  13  17  13  18   5  19  13  20  13  21  13
M  ISO  4  22  14  23  14  24  14  25   3
M  END
>  <minimizedAffinity>  (1) 
-3.06127429

>  <minimizedRMSD>  (1) 
0.108727768

$$$$
