
     RDKit          3D

 16 17  0  0  0  0  0  0  0  0999 V2000
   39.8290   27.8130   43.1100 C   0  0  0  0  0  0  0  0  0  0  0  0
   38.7130   27.2330   43.7350 C   0  0  0  0  0  0  0  0  0  0  0  0
   37.4840   27.8730   43.6220 C   0  0  0  0  0  0  0  0  0  0  0  0
   37.4280   29.0460   42.8980 N   0  0  0  0  0  0  0  0  0  0  0  0
   38.5350   29.5570   42.3190 C   0  0  0  0  0  0  0  0  0  0  0  0
   39.7330   28.9590   42.4140 N   0  0  0  0  0  0  0  0  0  0  0  0
   38.2960   30.8050   41.5930 C   0  0  0  0  0  0  0  0  0  0  0  0
   37.1160   31.0490   40.9630 N   0  0  0  0  0  0  0  0  0  0  0  0
   37.1240   32.2100   40.3870 O   0  0  0  0  0  0  0  0  0  0  0  0
   38.3070   32.7770   40.6120 C   0  0  0  0  0  0  0  0  0  0  0  0
   39.0660   31.9180   41.3680 N   0  0  0  0  0  0  0  0  0  0  0  0
   39.1550   34.3000   40.2160 S   0  0  0  0  0  0  0  0  0  0  0  0
   40.8071   27.3165   43.1922 H   0  0  0  0  0  0  0  0  0  0  0  0
   38.8091   26.2945   44.3006 H   0  0  0  0  0  0  0  0  0  0  0  0
   36.5829   27.4564   44.0958 H   0  0  0  0  0  0  0  0  0  0  0  0
   39.5108   34.9391   41.3744 H   0  0  0  0  0  0  0  0  0  0  0  0
  1  2  2  0
  3  2  1  0
  4  3  2  0
  5  6  2  0
  5  4  1  0
  6  1  1  0
  7  5  1  0
  8  7  2  0
  9 10  1  0
  9  8  1  0
 10 11  2  0
 11  7  1  0
 12 10  1  0
  1 13  1  0
  2 14  1  0
  3 15  1  0
 12 16  1  0
M  ISO  4  13  14  14  14  15  14  16  11
M  END
>  <minimizedAffinity>  (1) 
-3.75247765

>  <minimizedRMSD>  (1) 
0.0649502128

$$$$
