
     RDKit          3D

 25 27  0  0  0  0  0  0  0  0999 V2000
   37.4880   28.4900   43.4950 C   0  0  0  0  0  0  0  0  0  0  0  0
   37.2390   27.1740   43.0410 C   0  0  0  0  0  0  0  0  0  0  0  0
   36.9690   26.9690   41.6930 C   0  0  0  0  0  0  0  0  0  0  0  0
   36.9610   28.0510   40.8840 N   0  0  0  0  0  0  0  0  0  0  0  0
   37.1970   29.2940   41.3130 C   0  0  0  0  0  0  0  0  0  0  0  0
   37.4600   29.5030   42.6240 N   0  0  0  0  0  0  0  0  0  0  0  0
   37.1980   30.4460   40.4820 N   0  0  0  0  0  0  0  0  0  0  0  0
   37.8130   31.5220   41.0030 N   0  0  0  0  0  0  0  0  0  0  0  0
   37.7200   32.5200   40.0710 C   0  0  0  0  0  0  0  0  0  0  0  0
   37.0370   31.9830   39.0080 C   0  0  0  0  0  0  0  0  0  0  0  0
   36.6980   30.6660   39.2550 C   0  0  0  0  0  0  0  0  0  0  0  0
   35.9800   29.7180   38.4300 C   0  0  0  0  0  0  0  0  0  0  0  0
   36.6630   29.2760   37.3190 C   0  0  0  0  0  0  0  0  0  0  0  0
   36.1770   28.3890   36.4130 C   0  0  0  0  0  0  0  0  0  0  0  0
   34.9300   27.9010   36.6170 N   0  0  0  0  0  0  0  0  0  0  0  0
   34.2270   28.3190   37.7110 C   0  0  0  0  0  0  0  0  0  0  0  0
   34.7640   29.1900   38.5560 N   0  0  0  0  0  0  0  0  0  0  0  0
   37.7031   28.6783   44.5572 H   0  0  0  0  0  0  0  0  0  0  0  0
   37.2587   26.3271   43.7427 H   0  0  0  0  0  0  0  0  0  0  0  0
   36.7690   25.9617   41.2989 H   0  0  0  0  0  0  0  0  0  0  0  0
   38.1126   33.5440   40.1563 H   0  0  0  0  0  0  0  0  0  0  0  0
   36.7925   32.5276   38.0841 H   0  0  0  0  0  0  0  0  0  0  0  0
   37.6764   29.6703   37.1533 H   0  0  0  0  0  0  0  0  0  0  0  0
   36.7750   28.0777   35.5438 H   0  0  0  0  0  0  0  0  0  0  0  0
   33.2131   27.9326   37.8920 H   0  0  0  0  0  0  0  0  0  0  0  0
  2  1  2  0
  3  2  1  0
  4  5  1  0
  4  3  2  0
  5  6  2  0
  6  1  1  0
  7  8  1  0
  7  5  1  0
  9  8  2  0
 10 11  2  0
 10  9  1  0
 11  7  1  0
 12 17  1  0
 12 11  1  0
 13 12  2  0
 14 15  2  0
 14 13  1  0
 15 16  1  0
 16 17  2  0
  1 18  1  0
  2 19  1  0
  3 20  1  0
  9 21  1  0
 10 22  1  0
 13 23  1  0
 14 24  1  0
 16 25  1  0
M  ISO  8  18  14  19  14  20  14  21  14  22  14  23  14  24  14  25  14
M  END
>  <minimizedAffinity>  (1) 
-4.47600222

>  <minimizedRMSD>  (1) 
2.08797669

$$$$
