
     RDKit          3D

 39 43  0  0  0  0  0  0  0  0999 V2000
   39.7740   34.1270   40.2980 C   0  0  0  0  0  0  0  0  0  0  0  0
   40.3850   32.9810   40.7020 C   0  0  0  0  0  0  0  0  0  0  0  0
   39.6730   31.8100   40.8910 C   0  0  0  0  0  0  0  0  0  0  0  0
   38.3260   31.7680   40.6780 C   0  0  0  0  0  0  0  0  0  0  0  0
   37.6910   32.9050   40.2720 C   0  0  0  0  0  0  0  0  0  0  0  0
   38.4150   34.0850   40.0820 C   0  0  0  0  0  0  0  0  0  0  0  0
   37.0540   28.4320   41.1050 C   0  0  0  0  0  0  0  0  0  0  0  0
   35.9780   29.2300   41.2890 N   0  0  0  0  0  0  0  0  0  0  0  0
   36.3060   30.4800   41.1600 O   0  0  0  0  0  0  0  0  0  0  0  0
   37.6160   30.5410   40.8850 C   0  0  0  0  0  0  0  0  0  0  0  0
   38.0840   29.2750   40.8490 N   0  0  0  0  0  0  0  0  0  0  0  0
   37.0190   24.9200   42.2770 C   0  0  0  0  0  0  0  0  0  0  0  0
   36.7220   24.2530   41.0890 C   0  0  0  0  0  0  0  0  0  0  0  0
   36.5420   25.0100   39.9300 C   0  0  0  0  0  0  0  0  0  0  0  0
   36.6650   26.3650   40.0100 N   0  0  0  0  0  0  0  0  0  0  0  0
   36.9570   26.9720   41.1970 C   0  0  0  0  0  0  0  0  0  0  0  0
   37.1350   26.2580   42.3300 N   0  0  0  0  0  0  0  0  0  0  0  0
   40.7090   35.5880   40.0190 S   0  0  0  0  0  0  0  0  0  0  0  0
   41.4680   35.3900   38.7470 O   0  0  0  0  0  0  0  0  0  0  0  0
   39.7370   36.7420   39.8260 O   0  0  0  0  0  0  0  0  0  0  0  0
   44.9090   34.4930   42.2410 N   0  0  0  0  0  0  0  0  0  0  0  0
   44.6160   33.8080   41.1190 C   0  0  0  0  0  0  0  0  0  0  0  0
   43.4500   34.1650   40.5680 N   0  0  0  0  0  0  0  0  0  0  0  0
   42.9480   35.1410   41.3780 C   0  0  0  0  0  0  0  0  0  0  0  0
   41.7760   35.9050   41.3390 C   0  0  0  0  0  0  0  0  0  0  0  0
   41.5670   36.8100   42.3110 N   0  0  0  0  0  0  0  0  0  0  0  0
   42.4890   36.9530   43.2850 C   0  0  0  0  0  0  0  0  0  0  0  0
   43.6380   36.2330   43.3590 N   0  0  0  0  0  0  0  0  0  0  0  0
   43.8620   35.3200   42.3920 C   0  0  0  0  0  0  0  0  0  0  0  0
   41.4701   32.9853   40.8826 H   0  0  0  0  0  0  0  0  0  0  0  0
   40.1997   30.9010   41.2172 H   0  0  0  0  0  0  0  0  0  0  0  0
   36.6056   32.8929   40.0936 H   0  0  0  0  0  0  0  0  0  0  0  0
   37.8907   34.9949   39.7546 H   0  0  0  0  0  0  0  0  0  0  0  0
   37.1624   24.3344   43.1971 H   0  0  0  0  0  0  0  0  0  0  0  0
   36.6317   23.1570   41.0657 H   0  0  0  0  0  0  0  0  0  0  0  0
   36.3059   24.5231   38.9723 H   0  0  0  0  0  0  0  0  0  0  0  0
   45.7407   34.4035   42.8420 H   0  0  0  0  0  0  0  0  0  0  0  0
   45.2708   33.0314   40.6970 H   0  0  0  0  0  0  0  0  0  0  0  0
   42.2981   37.7003   44.0692 H   0  0  0  0  0  0  0  0  0  0  0  0
  1  2  2  0
  2  3  1  0
  4 10  1  0
  4  3  2  0
  5  4  1  0
  6  5  2  0
  6  1  1  0
  7 16  1  0
  7  8  2  0
  9  8  1  0
 10  9  1  0
 11 10  2  0
 11  7  1  0
 12 17  2  0
 13 12  1  0
 14 15  1  0
 14 13  2  0
 15 16  2  0
 16 17  1  0
 18  1  1  0
 18 25  1  0
 19 18  2  0
 20 18  2  0
 21 29  1  0
 22 21  1  0
 23 22  2  0
 23 24  1  0
 24 29  2  0
 25 24  1  0
 25 26  2  0
 26 27  1  0
 27 28  2  0
 29 28  1  0
  2 30  1  0
  3 31  1  0
  5 32  1  0
  6 33  1  0
 12 34  1  0
 13 35  1  0
 14 36  1  0
 21 37  1  0
 22 38  1  0
 27 39  1  0
M  ISO  8  30  14  31  14  32  14  33  14  34  14  35  14  36  14  37   9
M  ISO  2  38  14  39  14
M  END
>  <minimizedAffinity>  (1) 
-7.33440351

>  <minimizedRMSD>  (1) 
1.28578198

$$$$
