
     RDKit          3D

 36 39  0  0  0  0  0  0  0  0999 V2000
   39.8750   34.3090   40.2560 C   0  0  0  0  0  0  0  0  0  0  0  0
   40.4930   33.1540   40.6040 C   0  0  0  0  0  0  0  0  0  0  0  0
   39.7730   31.9960   40.8230 C   0  0  0  0  0  0  0  0  0  0  0  0
   38.4130   31.9800   40.6940 C   0  0  0  0  0  0  0  0  0  0  0  0
   37.7650   33.1310   40.3440 C   0  0  0  0  0  0  0  0  0  0  0  0
   38.5000   34.3010   40.1250 C   0  0  0  0  0  0  0  0  0  0  0  0
   37.1540   28.6320   41.1250 C   0  0  0  0  0  0  0  0  0  0  0  0
   36.0890   29.4440   41.3930 N   0  0  0  0  0  0  0  0  0  0  0  0
   36.4220   30.6940   41.2700 O   0  0  0  0  0  0  0  0  0  0  0  0
   37.6950   30.7600   40.9220 C   0  0  0  0  0  0  0  0  0  0  0  0
   38.1530   29.4830   40.8310 N   0  0  0  0  0  0  0  0  0  0  0  0
   37.0510   25.1220   42.2510 C   0  0  0  0  0  0  0  0  0  0  0  0
   36.7660   24.4600   41.0340 C   0  0  0  0  0  0  0  0  0  0  0  0
   36.6230   25.2350   39.8860 C   0  0  0  0  0  0  0  0  0  0  0  0
   36.7650   26.5920   39.9980 N   0  0  0  0  0  0  0  0  0  0  0  0
   37.0390   27.1820   41.1940 C   0  0  0  0  0  0  0  0  0  0  0  0
   37.1800   26.4460   42.3130 N   0  0  0  0  0  0  0  0  0  0  0  0
   40.8100   35.7680   39.9640 S   0  0  0  0  0  0  0  0  0  0  0  0
   41.4990   35.6060   38.6580 O   0  0  0  0  0  0  0  0  0  0  0  0
   39.8560   36.9450   39.8790 O   0  0  0  0  0  0  0  0  0  0  0  0
   41.8690   35.9640   41.3370 C   0  0  0  0  0  0  0  0  0  0  0  0
   41.7860   36.8810   42.3640 C   0  0  0  0  0  0  0  0  0  0  0  0
   42.7470   36.8460   43.3520 C   0  0  0  0  0  0  0  0  0  0  0  0
   43.7410   35.9340   43.3060 N   0  0  0  0  0  0  0  0  0  0  0  0
   43.8160   35.0510   42.3130 C   0  0  0  0  0  0  0  0  0  0  0  0
   42.8830   35.0770   41.3450 N   0  0  0  0  0  0  0  0  0  0  0  0
   41.5874   33.1387   40.7139 H   0  0  0  0  0  0  0  0  0  0  0  0
   40.3019   31.0737   41.1052 H   0  0  0  0  0  0  0  0  0  0  0  0
   36.6704   33.1376   40.2349 H   0  0  0  0  0  0  0  0  0  0  0  0
   37.9760   35.2267   39.8448 H   0  0  0  0  0  0  0  0  0  0  0  0
   37.1691   24.5282   43.1694 H   0  0  0  0  0  0  0  0  0  0  0  0
   36.6605   23.3657   40.9956 H   0  0  0  0  0  0  0  0  0  0  0  0
   36.4017   24.7690   38.9145 H   0  0  0  0  0  0  0  0  0  0  0  0
   40.9734   37.6218   42.3940 H   0  0  0  0  0  0  0  0  0  0  0  0
   42.7034   37.5657   44.1828 H   0  0  0  0  0  0  0  0  0  0  0  0
   44.6292   34.3108   42.2846 H   0  0  0  0  0  0  0  0  0  0  0  0
  1  2  2  0
  2  3  1  0
  4  3  2  0
  4 10  1  0
  5  4  1  0
  6  1  1  0
  6  5  2  0
  7 16  1  0
  7  8  2  0
  9  8  1  0
 10  9  1  0
 11 10  2  0
 11  7  1  0
 12 17  2  0
 13 12  1  0
 14 15  1  0
 14 13  2  0
 15 16  2  0
 16 17  1  0
 18  1  1  0
 18 21  1  0
 19 18  2  0
 20 18  2  0
 21 26  1  0
 21 22  2  0
 22 23  1  0
 24 23  2  0
 25 24  1  0
 26 25  2  0
  2 27  1  0
  3 28  1  0
  5 29  1  0
  6 30  1  0
 12 31  1  0
 13 32  1  0
 14 33  1  0
 22 34  1  0
 23 35  1  0
 25 36  1  0
M  ISO  8  27  14  28  14  29  14  30  14  31  14  32  14  33  14  34  14
M  ISO  2  35  14  36  14
M  END
>  <minimizedAffinity>  (1) 
-6.89302444

>  <minimizedRMSD>  (1) 
1.37909687

$$$$
