
     RDKit          3D

 26 27  0  0  1  0  0  0  0  0999 V2000
   39.7280   29.5860   42.6910 N   0  0  0  0  0  0  0  0  0  0  0  0
   39.8540   31.0180   42.7540 C   0  0  0  0  0  0  0  0  0  0  0  0
   40.9010   31.3440   41.6890 C   0  0  0  0  0  0  0  0  0  0  0  0
   42.1540   30.9250   42.2120 N   0  0  0  0  0  0  0  0  0  0  0  0
   42.1920   29.5760   42.6670 C   0  0  0  0  0  0  0  0  0  0  0  0
   40.9280   28.8050   42.7130 C   0  0  2  0  0  0  0  0  0  0  0  0
   38.4940   28.8900   42.6080 C   0  0  0  0  0  0  0  0  0  0  0  0
   37.8910   28.2630   43.7060 C   0  0  0  0  0  0  0  0  0  0  0  0
   36.6840   27.6100   43.5180 C   0  0  0  0  0  0  0  0  0  0  0  0
   36.1400   27.6120   42.2640 N   0  0  0  0  0  0  0  0  0  0  0  0
   36.7420   28.2250   41.2170 C   0  0  0  0  0  0  0  0  0  0  0  0
   37.9130   28.8590   41.3960 N   0  0  0  0  0  0  0  0  0  0  0  0
   40.8370   27.7480   41.7090 N   0  0  0  0  0  0  0  0  0  0  0  0
   38.8955   31.5055   42.5222 H   0  0  0  0  0  0  0  0  0  0  0  0
   40.1421   31.3742   43.7541 H   0  0  0  0  0  0  0  0  0  0  0  0
   40.9154   32.4256   41.4891 H   0  0  0  0  0  0  0  0  0  0  0  0
   40.6755   30.8338   40.7409 H   0  0  0  0  0  0  0  0  0  0  0  0
   42.8621   31.0333   41.4719 H   0  0  0  0  0  0  0  0  0  0  0  0
   42.8802   29.0302   42.0048 H   0  0  0  0  0  0  0  0  0  0  0  0
   42.4932   29.6582   43.7217 H   0  0  0  0  0  0  0  0  0  0  0  0
   40.9918   28.3408   43.7082 H   0  0  0  0  0  0  0  0  0  0  0  0
   38.3665   28.2887   44.6976 H   0  0  0  0  0  0  0  0  0  0  0  0
   36.1779   27.1045   44.3536 H   0  0  0  0  0  0  0  0  0  0  0  0
   36.2732   28.2038   40.2221 H   0  0  0  0  0  0  0  0  0  0  0  0
   40.7584   26.8345   42.1783 H   0  0  0  0  0  0  0  0  0  0  0  0
   40.0063   27.9042   41.1203 H   0  0  0  0  0  0  0  0  0  0  0  0
  1  6  1  0
  1  2  1  0
  3  4  1  0
  3  2  1  0
  4  5  1  0
  5  6  1  0
  7  1  1  0
  7  8  2  0
  9  8  1  0
 10  9  2  0
 11 12  2  0
 11 10  1  0
 12  7  1  0
 13  6  1  0
  2 14  1  0
  2 15  1  0
  3 16  1  0
  3 17  1  0
  4 18  1  0
  5 19  1  0
  5 20  1  0
  6 21  1  1
  8 22  1  0
  9 23  1  0
 11 24  1  0
 13 25  1  0
 13 26  1  0
M  ISO  8  14  13  15  13  16  13  17  13  18   5  19  13  20  13  21  13
M  ISO  5  22  14  23  14  24  14  25   5  26   5
M  END
>  <minimizedAffinity>  (1) 
-3.01777005

>  <minimizedRMSD>  (1) 
0.185798332

$$$$
