
     RDKit          3D

 35 38  0  0  0  0  0  0  0  0999 V2000
   39.8140   34.0250   40.2530 C   0  0  0  0  0  0  0  0  0  0  0  0
   40.4260   32.8590   40.5920 C   0  0  0  0  0  0  0  0  0  0  0  0
   39.6960   31.6910   40.7720 C   0  0  0  0  0  0  0  0  0  0  0  0
   38.3410   31.6770   40.6150 C   0  0  0  0  0  0  0  0  0  0  0  0
   37.7040   32.8340   40.2760 C   0  0  0  0  0  0  0  0  0  0  0  0
   38.4450   34.0070   40.0960 C   0  0  0  0  0  0  0  0  0  0  0  0
   37.0490   28.3480   41.0430 C   0  0  0  0  0  0  0  0  0  0  0  0
   35.9820   29.1570   41.2360 N   0  0  0  0  0  0  0  0  0  0  0  0
   36.3240   30.4000   41.1050 O   0  0  0  0  0  0  0  0  0  0  0  0
   37.6360   30.4440   40.8210 C   0  0  0  0  0  0  0  0  0  0  0  0
   38.0990   29.1780   40.7800 N   0  0  0  0  0  0  0  0  0  0  0  0
   36.9910   24.8400   42.2320 C   0  0  0  0  0  0  0  0  0  0  0  0
   36.6820   24.1760   41.0460 C   0  0  0  0  0  0  0  0  0  0  0  0
   36.5020   24.9250   39.8820 C   0  0  0  0  0  0  0  0  0  0  0  0
   36.6410   26.2870   39.9740 N   0  0  0  0  0  0  0  0  0  0  0  0
   36.9400   26.8920   41.1330 C   0  0  0  0  0  0  0  0  0  0  0  0
   37.1150   26.1670   42.2610 N   0  0  0  0  0  0  0  0  0  0  0  0
   40.7440   35.4910   39.9890 S   0  0  0  0  0  0  0  0  0  0  0  0
   41.5020   35.3020   38.7120 O   0  0  0  0  0  0  0  0  0  0  0  0
   39.7740   36.6520   39.7930 O   0  0  0  0  0  0  0  0  0  0  0  0
   41.7430   35.8390   41.3760 C   0  0  0  0  0  0  0  0  0  0  0  0
   41.7450   36.9360   42.2330 C   0  0  0  0  0  0  0  0  0  0  0  0
   42.7060   36.8020   43.2030 C   0  0  0  0  0  0  0  0  0  0  0  0
   43.2790   35.6170   42.9210 N   0  0  0  0  0  0  0  0  0  0  0  0
   42.7190   35.0610   41.8620 N   0  0  0  0  0  0  0  0  0  0  0  0
   41.5177   32.8404   40.7260 H   0  0  0  0  0  0  0  0  0  0  0  0
   40.2188   30.7626   41.0455 H   0  0  0  0  0  0  0  0  0  0  0  0
   36.6119   32.8451   40.1446 H   0  0  0  0  0  0  0  0  0  0  0  0
   37.9230   34.9360   39.8230 H   0  0  0  0  0  0  0  0  0  0  0  0
   37.1345   24.2613   43.1564 H   0  0  0  0  0  0  0  0  0  0  0  0
   36.5817   23.0807   41.0277 H   0  0  0  0  0  0  0  0  0  0  0  0
   36.2574   24.4407   38.9251 H   0  0  0  0  0  0  0  0  0  0  0  0
   41.0658   37.7967   42.1442 H   0  0  0  0  0  0  0  0  0  0  0  0
   42.9505   37.4985   44.0186 H   0  0  0  0  0  0  0  0  0  0  0  0
   44.0514   35.1995   43.4595 H   0  0  0  0  0  0  0  0  0  0  0  0
  1  2  2  0
  2  3  1  0
  4  3  2  0
  4 10  1  0
  5  4  1  0
  6  1  1  0
  6  5  2  0
  7 16  1  0
  7  8  2  0
  9  8  1  0
 10  9  1  0
 11 10  2  0
 11  7  1  0
 12 17  2  0
 13 12  1  0
 14 15  1  0
 14 13  2  0
 15 16  2  0
 16 17  1  0
 18  1  1  0
 18 21  1  0
 19 18  2  0
 20 18  2  0
 21 25  2  0
 21 22  1  0
 22 23  2  0
 24 23  1  0
 25 24  1  0
  2 26  1  0
  3 27  1  0
  5 28  1  0
  6 29  1  0
 12 30  1  0
 13 31  1  0
 14 32  1  0
 22 33  1  0
 23 34  1  0
 24 35  1  0
M  ISO  8  26  14  27  14  28  14  29  14  30  14  31  14  32  14  33  14
M  ISO  2  34  14  35   9
M  END
>  <minimizedAffinity>  (1) 
-6.87594366

>  <minimizedRMSD>  (1) 
1.07394898

$$$$
