
     RDKit          3D

 40 43  0  0  1  0  0  0  0  0999 V2000
   39.7800   33.9450   40.3940 C   0  0  0  0  0  0  0  0  0  0  0  0
   40.3620   32.7870   40.7840 C   0  0  0  0  0  0  0  0  0  0  0  0
   39.6280   31.6180   40.9040 C   0  0  0  0  0  0  0  0  0  0  0  0
   38.2900   31.5970   40.6310 C   0  0  0  0  0  0  0  0  0  0  0  0
   37.6820   32.7530   40.2360 C   0  0  0  0  0  0  0  0  0  0  0  0
   38.4260   33.9300   40.1160 C   0  0  0  0  0  0  0  0  0  0  0  0
   36.9940   28.2560   40.9420 C   0  0  0  0  0  0  0  0  0  0  0  0
   35.9020   29.0550   40.9920 N   0  0  0  0  0  0  0  0  0  0  0  0
   36.2370   30.3040   40.8890 O   0  0  0  0  0  0  0  0  0  0  0  0
   37.5520   30.3750   40.7680 C   0  0  0  0  0  0  0  0  0  0  0  0
   38.0330   29.1040   40.8000 N   0  0  0  0  0  0  0  0  0  0  0  0
   36.9880   24.7510   42.1420 C   0  0  0  0  0  0  0  0  0  0  0  0
   36.6360   24.0870   40.9670 C   0  0  0  0  0  0  0  0  0  0  0  0
   36.4060   24.8310   39.7890 C   0  0  0  0  0  0  0  0  0  0  0  0
   36.5500   26.1960   39.8890 N   0  0  0  0  0  0  0  0  0  0  0  0
   36.8900   26.8010   41.0370 C   0  0  0  0  0  0  0  0  0  0  0  0
   37.1030   26.0710   42.1380 N   0  0  0  0  0  0  0  0  0  0  0  0
   40.7320   35.4160   40.2160 S   0  0  0  0  0  0  0  0  0  0  0  0
   41.5220   35.2730   38.9470 O   0  0  0  0  0  0  0  0  0  0  0  0
   39.7780   36.5880   40.0400 O   0  0  0  0  0  0  0  0  0  0  0  0
   43.0940   35.3910   41.3450 N   0  0  0  0  0  0  0  0  0  0  0  0
   43.8140   35.9070   42.5090 C   0  0  0  0  0  0  0  0  0  0  0  0
   42.9140   36.9650   43.1200 C   0  0  0  0  0  0  0  0  0  0  0  0
   41.6440   37.0040   42.2630 C   0  0  0  0  0  0  0  0  0  0  0  0
   41.6890   35.6090   41.6680 C   0  0  1  0  0  0  0  0  0  0  0  0
   41.4384   32.7737   41.0100 H   0  0  0  0  0  0  0  0  0  0  0  0
   40.1304   30.6932   41.2239 H   0  0  0  0  0  0  0  0  0  0  0  0
   36.6051   32.7585   40.0118 H   0  0  0  0  0  0  0  0  0  0  0  0
   37.9274   34.8569   39.7960 H   0  0  0  0  0  0  0  0  0  0  0  0
   37.1690   24.1824   43.0661 H   0  0  0  0  0  0  0  0  0  0  0  0
   36.5382   22.9914   40.9580 H   0  0  0  0  0  0  0  0  0  0  0  0
   36.1267   24.3456   38.8422 H   0  0  0  0  0  0  0  0  0  0  0  0
   43.2867   34.3881   41.2113 H   0  0  0  0  0  0  0  0  0  0  0  0
   44.0006   35.0995   43.2322 H   0  0  0  0  0  0  0  0  0  0  0  0
   44.7922   36.3233   42.2266 H   0  0  0  0  0  0  0  0  0  0  0  0
   42.6642   36.6983   44.1575 H   0  0  0  0  0  0  0  0  0  0  0  0
   43.4106   37.9463   43.1400 H   0  0  0  0  0  0  0  0  0  0  0  0
   40.7428   37.1588   42.8745 H   0  0  0  0  0  0  0  0  0  0  0  0
   41.6043   37.8215   41.5281 H   0  0  0  0  0  0  0  0  0  0  0  0
   41.2674   34.8904   42.3862 H   0  0  0  0  0  0  0  0  0  0  0  0
  1  2  2  0
  2  3  1  0
  4 10  1  0
  4  3  2  0
  5  4  1  0
  6  5  2  0
  6  1  1  0
  7  8  2  0
  7 16  1  0
  9  8  1  0
 10 11  2  0
 10  9  1  0
 11  7  1  0
 13 12  2  0
 14 15  2  0
 14 13  1  0
 15 16  1  0
 16 17  2  0
 17 12  1  0
 18  1  1  0
 19 18  2  0
 20 18  2  0
 21 25  1  0
 21 22  1  0
 22 23  1  0
 24 23  1  0
 25 18  1  0
 25 24  1  0
  2 26  1  0
  3 27  1  0
  5 28  1  0
  6 29  1  0
 12 30  1  0
 13 31  1  0
 14 32  1  0
 21 33  1  0
 22 34  1  0
 22 35  1  0
 23 36  1  0
 23 37  1  0
 24 38  1  0
 24 39  1  0
 25 40  1  1
M  ISO  8  26  14  27  14  28  14  29  14  30  14  31  14  32  14  33   5
M  ISO  7  34  13  35  13  36  13  37  13  38  13  39  13  40  13
M  END
>  <minimizedAffinity>  (1) 
-6.58871508

>  <minimizedRMSD>  (1) 
1.07353425

$$$$
