
     RDKit          3D

 31 33  0  0  0  0  0  0  0  0999 V2000
   39.4020   34.5120   40.3230 C   0  0  0  0  0  0  0  0  0  0  0  0
   40.0170   33.4240   40.8700 C   0  0  0  0  0  0  0  0  0  0  0  0
   39.3640   32.2110   41.0170 C   0  0  0  0  0  0  0  0  0  0  0  0
   38.0710   32.0730   40.6100 C   0  0  0  0  0  0  0  0  0  0  0  0
   37.4400   33.1480   40.0610 C   0  0  0  0  0  0  0  0  0  0  0  0
   38.0890   34.3760   39.9100 C   0  0  0  0  0  0  0  0  0  0  0  0
   36.9680   28.6640   40.9640 C   0  0  0  0  0  0  0  0  0  0  0  0
   35.8150   29.4100   41.0000 N   0  0  0  0  0  0  0  0  0  0  0  0
   36.0880   30.6700   40.8800 O   0  0  0  0  0  0  0  0  0  0  0  0
   37.3980   30.8140   40.7630 C   0  0  0  0  0  0  0  0  0  0  0  0
   37.9470   29.5730   40.8130 N   0  0  0  0  0  0  0  0  0  0  0  0
   37.0940   25.1860   42.1990 C   0  0  0  0  0  0  0  0  0  0  0  0
   36.8070   24.4800   41.0280 C   0  0  0  0  0  0  0  0  0  0  0  0
   36.5770   25.2100   39.8440 C   0  0  0  0  0  0  0  0  0  0  0  0
   36.6490   26.5750   39.9100 N   0  0  0  0  0  0  0  0  0  0  0  0
   36.9330   27.2120   41.0790 C   0  0  0  0  0  0  0  0  0  0  0  0
   37.1560   26.5270   42.2220 N   0  0  0  0  0  0  0  0  0  0  0  0
   40.2790   36.0200   40.1020 S   0  0  0  0  0  0  0  0  0  0  0  0
   41.2220   35.8210   38.9570 O   0  0  0  0  0  0  0  0  0  0  0  0
   39.2770   37.1000   39.7120 O   0  0  0  0  0  0  0  0  0  0  0  0
   41.1650   36.4960   41.5370 C   0  0  0  0  0  0  0  0  0  0  0  0
   40.3980   36.5930   42.6560 F   0  0  0  0  0  0  0  0  0  0  0  0
   42.2360   35.6350   41.6860 F   0  0  0  0  0  0  0  0  0  0  0  0
   41.7090   37.7400   41.2790 F   0  0  0  0  0  0  0  0  0  0  0  0
   41.0614   33.5124   41.2039 H   0  0  0  0  0  0  0  0  0  0  0  0
   39.8916   31.3557   41.4642 H   0  0  0  0  0  0  0  0  0  0  0  0
   36.3961   33.0471   39.7291 H   0  0  0  0  0  0  0  0  0  0  0  0
   37.5583   35.2305   39.4648 H   0  0  0  0  0  0  0  0  0  0  0  0
   37.2744   24.6270   43.1290 H   0  0  0  0  0  0  0  0  0  0  0  0
   36.7616   23.3809   41.0298 H   0  0  0  0  0  0  0  0  0  0  0  0
   36.3471   24.6988   38.8975 H   0  0  0  0  0  0  0  0  0  0  0  0
  1  2  2  0
  2  3  1  0
  4 10  1  0
  4  3  2  0
  5  4  1  0
  6  5  2  0
  6  1  1  0
  7  8  2  0
  7 16  1  0
  9  8  1  0
 10 11  2  0
 10  9  1  0
 11  7  1  0
 12 17  2  0
 13 12  1  0
 14 15  1  0
 14 13  2  0
 15 16  2  0
 16 17  1  0
 18  1  1  0
 18 21  1  0
 19 18  2  0
 20 18  2  0
 21 23  1  0
 21 22  1  0
 24 21  1  0
  2 25  1  0
  3 26  1  0
  5 27  1  0
  6 28  1  0
 12 29  1  0
 13 30  1  0
 14 31  1  0
M  ISO  7  25  14  26  14  27  14  28  14  29  14  30  14  31  14
M  END
>  <minimizedAffinity>  (1) 
-6.1312108

>  <minimizedRMSD>  (1) 
0.676006913

$$$$
