
     RDKit          3D

 37 39  0  0  0  0  0  0  0  0999 V2000
   39.7700   33.9230   40.4040 C   0  0  0  0  0  0  0  0  0  0  0  0
   40.3580   32.7600   40.7940 C   0  0  0  0  0  0  0  0  0  0  0  0
   39.6280   31.5880   40.9160 C   0  0  0  0  0  0  0  0  0  0  0  0
   38.2900   31.5680   40.6480 C   0  0  0  0  0  0  0  0  0  0  0  0
   37.6780   32.7220   40.2550 C   0  0  0  0  0  0  0  0  0  0  0  0
   38.4180   33.9030   40.1320 C   0  0  0  0  0  0  0  0  0  0  0  0
   37.0080   28.2170   40.9620 C   0  0  0  0  0  0  0  0  0  0  0  0
   35.9020   29.0210   41.0170 N   0  0  0  0  0  0  0  0  0  0  0  0
   36.2460   30.2660   40.9110 O   0  0  0  0  0  0  0  0  0  0  0  0
   37.5650   30.3370   40.7870 C   0  0  0  0  0  0  0  0  0  0  0  0
   38.0380   29.0730   40.8170 N   0  0  0  0  0  0  0  0  0  0  0  0
   36.9770   24.7220   42.1420 C   0  0  0  0  0  0  0  0  0  0  0  0
   36.6220   24.0450   40.9540 C   0  0  0  0  0  0  0  0  0  0  0  0
   36.4090   24.8060   39.8080 C   0  0  0  0  0  0  0  0  0  0  0  0
   36.5540   26.1620   39.8910 N   0  0  0  0  0  0  0  0  0  0  0  0
   36.8980   26.7640   41.0590 C   0  0  0  0  0  0  0  0  0  0  0  0
   37.1100   26.0510   42.1880 N   0  0  0  0  0  0  0  0  0  0  0  0
   40.7160   35.3910   40.2030 S   0  0  0  0  0  0  0  0  0  0  0  0
   41.4470   35.2810   38.9070 O   0  0  0  0  0  0  0  0  0  0  0  0
   39.7650   36.5740   40.1260 O   0  0  0  0  0  0  0  0  0  0  0  0
   41.7580   35.5560   41.6260 C   0  0  0  0  0  0  0  0  0  0  0  0
   43.1620   35.0570   41.3300 C   0  0  0  0  0  0  0  0  0  0  0  0
   41.8470   36.9810   42.0840 C   0  0  0  0  0  0  0  0  0  0  0  0
   41.4351   32.7494   41.0172 H   0  0  0  0  0  0  0  0  0  0  0  0
   40.1330   30.6634   41.2325 H   0  0  0  0  0  0  0  0  0  0  0  0
   36.6004   32.7241   40.0343 H   0  0  0  0  0  0  0  0  0  0  0  0
   37.9147   34.8280   39.8141 H   0  0  0  0  0  0  0  0  0  0  0  0
   37.1493   24.1371   43.0576 H   0  0  0  0  0  0  0  0  0  0  0  0
   36.5171   22.9502   40.9351 H   0  0  0  0  0  0  0  0  0  0  0  0
   36.1305   24.3268   38.8578 H   0  0  0  0  0  0  0  0  0  0  0  0
   41.3036   34.9482   42.4223 H   0  0  0  0  0  0  0  0  0  0  0  0
   43.6913   34.8689   42.2758 H   0  0  0  0  0  0  0  0  0  0  0  0
   43.1049   34.1241   40.7499 H   0  0  0  0  0  0  0  0  0  0  0  0
   43.7065   35.8167   40.7499 H   0  0  0  0  0  0  0  0  0  0  0  0
   41.8490   37.0133   43.1835 H   0  0  0  0  0  0  0  0  0  0  0  0
   42.7750   37.4316   41.7022 H   0  0  0  0  0  0  0  0  0  0  0  0
   40.9822   37.5435   41.7022 H   0  0  0  0  0  0  0  0  0  0  0  0
  1  2  2  0
  2  3  1  0
  4 10  1  0
  4  3  2  0
  5  4  1  0
  6  5  2  0
  6  1  1  0
  7  8  2  0
  7 16  1  0
  9  8  1  0
 10 11  2  0
 10  9  1  0
 11  7  1  0
 12 17  2  0
 13 12  1  0
 14 15  1  0
 14 13  2  0
 15 16  2  0
 16 17  1  0
 18  1  1  0
 18 21  1  0
 19 18  2  0
 20 18  2  0
 21 23  1  0
 22 21  1  0
  2 24  1  0
  3 25  1  0
  5 26  1  0
  6 27  1  0
 12 28  1  0
 13 29  1  0
 14 30  1  0
 21 31  1  0
 22 32  1  0
 22 33  1  0
 22 34  1  0
 23 35  1  0
 23 36  1  0
 23 37  1  0
M  ISO  8  24  14  25  14  26  14  27  14  28  14  29  14  30  14  31   8
M  ISO  6  32   8  33   8  34   8  35   8  36   8  37   8
M  END
>  <minimizedAffinity>  (1) 
-5.61754847

>  <minimizedRMSD>  (1) 
1.12377739

$$$$
