
     RDKit          3D

 13 13  0  0  0  0  0  0  0  0999 V2000
   38.1940   29.5800   42.5300 C   0  0  0  0  0  0  0  0  0  0  0  0
   37.7780   28.2730   42.8230 C   0  0  0  0  0  0  0  0  0  0  0  0
   36.6040   27.7990   42.1960 C   0  0  0  0  0  0  0  0  0  0  0  0
   35.9550   28.6400   41.3500 N   0  0  0  0  0  0  0  0  0  0  0  0
   36.3840   29.8870   41.0930 C   0  0  0  0  0  0  0  0  0  0  0  0
   37.5020   30.3500   41.6870 N   0  0  0  0  0  0  0  0  0  0  0  0
   38.4740   27.3360   43.7460 C   0  0  0  0  0  0  0  0  0  0  0  0
   39.1048   29.9769   43.0022 H   0  0  0  0  0  0  0  0  0  0  0  0
   36.2283   26.7829   42.3867 H   0  0  0  0  0  0  0  0  0  0  0  0
   35.8233   30.5297   40.3983 H   0  0  0  0  0  0  0  0  0  0  0  0
   38.2619   27.6215   44.7869 H   0  0  0  0  0  0  0  0  0  0  0  0
   38.1163   26.3114   43.5667 H   0  0  0  0  0  0  0  0  0  0  0  0
   39.5583   27.3825   43.5667 H   0  0  0  0  0  0  0  0  0  0  0  0
  1  2  2  0
  2  7  1  0
  3  2  1  0
  4  3  2  0
  5  4  1  0
  5  6  2  0
  6  1  1  0
  1  8  1  0
  3  9  1  0
  5 10  1  0
  7 11  1  0
  7 12  1  0
  7 13  1  0
M  ISO  6   8  14   9  14  10  14  11   8  12   8  13   8
M  END
>  <minimizedAffinity>  (1) 
-2.59057665

>  <minimizedRMSD>  (1) 
0.913814366

$$$$
