
     RDKit          3D

 27 29  0  0  0  0  0  0  0  0999 V2000
   36.0980   28.2160   41.8000 C   0  0  0  0  0  0  0  0  0  0  0  0
   36.3950   28.6960   40.4070 C   0  0  0  0  0  0  0  0  0  0  0  0
   36.4270   27.9550   39.2440 C   0  0  0  0  0  0  0  0  0  0  0  0
   36.7280   28.7230   38.1860 N   0  0  0  0  0  0  0  0  0  0  0  0
   36.8930   29.9730   38.6520 C   0  0  0  0  0  0  0  0  0  0  0  0
   37.2090   31.1880   38.0590 C   0  0  0  0  0  0  0  0  0  0  0  0
   37.3090   32.3280   38.8250 C   0  0  0  0  0  0  0  0  0  0  0  0
   37.1050   32.3230   40.1970 C   0  0  0  0  0  0  0  0  0  0  0  0
   36.7910   31.1180   40.7990 C   0  0  0  0  0  0  0  0  0  0  0  0
   36.6930   29.9840   40.0150 C   0  0  0  0  0  0  0  0  0  0  0  0
   38.3780   28.3810   42.9110 C   0  0  0  0  0  0  0  0  0  0  0  0
   37.3460   27.6280   42.3350 C   0  0  0  0  0  0  0  0  0  0  0  0
   37.4980   26.2330   42.2590 C   0  0  0  0  0  0  0  0  0  0  0  0
   38.6390   25.6900   42.7470 N   0  0  0  0  0  0  0  0  0  0  0  0
   39.6050   26.4360   43.2900 C   0  0  0  0  0  0  0  0  0  0  0  0
   39.4870   27.7870   43.3790 N   0  0  0  0  0  0  0  0  0  0  0  0
   35.3034   27.4557   41.7754 H   0  0  0  0  0  0  0  0  0  0  0  0
   35.7540   29.0463   42.4343 H   0  0  0  0  0  0  0  0  0  0  0  0
   36.2310   26.8739   39.1909 H   0  0  0  0  0  0  0  0  0  0  0  0
   36.8156   28.4148   37.2071 H   0  0  0  0  0  0  0  0  0  0  0  0
   37.3801   31.2402   36.9736 H   0  0  0  0  0  0  0  0  0  0  0  0
   37.5600   33.2779   38.3304 H   0  0  0  0  0  0  0  0  0  0  0  0
   37.1902   33.2474   40.7871 H   0  0  0  0  0  0  0  0  0  0  0  0
   36.6220   31.0631   41.8845 H   0  0  0  0  0  0  0  0  0  0  0  0
   38.2778   29.4742   42.9806 H   0  0  0  0  0  0  0  0  0  0  0  0
   36.7139   25.6010   41.8165 H   0  0  0  0  0  0  0  0  0  0  0  0
   40.5133   25.9475   43.6724 H   0  0  0  0  0  0  0  0  0  0  0  0
  1 12  1  0
  2  1  1  0
  3  2  2  0
  4  5  1  0
  4  3  1  0
  5 10  2  0
  6  5  1  0
  6  7  2  0
  7  8  1  0
  8  9  2  0
 10  2  1  0
 10  9  1  0
 11 16  2  0
 12 11  1  0
 13 12  2  0
 13 14  1  0
 14 15  2  0
 15 16  1  0
  1 17  1  0
  1 18  1  0
  3 19  1  0
  4 20  1  0
  6 21  1  0
  7 22  1  0
  8 23  1  0
  9 24  1  0
 11 25  1  0
 13 26  1  0
 15 27  1  0
M  ISO  8  17   8  18   8  19  14  20   9  21  14  22  14  23  14  24  14
M  ISO  3  25  14  26  14  27  14
M  END
>  <minimizedAffinity>  (1) 
-4.54729128

>  <minimizedRMSD>  (1) 
6.87455797

$$$$
