
     RDKit          3D

 26 27  0  0  0  0  0  0  0  0999 V2000
   37.7450   29.0060   40.1570 C   0  0  0  0  0  0  0  0  0  0  0  0
   37.8480   30.4530   40.1880 N   0  0  0  0  0  0  0  0  0  0  0  0
   39.0150   31.0620   39.9070 C   0  0  0  0  0  0  0  0  0  0  0  0
   39.2740   32.4010   39.8940 C   0  0  0  0  0  0  0  0  0  0  0  0
   40.6340   32.9250   39.5600 C   0  0  0  0  0  0  0  0  0  0  0  0
   38.1950   33.2150   40.2090 C   0  0  0  0  0  0  0  0  0  0  0  0
   38.3660   34.4620   40.2140 O   0  0  0  0  0  0  0  0  0  0  0  0
   37.0000   32.6320   40.4970 N   0  0  0  0  0  0  0  0  0  0  0  0
   36.8440   31.3010   40.4840 C   0  0  0  0  0  0  0  0  0  0  0  0
   35.7180   30.7860   40.7570 O   0  0  0  0  0  0  0  0  0  0  0  0
   37.5120   28.4520   42.6360 C   0  0  0  0  0  0  0  0  0  0  0  0
   38.1830   28.3600   41.4120 C   0  0  0  0  0  0  0  0  0  0  0  0
   39.3680   27.5890   41.3880 C   0  0  0  0  0  0  0  0  0  0  0  0
   39.7730   26.9960   42.5310 N   0  0  0  0  0  0  0  0  0  0  0  0
   39.1020   27.1090   43.6840 C   0  0  0  0  0  0  0  0  0  0  0  0
   37.9630   27.8390   43.7460 N   0  0  0  0  0  0  0  0  0  0  0  0
   36.6949   28.7349   39.9732 H   0  0  0  0  0  0  0  0  0  0  0  0
   38.4120   28.6497   39.3581 H   0  0  0  0  0  0  0  0  0  0  0  0
   39.8592   30.4020   39.6586 H   0  0  0  0  0  0  0  0  0  0  0  0
   41.1837   33.1368   40.4890 H   0  0  0  0  0  0  0  0  0  0  0  0
   41.1823   32.1738   38.9727 H   0  0  0  0  0  0  0  0  0  0  0  0
   40.5365   33.8499   38.9727 H   0  0  0  0  0  0  0  0  0  0  0  0
   36.1941   33.2292   40.7312 H   0  0  0  0  0  0  0  0  0  0  0  0
   36.5866   29.0440   42.6930 H   0  0  0  0  0  0  0  0  0  0  0  0
   39.9465   27.4751   40.4594 H   0  0  0  0  0  0  0  0  0  0  0  0
   39.4783   26.6057   44.5868 H   0  0  0  0  0  0  0  0  0  0  0  0
  1  2  1  0
  1 12  1  0
  2  9  1  0
  3  2  1  0
  4  3  2  0
  4  6  1  0
  5  4  1  0
  6  7  2  0
  6  8  1  0
  9  8  1  0
  9 10  2  0
 11 16  2  0
 12 11  1  0
 13 12  2  0
 13 14  1  0
 14 15  2  0
 15 16  1  0
  1 17  1  0
  1 18  1  0
  3 19  1  0
  5 20  1  0
  5 21  1  0
  5 22  1  0
  8 23  1  0
 11 24  1  0
 13 25  1  0
 15 26  1  0
M  ISO  8  17   8  18   8  19  14  20   8  21   8  22   8  23   9  24  14
M  ISO  2  25  14  26  14
M  END
>  <minimizedAffinity>  (1) 
-4.52748585

>  <minimizedRMSD>  (1) 
6.85738182

$$$$
