
     RDKit          3D

 21 22  0  0  0  0  0  0  0  0999 V2000
   35.6540   29.3410   40.8380 C   0  0  0  0  0  0  0  0  0  0  0  0
   37.3880   29.1210   42.7240 C   0  0  0  0  0  0  0  0  0  0  0  0
   36.6570   28.6160   41.6480 C   0  0  0  0  0  0  0  0  0  0  0  0
   36.8970   27.2600   41.2880 C   0  0  0  0  0  0  0  0  0  0  0  0
   37.8120   26.5580   42.0090 N   0  0  0  0  0  0  0  0  0  0  0  0
   38.4860   27.1030   43.0380 C   0  0  0  0  0  0  0  0  0  0  0  0
   38.2710   28.3950   43.3980 N   0  0  0  0  0  0  0  0  0  0  0  0
   36.3110   30.2720   39.8790 C   0  0  0  0  0  0  0  0  0  0  0  0
   36.6190   29.9380   38.5900 C   0  0  0  0  0  0  0  0  0  0  0  0
   37.2280   30.8980   37.8070 C   0  0  0  0  0  0  0  0  0  0  0  0
   37.4940   32.1090   38.3270 N   0  0  0  0  0  0  0  0  0  0  0  0
   37.1850   32.4310   39.6080 C   0  0  0  0  0  0  0  0  0  0  0  0
   36.5850   31.5000   40.3950 N   0  0  0  0  0  0  0  0  0  0  0  0
   35.0515   28.6124   40.2758 H   0  0  0  0  0  0  0  0  0  0  0  0
   35.0169   29.9290   41.5151 H   0  0  0  0  0  0  0  0  0  0  0  0
   37.2253   30.1660   43.0266 H   0  0  0  0  0  0  0  0  0  0  0  0
   36.3578   26.7931   40.4505 H   0  0  0  0  0  0  0  0  0  0  0  0
   39.2176   26.4970   43.5926 H   0  0  0  0  0  0  0  0  0  0  0  0
   36.3896   28.9391   38.1905 H   0  0  0  0  0  0  0  0  0  0  0  0
   37.4941   30.6735   36.7636 H   0  0  0  0  0  0  0  0  0  0  0  0
   37.4167   33.4309   40.0037 H   0  0  0  0  0  0  0  0  0  0  0  0
  1  3  1  0
  2  7  2  0
  3  2  1  0
  4  3  2  0
  4  5  1  0
  5  6  2  0
  6  7  1  0
  8 13  1  0
  8  1  1  0
  9  8  2  0
 10 11  2  0
 10  9  1  0
 11 12  1  0
 12 13  2  0
  1 14  1  0
  1 15  1  0
  2 16  1  0
  4 17  1  0
  6 18  1  0
  9 19  1  0
 10 20  1  0
 12 21  1  0
M  ISO  8  14   8  15   8  16  14  17  14  18  14  19  14  20  14  21  14
M  END
>  <minimizedAffinity>  (1) 
-3.84652686

>  <minimizedRMSD>  (1) 
6.117805

$$$$
