
     RDKit          3D

 20 20  0  0  0  0  0  0  0  0999 V2000
   38.8900   26.6140   44.1020 C   0  0  0  0  0  0  0  0  0  0  0  0
   38.7300   28.9480   43.0360 C   0  0  0  0  0  0  0  0  0  0  0  0
   38.2380   27.6620   43.2560 C   0  0  0  0  0  0  0  0  0  0  0  0
   37.0150   27.2800   42.6410 C   0  0  0  0  0  0  0  0  0  0  0  0
   36.4000   28.2110   41.8660 N   0  0  0  0  0  0  0  0  0  0  0  0
   36.8950   29.4370   41.6730 C   0  0  0  0  0  0  0  0  0  0  0  0
   38.0490   29.7880   42.2580 N   0  0  0  0  0  0  0  0  0  0  0  0
   40.2270   26.3210   43.5860 N   0  0  0  0  0  0  0  0  0  0  0  0
   40.6490   25.0110   43.2330 C   0  0  0  0  0  0  0  0  0  0  0  0
   39.8030   24.0450   43.2510 N   0  0  0  0  0  0  0  0  0  0  0  0
   41.9950   24.7420   42.8560 N   0  0  0  0  0  0  0  0  0  0  0  0
   38.8100   24.1380   43.5080 H   0  0  0  0  0  0  0  0  0  0  0  0
   38.9698   26.9779   45.1370 H   0  0  0  0  0  0  0  0  0  0  0  0
   38.2823   25.6974   44.0769 H   0  0  0  0  0  0  0  0  0  0  0  0
   39.6742   29.2668   43.5018 H   0  0  0  0  0  0  0  0  0  0  0  0
   36.5864   26.2773   42.7858 H   0  0  0  0  0  0  0  0  0  0  0  0
   36.3577   30.1555   41.0366 H   0  0  0  0  0  0  0  0  0  0  0  0
   40.8923   27.0992   43.4735 H   0  0  0  0  0  0  0  0  0  0  0  0
   42.6866   25.5050   42.8362 H   0  0  0  0  0  0  0  0  0  0  0  0
   42.2774   23.7843   42.6031 H   0  0  0  0  0  0  0  0  0  0  0  0
  2  3  2  0
  3  1  1  0
  4  3  1  0
  5  4  2  0
  6  5  1  0
  6  7  2  0
  7  2  1  0
  8  1  1  0
  9 10  2  0
  9  8  1  0
 10 12  1  0
 11  9  1  0
  1 13  1  0
  1 14  1  0
  2 15  1  0
  4 16  1  0
  6 17  1  0
  8 18  1  0
 11 19  1  0
 11 20  1  0
M  ISO  5  13   8  14   8  15  14  16  14  17  14
M  END
>  <minimizedAffinity>  (1) 
-3.67732334

>  <minimizedRMSD>  (1) 
0.980463684

$$$$
