
     RDKit          3D

 20 21  0  0  0  0  0  0  0  0999 V2000
   38.2090   29.6010   42.5830 C   0  0  0  0  0  0  0  0  0  0  0  0
   37.4550   28.4550   42.8720 C   0  0  0  0  0  0  0  0  0  0  0  0
   36.3330   28.2140   42.0470 C   0  0  0  0  0  0  0  0  0  0  0  0
   36.0500   29.0770   41.0470 N   0  0  0  0  0  0  0  0  0  0  0  0
   36.8110   30.1670   40.8130 C   0  0  0  0  0  0  0  0  0  0  0  0
   37.8860   30.4150   41.5880 N   0  0  0  0  0  0  0  0  0  0  0  0
   37.7470   27.5000   43.9590 C   0  0  0  0  0  0  0  0  0  0  0  0
   38.9580   26.7090   43.5820 C   0  0  0  0  0  0  0  0  0  0  0  0
   39.0860   25.9730   42.4050 C   0  0  0  0  0  0  0  0  0  0  0  0
   40.2930   25.4250   42.4540 N   0  0  0  0  0  0  0  0  0  0  0  0
   40.9280   25.7770   43.5930 C   0  0  0  0  0  0  0  0  0  0  0  0
   40.0970   26.5740   44.2930 N   0  0  0  0  0  0  0  0  0  0  0  0
   39.0916   29.8307   43.1980 H   0  0  0  0  0  0  0  0  0  0  0  0
   35.6969   27.3329   42.2174 H   0  0  0  0  0  0  0  0  0  0  0  0
   36.5545   30.8519   39.9913 H   0  0  0  0  0  0  0  0  0  0  0  0
   37.9378   28.0482   44.8934 H   0  0  0  0  0  0  0  0  0  0  0  0
   36.8897   26.8278   44.1108 H   0  0  0  0  0  0  0  0  0  0  0  0
   38.3410   25.8684   41.6025 H   0  0  0  0  0  0  0  0  0  0  0  0
   41.9400   25.4689   43.8945 H   0  0  0  0  0  0  0  0  0  0  0  0
   40.2958   27.0036   45.2078 H   0  0  0  0  0  0  0  0  0  0  0  0
  1  2  2  0
  2  7  1  0
  3  2  1  0
  4  3  2  0
  5  4  1  0
  5  6  2  0
  6  1  1  0
  8  7  1  0
  8 12  1  0
  9 10  1  0
  9  8  2  0
 10 11  2  0
 11 12  1  0
  1 13  1  0
  3 14  1  0
  5 15  1  0
  7 16  1  0
  7 17  1  0
  9 18  1  0
 11 19  1  0
 12 20  1  0
M  ISO  8  13  14  14  14  15  14  16   8  17   8  18  14  19  14  20   9
M  END
>  <minimizedAffinity>  (1) 
-3.56992888

>  <minimizedRMSD>  (1) 
0.831151426

$$$$
