
     RDKit          3D

 19 20  0  0  0  0  0  0  0  0999 V2000
   39.1630   30.0410   42.7490 C   0  0  0  0  0  0  0  0  0  0  0  0
   37.9310   29.3890   42.7740 C   0  0  0  0  0  0  0  0  0  0  0  0
   36.9510   29.7670   41.8330 C   0  0  0  0  0  0  0  0  0  0  0  0
   37.2630   30.7510   40.9470 N   0  0  0  0  0  0  0  0  0  0  0  0
   38.4700   31.3620   40.9520 C   0  0  0  0  0  0  0  0  0  0  0  0
   39.4010   30.9980   41.8520 N   0  0  0  0  0  0  0  0  0  0  0  0
   37.5650   28.3100   43.7320 C   0  0  0  0  0  0  0  0  0  0  0  0
   38.3450   27.1170   43.4090 N   0  0  0  0  0  0  0  0  0  0  0  0
   38.0480   26.2380   42.4140 C   0  0  0  0  0  0  0  0  0  0  0  0
   39.0330   25.3060   42.4900 N   0  0  0  0  0  0  0  0  0  0  0  0
   39.8720   25.6360   43.4950 C   0  0  0  0  0  0  0  0  0  0  0  0
   39.4420   26.7560   44.0620 N   0  0  0  0  0  0  0  0  0  0  0  0
   39.9431   29.7642   43.4735 H   0  0  0  0  0  0  0  0  0  0  0  0
   35.9643   29.2810   41.8160 H   0  0  0  0  0  0  0  0  0  0  0  0
   38.6896   32.1547   40.2217 H   0  0  0  0  0  0  0  0  0  0  0  0
   37.7905   28.6337   44.7588 H   0  0  0  0  0  0  0  0  0  0  0  0
   36.4901   28.0886   43.6567 H   0  0  0  0  0  0  0  0  0  0  0  0
   37.2039   26.2739   41.7096 H   0  0  0  0  0  0  0  0  0  0  0  0
   40.7658   25.0692   43.7947 H   0  0  0  0  0  0  0  0  0  0  0  0
  1  2  2  0
  2  7  1  0
  3  2  1  0
  4  5  1  0
  4  3  2  0
  5  6  2  0
  6  1  1  0
  8  7  1  0
  8 12  1  0
  9 10  2  0
  9  8  1  0
 10 11  1  0
 11 12  2  0
  1 13  1  0
  3 14  1  0
  5 15  1  0
  7 16  1  0
  7 17  1  0
  9 18  1  0
 11 19  1  0
M  ISO  7  13  14  14  14  15  14  16   8  17   8  18  14  19  14
M  END
>  <minimizedAffinity>  (1) 
-3.48942065

>  <minimizedRMSD>  (1) 
1.7641288

$$$$
