
     RDKit          3D

 20 21  0  0  0  0  0  0  0  0999 V2000
   37.9650   29.7300   42.3940 C   0  0  0  0  0  0  0  0  0  0  0  0
   37.5690   28.4340   42.7240 C   0  0  0  0  0  0  0  0  0  0  0  0
   36.4240   27.9040   42.0840 C   0  0  0  0  0  0  0  0  0  0  0  0
   35.7740   28.6930   41.1790 N   0  0  0  0  0  0  0  0  0  0  0  0
   36.1900   29.9380   40.8890 C   0  0  0  0  0  0  0  0  0  0  0  0
   37.2740   30.4430   41.4930 N   0  0  0  0  0  0  0  0  0  0  0  0
   38.2460   27.5480   43.7000 C   0  0  0  0  0  0  0  0  0  0  0  0
   39.4530   26.8490   43.0960 C   0  0  0  0  0  0  0  0  0  0  0  0
   39.8700   25.5310   43.5790 C   0  0  0  0  0  0  0  0  0  0  0  0
   40.6190   26.7180   44.0850 C   0  0  0  0  0  0  0  0  0  0  0  0
   38.8503   30.1702   42.8762 H   0  0  0  0  0  0  0  0  0  0  0  0
   36.0684   26.8876   42.3086 H   0  0  0  0  0  0  0  0  0  0  0  0
   35.6391   30.5434   40.1542 H   0  0  0  0  0  0  0  0  0  0  0  0
   38.5782   28.1525   44.5569 H   0  0  0  0  0  0  0  0  0  0  0  0
   37.5276   26.7753   44.0113 H   0  0  0  0  0  0  0  0  0  0  0  0
   39.2681   27.2369   42.0834 H   0  0  0  0  0  0  0  0  0  0  0  0
   39.2147   24.9709   44.2623 H   0  0  0  0  0  0  0  0  0  0  0  0
   40.1683   24.5960   43.0822 H   0  0  0  0  0  0  0  0  0  0  0  0
   41.6514   26.9058   43.7551 H   0  0  0  0  0  0  0  0  0  0  0  0
   40.8678   27.1332   45.0728 H   0  0  0  0  0  0  0  0  0  0  0  0
  1  2  2  0
  2  7  1  0
  3  2  1  0
  4  3  2  0
  5  4  1  0
  5  6  2  0
  6  1  1  0
  8  9  1  0
  8  7  1  0
  8 10  1  0
  9 10  1  0
  1 11  1  0
  3 12  1  0
  5 13  1  0
  7 14  1  0
  7 15  1  0
  8 16  1  0
  9 17  1  0
  9 18  1  0
 10 19  1  0
 10 20  1  0
M  ISO  8  11  14  12  14  13  14  14   8  15   8  16  13  17  13  18  13
M  ISO  2  19  13  20  13
M  END
>  <minimizedAffinity>  (1) 
-3.44083071

>  <minimizedRMSD>  (1) 
1.15532851

$$$$
