
     RDKit          3D

 27 29  0  0  0  0  0  0  0  0999 V2000
   40.7810   29.1400   41.6700 N   0  0  0  0  0  0  0  0  0  0  0  0
   41.3890   29.0590   42.8580 C   0  0  0  0  0  0  0  0  0  0  0  0
   41.5880   27.7630   43.1500 N   0  0  0  0  0  0  0  0  0  0  0  0
   41.1100   27.0090   42.1550 C   0  0  0  0  0  0  0  0  0  0  0  0
   41.1170   25.6330   42.0610 C   0  0  0  0  0  0  0  0  0  0  0  0
   41.6000   24.8940   42.9530 O   0  0  0  0  0  0  0  0  0  0  0  0
   40.5870   25.0500   40.9760 N   0  0  0  0  0  0  0  0  0  0  0  0
   40.0880   25.8960   40.0610 C   0  0  0  0  0  0  0  0  0  0  0  0
   39.5050   25.3780   38.8790 N   0  0  0  0  0  0  0  0  0  0  0  0
   40.0730   27.2560   40.1360 N   0  0  0  0  0  0  0  0  0  0  0  0
   40.6000   27.8850   41.2200 C   0  0  0  0  0  0  0  0  0  0  0  0
   40.3530   30.3080   40.9210 C   0  0  0  0  0  0  0  0  0  0  0  0
   38.0060   29.9140   41.8810 C   0  0  0  0  0  0  0  0  0  0  0  0
   38.8750   30.4680   40.9280 C   0  0  0  0  0  0  0  0  0  0  0  0
   38.3190   31.2450   39.8790 C   0  0  0  0  0  0  0  0  0  0  0  0
   36.9640   31.3900   39.8870 N   0  0  0  0  0  0  0  0  0  0  0  0
   36.1620   30.8500   40.8080 C   0  0  0  0  0  0  0  0  0  0  0  0
   36.6990   30.1190   41.7930 N   0  0  0  0  0  0  0  0  0  0  0  0
   41.6780   29.9112   43.4906 H   0  0  0  0  0  0  0  0  0  0  0  0
   40.5644   24.0276   40.8536 H   0  0  0  0  0  0  0  0  0  0  0  0
   39.4672   24.3600   38.7268 H   0  0  0  0  0  0  0  0  0  0  0  0
   39.1188   26.0192   38.1715 H   0  0  0  0  0  0  0  0  0  0  0  0
   40.6935   30.2058   39.8800 H   0  0  0  0  0  0  0  0  0  0  0  0
   40.7914   31.1960   41.3998 H   0  0  0  0  0  0  0  0  0  0  0  0
   38.4110   29.3072   42.7043 H   0  0  0  0  0  0  0  0  0  0  0  0
   38.9472   31.7051   39.1020 H   0  0  0  0  0  0  0  0  0  0  0  0
   35.0739   31.0037   40.7582 H   0  0  0  0  0  0  0  0  0  0  0  0
  1  2  1  0
  2  3  2  0
  4  3  1  0
  5  4  1  0
  5  6  2  0
  7  5  1  0
  8 10  2  0
  8  7  1  0
  9  8  1  0
 10 11  1  0
 11  1  1  0
 11  4  2  0
 12 14  1  0
 12  1  1  0
 14 13  2  0
 15 16  2  0
 15 14  1  0
 16 17  1  0
 17 18  2  0
 18 13  1  0
  2 19  1  0
  7 20  1  0
  9 21  1  0
  9 22  1  0
 12 23  1  0
 12 24  1  0
 13 25  1  0
 15 26  1  0
 17 27  1  0
M  ISO  7  19  14  20   9  23   8  24   8  25  14  26  14  27  14
M  END
>  <minimizedAffinity>  (1) 
-3.26364756

>  <minimizedRMSD>  (1) 
5.76758957

$$$$
