
     RDKit          3D

 28 29  0  0  0  0  0  0  0  0999 V2000
   37.7260   28.9490   40.7590 C   0  0  0  0  0  0  0  0  0  0  0  0
   36.5800   28.9780   38.4670 C   0  0  0  0  0  0  0  0  0  0  0  0
   36.5470   28.9880   39.8630 C   0  0  0  0  0  0  0  0  0  0  0  0
   35.2670   29.0390   40.4900 C   0  0  0  0  0  0  0  0  0  0  0  0
   34.1820   29.0750   39.6860 N   0  0  0  0  0  0  0  0  0  0  0  0
   34.2560   29.0640   38.3530 C   0  0  0  0  0  0  0  0  0  0  0  0
   35.4670   29.0150   37.7480 N   0  0  0  0  0  0  0  0  0  0  0  0
   37.8480   30.1060   41.6130 N   0  0  0  0  0  0  0  0  0  0  0  0
   38.8450   29.8720   42.6100 C   0  0  0  0  0  0  0  0  0  0  0  0
   39.8230   30.9880   42.7990 C   0  0  0  0  0  0  0  0  0  0  0  0
   40.4420   31.4540   41.5170 C   0  0  0  0  0  0  0  0  0  0  0  0
   39.4830   31.4510   40.3480 C   0  0  0  0  0  0  0  0  0  0  0  0
   38.0890   31.3190   40.9040 C   0  0  0  0  0  0  0  0  0  0  0  0
   38.6312   28.8795   40.1379 H   0  0  0  0  0  0  0  0  0  0  0  0
   37.5988   28.0771   41.4175 H   0  0  0  0  0  0  0  0  0  0  0  0
   37.5514   28.9385   37.9524 H   0  0  0  0  0  0  0  0  0  0  0  0
   35.1672   29.0486   41.5854 H   0  0  0  0  0  0  0  0  0  0  0  0
   33.3375   29.0946   37.7486 H   0  0  0  0  0  0  0  0  0  0  0  0
   38.3348   29.6991   43.5691 H   0  0  0  0  0  0  0  0  0  0  0  0
   39.4289   29.0063   42.2642 H   0  0  0  0  0  0  0  0  0  0  0  0
   39.2994   31.8368   43.2631 H   0  0  0  0  0  0  0  0  0  0  0  0
   40.6357   30.6062   43.4344 H   0  0  0  0  0  0  0  0  0  0  0  0
   40.8115   32.4799   41.6615 H   0  0  0  0  0  0  0  0  0  0  0  0
   41.2510   30.7495   41.2736 H   0  0  0  0  0  0  0  0  0  0  0  0
   39.7039   30.6026   39.6836 H   0  0  0  0  0  0  0  0  0  0  0  0
   39.5807   32.3788   39.7653 H   0  0  0  0  0  0  0  0  0  0  0  0
   37.9121   32.1596   41.5911 H   0  0  0  0  0  0  0  0  0  0  0  0
   37.4067   31.3180   40.0412 H   0  0  0  0  0  0  0  0  0  0  0  0
  1  8  1  0
  2  3  2  0
  3  4  1  0
  3  1  1  0
  5  4  2  0
  6  5  1  0
  7  6  2  0
  7  2  1  0
  8  9  1  0
  9 10  1  0
 11 10  1  0
 12 13  1  0
 12 11  1  0
 13  8  1  0
  1 14  1  0
  1 15  1  0
  2 16  1  0
  4 17  1  0
  6 18  1  0
  9 19  1  0
  9 20  1  0
 10 21  1  0
 10 22  1  0
 11 23  1  0
 11 24  1  0
 12 25  1  0
 12 26  1  0
 13 27  1  0
 13 28  1  0
M  ISO  8  14   8  15   8  16  14  17  14  18  14  19  13  20  13  21  13
M  ISO  7  22  13  23  13  24  13  25  13  26  13  27  13  28  13
M  END
>  <minimizedAffinity>  (1) 
-3.01902533

>  <minimizedRMSD>  (1) 
4.97434235

$$$$
