
     RDKit          3D

 14 14  0  0  0  0  0  0  0  0999 V2000
   37.7720   30.2060   41.8420 C   0  0  0  0  0  0  0  0  0  0  0  0
   37.0770   29.0470   42.1810 C   0  0  0  0  0  0  0  0  0  0  0  0
   35.9920   28.6680   41.3780 C   0  0  0  0  0  0  0  0  0  0  0  0
   35.6710   29.4410   40.3160 N   0  0  0  0  0  0  0  0  0  0  0  0
   36.3680   30.5630   40.0140 C   0  0  0  0  0  0  0  0  0  0  0  0
   37.4170   30.9360   40.7830 N   0  0  0  0  0  0  0  0  0  0  0  0
   37.4040   28.1780   43.3370 C   0  0  0  0  0  0  0  0  0  0  0  0
   36.8290   28.7250   44.4970 O   0  0  0  0  0  0  0  0  0  0  0  0
   38.6267   30.5242   42.4570 H   0  0  0  0  0  0  0  0  0  0  0  0
   35.4139   27.7607   41.6072 H   0  0  0  0  0  0  0  0  0  0  0  0
   36.0810   31.1709   39.1433 H   0  0  0  0  0  0  0  0  0  0  0  0
   37.0006   27.1691   43.1658 H   0  0  0  0  0  0  0  0  0  0  0  0
   38.4955   28.1144   43.4574 H   0  0  0  0  0  0  0  0  0  0  0  0
   37.2521   28.3225   45.2964 H   0  0  0  0  0  0  0  0  0  0  0  0
  1  2  2  0
  2  7  1  0
  3  2  1  0
  4  3  2  0
  5  4  1  0
  5  6  2  0
  6  1  1  0
  7  8  1  0
  1  9  1  0
  3 10  1  0
  5 11  1  0
  7 12  1  0
  7 13  1  0
  8 14  1  0
M  ISO  6   9  14  10  14  11  14  12   8  13   8  14   3
M  END
>  <minimizedAffinity>  (1) 
-2.83616543

>  <minimizedRMSD>  (1) 
1.32125044

$$$$
