
     RDKit          3D

 15 15  0  0  0  0  0  0  0  0999 V2000
   38.1910   29.5810   42.5250 C   0  0  0  0  0  0  0  0  0  0  0  0
   37.7650   28.2800   42.8170 C   0  0  0  0  0  0  0  0  0  0  0  0
   36.5980   27.8100   42.1940 C   0  0  0  0  0  0  0  0  0  0  0  0
   35.9450   28.6350   41.3440 N   0  0  0  0  0  0  0  0  0  0  0  0
   36.3910   29.8870   41.0900 C   0  0  0  0  0  0  0  0  0  0  0  0
   37.5180   30.3570   41.6850 N   0  0  0  0  0  0  0  0  0  0  0  0
   38.4580   27.3540   43.7410 C   0  0  0  0  0  0  0  0  0  0  0  0
   39.3270   26.4300   43.0400 N   0  0  0  0  0  0  0  0  0  0  0  0
   39.1033   29.9684   43.0021 H   0  0  0  0  0  0  0  0  0  0  0  0
   36.2236   26.7949   42.3924 H   0  0  0  0  0  0  0  0  0  0  0  0
   35.8345   30.5316   40.3937 H   0  0  0  0  0  0  0  0  0  0  0  0
   39.0626   27.9435   44.4459 H   0  0  0  0  0  0  0  0  0  0  0  0
   37.6919   26.7648   44.2663 H   0  0  0  0  0  0  0  0  0  0  0  0
   39.8547   25.8689   43.7239 H   0  0  0  0  0  0  0  0  0  0  0  0
   38.7593   25.8060   42.4490 H   0  0  0  0  0  0  0  0  0  0  0  0
  1  2  2  0
  2  7  1  0
  3  2  1  0
  4  3  2  0
  5  4  1  0
  5  6  2  0
  6  1  1  0
  8  7  1  0
  1  9  1  0
  3 10  1  0
  5 11  1  0
  7 12  1  0
  7 13  1  0
  8 14  1  0
  8 15  1  0
M  ISO  7   9  14  10  14  11  14  12   8  13   8  14   5  15   5
M  END
>  <minimizedAffinity>  (1) 
-2.52882028

>  <minimizedRMSD>  (1) 
0.0630205199

$$$$
