
     RDKit          3D

 14 14  0  0  0  0  0  0  0  0999 V2000
   38.1960   29.5770   42.5360 C   0  0  0  0  0  0  0  0  0  0  0  0
   37.7690   28.2770   42.8210 C   0  0  0  0  0  0  0  0  0  0  0  0
   36.5950   27.7930   42.1930 C   0  0  0  0  0  0  0  0  0  0  0  0
   35.9520   28.6270   41.3470 N   0  0  0  0  0  0  0  0  0  0  0  0
   36.3850   29.8720   41.0910 C   0  0  0  0  0  0  0  0  0  0  0  0
   37.5090   30.3370   41.6920 N   0  0  0  0  0  0  0  0  0  0  0  0
   38.4680   27.3520   43.7480 C   0  0  0  0  0  0  0  0  0  0  0  0
   39.6710   26.4420   42.7060 S   0  0  0  0  0  0  0  0  0  0  0  0
   39.1051   29.9719   43.0131 H   0  0  0  0  0  0  0  0  0  0  0  0
   36.2213   26.7768   42.3869 H   0  0  0  0  0  0  0  0  0  0  0  0
   35.8282   30.5152   40.3937 H   0  0  0  0  0  0  0  0  0  0  0  0
   38.9894   27.9163   44.5352 H   0  0  0  0  0  0  0  0  0  0  0  0
   37.7675   26.6722   44.2551 H   0  0  0  0  0  0  0  0  0  0  0  0
   40.5561   25.7724   43.5092 H   0  0  0  0  0  0  0  0  0  0  0  0
  1  2  2  0
  2  7  1  0
  3  2  1  0
  4  3  2  0
  5  4  1  0
  5  6  2  0
  6  1  1  0
  8  7  1  0
  1  9  1  0
  3 10  1  0
  5 11  1  0
  7 12  1  0
  7 13  1  0
  8 14  1  0
M  ISO  6   9  14  10  14  11  14  12   8  13   8  14  11
M  END
>  <minimizedAffinity>  (1) 
-2.5052979

>  <minimizedRMSD>  (1) 
0.0100572454

$$$$
