
     RDKit          3D

 43 46  0  0  0  0  0  0  0  0999 V2000
   37.7440   28.2540   43.4810 C   0  0  0  0  0  0  0  0  0  0  0  0
   38.6220   27.0880   43.3660 C   0  0  0  0  0  0  0  0  0  0  0  0
   39.8350   26.9900   44.0580 C   0  0  0  0  0  0  0  0  0  0  0  0
   40.6310   25.8760   43.9260 C   0  0  0  0  0  0  0  0  0  0  0  0
   40.2230   24.8510   43.1030 C   0  0  0  0  0  0  0  0  0  0  0  0
   39.0420   24.9290   42.4200 C   0  0  0  0  0  0  0  0  0  0  0  0
   38.6130   23.9000   41.5840 C   0  0  0  0  0  0  0  0  0  0  0  0
   37.4370   23.9850   40.9110 C   0  0  0  0  0  0  0  0  0  0  0  0
   36.6040   25.0910   41.0160 C   0  0  0  0  0  0  0  0  0  0  0  0
   37.0550   26.1080   41.8570 C   0  0  0  0  0  0  0  0  0  0  0  0
   38.2330   26.0590   42.5530 C   0  0  0  0  0  0  0  0  0  0  0  0
   39.3620   30.0600   42.7680 C   0  0  0  0  0  0  0  0  0  0  0  0
   38.1320   29.4170   42.6470 C   0  0  0  0  0  0  0  0  0  0  0  0
   37.2680   29.9360   41.6900 C   0  0  0  0  0  0  0  0  0  0  0  0
   37.6540   30.9910   40.9600 N   0  0  0  0  0  0  0  0  0  0  0  0
   38.8430   31.5800   41.1060 C   0  0  0  0  0  0  0  0  0  0  0  0
   39.7050   31.1050   42.0230 N   0  0  0  0  0  0  0  0  0  0  0  0
   39.2230   32.6990   40.3150 N   0  0  0  0  0  0  0  0  0  0  0  0
   40.5170   32.8450   39.6820 C   0  0  0  0  0  0  0  0  0  0  0  0
   40.7610   34.2950   39.3390 C   0  0  0  0  0  0  0  0  0  0  0  0
   40.3040   35.1970   40.3530 N   0  0  0  0  0  0  0  0  0  0  0  0
   38.9480   35.0080   40.7760 C   0  0  0  0  0  0  0  0  0  0  0  0
   38.3040   33.7980   40.0910 C   0  0  0  0  0  0  0  0  0  0  0  0
   36.7294   27.9471   43.1872 H   0  0  0  0  0  0  0  0  0  0  0  0
   37.8143   28.5891   44.5264 H   0  0  0  0  0  0  0  0  0  0  0  0
   40.1550   27.8127   44.7143 H   0  0  0  0  0  0  0  0  0  0  0  0
   41.5832   25.8051   44.4722 H   0  0  0  0  0  0  0  0  0  0  0  0
   40.8556   23.9578   42.9937 H   0  0  0  0  0  0  0  0  0  0  0  0
   39.2385   23.0027   41.4673 H   0  0  0  0  0  0  0  0  0  0  0  0
   37.1342   23.1506   40.2614 H   0  0  0  0  0  0  0  0  0  0  0  0
   35.6508   25.1605   40.4715 H   0  0  0  0  0  0  0  0  0  0  0  0
   36.4262   27.0037   41.9679 H   0  0  0  0  0  0  0  0  0  0  0  0
   40.0802   29.6862   43.5126 H   0  0  0  0  0  0  0  0  0  0  0  0
   36.2770   29.4850   41.5335 H   0  0  0  0  0  0  0  0  0  0  0  0
   41.3010   32.4961   40.3702 H   0  0  0  0  0  0  0  0  0  0  0  0
   40.5383   32.2462   38.7595 H   0  0  0  0  0  0  0  0  0  0  0  0
   41.8417   34.4445   39.1988 H   0  0  0  0  0  0  0  0  0  0  0  0
   40.1924   34.5155   38.4235 H   0  0  0  0  0  0  0  0  0  0  0  0
   40.9126   35.0847   41.1763 H   0  0  0  0  0  0  0  0  0  0  0  0
   38.9327   34.8512   41.8647 H   0  0  0  0  0  0  0  0  0  0  0  0
   38.3742   35.9046   40.4987 H   0  0  0  0  0  0  0  0  0  0  0  0
   38.1816   33.9847   39.0139 H   0  0  0  0  0  0  0  0  0  0  0  0
   37.3024   33.5840   40.4922 H   0  0  0  0  0  0  0  0  0  0  0  0
  2  1  1  0
  2  3  2  0
  4  3  1  0
  5  4  2  0
  6 11  2  0
  6  5  1  0
  7  6  1  0
  8  9  1  0
  8  7  2  0
  9 10  2  0
 10 11  1  0
 11  2  1  0
 13 12  2  0
 13  1  1  0
 14 13  1  0
 15 16  1  0
 15 14  2  0
 16 17  2  0
 17 12  1  0
 18 16  1  0
 19 18  1  0
 20 19  1  0
 20 21  1  0
 21 22  1  0
 23 18  1  0
 23 22  1  0
  1 24  1  0
  1 25  1  0
  3 26  1  0
  4 27  1  0
  5 28  1  0
  7 29  1  0
  8 30  1  0
  9 31  1  0
 10 32  1  0
 12 33  1  0
 14 34  1  0
 19 35  1  0
 19 36  1  0
 20 37  1  0
 20 38  1  0
 21 39  1  0
 22 40  1  0
 22 41  1  0
 23 42  1  0
 23 43  1  0
M  ISO  8  24   8  25   8  26  14  27  14  28  14  29  14  30  14  31  14
M  ISO  8  32  14  33  14  34  14  35  13  36  13  37  13  38  13  39   5
M  ISO  4  40  13  41  13  42  13  43  13
M  END
>  <minimizedAffinity>  (1) 
-7.14782858

>  <minimizedRMSD>  (1) 
0.693575084

$$$$
