
     RDKit          3D

 36 39  0  0  0  0  0  0  0  0999 V2000
   37.3040   28.0310   43.1080 C   0  0  0  0  0  0  0  0  0  0  0  0
   38.2740   26.9350   43.0890 C   0  0  0  0  0  0  0  0  0  0  0  0
   39.4080   26.9170   43.9120 C   0  0  0  0  0  0  0  0  0  0  0  0
   40.2970   25.8720   43.8630 C   0  0  0  0  0  0  0  0  0  0  0  0
   40.0570   24.8240   42.9820 C   0  0  0  0  0  0  0  0  0  0  0  0
   38.9570   24.8240   42.1710 C   0  0  0  0  0  0  0  0  0  0  0  0
   38.7130   23.7800   41.2930 C   0  0  0  0  0  0  0  0  0  0  0  0
   37.6080   23.7910   40.4900 C   0  0  0  0  0  0  0  0  0  0  0  0
   36.7020   24.8200   40.5150 C   0  0  0  0  0  0  0  0  0  0  0  0
   36.9640   25.8630   41.4060 C   0  0  0  0  0  0  0  0  0  0  0  0
   38.0580   25.8960   42.2300 C   0  0  0  0  0  0  0  0  0  0  0  0
   39.0200   29.8840   42.8730 C   0  0  0  0  0  0  0  0  0  0  0  0
   37.7860   29.3070   42.5290 C   0  0  0  0  0  0  0  0  0  0  0  0
   37.0000   30.0020   41.5890 C   0  0  0  0  0  0  0  0  0  0  0  0
   37.4790   31.1580   41.0910 N   0  0  0  0  0  0  0  0  0  0  0  0
   38.6540   31.6660   41.4450 C   0  0  0  0  0  0  0  0  0  0  0  0
   39.4370   31.0360   42.3390 N   0  0  0  0  0  0  0  0  0  0  0  0
   39.1220   32.9240   40.8710 C   0  0  0  0  0  0  0  0  0  0  0  0
   40.0370   33.0910   39.8520 C   0  0  0  0  0  0  0  0  0  0  0  0
   40.2120   34.3820   39.5990 N   0  0  0  0  0  0  0  0  0  0  0  0
   39.4260   35.0660   40.4380 C   0  0  0  0  0  0  0  0  0  0  0  0
   38.7690   34.1750   41.2040 N   0  0  0  0  0  0  0  0  0  0  0  0
   36.4181   27.7119   42.5394 H   0  0  0  0  0  0  0  0  0  0  0  0
   37.0937   28.2357   44.1681 H   0  0  0  0  0  0  0  0  0  0  0  0
   39.5882   27.7510   44.6063 H   0  0  0  0  0  0  0  0  0  0  0  0
   41.1858   25.8642   44.5111 H   0  0  0  0  0  0  0  0  0  0  0  0
   40.7632   23.9818   42.9369 H   0  0  0  0  0  0  0  0  0  0  0  0
   39.4154   22.9349   41.2422 H   0  0  0  0  0  0  0  0  0  0  0  0
   37.4399   22.9489   39.8025 H   0  0  0  0  0  0  0  0  0  0  0  0
   35.8138   24.8237   39.8661 H   0  0  0  0  0  0  0  0  0  0  0  0
   36.2544   26.7025   41.4484 H   0  0  0  0  0  0  0  0  0  0  0  0
   39.6626   29.3719   43.6043 H   0  0  0  0  0  0  0  0  0  0  0  0
   36.0222   29.6114   41.2706 H   0  0  0  0  0  0  0  0  0  0  0  0
   40.5480   32.2718   39.3250 H   0  0  0  0  0  0  0  0  0  0  0  0
   39.3331   36.1607   40.4923 H   0  0  0  0  0  0  0  0  0  0  0  0
   38.0918   34.4188   41.9408 H   0  0  0  0  0  0  0  0  0  0  0  0
  2  1  1  0
  2  3  2  0
  4  3  1  0
  5  4  2  0
  6 11  2  0
  6  5  1  0
  7  6  1  0
  8  9  1  0
  8  7  2  0
  9 10  2  0
 10 11  1  0
 11  2  1  0
 13 12  2  0
 13  1  1  0
 14 13  1  0
 15 16  1  0
 15 14  2  0
 16 17  2  0
 17 12  1  0
 18 22  1  0
 18 16  1  0
 19 18  2  0
 20 19  1  0
 20 21  2  0
 21 22  1  0
  1 23  1  0
  1 24  1  0
  3 25  1  0
  4 26  1  0
  5 27  1  0
  7 28  1  0
  8 29  1  0
  9 30  1  0
 10 31  1  0
 12 32  1  0
 14 33  1  0
 19 34  1  0
 21 35  1  0
 22 36  1  0
M  ISO  8  23   8  24   8  25  14  26  14  27  14  28  14  29  14  30  14
M  ISO  6  31  14  32  14  33  14  34  14  35  14  36   9
M  END
>  <minimizedAffinity>  (1) 
-6.90409565

>  <minimizedRMSD>  (1) 
0.956675828

$$$$
