
     RDKit          3D

 35 38  0  0  0  0  0  0  0  0999 V2000
   38.3840   26.9390   43.1570 C   0  0  0  0  0  0  0  0  0  0  0  0
   39.5370   26.8860   43.9470 C   0  0  0  0  0  0  0  0  0  0  0  0
   40.3910   25.8110   43.8740 C   0  0  0  0  0  0  0  0  0  0  0  0
   40.1000   24.7750   43.0070 C   0  0  0  0  0  0  0  0  0  0  0  0
   38.9740   24.8120   42.2270 C   0  0  0  0  0  0  0  0  0  0  0  0
   38.6710   23.7750   41.3520 C   0  0  0  0  0  0  0  0  0  0  0  0
   37.5490   23.8180   40.5790 C   0  0  0  0  0  0  0  0  0  0  0  0
   36.6620   24.8850   40.6250 C   0  0  0  0  0  0  0  0  0  0  0  0
   36.9920   25.9090   41.5090 C   0  0  0  0  0  0  0  0  0  0  0  0
   38.1140   25.9050   42.3070 C   0  0  0  0  0  0  0  0  0  0  0  0
   37.4520   28.0640   43.2060 C   0  0  0  0  0  0  0  0  0  0  0  0
   39.1450   29.9170   42.9210 C   0  0  0  0  0  0  0  0  0  0  0  0
   37.9390   29.3130   42.5800 C   0  0  0  0  0  0  0  0  0  0  0  0
   37.1900   29.9600   41.5970 C   0  0  0  0  0  0  0  0  0  0  0  0
   37.6630   31.0930   41.0540 N   0  0  0  0  0  0  0  0  0  0  0  0
   38.8230   31.6380   41.4080 C   0  0  0  0  0  0  0  0  0  0  0  0
   39.5910   31.0420   42.3650 N   0  0  0  0  0  0  0  0  0  0  0  0
   39.3430   32.8420   40.8430 N   0  0  0  0  0  0  0  0  0  0  0  0
   38.4090   33.7760   40.4960 C   0  0  0  0  0  0  0  0  0  0  0  0
   39.0160   34.8770   39.9700 N   0  0  0  0  0  0  0  0  0  0  0  0
   40.3400   34.5860   40.0090 C   0  0  0  0  0  0  0  0  0  0  0  0
   40.5250   33.3470   40.5420 N   0  0  0  0  0  0  0  0  0  0  0  0
   39.7632   27.7141   44.6348 H   0  0  0  0  0  0  0  0  0  0  0  0
   41.2957   25.7760   44.4987 H   0  0  0  0  0  0  0  0  0  0  0  0
   40.7790   23.9120   42.9424 H   0  0  0  0  0  0  0  0  0  0  0  0
   39.3453   22.9087   41.2826 H   0  0  0  0  0  0  0  0  0  0  0  0
   37.3398   22.9806   39.8971 H   0  0  0  0  0  0  0  0  0  0  0  0
   35.7558   24.9193   40.0025 H   0  0  0  0  0  0  0  0  0  0  0  0
   36.3152   26.7737   41.5737 H   0  0  0  0  0  0  0  0  0  0  0  0
   36.5278   27.7630   42.6909 H   0  0  0  0  0  0  0  0  0  0  0  0
   37.3061   28.2934   44.2719 H   0  0  0  0  0  0  0  0  0  0  0  0
   39.7651   29.4384   43.6933 H   0  0  0  0  0  0  0  0  0  0  0  0
   36.2240   29.5471   41.2709 H   0  0  0  0  0  0  0  0  0  0  0  0
   37.3229   33.6568   40.6228 H   0  0  0  0  0  0  0  0  0  0  0  0
   41.1441   35.2515   39.6619 H   0  0  0  0  0  0  0  0  0  0  0  0
  1 11  1  0
  1  2  2  0
  3  2  1  0
  4  3  2  0
  5 10  2  0
  5  4  1  0
  6  5  1  0
  7  8  1  0
  7  6  2  0
  8  9  2  0
  9 10  1  0
 10  1  1  0
 13 12  2  0
 13 11  1  0
 14 13  1  0
 15 16  1  0
 15 14  2  0
 16 17  2  0
 17 12  1  0
 18 16  1  0
 19 18  1  0
 20 21  1  0
 20 19  2  0
 21 22  2  0
 22 18  1  0
  2 23  1  0
  3 24  1  0
  4 25  1  0
  6 26  1  0
  7 27  1  0
  8 28  1  0
  9 29  1  0
 11 30  1  0
 11 31  1  0
 12 32  1  0
 14 33  1  0
 19 34  1  0
 21 35  1  0
M  ISO  8  23  14  24  14  25  14  26  14  27  14  28  14  29  14  30   8
M  ISO  5  31   8  32  14  33  14  34  14  35  14
M  END
>  <minimizedAffinity>  (1) 
-6.83569622

>  <minimizedRMSD>  (1) 
0.933763564

$$$$
