
     RDKit          3D

 36 39  0  0  0  0  0  0  0  0999 V2000
   37.4360   28.0430   43.2810 C   0  0  0  0  0  0  0  0  0  0  0  0
   38.4060   26.9490   43.2160 C   0  0  0  0  0  0  0  0  0  0  0  0
   39.5910   26.9400   43.9620 C   0  0  0  0  0  0  0  0  0  0  0  0
   40.4740   25.8950   43.8710 C   0  0  0  0  0  0  0  0  0  0  0  0
   40.1760   24.8360   43.0220 C   0  0  0  0  0  0  0  0  0  0  0  0
   39.0290   24.8210   42.2850 C   0  0  0  0  0  0  0  0  0  0  0  0
   38.7400   23.7640   41.4420 C   0  0  0  0  0  0  0  0  0  0  0  0
   37.5800   23.7680   40.7060 C   0  0  0  0  0  0  0  0  0  0  0  0
   36.6700   24.8000   40.7710 C   0  0  0  0  0  0  0  0  0  0  0  0
   36.9910   25.8490   41.6310 C   0  0  0  0  0  0  0  0  0  0  0  0
   38.1340   25.8940   42.3850 C   0  0  0  0  0  0  0  0  0  0  0  0
   39.0810   29.9140   42.8560 C   0  0  0  0  0  0  0  0  0  0  0  0
   37.8450   29.2890   42.6060 C   0  0  0  0  0  0  0  0  0  0  0  0
   36.9940   29.9050   41.6660 C   0  0  0  0  0  0  0  0  0  0  0  0
   37.4200   31.0450   41.0730 N   0  0  0  0  0  0  0  0  0  0  0  0
   38.5980   31.5970   41.3420 C   0  0  0  0  0  0  0  0  0  0  0  0
   39.4440   31.0460   42.2320 N   0  0  0  0  0  0  0  0  0  0  0  0
   39.0490   32.8280   40.6940 C   0  0  0  0  0  0  0  0  0  0  0  0
   40.3090   33.3400   40.4660 C   0  0  0  0  0  0  0  0  0  0  0  0
   40.0990   34.5500   39.8030 C   0  0  0  0  0  0  0  0  0  0  0  0
   38.7600   34.7440   39.6480 N   0  0  0  0  0  0  0  0  0  0  0  0
   38.1310   33.7020   40.1860 N   0  0  0  0  0  0  0  0  0  0  0  0
   36.5010   27.6962   42.8168 H   0  0  0  0  0  0  0  0  0  0  0  0
   37.3321   28.2945   44.3468 H   0  0  0  0  0  0  0  0  0  0  0  0
   39.8168   27.7836   44.6308 H   0  0  0  0  0  0  0  0  0  0  0  0
   41.4029   25.8949   44.4603 H   0  0  0  0  0  0  0  0  0  0  0  0
   40.8790   23.9936   42.9430 H   0  0  0  0  0  0  0  0  0  0  0  0
   39.4395   22.9190   41.3605 H   0  0  0  0  0  0  0  0  0  0  0  0
   37.3705   22.9170   40.0413 H   0  0  0  0  0  0  0  0  0  0  0  0
   35.7433   24.7965   40.1784 H   0  0  0  0  0  0  0  0  0  0  0  0
   36.2856   26.6895   41.7088 H   0  0  0  0  0  0  0  0  0  0  0  0
   39.7701   29.4616   43.5843 H   0  0  0  0  0  0  0  0  0  0  0  0
   36.0127   29.4721   41.4216 H   0  0  0  0  0  0  0  0  0  0  0  0
   41.2731   32.8909   40.7466 H   0  0  0  0  0  0  0  0  0  0  0  0
   40.8877   35.2362   39.4609 H   0  0  0  0  0  0  0  0  0  0  0  0
   38.3133   35.5538   39.1947 H   0  0  0  0  0  0  0  0  0  0  0  0
  2  1  1  0
  2  3  2  0
  4  3  1  0
  5  4  2  0
  6 11  2  0
  6  5  1  0
  7  6  1  0
  8  9  1  0
  8  7  2  0
  9 10  2  0
 10 11  1  0
 11  2  1  0
 13 12  2  0
 13  1  1  0
 14 13  1  0
 15 16  1  0
 15 14  2  0
 16 17  2  0
 17 12  1  0
 18 16  1  0
 19 18  1  0
 20 19  2  0
 21 20  1  0
 21 22  1  0
 22 18  2  0
  1 23  1  0
  1 24  1  0
  3 25  1  0
  4 26  1  0
  5 27  1  0
  7 28  1  0
  8 29  1  0
  9 30  1  0
 10 31  1  0
 12 32  1  0
 14 33  1  0
 19 34  1  0
 20 35  1  0
 21 36  1  0
M  ISO  8  23   8  24   8  25  14  26  14  27  14  28  14  29  14  30  14
M  ISO  6  31  14  32  14  33  14  34  14  35  14  36   9
M  END
>  <minimizedAffinity>  (1) 
-6.77964544

>  <minimizedRMSD>  (1) 
0.805566609

$$$$
