
     RDKit          3D

 35 38  0  0  0  0  0  0  0  0999 V2000
   37.5730   28.0290   43.3400 C   0  0  0  0  0  0  0  0  0  0  0  0
   38.5240   26.9210   43.2310 C   0  0  0  0  0  0  0  0  0  0  0  0
   39.7260   26.8870   43.9460 C   0  0  0  0  0  0  0  0  0  0  0  0
   40.5950   25.8290   43.8180 C   0  0  0  0  0  0  0  0  0  0  0  0
   40.2660   24.7900   42.9680 C   0  0  0  0  0  0  0  0  0  0  0  0
   39.0980   24.8050   42.2640 C   0  0  0  0  0  0  0  0  0  0  0  0
   38.7550   23.7620   41.4060 C   0  0  0  0  0  0  0  0  0  0  0  0
   37.5810   23.7850   40.7060 C   0  0  0  0  0  0  0  0  0  0  0  0
   36.6900   24.8310   40.8130 C   0  0  0  0  0  0  0  0  0  0  0  0
   37.0490   25.8670   41.6750 C   0  0  0  0  0  0  0  0  0  0  0  0
   38.2200   25.8830   42.3990 C   0  0  0  0  0  0  0  0  0  0  0  0
   39.1880   29.9430   42.9650 C   0  0  0  0  0  0  0  0  0  0  0  0
   37.9910   29.2840   42.6680 C   0  0  0  0  0  0  0  0  0  0  0  0
   37.1860   29.8760   41.6900 C   0  0  0  0  0  0  0  0  0  0  0  0
   37.6070   31.0140   41.1130 N   0  0  0  0  0  0  0  0  0  0  0  0
   38.7520   31.6130   41.4210 C   0  0  0  0  0  0  0  0  0  0  0  0
   39.5620   31.0710   42.3630 N   0  0  0  0  0  0  0  0  0  0  0  0
   39.2300   32.8470   40.8070 C   0  0  0  0  0  0  0  0  0  0  0  0
   40.5630   32.7170   40.1660 C   0  0  0  0  0  0  0  0  0  0  0  0
   40.9120   34.4120   39.4820 S   0  0  0  0  0  0  0  0  0  0  0  0
   39.2360   34.9930   40.1640 C   0  0  0  0  0  0  0  0  0  0  0  0
   38.7760   34.0740   40.6740 N   0  0  0  0  0  0  0  0  0  0  0  0
   36.6201   27.7054   42.8959 H   0  0  0  0  0  0  0  0  0  0  0  0
   37.4983   28.2650   44.4118 H   0  0  0  0  0  0  0  0  0  0  0  0
   39.9796   27.7184   44.6201 H   0  0  0  0  0  0  0  0  0  0  0  0
   41.5381   25.8099   44.3838 H   0  0  0  0  0  0  0  0  0  0  0  0
   40.9553   23.9398   42.8579 H   0  0  0  0  0  0  0  0  0  0  0  0
   39.4386   22.9080   41.2903 H   0  0  0  0  0  0  0  0  0  0  0  0
   37.3406   22.9446   40.0382 H   0  0  0  0  0  0  0  0  0  0  0  0
   35.7460   24.8479   40.2486 H   0  0  0  0  0  0  0  0  0  0  0  0
   36.3593   26.7172   41.7822 H   0  0  0  0  0  0  0  0  0  0  0  0
   39.8502   29.5108   43.7297 H   0  0  0  0  0  0  0  0  0  0  0  0
   36.2283   29.4197   41.3991 H   0  0  0  0  0  0  0  0  0  0  0  0
   41.1997   31.8219   40.1085 H   0  0  0  0  0  0  0  0  0  0  0  0
   38.7987   35.9993   40.0861 H   0  0  0  0  0  0  0  0  0  0  0  0
  2  1  1  0
  2  3  2  0
  4  3  1  0
  5  4  2  0
  6 11  2  0
  6  5  1  0
  7  6  1  0
  8  9  1  0
  8  7  2  0
  9 10  2  0
 10 11  1  0
 11  2  1  0
 13 12  2  0
 13  1  1  0
 14 13  1  0
 15 16  1  0
 15 14  2  0
 16 17  2  0
 17 12  1  0
 18 16  1  0
 19 18  2  0
 20 21  1  0
 20 19  1  0
 21 22  2  0
 22 18  1  0
  1 23  1  0
  1 24  1  0
  3 25  1  0
  4 26  1  0
  5 27  1  0
  7 28  1  0
  8 29  1  0
  9 30  1  0
 10 31  1  0
 12 32  1  0
 14 33  1  0
 19 34  1  0
 21 35  1  0
M  ISO  8  23   8  24   8  25  14  26  14  27  14  28  14  29  14  30  14
M  ISO  5  31  14  32  14  33  14  34  14  35  14
M  END
>  <minimizedAffinity>  (1) 
-6.56336784

>  <minimizedRMSD>  (1) 
0.857188761

$$$$
