
     RDKit          3D

 32 34  0  0  0  0  0  0  0  0999 V2000
   38.7870   26.9870   43.4280 C   0  0  0  0  0  0  0  0  0  0  0  0
   40.0960   27.0390   43.9230 C   0  0  0  0  0  0  0  0  0  0  0  0
   40.9790   26.0120   43.6800 C   0  0  0  0  0  0  0  0  0  0  0  0
   40.5630   24.9250   42.9430 C   0  0  0  0  0  0  0  0  0  0  0  0
   39.2840   24.8550   42.4500 C   0  0  0  0  0  0  0  0  0  0  0  0
   38.8480   23.7680   41.7090 C   0  0  0  0  0  0  0  0  0  0  0  0
   37.5870   23.7020   41.2260 C   0  0  0  0  0  0  0  0  0  0  0  0
   36.6630   24.7160   41.4460 C   0  0  0  0  0  0  0  0  0  0  0  0
   37.1220   25.8000   42.1940 C   0  0  0  0  0  0  0  0  0  0  0  0
   38.3910   25.9000   42.6990 C   0  0  0  0  0  0  0  0  0  0  0  0
   37.8190   28.0550   43.6630 C   0  0  0  0  0  0  0  0  0  0  0  0
   39.0680   30.0500   42.7380 C   0  0  0  0  0  0  0  0  0  0  0  0
   37.9440   29.2310   42.7690 C   0  0  0  0  0  0  0  0  0  0  0  0
   36.9090   29.5760   41.8950 C   0  0  0  0  0  0  0  0  0  0  0  0
   37.0630   30.6500   41.1050 N   0  0  0  0  0  0  0  0  0  0  0  0
   38.1540   31.4090   41.1060 C   0  0  0  0  0  0  0  0  0  0  0  0
   39.1850   31.1090   41.9390 N   0  0  0  0  0  0  0  0  0  0  0  0
   38.2060   32.5760   40.1830 C   0  0  0  0  0  0  0  0  0  0  0  0
   36.9500   32.7200   39.6150 F   0  0  0  0  0  0  0  0  0  0  0  0
   39.1700   32.4200   39.2160 F   0  0  0  0  0  0  0  0  0  0  0  0
   38.5250   33.6980   40.9210 F   0  0  0  0  0  0  0  0  0  0  0  0
   40.4215   27.9093   44.5118 H   0  0  0  0  0  0  0  0  0  0  0  0
   42.0064   26.0585   44.0702 H   0  0  0  0  0  0  0  0  0  0  0  0
   41.2657   24.1017   42.7469 H   0  0  0  0  0  0  0  0  0  0  0  0
   39.5440   22.9399   41.5093 H   0  0  0  0  0  0  0  0  0  0  0  0
   37.2839   22.8204   40.6422 H   0  0  0  0  0  0  0  0  0  0  0  0
   35.6358   24.6670   41.0555 H   0  0  0  0  0  0  0  0  0  0  0  0
   36.4217   26.6253   42.3904 H   0  0  0  0  0  0  0  0  0  0  0  0
   36.8109   27.6347   43.5328 H   0  0  0  0  0  0  0  0  0  0  0  0
   38.0143   28.4242   44.6806 H   0  0  0  0  0  0  0  0  0  0  0  0
   39.9054   29.8100   43.4097 H   0  0  0  0  0  0  0  0  0  0  0  0
   35.9861   28.9787   41.8555 H   0  0  0  0  0  0  0  0  0  0  0  0
  1 11  1  0
  1  2  2  0
  3  2  1  0
  4  3  2  0
  5 10  2  0
  5  4  1  0
  6  5  1  0
  7  8  1  0
  7  6  2  0
  8  9  2  0
  9 10  1  0
 10  1  1  0
 12 13  2  0
 13 11  1  0
 14 13  1  0
 15 16  1  0
 15 14  2  0
 16 17  2  0
 17 12  1  0
 18 21  1  0
 18 16  1  0
 19 18  1  0
 20 18  1  0
  2 22  1  0
  3 23  1  0
  4 24  1  0
  6 25  1  0
  7 26  1  0
  8 27  1  0
  9 28  1  0
 11 29  1  0
 11 30  1  0
 12 31  1  0
 14 32  1  0
M  ISO  8  22  14  23  14  24  14  25  14  26  14  27  14  28  14  29   8
M  ISO  3  30   8  31  14  32  14
M  END
>  <minimizedAffinity>  (1) 
-6.36070681

>  <minimizedRMSD>  (1) 
0.141385153

$$$$
