
     RDKit          3D

 32 34  0  0  0  0  0  0  0  0999 V2000
   38.8070   27.0180   43.4470 C   0  0  0  0  0  0  0  0  0  0  0  0
   40.1200   27.0690   43.9320 C   0  0  0  0  0  0  0  0  0  0  0  0
   40.9960   26.0360   43.6920 C   0  0  0  0  0  0  0  0  0  0  0  0
   40.5740   24.9410   42.9650 C   0  0  0  0  0  0  0  0  0  0  0  0
   39.2950   24.8720   42.4810 C   0  0  0  0  0  0  0  0  0  0  0  0
   38.8380   23.7880   41.7490 C   0  0  0  0  0  0  0  0  0  0  0  0
   37.5720   23.7190   41.2730 C   0  0  0  0  0  0  0  0  0  0  0  0
   36.6720   24.7320   41.4960 C   0  0  0  0  0  0  0  0  0  0  0  0
   37.1320   25.8250   42.2320 C   0  0  0  0  0  0  0  0  0  0  0  0
   38.4050   25.9210   42.7260 C   0  0  0  0  0  0  0  0  0  0  0  0
   37.8420   28.0920   43.6760 C   0  0  0  0  0  0  0  0  0  0  0  0
   39.0650   30.0720   42.6890 C   0  0  0  0  0  0  0  0  0  0  0  0
   37.9450   29.2380   42.7500 C   0  0  0  0  0  0  0  0  0  0  0  0
   36.9070   29.5540   41.8740 C   0  0  0  0  0  0  0  0  0  0  0  0
   37.0420   30.6090   41.0520 N   0  0  0  0  0  0  0  0  0  0  0  0
   38.1260   31.3780   41.0270 C   0  0  0  0  0  0  0  0  0  0  0  0
   39.1620   31.1110   41.8590 N   0  0  0  0  0  0  0  0  0  0  0  0
   38.1150   32.5070   40.0550 C   0  0  0  0  0  0  0  0  0  0  0  0
   40.4537   27.9433   44.5102 H   0  0  0  0  0  0  0  0  0  0  0  0
   42.0255   26.0821   44.0767 H   0  0  0  0  0  0  0  0  0  0  0  0
   41.2734   24.1142   42.7723 H   0  0  0  0  0  0  0  0  0  0  0  0
   39.5272   22.9547   41.5475 H   0  0  0  0  0  0  0  0  0  0  0  0
   37.2589   22.8355   40.6973 H   0  0  0  0  0  0  0  0  0  0  0  0
   35.6415   24.6844   41.1142 H   0  0  0  0  0  0  0  0  0  0  0  0
   36.4345   26.6533   42.4254 H   0  0  0  0  0  0  0  0  0  0  0  0
   36.8316   27.6676   43.5811 H   0  0  0  0  0  0  0  0  0  0  0  0
   38.0595   28.4891   44.6785 H   0  0  0  0  0  0  0  0  0  0  0  0
   39.9101   29.8602   43.3605 H   0  0  0  0  0  0  0  0  0  0  0  0
   35.9894   28.9476   41.8559 H   0  0  0  0  0  0  0  0  0  0  0  0
   38.1057   33.4615   40.6017 H   0  0  0  0  0  0  0  0  0  0  0  0
   39.0137   32.4553   39.4228 H   0  0  0  0  0  0  0  0  0  0  0  0
   37.2175   32.4378   39.4228 H   0  0  0  0  0  0  0  0  0  0  0  0
  1 11  1  0
  1  2  2  0
  3  2  1  0
  4  3  2  0
  5 10  2  0
  5  4  1  0
  6  5  1  0
  7  8  1  0
  7  6  2  0
  8  9  2  0
  9 10  1  0
 10  1  1  0
 12 13  2  0
 13 11  1  0
 14 13  1  0
 15 14  2  0
 16 15  1  0
 16 17  2  0
 17 12  1  0
 18 16  1  0
  2 19  1  0
  3 20  1  0
  4 21  1  0
  6 22  1  0
  7 23  1  0
  8 24  1  0
  9 25  1  0
 11 26  1  0
 11 27  1  0
 12 28  1  0
 14 29  1  0
 18 30  1  0
 18 31  1  0
 18 32  1  0
M  ISO  8  19  14  20  14  21  14  22  14  23  14  24  14  25  14  26   8
M  ISO  6  27   8  28  14  29  14  30   8  31   8  32   8
M  END
>  <minimizedAffinity>  (1) 
-5.83181334

>  <minimizedRMSD>  (1) 
0.0610036999

$$$$
