
     RDKit          3D

 31 33  0  0  0  0  0  0  0  0999 V2000
   38.8130   27.0120   43.4410 C   0  0  0  0  0  0  0  0  0  0  0  0
   40.1230   27.0550   43.9370 C   0  0  0  0  0  0  0  0  0  0  0  0
   40.9950   26.0180   43.7050 C   0  0  0  0  0  0  0  0  0  0  0  0
   40.5700   24.9260   42.9760 C   0  0  0  0  0  0  0  0  0  0  0  0
   39.2830   24.8710   42.4810 C   0  0  0  0  0  0  0  0  0  0  0  0
   38.8370   23.7780   41.7480 C   0  0  0  0  0  0  0  0  0  0  0  0
   37.5730   23.7240   41.2650 C   0  0  0  0  0  0  0  0  0  0  0  0
   36.6690   24.7490   41.4780 C   0  0  0  0  0  0  0  0  0  0  0  0
   37.1390   25.8360   42.2180 C   0  0  0  0  0  0  0  0  0  0  0  0
   38.4070   25.9260   42.7220 C   0  0  0  0  0  0  0  0  0  0  0  0
   37.8570   28.0940   43.6670 C   0  0  0  0  0  0  0  0  0  0  0  0
   39.1100   30.0690   42.7090 C   0  0  0  0  0  0  0  0  0  0  0  0
   37.9780   29.2490   42.7500 C   0  0  0  0  0  0  0  0  0  0  0  0
   36.9540   29.5840   41.8720 C   0  0  0  0  0  0  0  0  0  0  0  0
   37.1040   30.6430   41.0600 N   0  0  0  0  0  0  0  0  0  0  0  0
   38.1990   31.3990   41.0520 C   0  0  0  0  0  0  0  0  0  0  0  0
   39.2240   31.1060   41.8940 N   0  0  0  0  0  0  0  0  0  0  0  0
   38.1620   32.4820   40.1110 N   0  0  0  0  0  0  0  0  0  0  0  0
   40.4568   27.9274   44.5179 H   0  0  0  0  0  0  0  0  0  0  0  0
   42.0221   26.0582   44.0968 H   0  0  0  0  0  0  0  0  0  0  0  0
   41.2628   24.0926   42.7879 H   0  0  0  0  0  0  0  0  0  0  0  0
   39.5239   22.9405   41.5564 H   0  0  0  0  0  0  0  0  0  0  0  0
   37.2570   22.8422   40.6884 H   0  0  0  0  0  0  0  0  0  0  0  0
   35.6413   24.7102   41.0878 H   0  0  0  0  0  0  0  0  0  0  0  0
   36.4474   26.6703   42.4069 H   0  0  0  0  0  0  0  0  0  0  0  0
   36.8437   27.6797   43.5593 H   0  0  0  0  0  0  0  0  0  0  0  0
   38.0708   28.4823   44.6737 H   0  0  0  0  0  0  0  0  0  0  0  0
   39.9461   29.8414   43.3866 H   0  0  0  0  0  0  0  0  0  0  0  0
   36.0301   28.9877   41.8425 H   0  0  0  0  0  0  0  0  0  0  0  0
   38.9645   33.1228   40.0315 H   0  0  0  0  0  0  0  0  0  0  0  0
   37.3330   32.6185   39.5152 H   0  0  0  0  0  0  0  0  0  0  0  0
  1 11  1  0
  1  2  2  0
  3  2  1  0
  4  3  2  0
  5 10  2  0
  5  4  1  0
  6  5  1  0
  7  8  1  0
  7  6  2  0
  8  9  2  0
  9 10  1  0
 10  1  1  0
 12 13  2  0
 13 11  1  0
 14 13  1  0
 15 14  2  0
 16 15  1  0
 16 17  2  0
 17 12  1  0
 18 16  1  0
  2 19  1  0
  3 20  1  0
  4 21  1  0
  6 22  1  0
  7 23  1  0
  8 24  1  0
  9 25  1  0
 11 26  1  0
 11 27  1  0
 12 28  1  0
 14 29  1  0
 18 30  1  0
 18 31  1  0
M  ISO  8  19  14  20  14  21  14  22  14  23  14  24  14  25  14  26   8
M  ISO  3  27   8  28  14  29  14
M  END
>  <minimizedAffinity>  (1) 
-5.78197527

>  <minimizedRMSD>  (1) 
0.0316261612

$$$$
