
     RDKit          3D

 30 32  0  0  0  0  0  0  0  0999 V2000
   38.8210   27.0190   43.4420 C   0  0  0  0  0  0  0  0  0  0  0  0
   40.1290   27.0600   43.9390 C   0  0  0  0  0  0  0  0  0  0  0  0
   40.9990   26.0200   43.7090 C   0  0  0  0  0  0  0  0  0  0  0  0
   40.5680   24.9240   42.9780 C   0  0  0  0  0  0  0  0  0  0  0  0
   39.2820   24.8700   42.4840 C   0  0  0  0  0  0  0  0  0  0  0  0
   38.8380   23.7810   41.7570 C   0  0  0  0  0  0  0  0  0  0  0  0
   37.5740   23.7270   41.2750 C   0  0  0  0  0  0  0  0  0  0  0  0
   36.6690   24.7560   41.4850 C   0  0  0  0  0  0  0  0  0  0  0  0
   37.1420   25.8430   42.2210 C   0  0  0  0  0  0  0  0  0  0  0  0
   38.4120   25.9310   42.7230 C   0  0  0  0  0  0  0  0  0  0  0  0
   37.8630   28.1030   43.6620 C   0  0  0  0  0  0  0  0  0  0  0  0
   39.1240   30.0810   42.6940 C   0  0  0  0  0  0  0  0  0  0  0  0
   37.9940   29.2560   42.7370 C   0  0  0  0  0  0  0  0  0  0  0  0
   36.9730   29.5780   41.8480 C   0  0  0  0  0  0  0  0  0  0  0  0
   37.1260   30.6270   41.0270 N   0  0  0  0  0  0  0  0  0  0  0  0
   38.2150   31.3880   41.0170 C   0  0  0  0  0  0  0  0  0  0  0  0
   39.2360   31.1140   41.8630 N   0  0  0  0  0  0  0  0  0  0  0  0
   38.3450   32.4690   40.1530 O   0  0  0  0  0  0  0  0  0  0  0  0
   40.4642   27.9324   44.5191 H   0  0  0  0  0  0  0  0  0  0  0  0
   42.0261   26.0575   44.1010 H   0  0  0  0  0  0  0  0  0  0  0  0
   41.2589   24.0890   42.7902 H   0  0  0  0  0  0  0  0  0  0  0  0
   39.5245   22.9429   41.5667 H   0  0  0  0  0  0  0  0  0  0  0  0
   37.2567   22.8434   40.7017 H   0  0  0  0  0  0  0  0  0  0  0  0
   35.6411   24.7179   41.0953 H   0  0  0  0  0  0  0  0  0  0  0  0
   36.4527   26.6794   42.4090 H   0  0  0  0  0  0  0  0  0  0  0  0
   36.8496   27.6901   43.5505 H   0  0  0  0  0  0  0  0  0  0  0  0
   38.0683   28.4936   44.6696 H   0  0  0  0  0  0  0  0  0  0  0  0
   39.9576   29.8654   43.3786 H   0  0  0  0  0  0  0  0  0  0  0  0
   36.0510   28.9788   41.8191 H   0  0  0  0  0  0  0  0  0  0  0  0
   39.1684   33.0185   40.1680 H   0  0  0  0  0  0  0  0  0  0  0  0
  1 11  1  0
  1  2  2  0
  3  2  1  0
  4  3  2  0
  5 10  2  0
  5  4  1  0
  6  5  1  0
  7  8  1  0
  7  6  2  0
  8  9  2  0
  9 10  1  0
 10  1  1  0
 12 13  2  0
 13 11  1  0
 14 13  1  0
 15 14  2  0
 16 15  1  0
 16 17  2  0
 17 12  1  0
 18 16  1  0
  2 19  1  0
  3 20  1  0
  4 21  1  0
  6 22  1  0
  7 23  1  0
  8 24  1  0
  9 25  1  0
 11 26  1  0
 11 27  1  0
 12 28  1  0
 14 29  1  0
 18 30  1  0
M  ISO  8  19  14  20  14  21  14  22  14  23  14  24  14  25  14  26   8
M  ISO  4  27   8  28  14  29  14  30   3
M  END
>  <minimizedAffinity>  (1) 
-5.76102209

>  <minimizedRMSD>  (1) 
0.0127560049

$$$$
