
     RDKit          3D

 36 39  0  0  0  0  0  0  0  0999 V2000
   37.4370   28.2030   43.0320 C   0  0  0  0  0  0  0  0  0  0  0  0
   38.3250   27.0410   43.0520 C   0  0  0  0  0  0  0  0  0  0  0  0
   39.4240   26.9490   43.9150 C   0  0  0  0  0  0  0  0  0  0  0  0
   40.2350   25.8390   43.9070 C   0  0  0  0  0  0  0  0  0  0  0  0
   39.9570   24.8050   43.0330 C   0  0  0  0  0  0  0  0  0  0  0  0
   38.8870   24.8800   42.1840 C   0  0  0  0  0  0  0  0  0  0  0  0
   38.5930   23.8440   41.3000 C   0  0  0  0  0  0  0  0  0  0  0  0
   37.5270   23.9230   40.4590 C   0  0  0  0  0  0  0  0  0  0  0  0
   36.6850   25.0270   40.4360 C   0  0  0  0  0  0  0  0  0  0  0  0
   37.0020   26.0490   41.3320 C   0  0  0  0  0  0  0  0  0  0  0  0
   38.0630   26.0090   42.1930 C   0  0  0  0  0  0  0  0  0  0  0  0
   39.2380   29.9740   42.9180 C   0  0  0  0  0  0  0  0  0  0  0  0
   38.0320   29.4400   42.4740 C   0  0  0  0  0  0  0  0  0  0  0  0
   37.3940   30.1470   41.4560 C   0  0  0  0  0  0  0  0  0  0  0  0
   37.9640   31.2650   40.9810 N   0  0  0  0  0  0  0  0  0  0  0  0
   39.1200   31.7420   41.4340 C   0  0  0  0  0  0  0  0  0  0  0  0
   39.7690   31.0850   42.4220 N   0  0  0  0  0  0  0  0  0  0  0  0
   39.5620   32.9380   40.8050 N   0  0  0  0  0  0  0  0  0  0  0  0
   40.6760   33.3250   40.2250 N   0  0  0  0  0  0  0  0  0  0  0  0
   40.5490   34.6050   39.7850 C   0  0  0  0  0  0  0  0  0  0  0  0
   39.2720   35.0250   40.1210 C   0  0  0  0  0  0  0  0  0  0  0  0
   38.6710   33.9550   40.7630 C   0  0  0  0  0  0  0  0  0  0  0  0
   36.5544   27.9469   42.4276 H   0  0  0  0  0  0  0  0  0  0  0  0
   37.1994   28.4247   44.0829 H   0  0  0  0  0  0  0  0  0  0  0  0
   39.6411   27.7752   44.6080 H   0  0  0  0  0  0  0  0  0  0  0  0
   41.0958   25.7745   44.5888 H   0  0  0  0  0  0  0  0  0  0  0  0
   40.6018   23.9139   43.0200 H   0  0  0  0  0  0  0  0  0  0  0  0
   39.2324   22.9491   41.2820 H   0  0  0  0  0  0  0  0  0  0  0  0
   37.3254   23.0854   39.7750 H   0  0  0  0  0  0  0  0  0  0  0  0
   35.8234   25.0919   39.7552 H   0  0  0  0  0  0  0  0  0  0  0  0
   36.3588   26.9412   41.3462 H   0  0  0  0  0  0  0  0  0  0  0  0
   39.7782   29.4494   43.7199 H   0  0  0  0  0  0  0  0  0  0  0  0
   36.4360   29.7931   41.0475 H   0  0  0  0  0  0  0  0  0  0  0  0
   41.3151   35.1956   39.2613 H   0  0  0  0  0  0  0  0  0  0  0  0
   38.8256   36.0098   39.9186 H   0  0  0  0  0  0  0  0  0  0  0  0
   37.6484   33.9356   41.1678 H   0  0  0  0  0  0  0  0  0  0  0  0
  1  2  1  0
  2  3  2  0
  4  3  1  0
  5  4  2  0
  6 11  2  0
  6  5  1  0
  7  6  1  0
  8  7  2  0
  9  8  1  0
  9 10  2  0
 10 11  1  0
 11  2  1  0
 13 12  2  0
 13  1  1  0
 14 13  1  0
 15 16  1  0
 15 14  2  0
 16 17  2  0
 17 12  1  0
 18 16  1  0
 19 18  1  0
 20 21  1  0
 20 19  2  0
 21 22  2  0
 22 18  1  0
  1 23  1  0
  1 24  1  0
  3 25  1  0
  4 26  1  0
  5 27  1  0
  7 28  1  0
  8 29  1  0
  9 30  1  0
 10 31  1  0
 12 32  1  0
 14 33  1  0
 20 34  1  0
 21 35  1  0
 22 36  1  0
M  ISO  8  23   8  24   8  25  14  26  14  27  14  28  14  29  14  30  14
M  ISO  6  31  14  32  14  33  14  34  14  35  14  36  14
M  END
>  <minimizedAffinity>  (1) 
-6.87565231

>  <minimizedRMSD>  (1) 
1.20702612

$$$$
