
     RDKit          3D

 45 48  0  0  0  0  0  0  0  0999 V2000
   37.4850   28.0970   43.2400 C   0  0  0  0  0  0  0  0  0  0  0  0
   38.3770   26.9630   43.1420 C   0  0  0  0  0  0  0  0  0  0  0  0
   39.5230   26.9080   43.9440 C   0  0  0  0  0  0  0  0  0  0  0  0
   40.3910   25.8470   43.8840 C   0  0  0  0  0  0  0  0  0  0  0  0
   40.1060   24.8100   42.9970 C   0  0  0  0  0  0  0  0  0  0  0  0
   38.9940   24.8560   42.2160 C   0  0  0  0  0  0  0  0  0  0  0  0
   38.6920   23.8080   41.3370 C   0  0  0  0  0  0  0  0  0  0  0  0
   37.5690   23.8490   40.5690 C   0  0  0  0  0  0  0  0  0  0  0  0
   36.6800   24.9140   40.6150 C   0  0  0  0  0  0  0  0  0  0  0  0
   37.0020   25.9550   41.5020 C   0  0  0  0  0  0  0  0  0  0  0  0
   38.1150   25.9330   42.2780 C   0  0  0  0  0  0  0  0  0  0  0  0
   37.1200   29.9900   41.6810 C   0  0  0  0  0  0  0  0  0  0  0  0
   37.9230   29.3540   42.6000 C   0  0  0  0  0  0  0  0  0  0  0  0
   39.1480   29.9720   42.8570 C   0  0  0  0  0  0  0  0  0  0  0  0
   39.4530   31.1080   42.2140 N   0  0  0  0  0  0  0  0  0  0  0  0
   38.6500   31.6830   41.3390 C   0  0  0  0  0  0  0  0  0  0  0  0
   37.4420   31.1220   41.0500 N   0  0  0  0  0  0  0  0  0  0  0  0
   39.1550   32.8850   40.7570 N   0  0  0  0  0  0  0  0  0  0  0  0
   38.6990   34.1070   40.6200 N   0  0  0  0  0  0  0  0  0  0  0  0
   39.6080   34.8700   39.9790 C   0  0  0  0  0  0  0  0  0  0  0  0
   40.6880   34.0630   39.7070 C   0  0  0  0  0  0  0  0  0  0  0  0
   40.3900   32.8030   40.2050 C   0  0  0  0  0  0  0  0  0  0  0  0
   41.4320   31.7420   40.0220 C   0  0  0  0  0  0  0  0  0  0  0  0
   40.8550   30.4490   39.5560 C   0  0  0  0  0  0  0  0  0  0  0  0
   42.2040   31.5010   41.3000 C   0  0  0  0  0  0  0  0  0  0  0  0
   36.5284   27.8070   42.7808 H   0  0  0  0  0  0  0  0  0  0  0  0
   37.4338   28.3272   44.3144 H   0  0  0  0  0  0  0  0  0  0  0  0
   39.7326   27.7348   44.6386 H   0  0  0  0  0  0  0  0  0  0  0  0
   41.2884   25.8155   44.5193 H   0  0  0  0  0  0  0  0  0  0  0  0
   40.7859   23.9480   42.9284 H   0  0  0  0  0  0  0  0  0  0  0  0
   39.3688   22.9437   41.2667 H   0  0  0  0  0  0  0  0  0  0  0  0
   37.3589   23.0101   39.8892 H   0  0  0  0  0  0  0  0  0  0  0  0
   35.7740   24.9415   39.9918 H   0  0  0  0  0  0  0  0  0  0  0  0
   36.3264   26.8204   41.5700 H   0  0  0  0  0  0  0  0  0  0  0  0
   36.1457   29.5345   41.4503 H   0  0  0  0  0  0  0  0  0  0  0  0
   39.8536   29.5327   43.5775 H   0  0  0  0  0  0  0  0  0  0  0  0
   39.5051   35.9348   39.7226 H   0  0  0  0  0  0  0  0  0  0  0  0
   41.6133   34.3605   39.1919 H   0  0  0  0  0  0  0  0  0  0  0  0
   42.1117   32.1206   39.2444 H   0  0  0  0  0  0  0  0  0  0  0  0
   40.5809   29.8349   40.4265 H   0  0  0  0  0  0  0  0  0  0  0  0
   39.9589   30.6450   38.9488 H   0  0  0  0  0  0  0  0  0  0  0  0
   41.5993   29.9130   38.9488 H   0  0  0  0  0  0  0  0  0  0  0  0
   41.5546   31.7037   42.1644 H   0  0  0  0  0  0  0  0  0  0  0  0
   42.5418   30.4547   41.3326 H   0  0  0  0  0  0  0  0  0  0  0  0
   43.0771   32.1693   41.3326 H   0  0  0  0  0  0  0  0  0  0  0  0
  2  1  1  0
  2  3  2  0
  4  3  1  0
  5  4  2  0
  6 11  2  0
  6  5  1  0
  7  6  1  0
  8  9  1  0
  8  7  2  0
  9 10  2  0
 10 11  1  0
 11  2  1  0
 12 13  2  0
 13 14  1  0
 13  1  1  0
 15 14  2  0
 16 15  1  0
 17 16  2  0
 17 12  1  0
 18 16  1  0
 19 18  1  0
 20 19  2  0
 21 20  1  0
 21 22  2  0
 22 18  1  0
 23 22  1  0
 23 25  1  0
 24 23  1  0
  1 26  1  0
  1 27  1  0
  3 28  1  0
  4 29  1  0
  5 30  1  0
  7 31  1  0
  8 32  1  0
  9 33  1  0
 10 34  1  0
 12 35  1  0
 14 36  1  0
 20 37  1  0
 21 38  1  0
 23 39  1  0
 24 40  1  0
 24 41  1  0
 24 42  1  0
 25 43  1  0
 25 44  1  0
 25 45  1  0
M  ISO  8  26   8  27   8  28  14  29  14  30  14  31  14  32  14  33  14
M  ISO  8  34  14  35  14  36  14  37  14  38  14  39   8  40   8  41   8
M  ISO  4  42   8  43   8  44   8  45   8
M  END
>  <minimizedAffinity>  (1) 
-6.87058258

>  <minimizedRMSD>  (1) 
2.33064103

$$$$
