
     RDKit          3D

 43 47  0  0  0  0  0  0  0  0999 V2000
   37.6080   28.0330   43.3340 C   0  0  0  0  0  0  0  0  0  0  0  0
   38.5060   26.9100   43.1920 C   0  0  0  0  0  0  0  0  0  0  0  0
   39.7000   26.8780   43.9240 C   0  0  0  0  0  0  0  0  0  0  0  0
   40.5780   25.8280   43.8220 C   0  0  0  0  0  0  0  0  0  0  0  0
   40.2550   24.7740   42.9670 C   0  0  0  0  0  0  0  0  0  0  0  0
   39.1000   24.7900   42.2530 C   0  0  0  0  0  0  0  0  0  0  0  0
   38.7460   23.7400   41.4070 C   0  0  0  0  0  0  0  0  0  0  0  0
   37.5890   23.7510   40.7110 C   0  0  0  0  0  0  0  0  0  0  0  0
   36.6860   24.8100   40.7990 C   0  0  0  0  0  0  0  0  0  0  0  0
   37.0460   25.8670   41.6530 C   0  0  0  0  0  0  0  0  0  0  0  0
   38.2060   25.8630   42.3560 C   0  0  0  0  0  0  0  0  0  0  0  0
   37.2140   29.8810   41.7220 C   0  0  0  0  0  0  0  0  0  0  0  0
   38.0110   29.2980   42.6800 C   0  0  0  0  0  0  0  0  0  0  0  0
   39.1970   29.9730   42.9670 C   0  0  0  0  0  0  0  0  0  0  0  0
   39.4770   31.1070   42.3140 N   0  0  0  0  0  0  0  0  0  0  0  0
   38.6860   31.6360   41.4010 C   0  0  0  0  0  0  0  0  0  0  0  0
   37.5160   31.0160   41.0840 N   0  0  0  0  0  0  0  0  0  0  0  0
   39.1500   32.8440   40.8080 N   0  0  0  0  0  0  0  0  0  0  0  0
   38.6440   34.0290   40.6090 N   0  0  0  0  0  0  0  0  0  0  0  0
   39.5630   34.8150   39.9700 C   0  0  0  0  0  0  0  0  0  0  0  0
   40.6910   34.0540   39.7720 C   0  0  0  0  0  0  0  0  0  0  0  0
   40.4050   32.8110   40.3110 C   0  0  0  0  0  0  0  0  0  0  0  0
   41.4510   31.7280   40.2570 C   0  0  0  0  0  0  0  0  0  0  0  0
   42.4870   31.7920   39.1940 C   0  0  0  0  0  0  0  0  0  0  0  0
   41.4190   30.7690   39.1030 C   0  0  0  0  0  0  0  0  0  0  0  0
   36.6356   27.7365   42.9138 H   0  0  0  0  0  0  0  0  0  0  0  0
   37.5965   28.2573   44.4108 H   0  0  0  0  0  0  0  0  0  0  0  0
   39.9397   27.7146   44.5968 H   0  0  0  0  0  0  0  0  0  0  0  0
   41.5136   25.8178   44.4004 H   0  0  0  0  0  0  0  0  0  0  0  0
   40.9430   23.9212   42.8702 H   0  0  0  0  0  0  0  0  0  0  0  0
   39.4259   22.8815   41.3040 H   0  0  0  0  0  0  0  0  0  0  0  0
   37.3519   22.9000   40.0556 H   0  0  0  0  0  0  0  0  0  0  0  0
   35.7438   24.8178   40.2314 H   0  0  0  0  0  0  0  0  0  0  0  0
   36.3651   26.7249   41.7544 H   0  0  0  0  0  0  0  0  0  0  0  0
   36.2683   29.3814   41.4648 H   0  0  0  0  0  0  0  0  0  0  0  0
   39.8939   29.5781   43.7210 H   0  0  0  0  0  0  0  0  0  0  0  0
   39.4250   35.8641   39.6694 H   0  0  0  0  0  0  0  0  0  0  0  0
   41.6267   34.3677   39.2861 H   0  0  0  0  0  0  0  0  0  0  0  0
   41.4648   31.6350   41.3530 H   0  0  0  0  0  0  0  0  0  0  0  0
   42.4978   32.6369   38.4897 H   0  0  0  0  0  0  0  0  0  0  0  0
   43.5866   31.7650   39.1832 H   0  0  0  0  0  0  0  0  0  0  0  0
   40.6361   30.8570   38.3354 H   0  0  0  0  0  0  0  0  0  0  0  0
   41.3954   29.6741   39.0001 H   0  0  0  0  0  0  0  0  0  0  0  0
  2  1  1  0
  2  3  2  0
  4  3  1  0
  5  4  2  0
  6 11  2  0
  6  5  1  0
  7  6  1  0
  8  9  1  0
  8  7  2  0
  9 10  2  0
 10 11  1  0
 11  2  1  0
 12 13  2  0
 13 14  1  0
 13  1  1  0
 15 14  2  0
 16 15  1  0
 17 16  2  0
 17 12  1  0
 18 16  1  0
 19 18  1  0
 20 19  2  0
 21 20  1  0
 21 22  2  0
 22 18  1  0
 23 22  1  0
 24 23  1  0
 25 24  1  0
 25 23  1  0
  1 26  1  0
  1 27  1  0
  3 28  1  0
  4 29  1  0
  5 30  1  0
  7 31  1  0
  8 32  1  0
  9 33  1  0
 10 34  1  0
 12 35  1  0
 14 36  1  0
 20 37  1  0
 21 38  1  0
 23 39  1  0
 24 40  1  0
 24 41  1  0
 25 42  1  0
 25 43  1  0
M  ISO  8  26   8  27   8  28  14  29  14  30  14  31  14  32  14  33  14
M  ISO  8  34  14  35  14  36  14  37  14  38  14  39  13  40  13  41  13
M  ISO  2  42  13  43  13
M  END
>  <minimizedAffinity>  (1) 
-6.84028196

>  <minimizedRMSD>  (1) 
2.38245797

$$$$
