
     RDKit          3D

 38 41  0  0  0  0  0  0  0  0999 V2000
   37.4970   28.0650   43.2720 C   0  0  0  0  0  0  0  0  0  0  0  0
   38.4090   26.9460   43.1740 C   0  0  0  0  0  0  0  0  0  0  0  0
   39.5810   26.9360   43.9380 C   0  0  0  0  0  0  0  0  0  0  0  0
   40.4700   25.8920   43.8780 C   0  0  0  0  0  0  0  0  0  0  0  0
   40.1780   24.8240   43.0300 C   0  0  0  0  0  0  0  0  0  0  0  0
   39.0440   24.8170   42.2830 C   0  0  0  0  0  0  0  0  0  0  0  0
   38.7280   23.7510   41.4450 C   0  0  0  0  0  0  0  0  0  0  0  0
   37.5830   23.7460   40.7130 C   0  0  0  0  0  0  0  0  0  0  0  0
   36.6690   24.8000   40.7590 C   0  0  0  0  0  0  0  0  0  0  0  0
   37.0000   25.8700   41.6080 C   0  0  0  0  0  0  0  0  0  0  0  0
   38.1400   25.8860   42.3460 C   0  0  0  0  0  0  0  0  0  0  0  0
   37.0890   29.9570   41.7170 C   0  0  0  0  0  0  0  0  0  0  0  0
   37.9120   29.3240   42.6220 C   0  0  0  0  0  0  0  0  0  0  0  0
   39.1380   29.9510   42.8550 C   0  0  0  0  0  0  0  0  0  0  0  0
   39.4240   31.0870   42.2060 N   0  0  0  0  0  0  0  0  0  0  0  0
   38.6060   31.6600   41.3460 C   0  0  0  0  0  0  0  0  0  0  0  0
   37.3960   31.0910   41.0820 N   0  0  0  0  0  0  0  0  0  0  0  0
   39.0940   32.8550   40.7540 N   0  0  0  0  0  0  0  0  0  0  0  0
   38.6240   34.0740   40.6200 N   0  0  0  0  0  0  0  0  0  0  0  0
   39.5300   34.8410   39.9460 C   0  0  0  0  0  0  0  0  0  0  0  0
   40.6060   34.0410   39.6600 C   0  0  0  0  0  0  0  0  0  0  0  0
   40.2990   32.7990   40.1810 C   0  0  0  0  0  0  0  0  0  0  0  0
   41.2670   31.7240   40.0220 C   0  0  0  0  0  0  0  0  0  0  0  0
   41.3000   30.7330   39.2590 O   0  0  0  0  0  0  0  0  0  0  0  0
   36.5428   27.7565   42.8200 H   0  0  0  0  0  0  0  0  0  0  0  0
   37.4457   28.2999   44.3454 H   0  0  0  0  0  0  0  0  0  0  0  0
   39.7952   27.7856   44.6030 H   0  0  0  0  0  0  0  0  0  0  0  0
   41.3887   25.8975   44.4829 H   0  0  0  0  0  0  0  0  0  0  0  0
   40.8756   23.9760   42.9654 H   0  0  0  0  0  0  0  0  0  0  0  0
   39.4178   22.8971   41.3741 H   0  0  0  0  0  0  0  0  0  0  0  0
   37.3697   22.8841   40.0637 H   0  0  0  0  0  0  0  0  0  0  0  0
   35.7431   24.7935   40.1651 H   0  0  0  0  0  0  0  0  0  0  0  0
   36.3113   26.7249   41.6772 H   0  0  0  0  0  0  0  0  0  0  0  0
   36.1128   29.4974   41.5028 H   0  0  0  0  0  0  0  0  0  0  0  0
   39.8597   29.5172   43.5628 H   0  0  0  0  0  0  0  0  0  0  0  0
   39.4177   35.9028   39.6817 H   0  0  0  0  0  0  0  0  0  0  0  0
   41.5238   34.3286   39.1262 H   0  0  0  0  0  0  0  0  0  0  0  0
   42.1309   31.7962   40.6990 H   0  0  0  0  0  0  0  0  0  0  0  0
  2  1  1  0
  2  3  2  0
  4  3  1  0
  5  4  2  0
  6 11  2  0
  6  5  1  0
  7  6  1  0
  8  9  1  0
  8  7  2  0
  9 10  2  0
 10 11  1  0
 11  2  1  0
 12 13  2  0
 13 14  1  0
 13  1  1  0
 15 14  2  0
 16 15  1  0
 17 16  2  0
 17 12  1  0
 18 16  1  0
 19 18  1  0
 20 19  2  0
 21 20  1  0
 21 22  2  0
 22 18  1  0
 23 22  1  0
 24 23  2  0
  1 25  1  0
  1 26  1  0
  3 27  1  0
  4 28  1  0
  5 29  1  0
  7 30  1  0
  8 31  1  0
  9 32  1  0
 10 33  1  0
 12 34  1  0
 14 35  1  0
 20 36  1  0
 21 37  1  0
 23 38  1  0
M  ISO  8  25   8  26   8  27  14  28  14  29  14  30  14  31  14  32  14
M  ISO  6  33  14  34  14  35  14  36  14  37  14  38   6
M  END
>  <minimizedAffinity>  (1) 
-6.78159571

>  <minimizedRMSD>  (1) 
1.99213266

$$$$
