
     RDKit          3D

 39 42  0  0  0  0  0  0  0  0999 V2000
   37.5530   28.0690   42.7790 C   0  0  0  0  0  0  0  0  0  0  0  0
   38.3200   26.8450   42.8340 C   0  0  0  0  0  0  0  0  0  0  0  0
   39.3900   26.7380   43.7330 C   0  0  0  0  0  0  0  0  0  0  0  0
   40.1430   25.5940   43.8200 C   0  0  0  0  0  0  0  0  0  0  0  0
   39.8180   24.5230   42.9880 C   0  0  0  0  0  0  0  0  0  0  0  0
   38.7730   24.6180   42.1090 C   0  0  0  0  0  0  0  0  0  0  0  0
   38.4320   23.5450   41.2870 C   0  0  0  0  0  0  0  0  0  0  0  0
   37.3840   23.6380   40.4260 C   0  0  0  0  0  0  0  0  0  0  0  0
   36.6120   24.7900   40.3230 C   0  0  0  0  0  0  0  0  0  0  0  0
   36.9750   25.8570   41.1610 C   0  0  0  0  0  0  0  0  0  0  0  0
   38.0170   25.7830   42.0270 C   0  0  0  0  0  0  0  0  0  0  0  0
   39.0650   30.0180   43.0860 C   0  0  0  0  0  0  0  0  0  0  0  0
   38.2450   29.2700   42.2680 C   0  0  0  0  0  0  0  0  0  0  0  0
   38.1190   29.7360   40.9580 C   0  0  0  0  0  0  0  0  0  0  0  0
   38.7810   30.8420   40.5920 N   0  0  0  0  0  0  0  0  0  0  0  0
   39.5570   31.5280   41.4080 C   0  0  0  0  0  0  0  0  0  0  0  0
   39.7140   31.1170   42.6980 N   0  0  0  0  0  0  0  0  0  0  0  0
   40.1760   32.6810   40.8430 N   0  0  0  0  0  0  0  0  0  0  0  0
   41.3980   33.1310   40.7640 N   0  0  0  0  0  0  0  0  0  0  0  0
   41.4090   34.3170   40.0980 C   0  0  0  0  0  0  0  0  0  0  0  0
   40.1120   34.6040   39.7510 C   0  0  0  0  0  0  0  0  0  0  0  0
   39.3320   33.5540   40.2310 C   0  0  0  0  0  0  0  0  0  0  0  0
   37.8420   33.5530   40.0190 C   0  0  0  0  0  0  0  0  0  0  0  0
   36.6825   27.8867   42.1317 H   0  0  0  0  0  0  0  0  0  0  0  0
   37.3104   28.3022   43.8263 H   0  0  0  0  0  0  0  0  0  0  0  0
   39.6318   27.5910   44.3841 H   0  0  0  0  0  0  0  0  0  0  0  0
   40.9818   25.5236   44.5281 H   0  0  0  0  0  0  0  0  0  0  0  0
   40.4060   23.5947   43.0385 H   0  0  0  0  0  0  0  0  0  0  0  0
   39.0164   22.6143   41.3355 H   0  0  0  0  0  0  0  0  0  0  0  0
   37.1389   22.7743   39.7905 H   0  0  0  0  0  0  0  0  0  0  0  0
   35.7650   24.8615   39.6248 H   0  0  0  0  0  0  0  0  0  0  0  0
   36.3921   26.7886   41.1135 H   0  0  0  0  0  0  0  0  0  0  0  0
   39.1924   29.6867   44.1272 H   0  0  0  0  0  0  0  0  0  0  0  0
   37.4843   29.2020   40.2355 H   0  0  0  0  0  0  0  0  0  0  0  0
   42.2937   34.9325   39.8780 H   0  0  0  0  0  0  0  0  0  0  0  0
   39.7582   35.4890   39.2019 H   0  0  0  0  0  0  0  0  0  0  0  0
   37.3329   33.5527   40.9941 H   0  0  0  0  0  0  0  0  0  0  0  0
   37.5514   34.4510   39.4540 H   0  0  0  0  0  0  0  0  0  0  0  0
   37.5526   32.6547   39.4540 H   0  0  0  0  0  0  0  0  0  0  0  0
  1  2  1  0
  2  3  2  0
  3  4  1  0
  5  4  2  0
  6  5  1  0
  7  6  2  0
  8  7  1  0
  9  8  2  0
  9 10  1  0
 10 11  2  0
 11  6  1  0
 11  2  1  0
 13  1  1  0
 13 12  2  0
 14 13  1  0
 15 14  2  0
 15 16  1  0
 16 17  2  0
 17 12  1  0
 18 16  1  0
 19 18  1  0
 20 19  2  0
 21 20  1  0
 21 22  2  0
 22 18  1  0
 23 22  1  0
  1 24  1  0
  1 25  1  0
  3 26  1  0
  4 27  1  0
  5 28  1  0
  7 29  1  0
  8 30  1  0
  9 31  1  0
 10 32  1  0
 12 33  1  0
 14 34  1  0
 20 35  1  0
 21 36  1  0
 23 37  1  0
 23 38  1  0
 23 39  1  0
M  ISO  8  24   8  25   8  26  14  27  14  28  14  29  14  30  14  31  14
M  ISO  8  32  14  33  14  34  14  35  14  36  14  37   8  38   8  39   8
M  END
>  <minimizedAffinity>  (1) 
-6.77875948

>  <minimizedRMSD>  (1) 
0.650631607

$$$$
