
     RDKit          3D

 37 40  0  0  0  0  0  0  0  0999 V2000
   37.5970   28.0950   42.7640 C   0  0  0  0  0  0  0  0  0  0  0  0
   38.3490   26.8630   42.8280 C   0  0  0  0  0  0  0  0  0  0  0  0
   39.4120   26.7400   43.7300 C   0  0  0  0  0  0  0  0  0  0  0  0
   40.1460   25.5830   43.8210 C   0  0  0  0  0  0  0  0  0  0  0  0
   39.8080   24.5160   42.9880 C   0  0  0  0  0  0  0  0  0  0  0  0
   38.7770   24.6210   42.1100 C   0  0  0  0  0  0  0  0  0  0  0  0
   38.4200   23.5560   41.2860 C   0  0  0  0  0  0  0  0  0  0  0  0
   37.3770   23.6610   40.4220 C   0  0  0  0  0  0  0  0  0  0  0  0
   36.6220   24.8240   40.3130 C   0  0  0  0  0  0  0  0  0  0  0  0
   36.9970   25.8880   41.1490 C   0  0  0  0  0  0  0  0  0  0  0  0
   38.0490   25.8020   42.0340 C   0  0  0  0  0  0  0  0  0  0  0  0
   39.0950   30.0550   43.0860 C   0  0  0  0  0  0  0  0  0  0  0  0
   38.3090   29.2860   42.2550 C   0  0  0  0  0  0  0  0  0  0  0  0
   38.2370   29.7210   40.9300 C   0  0  0  0  0  0  0  0  0  0  0  0
   38.9140   30.8190   40.5640 N   0  0  0  0  0  0  0  0  0  0  0  0
   39.6540   31.5260   41.3950 C   0  0  0  0  0  0  0  0  0  0  0  0
   39.7590   31.1430   42.6990 N   0  0  0  0  0  0  0  0  0  0  0  0
   40.2980   32.6620   40.8300 N   0  0  0  0  0  0  0  0  0  0  0  0
   41.5210   33.1130   40.7930 N   0  0  0  0  0  0  0  0  0  0  0  0
   41.5560   34.2830   40.0950 C   0  0  0  0  0  0  0  0  0  0  0  0
   40.2730   34.5580   39.6830 C   0  0  0  0  0  0  0  0  0  0  0  0
   39.4810   33.5190   40.1570 C   0  0  0  0  0  0  0  0  0  0  0  0
   37.7130   33.5130   39.8220 S   0  0  0  0  0  0  0  0  0  0  0  0
   36.7295   27.9215   42.1102 H   0  0  0  0  0  0  0  0  0  0  0  0
   37.3476   28.3339   43.8084 H   0  0  0  0  0  0  0  0  0  0  0  0
   39.6654   27.5897   44.3810 H   0  0  0  0  0  0  0  0  0  0  0  0
   40.9801   25.4995   44.5333 H   0  0  0  0  0  0  0  0  0  0  0  0
   40.3827   23.5797   43.0429 H   0  0  0  0  0  0  0  0  0  0  0  0
   38.9906   22.6169   41.3357 H   0  0  0  0  0  0  0  0  0  0  0  0
   37.1214   22.7988   39.7885 H   0  0  0  0  0  0  0  0  0  0  0  0
   35.7787   24.9057   39.6115 H   0  0  0  0  0  0  0  0  0  0  0  0
   36.4279   26.8278   41.0950 H   0  0  0  0  0  0  0  0  0  0  0  0
   39.1796   29.7498   44.1394 H   0  0  0  0  0  0  0  0  0  0  0  0
   37.6321   29.1694   40.1953 H   0  0  0  0  0  0  0  0  0  0  0  0
   42.4479   34.8957   39.8972 H   0  0  0  0  0  0  0  0  0  0  0  0
   39.9403   35.4266   39.0958 H   0  0  0  0  0  0  0  0  0  0  0  0
   37.0239   33.5107   41.0061 H   0  0  0  0  0  0  0  0  0  0  0  0
  1  2  1  0
  2  3  2  0
  3  4  1  0
  5  4  2  0
  6  5  1  0
  7  6  2  0
  8  7  1  0
  9  8  2  0
  9 10  1  0
 10 11  2  0
 11  6  1  0
 11  2  1  0
 13  1  1  0
 13 12  2  0
 14 13  1  0
 15 14  2  0
 15 16  1  0
 16 17  2  0
 17 12  1  0
 18 16  1  0
 19 18  1  0
 20 19  2  0
 21 20  1  0
 21 22  2  0
 22 18  1  0
 23 22  1  0
  1 24  1  0
  1 25  1  0
  3 26  1  0
  4 27  1  0
  5 28  1  0
  7 29  1  0
  8 30  1  0
  9 31  1  0
 10 32  1  0
 12 33  1  0
 14 34  1  0
 20 35  1  0
 21 36  1  0
 23 37  1  0
M  ISO  8  24   8  25   8  26  14  27  14  28  14  29  14  30  14  31  14
M  ISO  6  32  14  33  14  34  14  35  14  36  14  37  11
M  END
>  <minimizedAffinity>  (1) 
-6.66202831

>  <minimizedRMSD>  (1) 
0.745107055

$$$$
