
     RDKit          3D

 46 50  0  0  0  0  0  0  0  0999 V2000
   42.1110   29.9030   40.9610 C   0  0  0  0  0  0  0  0  0  0  0  0
   42.1430   30.1990   42.2940 C   0  0  0  0  0  0  0  0  0  0  0  0
   40.9550   30.7180   42.8230 C   0  0  0  0  0  0  0  0  0  0  0  0
   39.9040   30.8850   42.0130 N   0  0  0  0  0  0  0  0  0  0  0  0
   39.9080   30.5890   40.7370 C   0  0  0  0  0  0  0  0  0  0  0  0
   41.0480   30.0760   40.1650 N   0  0  0  0  0  0  0  0  0  0  0  0
   38.6930   30.8440   40.0410 N   0  0  0  0  0  0  0  0  0  0  0  0
   37.8860   30.1400   39.2920 N   0  0  0  0  0  0  0  0  0  0  0  0
   36.8580   30.8940   38.8810 C   0  0  0  0  0  0  0  0  0  0  0  0
   37.0360   32.1410   39.4040 C   0  0  0  0  0  0  0  0  0  0  0  0
   38.2060   32.1020   40.1430 C   0  0  0  0  0  0  0  0  0  0  0  0
   43.3880   29.9660   43.0590 C   0  0  0  0  0  0  0  0  0  0  0  0
   43.3070   29.1380   44.2260 C   0  0  0  0  0  0  0  0  0  0  0  0
   42.8610   27.8100   44.0760 C   0  0  0  0  0  0  0  0  0  0  0  0
   42.7610   26.9500   45.1380 C   0  0  0  0  0  0  0  0  0  0  0  0
   43.1180   27.4260   46.4010 C   0  0  0  0  0  0  0  0  0  0  0  0
   43.5550   28.7120   46.5590 C   0  0  0  0  0  0  0  0  0  0  0  0
   43.9200   29.1820   47.8180 C   0  0  0  0  0  0  0  0  0  0  0  0
   44.3590   30.4500   47.9810 C   0  0  0  0  0  0  0  0  0  0  0  0
   44.4630   31.3350   46.9020 C   0  0  0  0  0  0  0  0  0  0  0  0
   44.0890   30.8370   45.6410 C   0  0  0  0  0  0  0  0  0  0  0  0
   43.6520   29.5730   45.4750 C   0  0  0  0  0  0  0  0  0  0  0  0
   38.6670   33.2320   40.8090 O   0  0  0  0  0  0  0  0  0  0  0  0
   39.4970   34.1910   40.3340 C   0  0  0  0  0  0  0  0  0  0  0  0
   39.0000   35.4810   40.4780 C   0  0  0  0  0  0  0  0  0  0  0  0
   39.7070   36.5920   40.0530 C   0  0  0  0  0  0  0  0  0  0  0  0
   40.9280   36.3960   39.4740 C   0  0  0  0  0  0  0  0  0  0  0  0
   41.4330   35.1030   39.3250 C   0  0  0  0  0  0  0  0  0  0  0  0
   40.7020   34.0770   39.7570 N   0  0  0  0  0  0  0  0  0  0  0  0
   43.0254   29.4924   40.5080 H   0  0  0  0  0  0  0  0  0  0  0  0
   40.8872   30.9842   43.8881 H   0  0  0  0  0  0  0  0  0  0  0  0
   36.0251   30.5681   38.2407 H   0  0  0  0  0  0  0  0  0  0  0  0
   36.3767   33.0105   39.2653 H   0  0  0  0  0  0  0  0  0  0  0  0
   44.1118   29.4995   42.3746 H   0  0  0  0  0  0  0  0  0  0  0  0
   43.6699   30.9583   43.4408 H   0  0  0  0  0  0  0  0  0  0  0  0
   42.5840   27.4519   43.0735 H   0  0  0  0  0  0  0  0  0  0  0  0
   42.4103   25.9166   44.9998 H   0  0  0  0  0  0  0  0  0  0  0  0
   43.0472   26.7619   47.2751 H   0  0  0  0  0  0  0  0  0  0  0  0
   43.8503   28.5142   48.6893 H   0  0  0  0  0  0  0  0  0  0  0  0
   44.6415   30.7947   48.9867 H   0  0  0  0  0  0  0  0  0  0  0  0
   44.8191   32.3674   47.0334 H   0  0  0  0  0  0  0  0  0  0  0  0
   44.1551   31.4985   44.7646 H   0  0  0  0  0  0  0  0  0  0  0  0
   38.0139   35.6232   40.9443 H   0  0  0  0  0  0  0  0  0  0  0  0
   39.2968   37.6050   40.1781 H   0  0  0  0  0  0  0  0  0  0  0  0
   41.5147   37.2583   39.1244 H   0  0  0  0  0  0  0  0  0  0  0  0
   42.4155   34.9349   38.8598 H   0  0  0  0  0  0  0  0  0  0  0  0
  1  2  2  0
  2  3  1  0
  2 12  1  0
  4  3  2  0
  5  4  1  0
  6  5  2  0
  6  1  1  0
  7 11  1  0
  7  5  1  0
  8  7  1  0
  9  8  2  0
  9 10  1  0
 10 11  2  0
 11 23  1  0
 12 13  1  0
 13 22  1  0
 14 13  2  0
 14 15  1  0
 15 16  2  0
 16 17  1  0
 17 18  2  0
 18 19  1  0
 20 19  2  0
 21 20  1  0
 22 21  2  0
 22 17  1  0
 24 25  2  0
 24 23  1  0
 26 25  1  0
 27 26  2  0
 28 27  1  0
 28 29  2  0
 29 24  1  0
  1 30  1  0
  3 31  1  0
  9 32  1  0
 10 33  1  0
 12 34  1  0
 12 35  1  0
 14 36  1  0
 15 37  1  0
 16 38  1  0
 18 39  1  0
 19 40  1  0
 20 41  1  0
 21 42  1  0
 25 43  1  0
 26 44  1  0
 27 45  1  0
 28 46  1  0
M  ISO  8  30  14  31  14  32  14  33  14  34   8  35   8  36  14  37  14
M  ISO  8  38  14  39  14  40  14  41  14  42  14  43  14  44  14  45  14
M  ISO  1  46  14
M  END
>  <minimizedAffinity>  (1) 
-7.20089436

>  <minimizedRMSD>  (1) 
5.82109118

$$$$
