
     RDKit          3D

 50 54  0  0  0  0  0  0  0  0999 V2000
   40.5500   29.4080   41.6140 C   0  0  0  0  0  0  0  0  0  0  0  0
   39.1840   29.3510   41.5790 C   0  0  0  0  0  0  0  0  0  0  0  0
   38.5860   30.0700   40.5360 C   0  0  0  0  0  0  0  0  0  0  0  0
   39.3610   30.7380   39.6770 N   0  0  0  0  0  0  0  0  0  0  0  0
   40.6650   30.7720   39.7380 C   0  0  0  0  0  0  0  0  0  0  0  0
   41.3090   30.0850   40.7400 N   0  0  0  0  0  0  0  0  0  0  0  0
   41.3170   31.5390   38.7350 N   0  0  0  0  0  0  0  0  0  0  0  0
   42.2580   31.3230   37.8580 N   0  0  0  0  0  0  0  0  0  0  0  0
   42.4870   32.4400   37.1400 C   0  0  0  0  0  0  0  0  0  0  0  0
   41.6370   33.4030   37.6010 C   0  0  0  0  0  0  0  0  0  0  0  0
   40.8950   32.8180   38.6190 C   0  0  0  0  0  0  0  0  0  0  0  0
   38.4710   28.5660   42.6070 C   0  0  0  0  0  0  0  0  0  0  0  0
   38.8300   27.1870   42.7670 C   0  0  0  0  0  0  0  0  0  0  0  0
   39.8370   26.8600   43.6980 C   0  0  0  0  0  0  0  0  0  0  0  0
   40.2350   25.5680   43.9120 C   0  0  0  0  0  0  0  0  0  0  0  0
   39.6110   24.5560   43.1770 C   0  0  0  0  0  0  0  0  0  0  0  0
   38.6420   24.8640   42.2810 C   0  0  0  0  0  0  0  0  0  0  0  0
   38.0070   23.8530   41.5470 C   0  0  0  0  0  0  0  0  0  0  0  0
   37.0350   24.1490   40.6550 C   0  0  0  0  0  0  0  0  0  0  0  0
   36.6200   25.4660   40.4250 C   0  0  0  0  0  0  0  0  0  0  0  0
   37.2690   26.4710   41.1720 C   0  0  0  0  0  0  0  0  0  0  0  0
   38.2380   26.1740   42.0610 C   0  0  0  0  0  0  0  0  0  0  0  0
   39.9310   33.5740   39.2870 O   0  0  0  0  0  0  0  0  0  0  0  0
   40.1370   34.3750   40.4010 C   0  0  0  0  0  0  0  0  0  0  0  0
   41.5840   34.4620   40.8280 C   0  0  0  0  0  0  0  0  0  0  0  0
   41.8350   35.8900   41.2710 C   0  0  0  0  0  0  0  0  0  0  0  0
   40.5550   36.6510   40.9960 C   0  0  0  0  0  0  0  0  0  0  0  0
   39.8830   35.8150   39.9360 C   0  0  0  0  0  0  0  0  0  0  0  0
   41.0632   28.8588   42.4171 H   0  0  0  0  0  0  0  0  0  0  0  0
   37.4916   30.0844   40.4256 H   0  0  0  0  0  0  0  0  0  0  0  0
   43.2236   32.5546   36.3311 H   0  0  0  0  0  0  0  0  0  0  0  0
   41.5556   34.4382   37.2380 H   0  0  0  0  0  0  0  0  0  0  0  0
   38.6396   29.0627   43.5739 H   0  0  0  0  0  0  0  0  0  0  0  0
   37.4274   28.5409   42.2602 H   0  0  0  0  0  0  0  0  0  0  0  0
   40.3174   27.6677   44.2697 H   0  0  0  0  0  0  0  0  0  0  0  0
   41.0237   25.3327   44.6418 H   0  0  0  0  0  0  0  0  0  0  0  0
   39.9071   23.5072   43.3262 H   0  0  0  0  0  0  0  0  0  0  0  0
   38.3034   22.8046   41.6986 H   0  0  0  0  0  0  0  0  0  0  0  0
   36.5570   23.3322   40.0944 H   0  0  0  0  0  0  0  0  0  0  0  0
   35.8287   25.7047   39.6992 H   0  0  0  0  0  0  0  0  0  0  0  0
   36.9777   27.5216   41.0258 H   0  0  0  0  0  0  0  0  0  0  0  0
   39.5082   33.9659   41.2055 H   0  0  0  0  0  0  0  0  0  0  0  0
   41.7733   33.7699   41.6617 H   0  0  0  0  0  0  0  0  0  0  0  0
   42.2531   34.1866   39.9995 H   0  0  0  0  0  0  0  0  0  0  0  0
   42.0727   35.9196   42.3446 H   0  0  0  0  0  0  0  0  0  0  0  0
   42.6866   36.3319   40.7329 H   0  0  0  0  0  0  0  0  0  0  0  0
   39.9326   36.7172   41.9005 H   0  0  0  0  0  0  0  0  0  0  0  0
   40.7284   37.6909   40.6820 H   0  0  0  0  0  0  0  0  0  0  0  0
   40.3340   35.9948   38.9490 H   0  0  0  0  0  0  0  0  0  0  0  0
   38.8136   36.0461   39.8222 H   0  0  0  0  0  0  0  0  0  0  0  0
  2  1  2  0
  2 12  1  0
  3  2  1  0
  4  5  1  0
  4  3  2  0
  5  6  2  0
  6  1  1  0
  7  5  1  0
  8  7  1  0
  9 10  1  0
  9  8  2  0
 10 11  2  0
 11  7  1  0
 11 23  1  0
 12 13  1  0
 13 14  2  0
 14 15  1  0
 16 15  2  0
 17 16  1  0
 18 17  2  0
 19 18  1  0
 20 19  2  0
 20 21  1  0
 21 22  2  0
 22 17  1  0
 22 13  1  0
 23 24  1  0
 24 25  1  0
 25 26  1  0
 27 26  1  0
 28 24  1  0
 28 27  1  0
  1 29  1  0
  3 30  1  0
  9 31  1  0
 10 32  1  0
 12 33  1  0
 12 34  1  0
 14 35  1  0
 15 36  1  0
 16 37  1  0
 18 38  1  0
 19 39  1  0
 20 40  1  0
 21 41  1  0
 24 42  1  0
 25 43  1  0
 25 44  1  0
 26 45  1  0
 26 46  1  0
 27 47  1  0
 27 48  1  0
 28 49  1  0
 28 50  1  0
M  ISO  8  29  14  30  14  31  14  32  14  33   8  34   8  35  14  36  14
M  ISO  8  37  14  38  14  39  14  40  14  41  14  42  13  43  13  44  13
M  ISO  6  45  13  46  13  47  13  48  13  49  13  50  13
M  END
>  <minimizedAffinity>  (1) 
-6.6620388

>  <minimizedRMSD>  (1) 
2.59880066

$$$$
