
     RDKit          3D

 38 40  0  0  1  0  0  0  0  0999 V2000
   37.6380   27.6980   42.2610 N   0  0  0  0  0  0  0  0  0  0  0  0
   38.1320   27.9850   43.5950 C   0  0  0  0  0  0  0  0  0  0  0  0
   39.1490   26.8900   43.8630 C   0  0  0  0  0  0  0  0  0  0  0  0
   39.0450   25.9530   42.7070 C   0  0  0  0  0  0  0  0  0  0  0  0
   37.6540   26.2880   42.1830 C   0  0  2  0  0  0  0  0  0  0  0  0
   38.1070   29.3280   40.4480 C   0  0  0  0  0  0  0  0  0  0  0  0
   37.2360   28.6220   41.2870 C   0  0  0  0  0  0  0  0  0  0  0  0
   35.8510   28.8640   41.1270 C   0  0  0  0  0  0  0  0  0  0  0  0
   35.4720   29.7650   40.1720 N   0  0  0  0  0  0  0  0  0  0  0  0
   36.3430   30.4180   39.3920 C   0  0  0  0  0  0  0  0  0  0  0  0
   37.6660   30.1930   39.5370 N   0  0  0  0  0  0  0  0  0  0  0  0
   37.4830   25.6240   40.8820 C   0  0  0  0  0  0  0  0  0  0  0  0
   38.9140   25.3380   40.3920 C   0  0  0  0  0  0  0  0  0  0  0  0
   38.8880   24.4100   39.1900 C   0  0  0  0  0  0  0  0  0  0  0  0
   38.5080   23.0420   39.6450 C   0  0  0  0  0  0  0  0  0  0  0  0
   37.6810   23.1150   40.9100 C   0  0  0  0  0  0  0  0  0  0  0  0
   36.7590   24.3240   40.9000 C   0  0  0  0  0  0  0  0  0  0  0  0
   38.6084   28.9759   43.6291 H   0  0  0  0  0  0  0  0  0  0  0  0
   37.3280   28.0042   44.3454 H   0  0  0  0  0  0  0  0  0  0  0  0
   40.1623   27.3138   43.9236 H   0  0  0  0  0  0  0  0  0  0  0  0
   38.9554   26.3802   44.8183 H   0  0  0  0  0  0  0  0  0  0  0  0
   39.8199   26.1548   41.9528 H   0  0  0  0  0  0  0  0  0  0  0  0
   39.1874   24.8940   42.9683 H   0  0  0  0  0  0  0  0  0  0  0  0
   36.7721   25.9207   42.7283 H   0  0  0  0  0  0  0  0  0  0  0  0
   39.1902   29.1626   40.5447 H   0  0  0  0  0  0  0  0  0  0  0  0
   35.1063   28.3456   41.7489 H   0  0  0  0  0  0  0  0  0  0  0  0
   35.9826   31.1332   38.6379 H   0  0  0  0  0  0  0  0  0  0  0  0
   36.8729   26.2870   40.2510 H   0  0  0  0  0  0  0  0  0  0  0  0
   39.3956   26.2853   40.1079 H   0  0  0  0  0  0  0  0  0  0  0  0
   39.4783   24.8546   41.2031 H   0  0  0  0  0  0  0  0  0  0  0  0
   39.8841   24.3809   38.7242 H   0  0  0  0  0  0  0  0  0  0  0  0
   38.1571   24.7745   38.4532 H   0  0  0  0  0  0  0  0  0  0  0  0
   37.9208   22.5483   38.8566 H   0  0  0  0  0  0  0  0  0  0  0  0
   39.4237   22.4685   39.8512 H   0  0  0  0  0  0  0  0  0  0  0  0
   37.0733   22.2019   40.9937 H   0  0  0  0  0  0  0  0  0  0  0  0
   38.3651   23.2079   41.7664 H   0  0  0  0  0  0  0  0  0  0  0  0
   36.1293   24.2889   41.8013 H   0  0  0  0  0  0  0  0  0  0  0  0
   36.1670   24.2711   39.9744 H   0  0  0  0  0  0  0  0  0  0  0  0
  1  2  1  0
  2  3  1  0
  4  3  1  0
  5  1  1  0
  5  4  1  0
  6  7  2  0
  7  1  1  0
  8  7  1  0
  9  8  2  0
 10 11  2  0
 10  9  1  0
 11  6  1  0
 12 17  1  0
 12  5  1  0
 13 12  1  0
 14 15  1  0
 14 13  1  0
 15 16  1  0
 17 16  1  0
  2 18  1  0
  2 19  1  0
  3 20  1  0
  3 21  1  0
  4 22  1  0
  4 23  1  0
  5 24  1  1
  6 25  1  0
  8 26  1  0
 10 27  1  0
 12 28  1  0
 13 29  1  0
 13 30  1  0
 14 31  1  0
 14 32  1  0
 15 33  1  0
 15 34  1  0
 16 35  1  0
 16 36  1  0
 17 37  1  0
 17 38  1  0
M  ISO  8  18  13  19  13  20  13  21  13  22  13  23  13  24  13  25  14
M  ISO  8  26  14  27  14  28  13  29  13  30  13  31  13  32  13  33  13
M  ISO  5  34  13  35  13  36  13  37  13  38  13
M  END
>  <minimizedAffinity>  (1) 
-4.3772974

>  <minimizedRMSD>  (1) 
4.54405737

$$$$
