
     RDKit          3D

 36 38  0  0  1  0  0  0  0  0999 V2000
   38.2350   28.2280   42.3110 N   0  0  0  0  0  0  0  0  0  0  0  0
   38.0790   27.8230   43.6670 C   0  0  0  0  0  0  0  0  0  0  0  0
   39.2920   26.9370   43.9400 C   0  0  0  0  0  0  0  0  0  0  0  0
   39.9580   26.7610   42.6200 C   0  0  0  0  0  0  0  0  0  0  0  0
   38.8680   27.1270   41.6540 C   0  0  1  0  0  0  0  0  0  0  0  0
   38.7750   30.4730   41.3530 C   0  0  0  0  0  0  0  0  0  0  0  0
   37.8550   29.4480   41.7130 C   0  0  0  0  0  0  0  0  0  0  0  0
   36.5080   29.6990   41.4430 C   0  0  0  0  0  0  0  0  0  0  0  0
   36.1410   30.8650   40.8690 N   0  0  0  0  0  0  0  0  0  0  0  0
   37.0490   31.8120   40.5440 C   0  0  0  0  0  0  0  0  0  0  0  0
   38.3530   31.6060   40.7890 N   0  0  0  0  0  0  0  0  0  0  0  0
   37.8930   26.1050   41.4130 N   0  0  0  0  0  0  0  0  0  0  0  0
   38.3770   24.7750   41.4920 C   0  0  0  0  0  0  0  0  0  0  0  0
   37.2310   23.8150   41.2880 C   0  0  0  0  0  0  0  0  0  0  0  0
   36.3380   24.1930   40.2200 N   0  0  0  0  0  0  0  0  0  0  0  0
   37.0470   25.1160   39.3500 C   0  0  0  0  0  0  0  0  0  0  0  0
   37.2800   26.3810   40.1310 C   0  0  0  0  0  0  0  0  0  0  0  0
   38.0760   28.6960   44.3362 H   0  0  0  0  0  0  0  0  0  0  0  0
   37.1282   27.2979   43.8413 H   0  0  0  0  0  0  0  0  0  0  0  0
   39.9729   27.4255   44.6525 H   0  0  0  0  0  0  0  0  0  0  0  0
   39.0029   25.9731   44.3842 H   0  0  0  0  0  0  0  0  0  0  0  0
   40.8220   27.4341   42.5179 H   0  0  0  0  0  0  0  0  0  0  0  0
   40.3607   25.7494   42.4637 H   0  0  0  0  0  0  0  0  0  0  0  0
   39.2913   27.3262   40.6584 H   0  0  0  0  0  0  0  0  0  0  0  0
   39.8489   30.3288   41.5425 H   0  0  0  0  0  0  0  0  0  0  0  0
   35.7464   28.9473   41.6977 H   0  0  0  0  0  0  0  0  0  0  0  0
   36.7193   32.7524   40.0783 H   0  0  0  0  0  0  0  0  0  0  0  0
   39.1355   24.6130   40.7120 H   0  0  0  0  0  0  0  0  0  0  0  0
   38.8288   24.6051   42.4804 H   0  0  0  0  0  0  0  0  0  0  0  0
   37.6465   22.8228   41.0579 H   0  0  0  0  0  0  0  0  0  0  0  0
   36.6405   23.8192   42.2160 H   0  0  0  0  0  0  0  0  0  0  0  0
   36.0556   23.3576   39.6879 H   0  0  0  0  0  0  0  0  0  0  0  0
   36.4417   25.3314   38.4571 H   0  0  0  0  0  0  0  0  0  0  0  0
   38.0021   24.6821   39.0191 H   0  0  0  0  0  0  0  0  0  0  0  0
   37.9423   27.0419   39.5525 H   0  0  0  0  0  0  0  0  0  0  0  0
   36.3069   26.8621   40.3090 H   0  0  0  0  0  0  0  0  0  0  0  0
  1  2  1  0
  2  3  1  0
  4  3  1  0
  5  1  1  0
  5  4  1  0
  6  7  2  0
  7  1  1  0
  8  7  1  0
  9  8  2  0
 10 11  2  0
 10  9  1  0
 11  6  1  0
 12 13  1  0
 12  5  1  0
 14 13  1  0
 15 14  1  0
 16 17  1  0
 16 15  1  0
 17 12  1  0
  2 18  1  0
  2 19  1  0
  3 20  1  0
  3 21  1  0
  4 22  1  0
  4 23  1  0
  5 24  1  6
  6 25  1  0
  8 26  1  0
 10 27  1  0
 13 28  1  0
 13 29  1  0
 14 30  1  0
 14 31  1  0
 15 32  1  0
 16 33  1  0
 16 34  1  0
 17 35  1  0
 17 36  1  0
M  ISO  8  18  13  19  13  20  13  21  13  22  13  23  13  24  13  25  14
M  ISO  8  26  14  27  14  28  13  29  13  30  13  31  13  32   5  33  13
M  ISO  3  34  13  35  13  36  13
M  END
>  <minimizedAffinity>  (1) 
-4.29111099

>  <minimizedRMSD>  (1) 
2.58321261

$$$$
