
     RDKit          3D

 28 30  0  0  1  0  0  0  0  0999 V2000
   37.0140   27.9950   41.6110 N   0  0  0  0  0  0  0  0  0  0  0  0
   36.8580   27.0890   42.7250 C   0  0  0  0  0  0  0  0  0  0  0  0
   37.4680   27.8270   43.9050 C   0  0  0  0  0  0  0  0  0  0  0  0
   38.0560   29.0850   43.3440 C   0  0  0  0  0  0  0  0  0  0  0  0
   38.2350   28.6870   41.8850 C   0  0  2  0  0  0  0  0  0  0  0  0
   35.0900   29.0640   40.4680 C   0  0  0  0  0  0  0  0  0  0  0  0
   36.1720   28.1720   40.5040 C   0  0  0  0  0  0  0  0  0  0  0  0
   36.4290   27.4010   39.3440 C   0  0  0  0  0  0  0  0  0  0  0  0
   35.6080   27.5770   38.2700 N   0  0  0  0  0  0  0  0  0  0  0  0
   34.5750   28.4500   38.2820 C   0  0  0  0  0  0  0  0  0  0  0  0
   34.3190   29.1910   39.3830 N   0  0  0  0  0  0  0  0  0  0  0  0
   38.4740   29.8390   41.0420 N   0  0  0  0  0  0  0  0  0  0  0  0
   39.3140   29.7340   39.9810 C   0  0  0  0  0  0  0  0  0  0  0  0
   39.3510   30.9390   39.3800 N   0  0  0  0  0  0  0  0  0  0  0  0
   38.5390   31.7840   40.0660 C   0  0  0  0  0  0  0  0  0  0  0  0
   38.0020   31.0950   41.0890 N   0  0  0  0  0  0  0  0  0  0  0  0
   35.7942   26.8766   42.9072 H   0  0  0  0  0  0  0  0  0  0  0  0
   37.3414   26.1175   42.5445 H   0  0  0  0  0  0  0  0  0  0  0  0
   36.6935   28.0654   44.6488 H   0  0  0  0  0  0  0  0  0  0  0  0
   38.2297   27.2169   44.4124 H   0  0  0  0  0  0  0  0  0  0  0  0
   37.3679   29.9366   43.4503 H   0  0  0  0  0  0  0  0  0  0  0  0
   38.9778   29.4198   43.8422 H   0  0  0  0  0  0  0  0  0  0  0  0
   39.1163   28.0603   41.6839 H   0  0  0  0  0  0  0  0  0  0  0  0
   34.8700   29.6751   41.3558 H   0  0  0  0  0  0  0  0  0  0  0  0
   37.2629   26.6844   39.3108 H   0  0  0  0  0  0  0  0  0  0  0  0
   33.9396   28.5576   37.3906 H   0  0  0  0  0  0  0  0  0  0  0  0
   39.8625   28.8327   39.6698 H   0  0  0  0  0  0  0  0  0  0  0  0
   38.3536   32.8418   39.8280 H   0  0  0  0  0  0  0  0  0  0  0  0
  1  5  1  0
  1  2  1  0
  2  3  1  0
  4  3  1  0
  5  4  1  0
  6  7  2  0
  7  1  1  0
  8  7  1  0
  9 10  1  0
  9  8  2  0
 10 11  2  0
 11  6  1  0
 12 16  1  0
 12  5  1  0
 13 12  1  0
 14 13  2  0
 14 15  1  0
 15 16  2  0
  2 17  1  0
  2 18  1  0
  3 19  1  0
  3 20  1  0
  4 21  1  0
  4 22  1  0
  5 23  1  1
  6 24  1  0
  8 25  1  0
 10 26  1  0
 13 27  1  0
 15 28  1  0
M  ISO  8  17  13  18  13  19  13  20  13  21  13  22  13  23  13  24  14
M  ISO  4  25  14  26  14  27  14  28  14
M  END
>  <minimizedAffinity>  (1) 
-4.12650776

>  <minimizedRMSD>  (1) 
2.43139672

$$$$
