
     RDKit          3D

 37 39  0  0  1  0  0  0  0  0999 V2000
   37.5450   27.5700   41.3360 N   0  0  0  0  0  0  0  0  0  0  0  0
   37.5910   26.3670   42.1250 C   0  0  0  0  0  0  0  0  0  0  0  0
   38.3790   26.7530   43.3630 C   0  0  0  0  0  0  0  0  0  0  0  0
   38.7860   28.1840   43.1590 C   0  0  0  0  0  0  0  0  0  0  0  0
   38.7740   28.2410   41.6360 C   0  0  2  0  0  0  0  0  0  0  0  0
   35.4860   28.8800   40.8330 C   0  0  0  0  0  0  0  0  0  0  0  0
   36.5310   28.0020   40.4640 C   0  0  0  0  0  0  0  0  0  0  0  0
   36.5530   27.5300   39.1310 C   0  0  0  0  0  0  0  0  0  0  0  0
   35.5740   27.9470   38.2900 N   0  0  0  0  0  0  0  0  0  0  0  0
   34.5890   28.7890   38.6800 C   0  0  0  0  0  0  0  0  0  0  0  0
   34.5540   29.2460   39.9420 N   0  0  0  0  0  0  0  0  0  0  0  0
   38.8170   29.6280   41.2240 N   0  0  0  0  0  0  0  0  0  0  0  0
   39.2570   30.3770   42.4120 C   0  0  0  0  0  0  0  0  0  0  0  0
   40.1430   31.5370   42.0700 C   0  0  0  0  0  0  0  0  0  0  0  0
   39.8380   32.1950   40.7570 C   0  0  0  0  0  0  0  0  0  0  0  0
   39.6420   31.1920   39.6190 C   0  0  0  0  0  0  0  0  0  0  0  0
   39.8640   29.8350   40.2470 C   0  0  0  0  0  0  0  0  0  0  0  0
   36.5760   26.0412   42.3963 H   0  0  0  0  0  0  0  0  0  0  0  0
   38.0509   25.5284   41.5817 H   0  0  0  0  0  0  0  0  0  0  0  0
   37.7517   26.6575   44.2616 H   0  0  0  0  0  0  0  0  0  0  0  0
   39.2525   26.1001   43.5069 H   0  0  0  0  0  0  0  0  0  0  0  0
   38.0603   28.8829   43.6005 H   0  0  0  0  0  0  0  0  0  0  0  0
   39.7393   28.4686   43.6283 H   0  0  0  0  0  0  0  0  0  0  0  0
   39.6220   27.7737   41.1140 H   0  0  0  0  0  0  0  0  0  0  0  0
   35.4374   29.2666   41.8617 H   0  0  0  0  0  0  0  0  0  0  0  0
   37.3412   26.8446   38.7863 H   0  0  0  0  0  0  0  0  0  0  0  0
   33.8157   29.0995   37.9619 H   0  0  0  0  0  0  0  0  0  0  0  0
   38.3684   30.7561   42.9379 H   0  0  0  0  0  0  0  0  0  0  0  0
   39.8397   29.6885   43.0415 H   0  0  0  0  0  0  0  0  0  0  0  0
   40.0400   32.2920   42.8633 H   0  0  0  0  0  0  0  0  0  0  0  0
   41.1628   31.1336   41.9850 H   0  0  0  0  0  0  0  0  0  0  0  0
   38.9167   32.7860   40.8664 H   0  0  0  0  0  0  0  0  0  0  0  0
   40.7007   32.8255   40.4959 H   0  0  0  0  0  0  0  0  0  0  0  0
   40.3732   31.3705   38.8168 H   0  0  0  0  0  0  0  0  0  0  0  0
   38.6448   31.2765   39.1625 H   0  0  0  0  0  0  0  0  0  0  0  0
   39.8169   29.0525   39.4754 H   0  0  0  0  0  0  0  0  0  0  0  0
   40.8534   29.7882   40.7255 H   0  0  0  0  0  0  0  0  0  0  0  0
  1  5  1  0
  1  2  1  0
  2  3  1  0
  4  3  1  0
  5  4  1  0
  7  6  2  0
  7  1  1  0
  8  7  1  0
  9 10  1  0
  9  8  2  0
 10 11  2  0
 11  6  1  0
 12  5  1  0
 12 13  1  0
 14 13  1  0
 15 14  1  0
 16 17  1  0
 16 15  1  0
 17 12  1  0
  2 18  1  0
  2 19  1  0
  3 20  1  0
  3 21  1  0
  4 22  1  0
  4 23  1  0
  5 24  1  6
  6 25  1  0
  8 26  1  0
 10 27  1  0
 13 28  1  0
 13 29  1  0
 14 30  1  0
 14 31  1  0
 15 32  1  0
 15 33  1  0
 16 34  1  0
 16 35  1  0
 17 36  1  0
 17 37  1  0
M  ISO  8  18  13  19  13  20  13  21  13  22  13  23  13  24  13  25  14
M  ISO  8  26  14  27  14  28  13  29  13  30  13  31  13  32  13  33  13
M  ISO  4  34  13  35  13  36  13  37  13
M  END
>  <minimizedAffinity>  (1) 
-3.96119714

>  <minimizedRMSD>  (1) 
2.08200073

$$$$
