
     RDKit          3D

 29 31  0  0  1  0  0  0  0  0999 V2000
   37.5500   28.4300   41.6040 N   0  0  0  0  0  0  0  0  0  0  0  0
   36.4930   27.5060   41.9460 C   0  0  0  0  0  0  0  0  0  0  0  0
   36.4920   27.4740   43.4670 C   0  0  0  0  0  0  0  0  0  0  0  0
   37.6900   28.2890   43.8860 C   0  0  0  0  0  0  0  0  0  0  0  0
   38.5240   28.2540   42.6340 C   0  0  2  0  0  0  0  0  0  0  0  0
   38.4880   29.1480   39.4250 C   0  0  0  0  0  0  0  0  0  0  0  0
   37.6110   29.3020   40.5130 C   0  0  0  0  0  0  0  0  0  0  0  0
   36.7370   30.4180   40.4940 C   0  0  0  0  0  0  0  0  0  0  0  0
   36.8000   31.2630   39.4290 N   0  0  0  0  0  0  0  0  0  0  0  0
   37.6560   31.0830   38.4020 C   0  0  0  0  0  0  0  0  0  0  0  0
   38.4910   30.0290   38.4050 N   0  0  0  0  0  0  0  0  0  0  0  0
   39.5220   29.3080   42.6090 N   0  0  0  0  0  0  0  0  0  0  0  0
   40.7850   28.9170   42.3160 C   0  0  0  0  0  0  0  0  0  0  0  0
   41.5740   30.0540   42.3440 C   0  0  0  0  0  0  0  0  0  0  0  0
   40.7960   31.1020   42.6480 N   0  0  0  0  0  0  0  0  0  0  0  0
   39.5400   30.6530   42.8120 C   0  0  0  0  0  0  0  0  0  0  0  0
   35.5254   27.8635   41.5640 H   0  0  0  0  0  0  0  0  0  0  0  0
   36.6501   26.5098   41.5069 H   0  0  0  0  0  0  0  0  0  0  0  0
   35.5666   27.9198   43.8606 H   0  0  0  0  0  0  0  0  0  0  0  0
   36.5413   26.4456   43.8544 H   0  0  0  0  0  0  0  0  0  0  0  0
   37.4044   29.3177   44.1508 H   0  0  0  0  0  0  0  0  0  0  0  0
   38.2041   27.9067   44.7802 H   0  0  0  0  0  0  0  0  0  0  0  0
   39.1071   27.3266   42.5343 H   0  0  0  0  0  0  0  0  0  0  0  0
   39.1825   28.2952   39.4059 H   0  0  0  0  0  0  0  0  0  0  0  0
   36.0284   30.5958   41.3163 H   0  0  0  0  0  0  0  0  0  0  0  0
   37.6709   31.7962   37.5647 H   0  0  0  0  0  0  0  0  0  0  0  0
   41.1198   27.8922   42.0976 H   0  0  0  0  0  0  0  0  0  0  0  0
   42.6561   30.0911   42.1497 H   0  0  0  0  0  0  0  0  0  0  0  0
   38.6680   31.2725   43.0687 H   0  0  0  0  0  0  0  0  0  0  0  0
  1  2  1  0
  1  5  1  0
  2  3  1  0
  3  4  1  0
  5  4  1  0
  6  7  2  0
  7  1  1  0
  8  7  1  0
  9  8  2  0
 10 11  2  0
 10  9  1  0
 11  6  1  0
 12  5  1  0
 12 16  1  0
 13 14  2  0
 13 12  1  0
 14 15  1  0
 15 16  2  0
  2 17  1  0
  2 18  1  0
  3 19  1  0
  3 20  1  0
  4 21  1  0
  4 22  1  0
  5 23  1  6
  6 24  1  0
  8 25  1  0
 10 26  1  0
 13 27  1  0
 14 28  1  0
 16 29  1  0
M  ISO  8  17  13  18  13  19  13  20  13  21  13  22  13  23  13  24  14
M  ISO  5  25  14  26  14  27  14  28  14  29  14
M  END
>  <minimizedAffinity>  (1) 
-3.91647196

>  <minimizedRMSD>  (1) 
2.61642075

$$$$
