
     RDKit          3D

 30 32  0  0  1  0  0  0  0  0999 V2000
   38.6490   27.7140   42.1480 N   0  0  0  0  0  0  0  0  0  0  0  0
   38.9060   26.3920   41.6740 C   0  0  0  0  0  0  0  0  0  0  0  0
   39.3300   25.6260   42.9220 C   0  0  0  0  0  0  0  0  0  0  0  0
   39.4260   26.6460   44.0170 C   0  0  0  0  0  0  0  0  0  0  0  0
   39.5600   27.9280   43.2320 C   0  0  1  0  0  0  0  0  0  0  0  0
   37.9350   30.0420   41.5930 C   0  0  0  0  0  0  0  0  0  0  0  0
   37.7040   28.6410   41.6720 C   0  0  0  0  0  0  0  0  0  0  0  0
   36.4480   28.1770   41.2440 C   0  0  0  0  0  0  0  0  0  0  0  0
   35.5510   29.0940   40.7860 N   0  0  0  0  0  0  0  0  0  0  0  0
   35.8030   30.4090   40.7260 C   0  0  0  0  0  0  0  0  0  0  0  0
   36.9960   30.8770   41.1290 N   0  0  0  0  0  0  0  0  0  0  0  0
   40.9540   28.1970   42.8210 C   0  0  0  0  0  0  0  0  0  0  0  0
   42.0220   27.8580   43.6390 C   0  0  0  0  0  0  0  0  0  0  0  0
   43.3630   28.0520   43.3770 C   0  0  0  0  0  0  0  0  0  0  0  0
   43.6300   28.6370   42.1920 N   0  0  0  0  0  0  0  0  0  0  0  0
   42.6200   28.9850   41.3610 C   0  0  0  0  0  0  0  0  0  0  0  0
   41.3040   28.7770   41.6530 N   0  0  0  0  0  0  0  0  0  0  0  0
   37.9989   25.9514   41.2346 H   0  0  0  0  0  0  0  0  0  0  0  0
   39.6705   26.3679   40.8835 H   0  0  0  0  0  0  0  0  0  0  0  0
   38.5802   24.8620   43.1753 H   0  0  0  0  0  0  0  0  0  0  0  0
   40.2867   25.1046   42.7705 H   0  0  0  0  0  0  0  0  0  0  0  0
   38.5199   26.6509   44.6407 H   0  0  0  0  0  0  0  0  0  0  0  0
   40.2508   26.4667   44.7224 H   0  0  0  0  0  0  0  0  0  0  0  0
   39.3175   28.8357   43.8041 H   0  0  0  0  0  0  0  0  0  0  0  0
   38.9039   30.4480   41.9194 H   0  0  0  0  0  0  0  0  0  0  0  0
   36.1973   27.1065   41.2779 H   0  0  0  0  0  0  0  0  0  0  0  0
   35.0365   31.1018   40.3485 H   0  0  0  0  0  0  0  0  0  0  0  0
   41.7732   27.3836   44.5997 H   0  0  0  0  0  0  0  0  0  0  0  0
   44.1534   27.7523   44.0809 H   0  0  0  0  0  0  0  0  0  0  0  0
   42.8733   29.4596   40.4015 H   0  0  0  0  0  0  0  0  0  0  0  0
  1  5  1  0
  2  1  1  0
  2  3  1  0
  3  4  1  0
  5  4  1  0
  6  7  2  0
  7  1  1  0
  8  7  1  0
  9  8  2  0
 10  9  1  0
 10 11  2  0
 11  6  1  0
 12  5  1  0
 12 13  2  0
 14 13  1  0
 15 14  2  0
 16 17  2  0
 16 15  1  0
 17 12  1  0
  2 18  1  0
  2 19  1  0
  3 20  1  0
  3 21  1  0
  4 22  1  0
  4 23  1  0
  5 24  1  1
  6 25  1  0
  8 26  1  0
 10 27  1  0
 13 28  1  0
 14 29  1  0
 16 30  1  0
M  ISO  8  18  13  19  13  20  13  21  13  22  13  23  13  24  13  25  14
M  ISO  5  26  14  27  14  28  14  29  14  30  14
M  END
>  <minimizedAffinity>  (1) 
-3.90545559

>  <minimizedRMSD>  (1) 
2.40249085

$$$$
