
     RDKit          3D

 24 26  0  0  0  0  0  0  0  0999 V2000
   38.2730   28.6140   43.6050 C   0  0  0  0  0  0  0  0  0  0  0  0
   37.4750   27.4400   43.3850 C   0  0  0  0  0  0  0  0  0  0  0  0
   36.6420   27.4690   42.2820 C   0  0  0  0  0  0  0  0  0  0  0  0
   36.6160   28.5670   41.4820 N   0  0  0  0  0  0  0  0  0  0  0  0
   37.3820   29.6440   41.7260 C   0  0  0  0  0  0  0  0  0  0  0  0
   38.1770   29.6380   42.7670 N   0  0  0  0  0  0  0  0  0  0  0  0
   37.3890   30.8020   40.8980 N   0  0  0  0  0  0  0  0  0  0  0  0
   38.3030   31.7270   41.2120 N   0  0  0  0  0  0  0  0  0  0  0  0
   38.2200   32.7420   40.3350 C   0  0  0  0  0  0  0  0  0  0  0  0
   37.2160   32.4000   39.4630 C   0  0  0  0  0  0  0  0  0  0  0  0
   36.6580   31.1600   39.7930 C   0  0  0  0  0  0  0  0  0  0  0  0
   35.7130   30.1560   39.4510 C   0  0  0  0  0  0  0  0  0  0  0  0
   36.1080   29.8640   38.0970 C   0  0  0  0  0  0  0  0  0  0  0  0
   35.4070   28.8850   37.3780 C   0  0  0  0  0  0  0  0  0  0  0  0
   34.4840   28.5310   38.3670 N   0  0  0  0  0  0  0  0  0  0  0  0
   34.8110   29.2580   39.2640 N   0  0  0  0  0  0  0  0  0  0  0  0
   38.9595   28.6637   44.4631 H   0  0  0  0  0  0  0  0  0  0  0  0
   37.5238   26.5689   44.0549 H   0  0  0  0  0  0  0  0  0  0  0  0
   36.0014   26.6047   42.0524 H   0  0  0  0  0  0  0  0  0  0  0  0
   38.8300   33.6572   40.3191 H   0  0  0  0  0  0  0  0  0  0  0  0
   36.8922   33.0207   38.6145 H   0  0  0  0  0  0  0  0  0  0  0  0
   36.9481   30.4016   37.6332 H   0  0  0  0  0  0  0  0  0  0  0  0
   35.5417   28.5109   36.3524 H   0  0  0  0  0  0  0  0  0  0  0  0
   33.7268   27.8335   38.3343 H   0  0  0  0  0  0  0  0  0  0  0  0
  2  1  2  0
  3  2  1  0
  4  5  1  0
  4  3  2  0
  5  6  2  0
  6  1  1  0
  7  8  1  0
  7  5  1  0
  9  8  2  0
 10 11  2  0
 10  9  1  0
 11  7  1  0
 12 11  1  0
 13 12  1  0
 14 13  2  0
 14 15  1  0
 15 16  1  0
 16 12  2  0
  1 17  1  0
  2 18  1  0
  3 19  1  0
  9 20  1  0
 10 21  1  0
 13 22  1  0
 14 23  1  0
 15 24  1  0
M  ISO  8  17  14  18  14  19  14  20  14  21  14  22  14  23  14  24   9
M  END
>  <minimizedAffinity>  (1) 
-4.43762255

>  <minimizedRMSD>  (1) 
0.944466531

$$$$
