
     RDKit          3D

 37 40  0  0  1  0  0  0  0  0999 V2000
   40.1020   28.6760   42.6820 N   0  0  0  0  0  0  0  0  0  0  0  0
   40.6270   29.8540   42.0660 C   0  0  0  0  0  0  0  0  0  0  0  0
   41.7780   29.3460   41.2170 C   0  0  0  0  0  0  0  0  0  0  0  0
   42.8150   28.9390   42.0990 N   0  0  0  0  0  0  0  0  0  0  0  0
   42.4410   28.0930   43.1440 C   0  0  0  0  0  0  0  0  0  0  0  0
   40.9950   27.7410   43.3420 C   0  0  2  0  0  0  0  0  0  0  0  0
   38.7130   28.3360   42.7000 C   0  0  0  0  0  0  0  0  0  0  0  0
   38.0320   28.0060   43.8980 C   0  0  0  0  0  0  0  0  0  0  0  0
   36.6820   27.6900   43.8090 C   0  0  0  0  0  0  0  0  0  0  0  0
   36.0990   27.7190   42.5850 N   0  0  0  0  0  0  0  0  0  0  0  0
   36.7710   28.0380   41.4600 C   0  0  0  0  0  0  0  0  0  0  0  0
   38.0710   28.3440   41.5170 N   0  0  0  0  0  0  0  0  0  0  0  0
   40.7130   26.3470   42.9340 C   0  0  0  0  0  0  0  0  0  0  0  0
   40.6580   25.5180   43.8870 O   0  0  0  0  0  0  0  0  0  0  0  0
   37.8740   23.7190   40.3930 N   0  0  0  0  0  0  0  0  0  0  0  0
   37.2570   24.0150   41.5390 C   0  0  0  0  0  0  0  0  0  0  0  0
   38.1370   24.7590   42.1870 N   0  0  0  0  0  0  0  0  0  0  0  0
   39.2820   24.9510   41.5130 C   0  0  0  0  0  0  0  0  0  0  0  0
   40.4770   25.6080   41.7030 C   0  0  0  0  0  0  0  0  0  0  0  0
   41.3520   25.5080   40.7050 N   0  0  0  0  0  0  0  0  0  0  0  0
   41.1960   24.8500   39.5620 C   0  0  0  0  0  0  0  0  0  0  0  0
   40.0360   24.2130   39.3780 N   0  0  0  0  0  0  0  0  0  0  0  0
   39.0990   24.2500   40.3090 C   0  0  0  0  0  0  0  0  0  0  0  0
   39.8645   30.3401   41.4396 H   0  0  0  0  0  0  0  0  0  0  0  0
   40.9450   30.6086   42.8004 H   0  0  0  0  0  0  0  0  0  0  0  0
   41.4466   28.4919   40.6081 H   0  0  0  0  0  0  0  0  0  0  0  0
   42.1351   30.1346   40.5384 H   0  0  0  0  0  0  0  0  0  0  0  0
   43.5289   28.4505   41.5399 H   0  0  0  0  0  0  0  0  0  0  0  0
   42.9811   27.1463   42.9954 H   0  0  0  0  0  0  0  0  0  0  0  0
   42.6851   28.6776   44.0433 H   0  0  0  0  0  0  0  0  0  0  0  0
   40.7980   27.8206   44.4213 H   0  0  0  0  0  0  0  0  0  0  0  0
   38.5546   28.0002   44.8659 H   0  0  0  0  0  0  0  0  0  0  0  0
   36.1028   27.4240   44.7055 H   0  0  0  0  0  0  0  0  0  0  0  0
   36.2477   28.0464   40.4925 H   0  0  0  0  0  0  0  0  0  0  0  0
   37.4514   23.1425   39.6514 H   0  0  0  0  0  0  0  0  0  0  0  0
   36.2521   23.7112   41.8673 H   0  0  0  0  0  0  0  0  0  0  0  0
   41.9882   24.8303   38.7991 H   0  0  0  0  0  0  0  0  0  0  0  0
  1  7  1  0
  1  6  1  0
  2  1  1  0
  3  2  1  0
  3  4  1  0
  4  5  1  0
  5  6  1  0
  7  8  2  0
  9  8  1  0
 10  9  2  0
 11 12  2  0
 11 10  1  0
 12  7  1  0
 13  6  1  0
 13 14  2  0
 15 16  1  0
 16 17  2  0
 18 19  2  0
 18 17  1  0
 19 13  1  0
 20 19  1  0
 21 20  2  0
 22 21  1  0
 22 23  2  0
 23 15  1  0
 23 18  1  0
  2 24  1  0
  2 25  1  0
  3 26  1  0
  3 27  1  0
  4 28  1  0
  5 29  1  0
  5 30  1  0
  6 31  1  1
  8 32  1  0
  9 33  1  0
 11 34  1  0
 15 35  1  0
 16 36  1  0
 21 37  1  0
M  ISO  8  24  13  25  13  26  13  27  13  28   5  29  13  30  13  31  13
M  ISO  6  32  14  33  14  34  14  35   9  36  14  37  14
M  END
>  <minimizedAffinity>  (1) 
-4.29695177

>  <minimizedRMSD>  (1) 
2.30696225

$$$$
