
     RDKit          3D

 25 26  0  0  1  0  0  0  0  0999 V2000
   38.2220   27.4780   42.5190 N   0  0  0  0  0  0  0  0  0  0  0  0
   38.5050   27.2890   43.9040 C   0  0  0  0  0  0  0  0  0  0  0  0
   39.9130   26.6930   43.9090 C   0  0  0  0  0  0  0  0  0  0  0  0
   40.2140   26.3500   42.4830 C   0  0  0  0  0  0  0  0  0  0  0  0
   38.8430   26.3790   41.8520 C   0  0  1  0  0  0  0  0  0  0  0  0
   37.9470   29.8390   41.7580 C   0  0  0  0  0  0  0  0  0  0  0  0
   37.4920   28.5100   41.9020 C   0  0  0  0  0  0  0  0  0  0  0  0
   36.2210   28.2330   41.3820 C   0  0  0  0  0  0  0  0  0  0  0  0
   35.5050   29.2110   40.7860 N   0  0  0  0  0  0  0  0  0  0  0  0
   35.9870   30.4750   40.6730 C   0  0  0  0  0  0  0  0  0  0  0  0
   37.2130   30.7860   41.1620 N   0  0  0  0  0  0  0  0  0  0  0  0
   38.1200   25.1000   42.0040 C   0  0  0  0  0  0  0  0  0  0  0  0
   38.7220   23.9840   41.9260 O   0  0  0  0  0  0  0  0  0  0  0  0
   36.7430   24.9250   42.2450 O   0  0  0  0  0  0  0  0  0  0  0  0
   38.4830   28.2476   44.4431 H   0  0  0  0  0  0  0  0  0  0  0  0
   37.7679   26.6446   44.4053 H   0  0  0  0  0  0  0  0  0  0  0  0
   40.6388   27.4275   44.2880 H   0  0  0  0  0  0  0  0  0  0  0  0
   39.9770   25.8093   44.5609 H   0  0  0  0  0  0  0  0  0  0  0  0
   40.8797   27.0965   42.0252 H   0  0  0  0  0  0  0  0  0  0  0  0
   40.7363   25.3897   42.3606 H   0  0  0  0  0  0  0  0  0  0  0  0
   38.8609   26.5065   40.7596 H   0  0  0  0  0  0  0  0  0  0  0  0
   38.9399   30.1052   42.1496 H   0  0  0  0  0  0  0  0  0  0  0  0
   35.8055   27.2174   41.4592 H   0  0  0  0  0  0  0  0  0  0  0  0
   35.3803   31.2505   40.1825 H   0  0  0  0  0  0  0  0  0  0  0  0
   36.3672   24.0130   42.3293 H   0  0  0  0  0  0  0  0  0  0  0  0
  1  2  1  0
  2  3  1  0
  4  3  1  0
  5 12  1  0
  5  4  1  0
  5  1  1  0
  6  7  2  0
  7  1  1  0
  8  7  1  0
  9  8  2  0
 10  9  1  0
 10 11  2  0
 11  6  1  0
 12 14  1  0
 13 12  2  0
  2 15  1  0
  2 16  1  0
  3 17  1  0
  3 18  1  0
  4 19  1  0
  4 20  1  0
  5 21  1  6
  6 22  1  0
  8 23  1  0
 10 24  1  0
 14 25  1  0
M  ISO  8  15  13  16  13  17  13  18  13  19  13  20  13  21  13  22  14
M  ISO  3  23  14  24  14  25   3
M  END
>  <minimizedAffinity>  (1) 
-3.8719902

>  <minimizedRMSD>  (1) 
2.05544066

$$$$
