
     RDKit          3D

 33 34  0  0  1  0  0  0  0  0999 V2000
   39.6880   29.4020   42.7430 N   0  0  0  0  0  0  0  0  0  0  0  0
   39.9350   30.8080   42.8330 C   0  0  0  0  0  0  0  0  0  0  0  0
   41.0650   31.0590   41.8400 C   0  0  0  0  0  0  0  0  0  0  0  0
   42.2480   30.4780   42.3530 N   0  0  0  0  0  0  0  0  0  0  0  0
   42.1440   29.1840   42.8880 C   0  0  0  0  0  0  0  0  0  0  0  0
   40.8130   28.5090   42.8300 C   0  0  2  0  0  0  0  0  0  0  0  0
   40.7600   27.4550   41.7890 C   0  0  0  0  0  0  0  0  0  0  0  0
   41.2780   27.6870   40.6780 O   0  0  0  0  0  0  0  0  0  0  0  0
   40.1650   26.1800   41.9310 N   0  0  0  0  0  0  0  0  0  0  0  0
   40.4200   25.4470   43.1170 C   0  0  0  0  0  0  0  0  0  0  0  0
   41.1000   25.6760   44.1510 N   0  0  0  0  0  0  0  0  0  0  0  0
   39.8360   24.1380   43.3110 N   0  0  0  0  0  0  0  0  0  0  0  0
   41.6740   26.4230   44.4870 H   0  0  0  0  0  0  0  0  0  0  0  0
   38.4030   28.8060   42.5740 C   0  0  0  0  0  0  0  0  0  0  0  0
   37.7880   28.0610   43.6140 C   0  0  0  0  0  0  0  0  0  0  0  0
   36.5290   27.5250   43.3340 C   0  0  0  0  0  0  0  0  0  0  0  0
   35.9740   27.7410   42.1130 N   0  0  0  0  0  0  0  0  0  0  0  0
   36.6070   28.4630   41.1520 C   0  0  0  0  0  0  0  0  0  0  0  0
   37.8120   28.9880   41.3870 N   0  0  0  0  0  0  0  0  0  0  0  0
   39.0375   31.3795   42.5539 H   0  0  0  0  0  0  0  0  0  0  0  0
   40.1963   31.1233   43.8539 H   0  0  0  0  0  0  0  0  0  0  0  0
   41.2098   32.1414   41.7080 H   0  0  0  0  0  0  0  0  0  0  0  0
   40.8172   30.6134   40.8653 H   0  0  0  0  0  0  0  0  0  0  0  0
   42.9344   30.4426   41.5859 H   0  0  0  0  0  0  0  0  0  0  0  0
   42.8583   28.5469   42.3459 H   0  0  0  0  0  0  0  0  0  0  0  0
   42.3415   29.3129   43.9624 H   0  0  0  0  0  0  0  0  0  0  0  0
   40.7133   28.0196   43.8101 H   0  0  0  0  0  0  0  0  0  0  0  0
   39.5615   25.7937   41.1911 H   0  0  0  0  0  0  0  0  0  0  0  0
   40.0265   23.6121   44.1759 H   0  0  0  0  0  0  0  0  0  0  0  0
   39.2296   23.7318   42.5842 H   0  0  0  0  0  0  0  0  0  0  0  0
   38.2768   27.9137   44.5884 H   0  0  0  0  0  0  0  0  0  0  0  0
   35.9935   26.9353   44.0927 H   0  0  0  0  0  0  0  0  0  0  0  0
   36.1244   28.6159   40.1754 H   0  0  0  0  0  0  0  0  0  0  0  0
  1  6  1  0
  1  2  1  0
  3  4  1  0
  3  2  1  0
  4  5  1  0
  6  5  1  0
  7  9  1  0
  7  6  1  0
  8  7  2  0
  9 10  1  0
 10 12  1  0
 10 11  2  0
 11 13  1  0
 14  1  1  0
 14 15  2  0
 16 15  1  0
 17 16  2  0
 18 19  2  0
 18 17  1  0
 19 14  1  0
  2 20  1  0
  2 21  1  0
  3 22  1  0
  3 23  1  0
  4 24  1  0
  5 25  1  0
  5 26  1  0
  6 27  1  1
  9 28  1  0
 12 29  1  0
 12 30  1  0
 15 31  1  0
 16 32  1  0
 18 33  1  0
M  ISO  8  20  13  21  13  22  13  23  13  24   5  25  13  26  13  27  13
M  ISO  3  31  14  32  14  33  14
M  END
>  <minimizedAffinity>  (1) 
-4.04609728

>  <minimizedRMSD>  (1) 
2.50017214

$$$$
