
     RDKit          3D

 24 25  0  0  1  0  0  0  0  0999 V2000
   38.5600   27.7470   42.2570 N   0  0  0  0  0  0  0  0  0  0  0  0
   38.2950   26.7600   43.2660 C   0  0  0  0  0  0  0  0  0  0  0  0
   39.6300   26.6360   43.9950 C   0  0  0  0  0  0  0  0  0  0  0  0
   40.6160   27.4130   43.1940 C   0  0  0  0  0  0  0  0  0  0  0  0
   39.9430   27.5770   41.8610 C   0  0  1  0  0  0  0  0  0  0  0  0
   37.9770   30.0870   41.6140 C   0  0  0  0  0  0  0  0  0  0  0  0
   37.6730   28.7040   41.7330 C   0  0  0  0  0  0  0  0  0  0  0  0
   36.4090   28.2920   41.2990 C   0  0  0  0  0  0  0  0  0  0  0  0
   35.5410   29.2070   40.7920 N   0  0  0  0  0  0  0  0  0  0  0  0
   35.8680   30.5170   40.6930 C   0  0  0  0  0  0  0  0  0  0  0  0
   37.0900   30.9520   41.1080 N   0  0  0  0  0  0  0  0  0  0  0  0
   40.1360   26.4400   40.9420 C   0  0  0  0  0  0  0  0  0  0  0  0
   39.4830   26.4490   39.8910 O   0  0  0  0  0  0  0  0  0  0  0  0
   37.5026   27.0984   43.9498 H   0  0  0  0  0  0  0  0  0  0  0  0
   37.9407   25.8048   42.8512 H   0  0  0  0  0  0  0  0  0  0  0  0
   39.5502   27.0530   45.0098 H   0  0  0  0  0  0  0  0  0  0  0  0
   39.9355   25.5840   44.0947 H   0  0  0  0  0  0  0  0  0  0  0  0
   40.8132   28.3913   43.6567 H   0  0  0  0  0  0  0  0  0  0  0  0
   41.5928   26.9127   43.1193 H   0  0  0  0  0  0  0  0  0  0  0  0
   40.3539   28.4111   41.2733 H   0  0  0  0  0  0  0  0  0  0  0  0
   38.9602   30.4536   41.9441 H   0  0  0  0  0  0  0  0  0  0  0  0
   36.1188   27.2332   41.3675 H   0  0  0  0  0  0  0  0  0  0  0  0
   35.1441   31.2326   40.2759 H   0  0  0  0  0  0  0  0  0  0  0  0
   40.8297   25.6202   41.1802 H   0  0  0  0  0  0  0  0  0  0  0  0
  1  2  1  0
  2  3  1  0
  4  3  1  0
  5  1  1  0
  5  4  1  0
  6  7  2  0
  7  1  1  0
  8  7  1  0
  9  8  2  0
 10  9  1  0
 10 11  2  0
 11  6  1  0
 12  5  1  0
 13 12  2  0
  2 14  1  0
  2 15  1  0
  3 16  1  0
  3 17  1  0
  4 18  1  0
  4 19  1  0
  5 20  1  6
  6 21  1  0
  8 22  1  0
 10 23  1  0
 12 24  1  0
M  ISO  8  14  13  15  13  16  13  17  13  18  13  19  13  20  13  21  14
M  ISO  3  22  14  23  14  24   6
M  END
>  <minimizedAffinity>  (1) 
-3.34003282

>  <minimizedRMSD>  (1) 
0.686953366

$$$$
