
     RDKit          3D

 40 42  0  0  1  0  0  0  0  0999 V2000
   39.7360   29.3810   42.7270 N   0  0  0  0  0  0  0  0  0  0  0  0
   40.0100   30.7780   42.5380 C   0  0  0  0  0  0  0  0  0  0  0  0
   41.1740   30.7910   41.5460 C   0  0  0  0  0  0  0  0  0  0  0  0
   42.3270   30.3340   42.2380 N   0  0  0  0  0  0  0  0  0  0  0  0
   42.1830   29.1490   42.9850 C   0  0  0  0  0  0  0  0  0  0  0  0
   40.8380   28.5070   43.0320 C   0  0  2  0  0  0  0  0  0  0  0  0
   38.4470   28.7920   42.6370 C   0  0  0  0  0  0  0  0  0  0  0  0
   37.9240   27.9690   43.6680 C   0  0  0  0  0  0  0  0  0  0  0  0
   36.6520   27.4420   43.4820 C   0  0  0  0  0  0  0  0  0  0  0  0
   35.9920   27.7420   42.3350 N   0  0  0  0  0  0  0  0  0  0  0  0
   36.5200   28.5350   41.3640 C   0  0  0  0  0  0  0  0  0  0  0  0
   37.7390   29.0440   41.5360 N   0  0  0  0  0  0  0  0  0  0  0  0
   40.7870   27.2670   42.2060 C   0  0  0  0  0  0  0  0  0  0  0  0
   40.7390   26.1600   42.7620 O   0  0  0  0  0  0  0  0  0  0  0  0
   40.7630   26.6610   40.9290 N   0  0  0  0  0  0  0  0  0  0  0  0
   39.3780   26.2390   40.7540 C   0  0  0  0  0  0  0  0  0  0  0  0
   39.3430   25.6420   39.3410 C   0  0  0  0  0  0  0  0  0  0  0  0
   40.2350   24.5270   39.3120 N   0  0  0  0  0  0  0  0  0  0  0  0
   41.6060   24.9370   39.3900 C   0  0  0  0  0  0  0  0  0  0  0  0
   41.7310   26.3930   39.8560 C   0  0  0  0  0  0  0  0  0  0  0  0
   39.1339   31.2962   42.1209 H   0  0  0  0  0  0  0  0  0  0  0  0
   40.2474   31.2959   43.4790 H   0  0  0  0  0  0  0  0  0  0  0  0
   41.3393   31.8128   41.1737 H   0  0  0  0  0  0  0  0  0  0  0  0
   40.9566   30.1436   40.6837 H   0  0  0  0  0  0  0  0  0  0  0  0
   43.0684   30.1762   41.5407 H   0  0  0  0  0  0  0  0  0  0  0  0
   42.8825   28.4112   42.5650 H   0  0  0  0  0  0  0  0  0  0  0  0
   42.3762   29.4553   44.0237 H   0  0  0  0  0  0  0  0  0  0  0  0
   40.7027   28.2339   44.0889 H   0  0  0  0  0  0  0  0  0  0  0  0
   38.5030   27.7566   44.5788 H   0  0  0  0  0  0  0  0  0  0  0  0
   36.1915   26.7977   44.2454 H   0  0  0  0  0  0  0  0  0  0  0  0
   35.9485   28.7529   40.4497 H   0  0  0  0  0  0  0  0  0  0  0  0
   39.1026   25.4829   41.5040 H   0  0  0  0  0  0  0  0  0  0  0  0
   38.6656   27.0677   40.8794 H   0  0  0  0  0  0  0  0  0  0  0  0
   38.3221   25.3100   39.1010 H   0  0  0  0  0  0  0  0  0  0  0  0
   39.6479   26.3953   38.5997 H   0  0  0  0  0  0  0  0  0  0  0  0
   40.0254   23.9120   40.1112 H   0  0  0  0  0  0  0  0  0  0  0  0
   42.1336   24.2867   40.1033 H   0  0  0  0  0  0  0  0  0  0  0  0
   42.0483   24.8565   38.3860 H   0  0  0  0  0  0  0  0  0  0  0  0
   42.7497   26.5693   40.2317 H   0  0  0  0  0  0  0  0  0  0  0  0
   41.5256   27.0629   39.0081 H   0  0  0  0  0  0  0  0  0  0  0  0
  1  6  1  0
  2  1  1  0
  3  4  1  0
  3  2  1  0
  4  5  1  0
  5  6  1  0
  7  1  1  0
  7  8  2  0
  9  8  1  0
 10  9  2  0
 11 12  2  0
 11 10  1  0
 12  7  1  0
 13 14  2  0
 13  6  1  0
 15 13  1  0
 16 15  1  0
 17 16  1  0
 18 17  1  0
 18 19  1  0
 19 20  1  0
 20 15  1  0
  2 21  1  0
  2 22  1  0
  3 23  1  0
  3 24  1  0
  4 25  1  0
  5 26  1  0
  5 27  1  0
  6 28  1  1
  8 29  1  0
  9 30  1  0
 11 31  1  0
 16 32  1  0
 16 33  1  0
 17 34  1  0
 17 35  1  0
 18 36  1  0
 19 37  1  0
 19 38  1  0
 20 39  1  0
 20 40  1  0
M  ISO  8  21  13  22  13  23  13  24  13  25   5  26  13  27  13  28  13
M  ISO  8  29  14  30  14  31  14  32  13  33  13  34  13  35  13  36   5
M  ISO  4  37  13  38  13  39  13  40  13
M  END
>  <minimizedAffinity>  (1) 
-3.68638945

>  <minimizedRMSD>  (1) 
0.6337111

$$$$
