
     RDKit          3D

 48 52  0  0  1  0  0  0  0  0999 V2000
   36.9020   28.0140   41.6690 N   0  0  0  0  0  0  0  0  0  0  0  0
   36.7070   27.0980   42.7720 C   0  0  0  0  0  0  0  0  0  0  0  0
   37.2600   27.8360   43.9860 C   0  0  0  0  0  0  0  0  0  0  0  0
   37.8920   29.0980   43.4510 C   0  0  0  0  0  0  0  0  0  0  0  0
   38.1230   28.6940   42.0120 C   0  0  2  0  0  0  0  0  0  0  0  0
   35.0590   29.1330   40.4610 C   0  0  0  0  0  0  0  0  0  0  0  0
   36.1140   28.2130   40.5330 C   0  0  0  0  0  0  0  0  0  0  0  0
   36.3960   27.4400   39.3850 C   0  0  0  0  0  0  0  0  0  0  0  0
   35.6210   27.6410   38.2800 N   0  0  0  0  0  0  0  0  0  0  0  0
   34.6120   28.5400   38.2530 C   0  0  0  0  0  0  0  0  0  0  0  0
   34.3410   29.2770   39.3440 N   0  0  0  0  0  0  0  0  0  0  0  0
   33.8180   28.7300   37.0830 N   0  0  0  0  0  0  0  0  0  0  0  0
   34.0850   28.4830   35.7920 C   0  0  0  0  0  0  0  0  0  0  0  0
   33.0320   28.8190   35.0200 N   0  0  0  0  0  0  0  0  0  0  0  0
   32.0660   29.2880   35.7990 C   0  0  0  0  0  0  0  0  0  0  0  0
   30.8020   29.7690   35.5780 C   0  0  0  0  0  0  0  0  0  0  0  0
   30.0750   30.1720   36.6370 N   0  0  0  0  0  0  0  0  0  0  0  0
   30.5630   30.1150   37.8930 C   0  0  0  0  0  0  0  0  0  0  0  0
   31.8010   29.6470   38.1320 N   0  0  0  0  0  0  0  0  0  0  0  0
   32.5520   29.2340   37.0810 C   0  0  0  0  0  0  0  0  0  0  0  0
   30.2490   29.8460   34.2700 N   0  0  0  0  0  0  0  0  0  0  0  0
   38.5140   29.7480   41.1430 N   0  0  0  0  0  0  0  0  0  0  0  0
   38.0770   31.0160   41.1190 C   0  0  0  0  0  0  0  0  0  0  0  0
   38.5590   31.9340   40.2010 C   0  0  0  0  0  0  0  0  0  0  0  0
   39.5100   31.5770   39.2760 C   0  0  0  0  0  0  0  0  0  0  0  0
   39.9490   32.4040   38.4460 O   0  0  0  0  0  0  0  0  0  0  0  0
   39.9320   30.2880   39.3270 N   0  0  0  0  0  0  0  0  0  0  0  0
   39.4490   29.4080   40.2290 C   0  0  0  0  0  0  0  0  0  0  0  0
   39.9550   28.2260   40.1410 O   0  0  0  0  0  0  0  0  0  0  0  0
   38.0400   33.3200   40.2210 C   0  0  0  0  0  0  0  0  0  0  0  0
   35.6385   26.8743   42.9069 H   0  0  0  0  0  0  0  0  0  0  0  0
   37.2077   26.1326   42.6065 H   0  0  0  0  0  0  0  0  0  0  0  0
   36.4484   28.0819   44.6866 H   0  0  0  0  0  0  0  0  0  0  0  0
   37.9884   27.2211   44.5349 H   0  0  0  0  0  0  0  0  0  0  0  0
   37.2112   29.9586   43.5281 H   0  0  0  0  0  0  0  0  0  0  0  0
   38.7943   29.4252   43.9884 H   0  0  0  0  0  0  0  0  0  0  0  0
   39.0022   28.0445   41.8890 H   0  0  0  0  0  0  0  0  0  0  0  0
   34.8179   29.7478   41.3407 H   0  0  0  0  0  0  0  0  0  0  0  0
   37.2116   26.7019   39.3818 H   0  0  0  0  0  0  0  0  0  0  0  0
   35.0304   28.0650   35.4159 H   0  0  0  0  0  0  0  0  0  0  0  0
   29.9401   30.4558   38.7332 H   0  0  0  0  0  0  0  0  0  0  0  0
   29.2959   30.2121   34.1346 H   0  0  0  0  0  0  0  0  0  0  0  0
   30.8016   29.5356   33.4581 H   0  0  0  0  0  0  0  0  0  0  0  0
   37.3165   31.3347   41.8470 H   0  0  0  0  0  0  0  0  0  0  0  0
   40.6449   29.9708   38.6546 H   0  0  0  0  0  0  0  0  0  0  0  0
   37.9163   33.6502   41.2630 H   0  0  0  0  0  0  0  0  0  0  0  0
   38.7501   33.9849   39.7075 H   0  0  0  0  0  0  0  0  0  0  0  0
   37.0679   33.3550   39.7075 H   0  0  0  0  0  0  0  0  0  0  0  0
  1  5  1  0
  1  2  1  0
  2  3  1  0
  4  3  1  0
  5  4  1  0
  6  7  2  0
  7  1  1  0
  8  7  1  0
  9  8  2  0
 10  9  1  0
 10 11  2  0
 11  6  1  0
 12 10  1  0
 13 12  1  0
 14 13  2  0
 14 15  1  0
 15 20  2  0
 16 15  1  0
 16 17  2  0
 17 18  1  0
 18 19  2  0
 20 12  1  0
 20 19  1  0
 21 16  1  0
 22  5  1  0
 23 22  1  0
 24 30  1  0
 24 23  2  0
 25 27  1  0
 25 24  1  0
 26 25  2  0
 27 28  1  0
 28 22  1  0
 29 28  2  0
  2 31  1  0
  2 32  1  0
  3 33  1  0
  3 34  1  0
  4 35  1  0
  4 36  1  0
  5 37  1  1
  6 38  1  0
  8 39  1  0
 13 40  1  0
 18 41  1  0
 21 42  1  0
 21 43  1  0
 23 44  1  0
 27 45  1  0
 30 46  1  0
 30 47  1  0
 30 48  1  0
M  ISO  8  31  13  32  13  33  13  34  13  35  13  36  13  37  13  38  14
M  ISO  8  39  14  40  14  41  14  44  14  45   9  46   8  47   8  48   8
M  END
>  <minimizedAffinity>  (1) 
-6.43623877

>  <minimizedRMSD>  (1) 
0.212955445

$$$$
