
     RDKit          3D

 49 53  0  0  1  0  0  0  0  0999 V2000
   36.9900   27.9830   41.5970 N   0  0  0  0  0  0  0  0  0  0  0  0
   36.8560   27.0360   42.6790 C   0  0  0  0  0  0  0  0  0  0  0  0
   37.4890   27.7440   43.8820 C   0  0  0  0  0  0  0  0  0  0  0  0
   38.0930   29.0150   43.3420 C   0  0  0  0  0  0  0  0  0  0  0  0
   38.2340   28.6510   41.8760 C   0  0  2  0  0  0  0  0  0  0  0  0
   38.5660   29.7290   41.0280 N   0  0  0  0  0  0  0  0  0  0  0  0
   38.1560   30.9960   41.0650 C   0  0  0  0  0  0  0  0  0  0  0  0
   38.5820   31.9380   40.1500 C   0  0  0  0  0  0  0  0  0  0  0  0
   39.4610   31.6030   39.1480 C   0  0  0  0  0  0  0  0  0  0  0  0
   39.8490   32.4530   38.3180 O   0  0  0  0  0  0  0  0  0  0  0  0
   39.8630   30.3160   39.1300 N   0  0  0  0  0  0  0  0  0  0  0  0
   39.4390   29.4040   40.0310 C   0  0  0  0  0  0  0  0  0  0  0  0
   39.9210   28.2190   39.8710 O   0  0  0  0  0  0  0  0  0  0  0  0
   38.0840   33.3300   40.2510 C   0  0  0  0  0  0  0  0  0  0  0  0
   35.0790   29.1490   40.5380 C   0  0  0  0  0  0  0  0  0  0  0  0
   36.1310   28.2200   40.5210 C   0  0  0  0  0  0  0  0  0  0  0  0
   36.3320   27.4800   39.3400 C   0  0  0  0  0  0  0  0  0  0  0  0
   35.4910   27.7150   38.2910 N   0  0  0  0  0  0  0  0  0  0  0  0
   34.4930   28.6100   38.3400 C   0  0  0  0  0  0  0  0  0  0  0  0
   34.2990   29.3180   39.4630 N   0  0  0  0  0  0  0  0  0  0  0  0
   33.6300   28.8130   37.1830 C   0  0  0  0  0  0  0  0  0  0  0  0
   33.8940   28.5110   35.8570 C   0  0  0  0  0  0  0  0  0  0  0  0
   32.8500   28.8440   35.0750 N   0  0  0  0  0  0  0  0  0  0  0  0
   31.9060   29.3630   35.9010 C   0  0  0  0  0  0  0  0  0  0  0  0
   30.6350   29.8650   35.6280 C   0  0  0  0  0  0  0  0  0  0  0  0
   29.8380   30.3510   36.6590 C   0  0  0  0  0  0  0  0  0  0  0  0
   30.3220   30.3300   37.9580 C   0  0  0  0  0  0  0  0  0  0  0  0
   31.5930   29.8290   38.2300 C   0  0  0  0  0  0  0  0  0  0  0  0
   32.3620   29.3550   37.2040 C   0  0  0  0  0  0  0  0  0  0  0  0
   35.7965   26.8119   42.8718 H   0  0  0  0  0  0  0  0  0  0  0  0
   37.3381   26.0726   42.4566 H   0  0  0  0  0  0  0  0  0  0  0  0
   36.7229   27.9749   44.6368 H   0  0  0  0  0  0  0  0  0  0  0  0
   38.2460   27.1125   44.3701 H   0  0  0  0  0  0  0  0  0  0  0  0
   37.4231   29.8758   43.4844 H   0  0  0  0  0  0  0  0  0  0  0  0
   39.0293   29.3221   43.8308 H   0  0  0  0  0  0  0  0  0  0  0  0
   39.0995   28.0040   41.6703 H   0  0  0  0  0  0  0  0  0  0  0  0
   37.4526   31.3027   41.8531 H   0  0  0  0  0  0  0  0  0  0  0  0
   40.5218   30.0157   38.3974 H   0  0  0  0  0  0  0  0  0  0  0  0
   37.9846   33.6079   41.3107 H   0  0  0  0  0  0  0  0  0  0  0  0
   38.7945   34.0103   39.7587 H   0  0  0  0  0  0  0  0  0  0  0  0
   37.1032   33.4052   39.7587 H   0  0  0  0  0  0  0  0  0  0  0  0
   34.8934   29.7445   41.4441 H   0  0  0  0  0  0  0  0  0  0  0  0
   37.1399   26.7372   39.2653 H   0  0  0  0  0  0  0  0  0  0  0  0
   34.8291   28.0606   35.4928 H   0  0  0  0  0  0  0  0  0  0  0  0
   32.7812   28.7281   34.0539 H   0  0  0  0  0  0  0  0  0  0  0  0
   30.2608   29.8769   34.5937 H   0  0  0  0  0  0  0  0  0  0  0  0
   28.8344   30.7478   36.4460 H   0  0  0  0  0  0  0  0  0  0  0  0
   29.6980   30.7116   38.7796 H   0  0  0  0  0  0  0  0  0  0  0  0
   31.9746   29.8149   39.2616 H   0  0  0  0  0  0  0  0  0  0  0  0
  1  5  1  0
  1  2  1  0
  2  3  1  0
  4  3  1  0
  5  4  1  0
  6  7  1  0
  6  5  1  0
  8 14  1  0
  8  7  2  0
  9  8  1  0
 10  9  2  0
 11  9  1  0
 11 12  1  0
 12  6  1  0
 13 12  2  0
 16 15  2  0
 16  1  1  0
 17 16  1  0
 18 19  1  0
 18 17  2  0
 19 20  2  0
 20 15  1  0
 21 29  1  0
 21 19  1  0
 22 21  2  0
 23 22  1  0
 23 24  1  0
 24 29  2  0
 25 24  1  0
 25 26  2  0
 26 27  1  0
 27 28  2  0
 29 28  1  0
  2 30  1  0
  2 31  1  0
  3 32  1  0
  3 33  1  0
  4 34  1  0
  4 35  1  0
  5 36  1  1
  7 37  1  0
 11 38  1  0
 14 39  1  0
 14 40  1  0
 14 41  1  0
 15 42  1  0
 17 43  1  0
 22 44  1  0
 23 45  1  0
 25 46  1  0
 26 47  1  0
 27 48  1  0
 28 49  1  0
M  ISO  8  30  13  31  13  32  13  33  13  34  13  35  13  36  13  37  14
M  ISO  8  38   9  39   8  40   8  41   8  42  14  43  14  44  14  45   9
M  ISO  4  46  14  47  14  48  14  49  14
M  END
>  <minimizedAffinity>  (1) 
-6.42013407

>  <minimizedRMSD>  (1) 
0.366450191

$$$$
