
     RDKit          3D

 46 49  0  0  1  0  0  0  0  0999 V2000
   36.9940   27.9910   41.6070 N   0  0  0  0  0  0  0  0  0  0  0  0
   36.8530   27.0500   42.7010 C   0  0  0  0  0  0  0  0  0  0  0  0
   37.4490   27.7680   43.8950 C   0  0  0  0  0  0  0  0  0  0  0  0
   38.0440   29.0520   43.3670 C   0  0  0  0  0  0  0  0  0  0  0  0
   38.2230   28.6740   41.9130 C   0  0  2  0  0  0  0  0  0  0  0  0
   35.0960   29.1100   40.4900 C   0  0  0  0  0  0  0  0  0  0  0  0
   36.1620   28.2060   40.5150 C   0  0  0  0  0  0  0  0  0  0  0  0
   36.4030   27.4560   39.3370 C   0  0  0  0  0  0  0  0  0  0  0  0
   35.5880   27.6650   38.2660 N   0  0  0  0  0  0  0  0  0  0  0  0
   34.5780   28.5440   38.2870 C   0  0  0  0  0  0  0  0  0  0  0  0
   34.3340   29.2660   39.4030 N   0  0  0  0  0  0  0  0  0  0  0  0
   33.7190   28.7690   37.1700 N   0  0  0  0  0  0  0  0  0  0  0  0
   32.5210   29.2900   37.4900 C   0  0  0  0  0  0  0  0  0  0  0  0
   31.6320   29.5360   36.4470 C   0  0  0  0  0  0  0  0  0  0  0  0
   32.0730   29.2170   35.1800 C   0  0  0  0  0  0  0  0  0  0  0  0
   31.2130   29.4440   34.0700 N   0  0  0  0  0  0  0  0  0  0  0  0
   33.2840   28.6950   34.8980 N   0  0  0  0  0  0  0  0  0  0  0  0
   34.1450   28.4600   35.9310 C   0  0  0  0  0  0  0  0  0  0  0  0
   35.3010   27.9790   35.8210 O   0  0  0  0  0  0  0  0  0  0  0  0
   38.5660   29.7470   41.0590 N   0  0  0  0  0  0  0  0  0  0  0  0
   38.1460   31.0150   41.0800 C   0  0  0  0  0  0  0  0  0  0  0  0
   38.5820   31.9530   40.1640 C   0  0  0  0  0  0  0  0  0  0  0  0
   39.4820   31.6140   39.1750 C   0  0  0  0  0  0  0  0  0  0  0  0
   39.8740   32.4590   38.3500 O   0  0  0  0  0  0  0  0  0  0  0  0
   39.8960   30.3190   39.1730 N   0  0  0  0  0  0  0  0  0  0  0  0
   39.4540   29.4220   40.0780 C   0  0  0  0  0  0  0  0  0  0  0  0
   39.9450   28.2390   39.9360 O   0  0  0  0  0  0  0  0  0  0  0  0
   38.0750   33.3410   40.2460 C   0  0  0  0  0  0  0  0  0  0  0  0
   35.7931   26.8145   42.8777 H   0  0  0  0  0  0  0  0  0  0  0  0
   37.3520   26.0913   42.4963 H   0  0  0  0  0  0  0  0  0  0  0  0
   36.6665   27.9878   44.6362 H   0  0  0  0  0  0  0  0  0  0  0  0
   38.2112   27.1501   44.3922 H   0  0  0  0  0  0  0  0  0  0  0  0
   37.3557   29.9016   43.4871 H   0  0  0  0  0  0  0  0  0  0  0  0
   38.9598   29.3848   43.8774 H   0  0  0  0  0  0  0  0  0  0  0  0
   39.0995   28.0323   41.7397 H   0  0  0  0  0  0  0  0  0  0  0  0
   34.8788   29.7079   41.3874 H   0  0  0  0  0  0  0  0  0  0  0  0
   37.2246   26.7261   39.2890 H   0  0  0  0  0  0  0  0  0  0  0  0
   32.2543   29.5128   38.5337 H   0  0  0  0  0  0  0  0  0  0  0  0
   30.6331   29.9613   36.6239 H   0  0  0  0  0  0  0  0  0  0  0  0
   31.5287   29.2106   33.1177 H   0  0  0  0  0  0  0  0  0  0  0  0
   30.2746   29.8417   34.2185 H   0  0  0  0  0  0  0  0  0  0  0  0
   37.4276   31.3232   41.8539 H   0  0  0  0  0  0  0  0  0  0  0  0
   40.5696   30.0128   38.4565 H   0  0  0  0  0  0  0  0  0  0  0  0
   37.9691   33.6309   41.3018 H   0  0  0  0  0  0  0  0  0  0  0  0
   38.7832   34.0200   39.7486 H   0  0  0  0  0  0  0  0  0  0  0  0
   37.0959   33.4037   39.7486 H   0  0  0  0  0  0  0  0  0  0  0  0
  1  5  1  0
  1  2  1  0
  2  3  1  0
  4  3  1  0
  5  4  1  0
  6  7  2  0
  7  1  1  0
  8  7  1  0
  9 10  1  0
  9  8  2  0
 10 11  2  0
 11  6  1  0
 12 13  1  0
 12 10  1  0
 14 13  2  0
 15 14  1  0
 16 15  1  0
 17 15  2  0
 17 18  1  0
 18 12  1  0
 19 18  2  0
 20 21  1  0
 20  5  1  0
 22 28  1  0
 22 21  2  0
 23 22  1  0
 24 23  2  0
 25 23  1  0
 25 26  1  0
 26 20  1  0
 27 26  2  0
  2 29  1  0
  2 30  1  0
  3 31  1  0
  3 32  1  0
  4 33  1  0
  4 34  1  0
  5 35  1  1
  6 36  1  0
  8 37  1  0
 13 38  1  0
 14 39  1  0
 16 40  1  0
 16 41  1  0
 21 42  1  0
 25 43  1  0
 28 44  1  0
 28 45  1  0
 28 46  1  0
M  ISO  8  29  13  30  13  31  13  32  13  33  13  34  13  35  13  36  14
M  ISO  8  37  14  38  14  39  14  42  14  43   9  44   8  45   8  46   8
M  END
>  <minimizedAffinity>  (1) 
-6.16885614

>  <minimizedRMSD>  (1) 
0.252626747

$$$$
