
     RDKit          3D

 45 48  0  0  1  0  0  0  0  0999 V2000
   37.0200   27.9950   41.6020 N   0  0  0  0  0  0  0  0  0  0  0  0
   36.8790   27.0460   42.6810 C   0  0  0  0  0  0  0  0  0  0  0  0
   37.5030   27.7420   43.8820 C   0  0  0  0  0  0  0  0  0  0  0  0
   38.1300   29.0090   43.3540 C   0  0  0  0  0  0  0  0  0  0  0  0
   38.2680   28.6540   41.8850 C   0  0  2  0  0  0  0  0  0  0  0  0
   38.6090   29.7370   41.0410 N   0  0  0  0  0  0  0  0  0  0  0  0
   38.1970   31.0040   41.0860 C   0  0  0  0  0  0  0  0  0  0  0  0
   38.6290   31.9490   40.1760 C   0  0  0  0  0  0  0  0  0  0  0  0
   39.5180   31.6150   39.1730 C   0  0  0  0  0  0  0  0  0  0  0  0
   39.9110   32.4660   38.3480 O   0  0  0  0  0  0  0  0  0  0  0  0
   39.9150   30.3280   39.1570 N   0  0  0  0  0  0  0  0  0  0  0  0
   39.4840   29.4150   40.0510 C   0  0  0  0  0  0  0  0  0  0  0  0
   39.9640   28.2300   39.8890 O   0  0  0  0  0  0  0  0  0  0  0  0
   38.1320   33.3410   40.2800 C   0  0  0  0  0  0  0  0  0  0  0  0
   35.0900   29.1340   40.5550 C   0  0  0  0  0  0  0  0  0  0  0  0
   36.1660   28.2430   40.5240 C   0  0  0  0  0  0  0  0  0  0  0  0
   36.3950   27.5480   39.3130 C   0  0  0  0  0  0  0  0  0  0  0  0
   35.5610   27.7890   38.2650 N   0  0  0  0  0  0  0  0  0  0  0  0
   34.5420   28.6540   38.3400 C   0  0  0  0  0  0  0  0  0  0  0  0
   34.3130   29.3230   39.4930 N   0  0  0  0  0  0  0  0  0  0  0  0
   33.6340   28.9320   37.2320 C   0  0  0  0  0  0  0  0  0  0  0  0
   34.0710   28.8140   35.9280 C   0  0  0  0  0  0  0  0  0  0  0  0
   33.2180   29.0750   34.8890 C   0  0  0  0  0  0  0  0  0  0  0  0
   31.9030   29.4620   35.0730 C   0  0  0  0  0  0  0  0  0  0  0  0
   31.4620   29.5820   36.3780 C   0  0  0  0  0  0  0  0  0  0  0  0
   32.3180   29.3200   37.4140 C   0  0  0  0  0  0  0  0  0  0  0  0
   35.8180   26.8240   42.8678 H   0  0  0  0  0  0  0  0  0  0  0  0
   37.3611   26.0829   42.4576 H   0  0  0  0  0  0  0  0  0  0  0  0
   36.7309   27.9807   44.6283 H   0  0  0  0  0  0  0  0  0  0  0  0
   38.2484   27.1006   44.3750 H   0  0  0  0  0  0  0  0  0  0  0  0
   37.4741   29.8796   43.5021 H   0  0  0  0  0  0  0  0  0  0  0  0
   39.0699   29.2970   43.8475 H   0  0  0  0  0  0  0  0  0  0  0  0
   39.1295   28.0031   41.6749 H   0  0  0  0  0  0  0  0  0  0  0  0
   37.4905   31.3065   41.8729 H   0  0  0  0  0  0  0  0  0  0  0  0
   40.5782   30.0274   38.4285 H   0  0  0  0  0  0  0  0  0  0  0  0
   38.0335   33.6169   41.3403 H   0  0  0  0  0  0  0  0  0  0  0  0
   38.8426   34.0217   39.7885 H   0  0  0  0  0  0  0  0  0  0  0  0
   37.1509   33.4177   39.7885 H   0  0  0  0  0  0  0  0  0  0  0  0
   34.8810   29.6920   41.4797 H   0  0  0  0  0  0  0  0  0  0  0  0
   37.2250   26.8320   39.2211 H   0  0  0  0  0  0  0  0  0  0  0  0
   35.1078   28.5093   35.7228 H   0  0  0  0  0  0  0  0  0  0  0  0
   33.5959   28.9722   33.8611 H   0  0  0  0  0  0  0  0  0  0  0  0
   31.2384   29.6650   34.2203 H   0  0  0  0  0  0  0  0  0  0  0  0
   30.4254   29.8874   36.5835 H   0  0  0  0  0  0  0  0  0  0  0  0
   31.9410   29.4230   38.4422 H   0  0  0  0  0  0  0  0  0  0  0  0
  1  5  1  0
  1  2  1  0
  2  3  1  0
  4  3  1  0
  5  4  1  0
  6  7  1  0
  6  5  1  0
  8 14  1  0
  8  7  2  0
  9  8  1  0
 10  9  2  0
 11  9  1  0
 11 12  1  0
 12  6  1  0
 13 12  2  0
 16 15  2  0
 16  1  1  0
 17 16  1  0
 18 19  1  0
 18 17  2  0
 19 20  2  0
 20 15  1  0
 21 26  1  0
 21 19  1  0
 22 21  2  0
 23 24  2  0
 23 22  1  0
 24 25  1  0
 25 26  2  0
  2 27  1  0
  2 28  1  0
  3 29  1  0
  3 30  1  0
  4 31  1  0
  4 32  1  0
  5 33  1  1
  7 34  1  0
 11 35  1  0
 14 36  1  0
 14 37  1  0
 14 38  1  0
 15 39  1  0
 17 40  1  0
 22 41  1  0
 23 42  1  0
 24 43  1  0
 25 44  1  0
 26 45  1  0
M  ISO  8  27  13  28  13  29  13  30  13  31  13  32  13  33  13  34  14
M  ISO  8  35   9  36   8  37   8  38   8  39  14  40  14  41  14  42  14
M  ISO  3  43  14  44  14  45  14
M  END
>  <minimizedAffinity>  (1) 
-5.98680401

>  <minimizedRMSD>  (1) 
0.489651263

$$$$
