
     RDKit          3D

 45 48  0  0  1  0  0  0  0  0999 V2000
   37.0160   27.9930   41.6060 N   0  0  0  0  0  0  0  0  0  0  0  0
   36.8780   27.0470   42.6910 C   0  0  0  0  0  0  0  0  0  0  0  0
   37.5140   27.7470   43.8860 C   0  0  0  0  0  0  0  0  0  0  0  0
   38.1160   29.0280   43.3520 C   0  0  0  0  0  0  0  0  0  0  0  0
   38.2600   28.6610   41.8830 C   0  0  2  0  0  0  0  0  0  0  0  0
   38.5950   29.7420   41.0320 N   0  0  0  0  0  0  0  0  0  0  0  0
   38.1720   31.0070   41.0720 C   0  0  0  0  0  0  0  0  0  0  0  0
   38.5970   31.9510   40.1600 C   0  0  0  0  0  0  0  0  0  0  0  0
   39.4830   31.6170   39.1640 C   0  0  0  0  0  0  0  0  0  0  0  0
   39.8710   32.4700   38.3360 O   0  0  0  0  0  0  0  0  0  0  0  0
   39.8960   30.3330   39.1460 N   0  0  0  0  0  0  0  0  0  0  0  0
   39.4700   29.4210   40.0470 C   0  0  0  0  0  0  0  0  0  0  0  0
   39.9590   28.2380   39.8910 O   0  0  0  0  0  0  0  0  0  0  0  0
   38.0900   33.3380   40.2570 C   0  0  0  0  0  0  0  0  0  0  0  0
   35.0770   29.1280   40.5600 C   0  0  0  0  0  0  0  0  0  0  0  0
   36.1570   28.2270   40.5250 C   0  0  0  0  0  0  0  0  0  0  0  0
   36.3850   27.5210   39.3250 C   0  0  0  0  0  0  0  0  0  0  0  0
   35.5490   27.7510   38.2770 N   0  0  0  0  0  0  0  0  0  0  0  0
   34.5280   28.6190   38.3500 C   0  0  0  0  0  0  0  0  0  0  0  0
   34.2990   29.2940   39.4770 N   0  0  0  0  0  0  0  0  0  0  0  0
   33.6600   28.8280   37.1960 C   0  0  0  0  0  0  0  0  0  0  0  0
   32.4130   29.4010   37.3250 C   0  0  0  0  0  0  0  0  0  0  0  0
   31.5170   29.6440   36.3020 C   0  0  0  0  0  0  0  0  0  0  0  0
   31.9460   29.2640   35.0460 C   0  0  0  0  0  0  0  0  0  0  0  0
   33.1860   28.6790   34.8170 C   0  0  0  0  0  0  0  0  0  0  0  0
   34.0060   28.4800   35.9070 C   0  0  0  0  0  0  0  0  0  0  0  0
   35.8174   26.8300   42.8859 H   0  0  0  0  0  0  0  0  0  0  0  0
   37.3541   26.0807   42.4684 H   0  0  0  0  0  0  0  0  0  0  0  0
   36.7518   27.9717   44.6466 H   0  0  0  0  0  0  0  0  0  0  0  0
   38.2764   27.1136   44.3630 H   0  0  0  0  0  0  0  0  0  0  0  0
   37.4422   29.8858   43.4942 H   0  0  0  0  0  0  0  0  0  0  0  0
   39.0483   29.3418   43.8443 H   0  0  0  0  0  0  0  0  0  0  0  0
   39.1252   28.0139   41.6767 H   0  0  0  0  0  0  0  0  0  0  0  0
   37.4620   31.3066   41.8569 H   0  0  0  0  0  0  0  0  0  0  0  0
   40.5614   30.0367   38.4177 H   0  0  0  0  0  0  0  0  0  0  0  0
   37.9877   33.6178   41.3159 H   0  0  0  0  0  0  0  0  0  0  0  0
   38.7963   34.0219   39.7636 H   0  0  0  0  0  0  0  0  0  0  0  0
   37.1092   33.4052   39.7636 H   0  0  0  0  0  0  0  0  0  0  0  0
   34.8687   29.6986   41.4771 H   0  0  0  0  0  0  0  0  0  0  0  0
   37.2154   26.8047   39.2393 H   0  0  0  0  0  0  0  0  0  0  0  0
   32.1017   29.6925   38.3390 H   0  0  0  0  0  0  0  0  0  0  0  0
   30.5340   30.1063   36.4754 H   0  0  0  0  0  0  0  0  0  0  0  0
   31.2772   29.4315   34.1889 H   0  0  0  0  0  0  0  0  0  0  0  0
   33.5009   28.3860   33.8046 H   0  0  0  0  0  0  0  0  0  0  0  0
   34.9903   28.0183   35.7396 H   0  0  0  0  0  0  0  0  0  0  0  0
  1  5  1  0
  1  2  1  0
  2  3  1  0
  4  3  1  0
  5  4  1  0
  6  7  1  0
  6  5  1  0
  8 14  1  0
  8  7  2  0
  9  8  1  0
 10  9  2  0
 11  9  1  0
 11 12  1  0
 12  6  1  0
 13 12  2  0
 16 15  2  0
 16  1  1  0
 17 16  1  0
 18 19  1  0
 18 17  2  0
 19 20  2  0
 20 15  1  0
 21 22  2  0
 21 19  1  0
 23 22  1  0
 24 23  2  0
 25 24  1  0
 25 26  2  0
 26 21  1  0
  2 27  1  0
  2 28  1  0
  3 29  1  0
  3 30  1  0
  4 31  1  0
  4 32  1  0
  5 33  1  1
  7 34  1  0
 11 35  1  0
 14 36  1  0
 14 37  1  0
 14 38  1  0
 15 39  1  0
 17 40  1  0
 22 41  1  0
 23 42  1  0
 24 43  1  0
 25 44  1  0
 26 45  1  0
M  ISO  8  27  13  28  13  29  13  30  13  31  13  32  13  33  13  34  14
M  ISO  8  35   9  36   8  37   8  38   8  39  14  40  14  41  14  42  14
M  ISO  3  43  14  44  14  45  14
M  END
>  <minimizedAffinity>  (1) 
-5.92403078

>  <minimizedRMSD>  (1) 
0.46325922

$$$$
