
     RDKit          3D

 47 50  0  0  1  0  0  0  0  0999 V2000
   36.9850   28.0010   41.6050 N   0  0  0  0  0  0  0  0  0  0  0  0
   36.8490   27.0790   42.7100 C   0  0  0  0  0  0  0  0  0  0  0  0
   37.4790   27.7990   43.8870 C   0  0  0  0  0  0  0  0  0  0  0  0
   38.0630   29.0840   43.3350 C   0  0  0  0  0  0  0  0  0  0  0  0
   38.2170   28.6880   41.8820 C   0  0  2  0  0  0  0  0  0  0  0  0
   35.0430   29.0840   40.5190 C   0  0  0  0  0  0  0  0  0  0  0  0
   36.1320   28.1970   40.5130 C   0  0  0  0  0  0  0  0  0  0  0  0
   36.3750   27.4640   39.3360 C   0  0  0  0  0  0  0  0  0  0  0  0
   35.5440   27.6580   38.2800 N   0  0  0  0  0  0  0  0  0  0  0  0
   34.5100   28.5150   38.3180 C   0  0  0  0  0  0  0  0  0  0  0  0
   34.2700   29.2170   39.4320 N   0  0  0  0  0  0  0  0  0  0  0  0
   33.6430   28.7040   37.1850 N   0  0  0  0  0  0  0  0  0  0  0  0
   33.8990   28.2870   35.8180 C   0  0  0  0  0  0  0  0  0  0  0  0
   33.1470   29.3240   35.0180 C   0  0  0  0  0  0  0  0  0  0  0  0
   31.9360   29.6200   35.8580 C   0  0  0  0  0  0  0  0  0  0  0  0
   32.3390   29.3700   37.2770 C   0  0  0  0  0  0  0  0  0  0  0  0
   38.5420   29.7540   41.0120 N   0  0  0  0  0  0  0  0  0  0  0  0
   38.0850   31.0050   40.9890 C   0  0  0  0  0  0  0  0  0  0  0  0
   38.5090   31.9340   40.0590 C   0  0  0  0  0  0  0  0  0  0  0  0
   39.4360   31.5990   39.1050 C   0  0  0  0  0  0  0  0  0  0  0  0
   39.8180   32.4390   38.2650 O   0  0  0  0  0  0  0  0  0  0  0  0
   39.8890   30.3330   39.1390 N   0  0  0  0  0  0  0  0  0  0  0  0
   39.4640   29.4310   40.0560 C   0  0  0  0  0  0  0  0  0  0  0  0
   39.9960   28.2610   39.9530 O   0  0  0  0  0  0  0  0  0  0  0  0
   37.9560   33.3060   40.0970 C   0  0  0  0  0  0  0  0  0  0  0  0
   35.7886   26.8640   42.9084 H   0  0  0  0  0  0  0  0  0  0  0  0
   37.3292   26.1103   42.5073 H   0  0  0  0  0  0  0  0  0  0  0  0
   36.7176   28.0228   44.6487 H   0  0  0  0  0  0  0  0  0  0  0  0
   38.2526   27.1813   44.3666 H   0  0  0  0  0  0  0  0  0  0  0  0
   37.3745   29.9330   43.4577 H   0  0  0  0  0  0  0  0  0  0  0  0
   38.9858   29.4265   43.8261 H   0  0  0  0  0  0  0  0  0  0  0  0
   39.0900   28.0440   41.7002 H   0  0  0  0  0  0  0  0  0  0  0  0
   34.8231   29.6733   41.4214 H   0  0  0  0  0  0  0  0  0  0  0  0
   37.2136   26.7548   39.2737 H   0  0  0  0  0  0  0  0  0  0  0  0
   34.9747   28.3107   35.5893 H   0  0  0  0  0  0  0  0  0  0  0  0
   33.5840   27.2545   35.6065 H   0  0  0  0  0  0  0  0  0  0  0  0
   33.7570   30.2286   34.8783 H   0  0  0  0  0  0  0  0  0  0  0  0
   32.8876   28.9745   34.0078 H   0  0  0  0  0  0  0  0  0  0  0  0
   31.6291   30.6683   35.7281 H   0  0  0  0  0  0  0  0  0  0  0  0
   31.0832   28.9890   35.5671 H   0  0  0  0  0  0  0  0  0  0  0  0
   31.6068   28.7205   37.7790 H   0  0  0  0  0  0  0  0  0  0  0  0
   32.3879   30.2988   37.8643 H   0  0  0  0  0  0  0  0  0  0  0  0
   37.3411   31.3100   41.7397 H   0  0  0  0  0  0  0  0  0  0  0  0
   40.5862   30.0379   38.4406 H   0  0  0  0  0  0  0  0  0  0  0  0
   37.8289   33.6213   41.1432 H   0  0  0  0  0  0  0  0  0  0  0  0
   38.6470   33.9941   39.5880 H   0  0  0  0  0  0  0  0  0  0  0  0
   36.9810   33.3226   39.5880 H   0  0  0  0  0  0  0  0  0  0  0  0
  1  5  1  0
  1  2  1  0
  2  3  1  0
  4  3  1  0
  5  4  1  0
  7  6  2  0
  7  1  1  0
  8  7  1  0
  9 10  1  0
  9  8  2  0
 10 11  2  0
 11  6  1  0
 12 16  1  0
 12 10  1  0
 13 12  1  0
 14 13  1  0
 14 15  1  0
 15 16  1  0
 17  5  1  0
 18 17  1  0
 19 25  1  0
 19 18  2  0
 20 22  1  0
 20 19  1  0
 21 20  2  0
 22 23  1  0
 23 17  1  0
 24 23  2  0
  2 26  1  0
  2 27  1  0
  3 28  1  0
  3 29  1  0
  4 30  1  0
  4 31  1  0
  5 32  1  1
  6 33  1  0
  8 34  1  0
 13 35  1  0
 13 36  1  0
 14 37  1  0
 14 38  1  0
 15 39  1  0
 15 40  1  0
 16 41  1  0
 16 42  1  0
 18 43  1  0
 22 44  1  0
 25 45  1  0
 25 46  1  0
 25 47  1  0
M  ISO  8  26  13  27  13  28  13  29  13  30  13  31  13  32  13  33  14
M  ISO  8  34  14  35  13  36  13  37  13  38  13  39  13  40  13  41  13
M  ISO  6  42  13  43  14  44   9  45   8  46   8  47   8
M  END
>  <minimizedAffinity>  (1) 
-5.88829327

>  <minimizedRMSD>  (1) 
0.218697235

$$$$
