
     RDKit          3D

 42 45  0  0  1  0  0  0  0  0999 V2000
   36.9230   28.0390   41.6650 N   0  0  0  0  0  0  0  0  0  0  0  0
   36.7430   27.1350   42.7750 C   0  0  0  0  0  0  0  0  0  0  0  0
   37.2870   27.8990   43.9750 C   0  0  0  0  0  0  0  0  0  0  0  0
   37.9220   29.1540   43.4230 C   0  0  0  0  0  0  0  0  0  0  0  0
   38.1360   28.7430   41.9840 C   0  0  2  0  0  0  0  0  0  0  0  0
   35.0350   29.0810   40.4560 C   0  0  0  0  0  0  0  0  0  0  0  0
   36.1250   28.2090   40.5360 C   0  0  0  0  0  0  0  0  0  0  0  0
   36.4270   27.4520   39.3810 C   0  0  0  0  0  0  0  0  0  0  0  0
   35.6500   27.6150   38.2770 N   0  0  0  0  0  0  0  0  0  0  0  0
   34.6070   28.4750   38.2540 C   0  0  0  0  0  0  0  0  0  0  0  0
   34.3120   29.1950   39.3420 N   0  0  0  0  0  0  0  0  0  0  0  0
   33.8180   28.6240   37.0960 N   0  0  0  0  0  0  0  0  0  0  0  0
   32.6430   29.2000   36.8380 C   0  0  0  0  0  0  0  0  0  0  0  0
   32.3980   29.0060   35.4820 C   0  0  0  0  0  0  0  0  0  0  0  0
   33.4450   28.3100   34.9590 N   0  0  0  0  0  0  0  0  0  0  0  0
   34.3340   28.0710   35.9660 C   0  0  0  0  0  0  0  0  0  0  0  0
   38.5050   29.7880   41.1030 N   0  0  0  0  0  0  0  0  0  0  0  0
   38.0270   31.0290   41.0300 C   0  0  0  0  0  0  0  0  0  0  0  0
   38.4960   31.9440   40.1050 C   0  0  0  0  0  0  0  0  0  0  0  0
   39.4900   31.6020   39.2090 C   0  0  0  0  0  0  0  0  0  0  0  0
   39.9150   32.4240   38.3710 O   0  0  0  0  0  0  0  0  0  0  0  0
   39.9520   30.3420   39.3090 N   0  0  0  0  0  0  0  0  0  0  0  0
   39.4830   29.4580   40.2190 C   0  0  0  0  0  0  0  0  0  0  0  0
   40.0360   28.2930   40.1760 O   0  0  0  0  0  0  0  0  0  0  0  0
   37.9200   33.3070   40.0780 C   0  0  0  0  0  0  0  0  0  0  0  0
   35.6782   26.8969   42.9148 H   0  0  0  0  0  0  0  0  0  0  0  0
   37.2554   26.1738   42.6214 H   0  0  0  0  0  0  0  0  0  0  0  0
   36.4702   28.1568   44.6652 H   0  0  0  0  0  0  0  0  0  0  0  0
   38.0145   27.2959   44.5380 H   0  0  0  0  0  0  0  0  0  0  0  0
   37.2475   30.0193   43.5024 H   0  0  0  0  0  0  0  0  0  0  0  0
   38.8330   29.4766   43.9484 H   0  0  0  0  0  0  0  0  0  0  0  0
   39.0228   28.1057   41.8520 H   0  0  0  0  0  0  0  0  0  0  0  0
   34.7676   29.6877   41.3337 H   0  0  0  0  0  0  0  0  0  0  0  0
   37.2714   26.7471   39.3754 H   0  0  0  0  0  0  0  0  0  0  0  0
   31.9953   29.7249   37.5556 H   0  0  0  0  0  0  0  0  0  0  0  0
   31.5130   29.3541   34.9291 H   0  0  0  0  0  0  0  0  0  0  0  0
   35.2890   27.5320   35.8799 H   0  0  0  0  0  0  0  0  0  0  0  0
   37.2339   31.3360   41.7277 H   0  0  0  0  0  0  0  0  0  0  0  0
   40.6953   30.0374   38.6643 H   0  0  0  0  0  0  0  0  0  0  0  0
   37.7699   33.6621   41.1082 H   0  0  0  0  0  0  0  0  0  0  0  0
   38.6083   33.9856   39.5529 H   0  0  0  0  0  0  0  0  0  0  0  0
   36.9537   33.2864   39.5529 H   0  0  0  0  0  0  0  0  0  0  0  0
  1  5  1  0
  1  2  1  0
  2  3  1  0
  4  3  1  0
  5  4  1  0
  6  7  2  0
  7  1  1  0
  8  7  1  0
  9  8  2  0
 10  9  1  0
 10 11  2  0
 11  6  1  0
 12 10  1  0
 13 12  1  0
 14 13  2  0
 15 14  1  0
 15 16  2  0
 16 12  1  0
 17  5  1  0
 18 17  1  0
 19 18  2  0
 20 22  1  0
 20 19  1  0
 21 20  2  0
 22 23  1  0
 23 17  1  0
 24 23  2  0
 25 19  1  0
  2 26  1  0
  2 27  1  0
  3 28  1  0
  3 29  1  0
  4 30  1  0
  4 31  1  0
  5 32  1  1
  6 33  1  0
  8 34  1  0
 13 35  1  0
 14 36  1  0
 16 37  1  0
 18 38  1  0
 22 39  1  0
 25 40  1  0
 25 41  1  0
 25 42  1  0
M  ISO  8  26  13  27  13  28  13  29  13  30  13  31  13  32  13  33  14
M  ISO  8  34  14  35  14  36  14  37  14  38  14  39   9  40   8  41   8
M  ISO  1  42   8
M  END
>  <minimizedAffinity>  (1) 
-5.71372271

>  <minimizedRMSD>  (1) 
0.095873639

$$$$
