
     RDKit          3D

 43 46  0  0  1  0  0  0  0  0999 V2000
   36.9560   28.0280   41.6710 N   0  0  0  0  0  0  0  0  0  0  0  0
   36.8000   27.1290   42.7890 C   0  0  0  0  0  0  0  0  0  0  0  0
   37.3830   27.8940   43.9780 C   0  0  0  0  0  0  0  0  0  0  0  0
   37.9750   29.1570   43.4060 C   0  0  0  0  0  0  0  0  0  0  0  0
   38.1760   28.7320   41.9630 C   0  0  2  0  0  0  0  0  0  0  0  0
   38.5180   29.7810   41.0800 N   0  0  0  0  0  0  0  0  0  0  0  0
   38.0430   31.0250   41.0180 C   0  0  0  0  0  0  0  0  0  0  0  0
   38.4940   31.9290   40.0810 C   0  0  0  0  0  0  0  0  0  0  0  0
   39.4600   31.5890   39.1590 C   0  0  0  0  0  0  0  0  0  0  0  0
   39.8640   32.4150   38.3120 O   0  0  0  0  0  0  0  0  0  0  0  0
   39.9210   30.3300   39.2440 N   0  0  0  0  0  0  0  0  0  0  0  0
   39.4730   29.4500   40.1670 C   0  0  0  0  0  0  0  0  0  0  0  0
   40.0210   28.2850   40.1090 O   0  0  0  0  0  0  0  0  0  0  0  0
   37.9160   33.3030   40.0720 C   0  0  0  0  0  0  0  0  0  0  0  0
   35.0510   29.0810   40.4970 C   0  0  0  0  0  0  0  0  0  0  0  0
   36.1330   28.1970   40.5550 C   0  0  0  0  0  0  0  0  0  0  0  0
   36.4100   27.4240   39.4000 C   0  0  0  0  0  0  0  0  0  0  0  0
   35.6060   27.5940   38.3170 N   0  0  0  0  0  0  0  0  0  0  0  0
   34.5780   28.4520   38.3050 C   0  0  0  0  0  0  0  0  0  0  0  0
   34.3060   29.1840   39.3810 N   0  0  0  0  0  0  0  0  0  0  0  0
   33.7820   28.5520   37.0880 C   0  0  0  0  0  0  0  0  0  0  0  0
   32.5720   29.2140   37.0380 C   0  0  0  0  0  0  0  0  0  0  0  0
   31.8710   29.2620   35.8270 C   0  0  0  0  0  0  0  0  0  0  0  0
   32.3650   28.6750   34.7320 N   0  0  0  0  0  0  0  0  0  0  0  0
   33.5600   28.0220   34.7770 C   0  0  0  0  0  0  0  0  0  0  0  0
   34.2180   27.9850   35.9480 N   0  0  0  0  0  0  0  0  0  0  0  0
   35.7377   26.8986   42.9577 H   0  0  0  0  0  0  0  0  0  0  0  0
   37.3028   26.1646   42.6243 H   0  0  0  0  0  0  0  0  0  0  0  0
   36.5915   28.1363   44.7024 H   0  0  0  0  0  0  0  0  0  0  0  0
   38.1392   27.2983   44.5102 H   0  0  0  0  0  0  0  0  0  0  0  0
   37.2799   30.0056   43.4874 H   0  0  0  0  0  0  0  0  0  0  0  0
   38.8849   29.5102   43.9133 H   0  0  0  0  0  0  0  0  0  0  0  0
   39.0600   28.0941   41.8158 H   0  0  0  0  0  0  0  0  0  0  0  0
   37.2696   31.3385   41.7347 H   0  0  0  0  0  0  0  0  0  0  0  0
   40.6451   30.0229   38.5790 H   0  0  0  0  0  0  0  0  0  0  0  0
   37.7714   33.6467   41.1069 H   0  0  0  0  0  0  0  0  0  0  0  0
   38.6029   33.9864   39.5512 H   0  0  0  0  0  0  0  0  0  0  0  0
   36.9472   33.2898   39.5512 H   0  0  0  0  0  0  0  0  0  0  0  0
   34.8061   29.6991   41.3734 H   0  0  0  0  0  0  0  0  0  0  0  0
   37.2471   26.7107   39.3804 H   0  0  0  0  0  0  0  0  0  0  0  0
   32.1638   29.6975   37.9377 H   0  0  0  0  0  0  0  0  0  0  0  0
   30.9057   29.7870   35.7760 H   0  0  0  0  0  0  0  0  0  0  0  0
   33.9744   27.5387   33.8800 H   0  0  0  0  0  0  0  0  0  0  0  0
  1  5  1  0
  1  2  1  0
  2  3  1  0
  4  3  1  0
  5  4  1  0
  6  5  1  0
  7  6  1  0
  8  7  2  0
  9 11  1  0
  9  8  1  0
 10  9  2  0
 11 12  1  0
 12  6  1  0
 13 12  2  0
 14  8  1  0
 15 16  2  0
 16  1  1  0
 17 16  1  0
 18 17  2  0
 19 18  1  0
 19 20  2  0
 20 15  1  0
 21 19  1  0
 22 21  2  0
 23 22  1  0
 24 25  1  0
 24 23  2  0
 25 26  2  0
 26 21  1  0
  2 27  1  0
  2 28  1  0
  3 29  1  0
  3 30  1  0
  4 31  1  0
  4 32  1  0
  5 33  1  1
  7 34  1  0
 11 35  1  0
 14 36  1  0
 14 37  1  0
 14 38  1  0
 15 39  1  0
 17 40  1  0
 22 41  1  0
 23 42  1  0
 25 43  1  0
M  ISO  8  27  13  28  13  29  13  30  13  31  13  32  13  33  13  34  14
M  ISO  8  35   9  36   8  37   8  38   8  39  14  40  14  41  14  42  14
M  ISO  1  43  14
M  END
>  <minimizedAffinity>  (1) 
-5.67102623

>  <minimizedRMSD>  (1) 
0.152308285

$$$$
