
     RDKit          3D

 42 45  0  0  1  0  0  0  0  0999 V2000
   36.9960   27.9970   41.6060 N   0  0  0  0  0  0  0  0  0  0  0  0
   36.8730   27.0670   42.7030 C   0  0  0  0  0  0  0  0  0  0  0  0
   37.5080   27.7910   43.8870 C   0  0  0  0  0  0  0  0  0  0  0  0
   38.1060   29.0620   43.3270 C   0  0  0  0  0  0  0  0  0  0  0  0
   38.2380   28.6770   41.8650 C   0  0  2  0  0  0  0  0  0  0  0  0
   38.5550   29.7440   41.0000 N   0  0  0  0  0  0  0  0  0  0  0  0
   38.1060   30.9990   40.9960 C   0  0  0  0  0  0  0  0  0  0  0  0
   38.5270   31.9260   40.0650 C   0  0  0  0  0  0  0  0  0  0  0  0
   39.4400   31.5970   39.0850 C   0  0  0  0  0  0  0  0  0  0  0  0
   39.8130   32.4400   38.2510 O   0  0  0  0  0  0  0  0  0  0  0  0
   39.8740   30.3280   39.1130 N   0  0  0  0  0  0  0  0  0  0  0  0
   39.4570   29.4230   40.0280 C   0  0  0  0  0  0  0  0  0  0  0  0
   39.9780   28.2490   39.9070 O   0  0  0  0  0  0  0  0  0  0  0  0
   37.9810   33.3080   40.1260 C   0  0  0  0  0  0  0  0  0  0  0  0
   35.0570   29.1050   40.5420 C   0  0  0  0  0  0  0  0  0  0  0  0
   36.1300   28.2070   40.5340 C   0  0  0  0  0  0  0  0  0  0  0  0
   36.3430   27.4650   39.3460 C   0  0  0  0  0  0  0  0  0  0  0  0
   35.5000   27.6690   38.3000 N   0  0  0  0  0  0  0  0  0  0  0  0
   34.4790   28.5430   38.3530 C   0  0  0  0  0  0  0  0  0  0  0  0
   34.2660   29.2560   39.4810 N   0  0  0  0  0  0  0  0  0  0  0  0
   33.5820   28.7440   37.2100 C   0  0  0  0  0  0  0  0  0  0  0  0
   34.0240   28.8690   35.8930 C   0  0  0  0  0  0  0  0  0  0  0  0
   32.9060   29.0410   35.1310 N   0  0  0  0  0  0  0  0  0  0  0  0
   31.8770   29.0140   35.9950 C   0  0  0  0  0  0  0  0  0  0  0  0
   32.2220   28.8380   37.2620 N   0  0  0  0  0  0  0  0  0  0  0  0
   35.8156   26.8420   42.9059 H   0  0  0  0  0  0  0  0  0  0  0  0
   37.3583   26.1027   42.4918 H   0  0  0  0  0  0  0  0  0  0  0  0
   36.7454   28.0284   44.6434 H   0  0  0  0  0  0  0  0  0  0  0  0
   38.2712   27.1688   44.3772 H   0  0  0  0  0  0  0  0  0  0  0  0
   37.4340   29.9223   43.4624 H   0  0  0  0  0  0  0  0  0  0  0  0
   39.0436   29.3803   43.8062 H   0  0  0  0  0  0  0  0  0  0  0  0
   39.1060   28.0326   41.6617 H   0  0  0  0  0  0  0  0  0  0  0  0
   37.3761   31.3055   41.7598 H   0  0  0  0  0  0  0  0  0  0  0  0
   40.5578   30.0282   38.4035 H   0  0  0  0  0  0  0  0  0  0  0  0
   37.8620   33.6092   41.1773 H   0  0  0  0  0  0  0  0  0  0  0  0
   38.6739   33.9985   39.6229 H   0  0  0  0  0  0  0  0  0  0  0  0
   37.0033   33.3385   39.6229 H   0  0  0  0  0  0  0  0  0  0  0  0
   34.8620   29.7005   41.4461 H   0  0  0  0  0  0  0  0  0  0  0  0
   37.1693   26.7426   39.2723 H   0  0  0  0  0  0  0  0  0  0  0  0
   35.0652   28.8356   35.5398 H   0  0  0  0  0  0  0  0  0  0  0  0
   30.8307   29.1290   35.6754 H   0  0  0  0  0  0  0  0  0  0  0  0
   31.6098   28.7849   38.0886 H   0  0  0  0  0  0  0  0  0  0  0  0
  1  5  1  0
  1  2  1  0
  2  3  1  0
  4  3  1  0
  5  4  1  0
  6  5  1  0
  7  6  1  0
  8 14  1  0
  8  7  2  0
  9 11  1  0
  9  8  1  0
 10  9  2  0
 11 12  1  0
 12  6  1  0
 13 12  2  0
 16 15  2  0
 16  1  1  0
 17 16  1  0
 18 19  1  0
 18 17  2  0
 19 20  2  0
 20 15  1  0
 21 25  1  0
 21 19  1  0
 22 21  2  0
 23 22  1  0
 23 24  2  0
 24 25  1  0
  2 26  1  0
  2 27  1  0
  3 28  1  0
  3 29  1  0
  4 30  1  0
  4 31  1  0
  5 32  1  1
  7 33  1  0
 11 34  1  0
 14 35  1  0
 14 36  1  0
 14 37  1  0
 15 38  1  0
 17 39  1  0
 22 40  1  0
 24 41  1  0
 25 42  1  0
M  ISO  8  26  13  27  13  28  13  29  13  30  13  31  13  32  13  33  14
M  ISO  8  34   9  35   8  36   8  37   8  38  14  39  14  40  14  41  14
M  ISO  1  42   9
M  END
>  <minimizedAffinity>  (1) 
-5.62854671

>  <minimizedRMSD>  (1) 
0.523631215

$$$$
