
     RDKit          3D

 38 40  0  0  1  0  0  0  0  0999 V2000
   36.9910   27.9930   41.6190 N   0  0  0  0  0  0  0  0  0  0  0  0
   36.8760   27.0760   42.7300 C   0  0  0  0  0  0  0  0  0  0  0  0
   37.4890   27.8250   43.9060 C   0  0  0  0  0  0  0  0  0  0  0  0
   38.0790   29.0940   43.3330 C   0  0  0  0  0  0  0  0  0  0  0  0
   38.2240   28.6870   41.8810 C   0  0  2  0  0  0  0  0  0  0  0  0
   38.5400   29.7500   40.9970 N   0  0  0  0  0  0  0  0  0  0  0  0
   38.0880   31.0040   40.9870 C   0  0  0  0  0  0  0  0  0  0  0  0
   38.5070   31.9210   40.0410 C   0  0  0  0  0  0  0  0  0  0  0  0
   39.4060   31.5870   39.0670 C   0  0  0  0  0  0  0  0  0  0  0  0
   39.7840   32.4180   38.2130 O   0  0  0  0  0  0  0  0  0  0  0  0
   39.8540   30.3030   39.0970 N   0  0  0  0  0  0  0  0  0  0  0  0
   39.4370   29.4180   40.0280 C   0  0  0  0  0  0  0  0  0  0  0  0
   39.9560   28.2450   39.9160 O   0  0  0  0  0  0  0  0  0  0  0  0
   37.9550   33.3030   40.0950 C   0  0  0  0  0  0  0  0  0  0  0  0
   35.0580   29.0820   40.5220 C   0  0  0  0  0  0  0  0  0  0  0  0
   36.1290   28.1810   40.5360 C   0  0  0  0  0  0  0  0  0  0  0  0
   36.3400   27.4160   39.3710 C   0  0  0  0  0  0  0  0  0  0  0  0
   35.5000   27.5990   38.3180 N   0  0  0  0  0  0  0  0  0  0  0  0
   34.4850   28.4790   38.3540 C   0  0  0  0  0  0  0  0  0  0  0  0
   34.2740   29.2110   39.4540 N   0  0  0  0  0  0  0  0  0  0  0  0
   33.5750   28.6610   37.1800 C   0  0  0  0  0  0  0  0  0  0  0  0
   32.4880   29.4370   37.5660 F   0  0  0  0  0  0  0  0  0  0  0  0
   34.2370   29.3240   36.1840 F   0  0  0  0  0  0  0  0  0  0  0  0
   33.1230   27.4170   36.7650 F   0  0  0  0  0  0  0  0  0  0  0  0
   35.8211   26.8361   42.9288 H   0  0  0  0  0  0  0  0  0  0  0  0
   37.3794   26.1175   42.5357 H   0  0  0  0  0  0  0  0  0  0  0  0
   36.7157   28.0657   44.6503 H   0  0  0  0  0  0  0  0  0  0  0  0
   38.2543   27.2193   44.4135 H   0  0  0  0  0  0  0  0  0  0  0  0
   37.3980   29.9498   43.4507 H   0  0  0  0  0  0  0  0  0  0  0  0
   39.0093   29.4299   43.8143 H   0  0  0  0  0  0  0  0  0  0  0  0
   39.0982   28.0450   41.6976 H   0  0  0  0  0  0  0  0  0  0  0  0
   37.3623   31.3176   41.7518 H   0  0  0  0  0  0  0  0  0  0  0  0
   40.5334   29.9957   38.3865 H   0  0  0  0  0  0  0  0  0  0  0  0
   37.8330   33.6084   41.1447 H   0  0  0  0  0  0  0  0  0  0  0  0
   38.6462   33.9939   39.5901 H   0  0  0  0  0  0  0  0  0  0  0  0
   36.9780   33.3276   39.5901 H   0  0  0  0  0  0  0  0  0  0  0  0
   34.8599   29.6966   41.4125 H   0  0  0  0  0  0  0  0  0  0  0  0
   37.1638   26.6891   39.3154 H   0  0  0  0  0  0  0  0  0  0  0  0
  1  5  1  0
  1  2  1  0
  2  3  1  0
  4  3  1  0
  5  4  1  0
  6  5  1  0
  7  6  1  0
  8 14  1  0
  8  7  2  0
  9 11  1  0
  9  8  1  0
 10  9  2  0
 11 12  1  0
 12  6  1  0
 13 12  2  0
 15 16  2  0
 16  1  1  0
 17 16  1  0
 18 19  1  0
 18 17  2  0
 19 20  2  0
 20 15  1  0
 21 22  1  0
 21 19  1  0
 23 21  1  0
 24 21  1  0
  2 25  1  0
  2 26  1  0
  3 27  1  0
  3 28  1  0
  4 29  1  0
  4 30  1  0
  5 31  1  1
  7 32  1  0
 11 33  1  0
 14 34  1  0
 14 35  1  0
 14 36  1  0
 15 37  1  0
 17 38  1  0
M  ISO  8  25  13  26  13  27  13  28  13  29  13  30  13  31  13  32  14
M  ISO  6  33   9  34   8  35   8  36   8  37  14  38  14
M  END
>  <minimizedAffinity>  (1) 
-5.53494835

>  <minimizedRMSD>  (1) 
0.432393104

$$$$
