
     RDKit          3D

 42 45  0  0  1  0  0  0  0  0999 V2000
   36.9290   27.9730   41.7380 N   0  0  0  0  0  0  0  0  0  0  0  0
   36.7650   27.1310   42.8980 C   0  0  0  0  0  0  0  0  0  0  0  0
   37.2360   27.9930   44.0660 C   0  0  0  0  0  0  0  0  0  0  0  0
   37.7930   29.2590   43.4480 C   0  0  0  0  0  0  0  0  0  0  0  0
   38.0900   28.7590   42.0490 C   0  0  2  0  0  0  0  0  0  0  0  0
   38.4320   29.7720   41.1100 N   0  0  0  0  0  0  0  0  0  0  0  0
   37.9470   31.0090   41.0030 C   0  0  0  0  0  0  0  0  0  0  0  0
   38.3860   31.8860   40.0250 C   0  0  0  0  0  0  0  0  0  0  0  0
   39.3500   31.5050   39.1200 C   0  0  0  0  0  0  0  0  0  0  0  0
   39.7500   32.2930   38.2350 O   0  0  0  0  0  0  0  0  0  0  0  0
   39.8250   30.2410   39.2540 N   0  0  0  0  0  0  0  0  0  0  0  0
   39.3800   29.4060   40.2160 C   0  0  0  0  0  0  0  0  0  0  0  0
   39.9320   28.2410   40.2050 O   0  0  0  0  0  0  0  0  0  0  0  0
   37.8060   33.2460   39.9620 C   0  0  0  0  0  0  0  0  0  0  0  0
   35.1260   28.9440   40.3570 C   0  0  0  0  0  0  0  0  0  0  0  0
   36.1560   28.0310   40.5730 C   0  0  0  0  0  0  0  0  0  0  0  0
   36.4370   27.0980   39.5420 C   0  0  0  0  0  0  0  0  0  0  0  0
   35.6850   27.1570   38.4120 N   0  0  0  0  0  0  0  0  0  0  0  0
   34.7010   28.0490   38.2370 C   0  0  0  0  0  0  0  0  0  0  0  0
   34.4290   28.9380   39.2150 N   0  0  0  0  0  0  0  0  0  0  0  0
   33.8990   28.0790   36.9800 C   0  0  0  0  0  0  0  0  0  0  0  0
   34.1360   29.2120   36.0350 C   0  0  0  0  0  0  0  0  0  0  0  0
   32.8880   29.2170   36.9100 C   0  0  0  0  0  0  0  0  0  0  0  0
   35.7102   26.8462   43.0256 H   0  0  0  0  0  0  0  0  0  0  0  0
   37.3316   26.1917   42.8164 H   0  0  0  0  0  0  0  0  0  0  0  0
   36.3926   28.2306   44.7310 H   0  0  0  0  0  0  0  0  0  0  0  0
   37.9916   27.4732   44.6733 H   0  0  0  0  0  0  0  0  0  0  0  0
   37.0513   30.0713   43.4425 H   0  0  0  0  0  0  0  0  0  0  0  0
   38.6536   29.6937   43.9775 H   0  0  0  0  0  0  0  0  0  0  0  0
   39.0122   28.1621   41.9923 H   0  0  0  0  0  0  0  0  0  0  0  0
   37.1754   31.3431   41.7123 H   0  0  0  0  0  0  0  0  0  0  0  0
   40.5483   29.9083   38.6005 H   0  0  0  0  0  0  0  0  0  0  0  0
   37.6450   33.6236   40.9825 H   0  0  0  0  0  0  0  0  0  0  0  0
   38.4971   33.9150   39.4283 H   0  0  0  0  0  0  0  0  0  0  0  0
   36.8448   33.2103   39.4283 H   0  0  0  0  0  0  0  0  0  0  0  0
   34.8823   29.6806   41.1368 H   0  0  0  0  0  0  0  0  0  0  0  0
   37.2372   26.3515   39.6537 H   0  0  0  0  0  0  0  0  0  0  0  0
   33.8748   26.9860   36.8589 H   0  0  0  0  0  0  0  0  0  0  0  0
   34.0448   29.0499   34.9508 H   0  0  0  0  0  0  0  0  0  0  0  0
   34.9634   29.9161   35.8626 H   0  0  0  0  0  0  0  0  0  0  0  0
   32.7987   29.9301   37.7428 H   0  0  0  0  0  0  0  0  0  0  0  0
   31.8052   29.2957   36.7331 H   0  0  0  0  0  0  0  0  0  0  0  0
  1  5  1  0
  1  2  1  0
  2  3  1  0
  4  3  1  0
  5  4  1  0
  6  5  1  0
  7  6  1  0
  8  7  2  0
  9 11  1  0
  9  8  1  0
 10  9  2  0
 11 12  1  0
 12  6  1  0
 13 12  2  0
 14  8  1  0
 15 16  2  0
 16  1  1  0
 17 16  1  0
 18 17  2  0
 19 18  1  0
 19 20  2  0
 20 15  1  0
 21 19  1  0
 22 23  1  0
 22 21  1  0
 23 21  1  0
  2 24  1  0
  2 25  1  0
  3 26  1  0
  3 27  1  0
  4 28  1  0
  4 29  1  0
  5 30  1  1
  7 31  1  0
 11 32  1  0
 14 33  1  0
 14 34  1  0
 14 35  1  0
 15 36  1  0
 17 37  1  0
 21 38  1  0
 22 39  1  0
 22 40  1  0
 23 41  1  0
 23 42  1  0
M  ISO  8  24  13  25  13  26  13  27  13  28  13  29  13  30  13  31  14
M  ISO  8  32   9  33   8  34   8  35   8  36  14  37  14  38  13  39  13
M  ISO  3  40  13  41  13  42  13
M  END
>  <minimizedAffinity>  (1) 
-5.3338542

>  <minimizedRMSD>  (1) 
0.247741342

$$$$
