
     RDKit          3D

 39 41  0  0  1  0  0  0  0  0999 V2000
   39.6870   29.5210   42.7360 N   0  0  0  0  0  0  0  0  0  0  0  0
   39.9020   30.9380   42.7640 C   0  0  0  0  0  0  0  0  0  0  0  0
   40.9990   31.1700   41.7260 C   0  0  0  0  0  0  0  0  0  0  0  0
   42.2050   30.6600   42.2780 N   0  0  0  0  0  0  0  0  0  0  0  0
   42.1560   29.3560   42.7970 C   0  0  0  0  0  0  0  0  0  0  0  0
   40.8380   28.6570   42.8180 C   0  0  2  0  0  0  0  0  0  0  0  0
   38.4140   28.8920   42.6330 C   0  0  0  0  0  0  0  0  0  0  0  0
   37.9460   27.9890   43.6210 C   0  0  0  0  0  0  0  0  0  0  0  0
   36.6900   27.4280   43.4290 C   0  0  0  0  0  0  0  0  0  0  0  0
   35.9860   27.7830   42.3030 N   0  0  0  0  0  0  0  0  0  0  0  0
   36.4770   28.6540   41.3840 C   0  0  0  0  0  0  0  0  0  0  0  0
   37.6820   29.1990   41.5560 N   0  0  0  0  0  0  0  0  0  0  0  0
   40.7690   27.5690   41.8080 C   0  0  0  0  0  0  0  0  0  0  0  0
   40.8560   26.3890   42.1760 O   0  0  0  0  0  0  0  0  0  0  0  0
   40.6280   27.3370   40.4300 N   0  0  0  0  0  0  0  0  0  0  0  0
   39.4990   26.5560   39.9800 C   0  0  0  0  0  0  0  0  0  0  0  0
   40.1150   25.3540   39.2510 C   0  0  0  0  0  0  0  0  0  0  0  0
   40.7200   25.7860   38.1010 O   0  0  0  0  0  0  0  0  0  0  0  0
   40.9580   27.1380   38.0520 C   0  0  0  0  0  0  0  0  0  0  0  0
   41.4520   27.7600   39.3140 C   0  0  0  0  0  0  0  0  0  0  0  0
   38.9838   31.4776   42.4888 H   0  0  0  0  0  0  0  0  0  0  0  0
   40.1828   31.3024   43.7632 H   0  0  0  0  0  0  0  0  0  0  0  0
   41.1028   32.2454   41.5194 H   0  0  0  0  0  0  0  0  0  0  0  0
   40.7566   30.6671   40.7782 H   0  0  0  0  0  0  0  0  0  0  0  0
   42.9192   30.6745   41.5359 H   0  0  0  0  0  0  0  0  0  0  0  0
   42.8429   28.7400   42.1980 H   0  0  0  0  0  0  0  0  0  0  0  0
   42.4202   29.4738   43.8583 H   0  0  0  0  0  0  0  0  0  0  0  0
   40.7866   28.2083   43.8210 H   0  0  0  0  0  0  0  0  0  0  0  0
   38.5535   27.7426   44.5043 H   0  0  0  0  0  0  0  0  0  0  0  0
   36.2702   26.7192   44.1579 H   0  0  0  0  0  0  0  0  0  0  0  0
   35.8799   28.9104   40.4964 H   0  0  0  0  0  0  0  0  0  0  0  0
   38.8944   26.2212   40.8358 H   0  0  0  0  0  0  0  0  0  0  0  0
   38.8280   27.1355   39.3289 H   0  0  0  0  0  0  0  0  0  0  0  0
   40.8609   24.8726   39.9006 H   0  0  0  0  0  0  0  0  0  0  0  0
   39.3262   24.6284   39.0033 H   0  0  0  0  0  0  0  0  0  0  0  0
   41.7103   27.3194   37.2703 H   0  0  0  0  0  0  0  0  0  0  0  0
   39.9818   27.6044   37.8534 H   0  0  0  0  0  0  0  0  0  0  0  0
   42.4923   27.4491   39.4906 H   0  0  0  0  0  0  0  0  0  0  0  0
   41.4009   28.8549   39.2215 H   0  0  0  0  0  0  0  0  0  0  0  0
  1  2  1  0
  1  6  1  0
  3  4  1  0
  3  2  1  0
  4  5  1  0
  5  6  1  0
  7  1  1  0
  7  8  2  0
  9  8  1  0
 10  9  2  0
 11 12  2  0
 11 10  1  0
 12  7  1  0
 13 14  2  0
 13  6  1  0
 15 13  1  0
 16 15  1  0
 17 16  1  0
 18 17  1  0
 19 18  1  0
 19 20  1  0
 20 15  1  0
  2 21  1  0
  2 22  1  0
  3 23  1  0
  3 24  1  0
  4 25  1  0
  5 26  1  0
  5 27  1  0
  6 28  1  1
  8 29  1  0
  9 30  1  0
 11 31  1  0
 16 32  1  0
 16 33  1  0
 17 34  1  0
 17 35  1  0
 19 36  1  0
 19 37  1  0
 20 38  1  0
 20 39  1  0
M  ISO  8  21  13  22  13  23  13  24  13  25   5  26  13  27  13  28  13
M  ISO  8  29  14  30  14  31  14  32  13  33  13  34  13  35  13  36  13
M  ISO  3  37  13  38  13  39  13
M  END
>  <minimizedAffinity>  (1) 
-3.58863926

>  <minimizedRMSD>  (1) 
0.134140402

$$$$
