
     RDKit          3D

 36 38  0  0  1  0  0  0  0  0999 V2000
   36.9290   28.0300   41.6630 N   0  0  0  0  0  0  0  0  0  0  0  0
   36.7570   27.1390   42.7850 C   0  0  0  0  0  0  0  0  0  0  0  0
   37.3160   27.9110   43.9780 C   0  0  0  0  0  0  0  0  0  0  0  0
   37.9150   29.1780   43.4080 C   0  0  0  0  0  0  0  0  0  0  0  0
   38.1370   28.7470   41.9760 C   0  0  2  0  0  0  0  0  0  0  0  0
   38.4930   29.7900   41.0790 N   0  0  0  0  0  0  0  0  0  0  0  0
   38.0080   31.0330   41.0060 C   0  0  0  0  0  0  0  0  0  0  0  0
   38.4650   31.9420   40.0650 C   0  0  0  0  0  0  0  0  0  0  0  0
   39.4450   31.5920   39.1610 C   0  0  0  0  0  0  0  0  0  0  0  0
   39.8580   32.4090   38.3120 O   0  0  0  0  0  0  0  0  0  0  0  0
   39.9140   30.3260   39.2640 N   0  0  0  0  0  0  0  0  0  0  0  0
   39.4570   29.4560   40.1870 C   0  0  0  0  0  0  0  0  0  0  0  0
   40.0120   28.2930   40.1450 O   0  0  0  0  0  0  0  0  0  0  0  0
   37.8900   33.3030   40.0310 C   0  0  0  0  0  0  0  0  0  0  0  0
   35.0350   29.0700   40.4430 C   0  0  0  0  0  0  0  0  0  0  0  0
   36.1270   28.1810   40.5260 C   0  0  0  0  0  0  0  0  0  0  0  0
   36.4260   27.4010   39.3940 C   0  0  0  0  0  0  0  0  0  0  0  0
   35.6370   27.5580   38.2910 N   0  0  0  0  0  0  0  0  0  0  0  0
   34.5960   28.4240   38.2550 C   0  0  0  0  0  0  0  0  0  0  0  0
   34.3090   29.1700   39.3340 N   0  0  0  0  0  0  0  0  0  0  0  0
   33.8230   28.5490   37.1120 O   0  0  0  0  0  0  0  0  0  0  0  0
   35.6926   26.9066   42.9369 H   0  0  0  0  0  0  0  0  0  0  0  0
   37.2666   26.1758   42.6352 H   0  0  0  0  0  0  0  0  0  0  0  0
   36.5114   28.1538   44.6877 H   0  0  0  0  0  0  0  0  0  0  0  0
   38.0654   27.3208   44.5258 H   0  0  0  0  0  0  0  0  0  0  0  0
   37.2165   30.0251   43.4751 H   0  0  0  0  0  0  0  0  0  0  0  0
   38.8159   29.5371   43.9271 H   0  0  0  0  0  0  0  0  0  0  0  0
   39.0294   28.1151   41.8566 H   0  0  0  0  0  0  0  0  0  0  0  0
   37.2241   31.3434   41.7125 H   0  0  0  0  0  0  0  0  0  0  0  0
   40.6484   30.0156   38.6119 H   0  0  0  0  0  0  0  0  0  0  0  0
   37.7381   33.6626   41.0594 H   0  0  0  0  0  0  0  0  0  0  0  0
   38.5793   33.9792   39.5042 H   0  0  0  0  0  0  0  0  0  0  0  0
   36.9246   33.2801   39.5042 H   0  0  0  0  0  0  0  0  0  0  0  0
   34.7792   29.6927   41.3130 H   0  0  0  0  0  0  0  0  0  0  0  0
   37.2654   26.6901   39.3975 H   0  0  0  0  0  0  0  0  0  0  0  0
   33.0641   29.1845   37.0947 H   0  0  0  0  0  0  0  0  0  0  0  0
  1  5  1  0
  1  2  1  0
  2  3  1  0
  4  3  1  0
  5  4  1  0
  6  5  1  0
  7  6  1  0
  8  7  2  0
  9 11  1  0
  9  8  1  0
 10  9  2  0
 11 12  1  0
 12  6  1  0
 13 12  2  0
 14  8  1  0
 15 16  2  0
 16  1  1  0
 17 16  1  0
 18 17  2  0
 19 18  1  0
 19 20  2  0
 20 15  1  0
 21 19  1  0
  2 22  1  0
  2 23  1  0
  3 24  1  0
  3 25  1  0
  4 26  1  0
  4 27  1  0
  5 28  1  1
  7 29  1  0
 11 30  1  0
 14 31  1  0
 14 32  1  0
 14 33  1  0
 15 34  1  0
 17 35  1  0
 21 36  1  0
M  ISO  8  22  13  23  13  24  13  25  13  26  13  27  13  28  13  29  14
M  ISO  7  30   9  31   8  32   8  33   8  34  14  35  14  36   3
M  END
>  <minimizedAffinity>  (1) 
-5.1292696

>  <minimizedRMSD>  (1) 
0.0405039378

$$$$
