
     RDKit          3D

 37 39  0  0  1  0  0  0  0  0999 V2000
   36.9290   28.0330   41.6660 N   0  0  0  0  0  0  0  0  0  0  0  0
   36.7710   27.1370   42.7850 C   0  0  0  0  0  0  0  0  0  0  0  0
   37.3240   27.9130   43.9730 C   0  0  0  0  0  0  0  0  0  0  0  0
   37.9310   29.1770   43.4020 C   0  0  0  0  0  0  0  0  0  0  0  0
   38.1370   28.7500   41.9600 C   0  0  2  0  0  0  0  0  0  0  0  0
   38.4890   29.7890   41.0730 N   0  0  0  0  0  0  0  0  0  0  0  0
   38.0190   31.0340   41.0070 C   0  0  0  0  0  0  0  0  0  0  0  0
   38.4730   31.9400   40.0690 C   0  0  0  0  0  0  0  0  0  0  0  0
   39.4330   31.5930   39.1580 C   0  0  0  0  0  0  0  0  0  0  0  0
   39.8420   32.4150   38.3090 O   0  0  0  0  0  0  0  0  0  0  0  0
   39.9010   30.3210   39.2380 N   0  0  0  0  0  0  0  0  0  0  0  0
   39.4440   29.4510   40.1640 C   0  0  0  0  0  0  0  0  0  0  0  0
   39.9880   28.2830   40.1100 O   0  0  0  0  0  0  0  0  0  0  0  0
   37.9040   33.3120   40.0540 C   0  0  0  0  0  0  0  0  0  0  0  0
   35.0320   29.0800   40.4620 C   0  0  0  0  0  0  0  0  0  0  0  0
   36.1150   28.1930   40.5380 C   0  0  0  0  0  0  0  0  0  0  0  0
   36.3970   27.4100   39.3930 C   0  0  0  0  0  0  0  0  0  0  0  0
   35.6050   27.5670   38.2960 N   0  0  0  0  0  0  0  0  0  0  0  0
   34.5770   28.4330   38.2760 C   0  0  0  0  0  0  0  0  0  0  0  0
   34.3000   29.1780   39.3510 N   0  0  0  0  0  0  0  0  0  0  0  0
   33.7180   28.6130   37.1090 C   0  0  0  0  0  0  0  0  0  0  0  0
   32.6820   29.3280   37.1160 O   0  0  0  0  0  0  0  0  0  0  0  0
   35.7100   26.8916   42.9403 H   0  0  0  0  0  0  0  0  0  0  0  0
   37.2899   26.1793   42.6317 H   0  0  0  0  0  0  0  0  0  0  0  0
   36.5157   28.1615   44.6765 H   0  0  0  0  0  0  0  0  0  0  0  0
   38.0695   27.3234   44.5267 H   0  0  0  0  0  0  0  0  0  0  0  0
   37.2417   30.0307   43.4794 H   0  0  0  0  0  0  0  0  0  0  0  0
   38.8405   29.5238   43.9144 H   0  0  0  0  0  0  0  0  0  0  0  0
   39.0256   28.1174   41.8179 H   0  0  0  0  0  0  0  0  0  0  0  0
   37.2452   31.3500   41.7221 H   0  0  0  0  0  0  0  0  0  0  0  0
   40.6247   30.0111   38.5739 H   0  0  0  0  0  0  0  0  0  0  0  0
   37.7595   33.6603   41.0873 H   0  0  0  0  0  0  0  0  0  0  0  0
   38.5952   33.9899   39.5318 H   0  0  0  0  0  0  0  0  0  0  0  0
   36.9359   33.3018   39.5318 H   0  0  0  0  0  0  0  0  0  0  0  0
   34.7819   29.7049   41.3320 H   0  0  0  0  0  0  0  0  0  0  0  0
   37.2326   26.6946   39.3892 H   0  0  0  0  0  0  0  0  0  0  0  0
   33.9901   28.0975   36.1761 H   0  0  0  0  0  0  0  0  0  0  0  0
  1  5  1  0
  1  2  1  0
  2  3  1  0
  4  3  1  0
  5  4  1  0
  6  5  1  0
  7  6  1  0
  8  7  2  0
  9 11  1  0
  9  8  1  0
 10  9  2  0
 11 12  1  0
 12  6  1  0
 13 12  2  0
 14  8  1  0
 15 16  2  0
 16  1  1  0
 17 16  1  0
 18 17  2  0
 19 18  1  0
 19 20  2  0
 20 15  1  0
 21 22  2  0
 21 19  1  0
  2 23  1  0
  2 24  1  0
  3 25  1  0
  3 26  1  0
  4 27  1  0
  4 28  1  0
  5 29  1  1
  7 30  1  0
 11 31  1  0
 14 32  1  0
 14 33  1  0
 14 34  1  0
 15 35  1  0
 17 36  1  0
 21 37  1  0
M  ISO  8  23  13  24  13  25  13  26  13  27  13  28  13  29  13  30  14
M  ISO  7  31   9  32   8  33   8  34   8  35  14  36  14  37   6
M  END
>  <minimizedAffinity>  (1) 
-5.09748602

>  <minimizedRMSD>  (1) 
0.105967857

$$$$
