
     RDKit          3D

 29 32  0  0  0  0  0  0  0  0999 V2000
   37.5990   29.4010   42.0390 C   0  0  0  0  0  0  0  0  0  0  0  0
   38.7610   30.0040   41.5050 C   0  0  0  0  0  0  0  0  0  0  0  0
   38.5830   31.0980   40.6880 C   0  0  0  0  0  0  0  0  0  0  0  0
   37.3380   31.5650   40.4140 N   0  0  0  0  0  0  0  0  0  0  0  0
   36.2400   30.9390   40.9600 C   0  0  0  0  0  0  0  0  0  0  0  0
   36.3750   29.8630   41.7680 N   0  0  0  0  0  0  0  0  0  0  0  0
   39.6200   31.8490   40.0790 N   0  0  0  0  0  0  0  0  0  0  0  0
   40.6720   31.3260   39.3820 C   0  0  0  0  0  0  0  0  0  0  0  0
   41.4280   32.3570   38.9520 N   0  0  0  0  0  0  0  0  0  0  0  0
   40.8470   33.4680   39.3800 C   0  0  0  0  0  0  0  0  0  0  0  0
   41.1530   34.8240   39.2540 C   0  0  0  0  0  0  0  0  0  0  0  0
   40.4160   35.8410   39.7770 N   0  0  0  0  0  0  0  0  0  0  0  0
   39.3070   35.5100   40.4660 C   0  0  0  0  0  0  0  0  0  0  0  0
   38.9600   34.1980   40.6210 N   0  0  0  0  0  0  0  0  0  0  0  0
   39.7060   33.2140   40.0940 C   0  0  0  0  0  0  0  0  0  0  0  0
   40.0560   29.4580   41.8290 C   0  0  0  0  0  0  0  0  0  0  0  0
   40.4720   28.2240   41.2610 C   0  0  0  0  0  0  0  0  0  0  0  0
   42.1640   27.9360   41.9650 S   0  0  0  0  0  0  0  0  0  0  0  0
   42.0130   29.5610   42.9210 C   0  0  0  0  0  0  0  0  0  0  0  0
   40.9880   29.9360   42.6240 N   0  0  0  0  0  0  0  0  0  0  0  0
   42.3150   35.2530   38.5360 N   0  0  0  0  0  0  0  0  0  0  0  0
   37.7058   28.5259   42.6968 H   0  0  0  0  0  0  0  0  0  0  0  0
   35.2335   31.3214   40.7347 H   0  0  0  0  0  0  0  0  0  0  0  0
   40.8671   30.2582   39.2038 H   0  0  0  0  0  0  0  0  0  0  0  0
   38.6787   36.2988   40.9053 H   0  0  0  0  0  0  0  0  0  0  0  0
   39.9157   27.5832   40.5610 H   0  0  0  0  0  0  0  0  0  0  0  0
   42.7428   30.0270   43.5993 H   0  0  0  0  0  0  0  0  0  0  0  0
   42.5269   36.2575   38.4521 H   0  0  0  0  0  0  0  0  0  0  0  0
   42.9391   34.5571   38.1034 H   0  0  0  0  0  0  0  0  0  0  0  0
  2 16  1  0
  2  1  2  0
  3  2  1  0
  4  3  2  0
  4  5  1  0
  5  6  2  0
  6  1  1  0
  7 15  1  0
  7  3  1  0
  8  7  1  0
  9 10  1  0
  9  8  2  0
 10 15  2  0
 11 10  1  0
 11 12  2  0
 12 13  1  0
 13 14  2  0
 15 14  1  0
 16 20  1  0
 17 16  2  0
 17 18  1  0
 18 19  1  0
 20 19  2  0
 21 11  1  0
  1 22  1  0
  5 23  1  0
  8 24  1  0
 13 25  1  0
 17 26  1  0
 19 27  1  0
 21 28  1  0
 21 29  1  0
M  ISO  6  22  14  23  14  24  14  25  14  26  14  27  14
M  END
>  <minimizedAffinity>  (1) 
-5.40518522

>  <minimizedRMSD>  (1) 
4.99140024

$$$$
