
     RDKit          3D

 27 30  0  0  0  0  0  0  0  0999 V2000
   37.4580   29.6470   41.9450 C   0  0  0  0  0  0  0  0  0  0  0  0
   38.6340   30.2000   41.3920 C   0  0  0  0  0  0  0  0  0  0  0  0
   38.5100   31.3330   40.6070 C   0  0  0  0  0  0  0  0  0  0  0  0
   37.2910   31.8850   40.3810 N   0  0  0  0  0  0  0  0  0  0  0  0
   36.1710   31.3140   40.9390 C   0  0  0  0  0  0  0  0  0  0  0  0
   36.2610   30.2100   41.7100 N   0  0  0  0  0  0  0  0  0  0  0  0
   39.5800   32.0310   39.9940 N   0  0  0  0  0  0  0  0  0  0  0  0
   40.5400   31.3780   39.2780 C   0  0  0  0  0  0  0  0  0  0  0  0
   41.3740   32.3510   38.8410 N   0  0  0  0  0  0  0  0  0  0  0  0
   40.9600   33.5640   39.2610 C   0  0  0  0  0  0  0  0  0  0  0  0
   41.4080   34.8540   39.1170 C   0  0  0  0  0  0  0  0  0  0  0  0
   40.6930   35.8280   39.7080 N   0  0  0  0  0  0  0  0  0  0  0  0
   39.5800   35.6390   40.4250 C   0  0  0  0  0  0  0  0  0  0  0  0
   39.1150   34.3740   40.5830 N   0  0  0  0  0  0  0  0  0  0  0  0
   39.8100   33.3800   40.0020 C   0  0  0  0  0  0  0  0  0  0  0  0
   39.9010   29.5660   41.6580 C   0  0  0  0  0  0  0  0  0  0  0  0
   40.3280   28.4590   40.8650 C   0  0  0  0  0  0  0  0  0  0  0  0
   41.9760   27.9780   41.5550 S   0  0  0  0  0  0  0  0  0  0  0  0
   41.8030   29.3890   42.8320 C   0  0  0  0  0  0  0  0  0  0  0  0
   40.8050   29.8560   42.5880 N   0  0  0  0  0  0  0  0  0  0  0  0
   37.5227   28.7469   42.5740 H   0  0  0  0  0  0  0  0  0  0  0  0
   35.1849   31.7649   40.7537 H   0  0  0  0  0  0  0  0  0  0  0  0
   40.6193   30.2962   39.0954 H   0  0  0  0  0  0  0  0  0  0  0  0
   42.3166   35.0821   38.5405 H   0  0  0  0  0  0  0  0  0  0  0  0
   39.0523   36.4915   40.8774 H   0  0  0  0  0  0  0  0  0  0  0  0
   39.7928   27.9924   40.0248 H   0  0  0  0  0  0  0  0  0  0  0  0
   42.5118   29.6788   43.6217 H   0  0  0  0  0  0  0  0  0  0  0  0
  2 16  1  0
  2  1  2  0
  3  2  1  0
  4  3  2  0
  4  5  1  0
  5  6  2  0
  6  1  1  0
  7 15  1  0
  7  3  1  0
  8  7  1  0
  9 10  1  0
  9  8  2  0
 10 15  2  0
 11 10  1  0
 11 12  2  0
 12 13  1  0
 13 14  2  0
 15 14  1  0
 16 20  1  0
 17 18  1  0
 17 16  2  0
 18 19  1  0
 20 19  2  0
  1 21  1  0
  5 22  1  0
  8 23  1  0
 11 24  1  0
 13 25  1  0
 17 26  1  0
 19 27  1  0
M  ISO  7  21  14  22  14  23  14  24  14  25  14  26  14  27  14
M  END
>  <minimizedAffinity>  (1) 
-4.73733568

>  <minimizedRMSD>  (1) 
4.72598886

$$$$
