
     RDKit          3D

 29 31  0  0  0  0  0  0  0  0999 V2000
   37.5110   29.7670   42.1630 C   0  0  0  0  0  0  0  0  0  0  0  0
   38.0160   28.4820   41.8460 C   0  0  0  0  0  0  0  0  0  0  0  0
   37.3580   27.7530   40.8800 C   0  0  0  0  0  0  0  0  0  0  0  0
   36.2680   28.2510   40.2610 N   0  0  0  0  0  0  0  0  0  0  0  0
   35.8090   29.5020   40.5990 C   0  0  0  0  0  0  0  0  0  0  0  0
   36.4250   30.2540   41.5410 N   0  0  0  0  0  0  0  0  0  0  0  0
   37.7370   26.4620   40.4320 N   0  0  0  0  0  0  0  0  0  0  0  0
   36.6870   25.5940   40.3160 C   0  0  0  0  0  0  0  0  0  0  0  0
   36.9720   24.3110   39.8750 C   0  0  0  0  0  0  0  0  0  0  0  0
   35.9280   23.2630   39.7030 C   0  0  0  0  0  0  0  0  0  0  0  0
   38.2800   23.9470   39.5710 C   0  0  0  0  0  0  0  0  0  0  0  0
   38.5990   22.7990   39.1660 O   0  0  0  0  0  0  0  0  0  0  0  0
   39.2560   24.8840   39.7180 N   0  0  0  0  0  0  0  0  0  0  0  0
   39.0160   26.1210   40.1390 C   0  0  0  0  0  0  0  0  0  0  0  0
   39.9410   26.9900   40.2710 O   0  0  0  0  0  0  0  0  0  0  0  0
   39.1740   28.0020   42.5570 C   0  0  0  0  0  0  0  0  0  0  0  0
   39.0380   26.8720   43.4190 C   0  0  0  0  0  0  0  0  0  0  0  0
   40.7620   26.6400   44.1130 S   0  0  0  0  0  0  0  0  0  0  0  0
   41.3540   28.1220   43.1020 C   0  0  0  0  0  0  0  0  0  0  0  0
   40.4180   28.4580   42.5590 N   0  0  0  0  0  0  0  0  0  0  0  0
   38.0153   30.3742   42.9291 H   0  0  0  0  0  0  0  0  0  0  0  0
   34.9189   29.9019   40.0913 H   0  0  0  0  0  0  0  0  0  0  0  0
   35.6597   25.9007   40.5622 H   0  0  0  0  0  0  0  0  0  0  0  0
   35.5864   22.9201   40.6908 H   0  0  0  0  0  0  0  0  0  0  0  0
   35.0769   23.6813   39.1456 H   0  0  0  0  0  0  0  0  0  0  0  0
   36.3495   22.4135   39.1456 H   0  0  0  0  0  0  0  0  0  0  0  0
   40.2262   24.6218   39.4923 H   0  0  0  0  0  0  0  0  0  0  0  0
   38.1352   26.2787   43.6263 H   0  0  0  0  0  0  0  0  0  0  0  0
   42.3642   28.5546   43.0524 H   0  0  0  0  0  0  0  0  0  0  0  0
  2  1  2  0
  2 16  1  0
  3  2  1  0
  4  5  1  0
  4  3  2  0
  5  6  2  0
  6  1  1  0
  7  3  1  0
  8  7  1  0
  9  8  2  0
 10  9  1  0
 11 13  1  0
 11  9  1  0
 12 11  2  0
 13 14  1  0
 14 15  2  0
 14  7  1  0
 16 20  1  0
 16 17  2  0
 17 18  1  0
 19 18  1  0
 20 19  2  0
  1 21  1  0
  5 22  1  0
  8 23  1  0
 10 24  1  0
 10 25  1  0
 10 26  1  0
 13 27  1  0
 17 28  1  0
 19 29  1  0
M  ISO  8  21  14  22  14  23  14  24   8  25   8  26   8  27   9  28  14
M  ISO  1  29  14
M  END
>  <minimizedAffinity>  (1) 
-4.46768093

>  <minimizedRMSD>  (1) 
2.60594869

$$$$
