
     RDKit          3D

 30 33  0  0  0  0  0  0  0  0999 V2000
   37.3570   29.8340   42.0770 C   0  0  0  0  0  0  0  0  0  0  0  0
   38.0200   28.6960   41.5660 C   0  0  0  0  0  0  0  0  0  0  0  0
   37.5320   28.1810   40.3850 C   0  0  0  0  0  0  0  0  0  0  0  0
   36.4700   28.7730   39.7880 N   0  0  0  0  0  0  0  0  0  0  0  0
   35.8620   29.8630   40.3090 C   0  0  0  0  0  0  0  0  0  0  0  0
   36.3130   30.3920   41.4620 N   0  0  0  0  0  0  0  0  0  0  0  0
   38.0650   27.0250   39.6870 C   0  0  0  0  0  0  0  0  0  0  0  0
   38.9440   27.3620   38.6910 N   0  0  0  0  0  0  0  0  0  0  0  0
   39.5270   26.4020   37.9400 C   0  0  0  0  0  0  0  0  0  0  0  0
   39.2990   25.0660   38.1050 N   0  0  0  0  0  0  0  0  0  0  0  0
   38.4380   24.7350   39.0820 C   0  0  0  0  0  0  0  0  0  0  0  0
   38.1290   23.4170   39.3520 C   0  0  0  0  0  0  0  0  0  0  0  0
   37.2440   23.1150   40.3700 C   0  0  0  0  0  0  0  0  0  0  0  0
   36.6320   24.0920   41.1550 C   0  0  0  0  0  0  0  0  0  0  0  0
   36.9360   25.4160   40.8910 C   0  0  0  0  0  0  0  0  0  0  0  0
   37.8210   25.6830   39.8700 C   0  0  0  0  0  0  0  0  0  0  0  0
   39.1440   28.1500   42.2840 C   0  0  0  0  0  0  0  0  0  0  0  0
   38.9260   27.2370   43.3460 C   0  0  0  0  0  0  0  0  0  0  0  0
   40.6260   26.8040   43.9530 S   0  0  0  0  0  0  0  0  0  0  0  0
   41.3400   27.9580   42.6390 C   0  0  0  0  0  0  0  0  0  0  0  0
   40.4240   28.3550   42.1190 N   0  0  0  0  0  0  0  0  0  0  0  0
   37.7153   30.2769   43.0180 H   0  0  0  0  0  0  0  0  0  0  0  0
   35.0025   30.3155   39.7928 H   0  0  0  0  0  0  0  0  0  0  0  0
   40.2257   26.7148   37.1501 H   0  0  0  0  0  0  0  0  0  0  0  0
   38.5852   22.6103   38.7594 H   0  0  0  0  0  0  0  0  0  0  0  0
   37.0124   22.0584   40.5696 H   0  0  0  0  0  0  0  0  0  0  0  0
   35.9308   23.8191   41.9575 H   0  0  0  0  0  0  0  0  0  0  0  0
   36.4850   26.2296   41.4781 H   0  0  0  0  0  0  0  0  0  0  0  0
   37.9625   26.8669   43.7264 H   0  0  0  0  0  0  0  0  0  0  0  0
   42.3958   28.1868   42.4320 H   0  0  0  0  0  0  0  0  0  0  0  0
  2  1  2  0
  2 17  1  0
  3  2  1  0
  4  5  1  0
  4  3  2  0
  5  6  2  0
  6  1  1  0
  7 16  1  0
  7  3  1  0
  8  7  2  0
  9 10  2  0
  9  8  1  0
 10 11  1  0
 11 12  1  0
 11 16  2  0
 12 13  2  0
 13 14  1  0
 15 14  2  0
 16 15  1  0
 17 18  2  0
 18 19  1  0
 20 19  1  0
 21 17  1  0
 21 20  2  0
  1 22  1  0
  5 23  1  0
  9 24  1  0
 12 25  1  0
 13 26  1  0
 14 27  1  0
 15 28  1  0
 18 29  1  0
 20 30  1  0
M  ISO  8  22  14  23  14  24  14  25  14  26  14  27  14  28  14  29  14
M  ISO  1  30  14
M  END
>  <minimizedAffinity>  (1) 
-4.42267084

>  <minimizedRMSD>  (1) 
2.14308

$$$$
