
     RDKit          3D

 23 24  0  0  0  0  0  0  0  0999 V2000
   37.0500   29.5140   41.4250 C   0  0  0  0  0  0  0  0  0  0  0  0
   38.3600   29.7990   41.8910 C   0  0  0  0  0  0  0  0  0  0  0  0
   38.8830   31.0630   41.6620 C   0  0  0  0  0  0  0  0  0  0  0  0
   38.1240   31.9850   40.9930 N   0  0  0  0  0  0  0  0  0  0  0  0
   36.8600   31.6640   40.5590 C   0  0  0  0  0  0  0  0  0  0  0  0
   36.3280   30.4350   40.7760 N   0  0  0  0  0  0  0  0  0  0  0  0
   40.1400   31.5050   42.1380 N   0  0  0  0  0  0  0  0  0  0  0  0
   41.0480   32.1860   41.2780 C   0  0  0  0  0  0  0  0  0  0  0  0
   40.8180   32.0590   39.9910 N   0  0  0  0  0  0  0  0  0  0  0  0
   42.1550   32.9720   41.7700 N   0  0  0  0  0  0  0  0  0  0  0  0
   41.4880   32.5600   39.3720 H   0  0  0  0  0  0  0  0  0  0  0  0
   39.1080   28.7620   42.5650 C   0  0  0  0  0  0  0  0  0  0  0  0
   38.4150   27.6670   43.1870 C   0  0  0  0  0  0  0  0  0  0  0  0
   39.7580   26.6140   43.9060 S   0  0  0  0  0  0  0  0  0  0  0  0
   41.0340   27.8670   43.2240 C   0  0  0  0  0  0  0  0  0  0  0  0
   40.4300   28.6690   42.7020 N   0  0  0  0  0  0  0  0  0  0  0  0
   36.6200   28.5169   41.6007 H   0  0  0  0  0  0  0  0  0  0  0  0
   36.2667   32.4202   40.0240 H   0  0  0  0  0  0  0  0  0  0  0  0
   40.4016   31.3320   43.1191 H   0  0  0  0  0  0  0  0  0  0  0  0
   42.7847   33.4462   41.1071 H   0  0  0  0  0  0  0  0  0  0  0  0
   42.3149   33.0584   42.7838 H   0  0  0  0  0  0  0  0  0  0  0  0
   37.3295   27.4933   43.2270 H   0  0  0  0  0  0  0  0  0  0  0  0
   42.1287   27.8177   43.3197 H   0  0  0  0  0  0  0  0  0  0  0  0
  1  2  2  0
  2 12  1  0
  3  2  1  0
  3  7  1  0
  4  3  2  0
  5  6  2  0
  5  4  1  0
  6  1  1  0
  8 10  1  0
  8  7  1  0
  9  8  2  0
 11  9  1  0
 12 16  1  0
 12 13  2  0
 13 14  1  0
 15 14  1  0
 16 15  2  0
  1 17  1  0
  5 18  1  0
  7 19  1  0
 10 20  1  0
 10 21  1  0
 13 22  1  0
 15 23  1  0
M  ISO  4  17  14  18  14  22  14  23  14
M  END
>  <minimizedAffinity>  (1) 
-4.1969018

>  <minimizedRMSD>  (1) 
3.76408148

$$$$
