
     RDKit          3D

 23 25  0  0  0  0  0  0  0  0999 V2000
   37.9110   29.5350   42.1990 C   0  0  0  0  0  0  0  0  0  0  0  0
   38.3080   28.1920   42.0370 C   0  0  0  0  0  0  0  0  0  0  0  0
   37.4530   27.3600   41.3300 C   0  0  0  0  0  0  0  0  0  0  0  0
   36.2890   27.8370   40.8250 N   0  0  0  0  0  0  0  0  0  0  0  0
   35.9570   29.1590   41.0150 C   0  0  0  0  0  0  0  0  0  0  0  0
   36.7690   29.9970   41.7000 N   0  0  0  0  0  0  0  0  0  0  0  0
   39.5590   27.7480   42.5970 C   0  0  0  0  0  0  0  0  0  0  0  0
   39.5520   27.0550   43.8450 C   0  0  0  0  0  0  0  0  0  0  0  0
   41.3280   26.6690   44.1740 S   0  0  0  0  0  0  0  0  0  0  0  0
   41.7920   27.5320   42.5280 C   0  0  0  0  0  0  0  0  0  0  0  0
   40.7880   27.8810   42.1070 N   0  0  0  0  0  0  0  0  0  0  0  0
   37.7310   25.9550   41.0710 C   0  0  0  0  0  0  0  0  0  0  0  0
   37.0810   24.9640   41.8150 C   0  0  0  0  0  0  0  0  0  0  0  0
   37.5060   23.7330   41.3890 C   0  0  0  0  0  0  0  0  0  0  0  0
   38.4210   24.0310   40.3790 C   0  0  0  0  0  0  0  0  0  0  0  0
   38.5390   25.3420   40.2080 O   0  0  0  0  0  0  0  0  0  0  0  0
   38.5663   30.2214   42.7553 H   0  0  0  0  0  0  0  0  0  0  0  0
   35.0124   29.5422   40.6016 H   0  0  0  0  0  0  0  0  0  0  0  0
   38.6825   26.8063   44.4712 H   0  0  0  0  0  0  0  0  0  0  0  0
   42.7925   27.6617   42.0895 H   0  0  0  0  0  0  0  0  0  0  0  0
   36.3466   25.1443   42.6138 H   0  0  0  0  0  0  0  0  0  0  0  0
   37.1982   22.7430   41.7568 H   0  0  0  0  0  0  0  0  0  0  0  0
   38.9734   23.2769   39.7992 H   0  0  0  0  0  0  0  0  0  0  0  0
  2  1  2  0
  2  7  1  0
  3  2  1  0
  4  5  1  0
  4  3  2  0
  5  6  2  0
  6  1  1  0
  7  8  2  0
  8  9  1  0
 10  9  1  0
 11 10  2  0
 11  7  1  0
 12  3  1  0
 12 13  2  0
 14 13  1  0
 15 14  2  0
 16 15  1  0
 16 12  1  0
  1 17  1  0
  5 18  1  0
  8 19  1  0
 10 20  1  0
 13 21  1  0
 14 22  1  0
 15 23  1  0
M  ISO  7  17  14  18  14  19  14  20  14  21  14  22  14  23  14
M  END
>  <minimizedAffinity>  (1) 
-3.98253155

>  <minimizedRMSD>  (1) 
2.7744689

$$$$
