
     RDKit          3D

 32 34  0  0  0  0  0  0  0  0999 V2000
   36.8570   29.9170   41.7210 C   0  0  0  0  0  0  0  0  0  0  0  0
   38.0400   29.3430   41.1870 C   0  0  0  0  0  0  0  0  0  0  0  0
   38.5180   29.8450   39.9980 C   0  0  0  0  0  0  0  0  0  0  0  0
   37.8790   30.8510   39.3600 N   0  0  0  0  0  0  0  0  0  0  0  0
   36.7350   31.3770   39.9120 C   0  0  0  0  0  0  0  0  0  0  0  0
   36.2260   30.9180   41.0800 N   0  0  0  0  0  0  0  0  0  0  0  0
   38.6640   28.2740   41.9250 C   0  0  0  0  0  0  0  0  0  0  0  0
   38.2030   26.9410   41.7410 C   0  0  0  0  0  0  0  0  0  0  0  0
   39.2680   25.9350   42.8790 S   0  0  0  0  0  0  0  0  0  0  0  0
   40.1680   27.5090   43.4150 C   0  0  0  0  0  0  0  0  0  0  0  0
   39.6470   28.3080   42.8060 N   0  0  0  0  0  0  0  0  0  0  0  0
   39.7120   29.4130   39.2530 C   0  0  0  0  0  0  0  0  0  0  0  0
   39.3870   29.0860   37.8180 C   0  0  0  0  0  0  0  0  0  0  0  0
   40.6510   28.6570   37.1020 C   0  0  0  0  0  0  0  0  0  0  0  0
   41.6960   29.7560   37.1520 C   0  0  0  0  0  0  0  0  0  0  0  0
   41.9960   30.1540   38.5600 C   0  0  0  0  0  0  0  0  0  0  0  0
   40.7150   30.5770   39.2420 C   0  0  0  0  0  0  0  0  0  0  0  0
   36.4507   29.5390   42.6708 H   0  0  0  0  0  0  0  0  0  0  0  0
   36.2177   32.1951   39.3894 H   0  0  0  0  0  0  0  0  0  0  0  0
   37.4001   26.5881   41.0770 H   0  0  0  0  0  0  0  0  0  0  0  0
   40.9906   27.6201   44.1368 H   0  0  0  0  0  0  0  0  0  0  0  0
   40.1152   28.5137   39.7416 H   0  0  0  0  0  0  0  0  0  0  0  0
   38.6511   28.2690   37.7852 H   0  0  0  0  0  0  0  0  0  0  0  0
   38.9681   29.9751   37.3239 H   0  0  0  0  0  0  0  0  0  0  0  0
   40.4126   28.4331   36.0517 H   0  0  0  0  0  0  0  0  0  0  0  0
   41.0539   27.7634   37.6012 H   0  0  0  0  0  0  0  0  0  0  0  0
   42.6199   29.3942   36.6770 H   0  0  0  0  0  0  0  0  0  0  0  0
   41.3031   30.6341   36.6185 H   0  0  0  0  0  0  0  0  0  0  0  0
   42.4344   29.3005   39.0979 H   0  0  0  0  0  0  0  0  0  0  0  0
   42.7094   30.9913   38.5628 H   0  0  0  0  0  0  0  0  0  0  0  0
   40.9359   30.8764   40.2772 H   0  0  0  0  0  0  0  0  0  0  0  0
   40.2775   31.4234   38.6922 H   0  0  0  0  0  0  0  0  0  0  0  0
  2  1  2  0
  2  7  1  0
  3  2  1  0
  4  5  1  0
  4  3  2  0
  5  6  2  0
  6  1  1  0
  7 11  1  0
  8  7  2  0
  8  9  1  0
  9 10  1  0
 11 10  2  0
 12  3  1  0
 13 12  1  0
 14 15  1  0
 14 13  1  0
 15 16  1  0
 16 17  1  0
 17 12  1  0
  1 18  1  0
  5 19  1  0
  8 20  1  0
 10 21  1  0
 12 22  1  0
 13 23  1  0
 13 24  1  0
 14 25  1  0
 14 26  1  0
 15 27  1  0
 15 28  1  0
 16 29  1  0
 16 30  1  0
 17 31  1  0
 17 32  1  0
M  ISO  8  18  14  19  14  20  14  21  14  22  13  23  13  24  13  25  13
M  ISO  7  26  13  27  13  28  13  29  13  30  13  31  13  32  13
M  END
>  <minimizedAffinity>  (1) 
-3.6710906

>  <minimizedRMSD>  (1) 
1.4824779

$$$$
