
     RDKit          3D

 36 38  0  0  1  0  0  0  0  0999 V2000
   39.7040   29.4820   42.7200 N   0  0  0  0  0  0  0  0  0  0  0  0
   39.9000   30.8920   42.6540 C   0  0  0  0  0  0  0  0  0  0  0  0
   41.0240   31.0670   41.6580 C   0  0  0  0  0  0  0  0  0  0  0  0
   42.2250   30.5650   42.1990 N   0  0  0  0  0  0  0  0  0  0  0  0
   42.1490   29.3350   42.8570 C   0  0  0  0  0  0  0  0  0  0  0  0
   40.8410   28.5890   42.8930 C   0  0  2  0  0  0  0  0  0  0  0  0
   38.4290   28.8460   42.6280 C   0  0  0  0  0  0  0  0  0  0  0  0
   37.9060   28.0340   43.6670 C   0  0  0  0  0  0  0  0  0  0  0  0
   36.6550   27.4590   43.4770 C   0  0  0  0  0  0  0  0  0  0  0  0
   36.0100   27.7090   42.3100 N   0  0  0  0  0  0  0  0  0  0  0  0
   36.5290   28.4860   41.3390 C   0  0  0  0  0  0  0  0  0  0  0  0
   37.7290   29.0450   41.5070 N   0  0  0  0  0  0  0  0  0  0  0  0
   40.8080   27.4500   41.9780 C   0  0  0  0  0  0  0  0  0  0  0  0
   40.8900   26.3260   42.5830 O   0  0  0  0  0  0  0  0  0  0  0  0
   40.7270   27.0110   40.5990 C   0  0  0  0  0  0  0  0  0  0  0  0
   40.7930   25.6750   40.2760 C   0  0  0  0  0  0  0  0  0  0  0  0
   40.7260   25.2450   38.9360 C   0  0  0  0  0  0  0  0  0  0  0  0
   40.5930   26.1970   37.9590 C   0  0  0  0  0  0  0  0  0  0  0  0
   40.5220   27.5370   38.1850 C   0  0  0  0  0  0  0  0  0  0  0  0
   40.5960   27.8480   39.5220 C   0  0  0  0  0  0  0  0  0  0  0  0
   38.9872   31.3963   42.3040 H   0  0  0  0  0  0  0  0  0  0  0  0
   40.1361   31.3298   43.6351 H   0  0  0  0  0  0  0  0  0  0  0  0
   41.1456   32.1360   41.4289 H   0  0  0  0  0  0  0  0  0  0  0  0
   40.7822   30.5154   40.7375 H   0  0  0  0  0  0  0  0  0  0  0  0
   42.8980   30.4646   41.4258 H   0  0  0  0  0  0  0  0  0  0  0  0
   42.8825   28.6704   42.3772 H   0  0  0  0  0  0  0  0  0  0  0  0
   42.3246   29.5964   43.9110 H   0  0  0  0  0  0  0  0  0  0  0  0
   40.7558   28.1573   43.9012 H   0  0  0  0  0  0  0  0  0  0  0  0
   38.4730   27.8647   44.5943 H   0  0  0  0  0  0  0  0  0  0  0  0
   36.2016   26.8205   44.2495 H   0  0  0  0  0  0  0  0  0  0  0  0
   35.9651   28.6590   40.4105 H   0  0  0  0  0  0  0  0  0  0  0  0
   40.8999   24.9298   41.0780 H   0  0  0  0  0  0  0  0  0  0  0  0
   40.7789   24.1762   38.6813 H   0  0  0  0  0  0  0  0  0  0  0  0
   40.5397   25.8526   36.9157 H   0  0  0  0  0  0  0  0  0  0  0  0
   40.4172   28.2872   37.3873 H   0  0  0  0  0  0  0  0  0  0  0  0
   40.5425   28.9204   39.7611 H   0  0  0  0  0  0  0  0  0  0  0  0
  1  6  1  0
  2  1  1  0
  3  4  1  0
  3  2  1  0
  4  5  1  0
  5  6  1  0
  7  1  1  0
  7  8  2  0
  9  8  1  0
 10  9  2  0
 11 12  2  0
 11 10  1  0
 12  7  1  0
 13 14  2  0
 13  6  1  0
 15 13  1  0
 16 15  2  0
 17 16  1  0
 18 19  1  0
 18 17  2  0
 19 20  2  0
 20 15  1  0
  2 21  1  0
  2 22  1  0
  3 23  1  0
  3 24  1  0
  4 25  1  0
  5 26  1  0
  5 27  1  0
  6 28  1  1
  8 29  1  0
  9 30  1  0
 11 31  1  0
 16 32  1  0
 17 33  1  0
 18 34  1  0
 19 35  1  0
 20 36  1  0
M  ISO  8  21  13  22  13  23  13  24  13  25   5  26  13  27  13  28  13
M  ISO  8  29  14  30  14  31  14  32  14  33  14  34  14  35  14  36  14
M  END
>  <minimizedAffinity>  (1) 
-3.48421597

>  <minimizedRMSD>  (1) 
0.49785611

$$$$
