
     RDKit          3D

 23 25  0  0  0  0  0  0  0  0999 V2000
   36.7820   29.4410   41.5150 C   0  0  0  0  0  0  0  0  0  0  0  0
   37.1390   28.7330   40.3460 C   0  0  0  0  0  0  0  0  0  0  0  0
   37.2010   29.4410   39.1650 C   0  0  0  0  0  0  0  0  0  0  0  0
   36.9210   30.7800   39.1700 N   0  0  0  0  0  0  0  0  0  0  0  0
   36.5810   31.4140   40.3390 C   0  0  0  0  0  0  0  0  0  0  0  0
   36.5120   30.7420   41.5120 N   0  0  0  0  0  0  0  0  0  0  0  0
   37.4310   27.3220   40.4360 C   0  0  0  0  0  0  0  0  0  0  0  0
   38.7070   26.8860   40.8710 C   0  0  0  0  0  0  0  0  0  0  0  0
   38.6200   25.0360   40.8350 S   0  0  0  0  0  0  0  0  0  0  0  0
   36.8210   25.1720   40.2180 C   0  0  0  0  0  0  0  0  0  0  0  0
   36.6590   26.2890   40.1680 N   0  0  0  0  0  0  0  0  0  0  0  0
   37.5570   28.8890   37.8740 C   0  0  0  0  0  0  0  0  0  0  0  0
   36.9020   28.2100   36.8390 C   0  0  0  0  0  0  0  0  0  0  0  0
   37.8890   27.9950   35.8940 C   0  0  0  0  0  0  0  0  0  0  0  0
   39.0660   28.5140   36.3360 N   0  0  0  0  0  0  0  0  0  0  0  0
   38.8620   29.0490   37.5250 N   0  0  0  0  0  0  0  0  0  0  0  0
   36.7252   28.8928   42.4670 H   0  0  0  0  0  0  0  0  0  0  0  0
   36.3598   32.4914   40.3222 H   0  0  0  0  0  0  0  0  0  0  0  0
   39.5632   27.5104   41.1660 H   0  0  0  0  0  0  0  0  0  0  0  0
   36.1163   24.3640   39.9720 H   0  0  0  0  0  0  0  0  0  0  0  0
   35.8435   27.9148   36.7889 H   0  0  0  0  0  0  0  0  0  0  0  0
   37.7441   27.4824   34.9316 H   0  0  0  0  0  0  0  0  0  0  0  0
   39.9627   28.4930   35.8296 H   0  0  0  0  0  0  0  0  0  0  0  0
  2  7  1  0
  2  1  2  0
  3  4  2  0
  3  2  1  0
  4  5  1  0
  5  6  2  0
  6  1  1  0
  7  8  2  0
  9  8  1  0
 10  9  1  0
 11 10  2  0
 11  7  1  0
 12  3  1  0
 13 12  1  0
 14 15  1  0
 14 13  2  0
 15 16  1  0
 16 12  2  0
  1 17  1  0
  5 18  1  0
  8 19  1  0
 10 20  1  0
 13 21  1  0
 14 22  1  0
 15 23  1  0
M  ISO  7  17  14  18  14  19  14  20  14  21  14  22  14  23   9
M  END
>  <minimizedAffinity>  (1) 
-3.4853878

>  <minimizedRMSD>  (1) 
2.34085488

$$$$
