
     RDKit          3D

 28 29  0  0  0  0  0  0  0  0999 V2000
   36.5920   29.8250   41.4650 C   0  0  0  0  0  0  0  0  0  0  0  0
   37.9840   29.5410   41.5190 C   0  0  0  0  0  0  0  0  0  0  0  0
   38.8900   30.4880   41.0410 C   0  0  0  0  0  0  0  0  0  0  0  0
   38.3620   31.6410   40.5430 N   0  0  0  0  0  0  0  0  0  0  0  0
   37.0310   31.8880   40.5010 C   0  0  0  0  0  0  0  0  0  0  0  0
   36.1350   30.9850   40.9600 N   0  0  0  0  0  0  0  0  0  0  0  0
   38.3790   28.2790   42.0870 C   0  0  0  0  0  0  0  0  0  0  0  0
   38.3750   27.1430   41.2400 C   0  0  0  0  0  0  0  0  0  0  0  0
   38.9110   25.7510   42.3570 S   0  0  0  0  0  0  0  0  0  0  0  0
   39.0450   26.9910   43.8080 C   0  0  0  0  0  0  0  0  0  0  0  0
   38.7450   27.9820   43.3370 N   0  0  0  0  0  0  0  0  0  0  0  0
   40.3640   30.3400   40.9740 C   0  0  0  0  0  0  0  0  0  0  0  0
   41.0700   31.5180   40.4020 C   0  0  0  0  0  0  0  0  0  0  0  0
   41.0000   29.6330   42.1230 C   0  0  0  0  0  0  0  0  0  0  0  0
   40.5830   29.2920   39.7910 C   0  0  0  0  0  0  0  0  0  0  0  0
   35.8748   29.0818   41.8435 H   0  0  0  0  0  0  0  0  0  0  0  0
   36.6720   32.8412   40.0857 H   0  0  0  0  0  0  0  0  0  0  0  0
   38.1159   27.0942   40.1721 H   0  0  0  0  0  0  0  0  0  0  0  0
   39.3413   26.7929   44.8487 H   0  0  0  0  0  0  0  0  0  0  0  0
   41.4490   32.1504   41.2184 H   0  0  0  0  0  0  0  0  0  0  0  0
   41.9119   31.1756   39.7823 H   0  0  0  0  0  0  0  0  0  0  0  0
   40.3711   32.0990   39.7823 H   0  0  0  0  0  0  0  0  0  0  0  0
   40.6220   30.0532   43.0667 H   0  0  0  0  0  0  0  0  0  0  0  0
   40.7558   28.5615   42.0748 H   0  0  0  0  0  0  0  0  0  0  0  0
   42.0912   29.7629   42.0748 H   0  0  0  0  0  0  0  0  0  0  0  0
   40.7906   28.2985   40.2150 H   0  0  0  0  0  0  0  0  0  0  0  0
   39.6755   29.2438   39.1712 H   0  0  0  0  0  0  0  0  0  0  0  0
   41.4338   29.6112   39.1712 H   0  0  0  0  0  0  0  0  0  0  0  0
  1  2  2  0
  2  7  1  0
  3  2  1  0
  4  3  2  0
  5  4  1  0
  5  6  2  0
  6  1  1  0
  7 11  1  0
  8  7  2  0
  8  9  1  0
  9 10  1  0
 11 10  2  0
 12  3  1  0
 12 14  1  0
 13 12  1  0
 15 12  1  0
  1 16  1  0
  5 17  1  0
  8 18  1  0
 10 19  1  0
 13 20  1  0
 13 21  1  0
 13 22  1  0
 14 23  1  0
 14 24  1  0
 14 25  1  0
 15 26  1  0
 15 27  1  0
 15 28  1  0
M  ISO  8  16  14  17  14  18  14  19  14  20   8  21   8  22   8  23   8
M  ISO  5  24   8  25   8  26   8  27   8  28   8
M  END
>  <minimizedAffinity>  (1) 
-3.47276902

>  <minimizedRMSD>  (1) 
2.28692126

$$$$
