
     RDKit          3D

 26 28  0  0  0  0  0  0  0  0999 V2000
   36.6640   30.1050   41.3070 C   0  0  0  0  0  0  0  0  0  0  0  0
   37.5060   29.2450   40.5680 C   0  0  0  0  0  0  0  0  0  0  0  0
   38.0590   29.7310   39.4040 C   0  0  0  0  0  0  0  0  0  0  0  0
   37.7770   31.0110   39.0080 N   0  0  0  0  0  0  0  0  0  0  0  0
   36.9500   31.8040   39.7660 C   0  0  0  0  0  0  0  0  0  0  0  0
   36.3970   31.3500   40.9110 N   0  0  0  0  0  0  0  0  0  0  0  0
   38.9550   28.9970   38.5290 C   0  0  0  0  0  0  0  0  0  0  0  0
   40.3200   29.0370   38.8400 C   0  0  0  0  0  0  0  0  0  0  0  0
   41.1620   28.3430   37.9840 C   0  0  0  0  0  0  0  0  0  0  0  0
   40.6110   27.6640   36.8930 C   0  0  0  0  0  0  0  0  0  0  0  0
   39.2510   27.6480   36.6170 C   0  0  0  0  0  0  0  0  0  0  0  0
   38.3800   28.3280   37.4470 C   0  0  0  0  0  0  0  0  0  0  0  0
   37.7590   27.9070   41.0560 C   0  0  0  0  0  0  0  0  0  0  0  0
   36.8840   26.8440   40.7040 C   0  0  0  0  0  0  0  0  0  0  0  0
   37.6130   25.3650   41.5590 S   0  0  0  0  0  0  0  0  0  0  0  0
   38.9910   26.4550   42.2510 C   0  0  0  0  0  0  0  0  0  0  0  0
   38.7480   27.4880   41.8370 N   0  0  0  0  0  0  0  0  0  0  0  0
   36.2136   29.7356   42.2401 H   0  0  0  0  0  0  0  0  0  0  0  0
   36.7339   32.8299   39.4332 H   0  0  0  0  0  0  0  0  0  0  0  0
   40.7021   29.5870   39.7126 H   0  0  0  0  0  0  0  0  0  0  0  0
   42.2476   28.3270   38.1608 H   0  0  0  0  0  0  0  0  0  0  0  0
   41.2880   27.1161   36.2211 H   0  0  0  0  0  0  0  0  0  0  0  0
   38.8692   27.0982   35.7441 H   0  0  0  0  0  0  0  0  0  0  0  0
   37.2952   28.3413   37.2654 H   0  0  0  0  0  0  0  0  0  0  0  0
   35.9845   26.8871   40.0723 H   0  0  0  0  0  0  0  0  0  0  0  0
   39.8294   26.1619   42.8999 H   0  0  0  0  0  0  0  0  0  0  0  0
  2 13  1  0
  2  1  2  0
  3  2  1  0
  4  3  2  0
  4  5  1  0
  5  6  2  0
  6  1  1  0
  7  8  2  0
  7  3  1  0
  9  8  1  0
 10  9  2  0
 11 10  1  0
 11 12  2  0
 12  7  1  0
 13 17  1  0
 14 13  2  0
 14 15  1  0
 15 16  1  0
 17 16  2  0
  1 18  1  0
  5 19  1  0
  8 20  1  0
  9 21  1  0
 10 22  1  0
 11 23  1  0
 12 24  1  0
 14 25  1  0
 16 26  1  0
M  ISO  8  18  14  19  14  20  14  21  14  22  14  23  14  24  14  25  14
M  ISO  1  26  14
M  END
>  <minimizedAffinity>  (1) 
-3.446697

>  <minimizedRMSD>  (1) 
1.37698936

$$$$
