
     RDKit          3D

 25 27  0  0  0  0  0  0  0  0999 V2000
   36.6750   30.1000   41.3150 C   0  0  0  0  0  0  0  0  0  0  0  0
   37.5090   29.2270   40.5810 C   0  0  0  0  0  0  0  0  0  0  0  0
   38.0390   29.7210   39.4120 C   0  0  0  0  0  0  0  0  0  0  0  0
   37.7650   30.9800   39.0030 N   0  0  0  0  0  0  0  0  0  0  0  0
   36.9450   31.7850   39.7620 C   0  0  0  0  0  0  0  0  0  0  0  0
   36.4000   31.3420   40.9200 N   0  0  0  0  0  0  0  0  0  0  0  0
   37.7540   27.8980   41.0820 C   0  0  0  0  0  0  0  0  0  0  0  0
   36.8650   26.8440   40.7320 C   0  0  0  0  0  0  0  0  0  0  0  0
   37.5690   25.3660   41.6020 S   0  0  0  0  0  0  0  0  0  0  0  0
   38.9570   26.4400   42.2940 C   0  0  0  0  0  0  0  0  0  0  0  0
   38.7250   27.4690   41.8700 N   0  0  0  0  0  0  0  0  0  0  0  0
   38.9230   28.9560   38.5440 C   0  0  0  0  0  0  0  0  0  0  0  0
   38.3740   28.3080   37.4310 C   0  0  0  0  0  0  0  0  0  0  0  0
   39.1880   27.5660   36.5670 C   0  0  0  0  0  0  0  0  0  0  0  0
   40.5510   27.5220   36.8860 C   0  0  0  0  0  0  0  0  0  0  0  0
   41.0770   28.1670   37.9870 C   0  0  0  0  0  0  0  0  0  0  0  0
   40.2630   28.8750   38.8030 N   0  0  0  0  0  0  0  0  0  0  0  0
   36.2330   29.7377   42.2549 H   0  0  0  0  0  0  0  0  0  0  0  0
   36.7284   32.8081   39.4210 H   0  0  0  0  0  0  0  0  0  0  0  0
   35.9699   26.8942   40.0947 H   0  0  0  0  0  0  0  0  0  0  0  0
   39.7892   26.1426   42.9490 H   0  0  0  0  0  0  0  0  0  0  0  0
   37.2944   28.3825   37.2339 H   0  0  0  0  0  0  0  0  0  0  0  0
   38.7801   27.0468   35.6872 H   0  0  0  0  0  0  0  0  0  0  0  0
   41.2285   26.9513   36.2338 H   0  0  0  0  0  0  0  0  0  0  0  0
   42.1544   28.1055   38.2002 H   0  0  0  0  0  0  0  0  0  0  0  0
  2  7  1  0
  2  1  2  0
  3  2  1  0
  4  3  2  0
  4  5  1  0
  5  6  2  0
  6  1  1  0
  7 11  1  0
  8  7  2  0
  8  9  1  0
  9 10  1  0
 11 10  2  0
 12 17  1  0
 12  3  1  0
 13 12  2  0
 14 15  2  0
 14 13  1  0
 15 16  1  0
 16 17  2  0
  1 18  1  0
  5 19  1  0
  8 20  1  0
 10 21  1  0
 13 22  1  0
 14 23  1  0
 15 24  1  0
 16 25  1  0
M  ISO  8  18  14  19  14  20  14  21  14  22  14  23  14  24  14  25  14
M  END
>  <minimizedAffinity>  (1) 
-3.43890309

>  <minimizedRMSD>  (1) 
1.36272621

$$$$
