
     RDKit          3D

 23 25  0  0  0  0  0  0  0  0999 V2000
   36.8400   29.9400   41.7330 C   0  0  0  0  0  0  0  0  0  0  0  0
   37.8750   29.1730   41.1510 C   0  0  0  0  0  0  0  0  0  0  0  0
   38.2900   29.5170   39.8840 C   0  0  0  0  0  0  0  0  0  0  0  0
   37.7210   30.5560   39.2270 N   0  0  0  0  0  0  0  0  0  0  0  0
   36.7170   31.2740   39.8320 C   0  0  0  0  0  0  0  0  0  0  0  0
   36.2820   30.9670   41.0750 N   0  0  0  0  0  0  0  0  0  0  0  0
   38.4400   28.0710   41.9000 C   0  0  0  0  0  0  0  0  0  0  0  0
   39.2610   28.3410   43.0290 C   0  0  0  0  0  0  0  0  0  0  0  0
   39.7400   26.6410   43.6370 S   0  0  0  0  0  0  0  0  0  0  0  0
   38.7320   25.8680   42.2360 C   0  0  0  0  0  0  0  0  0  0  0  0
   38.3100   26.7660   41.6860 N   0  0  0  0  0  0  0  0  0  0  0  0
   39.3480   28.8240   39.1630 C   0  0  0  0  0  0  0  0  0  0  0  0
   39.2920   28.8300   37.7630 C   0  0  0  0  0  0  0  0  0  0  0  0
   40.3740   28.1320   37.3310 N   0  0  0  0  0  0  0  0  0  0  0  0
   41.0430   27.7280   38.4150 C   0  0  0  0  0  0  0  0  0  0  0  0
   40.4550   28.1250   39.5520 N   0  0  0  0  0  0  0  0  0  0  0  0
   36.4858   29.6900   42.7440 H   0  0  0  0  0  0  0  0  0  0  0  0
   36.2577   32.1161   39.2936 H   0  0  0  0  0  0  0  0  0  0  0  0
   39.5462   29.3184   43.4453 H   0  0  0  0  0  0  0  0  0  0  0  0
   38.5889   24.8013   42.0085 H   0  0  0  0  0  0  0  0  0  0  0  0
   38.5231   29.3063   37.1370 H   0  0  0  0  0  0  0  0  0  0  0  0
   41.9702   27.1372   38.3783 H   0  0  0  0  0  0  0  0  0  0  0  0
   40.7710   27.9418   40.5151 H   0  0  0  0  0  0  0  0  0  0  0  0
  2  1  2  0
  2  7  1  0
  3  2  1  0
  4  5  1  0
  4  3  2  0
  5  6  2  0
  6  1  1  0
  7  8  2  0
  8  9  1  0
 10  9  1  0
 11  7  1  0
 11 10  2  0
 12 16  1  0
 12  3  1  0
 13 12  2  0
 14 13  1  0
 14 15  2  0
 15 16  1  0
  1 17  1  0
  5 18  1  0
  8 19  1  0
 10 20  1  0
 13 21  1  0
 15 22  1  0
 16 23  1  0
M  ISO  7  17  14  18  14  19  14  20  14  21  14  22  14  23   9
M  END
>  <minimizedAffinity>  (1) 
-3.3601172

>  <minimizedRMSD>  (1) 
1.64302075

$$$$
