
     RDKit          3D

 22 23  0  0  0  0  0  0  0  0999 V2000
   36.6400   29.8730   41.4250 C   0  0  0  0  0  0  0  0  0  0  0  0
   38.0060   29.6230   41.6480 C   0  0  0  0  0  0  0  0  0  0  0  0
   38.8820   30.5950   41.2830 C   0  0  0  0  0  0  0  0  0  0  0  0
   38.4530   31.7550   40.7230 N   0  0  0  0  0  0  0  0  0  0  0  0
   37.0970   31.9760   40.5160 C   0  0  0  0  0  0  0  0  0  0  0  0
   36.2090   31.0200   40.8750 N   0  0  0  0  0  0  0  0  0  0  0  0
   38.4090   28.3510   42.1610 C   0  0  0  0  0  0  0  0  0  0  0  0
   38.4410   27.1830   41.2890 C   0  0  0  0  0  0  0  0  0  0  0  0
   38.9710   25.7920   42.3930 S   0  0  0  0  0  0  0  0  0  0  0  0
   39.0600   27.0090   43.8250 C   0  0  0  0  0  0  0  0  0  0  0  0
   38.7560   27.9910   43.3560 N   0  0  0  0  0  0  0  0  0  0  0  0
   40.3140   30.6890   41.5350 C   0  0  0  0  0  0  0  0  0  0  0  0
   40.9210   32.0560   41.1400 C   0  0  0  0  0  0  0  0  0  0  0  0
   35.9034   29.1071   41.7092 H   0  0  0  0  0  0  0  0  0  0  0  0
   36.7492   32.9173   40.0654 H   0  0  0  0  0  0  0  0  0  0  0  0
   38.2037   27.1376   40.2159 H   0  0  0  0  0  0  0  0  0  0  0  0
   39.3411   26.8116   44.8700 H   0  0  0  0  0  0  0  0  0  0  0  0
   40.4901   30.5269   42.6086 H   0  0  0  0  0  0  0  0  0  0  0  0
   40.8032   29.9254   40.9124 H   0  0  0  0  0  0  0  0  0  0  0  0
   41.1723   32.6220   42.0491 H   0  0  0  0  0  0  0  0  0  0  0  0
   41.8320   31.8945   40.5450 H   0  0  0  0  0  0  0  0  0  0  0  0
   40.1903   32.6235   40.5450 H   0  0  0  0  0  0  0  0  0  0  0  0
  1  2  2  0
  2  7  1  0
  3 12  1  0
  3  2  1  0
  4  3  2  0
  5  4  1  0
  5  6  2  0
  6  1  1  0
  7 11  1  0
  8  7  2  0
  8  9  1  0
  9 10  1  0
 11 10  2  0
 13 12  1  0
  1 14  1  0
  5 15  1  0
  8 16  1  0
 10 17  1  0
 12 18  1  0
 12 19  1  0
 13 20  1  0
 13 21  1  0
 13 22  1  0
M  ISO  8  14  14  15  14  16  14  17  14  18   8  19   8  20   8  21   8
M  ISO  1  22   8
M  END
>  <minimizedAffinity>  (1) 
-3.28935504

>  <minimizedRMSD>  (1) 
2.41061068

$$$$
