
     RDKit          3D

 21 23  0  0  0  0  0  0  0  0999 V2000
   36.7620   29.9480   41.6530 C   0  0  0  0  0  0  0  0  0  0  0  0
   38.0030   29.3760   41.2110 C   0  0  0  0  0  0  0  0  0  0  0  0
   38.6950   29.9430   40.1650 C   0  0  0  0  0  0  0  0  0  0  0  0
   38.1330   31.0590   39.5730 N   0  0  0  0  0  0  0  0  0  0  0  0
   36.9440   31.5900   40.0100 C   0  0  0  0  0  0  0  0  0  0  0  0
   36.2610   31.0380   41.0470 N   0  0  0  0  0  0  0  0  0  0  0  0
   38.4140   28.1500   41.8730 C   0  0  0  0  0  0  0  0  0  0  0  0
   38.0220   26.8890   41.3320 C   0  0  0  0  0  0  0  0  0  0  0  0
   38.7530   25.6550   42.5200 S   0  0  0  0  0  0  0  0  0  0  0  0
   39.4610   27.1200   43.5470 C   0  0  0  0  0  0  0  0  0  0  0  0
   39.1320   28.0350   42.9920 N   0  0  0  0  0  0  0  0  0  0  0  0
   40.0140   29.5700   39.7130 C   0  0  0  0  0  0  0  0  0  0  0  0
   40.5880   28.6860   38.9030 N   0  0  0  0  0  0  0  0  0  0  0  0
   41.8550   28.8050   38.8670 O   0  0  0  0  0  0  0  0  0  0  0  0
   42.2420   29.7670   39.6410 C   0  0  0  0  0  0  0  0  0  0  0  0
   41.1020   30.2160   40.1450 N   0  0  0  0  0  0  0  0  0  0  0  0
   36.2181   29.4911   42.4929 H   0  0  0  0  0  0  0  0  0  0  0  0
   36.5361   32.4808   39.5100 H   0  0  0  0  0  0  0  0  0  0  0  0
   37.4283   26.6923   40.4271 H   0  0  0  0  0  0  0  0  0  0  0  0
   40.0552   27.0698   44.4713 H   0  0  0  0  0  0  0  0  0  0  0  0
   43.2647   30.1238   39.8330 H   0  0  0  0  0  0  0  0  0  0  0  0
  2  1  2  0
  2  7  1  0
  3  2  1  0
  4  5  1  0
  4  3  2  0
  5  6  2  0
  6  1  1  0
  7 11  1  0
  8  7  2  0
  8  9  1  0
  9 10  1  0
 11 10  2  0
 12 16  1  0
 12  3  1  0
 13 12  2  0
 14 13  1  0
 14 15  1  0
 15 16  2  0
  1 17  1  0
  5 18  1  0
  8 19  1  0
 10 20  1  0
 15 21  1  0
M  ISO  5  17  14  18  14  19  14  20  14  21  14
M  END
>  <minimizedAffinity>  (1) 
-3.32452703

>  <minimizedRMSD>  (1) 
1.6519618

$$$$
