
     RDKit          3D

 35 39  0  0  0  0  0  0  0  0999 V2000
   40.5600   31.2110   39.9180 C   0  0  0  0  0  0  0  0  0  0  0  0
   41.4520   30.6690   39.1180 N   0  0  0  0  0  0  0  0  0  0  0  0
   42.6180   31.1810   39.2760 O   0  0  0  0  0  0  0  0  0  0  0  0
   42.6040   32.1000   40.1810 C   0  0  0  0  0  0  0  0  0  0  0  0
   41.3410   32.1050   40.5630 N   0  0  0  0  0  0  0  0  0  0  0  0
   43.6500   32.9260   40.6820 N   0  0  0  0  0  0  0  0  0  0  0  0
   44.9950   32.6940   40.6400 C   0  0  0  0  0  0  0  0  0  0  0  0
   45.6630   33.7090   41.2190 N   0  0  0  0  0  0  0  0  0  0  0  0
   44.7340   34.5890   41.6280 C   0  0  0  0  0  0  0  0  0  0  0  0
   44.8870   35.8100   42.2850 C   0  0  0  0  0  0  0  0  0  0  0  0
   46.0170   36.3040   42.6150 O   0  0  0  0  0  0  0  0  0  0  0  0
   43.7440   36.4770   42.5690 N   0  0  0  0  0  0  0  0  0  0  0  0
   42.5170   36.0180   42.2520 C   0  0  0  0  0  0  0  0  0  0  0  0
   41.4370   36.8700   42.6380 N   0  0  0  0  0  0  0  0  0  0  0  0
   42.3630   34.8260   41.6100 N   0  0  0  0  0  0  0  0  0  0  0  0
   43.4730   34.1260   41.3070 C   0  0  0  0  0  0  0  0  0  0  0  0
   37.1680   30.2700   41.3590 C   0  0  0  0  0  0  0  0  0  0  0  0
   38.5700   30.1820   41.0550 C   0  0  0  0  0  0  0  0  0  0  0  0
   39.1540   31.1410   40.2780 C   0  0  0  0  0  0  0  0  0  0  0  0
   38.3450   32.1610   39.8160 N   0  0  0  0  0  0  0  0  0  0  0  0
   37.0160   32.2230   40.1160 C   0  0  0  0  0  0  0  0  0  0  0  0
   36.4210   31.2820   40.8880 N   0  0  0  0  0  0  0  0  0  0  0  0
   39.2580   29.0310   41.5940 C   0  0  0  0  0  0  0  0  0  0  0  0
   39.1780   27.7860   40.8810 C   0  0  0  0  0  0  0  0  0  0  0  0
   40.1790   26.6200   41.9110 S   0  0  0  0  0  0  0  0  0  0  0  0
   40.5300   28.0700   43.1480 C   0  0  0  0  0  0  0  0  0  0  0  0
   39.9840   28.9290   42.6920 N   0  0  0  0  0  0  0  0  0  0  0  0
   45.4656   31.8043   40.1962 H   0  0  0  0  0  0  0  0  0  0  0  0
   43.8156   37.3834   43.0530 H   0  0  0  0  0  0  0  0  0  0  0  0
   40.4657   36.5949   42.4338 H   0  0  0  0  0  0  0  0  0  0  0  0
   41.6297   37.7593   43.1205 H   0  0  0  0  0  0  0  0  0  0  0  0
   36.7000   29.4973   41.9866 H   0  0  0  0  0  0  0  0  0  0  0  0
   36.4140   33.0553   39.7225 H   0  0  0  0  0  0  0  0  0  0  0  0
   38.6457   27.5753   39.9417 H   0  0  0  0  0  0  0  0  0  0  0  0
   41.1232   28.0505   44.0742 H   0  0  0  0  0  0  0  0  0  0  0  0
  1 19  1  0
  1  5  1  0
  2  3  1  0
  2  1  2  0
  3  4  1  0
  4  5  2  0
  4  6  1  0
  6 16  1  0
  7  6  1  0
  7  8  2  0
  8  9  1  0
  9 10  1  0
 10 12  1  0
 10 11  2  0
 13 12  1  0
 13 14  1  0
 15 13  2  0
 16 15  1  0
 16  9  2  0
 18 17  2  0
 18 23  1  0
 19 18  1  0
 20 21  1  0
 20 19  2  0
 21 22  2  0
 22 17  1  0
 23 27  1  0
 24 23  2  0
 24 25  1  0
 25 26  1  0
 27 26  2  0
  7 28  1  0
 12 29  1  0
 14 30  1  0
 14 31  1  0
 17 32  1  0
 21 33  1  0
 24 34  1  0
 26 35  1  0
M  ISO  6  28  14  29   9  32  14  33  14  34  14  35  14
M  END
>  <minimizedAffinity>  (1) 
-6.3014183

>  <minimizedRMSD>  (1) 
2.33763123

$$$$
