
     RDKit          3D

 34 37  0  0  0  0  0  0  0  0999 V2000
   37.6620   30.8770   40.9420 C   0  0  0  0  0  0  0  0  0  0  0  0
   39.0970   30.9010   40.8040 C   0  0  0  0  0  0  0  0  0  0  0  0
   39.7060   31.9990   40.2680 C   0  0  0  0  0  0  0  0  0  0  0  0
   38.8900   33.0440   39.8760 N   0  0  0  0  0  0  0  0  0  0  0  0
   37.5350   32.9990   40.0160 C   0  0  0  0  0  0  0  0  0  0  0  0
   36.9190   31.9130   40.5500 N   0  0  0  0  0  0  0  0  0  0  0  0
   41.1330   32.1860   40.1000 C   0  0  0  0  0  0  0  0  0  0  0  0
   42.1770   31.7140   39.4600 N   0  0  0  0  0  0  0  0  0  0  0  0
   43.2560   32.3420   39.7560 O   0  0  0  0  0  0  0  0  0  0  0  0
   43.0310   33.2770   40.6090 C   0  0  0  0  0  0  0  0  0  0  0  0
   41.7350   33.1660   40.8050 N   0  0  0  0  0  0  0  0  0  0  0  0
   43.8700   34.2490   41.2540 N   0  0  0  0  0  0  0  0  0  0  0  0
   43.3240   35.0750   42.1650 C   0  0  0  0  0  0  0  0  0  0  0  0
   44.0330   36.0440   42.8450 C   0  0  0  0  0  0  0  0  0  0  0  0
   43.3330   36.9140   43.8410 C   0  0  0  0  0  0  0  0  0  0  0  0
   45.3780   36.1450   42.5510 C   0  0  0  0  0  0  0  0  0  0  0  0
   46.0570   37.0160   43.1490 O   0  0  0  0  0  0  0  0  0  0  0  0
   45.9220   35.3190   41.6400 N   0  0  0  0  0  0  0  0  0  0  0  0
   45.1890   34.3890   41.0020 C   0  0  0  0  0  0  0  0  0  0  0  0
   45.6850   33.6100   40.1470 O   0  0  0  0  0  0  0  0  0  0  0  0
   39.7900   29.7080   41.2330 C   0  0  0  0  0  0  0  0  0  0  0  0
   39.9480   28.6300   40.2990 C   0  0  0  0  0  0  0  0  0  0  0  0
   40.8580   27.3290   41.2370 S   0  0  0  0  0  0  0  0  0  0  0  0
   40.8620   28.5160   42.7690 C   0  0  0  0  0  0  0  0  0  0  0  0
   40.3250   29.4280   42.4060 N   0  0  0  0  0  0  0  0  0  0  0  0
   37.1734   29.9924   41.3764 H   0  0  0  0  0  0  0  0  0  0  0  0
   36.9296   33.8578   39.6906 H   0  0  0  0  0  0  0  0  0  0  0  0
   42.2502   34.9719   42.3802 H   0  0  0  0  0  0  0  0  0  0  0  0
   43.5942   36.5893   44.8590 H   0  0  0  0  0  0  0  0  0  0  0  0
   43.6448   37.9591   43.6981 H   0  0  0  0  0  0  0  0  0  0  0  0
   42.2453   36.8331   43.6981 H   0  0  0  0  0  0  0  0  0  0  0  0
   46.9260   35.4006   41.4252 H   0  0  0  0  0  0  0  0  0  0  0  0
   39.6029   28.5889   39.2553 H   0  0  0  0  0  0  0  0  0  0  0  0
   41.2926   28.3350   43.7649 H   0  0  0  0  0  0  0  0  0  0  0  0
  2  1  2  0
  2 21  1  0
  3  2  1  0
  4  5  1  0
  4  3  2  0
  5  6  2  0
  6  1  1  0
  7  3  1  0
  7 11  1  0
  8  9  1  0
  8  7  2  0
  9 10  1  0
 10 11  2  0
 10 12  1  0
 12 13  1  0
 13 14  2  0
 14 15  1  0
 16 14  1  0
 16 17  2  0
 18 16  1  0
 19 12  1  0
 19 18  1  0
 20 19  2  0
 21 25  1  0
 22 21  2  0
 22 23  1  0
 23 24  1  0
 25 24  2  0
  1 26  1  0
  5 27  1  0
 13 28  1  0
 15 29  1  0
 15 30  1  0
 15 31  1  0
 18 32  1  0
 22 33  1  0
 24 34  1  0
M  ISO  8  26  14  27  14  28  14  29   8  30   8  31   8  32   9  33  14
M  ISO  1  34  14
M  END
>  <minimizedAffinity>  (1) 
-6.05272388

>  <minimizedRMSD>  (1) 
3.54210544

$$$$
