
     RDKit          3D

 35 39  0  0  0  0  0  0  0  0999 V2000
   40.2890   31.3230   41.8520 C   0  0  0  0  0  0  0  0  0  0  0  0
   41.1790   30.9010   42.7160 N   0  0  0  0  0  0  0  0  0  0  0  0
   42.2600   31.5640   42.6880 O   0  0  0  0  0  0  0  0  0  0  0  0
   42.2070   32.5050   41.7970 C   0  0  0  0  0  0  0  0  0  0  0  0
   41.0060   32.3100   41.3310 N   0  0  0  0  0  0  0  0  0  0  0  0
   43.3330   33.3950   41.5850 C   0  0  0  0  0  0  0  0  0  0  0  0
   43.7660   34.2380   42.5380 N   0  0  0  0  0  0  0  0  0  0  0  0
   44.8000   35.0770   42.3920 C   0  0  0  0  0  0  0  0  0  0  0  0
   45.4820   35.1130   41.2280 N   0  0  0  0  0  0  0  0  0  0  0  0
   45.1380   34.3080   40.1940 C   0  0  0  0  0  0  0  0  0  0  0  0
   45.8270   34.3410   39.0080 C   0  0  0  0  0  0  0  0  0  0  0  0
   45.4720   33.5210   37.9600 C   0  0  0  0  0  0  0  0  0  0  0  0
   44.3900   32.6610   38.1510 C   0  0  0  0  0  0  0  0  0  0  0  0
   43.7320   32.6680   39.3620 C   0  0  0  0  0  0  0  0  0  0  0  0
   44.0670   33.4770   40.4240 C   0  0  0  0  0  0  0  0  0  0  0  0
   36.9190   29.8240   40.9390 C   0  0  0  0  0  0  0  0  0  0  0  0
   38.2640   29.9060   41.4350 C   0  0  0  0  0  0  0  0  0  0  0  0
   38.9520   31.0800   41.3640 C   0  0  0  0  0  0  0  0  0  0  0  0
   38.2880   32.1540   40.7950 N   0  0  0  0  0  0  0  0  0  0  0  0
   37.0120   32.0600   40.3280 C   0  0  0  0  0  0  0  0  0  0  0  0
   36.3290   30.9010   40.4000 N   0  0  0  0  0  0  0  0  0  0  0  0
   38.8110   28.6670   41.9720 C   0  0  0  0  0  0  0  0  0  0  0  0
   39.5040   27.7810   41.0720 C   0  0  0  0  0  0  0  0  0  0  0  0
   40.0120   26.3620   42.1500 S   0  0  0  0  0  0  0  0  0  0  0  0
   39.1720   27.2580   43.6460 C   0  0  0  0  0  0  0  0  0  0  0  0
   38.7660   28.2050   43.2070 N   0  0  0  0  0  0  0  0  0  0  0  0
   45.0934   35.7371   43.2215 H   0  0  0  0  0  0  0  0  0  0  0  0
   46.6749   35.0322   38.8926 H   0  0  0  0  0  0  0  0  0  0  0  0
   46.0214   33.5432   37.0073 H   0  0  0  0  0  0  0  0  0  0  0  0
   44.0662   31.9859   37.3452 H   0  0  0  0  0  0  0  0  0  0  0  0
   42.8822   31.9811   39.4883 H   0  0  0  0  0  0  0  0  0  0  0  0
   36.3698   28.8730   41.0014 H   0  0  0  0  0  0  0  0  0  0  0  0
   36.5314   32.9447   39.8849 H   0  0  0  0  0  0  0  0  0  0  0  0
   39.6885   27.9154   39.9960 H   0  0  0  0  0  0  0  0  0  0  0  0
   39.1080   26.9153   44.6893 H   0  0  0  0  0  0  0  0  0  0  0  0
  1  2  2  0
  3  2  1  0
  4  3  1  0
  5  4  2  0
  5  1  1  0
  6  4  1  0
  6  7  2  0
  8  7  1  0
  9  8  2  0
 10 15  2  0
 10  9  1  0
 11 10  1  0
 12 13  1  0
 12 11  2  0
 13 14  2  0
 14 15  1  0
 15  6  1  0
 16 17  2  0
 17 22  1  0
 18 17  1  0
 18  1  1  0
 19 18  2  0
 20 21  2  0
 20 19  1  0
 21 16  1  0
 22 26  1  0
 23 22  2  0
 23 24  1  0
 24 25  1  0
 26 25  2  0
  8 27  1  0
 11 28  1  0
 12 29  1  0
 13 30  1  0
 14 31  1  0
 16 32  1  0
 20 33  1  0
 23 34  1  0
 25 35  1  0
M  ISO  8  27  14  28  14  29  14  30  14  31  14  32  14  33  14  34  14
M  ISO  1  35  14
M  END
>  <minimizedAffinity>  (1) 
-5.29868984

>  <minimizedRMSD>  (1) 
2.91786647

$$$$
