
     RDKit          3D

 34 37  0  0  0  0  0  0  0  0999 V2000
   36.7320   30.0030   41.4450 C   0  0  0  0  0  0  0  0  0  0  0  0
   38.1190   29.6720   41.5960 C   0  0  0  0  0  0  0  0  0  0  0  0
   39.0890   30.5560   41.2260 C   0  0  0  0  0  0  0  0  0  0  0  0
   38.6530   31.7620   40.7040 N   0  0  0  0  0  0  0  0  0  0  0  0
   37.3300   32.0640   40.5640 C   0  0  0  0  0  0  0  0  0  0  0  0
   36.3720   31.1900   40.9320 N   0  0  0  0  0  0  0  0  0  0  0  0
   38.3900   28.3410   42.1330 C   0  0  0  0  0  0  0  0  0  0  0  0
   38.1980   27.2060   41.2760 C   0  0  0  0  0  0  0  0  0  0  0  0
   38.6380   25.7630   42.3400 S   0  0  0  0  0  0  0  0  0  0  0  0
   39.0080   26.9870   43.7770 C   0  0  0  0  0  0  0  0  0  0  0  0
   38.7980   27.9990   43.3410 N   0  0  0  0  0  0  0  0  0  0  0  0
   40.5150   30.3740   41.3560 C   0  0  0  0  0  0  0  0  0  0  0  0
   41.5230   29.6990   40.8500 N   0  0  0  0  0  0  0  0  0  0  0  0
   42.6340   29.9820   41.4250 O   0  0  0  0  0  0  0  0  0  0  0  0
   42.4710   30.8580   42.3520 C   0  0  0  0  0  0  0  0  0  0  0  0
   41.1710   31.0840   42.2950 N   0  0  0  0  0  0  0  0  0  0  0  0
   45.1200   32.7620   45.0120 C   0  0  0  0  0  0  0  0  0  0  0  0
   44.4870   31.6090   45.4330 C   0  0  0  0  0  0  0  0  0  0  0  0
   43.6210   30.9940   44.5510 C   0  0  0  0  0  0  0  0  0  0  0  0
   43.3940   31.5120   43.2920 C   0  0  0  0  0  0  0  0  0  0  0  0
   44.0360   32.6670   42.8900 C   0  0  0  0  0  0  0  0  0  0  0  0
   44.9230   33.3270   43.7470 C   0  0  0  0  0  0  0  0  0  0  0  0
   46.2310   33.5810   46.0990 S   0  0  0  0  0  0  0  0  0  0  0  0
   46.7350   32.6480   47.1330 O   0  0  0  0  0  0  0  0  0  0  0  0
   45.4910   34.7700   46.6750 O   0  0  0  0  0  0  0  0  0  0  0  0
   35.9601   29.2814   41.7507 H   0  0  0  0  0  0  0  0  0  0  0  0
   37.0398   33.0381   40.1433 H   0  0  0  0  0  0  0  0  0  0  0  0
   37.8655   27.1978   40.2275 H   0  0  0  0  0  0  0  0  0  0  0  0
   39.3484   26.7486   44.7955 H   0  0  0  0  0  0  0  0  0  0  0  0
   44.6666   31.1950   46.4362 H   0  0  0  0  0  0  0  0  0  0  0  0
   43.1021   30.0738   44.8575 H   0  0  0  0  0  0  0  0  0  0  0  0
   43.8477   33.0723   41.8849 H   0  0  0  0  0  0  0  0  0  0  0  0
   45.4416   34.2475   43.4407 H   0  0  0  0  0  0  0  0  0  0  0  0
   47.3476   34.0257   45.4414 H   0  0  0  0  0  0  0  0  0  0  0  0
  1  2  2  0
  2  7  1  0
  3 12  1  0
  3  2  1  0
  4  3  2  0
  5  4  1  0
  5  6  2  0
  6  1  1  0
  7 11  1  0
  8  7  2  0
  8  9  1  0
  9 10  1  0
 11 10  2  0
 12 16  1  0
 13 12  2  0
 13 14  1  0
 14 15  1  0
 15 20  1  0
 16 15  2  0
 17 18  2  0
 17 23  1  0
 19 18  1  0
 20 19  2  0
 21 20  1  0
 21 22  2  0
 22 17  1  0
 23 25  2  0
 23 24  2  0
  1 26  1  0
  5 27  1  0
  8 28  1  0
 10 29  1  0
 18 30  1  0
 19 31  1  0
 21 32  1  0
 22 33  1  0
 23 34  1  0
M  ISO  8  26  14  27  14  28  14  29  14  30  14  31  14  32  14  33  14
M  ISO  1  34  11
M  END
>  <minimizedAffinity>  (1) 
-5.29653502

>  <minimizedRMSD>  (1) 
3.18126321

$$$$
