
     RDKit          3D

 31 34  0  0  0  0  0  0  0  0999 V2000
   37.1890   30.4390   41.2950 C   0  0  0  0  0  0  0  0  0  0  0  0
   38.5300   30.1460   40.8570 C   0  0  0  0  0  0  0  0  0  0  0  0
   39.1090   30.9100   39.8850 C   0  0  0  0  0  0  0  0  0  0  0  0
   38.3510   31.9450   39.3650 N   0  0  0  0  0  0  0  0  0  0  0  0
   37.0840   32.2060   39.7930 C   0  0  0  0  0  0  0  0  0  0  0  0
   36.4970   31.4570   40.7580 N   0  0  0  0  0  0  0  0  0  0  0  0
   40.4520   30.7600   39.3700 C   0  0  0  0  0  0  0  0  0  0  0  0
   41.2560   29.8960   38.7960 N   0  0  0  0  0  0  0  0  0  0  0  0
   42.4160   30.3900   38.5680 O   0  0  0  0  0  0  0  0  0  0  0  0
   42.4970   31.6100   38.9600 C   0  0  0  0  0  0  0  0  0  0  0  0
   41.2890   31.8150   39.4460 N   0  0  0  0  0  0  0  0  0  0  0  0
   43.5660   32.5510   38.9170 N   0  0  0  0  0  0  0  0  0  0  0  0
   44.7600   32.2270   39.4500 C   0  0  0  0  0  0  0  0  0  0  0  0
   45.7660   33.1990   39.3720 C   0  0  0  0  0  0  0  0  0  0  0  0
   45.4810   34.4070   38.7660 C   0  0  0  0  0  0  0  0  0  0  0  0
   46.3960   35.2670   38.7060 O   0  0  0  0  0  0  0  0  0  0  0  0
   44.2660   34.6700   38.2510 N   0  0  0  0  0  0  0  0  0  0  0  0
   43.2760   33.7360   38.3170 C   0  0  0  0  0  0  0  0  0  0  0  0
   42.1320   33.9620   37.8420 O   0  0  0  0  0  0  0  0  0  0  0  0
   39.1590   29.0110   41.4880 C   0  0  0  0  0  0  0  0  0  0  0  0
   38.9100   27.6990   40.9450 C   0  0  0  0  0  0  0  0  0  0  0  0
   39.8830   26.5680   42.0350 S   0  0  0  0  0  0  0  0  0  0  0  0
   40.4640   28.1120   43.0500 C   0  0  0  0  0  0  0  0  0  0  0  0
   39.9600   28.9620   42.5300 N   0  0  0  0  0  0  0  0  0  0  0  0
   36.7264   29.8213   42.0788 H   0  0  0  0  0  0  0  0  0  0  0  0
   36.5260   33.0420   39.3460 H   0  0  0  0  0  0  0  0  0  0  0  0
   44.9361   31.2493   39.9223 H   0  0  0  0  0  0  0  0  0  0  0  0
   46.7660   33.0034   39.7864 H   0  0  0  0  0  0  0  0  0  0  0  0
   44.0836   35.5805   37.8053 H   0  0  0  0  0  0  0  0  0  0  0  0
   38.2844   27.4324   40.0804 H   0  0  0  0  0  0  0  0  0  0  0  0
   41.1288   28.1438   43.9258 H   0  0  0  0  0  0  0  0  0  0  0  0
  2  1  2  0
  2 20  1  0
  3  2  1  0
  4  5  1  0
  4  3  2  0
  5  6  2  0
  6  1  1  0
  7 11  1  0
  7  3  1  0
  8  7  2  0
  9  8  1  0
  9 10  1  0
 10 11  2  0
 12 10  1  0
 12 13  1  0
 14 13  2  0
 15 14  1  0
 16 15  2  0
 17 18  1  0
 17 15  1  0
 18 12  1  0
 19 18  2  0
 20 24  1  0
 21 20  2  0
 21 22  1  0
 22 23  1  0
 24 23  2  0
  1 25  1  0
  5 26  1  0
 13 27  1  0
 14 28  1  0
 17 29  1  0
 21 30  1  0
 23 31  1  0
M  ISO  7  25  14  26  14  27  14  28  14  29   9  30  14  31  14
M  END
>  <minimizedAffinity>  (1) 
-5.14993668

>  <minimizedRMSD>  (1) 
2.08975363

$$$$
