
     RDKit          3D

 36 39  0  0  0  0  0  0  0  0999 V2000
   36.9780   30.0160   41.1100 C   0  0  0  0  0  0  0  0  0  0  0  0
   38.4150   30.0690   41.2470 C   0  0  0  0  0  0  0  0  0  0  0  0
   39.0710   31.2080   40.8770 C   0  0  0  0  0  0  0  0  0  0  0  0
   38.3200   32.2550   40.3850 N   0  0  0  0  0  0  0  0  0  0  0  0
   36.9650   32.1830   40.2620 C   0  0  0  0  0  0  0  0  0  0  0  0
   36.2850   31.0620   40.6260 N   0  0  0  0  0  0  0  0  0  0  0  0
   40.5050   31.4340   40.9890 C   0  0  0  0  0  0  0  0  0  0  0  0
   41.6570   30.8060   41.0250 N   0  0  0  0  0  0  0  0  0  0  0  0
   42.6520   31.5960   41.1560 O   0  0  0  0  0  0  0  0  0  0  0  0
   42.2520   32.8310   41.2220 C   0  0  0  0  0  0  0  0  0  0  0  0
   40.9450   32.7040   41.1180 N   0  0  0  0  0  0  0  0  0  0  0  0
   42.8590   34.1270   41.3630 N   0  0  0  0  0  0  0  0  0  0  0  0
   44.2960   33.9310   41.3750 C   0  0  0  0  0  0  0  0  0  0  0  0
   44.9020   35.2390   41.8570 C   0  0  0  0  0  0  0  0  0  0  0  0
   44.0770   35.6540   43.0580 C   0  0  0  0  0  0  0  0  0  0  0  0
   42.8160   36.2990   42.5320 C   0  0  0  0  0  0  0  0  0  0  0  0
   42.2240   35.4230   41.4730 C   0  0  0  0  0  0  0  0  0  0  0  0
   39.0510   28.8690   41.7460 C   0  0  0  0  0  0  0  0  0  0  0  0
   39.3640   27.8300   40.7990 C   0  0  0  0  0  0  0  0  0  0  0  0
   40.1370   26.5090   41.8420 S   0  0  0  0  0  0  0  0  0  0  0  0
   39.8810   27.6430   43.3880 C   0  0  0  0  0  0  0  0  0  0  0  0
   39.3940   28.5670   42.9810 N   0  0  0  0  0  0  0  0  0  0  0  0
   36.4406   29.1033   41.4070 H   0  0  0  0  0  0  0  0  0  0  0  0
   36.4116   33.0453   39.8618 H   0  0  0  0  0  0  0  0  0  0  0  0
   44.5629   33.1126   42.0598 H   0  0  0  0  0  0  0  0  0  0  0  0
   44.6706   33.6612   40.3766 H   0  0  0  0  0  0  0  0  0  0  0  0
   45.9531   35.0914   42.1460 H   0  0  0  0  0  0  0  0  0  0  0  0
   44.8889   36.0073   41.0699 H   0  0  0  0  0  0  0  0  0  0  0  0
   43.8244   34.7719   43.6648 H   0  0  0  0  0  0  0  0  0  0  0  0
   44.6380   36.3545   43.6941 H   0  0  0  0  0  0  0  0  0  0  0  0
   42.0950   36.4226   43.3535 H   0  0  0  0  0  0  0  0  0  0  0  0
   43.0533   37.2856   42.1074 H   0  0  0  0  0  0  0  0  0  0  0  0
   42.3171   35.9378   40.5054 H   0  0  0  0  0  0  0  0  0  0  0  0
   41.1763   35.2429   41.7557 H   0  0  0  0  0  0  0  0  0  0  0  0
   39.1861   27.8227   39.7135 H   0  0  0  0  0  0  0  0  0  0  0  0
   40.1524   27.4291   44.4323 H   0  0  0  0  0  0  0  0  0  0  0  0
  1  2  2  0
  2 18  1  0
  3  7  1  0
  3  2  1  0
  4  3  2  0
  5  4  1  0
  5  6  2  0
  6  1  1  0
  7  8  2  0
  7 11  1  0
  8  9  1  0
  9 10  1  0
 10 12  1  0
 11 10  2  0
 12 13  1  0
 12 17  1  0
 13 14  1  0
 14 15  1  0
 16 15  1  0
 17 16  1  0
 18 22  1  0
 19 18  2  0
 19 20  1  0
 20 21  1  0
 22 21  2  0
  1 23  1  0
  5 24  1  0
 13 25  1  0
 13 26  1  0
 14 27  1  0
 14 28  1  0
 15 29  1  0
 15 30  1  0
 16 31  1  0
 16 32  1  0
 17 33  1  0
 17 34  1  0
 19 35  1  0
 21 36  1  0
M  ISO  8  23  14  24  14  25  13  26  13  27  13  28  13  29  13  30  13
M  ISO  6  31  13  32  13  33  13  34  13  35  14  36  14
M  END
>  <minimizedAffinity>  (1) 
-5.06129026

>  <minimizedRMSD>  (1) 
3.15140104

$$$$
