
     RDKit          3D

 34 37  0  0  0  0  0  0  0  0999 V2000
   36.8530   29.7110   41.4530 C   0  0  0  0  0  0  0  0  0  0  0  0
   38.2900   29.7710   41.4150 C   0  0  0  0  0  0  0  0  0  0  0  0
   38.8930   30.8910   40.9130 C   0  0  0  0  0  0  0  0  0  0  0  0
   38.0940   31.9140   40.4610 N   0  0  0  0  0  0  0  0  0  0  0  0
   36.7240   31.8250   40.5080 C   0  0  0  0  0  0  0  0  0  0  0  0
   36.1080   30.7280   41.0030 N   0  0  0  0  0  0  0  0  0  0  0  0
   40.3310   31.1170   40.8400 C   0  0  0  0  0  0  0  0  0  0  0  0
   41.4700   30.5290   40.5510 N   0  0  0  0  0  0  0  0  0  0  0  0
   42.4730   31.3020   40.6970 O   0  0  0  0  0  0  0  0  0  0  0  0
   42.1090   32.4770   41.0950 C   0  0  0  0  0  0  0  0  0  0  0  0
   40.8030   32.3340   41.1730 N   0  0  0  0  0  0  0  0  0  0  0  0
   42.6380   33.7650   41.4450 N   0  0  0  0  0  0  0  0  0  0  0  0
   43.7350   33.9520   42.3920 C   0  0  0  0  0  0  0  0  0  0  0  0
   44.2310   35.3650   42.2300 C   0  0  0  0  0  0  0  0  0  0  0  0
   43.2470   36.3150   42.4130 O   0  0  0  0  0  0  0  0  0  0  0  0
   42.0220   36.0290   41.8730 C   0  0  0  0  0  0  0  0  0  0  0  0
   42.0700   34.9450   40.8250 C   0  0  0  0  0  0  0  0  0  0  0  0
   38.9880   28.5940   41.8930 C   0  0  0  0  0  0  0  0  0  0  0  0
   39.0330   27.4430   41.0360 C   0  0  0  0  0  0  0  0  0  0  0  0
   39.9960   26.2120   42.0430 S   0  0  0  0  0  0  0  0  0  0  0  0
   40.1480   27.5260   43.4490 C   0  0  0  0  0  0  0  0  0  0  0  0
   39.6050   28.4130   43.0420 N   0  0  0  0  0  0  0  0  0  0  0  0
   36.3589   28.8156   41.8581 H   0  0  0  0  0  0  0  0  0  0  0  0
   36.1162   32.6628   40.1356 H   0  0  0  0  0  0  0  0  0  0  0  0
   43.3759   33.7947   43.4198 H   0  0  0  0  0  0  0  0  0  0  0  0
   44.5432   33.2312   42.1989 H   0  0  0  0  0  0  0  0  0  0  0  0
   45.0278   35.5417   42.9675 H   0  0  0  0  0  0  0  0  0  0  0  0
   44.5921   35.4661   41.1959 H   0  0  0  0  0  0  0  0  0  0  0  0
   41.3514   35.7032   42.6818 H   0  0  0  0  0  0  0  0  0  0  0  0
   41.6621   36.9437   41.3792 H   0  0  0  0  0  0  0  0  0  0  0  0
   42.6989   35.2657   39.9814 H   0  0  0  0  0  0  0  0  0  0  0  0
   41.0616   34.7332   40.4401 H   0  0  0  0  0  0  0  0  0  0  0  0
   38.6034   27.3198   40.0309 H   0  0  0  0  0  0  0  0  0  0  0  0
   40.6510   27.4249   44.4220 H   0  0  0  0  0  0  0  0  0  0  0  0
  2  1  2  0
  2 18  1  0
  3  2  1  0
  4  5  1  0
  4  3  2  0
  5  6  2  0
  6  1  1  0
  7  3  1  0
  7 11  1  0
  8  9  1  0
  8  7  2  0
  9 10  1  0
 10 11  2  0
 10 12  1  0
 12 13  1  0
 14 13  1  0
 14 15  1  0
 16 15  1  0
 17 12  1  0
 17 16  1  0
 18 22  1  0
 19 18  2  0
 19 20  1  0
 20 21  1  0
 22 21  2  0
  1 23  1  0
  5 24  1  0
 13 25  1  0
 13 26  1  0
 14 27  1  0
 14 28  1  0
 16 29  1  0
 16 30  1  0
 17 31  1  0
 17 32  1  0
 19 33  1  0
 21 34  1  0
M  ISO  8  23  14  24  14  25  13  26  13  27  13  28  13  29  13  30  13
M  ISO  4  31  13  32  13  33  14  34  14
M  END
>  <minimizedAffinity>  (1) 
-5.00908899

>  <minimizedRMSD>  (1) 
2.7099185

$$$$
