
     RDKit          3D

 31 34  0  0  0  0  0  0  0  0999 V2000
   37.3410   30.2730   41.2430 C   0  0  0  0  0  0  0  0  0  0  0  0
   38.7710   30.3710   41.1260 C   0  0  0  0  0  0  0  0  0  0  0  0
   39.3370   31.4670   40.5440 C   0  0  0  0  0  0  0  0  0  0  0  0
   38.4790   32.4440   40.0830 N   0  0  0  0  0  0  0  0  0  0  0  0
   37.1200   32.3320   40.2010 C   0  0  0  0  0  0  0  0  0  0  0  0
   36.5560   31.2570   40.7770 N   0  0  0  0  0  0  0  0  0  0  0  0
   39.5180   29.2300   41.6220 C   0  0  0  0  0  0  0  0  0  0  0  0
   39.4030   27.9800   40.9120 C   0  0  0  0  0  0  0  0  0  0  0  0
   40.4810   26.8200   41.8580 S   0  0  0  0  0  0  0  0  0  0  0  0
   40.9030   28.2730   43.0710 C   0  0  0  0  0  0  0  0  0  0  0  0
   40.3170   29.1310   42.6580 N   0  0  0  0  0  0  0  0  0  0  0  0
   40.7590   31.7220   40.3970 C   0  0  0  0  0  0  0  0  0  0  0  0
   41.8420   31.2540   39.8190 N   0  0  0  0  0  0  0  0  0  0  0  0
   42.8830   31.9550   40.0860 O   0  0  0  0  0  0  0  0  0  0  0  0
   42.5830   32.9380   40.8560 C   0  0  0  0  0  0  0  0  0  0  0  0
   41.2790   32.7910   41.0440 N   0  0  0  0  0  0  0  0  0  0  0  0
   43.4690   33.9600   41.3870 C   0  0  0  0  0  0  0  0  0  0  0  0
   43.0050   35.0280   42.1280 C   0  0  0  0  0  0  0  0  0  0  0  0
   43.8450   36.0160   42.6450 C   0  0  0  0  0  0  0  0  0  0  0  0
   45.2140   35.8970   42.3870 C   0  0  0  0  0  0  0  0  0  0  0  0
   45.6760   34.8300   41.6470 C   0  0  0  0  0  0  0  0  0  0  0  0
   44.8350   33.8590   41.1420 C   0  0  0  0  0  0  0  0  0  0  0  0
   36.8890   29.3887   41.7160 H   0  0  0  0  0  0  0  0  0  0  0  0
   36.4771   33.1376   39.8169 H   0  0  0  0  0  0  0  0  0  0  0  0
   38.8081   27.7669   40.0116 H   0  0  0  0  0  0  0  0  0  0  0  0
   41.5604   28.2569   43.9528 H   0  0  0  0  0  0  0  0  0  0  0  0
   41.9245   35.1041   42.3199 H   0  0  0  0  0  0  0  0  0  0  0  0
   43.4453   36.8556   43.2326 H   0  0  0  0  0  0  0  0  0  0  0  0
   45.9175   36.6499   42.7720 H   0  0  0  0  0  0  0  0  0  0  0  0
   46.7555   34.7492   41.4515 H   0  0  0  0  0  0  0  0  0  0  0  0
   45.2377   33.0197   40.5559 H   0  0  0  0  0  0  0  0  0  0  0  0
  2  1  2  0
  2  7  1  0
  3  2  1  0
  4  5  1  0
  4  3  2  0
  5  6  2  0
  6  1  1  0
  7 11  1  0
  8  7  2  0
  8  9  1  0
  9 10  1  0
 11 10  2  0
 12  3  1  0
 12 16  1  0
 13 14  1  0
 13 12  2  0
 14 15  1  0
 15 16  2  0
 15 17  1  0
 17 18  2  0
 18 19  1  0
 20 19  2  0
 21 20  1  0
 22 17  1  0
 22 21  2  0
  1 23  1  0
  5 24  1  0
  8 25  1  0
 10 26  1  0
 18 27  1  0
 19 28  1  0
 20 29  1  0
 21 30  1  0
 22 31  1  0
M  ISO  8  23  14  24  14  25  14  26  14  27  14  28  14  29  14  30  14
M  ISO  1  31  14
M  END
>  <minimizedAffinity>  (1) 
-4.67413425

>  <minimizedRMSD>  (1) 
3.06239796

$$$$
