
     RDKit          3D

 28 31  0  0  0  0  0  0  0  0999 V2000
   36.8830   29.8840   41.7850 C   0  0  0  0  0  0  0  0  0  0  0  0
   38.1340   29.4320   41.2350 C   0  0  0  0  0  0  0  0  0  0  0  0
   38.6370   30.0390   40.1210 C   0  0  0  0  0  0  0  0  0  0  0  0
   37.9010   31.0700   39.5720 N   0  0  0  0  0  0  0  0  0  0  0  0
   36.7180   31.4790   40.1090 C   0  0  0  0  0  0  0  0  0  0  0  0
   36.2080   30.8930   41.2100 N   0  0  0  0  0  0  0  0  0  0  0  0
   38.7500   28.3160   41.9130 C   0  0  0  0  0  0  0  0  0  0  0  0
   38.3340   26.9820   41.5600 C   0  0  0  0  0  0  0  0  0  0  0  0
   39.3570   25.8950   42.6530 S   0  0  0  0  0  0  0  0  0  0  0  0
   40.1740   27.4830   43.4020 C   0  0  0  0  0  0  0  0  0  0  0  0
   39.6730   28.3150   42.8500 N   0  0  0  0  0  0  0  0  0  0  0  0
   39.9040   29.7280   39.4800 C   0  0  0  0  0  0  0  0  0  0  0  0
   40.6440   28.7300   39.0630 N   0  0  0  0  0  0  0  0  0  0  0  0
   41.7500   29.1260   38.5450 O   0  0  0  0  0  0  0  0  0  0  0  0
   41.8460   30.4040   38.5690 C   0  0  0  0  0  0  0  0  0  0  0  0
   40.7120   30.7580   39.1420 N   0  0  0  0  0  0  0  0  0  0  0  0
   42.9690   31.2000   38.0630 C   0  0  0  0  0  0  0  0  0  0  0  0
   42.7020   32.4430   37.2520 C   0  0  0  0  0  0  0  0  0  0  0  0
   43.3460   31.2170   36.6350 C   0  0  0  0  0  0  0  0  0  0  0  0
   36.4760   29.3987   42.6844 H   0  0  0  0  0  0  0  0  0  0  0  0
   36.1676   32.3046   39.6342 H   0  0  0  0  0  0  0  0  0  0  0  0
   37.5834   26.6805   40.8146 H   0  0  0  0  0  0  0  0  0  0  0  0
   40.9457   27.5497   44.1830 H   0  0  0  0  0  0  0  0  0  0  0  0
   43.5172   30.9664   38.9876 H   0  0  0  0  0  0  0  0  0  0  0  0
   41.6713   32.7206   36.9863 H   0  0  0  0  0  0  0  0  0  0  0  0
   42.9607   33.5087   37.3374 H   0  0  0  0  0  0  0  0  0  0  0  0
   42.7843   30.6074   35.9120 H   0  0  0  0  0  0  0  0  0  0  0  0
   44.2744   31.0276   36.0763 H   0  0  0  0  0  0  0  0  0  0  0  0
  2  1  2  0
  2  7  1  0
  3  2  1  0
  4  5  1  0
  4  3  2  0
  5  6  2  0
  6  1  1  0
  7 11  1  0
  8  7  2  0
  8  9  1  0
  9 10  1  0
 11 10  2  0
 12  3  1  0
 13 12  2  0
 14 15  1  0
 14 13  1  0
 15 16  2  0
 16 12  1  0
 17 15  1  0
 18 17  1  0
 19 18  1  0
 19 17  1  0
  1 20  1  0
  5 21  1  0
  8 22  1  0
 10 23  1  0
 17 24  1  0
 18 25  1  0
 18 26  1  0
 19 27  1  0
 19 28  1  0
M  ISO  8  20  14  21  14  22  14  23  14  24  13  25  13  26  13  27  13
M  ISO  1  28  13
M  END
>  <minimizedAffinity>  (1) 
-3.74019766

>  <minimizedRMSD>  (1) 
1.13126707

$$$$
