
     RDKit          3D

 23 25  0  0  0  0  0  0  0  0999 V2000
   36.7410   29.9250   41.6460 C   0  0  0  0  0  0  0  0  0  0  0  0
   37.9960   29.3750   41.2070 C   0  0  0  0  0  0  0  0  0  0  0  0
   38.6980   29.9700   40.1990 C   0  0  0  0  0  0  0  0  0  0  0  0
   38.1350   31.1010   39.6420 N   0  0  0  0  0  0  0  0  0  0  0  0
   36.9450   31.6110   40.0650 C   0  0  0  0  0  0  0  0  0  0  0  0
   36.2510   31.0290   41.0620 N   0  0  0  0  0  0  0  0  0  0  0  0
   39.9840   29.5560   39.6910 C   0  0  0  0  0  0  0  0  0  0  0  0
   40.5600   28.6690   38.9140 N   0  0  0  0  0  0  0  0  0  0  0  0
   41.8240   28.8090   38.8550 O   0  0  0  0  0  0  0  0  0  0  0  0
   42.2170   29.8050   39.5880 C   0  0  0  0  0  0  0  0  0  0  0  0
   41.0790   30.2450   40.0880 N   0  0  0  0  0  0  0  0  0  0  0  0
   43.5160   30.3240   39.8240 N   0  0  0  0  0  0  0  0  0  0  0  0
   38.4110   28.1600   41.8850 C   0  0  0  0  0  0  0  0  0  0  0  0
   38.0120   26.8910   41.3420 C   0  0  0  0  0  0  0  0  0  0  0  0
   38.7460   25.6600   42.5160 S   0  0  0  0  0  0  0  0  0  0  0  0
   39.4710   27.1170   43.5430 C   0  0  0  0  0  0  0  0  0  0  0  0
   39.1260   28.0090   42.9750 N   0  0  0  0  0  0  0  0  0  0  0  0
   36.1831   29.4402   42.4607 H   0  0  0  0  0  0  0  0  0  0  0  0
   36.5433   32.5148   39.5836 H   0  0  0  0  0  0  0  0  0  0  0  0
   43.6413   31.1348   40.4467 H   0  0  0  0  0  0  0  0  0  0  0  0
   44.3338   29.8900   39.3727 H   0  0  0  0  0  0  0  0  0  0  0  0
   37.4118   26.6962   40.4410 H   0  0  0  0  0  0  0  0  0  0  0  0
   40.0751   27.0776   44.4614 H   0  0  0  0  0  0  0  0  0  0  0  0
  2  1  2  0
  2 13  1  0
  3  2  1  0
  4  5  1  0
  4  3  2  0
  5  6  2  0
  6  1  1  0
  7 11  1  0
  7  3  1  0
  8  7  2  0
  9  8  1  0
  9 10  1  0
 10 12  1  0
 10 11  2  0
 13 17  1  0
 14 13  2  0
 14 15  1  0
 15 16  1  0
 17 16  2  0
  1 18  1  0
  5 19  1  0
 12 20  1  0
 12 21  1  0
 14 22  1  0
 16 23  1  0
M  ISO  4  18  14  19  14  22  14  23  14
M  END
>  <minimizedAffinity>  (1) 
-3.40441132

>  <minimizedRMSD>  (1) 
0.0449999012

$$$$
