
     RDKit          3D

 37 41  0  0  0  0  0  0  0  0999 V2000
   35.9470   28.1840   39.9770 C   0  0  0  0  0  0  0  0  0  0  0  0
   37.1800   28.9000   40.0940 C   0  0  0  0  0  0  0  0  0  0  0  0
   37.4770   29.8930   39.2000 C   0  0  0  0  0  0  0  0  0  0  0  0
   36.5430   30.1390   38.2250 N   0  0  0  0  0  0  0  0  0  0  0  0
   35.3780   29.4480   38.1320 C   0  0  0  0  0  0  0  0  0  0  0  0
   35.0770   28.4750   39.0010 N   0  0  0  0  0  0  0  0  0  0  0  0
   38.0460   28.4940   41.1890 C   0  0  0  0  0  0  0  0  0  0  0  0
   37.7070   27.2750   41.8860 C   0  0  0  0  0  0  0  0  0  0  0  0
   39.0180   27.1130   43.1730 S   0  0  0  0  0  0  0  0  0  0  0  0
   39.7910   28.7530   42.5170 C   0  0  0  0  0  0  0  0  0  0  0  0
   39.1210   29.0490   41.6830 N   0  0  0  0  0  0  0  0  0  0  0  0
   41.0690   29.6280   42.9280 N   0  0  0  0  0  0  0  0  0  0  0  0
   42.1550   28.9110   43.2400 C   0  0  0  0  0  0  0  0  0  0  0  0
   43.2330   29.6870   43.5850 C   0  0  0  0  0  0  0  0  0  0  0  0
   43.0920   31.0780   43.5730 C   0  0  0  0  0  0  0  0  0  0  0  0
   44.1150   31.7750   43.9000 O   0  0  0  0  0  0  0  0  0  0  0  0
   41.9290   31.6760   43.2360 N   0  0  0  0  0  0  0  0  0  0  0  0
   40.8610   30.9330   42.8960 C   0  0  0  0  0  0  0  0  0  0  0  0
   39.7560   31.4180   42.5720 O   0  0  0  0  0  0  0  0  0  0  0  0
   38.6870   30.7020   39.2050 C   0  0  0  0  0  0  0  0  0  0  0  0
   39.9770   30.6590   39.0470 N   0  0  0  0  0  0  0  0  0  0  0  0
   40.5270   31.8030   39.1910 O   0  0  0  0  0  0  0  0  0  0  0  0
   39.6600   32.7210   39.4600 C   0  0  0  0  0  0  0  0  0  0  0  0
   38.5260   32.0300   39.4660 N   0  0  0  0  0  0  0  0  0  0  0  0
   39.7560   34.1240   39.7040 N   0  0  0  0  0  0  0  0  0  0  0  0
   40.8990   34.8210   39.6820 C   0  0  0  0  0  0  0  0  0  0  0  0
   40.6170   36.1120   39.9560 N   0  0  0  0  0  0  0  0  0  0  0  0
   39.2840   36.2020   40.1470 C   0  0  0  0  0  0  0  0  0  0  0  0
   38.7500   34.9550   39.9890 N   0  0  0  0  0  0  0  0  0  0  0  0
   35.7109   27.3859   40.6963 H   0  0  0  0  0  0  0  0  0  0  0  0
   34.6683   29.6921   37.3278 H   0  0  0  0  0  0  0  0  0  0  0  0
   36.8611   26.5987   41.6934 H   0  0  0  0  0  0  0  0  0  0  0  0
   42.1810   27.8115   43.2218 H   0  0  0  0  0  0  0  0  0  0  0  0
   44.1902   29.2233   43.8657 H   0  0  0  0  0  0  0  0  0  0  0  0
   41.8599   32.7037   43.2394 H   0  0  0  0  0  0  0  0  0  0  0  0
   41.8986   34.4108   39.4756 H   0  0  0  0  0  0  0  0  0  0  0  0
   38.7257   37.1187   40.3877 H   0  0  0  0  0  0  0  0  0  0  0  0
  1  2  2  0
  2  7  1  0
  3 20  1  0
  3  2  1  0
  4  3  2  0
  5  4  1  0
  5  6  2  0
  6  1  1  0
  7 11  1  0
  7  8  2  0
  8  9  1  0
 10 12  1  0
 10  9  1  0
 11 10  2  0
 12 13  1  0
 13 14  2  0
 15 14  1  0
 15 16  2  0
 17 15  1  0
 18 12  1  0
 18 17  1  0
 19 18  2  0
 20 24  1  0
 21 22  1  0
 21 20  2  0
 22 23  1  0
 23 24  2  0
 23 25  1  0
 25 29  1  0
 26 25  1  0
 26 27  2  0
 27 28  1  0
 29 28  2  0
  1 30  1  0
  5 31  1  0
  8 32  1  0
 13 33  1  0
 14 34  1  0
 17 35  1  0
 26 36  1  0
 28 37  1  0
M  ISO  8  30  14  31  14  32  14  33  14  34  14  35   9  36  14  37  14
M  END
>  <minimizedAffinity>  (1) 
-6.69276094

>  <minimizedRMSD>  (1) 
3.3538506

$$$$
