
     RDKit          3D

 41 46  0  0  0  0  0  0  0  0999 V2000
   37.9440   29.6350   41.7370 C   0  0  0  0  0  0  0  0  0  0  0  0
   39.2710   29.9940   41.3300 C   0  0  0  0  0  0  0  0  0  0  0  0
   39.4750   31.1340   40.6250 C   0  0  0  0  0  0  0  0  0  0  0  0
   38.3720   31.8910   40.3380 N   0  0  0  0  0  0  0  0  0  0  0  0
   37.1190   31.5380   40.7300 C   0  0  0  0  0  0  0  0  0  0  0  0
   36.9010   30.4150   41.4280 N   0  0  0  0  0  0  0  0  0  0  0  0
   40.3140   29.0600   41.7220 C   0  0  0  0  0  0  0  0  0  0  0  0
   40.6990   28.0460   40.7710 C   0  0  0  0  0  0  0  0  0  0  0  0
   42.0100   27.0920   41.6280 S   0  0  0  0  0  0  0  0  0  0  0  0
   41.8050   28.2550   43.1570 C   0  0  0  0  0  0  0  0  0  0  0  0
   41.0010   28.9610   42.8310 N   0  0  0  0  0  0  0  0  0  0  0  0
   42.5850   28.1170   44.3740 N   0  0  0  0  0  0  0  0  0  0  0  0
   42.5950   26.9320   45.0060 C   0  0  0  0  0  0  0  0  0  0  0  0
   43.3970   27.1170   46.0850 N   0  0  0  0  0  0  0  0  0  0  0  0
   43.8510   28.3650   46.0980 C   0  0  0  0  0  0  0  0  0  0  0  0
   44.6830   29.1380   46.9120 C   0  0  0  0  0  0  0  0  0  0  0  0
   45.1860   28.5940   47.9340 O   0  0  0  0  0  0  0  0  0  0  0  0
   44.9630   30.4460   46.6390 N   0  0  0  0  0  0  0  0  0  0  0  0
   44.4200   31.0280   45.5380 C   0  0  0  0  0  0  0  0  0  0  0  0
   44.6780   32.3850   45.2060 N   0  0  0  0  0  0  0  0  0  0  0  0
   43.6040   30.3070   44.7190 N   0  0  0  0  0  0  0  0  0  0  0  0
   43.3410   29.0300   45.0030 C   0  0  0  0  0  0  0  0  0  0  0  0
   40.7710   31.6170   40.1590 C   0  0  0  0  0  0  0  0  0  0  0  0
   41.6440   31.5190   39.1910 N   0  0  0  0  0  0  0  0  0  0  0  0
   42.6710   32.2600   39.3860 O   0  0  0  0  0  0  0  0  0  0  0  0
   42.5850   32.9170   40.4850 C   0  0  0  0  0  0  0  0  0  0  0  0
   41.4090   32.5170   40.9620 N   0  0  0  0  0  0  0  0  0  0  0  0
   43.4410   33.8520   41.1370 N   0  0  0  0  0  0  0  0  0  0  0  0
   44.6160   34.2690   40.6660 C   0  0  0  0  0  0  0  0  0  0  0  0
   45.1540   35.1520   41.5410 N   0  0  0  0  0  0  0  0  0  0  0  0
   44.2840   35.2680   42.5590 C   0  0  0  0  0  0  0  0  0  0  0  0
   43.2100   34.4590   42.3160 N   0  0  0  0  0  0  0  0  0  0  0  0
   37.7814   28.7095   42.3088 H   0  0  0  0  0  0  0  0  0  0  0  0
   36.2689   32.1858   40.4696 H   0  0  0  0  0  0  0  0  0  0  0  0
   40.2971   27.8820   39.7603 H   0  0  0  0  0  0  0  0  0  0  0  0
   42.0680   26.0120   44.7129 H   0  0  0  0  0  0  0  0  0  0  0  0
   45.5801   30.9865   47.2619 H   0  0  0  0  0  0  0  0  0  0  0  0
   44.2522   32.7993   44.3646 H   0  0  0  0  0  0  0  0  0  0  0  0
   45.2909   32.9546   45.8067 H   0  0  0  0  0  0  0  0  0  0  0  0
   45.0749   33.9479   39.7193 H   0  0  0  0  0  0  0  0  0  0  0  0
   44.4152   35.9093   43.4431 H   0  0  0  0  0  0  0  0  0  0  0  0
  2  7  1  0
  2  1  2  0
  3  2  1  0
  4  3  2  0
  4  5  1  0
  5  6  2  0
  6  1  1  0
  7 11  1  0
  8  9  1  0
  8  7  2  0
  9 10  1  0
 10 12  1  0
 11 10  2  0
 12 22  1  0
 12 13  1  0
 13 14  2  0
 14 15  1  0
 15 16  1  0
 16 17  2  0
 18 16  1  0
 19 18  1  0
 20 19  1  0
 21 22  1  0
 21 19  2  0
 22 15  2  0
 23  3  1  0
 23 27  1  0
 24 25  1  0
 24 23  2  0
 25 26  1  0
 26 27  2  0
 26 28  1  0
 28 32  1  0
 29 28  1  0
 29 30  2  0
 30 31  1  0
 32 31  2  0
  1 33  1  0
  5 34  1  0
  8 35  1  0
 13 36  1  0
 18 37  1  0
 20 38  1  0
 20 39  1  0
 29 40  1  0
 31 41  1  0
M  ISO  7  33  14  34  14  35  14  36  14  37   9  40  14  41  14
M  END
>  <minimizedAffinity>  (1) 
-6.41339397

>  <minimizedRMSD>  (1) 
1.14275169

$$$$
