
     RDKit          3D

 34 38  0  0  0  0  0  0  0  0999 V2000
   38.7300   34.9670   39.9990 C   0  0  0  0  0  0  0  0  0  0  0  0
   39.9790   34.2520   40.1170 C   0  0  0  0  0  0  0  0  0  0  0  0
   41.1360   34.9600   40.2170 C   0  0  0  0  0  0  0  0  0  0  0  0
   41.0400   36.3290   40.1980 N   0  0  0  0  0  0  0  0  0  0  0  0
   39.8570   36.9780   40.0860 C   0  0  0  0  0  0  0  0  0  0  0  0
   38.7030   36.3080   39.9860 N   0  0  0  0  0  0  0  0  0  0  0  0
   42.4670   34.3740   40.3480 C   0  0  0  0  0  0  0  0  0  0  0  0
   43.3830   33.7040   39.7120 N   0  0  0  0  0  0  0  0  0  0  0  0
   44.4140   33.4770   40.4390 O   0  0  0  0  0  0  0  0  0  0  0  0
   44.2810   33.9690   41.6150 C   0  0  0  0  0  0  0  0  0  0  0  0
   43.0820   34.5200   41.5560 N   0  0  0  0  0  0  0  0  0  0  0  0
   45.1200   33.9900   42.7710 N   0  0  0  0  0  0  0  0  0  0  0  0
   46.3510   33.4430   42.8300 C   0  0  0  0  0  0  0  0  0  0  0  0
   46.8530   33.6470   44.0710 N   0  0  0  0  0  0  0  0  0  0  0  0
   45.9230   34.3190   44.7650 C   0  0  0  0  0  0  0  0  0  0  0  0
   44.8380   34.5380   43.9630 N   0  0  0  0  0  0  0  0  0  0  0  0
   39.8770   32.8000   40.1140 C   0  0  0  0  0  0  0  0  0  0  0  0
   40.1960   32.1220   38.8800 C   0  0  0  0  0  0  0  0  0  0  0  0
   39.9360   30.3410   39.3130 S   0  0  0  0  0  0  0  0  0  0  0  0
   39.4410   30.8720   41.0970 C   0  0  0  0  0  0  0  0  0  0  0  0
   39.5290   31.9820   41.0740 N   0  0  0  0  0  0  0  0  0  0  0  0
   39.0940   29.7260   41.9780 C   0  0  0  0  0  0  0  0  0  0  0  0
   40.0420   28.8880   42.4530 C   0  0  0  0  0  0  0  0  0  0  0  0
   39.6370   27.8580   43.2580 C   0  0  0  0  0  0  0  0  0  0  0  0
   38.2820   27.7280   43.5430 C   0  0  0  0  0  0  0  0  0  0  0  0
   37.5760   29.1920   42.5790 S   0  0  0  0  0  0  0  0  0  0  0  0
   37.7881   34.4044   39.9187 H   0  0  0  0  0  0  0  0  0  0  0  0
   39.8443   38.0779   40.0770 H   0  0  0  0  0  0  0  0  0  0  0  0
   46.8615   32.9192   42.0084 H   0  0  0  0  0  0  0  0  0  0  0  0
   46.0180   34.6423   45.8121 H   0  0  0  0  0  0  0  0  0  0  0  0
   40.5145   32.5559   37.9207 H   0  0  0  0  0  0  0  0  0  0  0  0
   41.1034   29.0291   42.2010 H   0  0  0  0  0  0  0  0  0  0  0  0
   40.3682   27.1476   43.6711 H   0  0  0  0  0  0  0  0  0  0  0  0
   37.7638   26.9790   44.1599 H   0  0  0  0  0  0  0  0  0  0  0  0
  1  2  2  0
  2  3  1  0
  3  7  1  0
  4  3  2  0
  5  4  1  0
  6  1  1  0
  6  5  2  0
  7 11  1  0
  8  7  2  0
  8  9  1  0
  9 10  1  0
 10 12  1  0
 11 10  2  0
 12 13  1  0
 12 16  1  0
 13 14  2  0
 14 15  1  0
 16 15  2  0
 17  2  1  0
 17 21  1  0
 18 19  1  0
 18 17  2  0
 19 20  1  0
 20 22  1  0
 21 20  2  0
 22 23  2  0
 22 26  1  0
 23 24  1  0
 24 25  2  0
 26 25  1  0
  1 27  1  0
  5 28  1  0
 13 29  1  0
 15 30  1  0
 18 31  1  0
 23 32  1  0
 24 33  1  0
 25 34  1  0
M  ISO  8  27  14  28  14  29  14  30  14  31  14  32  14  33  14  34  14
M  END
>  <minimizedAffinity>  (1) 
-6.13728046

>  <minimizedRMSD>  (1) 
4.19619417

$$$$
