
     RDKit          3D

 40 45  0  0  0  0  0  0  0  0999 V2000
   37.8090   29.8730   41.5110 C   0  0  0  0  0  0  0  0  0  0  0  0
   39.1790   30.1500   41.1650 C   0  0  0  0  0  0  0  0  0  0  0  0
   39.4840   31.3010   40.5030 C   0  0  0  0  0  0  0  0  0  0  0  0
   38.4380   32.1380   40.2020 N   0  0  0  0  0  0  0  0  0  0  0  0
   37.1510   31.8580   40.5370 C   0  0  0  0  0  0  0  0  0  0  0  0
   36.8320   30.7340   41.1870 N   0  0  0  0  0  0  0  0  0  0  0  0
   40.1450   29.1380   41.5650 C   0  0  0  0  0  0  0  0  0  0  0  0
   40.4150   28.0710   40.6340 C   0  0  0  0  0  0  0  0  0  0  0  0
   41.6610   27.0250   41.4990 S   0  0  0  0  0  0  0  0  0  0  0  0
   41.5830   28.2650   43.0050 C   0  0  0  0  0  0  0  0  0  0  0  0
   40.8400   29.0230   42.6690 N   0  0  0  0  0  0  0  0  0  0  0  0
   42.3830   28.0930   44.2250 N   0  0  0  0  0  0  0  0  0  0  0  0
   42.2980   27.0000   44.9990 C   0  0  0  0  0  0  0  0  0  0  0  0
   43.1470   27.1270   46.0470 N   0  0  0  0  0  0  0  0  0  0  0  0
   43.7670   28.3060   45.9250 C   0  0  0  0  0  0  0  0  0  0  0  0
   44.7090   29.0390   46.6040 C   0  0  0  0  0  0  0  0  0  0  0  0
   45.1080   30.2360   46.1680 N   0  0  0  0  0  0  0  0  0  0  0  0
   44.6180   30.8030   45.0450 C   0  0  0  0  0  0  0  0  0  0  0  0
   43.6940   30.1040   44.3620 N   0  0  0  0  0  0  0  0  0  0  0  0
   43.2870   28.9160   44.7800 C   0  0  0  0  0  0  0  0  0  0  0  0
   45.2580   28.4900   47.7950 N   0  0  0  0  0  0  0  0  0  0  0  0
   40.8190   31.7080   40.1000 C   0  0  0  0  0  0  0  0  0  0  0  0
   41.7530   31.5160   39.2150 N   0  0  0  0  0  0  0  0  0  0  0  0
   42.7860   32.2360   39.4280 O   0  0  0  0  0  0  0  0  0  0  0  0
   42.6510   32.9720   40.4630 C   0  0  0  0  0  0  0  0  0  0  0  0
   41.4310   32.6410   40.8760 N   0  0  0  0  0  0  0  0  0  0  0  0
   43.4950   33.9270   41.1060 N   0  0  0  0  0  0  0  0  0  0  0  0
   44.7150   34.2790   40.6860 C   0  0  0  0  0  0  0  0  0  0  0  0
   45.2250   35.1910   41.5140 N   0  0  0  0  0  0  0  0  0  0  0  0
   44.2930   35.4140   42.4830 C   0  0  0  0  0  0  0  0  0  0  0  0
   43.2180   34.6160   42.2140 N   0  0  0  0  0  0  0  0  0  0  0  0
   37.5604   28.9451   42.0470 H   0  0  0  0  0  0  0  0  0  0  0  0
   36.3565   32.5697   40.2682 H   0  0  0  0  0  0  0  0  0  0  0  0
   39.9777   27.9168   39.6365 H   0  0  0  0  0  0  0  0  0  0  0  0
   41.6422   26.1369   44.8119 H   0  0  0  0  0  0  0  0  0  0  0  0
   44.9590   31.7917   44.7041 H   0  0  0  0  0  0  0  0  0  0  0  0
   45.9665   29.0165   48.3259 H   0  0  0  0  0  0  0  0  0  0  0  0
   44.9473   27.5658   48.1270 H   0  0  0  0  0  0  0  0  0  0  0  0
   45.2198   33.8779   39.7948 H   0  0  0  0  0  0  0  0  0  0  0  0
   44.3893   36.1107   43.3288 H   0  0  0  0  0  0  0  0  0  0  0  0
  2  1  2  0
  2  7  1  0
  3  2  1  0
  4  3  2  0
  4  5  1  0
  5  6  2  0
  6  1  1  0
  7 11  1  0
  8  9  1  0
  8  7  2  0
  9 10  1  0
 10 12  1  0
 11 10  2  0
 12 20  1  0
 12 13  1  0
 13 14  2  0
 15 14  1  0
 15 16  2  0
 16 21  1  0
 17 16  1  0
 18 17  2  0
 19 20  2  0
 19 18  1  0
 20 15  1  0
 22  3  1  0
 22 26  1  0
 23 24  1  0
 23 22  2  0
 24 25  1  0
 25 26  2  0
 25 27  1  0
 27 31  1  0
 28 27  1  0
 28 29  2  0
 29 30  1  0
 31 30  2  0
  1 32  1  0
  5 33  1  0
  8 34  1  0
 13 35  1  0
 18 36  1  0
 21 37  1  0
 21 38  1  0
 28 39  1  0
 30 40  1  0
M  ISO  7  32  14  33  14  34  14  35  14  36  14  39  14  40  14
M  END
>  <minimizedAffinity>  (1) 
-6.04764509

>  <minimizedRMSD>  (1) 
1.02442968

$$$$
