
     RDKit          3D

 34 38  0  0  0  0  0  0  0  0999 V2000
   40.1180   28.8910   37.4060 C   0  0  0  0  0  0  0  0  0  0  0  0
   40.2740   29.8320   38.4750 C   0  0  0  0  0  0  0  0  0  0  0  0
   41.4660   30.4710   38.6490 C   0  0  0  0  0  0  0  0  0  0  0  0
   42.4610   30.1580   37.7600 N   0  0  0  0  0  0  0  0  0  0  0  0
   42.3000   29.2650   36.7550 C   0  0  0  0  0  0  0  0  0  0  0  0
   41.1270   28.6280   36.5730 N   0  0  0  0  0  0  0  0  0  0  0  0
   39.1040   30.0230   39.3170 C   0  0  0  0  0  0  0  0  0  0  0  0
   38.2010   31.0970   38.9700 C   0  0  0  0  0  0  0  0  0  0  0  0
   36.8740   31.0160   40.2420 S   0  0  0  0  0  0  0  0  0  0  0  0
   37.8060   29.4990   41.0390 C   0  0  0  0  0  0  0  0  0  0  0  0
   38.6960   29.3740   40.3780 N   0  0  0  0  0  0  0  0  0  0  0  0
   37.3640   28.7600   42.2250 N   0  0  0  0  0  0  0  0  0  0  0  0
   37.9050   28.9960   43.4260 N   0  0  0  0  0  0  0  0  0  0  0  0
   37.3180   28.1830   44.3370 C   0  0  0  0  0  0  0  0  0  0  0  0
   36.3720   27.4090   43.6590 C   0  0  0  0  0  0  0  0  0  0  0  0
   36.4130   27.7860   42.3220 C   0  0  0  0  0  0  0  0  0  0  0  0
   41.7580   31.4510   39.6840 C   0  0  0  0  0  0  0  0  0  0  0  0
   42.3160   31.6050   40.8480 N   0  0  0  0  0  0  0  0  0  0  0  0
   42.2370   32.8130   41.2710 O   0  0  0  0  0  0  0  0  0  0  0  0
   41.6190   33.5680   40.4310 C   0  0  0  0  0  0  0  0  0  0  0  0
   41.3320   32.7270   39.4660 N   0  0  0  0  0  0  0  0  0  0  0  0
   41.2850   34.9550   40.4460 N   0  0  0  0  0  0  0  0  0  0  0  0
   41.5930   35.8180   41.4110 C   0  0  0  0  0  0  0  0  0  0  0  0
   41.1130   37.0390   41.0820 N   0  0  0  0  0  0  0  0  0  0  0  0
   40.5010   36.9100   39.8930 C   0  0  0  0  0  0  0  0  0  0  0  0
   40.6040   35.6160   39.4890 N   0  0  0  0  0  0  0  0  0  0  0  0
   39.1541   28.3787   37.2701 H   0  0  0  0  0  0  0  0  0  0  0  0
   43.1403   29.0564   36.0764 H   0  0  0  0  0  0  0  0  0  0  0  0
   38.2878   31.8048   38.1324 H   0  0  0  0  0  0  0  0  0  0  0  0
   37.5443   28.1399   45.4126 H   0  0  0  0  0  0  0  0  0  0  0  0
   35.7170   26.6439   44.1013 H   0  0  0  0  0  0  0  0  0  0  0  0
   35.8002   27.3797   41.5038 H   0  0  0  0  0  0  0  0  0  0  0  0
   42.1489   35.5770   42.3291 H   0  0  0  0  0  0  0  0  0  0  0  0
   39.9999   37.7172   39.3386 H   0  0  0  0  0  0  0  0  0  0  0  0
  1  2  2  0
  2  3  1  0
  2  7  1  0
  3 17  1  0
  4  3  2  0
  5  4  1  0
  6  5  2  0
  6  1  1  0
  7 11  1  0
  8  7  2  0
  8  9  1  0
  9 10  1  0
 10 12  1  0
 11 10  2  0
 12 16  1  0
 12 13  1  0
 13 14  2  0
 15 14  1  0
 16 15  2  0
 17 18  2  0
 18 19  1  0
 20 22  1  0
 20 19  1  0
 21 17  1  0
 21 20  2  0
 22 23  1  0
 24 23  2  0
 25 24  1  0
 26 25  2  0
 26 22  1  0
  1 27  1  0
  5 28  1  0
  8 29  1  0
 14 30  1  0
 15 31  1  0
 16 32  1  0
 23 33  1  0
 25 34  1  0
M  ISO  8  27  14  28  14  29  14  30  14  31  14  32  14  33  14  34  14
M  END
>  <minimizedAffinity>  (1) 
-5.97759151

>  <minimizedRMSD>  (1) 
4.30716801

$$$$
