
     RDKit          3D

 33 37  0  0  0  0  0  0  0  0999 V2000
   38.5090   32.6370   40.0400 C   0  0  0  0  0  0  0  0  0  0  0  0
   39.9210   32.7590   40.3200 C   0  0  0  0  0  0  0  0  0  0  0  0
   40.4650   34.0050   40.4130 C   0  0  0  0  0  0  0  0  0  0  0  0
   39.6330   35.0740   40.2320 N   0  0  0  0  0  0  0  0  0  0  0  0
   38.3060   34.9330   39.9680 C   0  0  0  0  0  0  0  0  0  0  0  0
   37.7490   33.7230   39.8730 N   0  0  0  0  0  0  0  0  0  0  0  0
   41.8700   34.2780   40.7050 C   0  0  0  0  0  0  0  0  0  0  0  0
   43.0880   33.9850   40.3550 N   0  0  0  0  0  0  0  0  0  0  0  0
   43.9640   34.6100   41.0630 O   0  0  0  0  0  0  0  0  0  0  0  0
   43.4050   35.3700   41.9410 C   0  0  0  0  0  0  0  0  0  0  0  0
   42.1320   35.1580   41.7120 N   0  0  0  0  0  0  0  0  0  0  0  0
   43.9330   36.2420   42.9380 N   0  0  0  0  0  0  0  0  0  0  0  0
   45.2380   36.4680   43.1690 C   0  0  0  0  0  0  0  0  0  0  0  0
   45.3550   37.3380   44.1730 N   0  0  0  0  0  0  0  0  0  0  0  0
   44.0990   37.6700   44.5860 C   0  0  0  0  0  0  0  0  0  0  0  0
   43.2320   36.9710   43.7970 N   0  0  0  0  0  0  0  0  0  0  0  0
   40.6430   31.5090   40.4690 C   0  0  0  0  0  0  0  0  0  0  0  0
   41.1750   30.9070   39.2800 C   0  0  0  0  0  0  0  0  0  0  0  0
   41.9910   29.3830   39.8880 S   0  0  0  0  0  0  0  0  0  0  0  0
   41.4530   29.8480   41.6790 C   0  0  0  0  0  0  0  0  0  0  0  0
   40.9060   30.8040   41.5350 N   0  0  0  0  0  0  0  0  0  0  0  0
   41.8430   28.9140   42.7950 C   0  0  0  0  0  0  0  0  0  0  0  0
   41.0060   27.8150   43.0100 C   0  0  0  0  0  0  0  0  0  0  0  0
   41.8240   26.9790   44.4060 S   0  0  0  0  0  0  0  0  0  0  0  0
   43.1900   28.2810   44.4690 C   0  0  0  0  0  0  0  0  0  0  0  0
   42.8720   28.9750   43.6160 N   0  0  0  0  0  0  0  0  0  0  0  0
   38.0543   31.6383   39.9634 H   0  0  0  0  0  0  0  0  0  0  0  0
   37.6826   35.8288   39.8308 H   0  0  0  0  0  0  0  0  0  0  0  0
   46.0734   36.0098   42.6193 H   0  0  0  0  0  0  0  0  0  0  0  0
   43.8357   38.3653   45.3967 H   0  0  0  0  0  0  0  0  0  0  0  0
   41.1085   31.2745   38.2453 H   0  0  0  0  0  0  0  0  0  0  0  0
   40.0891   27.5288   42.4738 H   0  0  0  0  0  0  0  0  0  0  0  0
   44.0565   28.3531   45.1428 H   0  0  0  0  0  0  0  0  0  0  0  0
  1  2  2  0
  2  3  1  0
  2 17  1  0
  3  7  1  0
  4  3  2  0
  5  4  1  0
  6  5  2  0
  6  1  1  0
  7 11  1  0
  8  7  2  0
  8  9  1  0
  9 10  1  0
 10 12  1  0
 11 10  2  0
 12 13  1  0
 12 16  1  0
 13 14  2  0
 14 15  1  0
 16 15  2  0
 17 21  1  0
 18 19  1  0
 18 17  2  0
 19 20  1  0
 20 22  1  0
 21 20  2  0
 22 23  2  0
 22 26  1  0
 23 24  1  0
 24 25  1  0
 26 25  2  0
  1 27  1  0
  5 28  1  0
 13 29  1  0
 15 30  1  0
 18 31  1  0
 23 32  1  0
 25 33  1  0
M  ISO  7  27  14  28  14  29  14  30  14  31  14  32  14  33  14
M  END
>  <minimizedAffinity>  (1) 
-5.80864811

>  <minimizedRMSD>  (1) 
3.15095758

$$$$
