
     RDKit          3D

 34 38  0  0  0  0  0  0  0  0999 V2000
   37.8600   31.1810   40.4570 C   0  0  0  0  0  0  0  0  0  0  0  0
   39.2930   31.3010   40.4290 C   0  0  0  0  0  0  0  0  0  0  0  0
   39.8660   32.4960   40.1430 C   0  0  0  0  0  0  0  0  0  0  0  0
   39.0150   33.5450   39.8910 N   0  0  0  0  0  0  0  0  0  0  0  0
   37.6640   33.4180   39.9210 C   0  0  0  0  0  0  0  0  0  0  0  0
   37.0840   32.2410   40.2030 N   0  0  0  0  0  0  0  0  0  0  0  0
   41.2990   32.7540   40.0880 C   0  0  0  0  0  0  0  0  0  0  0  0
   42.4020   32.4150   39.4880 N   0  0  0  0  0  0  0  0  0  0  0  0
   43.4170   33.0560   39.9280 O   0  0  0  0  0  0  0  0  0  0  0  0
   43.0910   33.8770   40.8550 C   0  0  0  0  0  0  0  0  0  0  0  0
   41.7900   33.6870   40.9490 N   0  0  0  0  0  0  0  0  0  0  0  0
   43.8350   34.8000   41.6500 N   0  0  0  0  0  0  0  0  0  0  0  0
   45.1480   35.0240   41.5430 C   0  0  0  0  0  0  0  0  0  0  0  0
   45.5090   35.9490   42.4400 N   0  0  0  0  0  0  0  0  0  0  0  0
   44.3930   36.3200   43.1300 C   0  0  0  0  0  0  0  0  0  0  0  0
   43.3620   35.5820   42.6110 N   0  0  0  0  0  0  0  0  0  0  0  0
   40.0250   30.0720   40.7180 C   0  0  0  0  0  0  0  0  0  0  0  0
   40.3190   29.1930   39.6080 C   0  0  0  0  0  0  0  0  0  0  0  0
   41.2350   27.7910   40.3960 S   0  0  0  0  0  0  0  0  0  0  0  0
   41.0420   28.6760   42.0970 C   0  0  0  0  0  0  0  0  0  0  0  0
   40.4830   29.6050   41.8510 N   0  0  0  0  0  0  0  0  0  0  0  0
   41.6160   28.0410   43.3650 C   0  0  0  0  0  0  0  0  0  0  0  0
   42.7760   28.3540   43.9970 C   0  0  0  0  0  0  0  0  0  0  0  0
   42.8450   27.5110   45.0770 C   0  0  0  0  0  0  0  0  0  0  0  0
   41.7450   26.7250   45.0720 N   0  0  0  0  0  0  0  0  0  0  0  0
   41.0040   27.0520   44.0290 N   0  0  0  0  0  0  0  0  0  0  0  0
   37.3983   30.2099   40.6891 H   0  0  0  0  0  0  0  0  0  0  0  0
   37.0338   34.2947   39.7106 H   0  0  0  0  0  0  0  0  0  0  0  0
   45.8240   34.5274   40.8313 H   0  0  0  0  0  0  0  0  0  0  0  0
   44.3327   37.0620   43.9398 H   0  0  0  0  0  0  0  0  0  0  0  0
   40.0598   29.3260   38.5473 H   0  0  0  0  0  0  0  0  0  0  0  0
   43.5070   29.1222   43.7045 H   0  0  0  0  0  0  0  0  0  0  0  0
   43.6560   27.4799   45.8195 H   0  0  0  0  0  0  0  0  0  0  0  0
   41.5227   25.9952   45.7640 H   0  0  0  0  0  0  0  0  0  0  0  0
  2  1  2  0
  2 17  1  0
  3  2  1  0
  4  5  1  0
  4  3  2  0
  5  6  2  0
  6  1  1  0
  7  3  1  0
  7 11  1  0
  8  9  1  0
  8  7  2  0
  9 10  1  0
 10 11  2  0
 10 12  1  0
 12 16  1  0
 13 12  1  0
 13 14  2  0
 14 15  1  0
 16 15  2  0
 17 21  1  0
 18 19  1  0
 18 17  2  0
 19 20  1  0
 20 22  1  0
 21 20  2  0
 22 23  1  0
 22 26  2  0
 23 24  2  0
 25 24  1  0
 26 25  1  0
  1 27  1  0
  5 28  1  0
 13 29  1  0
 15 30  1  0
 18 31  1  0
 23 32  1  0
 24 33  1  0
 25 34  1  0
M  ISO  8  27  14  28  14  29  14  30  14  31  14  32  14  33  14  34   9
M  END
>  <minimizedAffinity>  (1) 
-5.71000814

>  <minimizedRMSD>  (1) 
1.62266302

$$$$
