
     RDKit          3D

 34 38  0  0  0  0  0  0  0  0999 V2000
   37.1820   29.9390   41.5650 C   0  0  0  0  0  0  0  0  0  0  0  0
   38.5980   30.0100   41.3210 C   0  0  0  0  0  0  0  0  0  0  0  0
   39.1140   31.0700   40.6530 C   0  0  0  0  0  0  0  0  0  0  0  0
   38.2280   32.0330   40.2420 N   0  0  0  0  0  0  0  0  0  0  0  0
   36.8960   31.9560   40.4780 C   0  0  0  0  0  0  0  0  0  0  0  0
   36.3750   30.9180   41.1350 N   0  0  0  0  0  0  0  0  0  0  0  0
   40.5270   31.2710   40.3470 C   0  0  0  0  0  0  0  0  0  0  0  0
   41.5360   30.7710   39.6920 N   0  0  0  0  0  0  0  0  0  0  0  0
   42.6040   31.4650   39.8350 O   0  0  0  0  0  0  0  0  0  0  0  0
   42.3970   32.4860   40.5960 C   0  0  0  0  0  0  0  0  0  0  0  0
   41.1280   32.3570   40.9020 N   0  0  0  0  0  0  0  0  0  0  0  0
   43.2470   33.5370   41.0500 N   0  0  0  0  0  0  0  0  0  0  0  0
   44.5450   33.6880   40.7180 C   0  0  0  0  0  0  0  0  0  0  0  0
   45.0290   34.7740   41.3370 N   0  0  0  0  0  0  0  0  0  0  0  0
   44.0180   35.3010   42.0610 C   0  0  0  0  0  0  0  0  0  0  0  0
   42.9100   34.5390   41.8860 N   0  0  0  0  0  0  0  0  0  0  0  0
   39.3760   28.8840   41.8310 C   0  0  0  0  0  0  0  0  0  0  0  0
   39.0340   27.5710   41.3570 C   0  0  0  0  0  0  0  0  0  0  0  0
   40.2100   26.4470   42.2100 S   0  0  0  0  0  0  0  0  0  0  0  0
   40.9820   28.0100   43.0850 C   0  0  0  0  0  0  0  0  0  0  0  0
   40.3730   28.8590   42.6800 N   0  0  0  0  0  0  0  0  0  0  0  0
   42.0890   27.9290   44.0210 N   0  0  0  0  0  0  0  0  0  0  0  0
   42.1760   26.9310   44.9120 C   0  0  0  0  0  0  0  0  0  0  0  0
   43.3230   27.1570   45.6250 C   0  0  0  0  0  0  0  0  0  0  0  0
   43.8980   28.2650   45.1640 N   0  0  0  0  0  0  0  0  0  0  0  0
   43.1310   28.7610   44.1540 C   0  0  0  0  0  0  0  0  0  0  0  0
   36.7609   29.0787   42.1060 H   0  0  0  0  0  0  0  0  0  0  0  0
   36.2349   32.7604   40.1231 H   0  0  0  0  0  0  0  0  0  0  0  0
   45.1144   33.0272   40.0479 H   0  0  0  0  0  0  0  0  0  0  0  0
   44.0828   36.2012   42.6898 H   0  0  0  0  0  0  0  0  0  0  0  0
   38.2434   27.2994   40.6420 H   0  0  0  0  0  0  0  0  0  0  0  0
   41.4689   26.0988   45.0437 H   0  0  0  0  0  0  0  0  0  0  0  0
   43.7052   26.5278   46.4423 H   0  0  0  0  0  0  0  0  0  0  0  0
   43.3282   29.6675   43.5629 H   0  0  0  0  0  0  0  0  0  0  0  0
  2  1  2  0
  2 17  1  0
  3  2  1  0
  4  5  1  0
  4  3  2  0
  5  6  2  0
  6  1  1  0
  7  3  1  0
  7 11  1  0
  8  9  1  0
  8  7  2  0
  9 10  1  0
 10 11  2  0
 10 12  1  0
 12 16  1  0
 13 12  1  0
 13 14  2  0
 14 15  1  0
 16 15  2  0
 17 21  1  0
 18 17  2  0
 18 19  1  0
 19 20  1  0
 20 22  1  0
 21 20  2  0
 22 26  1  0
 22 23  1  0
 23 24  2  0
 25 24  1  0
 26 25  2  0
  1 27  1  0
  5 28  1  0
 13 29  1  0
 15 30  1  0
 18 31  1  0
 23 32  1  0
 24 33  1  0
 26 34  1  0
M  ISO  8  27  14  28  14  29  14  30  14  31  14  32  14  33  14  34  14
M  END
>  <minimizedAffinity>  (1) 
-5.40136814

>  <minimizedRMSD>  (1) 
0.719533622

$$$$
