
     RDKit          3D

 34 38  0  0  0  0  0  0  0  0999 V2000
   37.6050   30.4550   41.0050 C   0  0  0  0  0  0  0  0  0  0  0  0
   39.0330   30.5950   40.8670 C   0  0  0  0  0  0  0  0  0  0  0  0
   39.5500   31.7390   40.3540 C   0  0  0  0  0  0  0  0  0  0  0  0
   38.6530   32.7110   39.9900 N   0  0  0  0  0  0  0  0  0  0  0  0
   37.3140   32.5690   40.1240 C   0  0  0  0  0  0  0  0  0  0  0  0
   36.7890   31.4490   40.6280 N   0  0  0  0  0  0  0  0  0  0  0  0
   40.9690   32.0180   40.1690 C   0  0  0  0  0  0  0  0  0  0  0  0
   42.0320   31.6320   39.5270 N   0  0  0  0  0  0  0  0  0  0  0  0
   43.0630   32.3340   39.8220 O   0  0  0  0  0  0  0  0  0  0  0  0
   42.7780   33.2440   40.6840 C   0  0  0  0  0  0  0  0  0  0  0  0
   41.4870   33.0470   40.8970 N   0  0  0  0  0  0  0  0  0  0  0  0
   43.5550   34.2560   41.3210 N   0  0  0  0  0  0  0  0  0  0  0  0
   44.8700   34.4780   41.1040 C   0  0  0  0  0  0  0  0  0  0  0  0
   45.2700   35.4940   41.8850 N   0  0  0  0  0  0  0  0  0  0  0  0
   44.1950   35.9030   42.5880 C   0  0  0  0  0  0  0  0  0  0  0  0
   43.1300   35.1420   42.2440 N   0  0  0  0  0  0  0  0  0  0  0  0
   39.8210   29.4430   41.3040 C   0  0  0  0  0  0  0  0  0  0  0  0
   39.7760   28.2620   40.4770 C   0  0  0  0  0  0  0  0  0  0  0  0
   40.8760   27.0710   41.3690 S   0  0  0  0  0  0  0  0  0  0  0  0
   41.1910   28.4220   42.7100 C   0  0  0  0  0  0  0  0  0  0  0  0
   40.5840   29.2940   42.3570 N   0  0  0  0  0  0  0  0  0  0  0  0
   42.0830   28.1080   43.8520 C   0  0  0  0  0  0  0  0  0  0  0  0
   41.9490   27.0100   44.6640 C   0  0  0  0  0  0  0  0  0  0  0  0
   42.9630   27.0800   45.5970 C   0  0  0  0  0  0  0  0  0  0  0  0
   43.6380   28.2330   45.2670 C   0  0  0  0  0  0  0  0  0  0  0  0
   43.1100   28.8300   44.2370 O   0  0  0  0  0  0  0  0  0  0  0  0
   37.1833   29.5284   41.4215 H   0  0  0  0  0  0  0  0  0  0  0  0
   36.6483   33.3877   39.8134 H   0  0  0  0  0  0  0  0  0  0  0  0
   45.5074   33.9187   40.4033 H   0  0  0  0  0  0  0  0  0  0  0  0
   44.1850   36.7222   43.3220 H   0  0  0  0  0  0  0  0  0  0  0  0
   39.2207   28.1066   39.5403 H   0  0  0  0  0  0  0  0  0  0  0  0
   41.1816   26.2257   44.5861 H   0  0  0  0  0  0  0  0  0  0  0  0
   43.1812   26.3774   46.4147 H   0  0  0  0  0  0  0  0  0  0  0  0
   44.5193   28.6062   45.8091 H   0  0  0  0  0  0  0  0  0  0  0  0
  2  1  2  0
  2 17  1  0
  3  2  1  0
  4  5  1  0
  4  3  2  0
  5  6  2  0
  6  1  1  0
  7  3  1  0
  7 11  1  0
  8  9  1  0
  8  7  2  0
  9 10  1  0
 10 11  2  0
 10 12  1  0
 12 16  1  0
 13 12  1  0
 13 14  2  0
 14 15  1  0
 16 15  2  0
 17 21  1  0
 18 17  2  0
 18 19  1  0
 19 20  1  0
 20 22  1  0
 21 20  2  0
 22 26  1  0
 22 23  2  0
 23 24  1  0
 25 24  2  0
 26 25  1  0
  1 27  1  0
  5 28  1  0
 13 29  1  0
 15 30  1  0
 18 31  1  0
 23 32  1  0
 24 33  1  0
 25 34  1  0
M  ISO  8  27  14  28  14  29  14  30  14  31  14  32  14  33  14  34  14
M  END
>  <minimizedAffinity>  (1) 
-5.29550076

>  <minimizedRMSD>  (1) 
1.02202535

$$$$
