
     RDKit          3D

 36 39  0  0  0  0  0  0  0  0999 V2000
   37.2180   29.7680   41.7450 C   0  0  0  0  0  0  0  0  0  0  0  0
   38.6060   29.9140   41.3950 C   0  0  0  0  0  0  0  0  0  0  0  0
   38.9990   30.9720   40.6440 C   0  0  0  0  0  0  0  0  0  0  0  0
   38.0300   31.8550   40.2560 N   0  0  0  0  0  0  0  0  0  0  0  0
   36.7220   31.7060   40.5940 C   0  0  0  0  0  0  0  0  0  0  0  0
   36.3180   30.6690   41.3340 N   0  0  0  0  0  0  0  0  0  0  0  0
   40.3720   31.2380   40.2240 C   0  0  0  0  0  0  0  0  0  0  0  0
   41.3210   30.8440   39.4210 N   0  0  0  0  0  0  0  0  0  0  0  0
   42.3910   31.5440   39.5370 O   0  0  0  0  0  0  0  0  0  0  0  0
   42.2530   32.4620   40.4220 C   0  0  0  0  0  0  0  0  0  0  0  0
   41.0130   32.2720   40.8420 N   0  0  0  0  0  0  0  0  0  0  0  0
   43.1210   33.4830   40.9190 N   0  0  0  0  0  0  0  0  0  0  0  0
   44.3630   33.7030   40.4800 C   0  0  0  0  0  0  0  0  0  0  0  0
   44.8910   34.7420   41.1670 N   0  0  0  0  0  0  0  0  0  0  0  0
   43.9520   35.1560   42.0340 C   0  0  0  0  0  0  0  0  0  0  0  0
   42.8510   34.3660   41.8730 N   0  0  0  0  0  0  0  0  0  0  0  0
   39.4840   28.8710   41.8950 C   0  0  0  0  0  0  0  0  0  0  0  0
   39.2080   27.5090   41.4930 C   0  0  0  0  0  0  0  0  0  0  0  0
   40.5090   26.5090   42.3150 S   0  0  0  0  0  0  0  0  0  0  0  0
   41.2190   28.1570   43.0820 C   0  0  0  0  0  0  0  0  0  0  0  0
   40.5270   28.9410   42.6800 N   0  0  0  0  0  0  0  0  0  0  0  0
   42.4320   28.1830   43.9880 C   0  0  0  0  0  0  0  0  0  0  0  0
   43.6970   28.1800   43.1660 C   0  0  0  0  0  0  0  0  0  0  0  0
   42.3790   27.0640   45.0010 C   0  0  0  0  0  0  0  0  0  0  0  0
   36.8948   28.9108   42.3539 H   0  0  0  0  0  0  0  0  0  0  0  0
   35.9858   32.4491   40.2538 H   0  0  0  0  0  0  0  0  0  0  0  0
   44.8730   33.1329   39.6895 H   0  0  0  0  0  0  0  0  0  0  0  0
   44.0529   35.9863   42.7485 H   0  0  0  0  0  0  0  0  0  0  0  0
   38.3982   27.1520   40.8397 H   0  0  0  0  0  0  0  0  0  0  0  0
   42.4291   29.1172   44.5687 H   0  0  0  0  0  0  0  0  0  0  0  0
   44.5695   28.1779   43.8358 H   0  0  0  0  0  0  0  0  0  0  0  0
   43.7198   27.2818   42.5314 H   0  0  0  0  0  0  0  0  0  0  0  0
   43.7240   29.0781   42.5314 H   0  0  0  0  0  0  0  0  0  0  0  0
   42.3990   27.4871   46.0162 H   0  0  0  0  0  0  0  0  0  0  0  0
   41.4525   26.4874   44.8623 H   0  0  0  0  0  0  0  0  0  0  0  0
   43.2468   26.4024   44.8623 H   0  0  0  0  0  0  0  0  0  0  0  0
  2  1  2  0
  2 17  1  0
  3  2  1  0
  4  5  1  0
  4  3  2  0
  5  6  2  0
  6  1  1  0
  7  3  1  0
  7 11  1  0
  8  9  1  0
  8  7  2  0
  9 10  1  0
 10 11  2  0
 10 12  1  0
 12 16  1  0
 13 12  1  0
 13 14  2  0
 14 15  1  0
 16 15  2  0
 17 21  1  0
 18 17  2  0
 18 19  1  0
 19 20  1  0
 20 22  1  0
 21 20  2  0
 22 24  1  0
 23 22  1  0
  1 25  1  0
  5 26  1  0
 13 27  1  0
 15 28  1  0
 18 29  1  0
 22 30  1  0
 23 31  1  0
 23 32  1  0
 23 33  1  0
 24 34  1  0
 24 35  1  0
 24 36  1  0
M  ISO  8  25  14  26  14  27  14  28  14  29  14  30   8  31   8  32   8
M  ISO  4  33   8  34   8  35   8  36   8
M  END
>  <minimizedAffinity>  (1) 
-4.77045298

>  <minimizedRMSD>  (1) 
0.763484955

$$$$
