
     RDKit          3D

 42 47  0  0  0  0  0  0  0  0999 V2000
   37.0770   29.0940   41.6550 C   0  0  0  0  0  0  0  0  0  0  0  0
   38.4170   29.4820   41.9550 C   0  0  0  0  0  0  0  0  0  0  0  0
   38.8510   30.7460   41.6530 C   0  0  0  0  0  0  0  0  0  0  0  0
   37.9300   31.5700   41.0660 N   0  0  0  0  0  0  0  0  0  0  0  0
   36.6660   31.1870   40.7890 C   0  0  0  0  0  0  0  0  0  0  0  0
   36.2320   29.9610   41.0760 N   0  0  0  0  0  0  0  0  0  0  0  0
   40.1860   31.2570   41.9100 C   0  0  0  0  0  0  0  0  0  0  0  0
   41.1210   31.3580   42.8060 N   0  0  0  0  0  0  0  0  0  0  0  0
   42.1610   31.9810   42.3730 O   0  0  0  0  0  0  0  0  0  0  0  0
   42.0100   32.3520   41.1490 C   0  0  0  0  0  0  0  0  0  0  0  0
   40.7980   31.9050   40.8680 N   0  0  0  0  0  0  0  0  0  0  0  0
   42.8390   33.0480   40.2440 N   0  0  0  0  0  0  0  0  0  0  0  0
   44.0820   33.5000   40.5030 C   0  0  0  0  0  0  0  0  0  0  0  0
   44.5730   34.1150   39.4180 N   0  0  0  0  0  0  0  0  0  0  0  0
   43.6240   34.0500   38.4620 C   0  0  0  0  0  0  0  0  0  0  0  0
   42.5440   33.3900   38.9660 N   0  0  0  0  0  0  0  0  0  0  0  0
   39.2400   28.4500   42.5830 C   0  0  0  0  0  0  0  0  0  0  0  0
   38.5740   27.4170   43.3140 C   0  0  0  0  0  0  0  0  0  0  0  0
   39.9220   26.3560   43.9280 S   0  0  0  0  0  0  0  0  0  0  0  0
   41.2060   27.5250   43.0630 C   0  0  0  0  0  0  0  0  0  0  0  0
   40.5310   28.2820   42.6070 N   0  0  0  0  0  0  0  0  0  0  0  0
   42.9790   27.2960   43.0960 S   0  0  0  0  0  0  0  0  0  0  0  0
   43.6750   28.5900   44.1130 C   0  0  0  0  0  0  0  0  0  0  0  0
   44.3800   29.7530   43.8920 C   0  0  0  0  0  0  0  0  0  0  0  0
   44.6500   30.3470   45.0660 N   0  0  0  0  0  0  0  0  0  0  0  0
   44.1400   29.5990   46.0490 C   0  0  0  0  0  0  0  0  0  0  0  0
   44.1830   29.8300   47.4190 C   0  0  0  0  0  0  0  0  0  0  0  0
   43.5810   28.9140   48.2610 C   0  0  0  0  0  0  0  0  0  0  0  0
   42.9600   27.8040   47.7480 C   0  0  0  0  0  0  0  0  0  0  0  0
   42.9550   27.6390   46.3960 C   0  0  0  0  0  0  0  0  0  0  0  0
   43.5240   28.4930   45.4870 C   0  0  0  0  0  0  0  0  0  0  0  0
   36.7345   28.0778   41.8999 H   0  0  0  0  0  0  0  0  0  0  0  0
   35.9787   31.9035   40.3155 H   0  0  0  0  0  0  0  0  0  0  0  0
   44.6127   33.3821   41.4593 H   0  0  0  0  0  0  0  0  0  0  0  0
   43.7079   34.4612   37.4452 H   0  0  0  0  0  0  0  0  0  0  0  0
   37.4924   27.2914   43.4703 H   0  0  0  0  0  0  0  0  0  0  0  0
   44.6765   30.1365   42.9046 H   0  0  0  0  0  0  0  0  0  0  0  0
   45.1641   31.2311   45.1882 H   0  0  0  0  0  0  0  0  0  0  0  0
   44.6846   30.7214   47.8238 H   0  0  0  0  0  0  0  0  0  0  0  0
   43.6001   29.0762   49.3488 H   0  0  0  0  0  0  0  0  0  0  0  0
   42.4797   27.0680   48.4095 H   0  0  0  0  0  0  0  0  0  0  0  0
   42.4517   26.7447   45.9999 H   0  0  0  0  0  0  0  0  0  0  0  0
  1  2  2  0
  2 17  1  0
  3  7  1  0
  3  2  1  0
  4  3  2  0
  5  4  1  0
  5  6  2  0
  6  1  1  0
  7  8  2  0
  9  8  1  0
 10  9  1  0
 11 10  2  0
 11  7  1  0
 12 13  1  0
 12 10  1  0
 14 13  2  0
 15 16  2  0
 15 14  1  0
 16 12  1  0
 17 21  1  0
 17 18  2  0
 18 19  1  0
 20 22  1  0
 20 19  1  0
 21 20  2  0
 22 23  1  0
 23 31  1  0
 24 23  2  0
 24 25  1  0
 25 26  1  0
 26 27  2  0
 27 28  1  0
 29 28  2  0
 30 29  1  0
 31 26  1  0
 31 30  2  0
  1 32  1  0
  5 33  1  0
 13 34  1  0
 15 35  1  0
 18 36  1  0
 24 37  1  0
 25 38  1  0
 27 39  1  0
 28 40  1  0
 29 41  1  0
 30 42  1  0
M  ISO  8  32  14  33  14  34  14  35  14  36  14  37  14  38   9  39  14
M  ISO  3  40  14  41  14  42  14
M  END
>  <minimizedAffinity>  (1) 
-6.67317247

>  <minimizedRMSD>  (1) 
2.84756637

$$$$
