
     RDKit          3D

 40 44  0  0  1  0  0  0  0  0999 V2000
   36.9340   28.3470   41.3870 C   0  0  0  0  0  0  0  0  0  0  0  0
   38.1030   29.0850   41.0460 C   0  0  0  0  0  0  0  0  0  0  0  0
   37.9930   30.3110   40.4400 C   0  0  0  0  0  0  0  0  0  0  0  0
   36.7260   30.7430   40.2020 N   0  0  0  0  0  0  0  0  0  0  0  0
   35.6150   30.0330   40.5300 C   0  0  0  0  0  0  0  0  0  0  0  0
   35.7240   28.8380   41.1210 N   0  0  0  0  0  0  0  0  0  0  0  0
   39.1080   31.1580   40.0420 C   0  0  0  0  0  0  0  0  0  0  0  0
   40.3130   31.1560   39.5780 N   0  0  0  0  0  0  0  0  0  0  0  0
   40.7920   32.3330   39.4380 O   0  0  0  0  0  0  0  0  0  0  0  0
   39.9430   33.2300   39.7990 C   0  0  0  0  0  0  0  0  0  0  0  0
   38.9110   32.5000   40.1690 N   0  0  0  0  0  0  0  0  0  0  0  0
   40.0060   34.6510   39.8290 N   0  0  0  0  0  0  0  0  0  0  0  0
   41.0470   35.4060   39.4360 C   0  0  0  0  0  0  0  0  0  0  0  0
   40.7410   36.7070   39.6110 N   0  0  0  0  0  0  0  0  0  0  0  0
   39.5060   36.7500   40.1140 C   0  0  0  0  0  0  0  0  0  0  0  0
   39.0290   35.4780   40.2570 N   0  0  0  0  0  0  0  0  0  0  0  0
   39.3750   28.4470   41.3830 C   0  0  0  0  0  0  0  0  0  0  0  0
   39.6550   27.1700   40.7790 C   0  0  0  0  0  0  0  0  0  0  0  0
   41.3040   26.7140   41.4410 S   0  0  0  0  0  0  0  0  0  0  0  0
   41.3260   28.3750   42.4460 C   0  0  0  0  0  0  0  0  0  0  0  0
   40.3420   28.8330   42.1630 N   0  0  0  0  0  0  0  0  0  0  0  0
   42.6600   28.9210   43.5180 S   0  0  0  0  0  0  0  0  0  0  0  0
   44.7930   27.7720   44.7620 N   0  0  0  0  0  0  0  0  0  0  0  0
   44.4780   27.8270   46.1680 C   0  0  0  0  0  0  0  0  0  0  0  0
   42.9920   27.5120   46.2970 C   0  0  0  0  0  0  0  0  0  0  0  0
   42.7640   26.7100   45.0340 C   0  0  0  0  0  0  0  0  0  0  0  0
   43.6020   27.4690   44.0280 C   0  0  1  0  0  0  0  0  0  0  0  0
   37.0303   27.3650   41.8732 H   0  0  0  0  0  0  0  0  0  0  0  0
   34.6190   30.4437   40.3080 H   0  0  0  0  0  0  0  0  0  0  0  0
   41.9971   35.0229   39.0354 H   0  0  0  0  0  0  0  0  0  0  0  0
   38.9571   37.6673   40.3733 H   0  0  0  0  0  0  0  0  0  0  0  0
   39.0249   26.5992   40.0811 H   0  0  0  0  0  0  0  0  0  0  0  0
   45.1649   28.6824   44.4558 H   0  0  0  0  0  0  0  0  0  0  0  0
   45.0724   27.0832   46.7190 H   0  0  0  0  0  0  0  0  0  0  0  0
   44.7102   28.8172   46.5869 H   0  0  0  0  0  0  0  0  0  0  0  0
   42.7805   26.9177   47.1981 H   0  0  0  0  0  0  0  0  0  0  0  0
   42.3453   28.3959   46.3993 H   0  0  0  0  0  0  0  0  0  0  0  0
   43.1165   25.6743   45.1484 H   0  0  0  0  0  0  0  0  0  0  0  0
   41.7051   26.6171   44.7511 H   0  0  0  0  0  0  0  0  0  0  0  0
   43.8548   26.9351   43.1001 H   0  0  0  0  0  0  0  0  0  0  0  0
  2 17  1  0
  2  1  2  0
  3  2  1  0
  4  3  2  0
  4  5  1  0
  5  6  2  0
  6  1  1  0
  7 11  1  0
  7  3  1  0
  8  7  2  0
  9  8  1  0
  9 10  1  0
 10 12  1  0
 10 11  2  0
 12 16  1  0
 13 14  2  0
 13 12  1  0
 14 15  1  0
 15 16  2  0
 17 21  1  0
 18 17  2  0
 18 19  1  0
 19 20  1  0
 20 22  1  0
 21 20  2  0
 23 24  1  0
 24 25  1  0
 26 25  1  0
 27 22  1  0
 27 23  1  0
 27 26  1  0
  1 28  1  0
  5 29  1  0
 13 30  1  0
 15 31  1  0
 18 32  1  0
 23 33  1  0
 24 34  1  0
 24 35  1  0
 25 36  1  0
 25 37  1  0
 26 38  1  0
 26 39  1  0
 27 40  1  6
M  ISO  8  28  14  29  14  30  14  31  14  32  14  33   5  34  13  35  13
M  ISO  5  36  13  37  13  38  13  39  13  40  13
M  END
>  <minimizedAffinity>  (1) 
-5.69902277

>  <minimizedRMSD>  (1) 
2.95697927

$$$$
