
     RDKit          3D

 35 39  0  0  0  0  0  0  0  0999 V2000
   37.2360   27.9900   41.7430 C   0  0  0  0  0  0  0  0  0  0  0  0
   38.3810   28.7570   41.3800 C   0  0  0  0  0  0  0  0  0  0  0  0
   38.2230   29.9730   40.7790 C   0  0  0  0  0  0  0  0  0  0  0  0
   36.9420   30.3750   40.5650 N   0  0  0  0  0  0  0  0  0  0  0  0
   35.8600   29.6350   40.9150 C   0  0  0  0  0  0  0  0  0  0  0  0
   36.0010   28.4470   41.5010 N   0  0  0  0  0  0  0  0  0  0  0  0
   39.3140   30.8440   40.3630 C   0  0  0  0  0  0  0  0  0  0  0  0
   40.5410   30.8670   39.9360 N   0  0  0  0  0  0  0  0  0  0  0  0
   40.9740   32.0660   39.7340 O   0  0  0  0  0  0  0  0  0  0  0  0
   40.0730   32.9440   40.0100 C   0  0  0  0  0  0  0  0  0  0  0  0
   39.0530   32.1860   40.3970 N   0  0  0  0  0  0  0  0  0  0  0  0
   40.0490   34.3630   39.9570 N   0  0  0  0  0  0  0  0  0  0  0  0
   41.0840   35.1380   39.5550 C   0  0  0  0  0  0  0  0  0  0  0  0
   40.6990   36.4340   39.6320 N   0  0  0  0  0  0  0  0  0  0  0  0
   39.4340   36.4490   40.0810 C   0  0  0  0  0  0  0  0  0  0  0  0
   39.0260   35.1570   40.2840 N   0  0  0  0  0  0  0  0  0  0  0  0
   39.6680   28.1420   41.6960 C   0  0  0  0  0  0  0  0  0  0  0  0
   40.0520   26.9660   40.9850 C   0  0  0  0  0  0  0  0  0  0  0  0
   41.6880   26.5180   41.6570 S   0  0  0  0  0  0  0  0  0  0  0  0
   41.5710   28.0590   42.8330 C   0  0  0  0  0  0  0  0  0  0  0  0
   40.5850   28.4930   42.5610 N   0  0  0  0  0  0  0  0  0  0  0  0
   42.8400   28.5310   44.0180 S   0  0  0  0  0  0  0  0  0  0  0  0
   42.8290   27.2090   45.2840 C   0  0  0  0  0  0  0  0  0  0  0  0
   44.1900   26.9750   45.9730 C   0  0  0  0  0  0  0  0  0  0  0  0
   43.0460   27.5670   46.7130 C   0  0  0  0  0  0  0  0  0  0  0  0
   37.3684   27.0114   42.2275 H   0  0  0  0  0  0  0  0  0  0  0  0
   34.8506   30.0220   40.7117 H   0  0  0  0  0  0  0  0  0  0  0  0
   42.0685   34.7768   39.2229 H   0  0  0  0  0  0  0  0  0  0  0  0
   38.8262   37.3488   40.2567 H   0  0  0  0  0  0  0  0  0  0  0  0
   39.4845   26.4427   40.2013 H   0  0  0  0  0  0  0  0  0  0  0  0
   42.0687   26.6125   44.7585 H   0  0  0  0  0  0  0  0  0  0  0  0
   44.5263   25.9527   46.2004 H   0  0  0  0  0  0  0  0  0  0  0  0
   45.2312   27.2683   45.7731 H   0  0  0  0  0  0  0  0  0  0  0  0
   43.0800   28.6261   47.0082 H   0  0  0  0  0  0  0  0  0  0  0  0
   42.5297   27.3118   47.6502 H   0  0  0  0  0  0  0  0  0  0  0  0
  2 17  1  0
  2  1  2  0
  3  2  1  0
  4  3  2  0
  4  5  1  0
  5  6  2  0
  6  1  1  0
  7 11  1  0
  7  3  1  0
  8  7  2  0
  9  8  1  0
  9 10  1  0
 10 11  2  0
 12 10  1  0
 12 16  1  0
 13 14  2  0
 13 12  1  0
 14 15  1  0
 15 16  2  0
 17 21  1  0
 18 19  1  0
 18 17  2  0
 19 20  1  0
 20 22  1  0
 21 20  2  0
 22 23  1  0
 23 24  1  0
 23 25  1  0
 24 25  1  0
  1 26  1  0
  5 27  1  0
 13 28  1  0
 15 29  1  0
 18 30  1  0
 23 31  1  0
 24 32  1  0
 24 33  1  0
 25 34  1  0
 25 35  1  0
M  ISO  8  26  14  27  14  28  14  29  14  30  14  31  13  32  13  33  13
M  ISO  2  34  13  35  13
M  END
>  <minimizedAffinity>  (1) 
-5.47705698

>  <minimizedRMSD>  (1) 
2.5642221

$$$$
