
     RDKit          3D

 31 34  0  0  0  0  0  0  0  0999 V2000
   36.9950   30.8620   40.2930 C   0  0  0  0  0  0  0  0  0  0  0  0
   38.2960   30.6280   40.8250 C   0  0  0  0  0  0  0  0  0  0  0  0
   39.2730   31.5850   40.6460 C   0  0  0  0  0  0  0  0  0  0  0  0
   38.9120   32.7000   39.9590 N   0  0  0  0  0  0  0  0  0  0  0  0
   37.6640   32.8970   39.4610 C   0  0  0  0  0  0  0  0  0  0  0  0
   36.7040   31.9810   39.6270 N   0  0  0  0  0  0  0  0  0  0  0  0
   40.6450   31.4740   41.1390 C   0  0  0  0  0  0  0  0  0  0  0  0
   41.5800   30.6370   41.4640 N   0  0  0  0  0  0  0  0  0  0  0  0
   42.6460   31.2240   41.8600 O   0  0  0  0  0  0  0  0  0  0  0  0
   42.5180   32.5110   41.8330 C   0  0  0  0  0  0  0  0  0  0  0  0
   41.2890   32.6530   41.3910 N   0  0  0  0  0  0  0  0  0  0  0  0
   43.3960   33.5690   42.1680 N   0  0  0  0  0  0  0  0  0  0  0  0
   44.6650   33.4430   42.6020 C   0  0  0  0  0  0  0  0  0  0  0  0
   45.1900   34.6550   42.8190 N   0  0  0  0  0  0  0  0  0  0  0  0
   44.2310   35.5510   42.5150 C   0  0  0  0  0  0  0  0  0  0  0  0
   43.1110   34.8940   42.1090 N   0  0  0  0  0  0  0  0  0  0  0  0
   38.4800   29.3740   41.5250 C   0  0  0  0  0  0  0  0  0  0  0  0
   38.4720   29.3960   42.9530 C   0  0  0  0  0  0  0  0  0  0  0  0
   38.7290   27.6520   43.4450 S   0  0  0  0  0  0  0  0  0  0  0  0
   38.8050   27.1790   41.5700 C   0  0  0  0  0  0  0  0  0  0  0  0
   38.6600   28.1680   41.0750 N   0  0  0  0  0  0  0  0  0  0  0  0
   39.0490   25.5120   40.9390 S   0  0  0  0  0  0  0  0  0  0  0  0
   38.0810   24.4030   42.0340 C   0  0  0  0  0  0  0  0  0  0  0  0
   36.9330   25.0870   42.4420 F   0  0  0  0  0  0  0  0  0  0  0  0
   38.8190   24.2010   43.1850 F   0  0  0  0  0  0  0  0  0  0  0  0
   37.7710   23.2330   41.3770 F   0  0  0  0  0  0  0  0  0  0  0  0
   36.2122   30.1023   40.4347 H   0  0  0  0  0  0  0  0  0  0  0  0
   37.4395   33.8239   38.9129 H   0  0  0  0  0  0  0  0  0  0  0  0
   45.1902   32.4887   42.7549 H   0  0  0  0  0  0  0  0  0  0  0  0
   44.3370   36.6437   42.5843 H   0  0  0  0  0  0  0  0  0  0  0  0
   38.3406   30.2676   43.6110 H   0  0  0  0  0  0  0  0  0  0  0  0
  1  2  2  0
  2 17  1  0
  3  2  1  0
  3  7  1  0
  4  3  2  0
  5  6  2  0
  5  4  1  0
  6  1  1  0
  7 11  1  0
  7  8  2  0
  8  9  1  0
 10  9  1  0
 10 12  1  0
 11 10  2  0
 12 13  1  0
 13 14  2  0
 15 14  1  0
 16 12  1  0
 16 15  2  0
 17 18  2  0
 18 19  1  0
 20 19  1  0
 21 17  1  0
 21 20  2  0
 22 20  1  0
 22 23  1  0
 23 24  1  0
 23 25  1  0
 26 23  1  0
  1 27  1  0
  5 28  1  0
 13 29  1  0
 15 30  1  0
 18 31  1  0
M  ISO  5  27  14  28  14  29  14  30  14  31  14
M  END
>  <minimizedAffinity>  (1) 
-5.29665613

>  <minimizedRMSD>  (1) 
2.62620974

$$$$
