
     RDKit          3D

 33 37  0  0  0  0  0  0  0  0999 V2000
   37.2050   31.1790   39.9020 C   0  0  0  0  0  0  0  0  0  0  0  0
   38.5470   30.9250   40.3290 C   0  0  0  0  0  0  0  0  0  0  0  0
   39.4320   31.9540   40.4330 C   0  0  0  0  0  0  0  0  0  0  0  0
   38.9620   33.1950   40.1150 N   0  0  0  0  0  0  0  0  0  0  0  0
   37.6940   33.4190   39.7150 C   0  0  0  0  0  0  0  0  0  0  0  0
   36.8090   32.4250   39.6060 N   0  0  0  0  0  0  0  0  0  0  0  0
   40.8170   31.8200   40.8540 C   0  0  0  0  0  0  0  0  0  0  0  0
   41.7890   30.9700   41.0330 N   0  0  0  0  0  0  0  0  0  0  0  0
   42.8630   31.5350   41.4620 O   0  0  0  0  0  0  0  0  0  0  0  0
   42.7070   32.8020   41.6090 C   0  0  0  0  0  0  0  0  0  0  0  0
   41.4460   32.9800   41.2350 N   0  0  0  0  0  0  0  0  0  0  0  0
   43.5700   33.8420   42.0450 N   0  0  0  0  0  0  0  0  0  0  0  0
   44.8570   33.6880   42.4090 C   0  0  0  0  0  0  0  0  0  0  0  0
   45.3530   34.8830   42.7600 N   0  0  0  0  0  0  0  0  0  0  0  0
   44.3680   35.7950   42.6140 C   0  0  0  0  0  0  0  0  0  0  0  0
   43.2550   35.1530   42.1690 N   0  0  0  0  0  0  0  0  0  0  0  0
   38.8500   29.5260   40.6210 C   0  0  0  0  0  0  0  0  0  0  0  0
   39.0910   28.6440   39.5140 C   0  0  0  0  0  0  0  0  0  0  0  0
   39.4230   27.0240   40.2990 S   0  0  0  0  0  0  0  0  0  0  0  0
   39.1690   27.8460   42.0380 C   0  0  0  0  0  0  0  0  0  0  0  0
   38.9460   28.8980   41.7570 N   0  0  0  0  0  0  0  0  0  0  0  0
   39.3040   26.9720   43.5870 S   0  0  0  0  0  0  0  0  0  0  0  0
   41.0100   26.6180   43.9890 C   0  0  0  0  0  0  0  0  0  0  0  0
   42.0030   26.9500   44.8580 N   0  0  0  0  0  0  0  0  0  0  0  0
   43.0550   26.2600   44.5450 O   0  0  0  0  0  0  0  0  0  0  0  0
   42.8540   25.4780   43.5210 C   0  0  0  0  0  0  0  0  0  0  0  0
   41.5700   25.7060   43.1750 N   0  0  0  0  0  0  0  0  0  0  0  0
   36.4927   30.3452   39.8160 H   0  0  0  0  0  0  0  0  0  0  0  0
   37.3810   34.4453   39.4726 H   0  0  0  0  0  0  0  0  0  0  0  0
   45.4107   32.7376   42.4171 H   0  0  0  0  0  0  0  0  0  0  0  0
   44.4516   36.8724   42.8197 H   0  0  0  0  0  0  0  0  0  0  0  0
   39.0789   28.8861   38.4410 H   0  0  0  0  0  0  0  0  0  0  0  0
   43.5687   24.7891   43.0471 H   0  0  0  0  0  0  0  0  0  0  0  0
  1  2  2  0
  2  3  1  0
  2 17  1  0
  3  7  1  0
  4  3  2  0
  5  4  1  0
  6  5  2  0
  6  1  1  0
  7  8  2  0
  7 11  1  0
  8  9  1  0
  9 10  1  0
 10 12  1  0
 11 10  2  0
 12 16  1  0
 12 13  1  0
 13 14  2  0
 15 14  1  0
 16 15  2  0
 17 21  1  0
 18 19  1  0
 18 17  2  0
 19 20  1  0
 20 22  1  0
 21 20  2  0
 22 23  1  0
 23 24  2  0
 25 24  1  0
 26 25  1  0
 27 26  2  0
 27 23  1  0
  1 28  1  0
  5 29  1  0
 13 30  1  0
 15 31  1  0
 18 32  1  0
 26 33  1  0
M  ISO  6  28  14  29  14  30  14  31  14  32  14  33  14
M  END
>  <minimizedAffinity>  (1) 
-5.20340872

>  <minimizedRMSD>  (1) 
1.8290695

$$$$
