
     RDKit          3D

 37 40  0  0  0  0  0  0  0  0999 V2000
   37.3780   28.2130   41.5590 C   0  0  0  0  0  0  0  0  0  0  0  0
   38.4940   28.9950   41.1430 C   0  0  0  0  0  0  0  0  0  0  0  0
   38.2900   30.2260   40.5810 C   0  0  0  0  0  0  0  0  0  0  0  0
   36.9880   30.6310   40.4540 N   0  0  0  0  0  0  0  0  0  0  0  0
   35.9450   29.8750   40.8540 C   0  0  0  0  0  0  0  0  0  0  0  0
   36.1280   28.6800   41.4000 N   0  0  0  0  0  0  0  0  0  0  0  0
   39.3410   31.1170   40.1180 C   0  0  0  0  0  0  0  0  0  0  0  0
   40.5280   31.1490   39.5780 N   0  0  0  0  0  0  0  0  0  0  0  0
   40.9550   32.3510   39.4060 O   0  0  0  0  0  0  0  0  0  0  0  0
   40.1040   33.2110   39.8090 C   0  0  0  0  0  0  0  0  0  0  0  0
   39.1170   32.4540   40.2440 N   0  0  0  0  0  0  0  0  0  0  0  0
   40.0960   34.6400   39.8380 N   0  0  0  0  0  0  0  0  0  0  0  0
   41.0790   35.4240   39.3810 C   0  0  0  0  0  0  0  0  0  0  0  0
   40.7380   36.7210   39.5680 N   0  0  0  0  0  0  0  0  0  0  0  0
   39.5290   36.7130   40.1470 C   0  0  0  0  0  0  0  0  0  0  0  0
   39.1150   35.4330   40.3240 N   0  0  0  0  0  0  0  0  0  0  0  0
   39.7940   28.3900   41.3620 C   0  0  0  0  0  0  0  0  0  0  0  0
   40.1110   27.1890   40.6430 C   0  0  0  0  0  0  0  0  0  0  0  0
   41.7960   26.7500   41.1780 S   0  0  0  0  0  0  0  0  0  0  0  0
   41.8020   28.3150   42.3280 C   0  0  0  0  0  0  0  0  0  0  0  0
   40.7850   28.7480   42.1290 N   0  0  0  0  0  0  0  0  0  0  0  0
   43.1630   28.8050   43.3800 S   0  0  0  0  0  0  0  0  0  0  0  0
   43.1260   28.0260   44.9960 C   0  0  0  0  0  0  0  0  0  0  0  0
   42.1380   26.8730   44.9420 C   0  0  0  0  0  0  0  0  0  0  0  0
   44.4850   27.4030   45.3030 C   0  0  0  0  0  0  0  0  0  0  0  0
   37.5401   27.2237   42.0118 H   0  0  0  0  0  0  0  0  0  0  0  0
   34.9217   30.2573   40.7248 H   0  0  0  0  0  0  0  0  0  0  0  0
   42.0159   35.0709   38.9255 H   0  0  0  0  0  0  0  0  0  0  0  0
   38.9589   37.6085   40.4350 H   0  0  0  0  0  0  0  0  0  0  0  0
   39.4748   26.6507   39.9250 H   0  0  0  0  0  0  0  0  0  0  0  0
   42.8579   28.7793   45.7514 H   0  0  0  0  0  0  0  0  0  0  0  0
   41.8756   26.5668   45.9654 H   0  0  0  0  0  0  0  0  0  0  0  0
   41.2296   27.1931   44.4108 H   0  0  0  0  0  0  0  0  0  0  0  0
   42.5936   26.0243   44.4108 H   0  0  0  0  0  0  0  0  0  0  0  0
   44.6219   27.3403   46.3926 H   0  0  0  0  0  0  0  0  0  0  0  0
   44.5320   26.3934   44.8688 H   0  0  0  0  0  0  0  0  0  0  0  0
   45.2806   28.0263   44.8688 H   0  0  0  0  0  0  0  0  0  0  0  0
  2 17  1  0
  2  1  2  0
  3  2  1  0
  4  3  2  0
  4  5  1  0
  5  6  2  0
  6  1  1  0
  7 11  1  0
  7  3  1  0
  8  7  2  0
  9  8  1  0
  9 10  1  0
 10 12  1  0
 10 11  2  0
 12 16  1  0
 13 14  2  0
 13 12  1  0
 14 15  1  0
 15 16  2  0
 17 21  1  0
 18 19  1  0
 18 17  2  0
 19 20  1  0
 20 22  1  0
 21 20  2  0
 22 23  1  0
 23 25  1  0
 24 23  1  0
  1 26  1  0
  5 27  1  0
 13 28  1  0
 15 29  1  0
 18 30  1  0
 23 31  1  0
 24 32  1  0
 24 33  1  0
 24 34  1  0
 25 35  1  0
 25 36  1  0
 25 37  1  0
M  ISO  8  26  14  27  14  28  14  29  14  30  14  31   8  32   8  33   8
M  ISO  4  34   8  35   8  36   8  37   8
M  END
>  <minimizedAffinity>  (1) 
-5.14592314

>  <minimizedRMSD>  (1) 
2.65105271

$$$$
