
     RDKit          3D

 31 33  0  0  0  0  0  0  0  0999 V2000
   39.0280   31.5180   41.4170 C   0  0  0  0  0  0  0  0  0  0  0  0
   39.0240   31.6730   39.9930 C   0  0  0  0  0  0  0  0  0  0  0  0
   38.9760   30.4920   39.2640 C   0  0  0  0  0  0  0  0  0  0  0  0
   38.9360   29.2900   39.9100 N   0  0  0  0  0  0  0  0  0  0  0  0
   38.9410   29.2100   41.2450 C   0  0  0  0  0  0  0  0  0  0  0  0
   38.9870   30.3060   41.9930 N   0  0  0  0  0  0  0  0  0  0  0  0
   38.8980   27.9170   41.9220 C   0  0  0  0  0  0  0  0  0  0  0  0
   39.5740   27.5220   43.0580 C   0  0  0  0  0  0  0  0  0  0  0  0
   39.2730   26.2500   43.3750 N   0  0  0  0  0  0  0  0  0  0  0  0
   38.3990   25.8120   42.4470 C   0  0  0  0  0  0  0  0  0  0  0  0
   37.7860   24.5830   42.3190 C   0  0  0  0  0  0  0  0  0  0  0  0
   36.8980   24.3240   41.2690 C   0  0  0  0  0  0  0  0  0  0  0  0
   36.6390   25.3370   40.3430 C   0  0  0  0  0  0  0  0  0  0  0  0
   37.2630   26.5650   40.4860 C   0  0  0  0  0  0  0  0  0  0  0  0
   38.1400   26.8260   41.5200 C   0  0  0  0  0  0  0  0  0  0  0  0
   39.0680   32.9830   39.4280 N   0  0  0  0  0  0  0  0  0  0  0  0
   38.1190   33.9950   39.7170 C   0  0  0  0  0  0  0  0  0  0  0  0
   36.8670   33.6010   39.8110 N   0  0  0  0  0  0  0  0  0  0  0  0
   38.6490   35.3310   39.8710 N   0  0  0  0  0  0  0  0  0  0  0  0
   36.1140   34.2680   40.0280 H   0  0  0  0  0  0  0  0  0  0  0  0
   39.0656   32.4139   42.0542 H   0  0  0  0  0  0  0  0  0  0  0  0
   38.9702   30.5251   38.1645 H   0  0  0  0  0  0  0  0  0  0  0  0
   40.2654   28.1607   43.6273 H   0  0  0  0  0  0  0  0  0  0  0  0
   39.6401   25.7134   44.1739 H   0  0  0  0  0  0  0  0  0  0  0  0
   37.9987   23.7933   43.0546 H   0  0  0  0  0  0  0  0  0  0  0  0
   36.4131   23.3412   41.1747 H   0  0  0  0  0  0  0  0  0  0  0  0
   35.9455   25.1610   39.5075 H   0  0  0  0  0  0  0  0  0  0  0  0
   37.0533   27.3576   39.7526 H   0  0  0  0  0  0  0  0  0  0  0  0
   39.8320   33.2051   38.7739 H   0  0  0  0  0  0  0  0  0  0  0  0
   38.0155   36.1152   40.0820 H   0  0  0  0  0  0  0  0  0  0  0  0
   39.6602   35.4987   39.7698 H   0  0  0  0  0  0  0  0  0  0  0  0
  1  6  2  0
  2  1  1  0
  3  4  1  0
  3  2  2  0
  4  5  2  0
  5  7  1  0
  5  6  1  0
  7  8  2  0
  8  9  1  0
 10  9  1  0
 11 10  2  0
 12 11  1  0
 13 14  1  0
 13 12  2  0
 14 15  2  0
 15  7  1  0
 15 10  1  0
 16 17  1  0
 16  2  1  0
 17 18  2  0
 17 19  1  0
 18 20  1  0
  1 21  1  0
  3 22  1  0
  8 23  1  0
  9 24  1  0
 11 25  1  0
 12 26  1  0
 13 27  1  0
 14 28  1  0
 16 29  1  0
 19 30  1  0
 19 31  1  0
M  ISO  8  21  14  22  14  23  14  24   9  25  14  26  14  27  14  28  14
M  END
>  <minimizedAffinity>  (1) 
-5.49631023

>  <minimizedRMSD>  (1) 
3.28423595

$$$$
