
     RDKit          3D

 33 35  0  0  0  0  0  0  0  0999 V2000
   37.4170   28.6680   41.7050 C   0  0  0  0  0  0  0  0  0  0  0  0
   36.3400   27.9790   42.2340 C   0  0  0  0  0  0  0  0  0  0  0  0
   36.6870   27.4100   43.4130 N   0  0  0  0  0  0  0  0  0  0  0  0
   37.9900   27.7560   43.6070 C   0  0  0  0  0  0  0  0  0  0  0  0
   38.4030   28.5050   42.5770 N   0  0  0  0  0  0  0  0  0  0  0  0
   37.5860   29.4230   38.0840 C   0  0  0  0  0  0  0  0  0  0  0  0
   37.6690   28.6980   39.2820 C   0  0  0  0  0  0  0  0  0  0  0  0
   37.3440   29.3800   40.4500 C   0  0  0  0  0  0  0  0  0  0  0  0
   36.9640   30.7030   40.3840 N   0  0  0  0  0  0  0  0  0  0  0  0
   36.9030   31.3520   39.1840 C   0  0  0  0  0  0  0  0  0  0  0  0
   37.2140   30.7130   38.0330 N   0  0  0  0  0  0  0  0  0  0  0  0
   39.7050   29.0980   42.3490 C   0  0  0  0  0  0  0  0  0  0  0  0
   40.8260   28.3150   42.9460 C   0  0  0  0  0  0  0  0  0  0  0  0
   42.1050   28.9700   42.4020 C   0  0  0  0  0  0  0  0  0  0  0  0
   42.1590   30.3260   43.0570 C   0  0  0  0  0  0  0  0  0  0  0  0
   41.0010   31.2170   42.6970 C   0  0  0  0  0  0  0  0  0  0  0  0
   39.6690   30.5340   42.8000 C   0  0  0  0  0  0  0  0  0  0  0  0
   35.3475   27.9043   41.7656 H   0  0  0  0  0  0  0  0  0  0  0  0
   38.6048   27.4663   44.4719 H   0  0  0  0  0  0  0  0  0  0  0  0
   37.8371   28.9118   37.1429 H   0  0  0  0  0  0  0  0  0  0  0  0
   37.9761   27.6418   39.2971 H   0  0  0  0  0  0  0  0  0  0  0  0
   36.5970   32.4081   39.1530 H   0  0  0  0  0  0  0  0  0  0  0  0
   39.9205   29.0733   41.2706 H   0  0  0  0  0  0  0  0  0  0  0  0
   40.7978   28.3757   44.0440 H   0  0  0  0  0  0  0  0  0  0  0  0
   40.7671   27.2475   42.6872 H   0  0  0  0  0  0  0  0  0  0  0  0
   42.9894   28.3745   42.6728 H   0  0  0  0  0  0  0  0  0  0  0  0
   42.0972   29.0419   41.3044 H   0  0  0  0  0  0  0  0  0  0  0  0
   42.1629   30.1850   44.1479 H   0  0  0  0  0  0  0  0  0  0  0  0
   43.0716   30.8222   42.6952 H   0  0  0  0  0  0  0  0  0  0  0  0
   41.1362   31.5632   41.6617 H   0  0  0  0  0  0  0  0  0  0  0  0
   40.9957   32.0491   43.4164 H   0  0  0  0  0  0  0  0  0  0  0  0
   38.9467   31.0793   42.1747 H   0  0  0  0  0  0  0  0  0  0  0  0
   39.3800   30.5372   43.8614 H   0  0  0  0  0  0  0  0  0  0  0  0
  1  2  2  0
  1  5  1  0
  2  3  1  0
  3  4  2  0
  5  4  1  0
  6  7  2  0
  7  8  1  0
  8  1  1  0
  9  8  2  0
 10  9  1  0
 11  6  1  0
 11 10  2  0
 12  5  1  0
 12 17  1  0
 12 13  1  0
 14 13  1  0
 14 15  1  0
 16 17  1  0
 16 15  1  0
  2 18  1  0
  4 19  1  0
  6 20  1  0
  7 21  1  0
 10 22  1  0
 12 23  1  0
 13 24  1  0
 13 25  1  0
 14 26  1  0
 14 27  1  0
 15 28  1  0
 15 29  1  0
 16 30  1  0
 16 31  1  0
 17 32  1  0
 17 33  1  0
M  ISO  8  18  14  19  14  20  14  21  14  22  14  23  13  24  13  25  13
M  ISO  8  26  13  27  13  28  13  29  13  30  13  31  13  32  13  33  13
M  END
>  <minimizedAffinity>  (1) 
-4.12261152

>  <minimizedRMSD>  (1) 
2.63102603

$$$$
