
     RDKit          3D

 27 29  0  0  0  0  0  0  0  0999 V2000
   37.8540   28.2960   41.8390 C   0  0  0  0  0  0  0  0  0  0  0  0
   37.0460   27.1890   42.0240 C   0  0  0  0  0  0  0  0  0  0  0  0
   37.6110   26.3330   42.9130 N   0  0  0  0  0  0  0  0  0  0  0  0
   38.7850   26.9220   43.2810 C   0  0  0  0  0  0  0  0  0  0  0  0
   38.9010   28.0880   42.6250 N   0  0  0  0  0  0  0  0  0  0  0  0
   37.6470   30.3720   38.7910 C   0  0  0  0  0  0  0  0  0  0  0  0
   37.9910   29.3220   39.6440 C   0  0  0  0  0  0  0  0  0  0  0  0
   37.5100   29.3690   40.9540 C   0  0  0  0  0  0  0  0  0  0  0  0
   36.7290   30.4320   41.3470 N   0  0  0  0  0  0  0  0  0  0  0  0
   36.4180   31.4380   40.4780 C   0  0  0  0  0  0  0  0  0  0  0  0
   36.8790   31.4060   39.2010 N   0  0  0  0  0  0  0  0  0  0  0  0
   39.9980   28.9820   42.7550 C   0  0  0  0  0  0  0  0  0  0  0  0
   41.2120   28.3320   42.9620 C   0  0  0  0  0  0  0  0  0  0  0  0
   42.3830   29.0570   43.1100 C   0  0  0  0  0  0  0  0  0  0  0  0
   42.3300   30.4410   43.0470 C   0  0  0  0  0  0  0  0  0  0  0  0
   41.1210   31.0960   42.8400 C   0  0  0  0  0  0  0  0  0  0  0  0
   39.9570   30.3640   42.6940 C   0  0  0  0  0  0  0  0  0  0  0  0
   36.0813   27.0253   41.5215 H   0  0  0  0  0  0  0  0  0  0  0  0
   39.5140   26.5111   43.9949 H   0  0  0  0  0  0  0  0  0  0  0  0
   38.0121   30.3575   37.7534 H   0  0  0  0  0  0  0  0  0  0  0  0
   38.6183   28.4878   39.2968 H   0  0  0  0  0  0  0  0  0  0  0  0
   35.7916   32.2777   40.8135 H   0  0  0  0  0  0  0  0  0  0  0  0
   41.2413   27.2334   43.0084 H   0  0  0  0  0  0  0  0  0  0  0  0
   43.3410   28.5422   43.2751 H   0  0  0  0  0  0  0  0  0  0  0  0
   43.2538   31.0269   43.1619 H   0  0  0  0  0  0  0  0  0  0  0  0
   41.0906   32.1946   42.7925 H   0  0  0  0  0  0  0  0  0  0  0  0
   38.9994   30.8796   42.5295 H   0  0  0  0  0  0  0  0  0  0  0  0
  1  2  2  0
  1  5  1  0
  2  3  1  0
  3  4  2  0
  5 12  1  0
  5  4  1  0
  6 11  2  0
  6  7  1  0
  7  8  2  0
  8  9  1  0
  8  1  1  0
 10  9  2  0
 11 10  1  0
 12 13  2  0
 13 14  1  0
 15 14  2  0
 16 15  1  0
 17 12  1  0
 17 16  2  0
  2 18  1  0
  4 19  1  0
  6 20  1  0
  7 21  1  0
 10 22  1  0
 13 23  1  0
 14 24  1  0
 15 25  1  0
 16 26  1  0
 17 27  1  0
M  ISO  8  18  14  19  14  20  14  21  14  22  14  23  14  24  14  25  14
M  ISO  2  26  14  27  14
M  END
>  <minimizedAffinity>  (1) 
-4.11638927

>  <minimizedRMSD>  (1) 
1.90776205

$$$$
