
     RDKit          3D

 22 24  0  0  0  0  0  0  0  0999 V2000
   38.5140   28.1800   42.6270 C   0  0  0  0  0  0  0  0  0  0  0  0
   38.3390   27.1080   43.4540 C   0  0  0  0  0  0  0  0  0  0  0  0
   39.5210   26.7220   43.9820 N   0  0  0  0  0  0  0  0  0  0  0  0
   40.4510   27.5610   43.4780 C   0  0  0  0  0  0  0  0  0  0  0  0
   39.8330   28.4320   42.6660 N   0  0  0  0  0  0  0  0  0  0  0  0
   40.4950   29.4870   41.9410 C   0  0  0  0  0  0  0  0  0  0  0  0
   40.8890   29.7940   40.7070 N   0  0  0  0  0  0  0  0  0  0  0  0
   41.4570   30.9540   40.7240 O   0  0  0  0  0  0  0  0  0  0  0  0
   41.4600   31.4500   41.9500 C   0  0  0  0  0  0  0  0  0  0  0  0
   40.8530   30.5260   42.7250 N   0  0  0  0  0  0  0  0  0  0  0  0
   35.5380   28.7050   40.5190 C   0  0  0  0  0  0  0  0  0  0  0  0
   36.5540   28.0300   41.2340 C   0  0  0  0  0  0  0  0  0  0  0  0
   37.4760   28.8520   41.8970 C   0  0  0  0  0  0  0  0  0  0  0  0
   37.3330   30.1970   41.8060 N   0  0  0  0  0  0  0  0  0  0  0  0
   36.3460   30.8040   41.1110 C   0  0  0  0  0  0  0  0  0  0  0  0
   35.4490   30.0450   40.4670 N   0  0  0  0  0  0  0  0  0  0  0  0
   37.3719   26.6265   43.6612 H   0  0  0  0  0  0  0  0  0  0  0  0
   41.5290   27.5349   43.6955 H   0  0  0  0  0  0  0  0  0  0  0  0
   41.8726   32.4174   42.2723 H   0  0  0  0  0  0  0  0  0  0  0  0
   34.7873   28.1070   39.9816 H   0  0  0  0  0  0  0  0  0  0  0  0
   36.6168   26.9323   41.2678 H   0  0  0  0  0  0  0  0  0  0  0  0
   36.2800   31.9014   41.0745 H   0  0  0  0  0  0  0  0  0  0  0  0
  1  5  1  0
  1  2  2  0
  2  3  1  0
  4  3  2  0
  5  4  1  0
  6  5  1  0
  6 10  1  0
  7  8  1  0
  7  6  2  0
  8  9  1  0
  9 10  2  0
 11 12  2  0
 12 13  1  0
 13  1  1  0
 14 13  2  0
 15 14  1  0
 16 11  1  0
 16 15  2  0
  2 17  1  0
  4 18  1  0
  9 19  1  0
 11 20  1  0
 12 21  1  0
 15 22  1  0
M  ISO  6  17  14  18  14  19  14  20  14  21  14  22  14
M  END
>  <minimizedAffinity>  (1) 
-4.08770943

>  <minimizedRMSD>  (1) 
0.229167089

$$$$
