
     RDKit          3D

 25 27  0  0  0  0  0  0  0  0999 V2000
   38.5530   28.2150   42.6330 C   0  0  0  0  0  0  0  0  0  0  0  0
   38.3650   27.1820   43.5030 C   0  0  0  0  0  0  0  0  0  0  0  0
   39.5190   26.7560   44.0320 N   0  0  0  0  0  0  0  0  0  0  0  0
   40.4750   27.5560   43.4700 C   0  0  0  0  0  0  0  0  0  0  0  0
   39.8640   28.4210   42.6350 N   0  0  0  0  0  0  0  0  0  0  0  0
   35.5440   28.7270   40.5480 C   0  0  0  0  0  0  0  0  0  0  0  0
   36.5620   28.0750   41.2590 C   0  0  0  0  0  0  0  0  0  0  0  0
   37.5180   28.8830   41.9100 C   0  0  0  0  0  0  0  0  0  0  0  0
   37.3760   30.2280   41.7970 N   0  0  0  0  0  0  0  0  0  0  0  0
   36.3800   30.8250   41.1010 C   0  0  0  0  0  0  0  0  0  0  0  0
   35.4630   30.0690   40.4780 N   0  0  0  0  0  0  0  0  0  0  0  0
   40.5720   29.4030   41.8810 C   0  0  0  0  0  0  0  0  0  0  0  0
   40.9300   30.5190   42.6240 C   0  0  0  0  0  0  0  0  0  0  0  0
   41.6190   31.5660   42.0610 C   0  0  0  0  0  0  0  0  0  0  0  0
   41.9520   31.4990   40.7420 N   0  0  0  0  0  0  0  0  0  0  0  0
   41.5900   30.4000   40.0410 C   0  0  0  0  0  0  0  0  0  0  0  0
   40.9160   29.3600   40.5640 N   0  0  0  0  0  0  0  0  0  0  0  0
   37.3820   26.7499   43.7419 H   0  0  0  0  0  0  0  0  0  0  0  0
   41.5562   27.5031   43.6653 H   0  0  0  0  0  0  0  0  0  0  0  0
   34.7859   28.1212   40.0299 H   0  0  0  0  0  0  0  0  0  0  0  0
   36.6131   26.9772   41.3072 H   0  0  0  0  0  0  0  0  0  0  0  0
   36.3229   31.9222   41.0466 H   0  0  0  0  0  0  0  0  0  0  0  0
   40.6559   30.5665   43.6882 H   0  0  0  0  0  0  0  0  0  0  0  0
   41.8967   32.4426   42.6647 H   0  0  0  0  0  0  0  0  0  0  0  0
   41.8640   30.3540   38.9767 H   0  0  0  0  0  0  0  0  0  0  0  0
  1  5  1  0
  1  2  2  0
  2  3  1  0
  4  3  2  0
  5  4  1  0
  6  7  2  0
  7  8  1  0
  8  1  1  0
  9  8  2  0
 10  9  1  0
 11  6  1  0
 11 10  2  0
 12 13  2  0
 12  5  1  0
 14 13  1  0
 15 14  2  0
 16 17  2  0
 16 15  1  0
 17 12  1  0
  2 18  1  0
  4 19  1  0
  6 20  1  0
  7 21  1  0
 10 22  1  0
 13 23  1  0
 14 24  1  0
 16 25  1  0
M  ISO  8  18  14  19  14  20  14  21  14  22  14  23  14  24  14  25  14
M  END
>  <minimizedAffinity>  (1) 
-4.061903

>  <minimizedRMSD>  (1) 
0.291217893

$$$$
