
     RDKit          3D

 29 31  0  0  1  0  0  0  0  0999 V2000
   38.5560   28.0630   42.6120 C   0  0  0  0  0  0  0  0  0  0  0  0
   38.3530   26.9160   43.3550 C   0  0  0  0  0  0  0  0  0  0  0  0
   39.4850   26.5380   43.9610 N   0  0  0  0  0  0  0  0  0  0  0  0
   40.4200   27.4680   43.5920 C   0  0  0  0  0  0  0  0  0  0  0  0
   39.8330   28.3680   42.7840 N   0  0  0  0  0  0  0  0  0  0  0  0
   35.7300   28.5400   40.2630 C   0  0  0  0  0  0  0  0  0  0  0  0
   36.7350   27.9150   41.0120 C   0  0  0  0  0  0  0  0  0  0  0  0
   37.5330   28.7100   41.8500 C   0  0  0  0  0  0  0  0  0  0  0  0
   37.2700   30.0400   41.8730 N   0  0  0  0  0  0  0  0  0  0  0  0
   36.2970   30.6300   41.1450 C   0  0  0  0  0  0  0  0  0  0  0  0
   35.5260   29.8830   40.3390 N   0  0  0  0  0  0  0  0  0  0  0  0
   40.0360   30.7720   42.6270 N   0  0  0  0  0  0  0  0  0  0  0  0
   41.0260   31.6140   41.9370 C   0  0  0  0  0  0  0  0  0  0  0  0
   42.2870   31.0740   42.6100 C   0  0  0  0  0  0  0  0  0  0  0  0
   41.9680   29.5750   42.6820 C   0  0  0  0  0  0  0  0  0  0  0  0
   40.5270   29.4840   42.2120 C   0  0  1  0  0  0  0  0  0  0  0  0
   37.3926   26.3860   43.4373 H   0  0  0  0  0  0  0  0  0  0  0  0
   41.4747   27.4771   43.9044 H   0  0  0  0  0  0  0  0  0  0  0  0
   35.0939   27.9339   39.6011 H   0  0  0  0  0  0  0  0  0  0  0  0
   36.8950   26.8287   40.9454 H   0  0  0  0  0  0  0  0  0  0  0  0
   36.1374   31.7163   41.2123 H   0  0  0  0  0  0  0  0  0  0  0  0
   40.0713   30.8899   43.6496 H   0  0  0  0  0  0  0  0  0  0  0  0
   40.8735   32.6844   42.1396 H   0  0  0  0  0  0  0  0  0  0  0  0
   41.0121   31.5663   40.8381 H   0  0  0  0  0  0  0  0  0  0  0  0
   43.1828   31.2667   42.0013 H   0  0  0  0  0  0  0  0  0  0  0  0
   42.5119   31.5349   43.5831 H   0  0  0  0  0  0  0  0  0  0  0  0
   42.6326   29.0014   42.0192 H   0  0  0  0  0  0  0  0  0  0  0  0
   42.1119   29.1591   43.6901 H   0  0  0  0  0  0  0  0  0  0  0  0
   40.3936   29.2941   41.1368 H   0  0  0  0  0  0  0  0  0  0  0  0
  1  5  1  0
  1  2  2  0
  2  3  1  0
  4  3  2  0
  5  4  1  0
  6 11  2  0
  6  7  1  0
  7  8  2  0
  8  9  1  0
  8  1  1  0
 10  9  2  0
 11 10  1  0
 13 14  1  0
 13 12  1  0
 14 15  1  0
 16 12  1  0
 16 15  1  0
 16  5  1  0
  2 17  1  0
  4 18  1  0
  6 19  1  0
  7 20  1  0
 10 21  1  0
 12 22  1  0
 13 23  1  0
 13 24  1  0
 14 25  1  0
 14 26  1  0
 15 27  1  0
 15 28  1  0
 16 29  1  6
M  ISO  8  17  14  18  14  19  14  20  14  21  14  22   5  23  13  24  13
M  ISO  5  25  13  26  13  27  13  28  13  29  13
M  END
>  <minimizedAffinity>  (1) 
-4.04490328

>  <minimizedRMSD>  (1) 
0.52741611

$$$$
