
     RDKit          3D

 30 32  0  0  0  0  0  0  0  0999 V2000
   38.5460   28.1170   42.5670 C   0  0  0  0  0  0  0  0  0  0  0  0
   38.3520   27.0660   43.4170 C   0  0  0  0  0  0  0  0  0  0  0  0
   39.5000   26.6960   43.9980 N   0  0  0  0  0  0  0  0  0  0  0  0
   40.4400   27.5400   43.4980 C   0  0  0  0  0  0  0  0  0  0  0  0
   39.8590   28.4080   42.6240 N   0  0  0  0  0  0  0  0  0  0  0  0
   35.7280   28.5290   40.2120 C   0  0  0  0  0  0  0  0  0  0  0  0
   36.7480   27.9070   40.9590 C   0  0  0  0  0  0  0  0  0  0  0  0
   37.5010   28.7360   41.7980 C   0  0  0  0  0  0  0  0  0  0  0  0
   37.1960   30.0570   41.8270 N   0  0  0  0  0  0  0  0  0  0  0  0
   36.2090   30.6260   41.0980 C   0  0  0  0  0  0  0  0  0  0  0  0
   35.4720   29.8500   40.2840 N   0  0  0  0  0  0  0  0  0  0  0  0
   40.5240   29.4600   41.8840 C   0  0  0  0  0  0  0  0  0  0  0  0
   41.9700   29.2220   41.6210 C   0  0  0  0  0  0  0  0  0  0  0  0
   42.7300   30.4100   42.2110 C   0  0  0  0  0  0  0  0  0  0  0  0
   41.6680   31.4750   42.2010 C   0  0  0  0  0  0  0  0  0  0  0  0
   40.4990   30.7010   42.7790 C   0  0  0  0  0  0  0  0  0  0  0  0
   37.3794   26.5860   43.6004 H   0  0  0  0  0  0  0  0  0  0  0  0
   41.5084   27.5246   43.7595 H   0  0  0  0  0  0  0  0  0  0  0  0
   35.1144   27.9097   39.5413 H   0  0  0  0  0  0  0  0  0  0  0  0
   36.9422   26.8267   40.8865 H   0  0  0  0  0  0  0  0  0  0  0  0
   36.0124   31.7059   41.1699 H   0  0  0  0  0  0  0  0  0  0  0  0
   40.0034   29.5392   40.9183 H   0  0  0  0  0  0  0  0  0  0  0  0
   42.2937   28.2883   42.1041 H   0  0  0  0  0  0  0  0  0  0  0  0
   42.1636   29.1271   40.5423 H   0  0  0  0  0  0  0  0  0  0  0  0
   43.0778   30.1980   43.2328 H   0  0  0  0  0  0  0  0  0  0  0  0
   43.6427   30.6793   41.6592 H   0  0  0  0  0  0  0  0  0  0  0  0
   41.9435   32.3298   42.8361 H   0  0  0  0  0  0  0  0  0  0  0  0
   41.4785   31.9256   41.2156 H   0  0  0  0  0  0  0  0  0  0  0  0
   39.5544   31.2558   42.6794 H   0  0  0  0  0  0  0  0  0  0  0  0
   40.5720   30.4932   43.8567 H   0  0  0  0  0  0  0  0  0  0  0  0
  1  5  1  0
  1  2  2  0
  2  3  1  0
  4  3  2  0
  5  4  1  0
  6 11  2  0
  6  7  1  0
  7  8  2  0
  8  9  1  0
  8  1  1  0
 10  9  2  0
 11 10  1  0
 12  5  1  0
 12 16  1  0
 13 12  1  0
 13 14  1  0
 15 14  1  0
 15 16  1  0
  2 17  1  0
  4 18  1  0
  6 19  1  0
  7 20  1  0
 10 21  1  0
 12 22  1  0
 13 23  1  0
 13 24  1  0
 14 25  1  0
 14 26  1  0
 15 27  1  0
 15 28  1  0
 16 29  1  0
 16 30  1  0
M  ISO  8  17  14  18  14  19  14  20  14  21  14  22  13  23  13  24  13
M  ISO  6  25  13  26  13  27  13  28  13  29  13  30  13
M  END
>  <minimizedAffinity>  (1) 
-3.93876529

>  <minimizedRMSD>  (1) 
0.383846492

$$$$
