
     RDKit          3D

 23 25  0  0  0  0  0  0  0  0999 V2000
   38.5560   28.1420   42.6060 C   0  0  0  0  0  0  0  0  0  0  0  0
   38.3740   27.0710   43.4330 C   0  0  0  0  0  0  0  0  0  0  0  0
   39.5420   26.6900   43.9880 N   0  0  0  0  0  0  0  0  0  0  0  0
   40.4760   27.5580   43.4870 C   0  0  0  0  0  0  0  0  0  0  0  0
   39.8550   28.4160   42.6630 N   0  0  0  0  0  0  0  0  0  0  0  0
   35.6040   28.6070   40.4250 C   0  0  0  0  0  0  0  0  0  0  0  0
   36.6300   27.9600   41.1400 C   0  0  0  0  0  0  0  0  0  0  0  0
   37.4970   28.7800   41.8660 C   0  0  0  0  0  0  0  0  0  0  0  0
   37.2990   30.1300   41.8350 N   0  0  0  0  0  0  0  0  0  0  0  0
   36.2960   30.7160   41.1320 C   0  0  0  0  0  0  0  0  0  0  0  0
   35.4510   29.9510   40.4290 N   0  0  0  0  0  0  0  0  0  0  0  0
   40.5100   29.4640   41.9560 C   0  0  0  0  0  0  0  0  0  0  0  0
   40.7980   30.7090   42.6080 C   0  0  0  0  0  0  0  0  0  0  0  0
   41.6400   31.6420   41.1890 S   0  0  0  0  0  0  0  0  0  0  0  0
   41.4140   30.1440   40.0380 C   0  0  0  0  0  0  0  0  0  0  0  0
   40.8930   29.3760   40.6770 N   0  0  0  0  0  0  0  0  0  0  0  0
   37.4054   26.5848   43.6210 H   0  0  0  0  0  0  0  0  0  0  0  0
   41.5510   27.5526   43.7202 H   0  0  0  0  0  0  0  0  0  0  0  0
   34.9000   27.9962   39.8408 H   0  0  0  0  0  0  0  0  0  0  0  0
   36.7429   26.8659   41.1275 H   0  0  0  0  0  0  0  0  0  0  0  0
   36.1785   31.8097   41.1398 H   0  0  0  0  0  0  0  0  0  0  0  0
   40.5894   31.0309   43.6390 H   0  0  0  0  0  0  0  0  0  0  0  0
   41.7223   30.0491   38.9864 H   0  0  0  0  0  0  0  0  0  0  0  0
  1  5  1  0
  1  2  2  0
  2  3  1  0
  4  3  2  0
  5  4  1  0
  6 11  2  0
  6  7  1  0
  7  8  2  0
  8  1  1  0
  9  8  1  0
 10  9  2  0
 11 10  1  0
 12 13  2  0
 12  5  1  0
 14 13  1  0
 15 16  2  0
 15 14  1  0
 16 12  1  0
  2 17  1  0
  4 18  1  0
  6 19  1  0
  7 20  1  0
 10 21  1  0
 13 22  1  0
 15 23  1  0
M  ISO  7  17  14  18  14  19  14  20  14  21  14  22  14  23  14
M  END
>  <minimizedAffinity>  (1) 
-3.88682532

>  <minimizedRMSD>  (1) 
0.285023838

$$$$
