
     RDKit          3D

 24 26  0  0  0  0  0  0  0  0999 V2000
   38.5680   28.1190   42.6210 C   0  0  0  0  0  0  0  0  0  0  0  0
   38.3660   27.0180   43.4360 C   0  0  0  0  0  0  0  0  0  0  0  0
   39.5160   26.6460   44.0090 N   0  0  0  0  0  0  0  0  0  0  0  0
   40.4400   27.5260   43.5430 C   0  0  0  0  0  0  0  0  0  0  0  0
   39.8790   28.4330   42.6940 N   0  0  0  0  0  0  0  0  0  0  0  0
   35.7510   28.5460   40.2720 C   0  0  0  0  0  0  0  0  0  0  0  0
   36.7660   27.9120   41.0230 C   0  0  0  0  0  0  0  0  0  0  0  0
   37.5260   28.7590   41.8540 C   0  0  0  0  0  0  0  0  0  0  0  0
   37.2400   30.0840   41.8790 N   0  0  0  0  0  0  0  0  0  0  0  0
   36.2580   30.6460   41.1420 C   0  0  0  0  0  0  0  0  0  0  0  0
   35.5120   29.8760   40.3380 N   0  0  0  0  0  0  0  0  0  0  0  0
   40.5430   29.5210   42.0040 C   0  0  0  0  0  0  0  0  0  0  0  0
   41.8500   29.9190   42.6530 C   0  0  0  0  0  0  0  0  0  0  0  0
   40.6480   30.8460   42.6160 C   0  0  0  0  0  0  0  0  0  0  0  0
   37.3974   26.5200   43.5903 H   0  0  0  0  0  0  0  0  0  0  0  0
   41.5054   27.5089   43.8160 H   0  0  0  0  0  0  0  0  0  0  0  0
   35.1283   27.9318   39.6049 H   0  0  0  0  0  0  0  0  0  0  0  0
   36.9507   26.8293   40.9630 H   0  0  0  0  0  0  0  0  0  0  0  0
   36.0717   31.7285   41.2012 H   0  0  0  0  0  0  0  0  0  0  0  0
   40.1850   29.2078   41.0122 H   0  0  0  0  0  0  0  0  0  0  0  0
   42.1653   29.4546   43.5990 H   0  0  0  0  0  0  0  0  0  0  0  0
   42.9030   29.9765   42.3403 H   0  0  0  0  0  0  0  0  0  0  0  0
   40.6678   31.7429   41.9795 H   0  0  0  0  0  0  0  0  0  0  0  0
   40.0713   31.3935   43.3760 H   0  0  0  0  0  0  0  0  0  0  0  0
  1  5  1  0
  1  2  2  0
  2  3  1  0
  4  3  2  0
  5  4  1  0
  6 11  2  0
  6  7  1  0
  7  8  2  0
  8  9  1  0
  8  1  1  0
 10  9  2  0
 11 10  1  0
 12 14  1  0
 12 13  1  0
 12  5  1  0
 14 13  1  0
  2 15  1  0
  4 16  1  0
  6 17  1  0
  7 18  1  0
 10 19  1  0
 12 20  1  0
 13 21  1  0
 13 22  1  0
 14 23  1  0
 14 24  1  0
M  ISO  8  15  14  16  14  17  14  18  14  19  14  20  13  21  13  22  13
M  ISO  2  23  13  24  13
M  END
>  <minimizedAffinity>  (1) 
-3.7701087

>  <minimizedRMSD>  (1) 
0.351752251

$$$$
