
     RDKit          3D

 26 27  0  0  0  0  0  0  0  0999 V2000
   38.5360   28.1460   42.6340 C   0  0  0  0  0  0  0  0  0  0  0  0
   38.3120   27.1740   43.5830 C   0  0  0  0  0  0  0  0  0  0  0  0
   39.4620   26.7280   44.0960 N   0  0  0  0  0  0  0  0  0  0  0  0
   40.4350   27.4310   43.4590 C   0  0  0  0  0  0  0  0  0  0  0  0
   39.8680   28.2820   42.5820 N   0  0  0  0  0  0  0  0  0  0  0  0
   35.6100   28.6970   40.4650 C   0  0  0  0  0  0  0  0  0  0  0  0
   36.6070   28.0070   41.1850 C   0  0  0  0  0  0  0  0  0  0  0  0
   37.5060   28.8320   41.8910 C   0  0  0  0  0  0  0  0  0  0  0  0
   37.3630   30.1820   41.8360 N   0  0  0  0  0  0  0  0  0  0  0  0
   36.3830   30.7900   41.1270 C   0  0  0  0  0  0  0  0  0  0  0  0
   35.5090   30.0380   40.4430 N   0  0  0  0  0  0  0  0  0  0  0  0
   40.5840   29.2080   41.7070 C   0  0  0  0  0  0  0  0  0  0  0  0
   41.0180   30.3820   42.5500 C   0  0  0  0  0  0  0  0  0  0  0  0
   41.7290   28.5330   40.9970 C   0  0  0  0  0  0  0  0  0  0  0  0
   37.3166   26.8121   43.8799 H   0  0  0  0  0  0  0  0  0  0  0  0
   41.5158   27.3223   43.6323 H   0  0  0  0  0  0  0  0  0  0  0  0
   34.8778   28.1087   39.8924 H   0  0  0  0  0  0  0  0  0  0  0  0
   36.6778   26.9093   41.1950 H   0  0  0  0  0  0  0  0  0  0  0  0
   36.3048   31.8871   41.1123 H   0  0  0  0  0  0  0  0  0  0  0  0
   39.9280   29.5653   40.8995 H   0  0  0  0  0  0  0  0  0  0  0  0
   40.9226   30.1238   43.6150 H   0  0  0  0  0  0  0  0  0  0  0  0
   42.0663   30.6275   42.3247 H   0  0  0  0  0  0  0  0  0  0  0  0
   40.3815   31.2504   42.3247 H   0  0  0  0  0  0  0  0  0  0  0  0
   42.4285   28.1206   41.7390 H   0  0  0  0  0  0  0  0  0  0  0  0
   41.3410   27.7191   40.3669 H   0  0  0  0  0  0  0  0  0  0  0  0
   42.2533   29.2665   40.3669 H   0  0  0  0  0  0  0  0  0  0  0  0
  1  2  2  0
  2  3  1  0
  4  3  2  0
  5  1  1  0
  5  4  1  0
  6  7  2  0
  7  8  1  0
  8  1  1  0
  9  8  2  0
 10  9  1  0
 11  6  1  0
 11 10  2  0
 12 13  1  0
 12  5  1  0
 14 12  1  0
  2 15  1  0
  4 16  1  0
  6 17  1  0
  7 18  1  0
 10 19  1  0
 12 20  1  0
 13 21  1  0
 13 22  1  0
 13 23  1  0
 14 24  1  0
 14 25  1  0
 14 26  1  0
M  ISO  8  15  14  16  14  17  14  18  14  19  14  20   8  21   8  22   8
M  ISO  4  23   8  24   8  25   8  26   8
M  END
>  <minimizedAffinity>  (1) 
-3.66210008

>  <minimizedRMSD>  (1) 
0.365024954

$$$$
