
     RDKit          3D

 36 39  0  0  0  0  0  0  0  0999 V2000
   40.5370   29.5920   42.0330 C   0  0  0  0  0  0  0  0  0  0  0  0
   40.7690   30.8110   42.6210 C   0  0  0  0  0  0  0  0  0  0  0  0
   41.3790   31.8290   41.9120 C   0  0  0  0  0  0  0  0  0  0  0  0
   41.7330   31.5990   40.6530 N   0  0  0  0  0  0  0  0  0  0  0  0
   41.5230   30.4170   40.0400 C   0  0  0  0  0  0  0  0  0  0  0  0
   40.9290   29.4280   40.7350 N   0  0  0  0  0  0  0  0  0  0  0  0
   41.8790   30.1060   38.6930 N   0  0  0  0  0  0  0  0  0  0  0  0
   41.3680   29.2230   37.8410 C   0  0  0  0  0  0  0  0  0  0  0  0
   41.8980   29.1120   36.5730 C   0  0  0  0  0  0  0  0  0  0  0  0
   42.9520   29.9130   36.1940 C   0  0  0  0  0  0  0  0  0  0  0  0
   43.5010   29.7970   34.8820 N   0  0  0  0  0  0  0  0  0  0  0  0
   43.4750   30.8140   37.0620 N   0  0  0  0  0  0  0  0  0  0  0  0
   42.9230   30.8930   38.3050 C   0  0  0  0  0  0  0  0  0  0  0  0
   43.5180   31.7800   39.0010 O   0  0  0  0  0  0  0  0  0  0  0  0
   38.6300   28.1170   42.5390 C   0  0  0  0  0  0  0  0  0  0  0  0
   38.4900   26.9730   43.3000 C   0  0  0  0  0  0  0  0  0  0  0  0
   39.6610   26.6170   43.8720 N   0  0  0  0  0  0  0  0  0  0  0  0
   40.5390   27.5570   43.4570 C   0  0  0  0  0  0  0  0  0  0  0  0
   39.9200   28.4630   42.6530 N   0  0  0  0  0  0  0  0  0  0  0  0
   35.7190   28.5190   40.2930 C   0  0  0  0  0  0  0  0  0  0  0  0
   36.7670   27.8940   41.0050 C   0  0  0  0  0  0  0  0  0  0  0  0
   37.5630   28.7370   41.8110 C   0  0  0  0  0  0  0  0  0  0  0  0
   37.2770   30.0730   41.8500 N   0  0  0  0  0  0  0  0  0  0  0  0
   36.2530   30.6280   41.1440 C   0  0  0  0  0  0  0  0  0  0  0  0
   35.4860   29.8420   40.3730 N   0  0  0  0  0  0  0  0  0  0  0  0
   40.4668   30.9790   43.6653 H   0  0  0  0  0  0  0  0  0  0  0  0
   41.5667   32.8067   42.3798 H   0  0  0  0  0  0  0  0  0  0  0  0
   40.5263   28.5839   38.1461 H   0  0  0  0  0  0  0  0  0  0  0  0
   41.4787   28.3832   35.8638 H   0  0  0  0  0  0  0  0  0  0  0  0
   44.2894   30.3963   34.5988 H   0  0  0  0  0  0  0  0  0  0  0  0
   43.1089   29.1140   34.2182 H   0  0  0  0  0  0  0  0  0  0  0  0
   37.5460   26.4223   43.4244 H   0  0  0  0  0  0  0  0  0  0  0  0
   41.6040   27.5854   43.7308 H   0  0  0  0  0  0  0  0  0  0  0  0
   35.0715   27.9033   39.6514 H   0  0  0  0  0  0  0  0  0  0  0  0
   36.9524   26.8120   40.9354 H   0  0  0  0  0  0  0  0  0  0  0  0
   36.0569   31.7087   41.2052 H   0  0  0  0  0  0  0  0  0  0  0  0
  1  2  2  0
  1 19  1  0
  3  2  1  0
  4  3  2  0
  5  4  1  0
  5  6  2  0
  6  1  1  0
  7  5  1  0
  8  7  1  0
  9  8  2  0
 10  9  1  0
 10 12  2  0
 11 10  1  0
 12 13  1  0
 13  7  1  0
 13 14  2  0
 15 19  1  0
 15 16  2  0
 16 17  1  0
 18 17  2  0
 19 18  1  0
 20 25  2  0
 20 21  1  0
 21 22  2  0
 22 23  1  0
 22 15  1  0
 24 23  2  0
 25 24  1  0
  2 26  1  0
  3 27  1  0
  8 28  1  0
  9 29  1  0
 11 30  1  0
 11 31  1  0
 16 32  1  0
 18 33  1  0
 20 34  1  0
 21 35  1  0
 24 36  1  0
M  ISO  8  26  14  27  14  28  14  29  14  32  14  33  14  34  14  35  14
M  ISO  1  36  14
M  END
>  <minimizedAffinity>  (1) 
-5.6051321

>  <minimizedRMSD>  (1) 
0.276100099

$$$$
