
     RDKit          3D

 35 38  0  0  0  0  0  0  0  0999 V2000
   40.5430   29.5470   42.0080 C   0  0  0  0  0  0  0  0  0  0  0  0
   40.8530   30.7710   42.5840 C   0  0  0  0  0  0  0  0  0  0  0  0
   41.5100   31.7380   41.8340 C   0  0  0  0  0  0  0  0  0  0  0  0
   41.8310   31.4630   40.5710 N   0  0  0  0  0  0  0  0  0  0  0  0
   41.5400   30.2790   39.9940 C   0  0  0  0  0  0  0  0  0  0  0  0
   40.9050   29.3390   40.7050 N   0  0  0  0  0  0  0  0  0  0  0  0
   41.9250   30.0570   38.6040 C   0  0  0  0  0  0  0  0  0  0  0  0
   41.7090   28.8260   38.0160 C   0  0  0  0  0  0  0  0  0  0  0  0
   42.0820   28.6240   36.6830 C   0  0  0  0  0  0  0  0  0  0  0  0
   42.6680   29.6790   35.9790 C   0  0  0  0  0  0  0  0  0  0  0  0
   42.8760   30.9110   36.5850 C   0  0  0  0  0  0  0  0  0  0  0  0
   42.5040   31.1000   37.9020 C   0  0  0  0  0  0  0  0  0  0  0  0
   38.5570   28.2080   42.5860 C   0  0  0  0  0  0  0  0  0  0  0  0
   38.3630   27.0890   43.3860 C   0  0  0  0  0  0  0  0  0  0  0  0
   39.5150   26.6900   43.9370 N   0  0  0  0  0  0  0  0  0  0  0  0
   40.4420   27.5600   43.4820 C   0  0  0  0  0  0  0  0  0  0  0  0
   39.8790   28.4860   42.6630 N   0  0  0  0  0  0  0  0  0  0  0  0
   35.6050   28.7280   40.4330 C   0  0  0  0  0  0  0  0  0  0  0  0
   36.6140   28.0710   41.1460 C   0  0  0  0  0  0  0  0  0  0  0  0
   37.5200   28.8820   41.8530 C   0  0  0  0  0  0  0  0  0  0  0  0
   37.3620   30.2240   41.8000 N   0  0  0  0  0  0  0  0  0  0  0  0
   36.3620   30.8270   41.0920 C   0  0  0  0  0  0  0  0  0  0  0  0
   35.4900   30.0730   40.4120 N   0  0  0  0  0  0  0  0  0  0  0  0
   40.5796   30.9744   43.6299 H   0  0  0  0  0  0  0  0  0  0  0  0
   41.7608   32.7138   42.2754 H   0  0  0  0  0  0  0  0  0  0  0  0
   41.2470   28.0104   38.5917 H   0  0  0  0  0  0  0  0  0  0  0  0
   41.9167   27.6510   36.1973 H   0  0  0  0  0  0  0  0  0  0  0  0
   42.9685   29.5318   34.9311 H   0  0  0  0  0  0  0  0  0  0  0  0
   43.3356   31.7340   36.0181 H   0  0  0  0  0  0  0  0  0  0  0  0
   42.6668   32.0726   38.3894 H   0  0  0  0  0  0  0  0  0  0  0  0
   37.3922   26.5969   43.5451 H   0  0  0  0  0  0  0  0  0  0  0  0
   41.5107   27.5237   43.7401 H   0  0  0  0  0  0  0  0  0  0  0  0
   34.8780   28.1258   39.8683 H   0  0  0  0  0  0  0  0  0  0  0  0
   36.6947   26.9740   41.1532 H   0  0  0  0  0  0  0  0  0  0  0  0
   36.2739   31.9234   41.0807 H   0  0  0  0  0  0  0  0  0  0  0  0
  1  2  2  0
  1 17  1  0
  3  2  1  0
  4  3  2  0
  5  4  1  0
  5  6  2  0
  6  1  1  0
  7  5  1  0
  8  7  2  0
  9  8  1  0
 10 11  1  0
 10  9  2  0
 11 12  2  0
 12  7  1  0
 13 17  1  0
 13 14  2  0
 14 15  1  0
 16 15  2  0
 17 16  1  0
 18 19  2  0
 19 20  1  0
 20 13  1  0
 21 20  2  0
 22 21  1  0
 23 18  1  0
 23 22  2  0
  2 24  1  0
  3 25  1  0
  8 26  1  0
  9 27  1  0
 10 28  1  0
 11 29  1  0
 12 30  1  0
 14 31  1  0
 16 32  1  0
 18 33  1  0
 19 34  1  0
 22 35  1  0
M  ISO  8  24  14  25  14  26  14  27  14  28  14  29  14  30  14  31  14
M  ISO  4  32  14  33  14  34  14  35  14
M  END
>  <minimizedAffinity>  (1) 
-4.88635206

>  <minimizedRMSD>  (1) 
0.148983091

$$$$
