
     RDKit          3D

 32 35  0  0  0  0  0  0  0  0999 V2000
   38.5480   28.2140   42.6080 C   0  0  0  0  0  0  0  0  0  0  0  0
   38.3650   27.0980   43.4020 C   0  0  0  0  0  0  0  0  0  0  0  0
   39.5300   26.6940   43.9410 N   0  0  0  0  0  0  0  0  0  0  0  0
   40.4510   27.5630   43.4810 C   0  0  0  0  0  0  0  0  0  0  0  0
   39.8710   28.4860   42.6760 N   0  0  0  0  0  0  0  0  0  0  0  0
   35.5340   28.7320   40.5450 C   0  0  0  0  0  0  0  0  0  0  0  0
   36.5530   28.0710   41.2460 C   0  0  0  0  0  0  0  0  0  0  0  0
   37.5000   28.8930   41.8880 C   0  0  0  0  0  0  0  0  0  0  0  0
   37.3760   30.2300   41.7940 N   0  0  0  0  0  0  0  0  0  0  0  0
   36.3730   30.8370   41.1040 C   0  0  0  0  0  0  0  0  0  0  0  0
   35.4630   30.0800   40.4880 N   0  0  0  0  0  0  0  0  0  0  0  0
   40.5310   29.5530   42.0150 C   0  0  0  0  0  0  0  0  0  0  0  0
   40.9580   30.7290   42.6060 C   0  0  0  0  0  0  0  0  0  0  0  0
   41.5930   31.7050   41.8670 C   0  0  0  0  0  0  0  0  0  0  0  0
   41.7880   31.4820   40.5530 N   0  0  0  0  0  0  0  0  0  0  0  0
   41.3830   30.3490   39.9530 C   0  0  0  0  0  0  0  0  0  0  0  0
   40.7680   29.4110   40.6850 N   0  0  0  0  0  0  0  0  0  0  0  0
   41.6210   30.1630   38.5240 C   0  0  0  0  0  0  0  0  0  0  0  0
   42.5200   31.0020   37.8830 C   0  0  0  0  0  0  0  0  0  0  0  0
   42.5580   30.6120   36.5390 C   0  0  0  0  0  0  0  0  0  0  0  0
   41.6910   29.5640   36.4210 N   0  0  0  0  0  0  0  0  0  0  0  0
   41.1260   29.2880   37.6010 N   0  0  0  0  0  0  0  0  0  0  0  0
   37.3961   26.6054   43.5710 H   0  0  0  0  0  0  0  0  0  0  0  0
   41.5231   27.5282   43.7246 H   0  0  0  0  0  0  0  0  0  0  0  0
   34.7696   28.1351   40.0260 H   0  0  0  0  0  0  0  0  0  0  0  0
   36.6096   26.9734   41.2919 H   0  0  0  0  0  0  0  0  0  0  0  0
   36.3131   31.9343   41.0546 H   0  0  0  0  0  0  0  0  0  0  0  0
   40.7885   30.8878   43.6812 H   0  0  0  0  0  0  0  0  0  0  0  0
   41.9310   32.6400   42.3377 H   0  0  0  0  0  0  0  0  0  0  0  0
   43.0945   31.8193   38.3434 H   0  0  0  0  0  0  0  0  0  0  0  0
   43.1648   31.0602   35.7384 H   0  0  0  0  0  0  0  0  0  0  0  0
   41.4990   29.0568   35.5453 H   0  0  0  0  0  0  0  0  0  0  0  0
  1  5  1  0
  1  2  2  0
  2  3  1  0
  4  3  2  0
  5  4  1  0
  6  7  2  0
  7  8  1  0
  8  1  1  0
  9  8  2  0
 10  9  1  0
 11  6  1  0
 11 10  2  0
 12 13  2  0
 12  5  1  0
 14 13  1  0
 15 14  2  0
 16 15  1  0
 16 17  2  0
 17 12  1  0
 18 16  1  0
 19 18  1  0
 20 19  2  0
 21 20  1  0
 21 22  1  0
 22 18  2  0
  2 23  1  0
  4 24  1  0
  6 25  1  0
  7 26  1  0
 10 27  1  0
 13 28  1  0
 14 29  1  0
 19 30  1  0
 20 31  1  0
 21 32  1  0
M  ISO  8  23  14  24  14  25  14  26  14  27  14  28  14  29  14  30  14
M  ISO  2  31  14  32   9
M  END
>  <minimizedAffinity>  (1) 
-4.82262516

>  <minimizedRMSD>  (1) 
0.507074356

$$$$
