
     RDKit          3D

 24 25  0  0  0  0  0  0  0  0999 V2000
   37.5760   31.4220   40.7420 C   0  0  0  0  0  0  0  0  0  0  0  0
   38.4670   30.4200   41.2470 C   0  0  0  0  0  0  0  0  0  0  0  0
   39.7840   30.8320   41.4340 C   0  0  0  0  0  0  0  0  0  0  0  0
   40.1490   32.1160   41.1410 N   0  0  0  0  0  0  0  0  0  0  0  0
   39.2680   33.0040   40.6720 C   0  0  0  0  0  0  0  0  0  0  0  0
   38.0000   32.6660   40.4750 N   0  0  0  0  0  0  0  0  0  0  0  0
   39.6360   34.3500   40.3600 N   0  0  0  0  0  0  0  0  0  0  0  0
   40.8660   34.8200   40.1150 C   0  0  0  0  0  0  0  0  0  0  0  0
   40.7110   36.1880   39.8650 C   0  0  0  0  0  0  0  0  0  0  0  0
   39.3840   36.4770   39.9730 N   0  0  0  0  0  0  0  0  0  0  0  0
   38.7180   35.3470   40.2780 C   0  0  0  0  0  0  0  0  0  0  0  0
   37.9730   29.1130   41.5180 N   0  0  0  0  0  0  0  0  0  0  0  0
   37.1990   28.7850   42.6600 C   0  0  0  0  0  0  0  0  0  0  0  0
   37.5530   29.3630   43.7820 N   0  0  0  0  0  0  0  0  0  0  0  0
   36.1180   27.8520   42.4340 N   0  0  0  0  0  0  0  0  0  0  0  0
   37.0520   29.1860   44.6650 H   0  0  0  0  0  0  0  0  0  0  0  0
   36.5204   31.1651   40.5694 H   0  0  0  0  0  0  0  0  0  0  0  0
   40.5319   30.1227   41.8182 H   0  0  0  0  0  0  0  0  0  0  0  0
   41.8055   34.2479   40.1111 H   0  0  0  0  0  0  0  0  0  0  0  0
   41.5142   36.9003   39.6250 H   0  0  0  0  0  0  0  0  0  0  0  0
   37.6332   35.2499   40.4319 H   0  0  0  0  0  0  0  0  0  0  0  0
   38.1900   28.3628   40.8465 H   0  0  0  0  0  0  0  0  0  0  0  0
   35.5122   27.5663   43.2165 H   0  0  0  0  0  0  0  0  0  0  0  0
   35.9536   27.4730   41.4905 H   0  0  0  0  0  0  0  0  0  0  0  0
  1  2  2  0
  2  3  1  0
  2 12  1  0
  4  3  2  0
  5  4  1  0
  6  5  2  0
  6  1  1  0
  7  5  1  0
  8  7  1  0
  9 10  1  0
  9  8  2  0
 10 11  2  0
 11  7  1  0
 12 13  1  0
 13 14  2  0
 14 16  1  0
 15 13  1  0
  1 17  1  0
  3 18  1  0
  8 19  1  0
  9 20  1  0
 11 21  1  0
 12 22  1  0
 15 23  1  0
 15 24  1  0
M  ISO  5  17  14  18  14  19  14  20  14  21  14
M  END
>  <minimizedAffinity>  (1) 
-5.01583624

>  <minimizedRMSD>  (1) 
7.44996405

$$$$
