
     RDKit          3D

 33 36  0  0  0  0  0  0  0  0999 V2000
   38.6440   28.1400   42.6280 C   0  0  0  0  0  0  0  0  0  0  0  0
   38.4770   27.0180   43.4180 C   0  0  0  0  0  0  0  0  0  0  0  0
   39.6530   26.6330   43.9620 N   0  0  0  0  0  0  0  0  0  0  0  0
   40.5570   27.5270   43.5040 C   0  0  0  0  0  0  0  0  0  0  0  0
   39.9530   28.4350   42.7000 N   0  0  0  0  0  0  0  0  0  0  0  0
   35.6690   28.6040   40.5040 C   0  0  0  0  0  0  0  0  0  0  0  0
   36.6940   27.9650   41.2040 C   0  0  0  0  0  0  0  0  0  0  0  0
   37.5890   28.7980   41.9060 C   0  0  0  0  0  0  0  0  0  0  0  0
   37.4070   30.1330   41.8630 N   0  0  0  0  0  0  0  0  0  0  0  0
   36.3860   30.7090   41.1630 C   0  0  0  0  0  0  0  0  0  0  0  0
   35.5230   29.9390   40.4880 N   0  0  0  0  0  0  0  0  0  0  0  0
   40.6000   29.5230   42.0410 C   0  0  0  0  0  0  0  0  0  0  0  0
   40.9180   30.7430   42.6010 C   0  0  0  0  0  0  0  0  0  0  0  0
   41.5440   31.7210   41.8680 C   0  0  0  0  0  0  0  0  0  0  0  0
   41.8370   31.4540   40.5840 N   0  0  0  0  0  0  0  0  0  0  0  0
   41.5390   30.2670   40.0030 C   0  0  0  0  0  0  0  0  0  0  0  0
   40.9290   29.3340   40.7440 N   0  0  0  0  0  0  0  0  0  0  0  0
   41.8840   30.0360   38.6010 C   0  0  0  0  0  0  0  0  0  0  0  0
   42.4710   31.0730   37.8950 C   0  0  0  0  0  0  0  0  0  0  0  0
   42.7980   30.8580   36.5710 C   0  0  0  0  0  0  0  0  0  0  0  0
   42.5400   29.6520   36.0030 N   0  0  0  0  0  0  0  0  0  0  0  0
   41.9590   28.6580   36.7340 C   0  0  0  0  0  0  0  0  0  0  0  0
   41.6340   28.8580   38.0360 N   0  0  0  0  0  0  0  0  0  0  0  0
   37.5166   26.5073   43.5819 H   0  0  0  0  0  0  0  0  0  0  0  0
   41.6294   27.5187   43.7488 H   0  0  0  0  0  0  0  0  0  0  0  0
   34.9511   27.9885   39.9422 H   0  0  0  0  0  0  0  0  0  0  0  0
   36.7978   26.8699   41.2077 H   0  0  0  0  0  0  0  0  0  0  0  0
   36.2726   31.8031   41.1535 H   0  0  0  0  0  0  0  0  0  0  0  0
   40.6655   30.9359   43.6541 H   0  0  0  0  0  0  0  0  0  0  0  0
   41.7976   32.6923   42.3177 H   0  0  0  0  0  0  0  0  0  0  0  0
   42.6712   32.0417   38.3762 H   0  0  0  0  0  0  0  0  0  0  0  0
   43.2650   31.6593   35.9795 H   0  0  0  0  0  0  0  0  0  0  0  0
   41.7520   27.6854   36.2638 H   0  0  0  0  0  0  0  0  0  0  0  0
  1  5  1  0
  1  2  2  0
  2  3  1  0
  4  3  2  0
  5  4  1  0
  6  7  2  0
  7  8  1  0
  8  1  1  0
  9  8  2  0
 10  9  1  0
 11  6  1  0
 11 10  2  0
 12 13  2  0
 12  5  1  0
 14 13  1  0
 15 14  2  0
 16 15  1  0
 16 17  2  0
 17 12  1  0
 18 16  1  0
 19 18  2  0
 20 19  1  0
 21 20  2  0
 21 22  1  0
 22 23  2  0
 23 18  1  0
  2 24  1  0
  4 25  1  0
  6 26  1  0
  7 27  1  0
 10 28  1  0
 13 29  1  0
 14 30  1  0
 19 31  1  0
 20 32  1  0
 22 33  1  0
M  ISO  8  24  14  25  14  26  14  27  14  28  14  29  14  30  14  31  14
M  ISO  2  32  14  33  14
M  END
>  <minimizedAffinity>  (1) 
-4.80426407

>  <minimizedRMSD>  (1) 
0.418325961

$$$$
