
     RDKit          3D

 32 35  0  0  0  0  0  0  0  0999 V2000
   38.5550   28.2170   42.5590 C   0  0  0  0  0  0  0  0  0  0  0  0
   38.3670   27.0940   43.3460 C   0  0  0  0  0  0  0  0  0  0  0  0
   39.5220   26.6960   43.8960 N   0  0  0  0  0  0  0  0  0  0  0  0
   40.4470   27.5770   43.4510 C   0  0  0  0  0  0  0  0  0  0  0  0
   39.8620   28.5000   42.6410 N   0  0  0  0  0  0  0  0  0  0  0  0
   35.5800   28.7280   40.4220 C   0  0  0  0  0  0  0  0  0  0  0  0
   36.6000   28.0730   41.1270 C   0  0  0  0  0  0  0  0  0  0  0  0
   37.5040   28.8870   41.8320 C   0  0  0  0  0  0  0  0  0  0  0  0
   37.3450   30.2350   41.7940 N   0  0  0  0  0  0  0  0  0  0  0  0
   36.3370   30.8330   41.0940 C   0  0  0  0  0  0  0  0  0  0  0  0
   35.4600   30.0630   40.4100 N   0  0  0  0  0  0  0  0  0  0  0  0
   40.5270   29.5790   41.9920 C   0  0  0  0  0  0  0  0  0  0  0  0
   40.8790   30.7780   42.5840 C   0  0  0  0  0  0  0  0  0  0  0  0
   41.5220   31.7530   41.8550 C   0  0  0  0  0  0  0  0  0  0  0  0
   41.7950   31.5090   40.5600 N   0  0  0  0  0  0  0  0  0  0  0  0
   41.4590   30.3490   39.9670 C   0  0  0  0  0  0  0  0  0  0  0  0
   40.8350   29.4110   40.6870 N   0  0  0  0  0  0  0  0  0  0  0  0
   41.7750   30.1290   38.5570 C   0  0  0  0  0  0  0  0  0  0  0  0
   41.5530   28.9620   37.8550 C   0  0  0  0  0  0  0  0  0  0  0  0
   42.0150   29.2550   36.5880 C   0  0  0  0  0  0  0  0  0  0  0  0
   42.4900   30.5440   36.5470 C   0  0  0  0  0  0  0  0  0  0  0  0
   42.3180   31.0080   37.7500 O   0  0  0  0  0  0  0  0  0  0  0  0
   37.3987   26.5950   43.4994 H   0  0  0  0  0  0  0  0  0  0  0  0
   41.5165   27.5508   43.7069 H   0  0  0  0  0  0  0  0  0  0  0  0
   34.8526   28.1249   39.8589 H   0  0  0  0  0  0  0  0  0  0  0  0
   36.6885   26.9766   41.1284 H   0  0  0  0  0  0  0  0  0  0  0  0
   36.2390   31.9286   41.0863 H   0  0  0  0  0  0  0  0  0  0  0  0
   40.6438   30.9539   43.6441 H   0  0  0  0  0  0  0  0  0  0  0  0
   41.8058   32.7086   42.3200 H   0  0  0  0  0  0  0  0  0  0  0  0
   41.1126   28.0219   38.2187 H   0  0  0  0  0  0  0  0  0  0  0  0
   42.0046   28.5591   35.7361 H   0  0  0  0  0  0  0  0  0  0  0  0
   42.9224   31.0700   35.6831 H   0  0  0  0  0  0  0  0  0  0  0  0
  1  5  1  0
  1  2  2  0
  2  3  1  0
  4  3  2  0
  5  4  1  0
  6  7  2  0
  7  8  1  0
  8  1  1  0
  9  8  2  0
 10  9  1  0
 11  6  1  0
 11 10  2  0
 12 13  2  0
 12  5  1  0
 14 13  1  0
 15 14  2  0
 16 15  1  0
 16 17  2  0
 17 12  1  0
 18 16  1  0
 19 18  2  0
 20 19  1  0
 21 20  2  0
 21 22  1  0
 22 18  1  0
  2 23  1  0
  4 24  1  0
  6 25  1  0
  7 26  1  0
 10 27  1  0
 13 28  1  0
 14 29  1  0
 19 30  1  0
 20 31  1  0
 21 32  1  0
M  ISO  8  23  14  24  14  25  14  26  14  27  14  28  14  29  14  30  14
M  ISO  2  31  14  32  14
M  END
>  <minimizedAffinity>  (1) 
-4.63880014

>  <minimizedRMSD>  (1) 
0.202121064

$$$$
