
     RDKit          3D

 32 35  0  0  0  0  0  0  0  0999 V2000
   38.5330   28.2240   42.5460 C   0  0  0  0  0  0  0  0  0  0  0  0
   38.3650   27.0880   43.3230 C   0  0  0  0  0  0  0  0  0  0  0  0
   39.5330   26.7020   43.8710 N   0  0  0  0  0  0  0  0  0  0  0  0
   40.4340   27.6030   43.4360 C   0  0  0  0  0  0  0  0  0  0  0  0
   39.8410   28.5180   42.6400 N   0  0  0  0  0  0  0  0  0  0  0  0
   35.5660   28.7060   40.4010 C   0  0  0  0  0  0  0  0  0  0  0  0
   36.5950   28.0570   41.1120 C   0  0  0  0  0  0  0  0  0  0  0  0
   37.4860   28.8910   41.8230 C   0  0  0  0  0  0  0  0  0  0  0  0
   37.3070   30.2260   41.7810 N   0  0  0  0  0  0  0  0  0  0  0  0
   36.2970   30.8160   41.0800 C   0  0  0  0  0  0  0  0  0  0  0  0
   35.4380   30.0360   40.3960 N   0  0  0  0  0  0  0  0  0  0  0  0
   40.4960   29.6190   42.0030 C   0  0  0  0  0  0  0  0  0  0  0  0
   40.8310   30.8150   42.6010 C   0  0  0  0  0  0  0  0  0  0  0  0
   41.4610   31.7980   41.8770 C   0  0  0  0  0  0  0  0  0  0  0  0
   41.7430   31.5770   40.5900 N   0  0  0  0  0  0  0  0  0  0  0  0
   41.4300   30.4190   39.9740 C   0  0  0  0  0  0  0  0  0  0  0  0
   40.8140   29.4670   40.6910 N   0  0  0  0  0  0  0  0  0  0  0  0
   41.7060   30.1100   38.5760 C   0  0  0  0  0  0  0  0  0  0  0  0
   42.1420   31.0800   37.7010 C   0  0  0  0  0  0  0  0  0  0  0  0
   42.3160   30.5300   36.4990 N   0  0  0  0  0  0  0  0  0  0  0  0
   41.9880   29.2340   36.6420 C   0  0  0  0  0  0  0  0  0  0  0  0
   41.6070   28.9450   37.9140 N   0  0  0  0  0  0  0  0  0  0  0  0
   37.4056   26.5710   43.4720 H   0  0  0  0  0  0  0  0  0  0  0  0
   41.5035   27.5947   43.6932 H   0  0  0  0  0  0  0  0  0  0  0  0
   34.8459   28.0990   39.8326 H   0  0  0  0  0  0  0  0  0  0  0  0
   36.6986   26.9619   41.1132 H   0  0  0  0  0  0  0  0  0  0  0  0
   36.1857   31.9103   41.0733 H   0  0  0  0  0  0  0  0  0  0  0  0
   40.5930   30.9829   43.6617 H   0  0  0  0  0  0  0  0  0  0  0  0
   41.7295   32.7539   42.3505 H   0  0  0  0  0  0  0  0  0  0  0  0
   42.3180   32.1362   37.9527 H   0  0  0  0  0  0  0  0  0  0  0  0
   42.0238   28.4961   35.8270 H   0  0  0  0  0  0  0  0  0  0  0  0
   41.3080   28.0332   38.2884 H   0  0  0  0  0  0  0  0  0  0  0  0
  1  5  1  0
  1  2  2  0
  2  3  1  0
  4  3  2  0
  5  4  1  0
  6  7  2  0
  7  8  1  0
  8  1  1  0
  9  8  2  0
 10  9  1  0
 11  6  1  0
 11 10  2  0
 12 13  2  0
 12  5  1  0
 14 13  1  0
 15 14  2  0
 16 15  1  0
 16 17  2  0
 17 12  1  0
 18 16  1  0
 19 18  2  0
 20 21  2  0
 20 19  1  0
 21 22  1  0
 22 18  1  0
  2 23  1  0
  4 24  1  0
  6 25  1  0
  7 26  1  0
 10 27  1  0
 13 28  1  0
 14 29  1  0
 19 30  1  0
 21 31  1  0
 22 32  1  0
M  ISO  8  23  14  24  14  25  14  26  14  27  14  28  14  29  14  30  14
M  ISO  2  31  14  32   9
M  END
>  <minimizedAffinity>  (1) 
-4.58970165

>  <minimizedRMSD>  (1) 
0.3169052

$$$$
