
     RDKit          3D

 31 34  0  0  0  0  0  0  0  0999 V2000
   38.6460   28.1390   42.6380 C   0  0  0  0  0  0  0  0  0  0  0  0
   38.4650   27.0100   43.4300 C   0  0  0  0  0  0  0  0  0  0  0  0
   39.6450   26.6280   43.9800 N   0  0  0  0  0  0  0  0  0  0  0  0
   40.5490   27.5190   43.5290 C   0  0  0  0  0  0  0  0  0  0  0  0
   39.9520   28.4290   42.7210 N   0  0  0  0  0  0  0  0  0  0  0  0
   35.6720   28.5970   40.4890 C   0  0  0  0  0  0  0  0  0  0  0  0
   36.7010   27.9650   41.2010 C   0  0  0  0  0  0  0  0  0  0  0  0
   37.6040   28.7920   41.9200 C   0  0  0  0  0  0  0  0  0  0  0  0
   37.4030   30.1320   41.8650 N   0  0  0  0  0  0  0  0  0  0  0  0
   36.3950   30.7140   41.1660 C   0  0  0  0  0  0  0  0  0  0  0  0
   35.5320   29.9420   40.4800 N   0  0  0  0  0  0  0  0  0  0  0  0
   40.6060   29.5180   42.0670 C   0  0  0  0  0  0  0  0  0  0  0  0
   40.9090   30.7310   42.6290 C   0  0  0  0  0  0  0  0  0  0  0  0
   41.5460   31.7150   41.8990 C   0  0  0  0  0  0  0  0  0  0  0  0
   41.8580   31.4500   40.6300 N   0  0  0  0  0  0  0  0  0  0  0  0
   41.5740   30.2690   40.0470 C   0  0  0  0  0  0  0  0  0  0  0  0
   40.9570   29.3310   40.7740 N   0  0  0  0  0  0  0  0  0  0  0  0
   41.9110   29.9520   38.6380 C   0  0  0  0  0  0  0  0  0  0  0  0
   41.9910   28.6210   38.1100 C   0  0  0  0  0  0  0  0  0  0  0  0
   42.4190   28.9270   36.4270 S   0  0  0  0  0  0  0  0  0  0  0  0
   42.4390   30.8110   36.6440 C   0  0  0  0  0  0  0  0  0  0  0  0
   42.1460   30.9780   37.8480 N   0  0  0  0  0  0  0  0  0  0  0  0
   37.5032   26.5000   43.5878 H   0  0  0  0  0  0  0  0  0  0  0  0
   41.6198   27.5095   43.7807 H   0  0  0  0  0  0  0  0  0  0  0  0
   34.9584   27.9815   39.9217 H   0  0  0  0  0  0  0  0  0  0  0  0
   36.8050   26.8699   41.2026 H   0  0  0  0  0  0  0  0  0  0  0  0
   36.2845   31.8084   41.1604 H   0  0  0  0  0  0  0  0  0  0  0  0
   40.6405   30.9236   43.6782 H   0  0  0  0  0  0  0  0  0  0  0  0
   41.7887   32.6881   42.3508 H   0  0  0  0  0  0  0  0  0  0  0  0
   41.8280   27.6607   38.6211 H   0  0  0  0  0  0  0  0  0  0  0  0
   42.6575   31.5783   35.8867 H   0  0  0  0  0  0  0  0  0  0  0  0
  1  5  1  0
  1  2  2  0
  2  3  1  0
  4  3  2  0
  5  4  1  0
  6  7  2  0
  7  8  1  0
  8  1  1  0
  9  8  2  0
 10  9  1  0
 11  6  1  0
 11 10  2  0
 12 13  2  0
 12  5  1  0
 14 13  1  0
 15 14  2  0
 16 15  1  0
 16 17  2  0
 17 12  1  0
 18 16  1  0
 19 18  2  0
 20 21  1  0
 20 19  1  0
 21 22  2  0
 22 18  1  0
  2 23  1  0
  4 24  1  0
  6 25  1  0
  7 26  1  0
 10 27  1  0
 13 28  1  0
 14 29  1  0
 19 30  1  0
 21 31  1  0
M  ISO  8  23  14  24  14  25  14  26  14  27  14  28  14  29  14  30  14
M  ISO  1  31  14
M  END
>  <minimizedAffinity>  (1) 
-4.57903051

>  <minimizedRMSD>  (1) 
0.211070895

$$$$
