
     RDKit          3D

 37 39  0  0  0  0  0  0  0  0999 V2000
   38.6000   28.2160   42.4860 C   0  0  0  0  0  0  0  0  0  0  0  0
   38.5090   27.1000   43.2900 C   0  0  0  0  0  0  0  0  0  0  0  0
   39.7030   26.8130   43.8580 N   0  0  0  0  0  0  0  0  0  0  0  0
   40.5430   27.7670   43.3960 C   0  0  0  0  0  0  0  0  0  0  0  0
   39.8890   28.6140   42.5710 N   0  0  0  0  0  0  0  0  0  0  0  0
   35.7350   28.4670   40.1780 C   0  0  0  0  0  0  0  0  0  0  0  0
   36.8030   27.9120   40.9030 C   0  0  0  0  0  0  0  0  0  0  0  0
   37.5130   28.7760   41.7470 C   0  0  0  0  0  0  0  0  0  0  0  0
   37.1240   30.0790   41.8060 N   0  0  0  0  0  0  0  0  0  0  0  0
   36.0820   30.5810   41.0890 C   0  0  0  0  0  0  0  0  0  0  0  0
   35.3910   29.7550   40.2720 N   0  0  0  0  0  0  0  0  0  0  0  0
   40.4540   29.7340   41.9060 C   0  0  0  0  0  0  0  0  0  0  0  0
   41.2100   30.7360   42.4980 C   0  0  0  0  0  0  0  0  0  0  0  0
   41.7100   31.7830   41.7460 C   0  0  0  0  0  0  0  0  0  0  0  0
   41.4520   31.8090   40.4380 N   0  0  0  0  0  0  0  0  0  0  0  0
   40.7180   30.8480   39.8330 C   0  0  0  0  0  0  0  0  0  0  0  0
   40.2350   29.8360   40.5650 N   0  0  0  0  0  0  0  0  0  0  0  0
   40.3910   30.8210   38.3690 C   0  0  0  0  0  0  0  0  0  0  0  0
   40.4690   32.2210   37.7710 C   0  0  0  0  0  0  0  0  0  0  0  0
   38.9770   30.3190   38.1650 C   0  0  0  0  0  0  0  0  0  0  0  0
   41.3890   29.9770   37.6060 C   0  0  0  0  0  0  0  0  0  0  0  0
   37.5880   26.5198   43.4487 H   0  0  0  0  0  0  0  0  0  0  0  0
   41.6093   27.8428   43.6555 H   0  0  0  0  0  0  0  0  0  0  0  0
   35.1585   27.8147   39.5056 H   0  0  0  0  0  0  0  0  0  0  0  0
   37.0693   26.8486   40.8122 H   0  0  0  0  0  0  0  0  0  0  0  0
   35.8063   31.6426   41.1730 H   0  0  0  0  0  0  0  0  0  0  0  0
   41.4138   30.6968   43.5782 H   0  0  0  0  0  0  0  0  0  0  0  0
   42.3078   32.5775   42.2166 H   0  0  0  0  0  0  0  0  0  0  0  0
   40.5104   32.9640   38.5811 H   0  0  0  0  0  0  0  0  0  0  0  0
   41.3732   32.3047   37.1502 H   0  0  0  0  0  0  0  0  0  0  0  0
   39.5797   32.4046   37.1502 H   0  0  0  0  0  0  0  0  0  0  0  0
   38.5030   30.1507   39.1432 H   0  0  0  0  0  0  0  0  0  0  0  0
   38.4000   31.0672   37.6018 H   0  0  0  0  0  0  0  0  0  0  0  0
   39.0009   29.3744   37.6018 H   0  0  0  0  0  0  0  0  0  0  0  0
   42.0300   29.4349   38.3168 H   0  0  0  0  0  0  0  0  0  0  0  0
   40.8512   29.2555   36.9733 H   0  0  0  0  0  0  0  0  0  0  0  0
   42.0111   30.6271   36.9733 H   0  0  0  0  0  0  0  0  0  0  0  0
  1  5  1  0
  1  2  2  0
  2  3  1  0
  4  3  2  0
  5  4  1  0
  6 11  2  0
  6  7  1  0
  7  8  2  0
  8  9  1  0
  8  1  1  0
 10  9  2  0
 11 10  1  0
 12 13  2  0
 12  5  1  0
 14 13  1  0
 15 14  2  0
 16 15  1  0
 16 17  2  0
 17 12  1  0
 18 16  1  0
 19 18  1  0
 20 18  1  0
 21 18  1  0
  2 22  1  0
  4 23  1  0
  6 24  1  0
  7 25  1  0
 10 26  1  0
 13 27  1  0
 14 28  1  0
 19 29  1  0
 19 30  1  0
 19 31  1  0
 20 32  1  0
 20 33  1  0
 20 34  1  0
 21 35  1  0
 21 36  1  0
 21 37  1  0
M  ISO  8  22  14  23  14  24  14  25  14  26  14  27  14  28  14  29   8
M  ISO  8  30   8  31   8  32   8  33   8  34   8  35   8  36   8  37   8
M  END
>  <minimizedAffinity>  (1) 
-4.50837278

>  <minimizedRMSD>  (1) 
0.996085644

$$$$
