
     RDKit          3D

 29 30  0  0  0  0  0  0  0  0999 V2000
   40.9610   31.7490   40.5370 C   0  0  0  0  0  0  0  0  0  0  0  0
   40.7250   32.9550   39.7990 C   0  0  0  0  0  0  0  0  0  0  0  0
   39.3910   33.2510   39.5960 C   0  0  0  0  0  0  0  0  0  0  0  0
   38.4090   32.4240   40.0830 N   0  0  0  0  0  0  0  0  0  0  0  0
   38.6990   31.3140   40.7660 C   0  0  0  0  0  0  0  0  0  0  0  0
   39.9620   30.9780   40.9900 N   0  0  0  0  0  0  0  0  0  0  0  0
   37.6290   30.5050   41.2410 N   0  0  0  0  0  0  0  0  0  0  0  0
   36.2080   30.7430   41.0730 C   0  0  0  0  0  0  0  0  0  0  0  0
   35.5820   29.3970   40.7690 C   0  0  0  0  0  0  0  0  0  0  0  0
   36.4800   28.4590   41.5610 C   0  0  0  0  0  0  0  0  0  0  0  0
   37.6810   29.2670   41.9960 C   0  0  0  0  0  0  0  0  0  0  0  0
   41.8240   33.7160   39.3510 N   0  0  0  0  0  0  0  0  0  0  0  0
   42.0460   34.0990   38.0000 C   0  0  0  0  0  0  0  0  0  0  0  0
   41.7430   33.1890   37.0990 N   0  0  0  0  0  0  0  0  0  0  0  0
   42.5710   35.4290   37.8060 N   0  0  0  0  0  0  0  0  0  0  0  0
   41.8630   33.3800   36.0920 H   0  0  0  0  0  0  0  0  0  0  0  0
   41.9988   31.4452   40.7389 H   0  0  0  0  0  0  0  0  0  0  0  0
   39.1128   34.1578   39.0389 H   0  0  0  0  0  0  0  0  0  0  0  0
   35.7806   31.1616   41.9961 H   0  0  0  0  0  0  0  0  0  0  0  0
   36.0172   31.4635   40.2640 H   0  0  0  0  0  0  0  0  0  0  0  0
   34.5410   29.3493   41.1212 H   0  0  0  0  0  0  0  0  0  0  0  0
   35.5231   29.1619   39.6960 H   0  0  0  0  0  0  0  0  0  0  0  0
   35.9435   28.0745   42.4410 H   0  0  0  0  0  0  0  0  0  0  0  0
   36.7851   27.5962   40.9507 H   0  0  0  0  0  0  0  0  0  0  0  0
   38.6095   28.7217   41.7713 H   0  0  0  0  0  0  0  0  0  0  0  0
   37.6664   29.4565   43.0794 H   0  0  0  0  0  0  0  0  0  0  0  0
   42.5157   34.0160   40.0528 H   0  0  0  0  0  0  0  0  0  0  0  0
   42.7570   35.7754   36.8540 H   0  0  0  0  0  0  0  0  0  0  0  0
   42.7597   36.0319   38.6195 H   0  0  0  0  0  0  0  0  0  0  0  0
  1  6  2  0
  2  1  1  0
  3  2  2  0
  3  4  1  0
  4  5  2  0
  5  6  1  0
  5  7  1  0
  7 11  1  0
  8  7  1  0
  9  8  1  0
  9 10  1  0
 10 11  1  0
 12  2  1  0
 13 12  1  0
 14 13  2  0
 15 13  1  0
 16 14  1  0
  1 17  1  0
  3 18  1  0
  8 19  1  0
  8 20  1  0
  9 21  1  0
  9 22  1  0
 10 23  1  0
 10 24  1  0
 11 25  1  0
 11 26  1  0
 12 27  1  0
 15 28  1  0
 15 29  1  0
M  ISO  8  17  14  18  14  19  13  20  13  21  13  22  13  23  13  24  13
M  ISO  2  25  13  26  13
M  END
>  <minimizedAffinity>  (1) 
-4.97793627

>  <minimizedRMSD>  (1) 
5.93607092

$$$$
