
     RDKit          3D

 26 28  0  0  0  0  0  0  0  0999 V2000
   38.5760   28.1530   42.6150 C   0  0  0  0  0  0  0  0  0  0  0  0
   38.3890   27.0430   43.4250 C   0  0  0  0  0  0  0  0  0  0  0  0
   39.5560   26.6610   43.9860 N   0  0  0  0  0  0  0  0  0  0  0  0
   40.4720   27.5360   43.5230 C   0  0  0  0  0  0  0  0  0  0  0  0
   39.8780   28.4420   42.6920 N   0  0  0  0  0  0  0  0  0  0  0  0
   35.6150   28.6230   40.4630 C   0  0  0  0  0  0  0  0  0  0  0  0
   36.6350   27.9760   41.1700 C   0  0  0  0  0  0  0  0  0  0  0  0
   37.5200   28.7960   41.8820 C   0  0  0  0  0  0  0  0  0  0  0  0
   37.3380   30.1500   41.8460 N   0  0  0  0  0  0  0  0  0  0  0  0
   36.3270   30.7270   41.1400 C   0  0  0  0  0  0  0  0  0  0  0  0
   35.4660   29.9510   40.4490 N   0  0  0  0  0  0  0  0  0  0  0  0
   40.5390   29.5130   42.0210 C   0  0  0  0  0  0  0  0  0  0  0  0
   40.8500   30.7390   42.5740 C   0  0  0  0  0  0  0  0  0  0  0  0
   41.4950   31.6930   41.8100 C   0  0  0  0  0  0  0  0  0  0  0  0
   41.8030   31.4010   40.5440 N   0  0  0  0  0  0  0  0  0  0  0  0
   41.5100   30.2120   39.9860 C   0  0  0  0  0  0  0  0  0  0  0  0
   40.8840   29.2790   40.7200 N   0  0  0  0  0  0  0  0  0  0  0  0
   41.9920   29.9830   38.2820 S   0  0  0  0  0  0  0  0  0  0  0  0
   37.4230   26.5428   43.5879 H   0  0  0  0  0  0  0  0  0  0  0  0
   41.5420   27.5218   43.7778 H   0  0  0  0  0  0  0  0  0  0  0  0
   34.9025   28.0096   39.8920 H   0  0  0  0  0  0  0  0  0  0  0  0
   36.7365   26.8807   41.1668 H   0  0  0  0  0  0  0  0  0  0  0  0
   36.2125   31.8210   41.1329 H   0  0  0  0  0  0  0  0  0  0  0  0
   40.5853   30.9559   43.6194 H   0  0  0  0  0  0  0  0  0  0  0  0
   41.7498   32.6743   42.2367 H   0  0  0  0  0  0  0  0  0  0  0  0
   43.2286   29.3955   38.2322 H   0  0  0  0  0  0  0  0  0  0  0  0
  1  5  1  0
  1  2  2  0
  2  3  1  0
  4  3  2  0
  5  4  1  0
  6  7  2  0
  7  8  1  0
  8  1  1  0
  9  8  2  0
 10  9  1  0
 11  6  1  0
 11 10  2  0
 12 13  2  0
 12  5  1  0
 14 13  1  0
 15 14  2  0
 16 15  1  0
 16 17  2  0
 17 12  1  0
 18 16  1  0
  2 19  1  0
  4 20  1  0
  6 21  1  0
  7 22  1  0
 10 23  1  0
 13 24  1  0
 14 25  1  0
 18 26  1  0
M  ISO  8  19  14  20  14  21  14  22  14  23  14  24  14  25  14  26  11
M  END
>  <minimizedAffinity>  (1) 
-4.1793623

>  <minimizedRMSD>  (1) 
0.0267638043

$$$$
