
     RDKit          3D

 27 29  0  0  0  0  0  0  0  0999 V2000
   38.5390   28.2050   42.6160 C   0  0  0  0  0  0  0  0  0  0  0  0
   38.3590   27.0950   43.4120 C   0  0  0  0  0  0  0  0  0  0  0  0
   39.5140   26.6910   43.9560 N   0  0  0  0  0  0  0  0  0  0  0  0
   40.4450   27.5650   43.4930 C   0  0  0  0  0  0  0  0  0  0  0  0
   39.8510   28.4780   42.6850 N   0  0  0  0  0  0  0  0  0  0  0  0
   35.5360   28.7220   40.5350 C   0  0  0  0  0  0  0  0  0  0  0  0
   36.5580   28.0660   41.2410 C   0  0  0  0  0  0  0  0  0  0  0  0
   37.4920   28.8800   41.8920 C   0  0  0  0  0  0  0  0  0  0  0  0
   37.3570   30.2190   41.8050 N   0  0  0  0  0  0  0  0  0  0  0  0
   36.3570   30.8220   41.1130 C   0  0  0  0  0  0  0  0  0  0  0  0
   35.4450   30.0620   40.4770 N   0  0  0  0  0  0  0  0  0  0  0  0
   40.5210   29.5520   42.0180 C   0  0  0  0  0  0  0  0  0  0  0  0
   40.9100   30.7390   42.5900 C   0  0  0  0  0  0  0  0  0  0  0  0
   41.5500   31.7030   41.8450 C   0  0  0  0  0  0  0  0  0  0  0  0
   41.7850   31.4580   40.5530 N   0  0  0  0  0  0  0  0  0  0  0  0
   41.4130   30.3020   39.9630 C   0  0  0  0  0  0  0  0  0  0  0  0
   40.7930   29.3750   40.6970 N   0  0  0  0  0  0  0  0  0  0  0  0
   41.6500   30.0010   38.5680 C   0  0  0  0  0  0  0  0  0  0  0  0
   40.9440   30.4240   37.6210 O   0  0  0  0  0  0  0  0  0  0  0  0
   37.3895   26.6030   43.5794 H   0  0  0  0  0  0  0  0  0  0  0  0
   41.5174   27.5366   43.7363 H   0  0  0  0  0  0  0  0  0  0  0  0
   34.7822   28.1168   40.0101 H   0  0  0  0  0  0  0  0  0  0  0  0
   36.6210   26.9685   41.2802 H   0  0  0  0  0  0  0  0  0  0  0  0
   36.2922   31.9193   41.0721 H   0  0  0  0  0  0  0  0  0  0  0  0
   40.7076   30.9210   43.6558 H   0  0  0  0  0  0  0  0  0  0  0  0
   41.8609   32.6536   42.3030 H   0  0  0  0  0  0  0  0  0  0  0  0
   42.5073   29.3576   38.3208 H   0  0  0  0  0  0  0  0  0  0  0  0
  1  5  1  0
  1  2  2  0
  2  3  1  0
  4  3  2  0
  5  4  1  0
  6  7  2  0
  7  8  1  0
  8  1  1  0
  9  8  2  0
 10  9  1  0
 11  6  1  0
 11 10  2  0
 12 13  2  0
 12  5  1  0
 14 13  1  0
 15 14  2  0
 16 15  1  0
 16 17  2  0
 17 12  1  0
 18 16  1  0
 19 18  2  0
  2 20  1  0
  4 21  1  0
  6 22  1  0
  7 23  1  0
 10 24  1  0
 13 25  1  0
 14 26  1  0
 18 27  1  0
M  ISO  8  20  14  21  14  22  14  23  14  24  14  25  14  26  14  27   6
M  END
>  <minimizedAffinity>  (1) 
-4.13621616

>  <minimizedRMSD>  (1) 
0.358611971

$$$$
