
     RDKit          3D

 32 35  0  0  0  0  0  0  0  0999 V2000
   37.1350   29.9190   40.1600 C   0  0  0  0  0  0  0  0  0  0  0  0
   37.5300   31.2420   40.0500 C   0  0  0  0  0  0  0  0  0  0  0  0
   37.4660   31.8270   38.8070 C   0  0  0  0  0  0  0  0  0  0  0  0
   37.0330   31.1420   37.7180 N   0  0  0  0  0  0  0  0  0  0  0  0
   36.6510   29.8390   37.8610 C   0  0  0  0  0  0  0  0  0  0  0  0
   36.7100   29.2540   39.0790 N   0  0  0  0  0  0  0  0  0  0  0  0
   36.2000   29.1330   36.7140 N   0  0  0  0  0  0  0  0  0  0  0  0
   36.9610   28.6870   35.7090 C   0  0  0  0  0  0  0  0  0  0  0  0
   36.2200   28.0580   34.7790 N   0  0  0  0  0  0  0  0  0  0  0  0
   34.9280   28.0930   35.1890 C   0  0  0  0  0  0  0  0  0  0  0  0
   33.7930   27.5920   34.5940 C   0  0  0  0  0  0  0  0  0  0  0  0
   33.8930   26.9940   33.4930 O   0  0  0  0  0  0  0  0  0  0  0  0
   32.6530   27.7890   35.2530 N   0  0  0  0  0  0  0  0  0  0  0  0
   32.6210   28.4450   36.4400 C   0  0  0  0  0  0  0  0  0  0  0  0
   31.3240   28.5710   37.0120 N   0  0  0  0  0  0  0  0  0  0  0  0
   33.7680   28.9260   36.9950 N   0  0  0  0  0  0  0  0  0  0  0  0
   34.9580   28.7670   36.3910 C   0  0  0  0  0  0  0  0  0  0  0  0
   38.0470   29.0820   43.6070 C   0  0  0  0  0  0  0  0  0  0  0  0
   37.2450   27.9540   43.8800 C   0  0  0  0  0  0  0  0  0  0  0  0
   36.4100   27.5130   42.8650 C   0  0  0  0  0  0  0  0  0  0  0  0
   36.3980   28.1770   41.6640 N   0  0  0  0  0  0  0  0  0  0  0  0
   37.1820   29.2480   41.4520 C   0  0  0  0  0  0  0  0  0  0  0  0
   37.9990   29.6960   42.4150 N   0  0  0  0  0  0  0  0  0  0  0  0
   37.8827   31.8053   40.9265 H   0  0  0  0  0  0  0  0  0  0  0  0
   37.7736   32.8769   38.6923 H   0  0  0  0  0  0  0  0  0  0  0  0
   38.0517   28.8175   35.6503 H   0  0  0  0  0  0  0  0  0  0  0  0
   31.7733   27.4344   34.8515 H   0  0  0  0  0  0  0  0  0  0  0  0
   31.2034   29.0548   37.9133 H   0  0  0  0  0  0  0  0  0  0  0  0
   30.5059   28.1784   36.5247 H   0  0  0  0  0  0  0  0  0  0  0  0
   38.7237   29.4649   44.3851 H   0  0  0  0  0  0  0  0  0  0  0  0
   37.2806   27.4467   44.8554 H   0  0  0  0  0  0  0  0  0  0  0  0
   35.7622   26.6378   43.0210 H   0  0  0  0  0  0  0  0  0  0  0  0
  1 22  1  0
  2  1  2  0
  3  2  1  0
  4  5  1  0
  4  3  2  0
  5  6  2  0
  6  1  1  0
  7  5  1  0
  8  7  1  0
  9 10  1  0
  9  8  2  0
 10 17  2  0
 11 10  1  0
 11 13  1  0
 12 11  2  0
 13 14  1  0
 14 16  2  0
 14 15  1  0
 17  7  1  0
 17 16  1  0
 18 19  2  0
 20 19  1  0
 21 20  2  0
 22 21  1  0
 22 23  2  0
 23 18  1  0
  2 24  1  0
  3 25  1  0
  8 26  1  0
 13 27  1  0
 15 28  1  0
 15 29  1  0
 18 30  1  0
 19 31  1  0
 20 32  1  0
M  ISO  7  24  14  25  14  26  14  27   9  30  14  31  14  32  14
M  END
>  <minimizedAffinity>  (1) 
-5.1565752

>  <minimizedRMSD>  (1) 
1.98735988

$$$$
