
     RDKit          3D

 25 26  0  0  0  0  0  0  0  0999 V2000
   37.3180   30.6330   40.2070 C   0  0  0  0  0  0  0  0  0  0  0  0
   37.1840   31.9710   40.4680 C   0  0  0  0  0  0  0  0  0  0  0  0
   37.2310   32.8160   39.3720 C   0  0  0  0  0  0  0  0  0  0  0  0
   37.3970   32.3660   38.1130 N   0  0  0  0  0  0  0  0  0  0  0  0
   37.5270   31.0280   37.8890 C   0  0  0  0  0  0  0  0  0  0  0  0
   37.4850   30.1780   38.9520 N   0  0  0  0  0  0  0  0  0  0  0  0
   37.7060   30.5060   36.5730 N   0  0  0  0  0  0  0  0  0  0  0  0
   36.9720   29.3680   36.1240 C   0  0  0  0  0  0  0  0  0  0  0  0
   35.7640   29.2280   36.5760 N   0  0  0  0  0  0  0  0  0  0  0  0
   37.6270   28.4710   35.2130 N   0  0  0  0  0  0  0  0  0  0  0  0
   35.1610   28.4240   36.2980 H   0  0  0  0  0  0  0  0  0  0  0  0
   38.0680   28.9420   43.3860 C   0  0  0  0  0  0  0  0  0  0  0  0
   37.2030   27.8280   43.3440 C   0  0  0  0  0  0  0  0  0  0  0  0
   36.3790   27.6730   42.2320 C   0  0  0  0  0  0  0  0  0  0  0  0
   36.4500   28.6080   41.2370 N   0  0  0  0  0  0  0  0  0  0  0  0
   37.2810   29.6560   41.3050 C   0  0  0  0  0  0  0  0  0  0  0  0
   38.0780   29.8160   42.3690 N   0  0  0  0  0  0  0  0  0  0  0  0
   37.0468   32.3527   41.4905 H   0  0  0  0  0  0  0  0  0  0  0  0
   37.1286   33.8989   39.5360 H   0  0  0  0  0  0  0  0  0  0  0  0
   38.3769   30.9588   35.9361 H   0  0  0  0  0  0  0  0  0  0  0  0
   37.1315   27.6377   34.8652 H   0  0  0  0  0  0  0  0  0  0  0  0
   38.5921   28.6612   34.9076 H   0  0  0  0  0  0  0  0  0  0  0  0
   38.7318   29.0930   44.2500 H   0  0  0  0  0  0  0  0  0  0  0  0
   37.1801   27.1004   44.1687 H   0  0  0  0  0  0  0  0  0  0  0  0
   35.6886   26.8200   42.1561 H   0  0  0  0  0  0  0  0  0  0  0  0
  1  2  2  0
  1 16  1  0
  3  2  1  0
  4  3  2  0
  5  4  1  0
  5  6  2  0
  6  1  1  0
  7  5  1  0
  8  7  1  0
  8  9  2  0
 10  8  1  0
 11  9  1  0
 13 12  2  0
 14 13  1  0
 15 16  1  0
 15 14  2  0
 16 17  2  0
 17 12  1  0
  2 18  1  0
  3 19  1  0
  7 20  1  0
 10 21  1  0
 10 22  1  0
 12 23  1  0
 13 24  1  0
 14 25  1  0
M  ISO  5  18  14  19  14  23  14  24  14  25  14
M  END
>  <minimizedAffinity>  (1) 
-5.04918575

>  <minimizedRMSD>  (1) 
0.255013794

$$$$
