
     RDKit          3D

 32 35  0  0  0  0  0  0  0  0999 V2000
   37.1280   30.3050   40.3390 C   0  0  0  0  0  0  0  0  0  0  0  0
   37.2790   31.6540   40.4460 C   0  0  0  0  0  0  0  0  0  0  0  0
   37.2290   32.3580   39.2660 C   0  0  0  0  0  0  0  0  0  0  0  0
   37.0440   31.7830   38.0690 N   0  0  0  0  0  0  0  0  0  0  0  0
   36.8940   30.4440   37.9730 C   0  0  0  0  0  0  0  0  0  0  0  0
   36.9470   29.7700   39.1400 N   0  0  0  0  0  0  0  0  0  0  0  0
   36.6770   29.5470   36.8320 C   0  0  0  0  0  0  0  0  0  0  0  0
   36.4860   28.2060   36.9560 N   0  0  0  0  0  0  0  0  0  0  0  0
   36.2870   27.3800   35.9280 C   0  0  0  0  0  0  0  0  0  0  0  0
   36.2610   27.8440   34.6450 N   0  0  0  0  0  0  0  0  0  0  0  0
   36.4390   29.1600   34.4130 C   0  0  0  0  0  0  0  0  0  0  0  0
   36.4090   29.6050   33.1310 C   0  0  0  0  0  0  0  0  0  0  0  0
   36.5870   30.9450   32.8560 C   0  0  0  0  0  0  0  0  0  0  0  0
   36.7940   31.7950   33.9450 C   0  0  0  0  0  0  0  0  0  0  0  0
   36.8130   31.2810   35.2150 C   0  0  0  0  0  0  0  0  0  0  0  0
   36.6400   29.9520   35.5180 C   0  0  0  0  0  0  0  0  0  0  0  0
   38.0990   28.9240   43.5990 C   0  0  0  0  0  0  0  0  0  0  0  0
   37.2390   27.7970   43.7220 C   0  0  0  0  0  0  0  0  0  0  0  0
   36.3500   27.5420   42.6930 C   0  0  0  0  0  0  0  0  0  0  0  0
   36.3470   28.3790   41.6170 N   0  0  0  0  0  0  0  0  0  0  0  0
   37.1660   29.4330   41.5210 C   0  0  0  0  0  0  0  0  0  0  0  0
   38.0470   29.7140   42.5090 N   0  0  0  0  0  0  0  0  0  0  0  0
   37.4315   32.1497   41.4161 H   0  0  0  0  0  0  0  0  0  0  0  0
   37.3470   33.4509   39.3062 H   0  0  0  0  0  0  0  0  0  0  0  0
   36.1413   26.3063   36.1176 H   0  0  0  0  0  0  0  0  0  0  0  0
   36.2421   28.8943   32.3082 H   0  0  0  0  0  0  0  0  0  0  0  0
   36.5668   31.3273   31.8248 H   0  0  0  0  0  0  0  0  0  0  0  0
   36.9412   32.8731   33.7836 H   0  0  0  0  0  0  0  0  0  0  0  0
   36.9779   31.9797   36.0485 H   0  0  0  0  0  0  0  0  0  0  0  0
   38.8142   29.1527   44.4029 H   0  0  0  0  0  0  0  0  0  0  0  0
   37.2798   27.1477   44.6090 H   0  0  0  0  0  0  0  0  0  0  0  0
   35.6624   26.6848   42.7419 H   0  0  0  0  0  0  0  0  0  0  0  0
  1  2  2  0
  1 21  1  0
  3  2  1  0
  4  3  2  0
  5  4  1  0
  5  6  2  0
  6  1  1  0
  7  8  2  0
  7  5  1  0
  9  8  1  0
 10  9  2  0
 11 10  1  0
 11 16  2  0
 12 11  1  0
 13 12  2  0
 13 14  1  0
 14 15  2  0
 15 16  1  0
 16  7  1  0
 17 18  2  0
 19 18  1  0
 20 19  2  0
 21 20  1  0
 21 22  2  0
 22 17  1  0
  2 23  1  0
  3 24  1  0
  9 25  1  0
 12 26  1  0
 13 27  1  0
 14 28  1  0
 15 29  1  0
 17 30  1  0
 18 31  1  0
 19 32  1  0
M  ISO  8  23  14  24  14  25  14  26  14  27  14  28  14  29  14  30  14
M  ISO  2  31  14  32  14
M  END
>  <minimizedAffinity>  (1) 
-5.01776648

>  <minimizedRMSD>  (1) 
1.21427453

$$$$
