
     RDKit          3D

 24 26  0  0  0  0  0  0  0  0999 V2000
   37.1790   30.3500   40.3770 C   0  0  0  0  0  0  0  0  0  0  0  0
   37.2080   31.7100   40.5310 C   0  0  0  0  0  0  0  0  0  0  0  0
   37.1900   32.4690   39.3800 C   0  0  0  0  0  0  0  0  0  0  0  0
   37.1460   31.9210   38.1490 N   0  0  0  0  0  0  0  0  0  0  0  0
   37.1180   30.5660   38.0270 C   0  0  0  0  0  0  0  0  0  0  0  0
   37.1350   29.8010   39.1460 N   0  0  0  0  0  0  0  0  0  0  0  0
   37.0710   29.8150   36.8170 N   0  0  0  0  0  0  0  0  0  0  0  0
   36.4750   29.8770   35.6110 C   0  0  0  0  0  0  0  0  0  0  0  0
   36.8720   28.8140   34.9070 N   0  0  0  0  0  0  0  0  0  0  0  0
   37.7110   28.0850   35.6550 C   0  0  0  0  0  0  0  0  0  0  0  0
   37.8160   28.7210   36.8250 N   0  0  0  0  0  0  0  0  0  0  0  0
   38.0740   28.8990   43.6260 C   0  0  0  0  0  0  0  0  0  0  0  0
   37.2060   27.7890   43.7180 C   0  0  0  0  0  0  0  0  0  0  0  0
   36.3290   27.5600   42.6600 C   0  0  0  0  0  0  0  0  0  0  0  0
   36.3580   28.4160   41.6010 N   0  0  0  0  0  0  0  0  0  0  0  0
   37.1950   29.4620   41.5470 C   0  0  0  0  0  0  0  0  0  0  0  0
   38.0520   29.7110   42.5460 N   0  0  0  0  0  0  0  0  0  0  0  0
   37.2440   32.1757   41.5269 H   0  0  0  0  0  0  0  0  0  0  0  0
   37.2124   33.5651   39.4697 H   0  0  0  0  0  0  0  0  0  0  0  0
   35.7852   30.6620   35.2676 H   0  0  0  0  0  0  0  0  0  0  0  0
   38.2127   27.1503   35.3641 H   0  0  0  0  0  0  0  0  0  0  0  0
   38.7783   29.1057   44.4453 H   0  0  0  0  0  0  0  0  0  0  0  0
   37.2218   27.1268   44.5962 H   0  0  0  0  0  0  0  0  0  0  0  0
   35.6312   26.7099   42.6794 H   0  0  0  0  0  0  0  0  0  0  0  0
  1  2  2  0
  1 16  1  0
  3  2  1  0
  4  3  2  0
  5  4  1  0
  5  6  2  0
  6  1  1  0
  7 11  1  0
  7  5  1  0
  8  7  1  0
  9  8  2  0
  9 10  1  0
 10 11  2  0
 12 13  2  0
 14 13  1  0
 15 14  2  0
 16 15  1  0
 16 17  2  0
 17 12  1  0
  2 18  1  0
  3 19  1  0
  8 20  1  0
 10 21  1  0
 12 22  1  0
 13 23  1  0
 14 24  1  0
M  ISO  7  18  14  19  14  20  14  21  14  22  14  23  14  24  14
M  END
>  <minimizedAffinity>  (1) 
-4.69164801

>  <minimizedRMSD>  (1) 
0.529142737

$$$$
