
     RDKit          3D

 28 30  0  0  0  0  0  0  0  0999 V2000
   37.5810   30.0260   40.7210 C   0  0  0  0  0  0  0  0  0  0  0  0
   37.8380   31.3800   40.8980 C   0  0  0  0  0  0  0  0  0  0  0  0
   37.5210   32.2030   39.8310 C   0  0  0  0  0  0  0  0  0  0  0  0
   36.9950   31.7370   38.6810 N   0  0  0  0  0  0  0  0  0  0  0  0
   36.7580   30.4060   38.5460 C   0  0  0  0  0  0  0  0  0  0  0  0
   37.0530   29.5550   39.5670 N   0  0  0  0  0  0  0  0  0  0  0  0
   39.4740   27.9840   43.1190 C   0  0  0  0  0  0  0  0  0  0  0  0
   38.4450   27.3200   43.8210 C   0  0  0  0  0  0  0  0  0  0  0  0
   37.1300   27.5860   43.4570 C   0  0  0  0  0  0  0  0  0  0  0  0
   36.8920   28.4730   42.4430 N   0  0  0  0  0  0  0  0  0  0  0  0
   37.8870   29.0870   41.7960 C   0  0  0  0  0  0  0  0  0  0  0  0
   39.1670   28.8430   42.1330 N   0  0  0  0  0  0  0  0  0  0  0  0
   36.1910   29.8650   37.3190 C   0  0  0  0  0  0  0  0  0  0  0  0
   34.9740   29.2020   37.3870 C   0  0  0  0  0  0  0  0  0  0  0  0
   34.3080   28.6320   36.3020 C   0  0  0  0  0  0  0  0  0  0  0  0
   34.9510   28.7640   35.0820 C   0  0  0  0  0  0  0  0  0  0  0  0
   36.1610   29.4190   34.9820 C   0  0  0  0  0  0  0  0  0  0  0  0
   36.7880   29.9680   36.0820 C   0  0  0  0  0  0  0  0  0  0  0  0
   38.2678   31.7745   41.8306 H   0  0  0  0  0  0  0  0  0  0  0  0
   37.7063   33.2831   39.9258 H   0  0  0  0  0  0  0  0  0  0  0  0
   40.5265   27.7981   43.3792 H   0  0  0  0  0  0  0  0  0  0  0  0
   38.6767   26.6134   44.6316 H   0  0  0  0  0  0  0  0  0  0  0  0
   36.2951   27.0918   43.9754 H   0  0  0  0  0  0  0  0  0  0  0  0
   34.4967   29.1194   38.3746 H   0  0  0  0  0  0  0  0  0  0  0  0
   33.3426   28.1153   36.4074 H   0  0  0  0  0  0  0  0  0  0  0  0
   34.4892   28.3396   34.1783 H   0  0  0  0  0  0  0  0  0  0  0  0
   36.6405   29.5063   33.9958 H   0  0  0  0  0  0  0  0  0  0  0  0
   37.7541   30.4823   35.9721 H   0  0  0  0  0  0  0  0  0  0  0  0
  1  2  2  0
  1 11  1  0
  3  2  1  0
  4  3  2  0
  5  4  1  0
  5  6  2  0
  6  1  1  0
  7  8  2  0
  9  8  1  0
 10  9  2  0
 11 12  2  0
 11 10  1  0
 12  7  1  0
 13 14  2  0
 13  5  1  0
 15 14  1  0
 16 15  2  0
 17 16  1  0
 17 18  2  0
 18 13  1  0
  2 19  1  0
  3 20  1  0
  7 21  1  0
  8 22  1  0
  9 23  1  0
 14 24  1  0
 15 25  1  0
 16 26  1  0
 17 27  1  0
 18 28  1  0
M  ISO  8  19  14  20  14  21  14  22  14  23  14  24  14  25  14  26  14
M  ISO  2  27  14  28  14
M  END
>  <minimizedAffinity>  (1) 
-4.6415143

>  <minimizedRMSD>  (1) 
1.74301684

$$$$
