
     RDKit          3D

 28 30  0  0  0  0  0  0  0  0999 V2000
   37.1050   30.1370   40.4750 C   0  0  0  0  0  0  0  0  0  0  0  0
   37.5270   31.4570   40.5510 C   0  0  0  0  0  0  0  0  0  0  0  0
   37.4700   32.1980   39.3920 C   0  0  0  0  0  0  0  0  0  0  0  0
   37.0280   31.6910   38.2260 N   0  0  0  0  0  0  0  0  0  0  0  0
   36.6190   30.3890   38.1830 C   0  0  0  0  0  0  0  0  0  0  0  0
   36.6630   29.6280   39.3120 N   0  0  0  0  0  0  0  0  0  0  0  0
   38.0340   28.8080   43.7620 C   0  0  0  0  0  0  0  0  0  0  0  0
   37.1910   27.6670   43.8870 C   0  0  0  0  0  0  0  0  0  0  0  0
   36.3330   27.3980   42.8340 C   0  0  0  0  0  0  0  0  0  0  0  0
   36.3310   28.2230   41.7400 N   0  0  0  0  0  0  0  0  0  0  0  0
   37.1330   29.2850   41.6520 C   0  0  0  0  0  0  0  0  0  0  0  0
   37.9760   29.5650   42.6630 N   0  0  0  0  0  0  0  0  0  0  0  0
   36.1290   29.7810   36.9440 C   0  0  0  0  0  0  0  0  0  0  0  0
   34.9780   29.0130   37.0160 C   0  0  0  0  0  0  0  0  0  0  0  0
   34.5360   28.4530   35.8400 C   0  0  0  0  0  0  0  0  0  0  0  0
   35.1730   28.6190   34.6240 C   0  0  0  0  0  0  0  0  0  0  0  0
   36.3170   29.3840   34.5580 C   0  0  0  0  0  0  0  0  0  0  0  0
   36.7670   29.9490   35.7310 C   0  0  0  0  0  0  0  0  0  0  0  0
   37.8904   31.8913   41.4941 H   0  0  0  0  0  0  0  0  0  0  0  0
   37.7991   33.2472   39.4200 H   0  0  0  0  0  0  0  0  0  0  0  0
   38.7333   29.0661   44.5709 H   0  0  0  0  0  0  0  0  0  0  0  0
   37.2202   27.0271   44.7813 H   0  0  0  0  0  0  0  0  0  0  0  0
   35.6590   26.5297   42.8754 H   0  0  0  0  0  0  0  0  0  0  0  0
   34.4447   28.8589   37.9656 H   0  0  0  0  0  0  0  0  0  0  0  0
   33.6242   27.8383   35.8685 H   0  0  0  0  0  0  0  0  0  0  0  0
   34.7699   28.1444   33.7172 H   0  0  0  0  0  0  0  0  0  0  0  0
   36.8492   29.5373   33.6076 H   0  0  0  0  0  0  0  0  0  0  0  0
   37.6787   30.5637   35.6998 H   0  0  0  0  0  0  0  0  0  0  0  0
  1  2  2  0
  1 11  1  0
  3  2  1  0
  4  3  2  0
  5  4  1  0
  5  6  2  0
  6  1  1  0
  7  8  2  0
  9  8  1  0
 10  9  2  0
 11 10  1  0
 11 12  2  0
 12  7  1  0
 13 14  2  0
 13  5  1  0
 15 14  1  0
 16 15  2  0
 17 16  1  0
 17 18  2  0
 18 13  1  0
  2 19  1  0
  3 20  1  0
  7 21  1  0
  8 22  1  0
  9 23  1  0
 14 24  1  0
 15 25  1  0
 16 26  1  0
 17 27  1  0
 18 28  1  0
M  ISO  8  19  14  20  14  21  14  22  14  23  14  24  14  25  14  26  14
M  ISO  2  27  14  28  14
M  END
>  <minimizedAffinity>  (1) 
-4.56271887

>  <minimizedRMSD>  (1) 
1.5221169

$$$$
