
     RDKit          3D

 31 33  0  0  0  0  0  0  0  0999 V2000
   37.1870   30.3800   40.4420 C   0  0  0  0  0  0  0  0  0  0  0  0
   37.2460   31.7390   40.6660 C   0  0  0  0  0  0  0  0  0  0  0  0
   37.2310   32.5380   39.5360 C   0  0  0  0  0  0  0  0  0  0  0  0
   37.1640   32.0410   38.2790 N   0  0  0  0  0  0  0  0  0  0  0  0
   37.1070   30.6850   38.1090 C   0  0  0  0  0  0  0  0  0  0  0  0
   37.1200   29.8770   39.2060 N   0  0  0  0  0  0  0  0  0  0  0  0
   38.0750   28.8360   43.6640 C   0  0  0  0  0  0  0  0  0  0  0  0
   37.1870   27.7180   43.7120 C   0  0  0  0  0  0  0  0  0  0  0  0
   36.3200   27.5300   42.6460 C   0  0  0  0  0  0  0  0  0  0  0  0
   36.3610   28.4200   41.6160 N   0  0  0  0  0  0  0  0  0  0  0  0
   37.1970   29.4650   41.5810 C   0  0  0  0  0  0  0  0  0  0  0  0
   38.0370   29.6580   42.5990 N   0  0  0  0  0  0  0  0  0  0  0  0
   37.0300   30.0170   36.7740 C   0  0  0  0  0  0  0  0  0  0  0  0
   38.0440   28.8810   36.7490 C   0  0  0  0  0  0  0  0  0  0  0  0
   37.5210   28.0770   35.5530 C   0  0  0  0  0  0  0  0  0  0  0  0
   36.0510   27.9570   35.9780 C   0  0  0  0  0  0  0  0  0  0  0  0
   35.7220   29.3580   36.5060 C   0  0  0  0  0  0  0  0  0  0  0  0
   37.3015   32.1621   41.6799 H   0  0  0  0  0  0  0  0  0  0  0  0
   37.2757   33.6294   39.6658 H   0  0  0  0  0  0  0  0  0  0  0  0
   38.7807   29.0226   44.4869 H   0  0  0  0  0  0  0  0  0  0  0  0
   37.1908   27.0274   44.5682 H   0  0  0  0  0  0  0  0  0  0  0  0
   35.6173   26.6838   42.6328 H   0  0  0  0  0  0  0  0  0  0  0  0
   37.2021   30.8089   36.0301 H   0  0  0  0  0  0  0  0  0  0  0  0
   39.0656   29.2505   36.5762 H   0  0  0  0  0  0  0  0  0  0  0  0
   38.1238   28.3129   37.6876 H   0  0  0  0  0  0  0  0  0  0  0  0
   38.0090   27.0947   35.4698 H   0  0  0  0  0  0  0  0  0  0  0  0
   37.6952   28.5270   34.5645 H   0  0  0  0  0  0  0  0  0  0  0  0
   35.4125   27.6990   35.1203 H   0  0  0  0  0  0  0  0  0  0  0  0
   35.8810   27.1652   36.7224 H   0  0  0  0  0  0  0  0  0  0  0  0
   35.1556   29.9261   35.7534 H   0  0  0  0  0  0  0  0  0  0  0  0
   35.1032   29.3097   37.4142 H   0  0  0  0  0  0  0  0  0  0  0  0
  1  2  2  0
  1 11  1  0
  3  2  1  0
  4  3  2  0
  5  4  1  0
  5  6  2  0
  6  1  1  0
  7  8  2  0
  9  8  1  0
 10  9  2  0
 11 10  1  0
 11 12  2  0
 12  7  1  0
 13  5  1  0
 14 13  1  0
 15 16  1  0
 15 14  1  0
 16 17  1  0
 17 13  1  0
  2 18  1  0
  3 19  1  0
  7 20  1  0
  8 21  1  0
  9 22  1  0
 13 23  1  0
 14 24  1  0
 14 25  1  0
 15 26  1  0
 15 27  1  0
 16 28  1  0
 16 29  1  0
 17 30  1  0
 17 31  1  0
M  ISO  8  18  14  19  14  20  14  21  14  22  14  23  13  24  13  25  13
M  ISO  6  26  13  27  13  28  13  29  13  30  13  31  13
M  END
>  <minimizedAffinity>  (1) 
-4.50046587

>  <minimizedRMSD>  (1) 
0.470150322

$$$$
