
     RDKit          3D

 27 29  0  0  0  0  0  0  0  0999 V2000
   37.5890   30.0630   40.7160 C   0  0  0  0  0  0  0  0  0  0  0  0
   37.8410   31.4090   40.8970 C   0  0  0  0  0  0  0  0  0  0  0  0
   37.5410   32.2400   39.8390 C   0  0  0  0  0  0  0  0  0  0  0  0
   37.0290   31.7890   38.6800 N   0  0  0  0  0  0  0  0  0  0  0  0
   36.7910   30.4470   38.5340 C   0  0  0  0  0  0  0  0  0  0  0  0
   37.0740   29.5890   39.5580 N   0  0  0  0  0  0  0  0  0  0  0  0
   39.4680   27.9980   43.1030 C   0  0  0  0  0  0  0  0  0  0  0  0
   38.4210   27.3180   43.7990 C   0  0  0  0  0  0  0  0  0  0  0  0
   37.1150   27.5880   43.4290 C   0  0  0  0  0  0  0  0  0  0  0  0
   36.8830   28.4870   42.4210 N   0  0  0  0  0  0  0  0  0  0  0  0
   37.8780   29.1090   41.7880 C   0  0  0  0  0  0  0  0  0  0  0  0
   39.1550   28.8640   42.1270 N   0  0  0  0  0  0  0  0  0  0  0  0
   36.2320   29.9060   37.2870 C   0  0  0  0  0  0  0  0  0  0  0  0
   35.0520   29.1960   37.3700 C   0  0  0  0  0  0  0  0  0  0  0  0
   34.4220   28.6370   36.2940 C   0  0  0  0  0  0  0  0  0  0  0  0
   35.0480   28.8220   35.0560 C   0  0  0  0  0  0  0  0  0  0  0  0
   36.2340   29.5380   35.0010 C   0  0  0  0  0  0  0  0  0  0  0  0
   36.8190   30.0710   36.0890 N   0  0  0  0  0  0  0  0  0  0  0  0
   38.2595   31.7977   41.8371 H   0  0  0  0  0  0  0  0  0  0  0  0
   37.7284   33.3185   39.9473 H   0  0  0  0  0  0  0  0  0  0  0  0
   40.5202   27.8132   43.3650 H   0  0  0  0  0  0  0  0  0  0  0  0
   38.6462   26.6025   44.6035 H   0  0  0  0  0  0  0  0  0  0  0  0
   36.2762   27.0887   43.9361 H   0  0  0  0  0  0  0  0  0  0  0  0
   34.5910   29.0726   38.3611 H   0  0  0  0  0  0  0  0  0  0  0  0
   33.4810   28.0763   36.3946 H   0  0  0  0  0  0  0  0  0  0  0  0
   34.6052   28.4051   34.1394 H   0  0  0  0  0  0  0  0  0  0  0  0
   36.7187   29.6766   34.0233 H   0  0  0  0  0  0  0  0  0  0  0  0
  1  2  2  0
  1 11  1  0
  3  2  1  0
  4  3  2  0
  5  4  1  0
  5  6  2  0
  6  1  1  0
  7  8  2  0
  9  8  1  0
 10  9  2  0
 11 12  2  0
 11 10  1  0
 12  7  1  0
 13 14  2  0
 13  5  1  0
 15 14  1  0
 16 15  2  0
 17 16  1  0
 17 18  2  0
 18 13  1  0
  2 19  1  0
  3 20  1  0
  7 21  1  0
  8 22  1  0
  9 23  1  0
 14 24  1  0
 15 25  1  0
 16 26  1  0
 17 27  1  0
M  ISO  8  19  14  20  14  21  14  22  14  23  14  24  14  25  14  26  14
M  ISO  1  27  14
M  END
>  <minimizedAffinity>  (1) 
-4.48369741

>  <minimizedRMSD>  (1) 
1.73867738

$$$$
