
     RDKit          3D

 30 32  0  0  0  0  0  0  0  0999 V2000
   37.1910   30.2290   40.2910 C   0  0  0  0  0  0  0  0  0  0  0  0
   37.1800   31.6100   40.3950 C   0  0  0  0  0  0  0  0  0  0  0  0
   37.1570   32.3250   39.2180 C   0  0  0  0  0  0  0  0  0  0  0  0
   37.1450   31.7230   38.0050 N   0  0  0  0  0  0  0  0  0  0  0  0
   37.1570   30.3700   37.9410 C   0  0  0  0  0  0  0  0  0  0  0  0
   37.1800   29.6220   39.0810 N   0  0  0  0  0  0  0  0  0  0  0  0
   37.1460   29.6740   36.7000 N   0  0  0  0  0  0  0  0  0  0  0  0
   37.7040   28.3850   36.3360 C   0  0  0  0  0  0  0  0  0  0  0  0
   36.7010   27.7820   35.3470 C   0  0  0  0  0  0  0  0  0  0  0  0
   35.6930   28.9050   35.1210 C   0  0  0  0  0  0  0  0  0  0  0  0
   36.5430   30.1220   35.4590 C   0  0  0  0  0  0  0  0  0  0  0  0
   38.1050   28.9540   43.6060 C   0  0  0  0  0  0  0  0  0  0  0  0
   37.2410   27.8420   43.7530 C   0  0  0  0  0  0  0  0  0  0  0  0
   36.3700   27.5630   42.7100 C   0  0  0  0  0  0  0  0  0  0  0  0
   36.3920   28.3640   41.6120 N   0  0  0  0  0  0  0  0  0  0  0  0
   37.2150   29.4100   41.4900 C   0  0  0  0  0  0  0  0  0  0  0  0
   38.0650   29.6950   42.4900 N   0  0  0  0  0  0  0  0  0  0  0  0
   37.1892   32.1130   41.3732 H   0  0  0  0  0  0  0  0  0  0  0  0
   37.1481   33.4240   39.2650 H   0  0  0  0  0  0  0  0  0  0  0  0
   38.6879   28.5103   35.8603 H   0  0  0  0  0  0  0  0  0  0  0  0
   37.8575   27.7393   37.2132 H   0  0  0  0  0  0  0  0  0  0  0  0
   37.1973   27.5054   34.4051 H   0  0  0  0  0  0  0  0  0  0  0  0
   36.2337   26.8602   35.7238 H   0  0  0  0  0  0  0  0  0  0  0  0
   35.3437   28.9319   34.0783 H   0  0  0  0  0  0  0  0  0  0  0  0
   34.7700   28.8150   35.7126 H   0  0  0  0  0  0  0  0  0  0  0  0
   37.2999   30.3184   34.6854 H   0  0  0  0  0  0  0  0  0  0  0  0
   35.9875   31.0688   35.5301 H   0  0  0  0  0  0  0  0  0  0  0  0
   38.8108   29.2104   44.4098 H   0  0  0  0  0  0  0  0  0  0  0  0
   37.2597   27.2218   44.6613 H   0  0  0  0  0  0  0  0  0  0  0  0
   35.6762   26.7115   42.7702 H   0  0  0  0  0  0  0  0  0  0  0  0
  1  2  2  0
  1 16  1  0
  3  2  1  0
  4  3  2  0
  5  4  1  0
  5  6  2  0
  6  1  1  0
  7  5  1  0
  8  7  1  0
  9  8  1  0
 10  9  1  0
 10 11  1  0
 11  7  1  0
 12 13  2  0
 14 13  1  0
 15 14  2  0
 16 15  1  0
 16 17  2  0
 17 12  1  0
  2 18  1  0
  3 19  1  0
  8 20  1  0
  8 21  1  0
  9 22  1  0
  9 23  1  0
 10 24  1  0
 10 25  1  0
 11 26  1  0
 11 27  1  0
 12 28  1  0
 13 29  1  0
 14 30  1  0
M  ISO  8  18  14  19  14  20  13  21  13  22  13  23  13  24  13  25  13
M  ISO  5  26  13  27  13  28  14  29  14  30  14
M  END
>  <minimizedAffinity>  (1) 
-4.48311377

>  <minimizedRMSD>  (1) 
0.548607171

$$$$
