
     RDKit          3D

 31 33  0  0  0  0  0  0  0  0999 V2000
   37.1290   30.0980   40.4150 C   0  0  0  0  0  0  0  0  0  0  0  0
   37.5690   31.4100   40.4170 C   0  0  0  0  0  0  0  0  0  0  0  0
   37.4770   32.0970   39.2230 C   0  0  0  0  0  0  0  0  0  0  0  0
   36.9820   31.5300   38.0950 N   0  0  0  0  0  0  0  0  0  0  0  0
   36.5620   30.2410   38.1340 C   0  0  0  0  0  0  0  0  0  0  0  0
   36.6420   29.5490   39.2910 N   0  0  0  0  0  0  0  0  0  0  0  0
   36.0310   29.5490   37.0250 N   0  0  0  0  0  0  0  0  0  0  0  0
   34.7040   28.9760   36.9670 C   0  0  0  0  0  0  0  0  0  0  0  0
   34.5280   28.2330   35.6800 C   0  0  0  0  0  0  0  0  0  0  0  0
   34.7800   28.9840   34.5460 O   0  0  0  0  0  0  0  0  0  0  0  0
   35.8970   29.8000   34.6770 C   0  0  0  0  0  0  0  0  0  0  0  0
   36.8110   29.3460   35.7950 C   0  0  0  0  0  0  0  0  0  0  0  0
   38.1390   28.9030   43.7310 C   0  0  0  0  0  0  0  0  0  0  0  0
   37.2760   27.7860   43.9250 C   0  0  0  0  0  0  0  0  0  0  0  0
   36.3800   27.4810   42.9160 C   0  0  0  0  0  0  0  0  0  0  0  0
   36.3560   28.2550   41.7840 N   0  0  0  0  0  0  0  0  0  0  0  0
   37.1940   29.3060   41.6400 C   0  0  0  0  0  0  0  0  0  0  0  0
   38.0670   29.6190   42.6000 N   0  0  0  0  0  0  0  0  0  0  0  0
   37.9721   31.8822   41.3250 H   0  0  0  0  0  0  0  0  0  0  0  0
   37.8176   33.1423   39.1853 H   0  0  0  0  0  0  0  0  0  0  0  0
   34.5685   28.2828   37.8103 H   0  0  0  0  0  0  0  0  0  0  0  0
   33.9577   29.7820   37.0258 H   0  0  0  0  0  0  0  0  0  0  0  0
   35.2145   27.3735   35.6826 H   0  0  0  0  0  0  0  0  0  0  0  0
   33.4696   27.9374   35.6312 H   0  0  0  0  0  0  0  0  0  0  0  0
   36.4594   29.7846   33.7318 H   0  0  0  0  0  0  0  0  0  0  0  0
   35.5468   30.8143   34.9190 H   0  0  0  0  0  0  0  0  0  0  0  0
   37.0737   28.2847   35.6737 H   0  0  0  0  0  0  0  0  0  0  0  0
   37.7590   29.9038   35.8082 H   0  0  0  0  0  0  0  0  0  0  0  0
   38.8651   29.1781   44.5101 H   0  0  0  0  0  0  0  0  0  0  0  0
   37.3207   27.1863   44.8461 H   0  0  0  0  0  0  0  0  0  0  0  0
   35.6944   26.6272   43.0205 H   0  0  0  0  0  0  0  0  0  0  0  0
  1  2  2  0
  1 17  1  0
  3  2  1  0
  4  5  1  0
  4  3  2  0
  5  6  2  0
  6  1  1  0
  7  5  1  0
  8  7  1  0
  9  8  1  0
 10 11  1  0
 10  9  1  0
 11 12  1  0
 12  7  1  0
 13 14  2  0
 15 14  1  0
 16 15  2  0
 17 16  1  0
 17 18  2  0
 18 13  1  0
  2 19  1  0
  3 20  1  0
  8 21  1  0
  8 22  1  0
  9 23  1  0
  9 24  1  0
 11 25  1  0
 11 26  1  0
 12 27  1  0
 12 28  1  0
 13 29  1  0
 14 30  1  0
 15 31  1  0
M  ISO  8  19  14  20  14  21  13  22  13  23  13  24  13  25  13  26  13
M  ISO  5  27  13  28  13  29  14  30  14  31  14
M  END
>  <minimizedAffinity>  (1) 
-4.48212099

>  <minimizedRMSD>  (1) 
1.54468513

$$$$
