
     RDKit          3D

 25 27  0  0  0  0  0  0  0  0999 V2000
   37.1490   30.2420   40.3630 C   0  0  0  0  0  0  0  0  0  0  0  0
   37.3500   31.5920   40.4700 C   0  0  0  0  0  0  0  0  0  0  0  0
   37.3100   32.3680   39.3310 C   0  0  0  0  0  0  0  0  0  0  0  0
   37.0740   31.8120   38.1170 N   0  0  0  0  0  0  0  0  0  0  0  0
   36.8770   30.4700   38.0370 C   0  0  0  0  0  0  0  0  0  0  0  0
   36.9170   29.6990   39.1600 N   0  0  0  0  0  0  0  0  0  0  0  0
   38.0820   28.8860   43.6360 C   0  0  0  0  0  0  0  0  0  0  0  0
   37.2160   27.7550   43.7530 C   0  0  0  0  0  0  0  0  0  0  0  0
   36.3460   27.5010   42.7060 C   0  0  0  0  0  0  0  0  0  0  0  0
   36.3600   28.3360   41.6260 N   0  0  0  0  0  0  0  0  0  0  0  0
   37.1840   29.3920   41.5400 C   0  0  0  0  0  0  0  0  0  0  0  0
   38.0430   29.6680   42.5440 N   0  0  0  0  0  0  0  0  0  0  0  0
   36.6140   29.7190   36.8080 C   0  0  0  0  0  0  0  0  0  0  0  0
   36.6320   30.1560   35.5260 C   0  0  0  0  0  0  0  0  0  0  0  0
   36.3600   29.3220   34.4900 C   0  0  0  0  0  0  0  0  0  0  0  0
   36.0510   27.9330   34.8850 C   0  0  0  0  0  0  0  0  0  0  0  0
   36.1940   27.9990   36.7700 S   0  0  0  0  0  0  0  0  0  0  0  0
   37.5408   32.0513   41.4512 H   0  0  0  0  0  0  0  0  0  0  0  0
   37.4718   33.4533   39.4082 H   0  0  0  0  0  0  0  0  0  0  0  0
   38.7871   29.1185   44.4476 H   0  0  0  0  0  0  0  0  0  0  0  0
   37.2397   27.1092   44.6432 H   0  0  0  0  0  0  0  0  0  0  0  0
   35.6576   26.6439   42.7437 H   0  0  0  0  0  0  0  0  0  0  0  0
   36.8722   31.2095   35.3199 H   0  0  0  0  0  0  0  0  0  0  0  0
   36.3690   29.6539   33.4413 H   0  0  0  0  0  0  0  0  0  0  0  0
   35.8005   27.0751   34.2438 H   0  0  0  0  0  0  0  0  0  0  0  0
  1  2  2  0
  1 11  1  0
  3  2  1  0
  4  3  2  0
  5  4  1  0
  5  6  2  0
  6  1  1  0
  7  8  2  0
  9  8  1  0
 10  9  2  0
 11 10  1  0
 11 12  2  0
 12  7  1  0
 13  5  1  0
 14 13  2  0
 15 16  2  0
 15 14  1  0
 16 17  1  0
 17 13  1  0
  2 18  1  0
  3 19  1  0
  7 20  1  0
  8 21  1  0
  9 22  1  0
 14 23  1  0
 15 24  1  0
 16 25  1  0
M  ISO  8  18  14  19  14  20  14  21  14  22  14  23  14  24  14  25  14
M  END
>  <minimizedAffinity>  (1) 
-4.27447462

>  <minimizedRMSD>  (1) 
0.928572714

$$$$
