
     RDKit          3D

 30 31  0  0  0  0  0  0  0  0999 V2000
   37.1480   29.9190   40.0280 C   0  0  0  0  0  0  0  0  0  0  0  0
   37.2590   31.2910   39.9440 C   0  0  0  0  0  0  0  0  0  0  0  0
   37.2010   31.8510   38.6890 C   0  0  0  0  0  0  0  0  0  0  0  0
   37.0430   31.1050   37.5680 N   0  0  0  0  0  0  0  0  0  0  0  0
   36.9380   29.7560   37.6850 C   0  0  0  0  0  0  0  0  0  0  0  0
   36.9910   29.1760   38.9150 N   0  0  0  0  0  0  0  0  0  0  0  0
   38.1150   29.0970   43.4690 C   0  0  0  0  0  0  0  0  0  0  0  0
   37.2860   27.9730   43.7620 C   0  0  0  0  0  0  0  0  0  0  0  0
   36.4240   27.5390   42.7630 C   0  0  0  0  0  0  0  0  0  0  0  0
   36.4160   28.2010   41.5700 N   0  0  0  0  0  0  0  0  0  0  0  0
   37.2000   29.2520   41.3170 C   0  0  0  0  0  0  0  0  0  0  0  0
   38.0320   29.6780   42.2690 N   0  0  0  0  0  0  0  0  0  0  0  0
   36.7650   28.9660   36.4330 C   0  0  0  0  0  0  0  0  0  0  0  0
   36.4110   29.8510   35.2660 C   0  0  0  0  0  0  0  0  0  0  0  0
   37.9490   28.1280   36.0800 C   0  0  0  0  0  0  0  0  0  0  0  0
   35.5710   28.0160   36.6030 C   0  0  0  0  0  0  0  0  0  0  0  0
   37.3885   31.9115   40.8430 H   0  0  0  0  0  0  0  0  0  0  0  0
   37.2859   32.9434   38.5914 H   0  0  0  0  0  0  0  0  0  0  0  0
   38.8160   29.4815   44.2245 H   0  0  0  0  0  0  0  0  0  0  0  0
   37.3279   27.4705   44.7396 H   0  0  0  0  0  0  0  0  0  0  0  0
   35.7604   26.6779   42.9305 H   0  0  0  0  0  0  0  0  0  0  0  0
   36.0265   30.8121   35.6381 H   0  0  0  0  0  0  0  0  0  0  0  0
   37.3079   30.0270   34.6540 H   0  0  0  0  0  0  0  0  0  0  0  0
   35.6401   29.3599   34.6540 H   0  0  0  0  0  0  0  0  0  0  0  0
   38.4400   27.7805   37.0010 H   0  0  0  0  0  0  0  0  0  0  0  0
   37.6209   27.2599   35.4895 H   0  0  0  0  0  0  0  0  0  0  0  0
   38.6586   28.7261   35.4895 H   0  0  0  0  0  0  0  0  0  0  0  0
   35.3757   27.8606   37.6743 H   0  0  0  0  0  0  0  0  0  0  0  0
   34.6817   28.4562   36.1282 H   0  0  0  0  0  0  0  0  0  0  0  0
   35.8001   27.0505   36.1282 H   0  0  0  0  0  0  0  0  0  0  0  0
  1 11  1  0
  2  1  2  0
  3  2  1  0
  4  5  1  0
  4  3  2  0
  5  6  2  0
  6  1  1  0
  7  8  2  0
  9  8  1  0
 10  9  2  0
 11 10  1  0
 11 12  2  0
 12  7  1  0
 13 16  1  0
 13  5  1  0
 14 13  1  0
 15 13  1  0
  2 17  1  0
  3 18  1  0
  7 19  1  0
  8 20  1  0
  9 21  1  0
 14 22  1  0
 14 23  1  0
 14 24  1  0
 15 25  1  0
 15 26  1  0
 15 27  1  0
 16 28  1  0
 16 29  1  0
 16 30  1  0
M  ISO  8  17  14  18  14  19  14  20  14  21  14  22   8  23   8  24   8
M  ISO  6  25   8  26   8  27   8  28   8  29   8  30   8
M  END
>  <minimizedAffinity>  (1) 
-4.12486601

>  <minimizedRMSD>  (1) 
1.06943572

$$$$
