
     RDKit          3D

 27 28  0  0  0  0  0  0  0  0999 V2000
   37.1090   30.1670   40.3930 C   0  0  0  0  0  0  0  0  0  0  0  0
   37.2000   31.5380   40.5400 C   0  0  0  0  0  0  0  0  0  0  0  0
   37.1740   32.2650   39.3560 C   0  0  0  0  0  0  0  0  0  0  0  0
   37.0680   31.6960   38.1400 N   0  0  0  0  0  0  0  0  0  0  0  0
   36.9810   30.3340   38.0530 C   0  0  0  0  0  0  0  0  0  0  0  0
   37.0030   29.5940   39.1910 N   0  0  0  0  0  0  0  0  0  0  0  0
   37.9610   28.8470   43.7190 C   0  0  0  0  0  0  0  0  0  0  0  0
   37.1340   27.7070   43.8190 C   0  0  0  0  0  0  0  0  0  0  0  0
   36.2960   27.4100   42.7390 C   0  0  0  0  0  0  0  0  0  0  0  0
   36.3400   28.2510   41.6600 N   0  0  0  0  0  0  0  0  0  0  0  0
   37.1290   29.3220   41.5890 C   0  0  0  0  0  0  0  0  0  0  0  0
   37.9300   29.6090   42.6160 N   0  0  0  0  0  0  0  0  0  0  0  0
   36.8650   29.7290   36.7000 C   0  0  0  0  0  0  0  0  0  0  0  0
   37.9120   28.6480   36.5310 C   0  0  0  0  0  0  0  0  0  0  0  0
   35.4730   29.2000   36.4270 C   0  0  0  0  0  0  0  0  0  0  0  0
   37.2869   32.0200   41.5250 H   0  0  0  0  0  0  0  0  0  0  0  0
   37.2436   33.3612   39.4150 H   0  0  0  0  0  0  0  0  0  0  0  0
   38.6331   29.1110   44.5488 H   0  0  0  0  0  0  0  0  0  0  0  0
   37.1482   27.0726   44.7175 H   0  0  0  0  0  0  0  0  0  0  0  0
   35.6286   26.5358   42.7562 H   0  0  0  0  0  0  0  0  0  0  0  0
   37.0456   30.5188   35.9560 H   0  0  0  0  0  0  0  0  0  0  0  0
   38.2460   28.3031   37.5207 H   0  0  0  0  0  0  0  0  0  0  0  0
   37.4801   27.8030   35.9748 H   0  0  0  0  0  0  0  0  0  0  0  0
   38.7704   29.0527   35.9748 H   0  0  0  0  0  0  0  0  0  0  0  0
   34.9611   29.0054   37.3810 H   0  0  0  0  0  0  0  0  0  0  0  0
   34.9042   29.9447   35.8508 H   0  0  0  0  0  0  0  0  0  0  0  0
   35.5423   28.2655   35.8508 H   0  0  0  0  0  0  0  0  0  0  0  0
  1  2  2  0
  1 11  1  0
  3  2  1  0
  4  3  2  0
  5  4  1  0
  5  6  2  0
  6  1  1  0
  7  8  2  0
  9  8  1  0
 10  9  2  0
 11 10  1  0
 11 12  2  0
 12  7  1  0
 13  5  1  0
 14 13  1  0
 15 13  1  0
  2 16  1  0
  3 17  1  0
  7 18  1  0
  8 19  1  0
  9 20  1  0
 13 21  1  0
 14 22  1  0
 14 23  1  0
 14 24  1  0
 15 25  1  0
 15 26  1  0
 15 27  1  0
M  ISO  8  16  14  17  14  18  14  19  14  20  14  21   8  22   8  23   8
M  ISO  4  24   8  25   8  26   8  27   8
M  END
>  <minimizedAffinity>  (1) 
-4.08421803

>  <minimizedRMSD>  (1) 
0.841424406

$$$$
