
     RDKit          3D

 19 20  0  0  0  0  0  0  0  0999 V2000
   37.3350   30.4910   40.2240 C   0  0  0  0  0  0  0  0  0  0  0  0
   37.1000   31.8280   40.4020 C   0  0  0  0  0  0  0  0  0  0  0  0
   37.1710   32.6090   39.2620 C   0  0  0  0  0  0  0  0  0  0  0  0
   37.4550   32.1090   38.0360 N   0  0  0  0  0  0  0  0  0  0  0  0
   37.6830   30.7790   37.9030 C   0  0  0  0  0  0  0  0  0  0  0  0
   37.6210   29.9770   39.0050 N   0  0  0  0  0  0  0  0  0  0  0  0
   38.0920   28.9480   43.4730 C   0  0  0  0  0  0  0  0  0  0  0  0
   37.1920   27.8350   43.4910 C   0  0  0  0  0  0  0  0  0  0  0  0
   36.3630   27.6520   42.3980 C   0  0  0  0  0  0  0  0  0  0  0  0
   36.4380   28.5360   41.3530 N   0  0  0  0  0  0  0  0  0  0  0  0
   37.2860   29.5650   41.3640 C   0  0  0  0  0  0  0  0  0  0  0  0
   38.1070   29.7720   42.4130 N   0  0  0  0  0  0  0  0  0  0  0  0
   37.9850   30.1010   36.7330 O   0  0  0  0  0  0  0  0  0  0  0  0
   36.8692   32.2546   41.3893 H   0  0  0  0  0  0  0  0  0  0  0  0
   36.9877   33.6895   39.3563 H   0  0  0  0  0  0  0  0  0  0  0  0
   38.7673   29.1272   44.3226 H   0  0  0  0  0  0  0  0  0  0  0  0
   37.1603   27.1459   44.3478 H   0  0  0  0  0  0  0  0  0  0  0  0
   35.6551   26.8105   42.3683 H   0  0  0  0  0  0  0  0  0  0  0  0
   38.1331   29.1223   36.7521 H   0  0  0  0  0  0  0  0  0  0  0  0
  1  2  2  0
  1 11  1  0
  3  2  1  0
  4  3  2  0
  5  4  1  0
  5  6  2  0
  6  1  1  0
  7  8  2  0
  9  8  1  0
 10 11  1  0
 10  9  2  0
 11 12  2  0
 12  7  1  0
 13  5  1  0
  2 14  1  0
  3 15  1  0
  7 16  1  0
  8 17  1  0
  9 18  1  0
 13 19  1  0
M  ISO  6  14  14  15  14  16  14  17  14  18  14  19   3
M  END
>  <minimizedAffinity>  (1) 
-4.04842091

>  <minimizedRMSD>  (1) 
0.109450541

$$$$
