
     RDKit          3D

 20 21  0  0  0  0  0  0  0  0999 V2000
   37.2330   30.5350   40.3410 C   0  0  0  0  0  0  0  0  0  0  0  0
   37.3040   31.8850   40.5700 C   0  0  0  0  0  0  0  0  0  0  0  0
   37.3160   32.7230   39.4820 C   0  0  0  0  0  0  0  0  0  0  0  0
   37.2590   32.2480   38.2090 N   0  0  0  0  0  0  0  0  0  0  0  0
   37.1900   30.9090   38.0140 C   0  0  0  0  0  0  0  0  0  0  0  0
   37.1780   30.0730   39.0770 N   0  0  0  0  0  0  0  0  0  0  0  0
   38.0780   28.9130   43.5240 C   0  0  0  0  0  0  0  0  0  0  0  0
   37.1740   27.8030   43.5340 C   0  0  0  0  0  0  0  0  0  0  0  0
   36.3150   27.6480   42.4610 C   0  0  0  0  0  0  0  0  0  0  0  0
   36.3580   28.5550   41.4380 N   0  0  0  0  0  0  0  0  0  0  0  0
   37.2170   29.5920   41.4490 C   0  0  0  0  0  0  0  0  0  0  0  0
   38.0660   29.7640   42.4870 N   0  0  0  0  0  0  0  0  0  0  0  0
   37.1250   30.2700   36.7060 C   0  0  0  0  0  0  0  0  0  0  0  0
   36.1540   29.5820   36.3000 O   0  0  0  0  0  0  0  0  0  0  0  0
   37.3499   32.2846   41.5938 H   0  0  0  0  0  0  0  0  0  0  0  0
   37.3734   33.8094   39.6449 H   0  0  0  0  0  0  0  0  0  0  0  0
   38.7766   29.0668   44.3596 H   0  0  0  0  0  0  0  0  0  0  0  0
   37.1628   27.0919   44.3732 H   0  0  0  0  0  0  0  0  0  0  0  0
   35.6069   26.8068   42.4308 H   0  0  0  0  0  0  0  0  0  0  0  0
   37.9823   30.3980   36.0288 H   0  0  0  0  0  0  0  0  0  0  0  0
  1  2  2  0
  1 11  1  0
  3  2  1  0
  4  3  2  0
  5  4  1  0
  5  6  2  0
  6  1  1  0
  7  8  2  0
  9  8  1  0
 10 11  1  0
 10  9  2  0
 11 12  2  0
 12  7  1  0
 13  5  1  0
 14 13  2  0
  2 15  1  0
  3 16  1  0
  7 17  1  0
  8 18  1  0
  9 19  1  0
 13 20  1  0
M  ISO  6  15  14  16  14  17  14  18  14  19  14  20   6
M  END
>  <minimizedAffinity>  (1) 
-3.89577913

>  <minimizedRMSD>  (1) 
0.338803023

$$$$
