
     RDKit          3D

 35 37  0  0  0  0  0  0  0  0999 V2000
   36.9520   29.9830   39.9980 C   0  0  0  0  0  0  0  0  0  0  0  0
   37.5580   31.2090   39.9600 C   0  0  0  0  0  0  0  0  0  0  0  0
   38.4210   31.5200   40.9830 C   0  0  0  0  0  0  0  0  0  0  0  0
   38.6790   30.6550   42.0030 N   0  0  0  0  0  0  0  0  0  0  0  0
   38.0620   29.4530   42.0060 C   0  0  0  0  0  0  0  0  0  0  0  0
   37.2130   29.1290   41.0160 N   0  0  0  0  0  0  0  0  0  0  0  0
   33.8990   28.7680   38.3640 C   0  0  0  0  0  0  0  0  0  0  0  0
   34.2630   28.8030   36.9890 C   0  0  0  0  0  0  0  0  0  0  0  0
   35.5270   29.2380   36.6750 C   0  0  0  0  0  0  0  0  0  0  0  0
   36.3930   29.6190   37.6680 N   0  0  0  0  0  0  0  0  0  0  0  0
   36.0260   29.5760   38.9560 C   0  0  0  0  0  0  0  0  0  0  0  0
   34.7820   29.1520   39.2980 N   0  0  0  0  0  0  0  0  0  0  0  0
   38.2570   28.4500   43.0400 C   0  0  0  0  0  0  0  0  0  0  0  0
   37.4500   28.2600   43.9960 O   0  0  0  0  0  0  0  0  0  0  0  0
   39.4530   27.6540   42.9240 N   0  0  0  0  0  0  0  0  0  0  0  0
   40.5540   27.6080   41.9880 C   0  0  0  0  0  0  0  0  0  0  0  0
   40.7510   26.2260   41.4100 C   0  0  0  0  0  0  0  0  0  0  0  0
   39.6600   25.2730   41.8430 C   0  0  0  0  0  0  0  0  0  0  0  0
   39.6040   25.2450   43.3620 C   0  0  0  0  0  0  0  0  0  0  0  0
   39.7070   26.6360   43.9230 C   0  0  0  0  0  0  0  0  0  0  0  0
   37.3620   31.9182   39.1423 H   0  0  0  0  0  0  0  0  0  0  0  0
   38.9201   32.5002   40.9780 H   0  0  0  0  0  0  0  0  0  0  0  0
   32.8961   28.4269   38.6604 H   0  0  0  0  0  0  0  0  0  0  0  0
   33.5566   28.4925   36.2050 H   0  0  0  0  0  0  0  0  0  0  0  0
   35.8462   29.2811   35.6232 H   0  0  0  0  0  0  0  0  0  0  0  0
   40.3506   28.3105   41.1663 H   0  0  0  0  0  0  0  0  0  0  0  0
   41.4711   27.8825   42.5299 H   0  0  0  0  0  0  0  0  0  0  0  0
   41.7211   25.8337   41.7491 H   0  0  0  0  0  0  0  0  0  0  0  0
   40.7174   26.3071   40.3135 H   0  0  0  0  0  0  0  0  0  0  0  0
   38.6930   25.6132   41.4442 H   0  0  0  0  0  0  0  0  0  0  0  0
   39.8729   24.2642   41.4595 H   0  0  0  0  0  0  0  0  0  0  0  0
   38.6511   24.7970   43.6801 H   0  0  0  0  0  0  0  0  0  0  0  0
   40.4495   24.6491   43.7363 H   0  0  0  0  0  0  0  0  0  0  0  0
   40.7206   26.7807   44.3252 H   0  0  0  0  0  0  0  0  0  0  0  0
   38.9436   26.7386   44.7083 H   0  0  0  0  0  0  0  0  0  0  0  0
  1  6  1  0
  2  1  2  0
  2  3  1  0
  3  4  2  0
  4  5  1  0
  5 13  1  0
  6  5  2  0
  7 12  2  0
  8  7  1  0
  9  8  2  0
  9 10  1  0
 10 11  2  0
 11 12  1  0
 11  1  1  0
 13 14  2  0
 15 13  1  0
 15 20  1  0
 16 15  1  0
 17 18  1  0
 17 16  1  0
 18 19  1  0
 19 20  1  0
  2 21  1  0
  3 22  1  0
  7 23  1  0
  8 24  1  0
  9 25  1  0
 16 26  1  0
 16 27  1  0
 17 28  1  0
 17 29  1  0
 18 30  1  0
 18 31  1  0
 19 32  1  0
 19 33  1  0
 20 34  1  0
 20 35  1  0
M  ISO  8  21  14  22  14  23  14  24  14  25  14  26  13  27  13  28  13
M  ISO  7  29  13  30  13  31  13  32  13  33  13  34  13  35  13
M  END
>  <minimizedAffinity>  (1) 
-4.72193909

>  <minimizedRMSD>  (1) 
6.58699226

$$$$
