
     RDKit          3D

 27 29  0  0  0  0  0  0  0  0999 V2000
   37.5730   30.0620   40.7100 C   0  0  0  0  0  0  0  0  0  0  0  0
   37.8490   31.4040   40.8700 C   0  0  0  0  0  0  0  0  0  0  0  0
   37.5490   32.2520   39.8360 C   0  0  0  0  0  0  0  0  0  0  0  0
   36.9910   31.7920   38.6770 N   0  0  0  0  0  0  0  0  0  0  0  0
   36.7340   30.4790   38.5550 C   0  0  0  0  0  0  0  0  0  0  0  0
   37.0270   29.6280   39.5690 N   0  0  0  0  0  0  0  0  0  0  0  0
   39.4550   28.0100   43.1050 C   0  0  0  0  0  0  0  0  0  0  0  0
   38.4050   27.3250   43.7850 C   0  0  0  0  0  0  0  0  0  0  0  0
   37.1080   27.5830   43.4080 C   0  0  0  0  0  0  0  0  0  0  0  0
   36.8520   28.4830   42.3990 N   0  0  0  0  0  0  0  0  0  0  0  0
   37.8710   29.1120   41.7790 C   0  0  0  0  0  0  0  0  0  0  0  0
   39.1630   28.8800   42.1250 N   0  0  0  0  0  0  0  0  0  0  0  0
   36.1430   29.8370   37.3810 C   0  0  0  0  0  0  0  0  0  0  0  0
   35.0320   29.2600   37.3650 O   0  0  0  0  0  0  0  0  0  0  0  0
   36.8670   29.8370   36.0730 C   0  0  0  0  0  0  0  0  0  0  0  0
   36.3040   29.2020   34.8770 C   0  0  0  0  0  0  0  0  0  0  0  0
   37.3710   28.4340   35.7090 C   0  0  0  0  0  0  0  0  0  0  0  0
   38.2969   31.7826   41.8006 H   0  0  0  0  0  0  0  0  0  0  0  0
   37.7621   33.3260   39.9416 H   0  0  0  0  0  0  0  0  0  0  0  0
   40.5032   27.8257   43.3832 H   0  0  0  0  0  0  0  0  0  0  0  0
   38.6269   26.6090   44.5900 H   0  0  0  0  0  0  0  0  0  0  0  0
   36.2758   27.0704   43.9126 H   0  0  0  0  0  0  0  0  0  0  0  0
   37.2730   30.8505   36.2068 H   0  0  0  0  0  0  0  0  0  0  0  0
   36.5614   29.5881   33.8797 H   0  0  0  0  0  0  0  0  0  0  0  0
   35.2850   28.9751   34.5303 H   0  0  0  0  0  0  0  0  0  0  0  0
   37.0853   27.5624   36.3162 H   0  0  0  0  0  0  0  0  0  0  0  0
   38.3458   27.9630   35.5143 H   0  0  0  0  0  0  0  0  0  0  0  0
  1  2  2  0
  1 11  1  0
  3  2  1  0
  4  3  2  0
  5  4  1  0
  5  6  2  0
  6  1  1  0
  7  8  2  0
  9  8  1  0
 10  9  2  0
 11 12  2  0
 11 10  1  0
 12  7  1  0
 13  5  1  0
 14 13  2  0
 15 13  1  0
 16 17  1  0
 16 15  1  0
 17 15  1  0
  2 18  1  0
  3 19  1  0
  7 20  1  0
  8 21  1  0
  9 22  1  0
 15 23  1  0
 16 24  1  0
 16 25  1  0
 17 26  1  0
 17 27  1  0
M  ISO  8  18  14  19  14  20  14  21  14  22  14  23  13  24  13  25  13
M  ISO  2  26  13  27  13
M  END
>  <minimizedAffinity>  (1) 
-4.10645103

>  <minimizedRMSD>  (1) 
1.65576196

$$$$
