
     RDKit          3D

 30 31  0  0  0  0  0  0  0  0999 V2000
   38.9590   30.5200   42.5780 C   0  0  0  0  0  0  0  0  0  0  0  0
   37.8700   29.7620   42.0400 C   0  0  0  0  0  0  0  0  0  0  0  0
   37.8960   29.6290   40.6690 C   0  0  0  0  0  0  0  0  0  0  0  0
   38.8790   30.1780   39.9190 N   0  0  0  0  0  0  0  0  0  0  0  0
   39.8880   30.8870   40.4810 C   0  0  0  0  0  0  0  0  0  0  0  0
   39.9110   31.0460   41.8060 N   0  0  0  0  0  0  0  0  0  0  0  0
   40.9170   31.4610   39.6850 N   0  0  0  0  0  0  0  0  0  0  0  0
   40.9500   31.3230   38.2300 C   0  0  0  0  0  0  0  0  0  0  0  0
   40.9350   32.7210   37.6650 C   0  0  0  0  0  0  0  0  0  0  0  0
   41.3020   33.6990   38.5810 O   0  0  0  0  0  0  0  0  0  0  0  0
   42.3920   33.3040   39.3570 C   0  0  0  0  0  0  0  0  0  0  0  0
   41.9750   32.2120   40.3450 C   0  0  0  0  0  0  0  0  0  0  0  0
   36.8990   29.2350   42.9290 N   0  0  0  0  0  0  0  0  0  0  0  0
   37.1530   28.2310   43.8890 C   0  0  0  0  0  0  0  0  0  0  0  0
   37.9760   27.2770   43.5190 N   0  0  0  0  0  0  0  0  0  0  0  0
   36.4840   28.3710   45.1520 N   0  0  0  0  0  0  0  0  0  0  0  0
   38.2350   26.4970   44.1400 H   0  0  0  0  0  0  0  0  0  0  0  0
   39.0124   30.6739   43.6659 H   0  0  0  0  0  0  0  0  0  0  0  0
   37.0962   29.0613   40.1709 H   0  0  0  0  0  0  0  0  0  0  0  0
   41.8651   30.7976   37.9191 H   0  0  0  0  0  0  0  0  0  0  0  0
   40.0915   30.7389   37.8670 H   0  0  0  0  0  0  0  0  0  0  0  0
   41.6344   32.7600   36.8169 H   0  0  0  0  0  0  0  0  0  0  0  0
   39.8984   32.9348   37.3654 H   0  0  0  0  0  0  0  0  0  0  0  0
   43.1833   32.9149   38.6993 H   0  0  0  0  0  0  0  0  0  0  0  0
   42.7626   34.1729   39.9206 H   0  0  0  0  0  0  0  0  0  0  0  0
   41.6014   32.6613   41.2769 H   0  0  0  0  0  0  0  0  0  0  0  0
   42.8229   31.5648   40.6138 H   0  0  0  0  0  0  0  0  0  0  0  0
   35.9418   29.6107   42.8704 H   0  0  0  0  0  0  0  0  0  0  0  0
   36.6296   27.6699   45.8924 H   0  0  0  0  0  0  0  0  0  0  0  0
   35.8586   29.1725   45.3175 H   0  0  0  0  0  0  0  0  0  0  0  0
  2  1  2  0
  2 13  1  0
  3  2  1  0
  4  5  1  0
  4  3  2  0
  5  6  2  0
  6  1  1  0
  7 12  1  0
  7  5  1  0
  8  7  1  0
  9  8  1  0
  9 10  1  0
 10 11  1  0
 11 12  1  0
 13 14  1  0
 14 16  1  0
 15 14  2  0
 15 17  1  0
  1 18  1  0
  3 19  1  0
  8 20  1  0
  8 21  1  0
  9 22  1  0
  9 23  1  0
 11 24  1  0
 11 25  1  0
 12 26  1  0
 12 27  1  0
 13 28  1  0
 16 29  1  0
 16 30  1  0
M  ISO  8  18  14  19  14  20  13  21  13  22  13  23  13  24  13  25  13
M  ISO  2  26  13  27  13
M  END
>  <minimizedAffinity>  (1) 
-4.71320391

>  <minimizedRMSD>  (1) 
6.61630774

$$$$
