
     RDKit          3D

 46 49  0  0  1  0  0  0  0  0999 V2000
   37.6660   28.4520   43.1390 C   0  0  0  0  0  0  0  0  0  0  0  0
   37.1540   28.3980   44.2900 O   0  0  0  0  0  0  0  0  0  0  0  0
   38.7850   27.6550   42.7300 N   0  0  0  0  0  0  0  0  0  0  0  0
   39.9990   27.4070   43.4900 C   0  0  0  0  0  0  0  0  0  0  0  0
   41.1260   27.7510   42.5220 C   0  0  0  0  0  0  0  0  0  0  0  0
   41.1660   26.7210   41.5120 N   0  0  0  0  0  0  0  0  0  0  0  0
   39.9150   26.3440   40.9610 C   0  0  0  0  0  0  0  0  0  0  0  0
   38.6980   27.0390   41.4420 C   0  0  1  0  0  0  0  0  0  0  0  0
   37.6430   31.3160   40.8810 C   0  0  0  0  0  0  0  0  0  0  0  0
   36.5100   31.1550   40.1270 C   0  0  0  0  0  0  0  0  0  0  0  0
   35.7370   30.0440   40.3960 C   0  0  0  0  0  0  0  0  0  0  0  0
   36.0550   29.1430   41.3470 N   0  0  0  0  0  0  0  0  0  0  0  0
   37.1850   29.3380   42.0730 C   0  0  0  0  0  0  0  0  0  0  0  0
   37.9540   30.4190   41.8240 N   0  0  0  0  0  0  0  0  0  0  0  0
   38.7660   34.7440   40.1480 C   0  0  0  0  0  0  0  0  0  0  0  0
   40.1680   34.6290   40.2560 C   0  0  0  0  0  0  0  0  0  0  0  0
   40.6980   33.3960   40.5730 C   0  0  0  0  0  0  0  0  0  0  0  0
   39.8520   32.3400   40.7700 N   0  0  0  0  0  0  0  0  0  0  0  0
   38.5140   32.4570   40.6660 C   0  0  0  0  0  0  0  0  0  0  0  0
   37.9950   33.6590   40.3560 N   0  0  0  0  0  0  0  0  0  0  0  0
   37.5040   26.2390   41.4160 N   0  0  0  0  0  0  0  0  0  0  0  0
   37.0690   26.0710   40.0600 C   0  0  0  0  0  0  0  0  0  0  0  0
   36.9470   24.5790   39.8360 C   0  0  0  0  0  0  0  0  0  0  0  0
   36.6710   24.1020   41.2630 C   0  0  0  0  0  0  0  0  0  0  0  0
   37.5900   24.9810   42.0620 C   0  0  0  0  0  0  0  0  0  0  0  0
   40.0398   28.0515   44.3805 H   0  0  0  0  0  0  0  0  0  0  0  0
   40.0612   26.3719   43.8569 H   0  0  0  0  0  0  0  0  0  0  0  0
   40.9329   28.7275   42.0539 H   0  0  0  0  0  0  0  0  0  0  0  0
   42.0873   27.8069   43.0538 H   0  0  0  0  0  0  0  0  0  0  0  0
   41.7614   27.0574   40.7418 H   0  0  0  0  0  0  0  0  0  0  0  0
   39.7795   25.2715   41.1642 H   0  0  0  0  0  0  0  0  0  0  0  0
   39.9886   26.6275   39.9007 H   0  0  0  0  0  0  0  0  0  0  0  0
   38.6286   27.8399   40.6912 H   0  0  0  0  0  0  0  0  0  0  0  0
   36.2303   31.8765   39.3452 H   0  0  0  0  0  0  0  0  0  0  0  0
   34.8206   29.8866   39.8083 H   0  0  0  0  0  0  0  0  0  0  0  0
   38.3064   35.7111   39.8962 H   0  0  0  0  0  0  0  0  0  0  0  0
   40.8206   35.4992   40.0918 H   0  0  0  0  0  0  0  0  0  0  0  0
   41.7861   33.2639   40.6661 H   0  0  0  0  0  0  0  0  0  0  0  0
   36.0953   26.5599   39.9088 H   0  0  0  0  0  0  0  0  0  0  0  0
   37.7786   26.5253   39.3528 H   0  0  0  0  0  0  0  0  0  0  0  0
   36.1143   24.3371   39.1592 H   0  0  0  0  0  0  0  0  0  0  0  0
   37.8232   24.1147   39.3599 H   0  0  0  0  0  0  0  0  0  0  0  0
   35.6193   24.2623   41.5428 H   0  0  0  0  0  0  0  0  0  0  0  0
   36.8400   23.0256   41.4142 H   0  0  0  0  0  0  0  0  0  0  0  0
   38.6204   24.5968   42.0354 H   0  0  0  0  0  0  0  0  0  0  0  0
   37.3125   25.0299   43.1253 H   0  0  0  0  0  0  0  0  0  0  0  0
  1  2  2  0
  3  1  1  0
  3  4  1  0
  5  4  1  0
  6  5  1  0
  7  8  1  0
  7  6  1  0
  8  3  1  0
  9 14  2  0
 10 11  2  0
 10  9  1  0
 11 12  1  0
 12 13  2  0
 13  1  1  0
 14 13  1  0
 15 16  2  0
 15 20  1  0
 16 17  1  0
 17 18  2  0
 19 18  1  0
 19  9  1  0
 20 19  2  0
 21 22  1  0
 21  8  1  0
 21 25  1  0
 23 22  1  0
 23 24  1  0
 24 25  1  0
  4 26  1  0
  4 27  1  0
  5 28  1  0
  5 29  1  0
  6 30  1  0
  7 31  1  0
  7 32  1  0
  8 33  1  6
 10 34  1  0
 11 35  1  0
 15 36  1  0
 16 37  1  0
 17 38  1  0
 22 39  1  0
 22 40  1  0
 23 41  1  0
 23 42  1  0
 24 43  1  0
 24 44  1  0
 25 45  1  0
 25 46  1  0
M  ISO  8  26  13  27  13  28  13  29  13  30   5  31  13  32  13  33  13
M  ISO  8  34  14  35  14  36  14  37  14  38  14  39  13  40  13  41  13
M  ISO  5  42  13  43  13  44  13  45  13  46  13
M  END
>  <minimizedAffinity>  (1) 
-6.28026628

>  <minimizedRMSD>  (1) 
6.16839266

$$$$
