
     RDKit          3D

 48 51  0  0  1  0  0  0  0  0999 V2000
   38.8060   30.2160   38.3510 C   0  0  0  0  0  0  0  0  0  0  0  0
   38.2150   30.2620   37.2380 O   0  0  0  0  0  0  0  0  0  0  0  0
   40.2120   30.4150   38.5060 N   0  0  0  0  0  0  0  0  0  0  0  0
   41.2750   29.8480   37.6870 C   0  0  0  0  0  0  0  0  0  0  0  0
   42.2310   29.2170   38.7080 C   0  0  0  0  0  0  0  0  0  0  0  0
   42.8990   30.2900   39.4050 N   0  0  0  0  0  0  0  0  0  0  0  0
   42.0790   31.3440   39.8390 C   0  0  0  0  0  0  0  0  0  0  0  0
   40.6320   31.2650   39.5830 C   0  0  1  0  0  0  0  0  0  0  0  0
   38.0650   28.5460   41.4980 C   0  0  0  0  0  0  0  0  0  0  0  0
   37.0170   29.2460   42.0140 C   0  0  0  0  0  0  0  0  0  0  0  0
   36.5490   30.3030   41.2880 C   0  0  0  0  0  0  0  0  0  0  0  0
   37.0760   30.6710   40.1020 N   0  0  0  0  0  0  0  0  0  0  0  0
   38.1170   29.9520   39.6200 C   0  0  0  0  0  0  0  0  0  0  0  0
   38.6050   28.8960   40.3190 N   0  0  0  0  0  0  0  0  0  0  0  0
   39.9100   26.5630   43.9880 C   0  0  0  0  0  0  0  0  0  0  0  0
   39.6780   25.2370   43.5470 C   0  0  0  0  0  0  0  0  0  0  0  0
   38.9070   25.0550   42.4220 C   0  0  0  0  0  0  0  0  0  0  0  0
   38.3930   26.1450   41.7720 N   0  0  0  0  0  0  0  0  0  0  0  0
   38.6270   27.4010   42.2110 C   0  0  0  0  0  0  0  0  0  0  0  0
   39.3790   27.6060   43.3110 N   0  0  0  0  0  0  0  0  0  0  0  0
   39.9850   32.5610   39.4320 N   0  0  0  0  0  0  0  0  0  0  0  0
   40.7310   33.5110   38.6910 C   0  0  0  0  0  0  0  0  0  0  0  0
   40.8780   34.8500   39.3370 C   0  0  0  0  0  0  0  0  0  0  0  0
   39.6850   35.3480   39.9480 N   0  0  0  0  0  0  0  0  0  0  0  0
   38.7730   34.3430   40.4050 C   0  0  0  0  0  0  0  0  0  0  0  0
   39.5180   33.0630   40.7080 C   0  0  0  0  0  0  0  0  0  0  0  0
   40.8764   29.0860   37.0011 H   0  0  0  0  0  0  0  0  0  0  0  0
   41.7679   30.5991   37.0522 H   0  0  0  0  0  0  0  0  0  0  0  0
   41.6637   28.6022   39.4223 H   0  0  0  0  0  0  0  0  0  0  0  0
   42.9637   28.5713   38.2019 H   0  0  0  0  0  0  0  0  0  0  0  0
   43.3616   29.8885   40.2331 H   0  0  0  0  0  0  0  0  0  0  0  0
   42.2110   31.4298   40.9277 H   0  0  0  0  0  0  0  0  0  0  0  0
   42.4099   32.2044   39.2388 H   0  0  0  0  0  0  0  0  0  0  0  0
   40.2951   30.7847   40.5135 H   0  0  0  0  0  0  0  0  0  0  0  0
   36.5652   28.9704   42.9783 H   0  0  0  0  0  0  0  0  0  0  0  0
   35.7033   30.8813   41.6885 H   0  0  0  0  0  0  0  0  0  0  0  0
   40.5233   26.7445   44.8829 H   0  0  0  0  0  0  0  0  0  0  0  0
   40.1018   24.3781   44.0880 H   0  0  0  0  0  0  0  0  0  0  0  0
   38.7049   24.0407   42.0473 H   0  0  0  0  0  0  0  0  0  0  0  0
   40.2316   33.6542   37.7214 H   0  0  0  0  0  0  0  0  0  0  0  0
   41.7480   33.1005   38.6058 H   0  0  0  0  0  0  0  0  0  0  0  0
   41.6550   34.7741   40.1120 H   0  0  0  0  0  0  0  0  0  0  0  0
   41.1375   35.5572   38.5354 H   0  0  0  0  0  0  0  0  0  0  0  0
   39.9572   35.9240   40.7573 H   0  0  0  0  0  0  0  0  0  0  0  0
   38.2704   34.6959   41.3176 H   0  0  0  0  0  0  0  0  0  0  0  0
   38.0288   34.1484   39.6186 H   0  0  0  0  0  0  0  0  0  0  0  0
   38.8461   32.3331   41.1831 H   0  0  0  0  0  0  0  0  0  0  0  0
   40.3532   33.2377   41.4022 H   0  0  0  0  0  0  0  0  0  0  0  0
  1  3  1  0
  1 13  1  0
  2  1  2  0
  3  8  1  0
  4  3  1  0
  4  5  1  0
  5  6  1  0
  6  7  1  0
  8  7  1  0
  9 10  2  0
  9 19  1  0
 11 10  1  0
 12 11  2  0
 13 12  1  0
 13 14  2  0
 14  9  1  0
 16 15  2  0
 17 16  1  0
 18 19  1  0
 18 17  2  0
 19 20  2  0
 20 15  1  0
 21  8  1  0
 21 26  1  0
 22 23  1  0
 22 21  1  0
 23 24  1  0
 24 25  1  0
 25 26  1  0
  4 27  1  0
  4 28  1  0
  5 29  1  0
  5 30  1  0
  6 31  1  0
  7 32  1  0
  7 33  1  0
  8 34  1  1
 10 35  1  0
 11 36  1  0
 15 37  1  0
 16 38  1  0
 17 39  1  0
 22 40  1  0
 22 41  1  0
 23 42  1  0
 23 43  1  0
 24 44  1  0
 25 45  1  0
 25 46  1  0
 26 47  1  0
 26 48  1  0
M  ISO  8  27  13  28  13  29  13  30  13  31   5  32  13  33  13  34  13
M  ISO  8  35  14  36  14  37  14  38  14  39  14  40  13  41  13  42  13
M  ISO  6  43  13  44   5  45  13  46  13  47  13  48  13
M  END
>  <minimizedAffinity>  (1) 
-5.60845137

>  <minimizedRMSD>  (1) 
3.33132958

$$$$
