
     RDKit          3D

 42 45  0  0  1  0  0  0  0  0999 V2000
   37.1500   30.3920   39.9310 C   0  0  0  0  0  0  0  0  0  0  0  0
   36.2050   31.2310   39.9990 O   0  0  0  0  0  0  0  0  0  0  0  0
   37.9090   30.1410   38.7440 N   0  0  0  0  0  0  0  0  0  0  0  0
   37.3920   29.9760   37.3950 C   0  0  0  0  0  0  0  0  0  0  0  0
   38.0340   28.6670   36.9180 C   0  0  0  0  0  0  0  0  0  0  0  0
   39.4360   28.9260   36.6930 N   0  0  0  0  0  0  0  0  0  0  0  0
   40.0910   29.6490   37.7010 C   0  0  0  0  0  0  0  0  0  0  0  0
   39.3320   30.0460   38.9170 C   0  0  1  0  0  0  0  0  0  0  0  0
   37.9270   27.3530   41.8050 C   0  0  0  0  0  0  0  0  0  0  0  0
   38.3400   27.8110   43.0280 C   0  0  0  0  0  0  0  0  0  0  0  0
   38.3560   29.1740   43.2250 C   0  0  0  0  0  0  0  0  0  0  0  0
   37.9880   30.0460   42.2750 N   0  0  0  0  0  0  0  0  0  0  0  0
   37.5830   29.5640   41.0740 C   0  0  0  0  0  0  0  0  0  0  0  0
   37.5610   28.2290   40.8650 N   0  0  0  0  0  0  0  0  0  0  0  0
   38.9210   23.8310   41.5660 C   0  0  0  0  0  0  0  0  0  0  0  0
   37.7640   23.2380   40.9770 C   0  0  0  0  0  0  0  0  0  0  0  0
   36.7020   24.0580   40.6900 C   0  0  0  0  0  0  0  0  0  0  0  0
   36.7700   25.3950   40.9650 N   0  0  0  0  0  0  0  0  0  0  0  0
   37.8840   25.9390   41.5260 C   0  0  0  0  0  0  0  0  0  0  0  0
   38.9450   25.1510   41.8200 N   0  0  0  0  0  0  0  0  0  0  0  0
   39.8990   31.2960   39.5130 C   0  0  0  0  0  0  0  0  0  0  0  0
   40.8240   31.2210   40.5610 C   0  0  0  0  0  0  0  0  0  0  0  0
   41.3740   32.3420   41.1440 C   0  0  0  0  0  0  0  0  0  0  0  0
   40.9980   33.5320   40.6800 N   0  0  0  0  0  0  0  0  0  0  0  0
   40.0970   33.6090   39.6570 C   0  0  0  0  0  0  0  0  0  0  0  0
   39.5310   32.5230   39.0540 N   0  0  0  0  0  0  0  0  0  0  0  0
   36.2950   29.8951   37.4024 H   0  0  0  0  0  0  0  0  0  0  0  0
   37.6261   30.8290   36.7411 H   0  0  0  0  0  0  0  0  0  0  0  0
   37.9148   27.8888   37.6863 H   0  0  0  0  0  0  0  0  0  0  0  0
   37.5527   28.3147   35.9937 H   0  0  0  0  0  0  0  0  0  0  0  0
   39.9133   28.0187   36.5934 H   0  0  0  0  0  0  0  0  0  0  0  0
   40.9396   29.0353   38.0375 H   0  0  0  0  0  0  0  0  0  0  0  0
   40.3356   30.6074   37.2198 H   0  0  0  0  0  0  0  0  0  0  0  0
   39.4648   29.2142   39.6244 H   0  0  0  0  0  0  0  0  0  0  0  0
   38.6475   27.1160   43.8233 H   0  0  0  0  0  0  0  0  0  0  0  0
   38.6837   29.5628   44.2004 H   0  0  0  0  0  0  0  0  0  0  0  0
   39.7933   23.2078   41.8122 H   0  0  0  0  0  0  0  0  0  0  0  0
   37.7251   22.1602   40.7605 H   0  0  0  0  0  0  0  0  0  0  0  0
   35.7922   23.6376   40.2367 H   0  0  0  0  0  0  0  0  0  0  0  0
   41.1231   30.2300   40.9331 H   0  0  0  0  0  0  0  0  0  0  0  0
   42.1000   32.2565   41.9659 H   0  0  0  0  0  0  0  0  0  0  0  0
   39.8095   34.6077   39.2965 H   0  0  0  0  0  0  0  0  0  0  0  0
  1  2  2  0
  1 13  1  0
  3  8  1  0
  3  1  1  0
  4  3  1  0
  5  4  1  0
  6  5  1  0
  6  7  1  0
  7  8  1  0
  8 21  1  0
  9 10  2  0
 10 11  1  0
 12 11  2  0
 13 12  1  0
 14 13  2  0
 14  9  1  0
 15 20  2  0
 16 15  1  0
 17 18  1  0
 17 16  2  0
 18 19  2  0
 19  9  1  0
 19 20  1  0
 21 22  2  0
 22 23  1  0
 24 23  2  0
 25 24  1  0
 26 21  1  0
 26 25  2  0
  4 27  1  0
  4 28  1  0
  5 29  1  0
  5 30  1  0
  6 31  1  0
  7 32  1  0
  7 33  1  0
  8 34  1  1
 10 35  1  0
 11 36  1  0
 15 37  1  0
 16 38  1  0
 17 39  1  0
 22 40  1  0
 23 41  1  0
 25 42  1  0
M  ISO  8  27  13  28  13  29  13  30  13  31   5  32  13  33  13  34  13
M  ISO  8  35  14  36  14  37  14  38  14  39  14  40  14  41  14  42  14
M  END
>  <minimizedAffinity>  (1) 
-5.52942181

>  <minimizedRMSD>  (1) 
3.85518503

$$$$
