
     RDKit          3D

 41 44  0  0  1  0  0  0  0  0999 V2000
   37.5560   30.6590   39.3220 C   0  0  0  0  0  0  0  0  0  0  0  0
   36.7990   31.6830   39.2800 O   0  0  0  0  0  0  0  0  0  0  0  0
   37.9210   29.8870   38.1880 N   0  0  0  0  0  0  0  0  0  0  0  0
   37.0280   29.4370   37.1340 C   0  0  0  0  0  0  0  0  0  0  0  0
   37.3250   27.9340   37.0230 C   0  0  0  0  0  0  0  0  0  0  0  0
   38.6360   27.7670   36.4570 N   0  0  0  0  0  0  0  0  0  0  0  0
   39.6490   28.5950   36.9830 C   0  0  0  0  0  0  0  0  0  0  0  0
   39.3000   29.5280   38.0920 C   0  0  1  0  0  0  0  0  0  0  0  0
   38.5200   28.2230   41.8600 C   0  0  0  0  0  0  0  0  0  0  0  0
   39.1500   28.9660   42.8230 C   0  0  0  0  0  0  0  0  0  0  0  0
   39.2540   30.3210   42.6120 C   0  0  0  0  0  0  0  0  0  0  0  0
   38.7660   30.9240   41.5140 N   0  0  0  0  0  0  0  0  0  0  0  0
   38.1460   30.1560   40.5800 C   0  0  0  0  0  0  0  0  0  0  0  0
   38.0370   28.8230   40.7740 N   0  0  0  0  0  0  0  0  0  0  0  0
   39.3430   24.6830   42.3870 C   0  0  0  0  0  0  0  0  0  0  0  0
   38.0710   24.0740   42.3030 C   0  0  0  0  0  0  0  0  0  0  0  0
   36.9780   24.8680   42.0720 C   0  0  0  0  0  0  0  0  0  0  0  0
   37.1540   26.2240   41.9310 N   0  0  0  0  0  0  0  0  0  0  0  0
   38.3720   26.7790   42.0150 C   0  0  0  0  0  0  0  0  0  0  0  0
   39.4490   26.0200   42.2400 N   0  0  0  0  0  0  0  0  0  0  0  0
   40.1910   30.7270   38.0230 C   0  0  0  0  0  0  0  0  0  0  0  0
   41.2660   31.0280   38.8590 C   0  0  0  0  0  0  0  0  0  0  0  0
   41.8440   32.1860   38.5070 N   0  0  0  0  0  0  0  0  0  0  0  0
   41.1300   32.6270   37.4370 C   0  0  0  0  0  0  0  0  0  0  0  0
   40.1280   31.7540   37.1320 N   0  0  0  0  0  0  0  0  0  0  0  0
   35.9772   29.6100   37.4096 H   0  0  0  0  0  0  0  0  0  0  0  0
   37.1825   29.9734   36.1862 H   0  0  0  0  0  0  0  0  0  0  0  0
   37.2912   27.4746   38.0219 H   0  0  0  0  0  0  0  0  0  0  0  0
   36.5741   27.4485   36.3824 H   0  0  0  0  0  0  0  0  0  0  0  0
   38.5688   27.9552   35.4466 H   0  0  0  0  0  0  0  0  0  0  0  0
   40.4482   27.9357   37.3526 H   0  0  0  0  0  0  0  0  0  0  0  0
   39.9162   29.2581   36.1470 H   0  0  0  0  0  0  0  0  0  0  0  0
   39.4754   28.9754   39.0268 H   0  0  0  0  0  0  0  0  0  0  0  0
   39.5573   28.4967   43.7307 H   0  0  0  0  0  0  0  0  0  0  0  0
   39.7569   30.9364   43.3725 H   0  0  0  0  0  0  0  0  0  0  0  0
   40.2393   24.0724   42.5707 H   0  0  0  0  0  0  0  0  0  0  0  0
   37.9602   22.9859   42.4205 H   0  0  0  0  0  0  0  0  0  0  0  0
   35.9732   24.4260   42.0004 H   0  0  0  0  0  0  0  0  0  0  0  0
   41.5967   30.3978   39.6977 H   0  0  0  0  0  0  0  0  0  0  0  0
   41.3331   33.5606   36.8919 H   0  0  0  0  0  0  0  0  0  0  0  0
   39.4467   31.8537   36.3660 H   0  0  0  0  0  0  0  0  0  0  0  0
  1 13  1  0
  2  1  2  0
  3  1  1  0
  4  3  1  0
  5  4  1  0
  6  7  1  0
  6  5  1  0
  7  8  1  0
  8  3  1  0
  9 19  1  0
  9 10  2  0
 11 10  1  0
 12 11  2  0
 13 14  2  0
 13 12  1  0
 14  9  1  0
 16 15  2  0
 17 16  1  0
 18 19  1  0
 18 17  2  0
 19 20  2  0
 20 15  1  0
 21  8  1  0
 21 22  2  0
 23 22  1  0
 24 23  2  0
 25 24  1  0
 25 21  1  0
  4 26  1  0
  4 27  1  0
  5 28  1  0
  5 29  1  0
  6 30  1  0
  7 31  1  0
  7 32  1  0
  8 33  1  1
 10 34  1  0
 11 35  1  0
 15 36  1  0
 16 37  1  0
 17 38  1  0
 22 39  1  0
 24 40  1  0
 25 41  1  0
M  ISO  8  26  13  27  13  28  13  29  13  30   5  31  13  32  13  33  13
M  ISO  8  34  14  35  14  36  14  37  14  38  14  39  14  40  14  41   9
M  END
>  <minimizedAffinity>  (1) 
-5.23716593

>  <minimizedRMSD>  (1) 
2.96025968

$$$$
