
     RDKit          3D

 37 39  0  0  1  0  0  0  0  0999 V2000
   37.1750   29.4990   38.0380 C   0  0  0  0  0  0  0  0  0  0  0  0
   36.1310   29.5190   37.3220 O   0  0  0  0  0  0  0  0  0  0  0  0
   38.5030   29.3790   37.5180 N   0  0  0  0  0  0  0  0  0  0  0  0
   38.9350   28.4550   36.4830 C   0  0  0  0  0  0  0  0  0  0  0  0
   40.1490   27.7560   37.0820 C   0  0  0  0  0  0  0  0  0  0  0  0
   41.2250   28.7100   37.1430 N   0  0  0  0  0  0  0  0  0  0  0  0
   40.8880   29.9990   37.6180 C   0  0  0  0  0  0  0  0  0  0  0  0
   39.4870   30.2390   38.0650 C   0  0  1  0  0  0  0  0  0  0  0  0
   37.8200   28.5410   41.5020 C   0  0  0  0  0  0  0  0  0  0  0  0
   37.2530   29.5340   42.2390 C   0  0  0  0  0  0  0  0  0  0  0  0
   36.6380   30.5560   41.5620 C   0  0  0  0  0  0  0  0  0  0  0  0
   36.5750   30.6080   40.2110 N   0  0  0  0  0  0  0  0  0  0  0  0
   37.1530   29.5970   39.5060 C   0  0  0  0  0  0  0  0  0  0  0  0
   37.7650   28.5800   40.1590 N   0  0  0  0  0  0  0  0  0  0  0  0
   39.8640   26.6250   43.8740 C   0  0  0  0  0  0  0  0  0  0  0  0
   39.7460   25.2960   43.3550 C   0  0  0  0  0  0  0  0  0  0  0  0
   38.9860   25.1040   42.2320 C   0  0  0  0  0  0  0  0  0  0  0  0
   38.3700   26.1790   41.6500 N   0  0  0  0  0  0  0  0  0  0  0  0
   38.4910   27.4220   42.1520 C   0  0  0  0  0  0  0  0  0  0  0  0
   39.2290   27.6260   43.2460 N   0  0  0  0  0  0  0  0  0  0  0  0
   39.1910   31.7030   37.8630 C   0  0  0  0  0  0  0  0  0  0  0  0
   38.9090   32.5770   38.7430 O   0  0  0  0  0  0  0  0  0  0  0  0
   39.2270   32.1590   36.5530 O   0  0  0  0  0  0  0  0  0  0  0  0
   39.2110   28.9979   35.5670 H   0  0  0  0  0  0  0  0  0  0  0  0
   38.1433   27.7476   36.1953 H   0  0  0  0  0  0  0  0  0  0  0  0
   39.9112   27.3960   38.0939 H   0  0  0  0  0  0  0  0  0  0  0  0
   40.4373   26.8931   36.4638 H   0  0  0  0  0  0  0  0  0  0  0  0
   41.9513   28.3258   37.7641 H   0  0  0  0  0  0  0  0  0  0  0  0
   41.5450   30.2137   38.4737 H   0  0  0  0  0  0  0  0  0  0  0  0
   41.0115   30.6537   36.7427 H   0  0  0  0  0  0  0  0  0  0  0  0
   39.4229   29.9749   39.1309 H   0  0  0  0  0  0  0  0  0  0  0  0
   37.2866   29.5178   43.3384 H   0  0  0  0  0  0  0  0  0  0  0  0
   36.1760   31.3685   42.1420 H   0  0  0  0  0  0  0  0  0  0  0  0
   40.4658   26.8222   44.7734 H   0  0  0  0  0  0  0  0  0  0  0  0
   40.2524   24.4514   43.8452 H   0  0  0  0  0  0  0  0  0  0  0  0
   38.8719   24.0977   41.8027 H   0  0  0  0  0  0  0  0  0  0  0  0
   39.0414   33.1111   36.3550 H   0  0  0  0  0  0  0  0  0  0  0  0
  1 13  1  0
  2  1  2  0
  3  1  1  0
  3  8  1  0
  4  5  1  0
  4  3  1  0
  5  6  1  0
  6  7  1  0
  7  8  1  0
  9 19  1  0
  9 10  2  0
 11 10  1  0
 12 11  2  0
 13 14  2  0
 13 12  1  0
 14  9  1  0
 16 15  2  0
 17 16  1  0
 18 19  1  0
 18 17  2  0
 19 20  2  0
 20 15  1  0
 21  8  1  0
 21 22  2  0
 23 21  1  0
  4 24  1  0
  4 25  1  0
  5 26  1  0
  5 27  1  0
  6 28  1  0
  7 29  1  0
  7 30  1  0
  8 31  1  1
 10 32  1  0
 11 33  1  0
 15 34  1  0
 16 35  1  0
 17 36  1  0
 23 37  1  0
M  ISO  8  24  13  25  13  26  13  27  13  28   5  29  13  30  13  31  13
M  ISO  6  32  14  33  14  34  14  35  14  36  14  37   3
M  END
>  <minimizedAffinity>  (1) 
-5.20447016

>  <minimizedRMSD>  (1) 
2.34564376

$$$$
