
     RDKit          3D

 41 44  0  0  1  0  0  0  0  0999 V2000
   37.1620   30.5270   41.0100 C   0  0  0  0  0  0  0  0  0  0  0  0
   36.0310   31.0190   41.2730 O   0  0  0  0  0  0  0  0  0  0  0  0
   37.6180   29.2850   41.5300 N   0  0  0  0  0  0  0  0  0  0  0  0
   37.5100   28.8150   42.9010 C   0  0  0  0  0  0  0  0  0  0  0  0
   38.9350   28.3770   43.2520 C   0  0  0  0  0  0  0  0  0  0  0  0
   39.2260   27.1800   42.5140 N   0  0  0  0  0  0  0  0  0  0  0  0
   38.8530   27.1670   41.1600 C   0  0  0  0  0  0  0  0  0  0  0  0
   38.2550   28.4060   40.5860 C   0  0  1  0  0  0  0  0  0  0  0  0
   40.2040   32.3260   40.0920 C   0  0  0  0  0  0  0  0  0  0  0  0
   40.1220   32.4580   38.7370 C   0  0  0  0  0  0  0  0  0  0  0  0
   39.0150   31.9310   38.1020 C   0  0  0  0  0  0  0  0  0  0  0  0
   38.0300   31.2990   38.7800 N   0  0  0  0  0  0  0  0  0  0  0  0
   38.1470   31.1860   40.1290 C   0  0  0  0  0  0  0  0  0  0  0  0
   39.2310   31.7020   40.7590 N   0  0  0  0  0  0  0  0  0  0  0  0
   42.7790   34.6440   41.3130 C   0  0  0  0  0  0  0  0  0  0  0  0
   43.5050   33.8290   42.2090 C   0  0  0  0  0  0  0  0  0  0  0  0
   43.1050   32.5300   42.3730 C   0  0  0  0  0  0  0  0  0  0  0  0
   42.0270   32.0680   41.6700 N   0  0  0  0  0  0  0  0  0  0  0  0
   41.3400   32.8580   40.8150 C   0  0  0  0  0  0  0  0  0  0  0  0
   41.7220   34.1310   40.6460 N   0  0  0  0  0  0  0  0  0  0  0  0
   37.3410   28.1110   39.4420 C   0  0  0  0  0  0  0  0  0  0  0  0
   36.0160   27.9260   39.3910 C   0  0  0  0  0  0  0  0  0  0  0  0
   35.3690   27.6630   38.2330 C   0  0  0  0  0  0  0  0  0  0  0  0
   36.1800   27.6000   37.1090 C   0  0  0  0  0  0  0  0  0  0  0  0
   37.8800   27.9270   37.7670 S   0  0  0  0  0  0  0  0  0  0  0  0
   37.1736   29.6234   43.5668 H   0  0  0  0  0  0  0  0  0  0  0  0
   36.7759   28.0038   43.0154 H   0  0  0  0  0  0  0  0  0  0  0  0
   39.6474   29.1683   42.9758 H   0  0  0  0  0  0  0  0  0  0  0  0
   39.0221   28.1903   44.3325 H   0  0  0  0  0  0  0  0  0  0  0  0
   40.2433   27.0253   42.5589 H   0  0  0  0  0  0  0  0  0  0  0  0
   39.7556   26.9380   40.5744 H   0  0  0  0  0  0  0  0  0  0  0  0
   38.0457   26.4218   41.1050 H   0  0  0  0  0  0  0  0  0  0  0  0
   39.1285   28.9642   40.2180 H   0  0  0  0  0  0  0  0  0  0  0  0
   40.9130   32.9683   38.1679 H   0  0  0  0  0  0  0  0  0  0  0  0
   38.9315   32.0283   37.0095 H   0  0  0  0  0  0  0  0  0  0  0  0
   43.0730   35.6927   41.1587 H   0  0  0  0  0  0  0  0  0  0  0  0
   44.3692   34.2274   42.7607 H   0  0  0  0  0  0  0  0  0  0  0  0
   43.6451   31.8650   43.0630 H   0  0  0  0  0  0  0  0  0  0  0  0
   35.4341   27.9901   40.3223 H   0  0  0  0  0  0  0  0  0  0  0  0
   34.2807   27.5104   38.1857 H   0  0  0  0  0  0  0  0  0  0  0  0
   35.8824   27.4019   36.0687 H   0  0  0  0  0  0  0  0  0  0  0  0
  1  2  2  0
  1  3  1  0
  3  4  1  0
  4  5  1  0
  6  5  1  0
  7  6  1  0
  8  7  1  0
  8  3  1  0
  9 14  1  0
  9 19  1  0
 10  9  2  0
 11 10  1  0
 11 12  2  0
 12 13  1  0
 13 14  2  0
 13  1  1  0
 15 16  2  0
 16 17  1  0
 18 17  2  0
 19 18  1  0
 20 19  2  0
 20 15  1  0
 21  8  1  0
 22 21  2  0
 23 22  1  0
 24 25  1  0
 24 23  2  0
 25 21  1  0
  4 26  1  0
  4 27  1  0
  5 28  1  0
  5 29  1  0
  6 30  1  0
  7 31  1  0
  7 32  1  0
  8 33  1  6
 10 34  1  0
 11 35  1  0
 15 36  1  0
 16 37  1  0
 17 38  1  0
 22 39  1  0
 23 40  1  0
 24 41  1  0
M  ISO  8  26  13  27  13  28  13  29  13  30   5  31  13  32  13  33  13
M  ISO  8  34  14  35  14  36  14  37  14  38  14  39  14  40  14  41  14
M  END
>  <minimizedAffinity>  (1) 
-5.19309235

>  <minimizedRMSD>  (1) 
5.62798309

$$$$
