
     RDKit          3D

 39 42  0  0  1  0  0  0  0  0999 V2000
   37.8030   27.9640   43.2830 C   0  0  0  0  0  0  0  0  0  0  0  0
   37.0270   28.1740   44.2720 O   0  0  0  0  0  0  0  0  0  0  0  0
   37.5350   27.0000   42.2580 N   0  0  0  0  0  0  0  0  0  0  0  0
   37.0720   25.6380   42.4660 C   0  0  0  0  0  0  0  0  0  0  0  0
   38.0550   24.7920   41.6370 C   0  0  0  0  0  0  0  0  0  0  0  0
   37.8000   25.0230   40.2500 N   0  0  0  0  0  0  0  0  0  0  0  0
   37.6210   26.3740   39.8710 C   0  0  0  0  0  0  0  0  0  0  0  0
   37.7450   27.4270   40.9110 C   0  0  1  0  0  0  0  0  0  0  0  0
   41.4000   28.4550   42.9600 C   0  0  0  0  0  0  0  0  0  0  0  0
   41.5350   29.7970   42.7150 C   0  0  0  0  0  0  0  0  0  0  0  0
   40.3910   30.5470   42.6580 C   0  0  0  0  0  0  0  0  0  0  0  0
   39.1670   30.0240   42.8310 N   0  0  0  0  0  0  0  0  0  0  0  0
   39.0660   28.6850   43.0730 C   0  0  0  0  0  0  0  0  0  0  0  0
   40.1740   27.9330   43.1320 N   0  0  0  0  0  0  0  0  0  0  0  0
   44.8790   27.2950   42.8270 C   0  0  0  0  0  0  0  0  0  0  0  0
   44.7540   25.9310   43.1860 C   0  0  0  0  0  0  0  0  0  0  0  0
   43.5000   25.4480   43.4610 C   0  0  0  0  0  0  0  0  0  0  0  0
   42.4230   26.2870   43.3800 N   0  0  0  0  0  0  0  0  0  0  0  0
   42.5650   27.5950   43.0340 C   0  0  0  0  0  0  0  0  0  0  0  0
   43.7890   28.0970   42.7580 N   0  0  0  0  0  0  0  0  0  0  0  0
   36.8390   28.5710   40.5550 C   0  0  0  0  0  0  0  0  0  0  0  0
   35.5070   28.6570   40.7170 N   0  0  0  0  0  0  0  0  0  0  0  0
   35.0580   29.7970   40.2940 O   0  0  0  0  0  0  0  0  0  0  0  0
   36.0890   30.4720   39.8510 C   0  0  0  0  0  0  0  0  0  0  0  0
   37.2100   29.7420   39.9970 N   0  0  0  0  0  0  0  0  0  0  0  0
   37.1196   25.3651   43.5305 H   0  0  0  0  0  0  0  0  0  0  0  0
   36.0237   25.4920   42.1663 H   0  0  0  0  0  0  0  0  0  0  0  0
   39.0882   25.0834   41.8771 H   0  0  0  0  0  0  0  0  0  0  0  0
   37.9215   23.7254   41.8705 H   0  0  0  0  0  0  0  0  0  0  0  0
   38.5972   24.6485   39.7160 H   0  0  0  0  0  0  0  0  0  0  0  0
   38.3690   26.5949   39.0953 H   0  0  0  0  0  0  0  0  0  0  0  0
   36.5673   26.4276   39.5597 H   0  0  0  0  0  0  0  0  0  0  0  0
   38.7999   27.7387   40.9039 H   0  0  0  0  0  0  0  0  0  0  0  0
   42.5250   30.2540   42.5697 H   0  0  0  0  0  0  0  0  0  0  0  0
   40.4788   31.6258   42.4618 H   0  0  0  0  0  0  0  0  0  0  0  0
   45.8730   27.7086   42.6014 H   0  0  0  0  0  0  0  0  0  0  0  0
   45.6371   25.2776   43.2427 H   0  0  0  0  0  0  0  0  0  0  0  0
   43.3617   24.3942   43.7444 H   0  0  0  0  0  0  0  0  0  0  0  0
   36.0452   31.4845   39.4234 H   0  0  0  0  0  0  0  0  0  0  0  0
  1  2  2  0
  3  4  1  0
  3  1  1  0
  5  4  1  0
  6  5  1  0
  7  6  1  0
  7  8  1  0
  8  3  1  0
  9 19  1  0
  9 14  1  0
 10  9  2  0
 11 10  1  0
 11 12  2  0
 12 13  1  0
 13 14  2  0
 13  1  1  0
 15 16  2  0
 16 17  1  0
 18 17  2  0
 19 18  1  0
 20 15  1  0
 20 19  2  0
 21 22  2  0
 21  8  1  0
 23 22  1  0
 24 25  2  0
 24 23  1  0
 25 21  1  0
  4 26  1  0
  4 27  1  0
  5 28  1  0
  5 29  1  0
  6 30  1  0
  7 31  1  0
  7 32  1  0
  8 33  1  1
 10 34  1  0
 11 35  1  0
 15 36  1  0
 16 37  1  0
 17 38  1  0
 24 39  1  0
M  ISO  8  26  13  27  13  28  13  29  13  30   5  31  13  32  13  33  13
M  ISO  6  34  14  35  14  36  14  37  14  38  14  39  14
M  END
>  <minimizedAffinity>  (1) 
-4.93235445

>  <minimizedRMSD>  (1) 
6.18774891

$$$$
