
     RDKit          3D

 43 45  0  0  1  0  0  0  0  0999 V2000
   36.9680   29.3460   38.0290 C   0  0  0  0  0  0  0  0  0  0  0  0
   35.9130   29.3810   37.3300 O   0  0  0  0  0  0  0  0  0  0  0  0
   38.2820   29.1740   37.4910 N   0  0  0  0  0  0  0  0  0  0  0  0
   38.6630   28.1940   36.4590 C   0  0  0  0  0  0  0  0  0  0  0  0
   39.8620   27.4820   37.0650 C   0  0  0  0  0  0  0  0  0  0  0  0
   40.9630   28.3960   37.0740 N   0  0  0  0  0  0  0  0  0  0  0  0
   40.6860   29.6970   37.5140 C   0  0  0  0  0  0  0  0  0  0  0  0
   39.3100   30.0180   37.9890 C   0  0  1  0  0  0  0  0  0  0  0  0
   37.7250   28.4810   41.4910 C   0  0  0  0  0  0  0  0  0  0  0  0
   37.1380   29.4850   42.2220 C   0  0  0  0  0  0  0  0  0  0  0  0
   36.4710   30.4750   41.5280 C   0  0  0  0  0  0  0  0  0  0  0  0
   36.3880   30.4750   40.1880 N   0  0  0  0  0  0  0  0  0  0  0  0
   36.9740   29.4760   39.4920 C   0  0  0  0  0  0  0  0  0  0  0  0
   37.6300   28.5030   40.1630 N   0  0  0  0  0  0  0  0  0  0  0  0
   39.8710   26.6900   43.8630 C   0  0  0  0  0  0  0  0  0  0  0  0
   39.7630   25.3540   43.4040 C   0  0  0  0  0  0  0  0  0  0  0  0
   38.9680   25.1040   42.3050 C   0  0  0  0  0  0  0  0  0  0  0  0
   38.3180   26.1450   41.7050 N   0  0  0  0  0  0  0  0  0  0  0  0
   38.4350   27.4200   42.1640 C   0  0  0  0  0  0  0  0  0  0  0  0
   39.2060   27.6830   43.2330 N   0  0  0  0  0  0  0  0  0  0  0  0
   38.9870   31.4860   37.7820 C   0  0  0  0  0  0  0  0  0  0  0  0
   37.7040   31.6420   36.9590 C   0  0  0  0  0  0  0  0  0  0  0  0
   38.7620   32.2510   39.0480 C   0  0  0  0  0  0  0  0  0  0  0  0
   38.9389   28.6987   35.5213 H   0  0  0  0  0  0  0  0  0  0  0  0
   37.8442   27.5064   36.2004 H   0  0  0  0  0  0  0  0  0  0  0  0
   39.6291   27.1685   38.0933 H   0  0  0  0  0  0  0  0  0  0  0  0
   40.1131   26.5882   36.4750 H   0  0  0  0  0  0  0  0  0  0  0  0
   41.6906   28.0049   37.6893 H   0  0  0  0  0  0  0  0  0  0  0  0
   41.3729   29.9096   38.3464 H   0  0  0  0  0  0  0  0  0  0  0  0
   40.8057   30.3137   36.6110 H   0  0  0  0  0  0  0  0  0  0  0  0
   39.3282   29.8065   39.0683 H   0  0  0  0  0  0  0  0  0  0  0  0
   37.1971   29.4998   43.3203 H   0  0  0  0  0  0  0  0  0  0  0  0
   35.9923   31.2898   42.0911 H   0  0  0  0  0  0  0  0  0  0  0  0
   40.4991   26.9198   44.7363 H   0  0  0  0  0  0  0  0  0  0  0  0
   40.2989   24.5378   43.9106 H   0  0  0  0  0  0  0  0  0  0  0  0
   38.8589   24.0805   41.9170 H   0  0  0  0  0  0  0  0  0  0  0  0
   39.8735   31.8915   37.2724 H   0  0  0  0  0  0  0  0  0  0  0  0
   36.8440   31.7466   37.6368 H   0  0  0  0  0  0  0  0  0  0  0  0
   37.7819   32.5373   36.3247 H   0  0  0  0  0  0  0  0  0  0  0  0
   37.5651   30.7541   36.3247 H   0  0  0  0  0  0  0  0  0  0  0  0
   38.9545   31.5966   39.9110 H   0  0  0  0  0  0  0  0  0  0  0  0
   39.4447   33.1128   39.0819 H   0  0  0  0  0  0  0  0  0  0  0  0
   37.7214   32.6060   39.0819 H   0  0  0  0  0  0  0  0  0  0  0  0
  1 13  1  0
  2  1  2  0
  3  8  1  0
  3  1  1  0
  4  5  1  0
  4  3  1  0
  5  6  1  0
  6  7  1  0
  7  8  1  0
  9 19  1  0
  9 10  2  0
 11 10  1  0
 12 11  2  0
 13 14  2  0
 13 12  1  0
 14  9  1  0
 16 15  2  0
 17 16  1  0
 18 19  1  0
 18 17  2  0
 19 20  2  0
 20 15  1  0
 21  8  1  0
 21 23  1  0
 22 21  1  0
  4 24  1  0
  4 25  1  0
  5 26  1  0
  5 27  1  0
  6 28  1  0
  7 29  1  0
  7 30  1  0
  8 31  1  1
 10 32  1  0
 11 33  1  0
 15 34  1  0
 16 35  1  0
 17 36  1  0
 21 37  1  0
 22 38  1  0
 22 39  1  0
 22 40  1  0
 23 41  1  0
 23 42  1  0
 23 43  1  0
M  ISO  8  24  13  25  13  26  13  27  13  28   5  29  13  30  13  31  13
M  ISO  8  32  14  33  14  34  14  35  14  36  14  37   8  38   8  39   8
M  ISO  4  40   8  41   8  42   8  43   8
M  END
>  <minimizedAffinity>  (1) 
-4.85571432

>  <minimizedRMSD>  (1) 
2.22724748

$$$$
