
     RDKit          3D

 35 37  0  0  1  0  0  0  0  0999 V2000
   37.5180   29.8840   36.8770 C   0  0  0  0  0  0  0  0  0  0  0  0
   36.8550   30.1710   35.8440 O   0  0  0  0  0  0  0  0  0  0  0  0
   38.4990   28.8470   36.9290 N   0  0  0  0  0  0  0  0  0  0  0  0
   38.3700   27.4950   36.3850 C   0  0  0  0  0  0  0  0  0  0  0  0
   38.7550   26.5880   37.5580 C   0  0  0  0  0  0  0  0  0  0  0  0
   40.1750   26.7220   37.7730 N   0  0  0  0  0  0  0  0  0  0  0  0
   40.6860   28.0350   37.7560 C   0  0  0  0  0  0  0  0  0  0  0  0
   39.7410   29.1520   37.5810 C   0  0  1  0  0  0  0  0  0  0  0  0
   37.1800   30.2860   40.4860 C   0  0  0  0  0  0  0  0  0  0  0  0
   37.0840   31.6340   40.6690 C   0  0  0  0  0  0  0  0  0  0  0  0
   37.1340   32.4310   39.5470 C   0  0  0  0  0  0  0  0  0  0  0  0
   37.2710   31.9240   38.3060 N   0  0  0  0  0  0  0  0  0  0  0  0
   37.3640   30.5850   38.1620 C   0  0  0  0  0  0  0  0  0  0  0  0
   37.3170   29.7920   39.2510 N   0  0  0  0  0  0  0  0  0  0  0  0
   37.9140   28.7690   43.7540 C   0  0  0  0  0  0  0  0  0  0  0  0
   37.0330   27.6440   43.7660 C   0  0  0  0  0  0  0  0  0  0  0  0
   36.2240   27.4480   42.6570 C   0  0  0  0  0  0  0  0  0  0  0  0
   36.2880   28.3130   41.6090 N   0  0  0  0  0  0  0  0  0  0  0  0
   37.1360   29.3750   41.6270 C   0  0  0  0  0  0  0  0  0  0  0  0
   37.9310   29.5920   42.6840 N   0  0  0  0  0  0  0  0  0  0  0  0
   40.3770   30.2270   36.9190 O   0  0  0  0  0  0  0  0  0  0  0  0
   37.3367   27.2999   36.0621 H   0  0  0  0  0  0  0  0  0  0  0  0
   39.0003   27.3325   35.4982 H   0  0  0  0  0  0  0  0  0  0  0  0
   38.2093   26.8945   38.4625 H   0  0  0  0  0  0  0  0  0  0  0  0
   38.4978   25.5421   37.3348 H   0  0  0  0  0  0  0  0  0  0  0  0
   40.3937   26.3116   38.6921 H   0  0  0  0  0  0  0  0  0  0  0  0
   41.2047   28.1946   38.7128 H   0  0  0  0  0  0  0  0  0  0  0  0
   41.3151   28.0689   36.8543 H   0  0  0  0  0  0  0  0  0  0  0  0
   39.4522   29.4204   38.6079 H   0  0  0  0  0  0  0  0  0  0  0  0
   36.9710   32.0678   41.6735 H   0  0  0  0  0  0  0  0  0  0  0  0
   37.0593   33.5217   39.6683 H   0  0  0  0  0  0  0  0  0  0  0  0
   38.5746   28.9633   44.6118 H   0  0  0  0  0  0  0  0  0  0  0  0
   36.9978   26.9576   44.6248 H   0  0  0  0  0  0  0  0  0  0  0  0
   35.5313   26.5941   42.6247 H   0  0  0  0  0  0  0  0  0  0  0  0
   40.7480   30.8541   37.5892 H   0  0  0  0  0  0  0  0  0  0  0  0
  1  3  1  0
  1 13  1  0
  2  1  2  0
  3  8  1  0
  4  3  1  0
  4  5  1  0
  5  6  1  0
  7  6  1  0
  8  7  1  0
  9 10  2  0
  9 19  1  0
 11 10  1  0
 12 11  2  0
 13 12  1  0
 13 14  2  0
 14  9  1  0
 15 16  2  0
 17 16  1  0
 18 19  1  0
 18 17  2  0
 19 20  2  0
 20 15  1  0
 21  8  1  0
  4 22  1  0
  4 23  1  0
  5 24  1  0
  5 25  1  0
  6 26  1  0
  7 27  1  0
  7 28  1  0
  8 29  1  1
 10 30  1  0
 11 31  1  0
 15 32  1  0
 16 33  1  0
 17 34  1  0
 21 35  1  0
M  ISO  8  22  13  23  13  24  13  25  13  26   5  27  13  28  13  29  13
M  ISO  6  30  14  31  14  32  14  33  14  34  14  35   3
M  END
>  <minimizedAffinity>  (1) 
-4.78390598

>  <minimizedRMSD>  (1) 
0.229326144

$$$$
