
     RDKit          3D

 36 38  0  0  1  0  0  0  0  0999 V2000
   37.5690   29.8570   36.9090 C   0  0  0  0  0  0  0  0  0  0  0  0
   36.9350   30.1360   35.8590 O   0  0  0  0  0  0  0  0  0  0  0  0
   38.5430   28.8220   36.9720 N   0  0  0  0  0  0  0  0  0  0  0  0
   38.4360   27.4750   36.4290 C   0  0  0  0  0  0  0  0  0  0  0  0
   38.7970   26.5620   37.6150 C   0  0  0  0  0  0  0  0  0  0  0  0
   40.2180   26.6950   37.8450 N   0  0  0  0  0  0  0  0  0  0  0  0
   40.7220   28.0150   37.8440 C   0  0  0  0  0  0  0  0  0  0  0  0
   39.7720   29.1360   37.6450 C   0  0  1  0  0  0  0  0  0  0  0  0
   37.1710   30.2660   40.5020 C   0  0  0  0  0  0  0  0  0  0  0  0
   37.0550   31.6110   40.6810 C   0  0  0  0  0  0  0  0  0  0  0  0
   37.1100   32.4150   39.5690 C   0  0  0  0  0  0  0  0  0  0  0  0
   37.2750   31.8990   38.3220 N   0  0  0  0  0  0  0  0  0  0  0  0
   37.3870   30.5570   38.1890 C   0  0  0  0  0  0  0  0  0  0  0  0
   37.3330   29.7670   39.2750 N   0  0  0  0  0  0  0  0  0  0  0  0
   37.8860   28.7710   43.7830 C   0  0  0  0  0  0  0  0  0  0  0  0
   37.0060   27.6410   43.7940 C   0  0  0  0  0  0  0  0  0  0  0  0
   36.2010   27.4290   42.6850 C   0  0  0  0  0  0  0  0  0  0  0  0
   36.2810   28.3040   41.6300 N   0  0  0  0  0  0  0  0  0  0  0  0
   37.1200   29.3620   41.6460 C   0  0  0  0  0  0  0  0  0  0  0  0
   37.8990   29.5720   42.7130 N   0  0  0  0  0  0  0  0  0  0  0  0
   40.4640   30.2400   36.9900 N   0  0  0  0  0  0  0  0  0  0  0  0
   37.4123   27.2750   36.0798 H   0  0  0  0  0  0  0  0  0  0  0  0
   39.0915   27.3170   35.5599 H   0  0  0  0  0  0  0  0  0  0  0  0
   38.2402   26.8722   38.5115 H   0  0  0  0  0  0  0  0  0  0  0  0
   38.5350   25.5166   37.3946 H   0  0  0  0  0  0  0  0  0  0  0  0
   40.4298   26.2769   38.7622 H   0  0  0  0  0  0  0  0  0  0  0  0
   41.2142   28.1752   38.8146 H   0  0  0  0  0  0  0  0  0  0  0  0
   41.3727   28.0536   36.9579 H   0  0  0  0  0  0  0  0  0  0  0  0
   39.4378   29.4164   38.6548 H   0  0  0  0  0  0  0  0  0  0  0  0
   36.9214   32.0401   41.6850 H   0  0  0  0  0  0  0  0  0  0  0  0
   37.0182   33.5044   39.6903 H   0  0  0  0  0  0  0  0  0  0  0  0
   38.5413   28.9766   44.6422 H   0  0  0  0  0  0  0  0  0  0  0  0
   36.9698   26.9607   44.6576 H   0  0  0  0  0  0  0  0  0  0  0  0
   35.5098   26.5740   42.6511 H   0  0  0  0  0  0  0  0  0  0  0  0
   40.8586   30.8695   37.7034 H   0  0  0  0  0  0  0  0  0  0  0  0
   41.2237   29.8685   36.4020 H   0  0  0  0  0  0  0  0  0  0  0  0
  1  3  1  0
  1 13  1  0
  2  1  2  0
  3  8  1  0
  4  3  1  0
  4  5  1  0
  5  6  1  0
  7  6  1  0
  8  7  1  0
  9 10  2  0
  9 19  1  0
 11 10  1  0
 12 11  2  0
 13 12  1  0
 13 14  2  0
 14  9  1  0
 15 16  2  0
 17 16  1  0
 18 19  1  0
 18 17  2  0
 19 20  2  0
 20 15  1  0
 21  8  1  0
  4 22  1  0
  4 23  1  0
  5 24  1  0
  5 25  1  0
  6 26  1  0
  7 27  1  0
  7 28  1  0
  8 29  1  1
 10 30  1  0
 11 31  1  0
 15 32  1  0
 16 33  1  0
 17 34  1  0
 21 35  1  0
 21 36  1  0
M  ISO  8  22  13  23  13  24  13  25  13  26   5  27  13  28  13  29  13
M  ISO  7  30  14  31  14  32  14  33  14  34  14  35   5  36   5
M  END
>  <minimizedAffinity>  (1) 
-4.72859144

>  <minimizedRMSD>  (1) 
0.269024193

$$$$
