
     RDKit          3D

 35 37  0  0  1  0  0  0  0  0999 V2000
   38.9180   29.8150   37.5820 C   0  0  0  0  0  0  0  0  0  0  0  0
   38.4130   29.4710   36.4730 O   0  0  0  0  0  0  0  0  0  0  0  0
   40.2910   29.6600   37.9010 N   0  0  0  0  0  0  0  0  0  0  0  0
   41.1280   28.4750   37.6600 C   0  0  0  0  0  0  0  0  0  0  0  0
   41.7710   28.1940   39.0130 C   0  0  0  0  0  0  0  0  0  0  0  0
   42.7360   29.2150   39.2640 N   0  0  0  0  0  0  0  0  0  0  0  0
   42.3220   30.5470   39.0160 C   0  0  0  0  0  0  0  0  0  0  0  0
   40.9520   30.7700   38.5280 C   0  0  1  0  0  0  0  0  0  0  0  0
   37.2760   30.0420   40.8250 C   0  0  0  0  0  0  0  0  0  0  0  0
   36.7340   31.2980   40.8410 C   0  0  0  0  0  0  0  0  0  0  0  0
   36.9250   32.0890   39.7300 C   0  0  0  0  0  0  0  0  0  0  0  0
   37.6130   31.6770   38.6550 N   0  0  0  0  0  0  0  0  0  0  0  0
   38.1420   30.4160   38.6730 C   0  0  0  0  0  0  0  0  0  0  0  0
   37.9630   29.6260   39.7550 N   0  0  0  0  0  0  0  0  0  0  0  0
   37.6410   28.5890   44.1850 C   0  0  0  0  0  0  0  0  0  0  0  0
   36.7850   27.4690   44.0990 C   0  0  0  0  0  0  0  0  0  0  0  0
   36.1150   27.2340   42.9300 C   0  0  0  0  0  0  0  0  0  0  0  0
   36.2840   28.0820   41.8680 N   0  0  0  0  0  0  0  0  0  0  0  0
   37.1120   29.1560   41.9640 C   0  0  0  0  0  0  0  0  0  0  0  0
   37.7790   29.3980   43.1180 N   0  0  0  0  0  0  0  0  0  0  0  0
   41.0340   32.0750   37.2560 S   0  0  0  0  0  0  0  0  0  0  0  0
   40.5137   27.6224   37.3348 H   0  0  0  0  0  0  0  0  0  0  0  0
   41.8705   28.6367   36.8647 H   0  0  0  0  0  0  0  0  0  0  0  0
   41.0031   28.2046   39.8005 H   0  0  0  0  0  0  0  0  0  0  0  0
   42.2534   27.2054   39.0086 H   0  0  0  0  0  0  0  0  0  0  0  0
   43.0095   29.1511   40.2550 H   0  0  0  0  0  0  0  0  0  0  0  0
   42.4263   31.1020   39.9600 H   0  0  0  0  0  0  0  0  0  0  0  0
   42.9641   30.8822   38.1881 H   0  0  0  0  0  0  0  0  0  0  0  0
   40.3709   31.0056   39.4318 H   0  0  0  0  0  0  0  0  0  0  0  0
   36.1663   31.6628   41.7097 H   0  0  0  0  0  0  0  0  0  0  0  0
   36.4951   33.1015   39.7240 H   0  0  0  0  0  0  0  0  0  0  0  0
   38.1898   28.7983   45.1151 H   0  0  0  0  0  0  0  0  0  0  0  0
   36.6590   26.7955   44.9596 H   0  0  0  0  0  0  0  0  0  0  0  0
   35.4431   26.3674   42.8432 H   0  0  0  0  0  0  0  0  0  0  0  0
   41.1110   33.3006   37.8634 H   0  0  0  0  0  0  0  0  0  0  0  0
  1  3  1  0
  1 13  1  0
  2  1  2  0
  3  8  1  0
  4  3  1  0
  4  5  1  0
  5  6  1  0
  7  6  1  0
  8  7  1  0
  9 10  2  0
  9 19  1  0
 11 10  1  0
 12 13  1  0
 12 11  2  0
 13 14  2  0
 14  9  1  0
 16 15  2  0
 17 16  1  0
 18 19  1  0
 18 17  2  0
 19 20  2  0
 20 15  1  0
 21  8  1  0
  4 22  1  0
  4 23  1  0
  5 24  1  0
  5 25  1  0
  6 26  1  0
  7 27  1  0
  7 28  1  0
  8 29  1  1
 10 30  1  0
 11 31  1  0
 15 32  1  0
 16 33  1  0
 17 34  1  0
 21 35  1  0
M  ISO  8  22  13  23  13  24  13  25  13  26   5  27  13  28  13  29  13
M  ISO  6  30  14  31  14  32  14  33  14  34  14  35  11
M  END
>  <minimizedAffinity>  (1) 
-3.9861865

>  <minimizedRMSD>  (1) 
1.86500478

$$$$
