
     RDKit          3D

 25 27  0  0  0  0  0  0  0  0999 V2000
   36.7400   26.2240   42.6920 O   0  0  0  0  0  0  0  0  0  0  0  0
   37.1420   27.5480   42.7770 C   0  0  0  0  0  0  0  0  0  0  0  0
   37.9390   28.3140   43.6000 C   0  0  0  0  0  0  0  0  0  0  0  0
   37.9720   29.5770   43.2010 N   0  0  0  0  0  0  0  0  0  0  0  0
   37.1950   29.6970   42.0970 C   0  0  0  0  0  0  0  0  0  0  0  0
   36.9480   30.8370   41.3590 C   0  0  0  0  0  0  0  0  0  0  0  0
   36.1130   30.6680   40.2750 C   0  0  0  0  0  0  0  0  0  0  0  0
   35.5460   29.4600   39.9220 C   0  0  0  0  0  0  0  0  0  0  0  0
   35.8400   28.3680   40.7080 C   0  0  0  0  0  0  0  0  0  0  0  0
   36.6630   28.4370   41.8090 C   0  0  0  0  0  0  0  0  0  0  0  0
   37.3830   23.2560   40.6760 C   0  0  0  0  0  0  0  0  0  0  0  0
   36.6970   24.2440   41.4340 C   0  0  0  0  0  0  0  0  0  0  0  0
   37.4420   25.3020   41.9720 C   0  0  0  0  0  0  0  0  0  0  0  0
   38.7860   25.3310   41.7390 N   0  0  0  0  0  0  0  0  0  0  0  0
   39.3940   24.3800   41.0170 C   0  0  0  0  0  0  0  0  0  0  0  0
   38.7070   23.3660   40.4970 N   0  0  0  0  0  0  0  0  0  0  0  0
   38.4789   27.9263   44.4764 H   0  0  0  0  0  0  0  0  0  0  0  0
   38.4986   30.3382   43.6529 H   0  0  0  0  0  0  0  0  0  0  0  0
   37.3866   31.8120   41.6176 H   0  0  0  0  0  0  0  0  0  0  0  0
   35.8852   31.5476   39.6550 H   0  0  0  0  0  0  0  0  0  0  0  0
   34.8851   29.3729   39.0470 H   0  0  0  0  0  0  0  0  0  0  0  0
   35.3969   27.3965   40.4438 H   0  0  0  0  0  0  0  0  0  0  0  0
   36.8324   22.4091   40.2404 H   0  0  0  0  0  0  0  0  0  0  0  0
   35.6106   24.1797   41.5939 H   0  0  0  0  0  0  0  0  0  0  0  0
   40.4799   24.4385   40.8513 H   0  0  0  0  0  0  0  0  0  0  0  0
  1  2  1  0
  2  3  2  0
  4  3  1  0
  5  4  1  0
  6  5  2  0
  7  6  1  0
  8  7  2  0
  8  9  1  0
  9 10  2  0
 10  5  1  0
 10  2  1  0
 11 12  2  0
 12 13  1  0
 13  1  1  0
 14 13  2  0
 15 14  1  0
 16 11  1  0
 16 15  2  0
  3 17  1  0
  4 18  1  0
  6 19  1  0
  7 20  1  0
  8 21  1  0
  9 22  1  0
 11 23  1  0
 12 24  1  0
 15 25  1  0
M  ISO  8  17  14  18   9  19  14  20  14  21  14  22  14  23  14  24  14
M  ISO  1  25  14
M  END
>  <minimizedAffinity>  (1) 
-4.87784529

>  <minimizedRMSD>  (1) 
5.28688192

$$$$
