
     RDKit          3D

 24 25  0  0  0  0  0  0  0  0999 V2000
   36.6440   26.0650   43.0090 O   0  0  0  0  0  0  0  0  0  0  0  0
   38.2570   29.3430   43.1140 C   0  0  0  0  0  0  0  0  0  0  0  0
   37.9300   28.0170   43.4320 C   0  0  0  0  0  0  0  0  0  0  0  0
   36.9530   27.3670   42.6830 C   0  0  0  0  0  0  0  0  0  0  0  0
   36.3590   28.0640   41.6660 N   0  0  0  0  0  0  0  0  0  0  0  0
   36.6920   29.3400   41.3800 C   0  0  0  0  0  0  0  0  0  0  0  0
   37.6240   29.9730   42.0880 N   0  0  0  0  0  0  0  0  0  0  0  0
   37.9900   23.1030   40.4460 C   0  0  0  0  0  0  0  0  0  0  0  0
   38.8430   23.6960   41.3480 C   0  0  0  0  0  0  0  0  0  0  0  0
   38.4260   24.6840   42.2140 C   0  0  0  0  0  0  0  0  0  0  0  0
   37.1020   25.0750   42.1560 C   0  0  0  0  0  0  0  0  0  0  0  0
   36.2820   24.4560   41.2390 C   0  0  0  0  0  0  0  0  0  0  0  0
   36.6550   23.4690   40.3580 C   0  0  0  0  0  0  0  0  0  0  0  0
   38.6000   21.8510   39.3780 S   0  0  0  0  0  0  0  0  0  0  0  0
   38.6130   20.5310   40.0620 O   0  0  0  0  0  0  0  0  0  0  0  0
   37.7440   21.8420   38.1440 O   0  0  0  0  0  0  0  0  0  0  0  0
   39.0258   29.8740   43.6945 H   0  0  0  0  0  0  0  0  0  0  0  0
   38.4370   27.4991   44.2595 H   0  0  0  0  0  0  0  0  0  0  0  0
   36.1880   29.8621   40.5533 H   0  0  0  0  0  0  0  0  0  0  0  0
   39.8933   23.3707   41.3791 H   0  0  0  0  0  0  0  0  0  0  0  0
   39.1241   25.1459   42.9276 H   0  0  0  0  0  0  0  0  0  0  0  0
   35.2317   24.7814   41.2088 H   0  0  0  0  0  0  0  0  0  0  0  0
   35.9552   23.0091   39.6447 H   0  0  0  0  0  0  0  0  0  0  0  0
   39.8984   22.1088   39.0252 H   0  0  0  0  0  0  0  0  0  0  0  0
  2  3  2  0
  4  1  1  0
  4  3  1  0
  5  4  2  0
  6  5  1  0
  6  7  2  0
  7  2  1  0
  8  9  2  0
  9 10  1  0
 11 10  2  0
 11  1  1  0
 12 11  1  0
 13  8  1  0
 13 12  2  0
 14 15  2  0
 14  8  1  0
 16 14  2  0
  2 17  1  0
  3 18  1  0
  6 19  1  0
  9 20  1  0
 10 21  1  0
 12 22  1  0
 13 23  1  0
 14 24  1  0
M  ISO  8  17  14  18  14  19  14  20  14  21  14  22  14  23  14  24  11
M  END
>  <minimizedAffinity>  (1) 
-4.0048933

>  <minimizedRMSD>  (1) 
3.23871517

$$$$
