
     RDKit          3D

 24 25  0  0  0  0  0  0  0  0999 V2000
   38.0000   28.9780   43.3720 C   0  0  0  0  0  0  0  0  0  0  0  0
   37.8810   27.5780   43.3770 C   0  0  0  0  0  0  0  0  0  0  0  0
   37.1340   26.9630   42.3590 C   0  0  0  0  0  0  0  0  0  0  0  0
   36.5630   27.7740   41.4210 N   0  0  0  0  0  0  0  0  0  0  0  0
   36.6960   29.1090   41.4470 C   0  0  0  0  0  0  0  0  0  0  0  0
   37.4030   29.7170   42.4050 N   0  0  0  0  0  0  0  0  0  0  0  0
   37.0350   25.6010   42.3890 O   0  0  0  0  0  0  0  0  0  0  0  0
   37.4360   24.8820   41.2330 C   0  0  0  0  0  0  0  0  0  0  0  0
   36.2950   23.9810   40.8230 C   0  0  0  0  0  0  0  0  0  0  0  0
   37.0000   23.0180   39.8690 C   0  0  0  0  0  0  0  0  0  0  0  0
   38.3230   22.7870   40.5370 C   0  0  0  0  0  0  0  0  0  0  0  0
   38.5170   23.8690   41.5750 C   0  0  0  0  0  0  0  0  0  0  0  0
   38.5825   29.4786   44.1594 H   0  0  0  0  0  0  0  0  0  0  0  0
   38.3628   26.9763   44.1617 H   0  0  0  0  0  0  0  0  0  0  0  0
   36.2142   29.7146   40.6653 H   0  0  0  0  0  0  0  0  0  0  0  0
   37.7553   25.6205   40.4829 H   0  0  0  0  0  0  0  0  0  0  0  0
   35.8697   23.4512   41.6881 H   0  0  0  0  0  0  0  0  0  0  0  0
   35.4408   24.5114   40.3769 H   0  0  0  0  0  0  0  0  0  0  0  0
   37.1328   23.4721   38.8759 H   0  0  0  0  0  0  0  0  0  0  0  0
   36.4352   22.0903   39.6948 H   0  0  0  0  0  0  0  0  0  0  0  0
   38.3293   21.7994   41.0214 H   0  0  0  0  0  0  0  0  0  0  0  0
   39.1357   22.8176   39.7964 H   0  0  0  0  0  0  0  0  0  0  0  0
   39.5177   24.3183   41.4932 H   0  0  0  0  0  0  0  0  0  0  0  0
   38.4433   23.4934   42.6063 H   0  0  0  0  0  0  0  0  0  0  0  0
  1  2  2  0
  3  7  1  0
  3  2  1  0
  4  5  1  0
  4  3  2  0
  5  6  2  0
  6  1  1  0
  8 12  1  0
  8  7  1  0
  9  8  1  0
 10 11  1  0
 10  9  1  0
 11 12  1  0
  1 13  1  0
  2 14  1  0
  5 15  1  0
  8 16  1  0
  9 17  1  0
  9 18  1  0
 10 19  1  0
 10 20  1  0
 11 21  1  0
 11 22  1  0
 12 23  1  0
 12 24  1  0
M  ISO  8  13  14  14  14  15  14  16  13  17  13  18  13  19  13  20  13
M  ISO  4  21  13  22  13  23  13  24  13
M  END
>  <minimizedAffinity>  (1) 
-3.67404366

>  <minimizedRMSD>  (1) 
1.61801505

$$$$
