
     RDKit          3D

 19 20  0  0  0  0  0  0  0  0999 V2000
   38.2090   29.3370   43.1370 C   0  0  0  0  0  0  0  0  0  0  0  0
   37.9890   27.9620   43.2970 C   0  0  0  0  0  0  0  0  0  0  0  0
   37.0810   27.3010   42.4860 C   0  0  0  0  0  0  0  0  0  0  0  0
   36.4230   28.0450   41.5390 N   0  0  0  0  0  0  0  0  0  0  0  0
   36.6460   29.3590   41.4010 C   0  0  0  0  0  0  0  0  0  0  0  0
   37.5210   29.9850   42.1850 N   0  0  0  0  0  0  0  0  0  0  0  0
   36.9120   25.9610   42.6930 O   0  0  0  0  0  0  0  0  0  0  0  0
   37.5040   25.0750   41.8060 C   0  0  0  0  0  0  0  0  0  0  0  0
   36.6330   24.1520   41.2510 C   0  0  0  0  0  0  0  0  0  0  0  0
   37.1440   23.2310   40.3550 C   0  0  0  0  0  0  0  0  0  0  0  0
   38.4460   23.2370   40.0380 N   0  0  0  0  0  0  0  0  0  0  0  0
   39.2900   24.1450   40.5860 C   0  0  0  0  0  0  0  0  0  0  0  0
   38.8180   25.0590   41.4670 N   0  0  0  0  0  0  0  0  0  0  0  0
   38.9276   29.8712   43.7759 H   0  0  0  0  0  0  0  0  0  0  0  0
   38.5396   27.4055   44.0697 H   0  0  0  0  0  0  0  0  0  0  0  0
   36.1006   29.9261   40.6322 H   0  0  0  0  0  0  0  0  0  0  0  0
   35.5653   24.1516   41.5155 H   0  0  0  0  0  0  0  0  0  0  0  0
   36.4754   22.4865   39.8982 H   0  0  0  0  0  0  0  0  0  0  0  0
   40.3563   24.1396   40.3157 H   0  0  0  0  0  0  0  0  0  0  0  0
  1  2  2  0
  3  7  1  0
  3  2  1  0
  4  3  2  0
  5  4  1  0
  5  6  2  0
  6  1  1  0
  8  7  1  0
  9  8  2  0
 10  9  1  0
 11 10  2  0
 11 12  1  0
 12 13  2  0
 13  8  1  0
  1 14  1  0
  2 15  1  0
  5 16  1  0
  9 17  1  0
 10 18  1  0
 12 19  1  0
M  ISO  6  14  14  15  14  16  14  17  14  18  14  19  14
M  END
>  <minimizedAffinity>  (1) 
-3.6136992

>  <minimizedRMSD>  (1) 
2.2959075

$$$$
