
     RDKit          3D

 26 27  0  0  0  0  0  0  0  0999 V2000
   39.0650   30.3440   42.7230 C   0  0  0  0  0  0  0  0  0  0  0  0
   38.5990   29.0620   43.0430 C   0  0  0  0  0  0  0  0  0  0  0  0
   37.7220   28.4110   42.1660 C   0  0  0  0  0  0  0  0  0  0  0  0
   37.3700   29.0720   41.0360 N   0  0  0  0  0  0  0  0  0  0  0  0
   37.8230   30.2970   40.7390 C   0  0  0  0  0  0  0  0  0  0  0  0
   38.6610   30.9340   41.5670 N   0  0  0  0  0  0  0  0  0  0  0  0
   37.3030   27.1630   42.5340 O   0  0  0  0  0  0  0  0  0  0  0  0
   38.7090   23.5260   42.1040 N   0  0  0  0  0  0  0  0  0  0  0  0
   37.4190   23.6750   41.4370 C   0  0  0  0  0  0  0  0  0  0  0  0
   36.7940   24.9020   42.0710 C   0  0  0  0  0  0  0  0  0  0  0  0
   37.5950   26.0840   41.6360 C   0  0  0  0  0  0  0  0  0  0  0  0
   39.0600   25.9070   41.5660 C   0  0  0  0  0  0  0  0  0  0  0  0
   39.5930   24.5240   41.5620 C   0  0  0  0  0  0  0  0  0  0  0  0
   39.7527   30.8691   43.4022 H   0  0  0  0  0  0  0  0  0  0  0  0
   38.9188   28.5714   43.9741 H   0  0  0  0  0  0  0  0  0  0  0  0
   37.5037   30.7845   39.8061 H   0  0  0  0  0  0  0  0  0  0  0  0
   38.5990   23.6670   43.1184 H   0  0  0  0  0  0  0  0  0  0  0  0
   36.7904   22.7884   41.6068 H   0  0  0  0  0  0  0  0  0  0  0  0
   37.5250   23.7794   40.3471 H   0  0  0  0  0  0  0  0  0  0  0  0
   35.7519   25.0095   41.7355 H   0  0  0  0  0  0  0  0  0  0  0  0
   36.7923   24.8153   43.1676 H   0  0  0  0  0  0  0  0  0  0  0  0
   37.2944   26.2744   40.5951 H   0  0  0  0  0  0  0  0  0  0  0  0
   39.4047   26.3934   40.6416 H   0  0  0  0  0  0  0  0  0  0  0  0
   39.4353   26.3441   42.5031 H   0  0  0  0  0  0  0  0  0  0  0  0
   39.8193   24.2493   40.5212 H   0  0  0  0  0  0  0  0  0  0  0  0
   40.4780   24.5356   42.2152 H   0  0  0  0  0  0  0  0  0  0  0  0
  1  2  2  0
  3  7  1  0
  3  2  1  0
  4  3  2  0
  5  4  1  0
  5  6  2  0
  6  1  1  0
  9 10  1  0
  9  8  1  0
 11 10  1  0
 11  7  1  0
 12 11  1  0
 13 12  1  0
 13  8  1  0
  1 14  1  0
  2 15  1  0
  5 16  1  0
  8 17  1  0
  9 18  1  0
  9 19  1  0
 10 20  1  0
 10 21  1  0
 11 22  1  0
 12 23  1  0
 12 24  1  0
 13 25  1  0
 13 26  1  0
M  ISO  8  14  14  15  14  16  14  17   5  18  13  19  13  20  13  21  13
M  ISO  5  22  13  23  13  24  13  25  13  26  13
M  END
>  <minimizedAffinity>  (1) 
-3.53586197

>  <minimizedRMSD>  (1) 
2.26527762

$$$$
