
     RDKit          3D

 17 18  0  0  0  0  0  0  0  0999 V2000
   38.0040   28.9890   43.3870 C   0  0  0  0  0  0  0  0  0  0  0  0
   37.7550   27.5970   43.5160 C   0  0  0  0  0  0  0  0  0  0  0  0
   36.9820   26.9790   42.5500 C   0  0  0  0  0  0  0  0  0  0  0  0
   36.5000   27.7290   41.5290 N   0  0  0  0  0  0  0  0  0  0  0  0
   36.7450   29.0440   41.4210 C   0  0  0  0  0  0  0  0  0  0  0  0
   37.4900   29.6660   42.3440 N   0  0  0  0  0  0  0  0  0  0  0  0
   36.7750   25.6350   42.7280 O   0  0  0  0  0  0  0  0  0  0  0  0
   37.1330   24.6540   41.7810 C   0  0  0  0  0  0  0  0  0  0  0  0
   38.4150   24.1960   41.8640 C   0  0  0  0  0  0  0  0  0  0  0  0
   38.3640   22.9490   40.4260 S   0  0  0  0  0  0  0  0  0  0  0  0
   36.5890   23.3500   40.0510 C   0  0  0  0  0  0  0  0  0  0  0  0
   36.3170   24.1860   40.8700 N   0  0  0  0  0  0  0  0  0  0  0  0
   38.6151   29.5121   44.1373 H   0  0  0  0  0  0  0  0  0  0  0  0
   38.1658   27.0257   44.3614 H   0  0  0  0  0  0  0  0  0  0  0  0
   36.3335   29.6117   40.5734 H   0  0  0  0  0  0  0  0  0  0  0  0
   39.2300   24.4650   42.5520 H   0  0  0  0  0  0  0  0  0  0  0  0
   35.9433   22.9249   39.2685 H   0  0  0  0  0  0  0  0  0  0  0  0
  1  2  2  0
  3  7  1  0
  3  2  1  0
  4  3  2  0
  5  4  1  0
  5  6  2  0
  6  1  1  0
  8  9  2  0
  8  7  1  0
 10  9  1  0
 11 10  1  0
 11 12  2  0
 12  8  1  0
  1 13  1  0
  2 14  1  0
  5 15  1  0
  9 16  1  0
 11 17  1  0
M  ISO  5  13  14  14  14  15  14  16  14  17  14
M  END
>  <minimizedAffinity>  (1) 
-3.44117737

>  <minimizedRMSD>  (1) 
1.7989161

$$$$
