
     RDKit          3D

 17 17  0  0  0  0  0  0  0  0999 V2000
   38.6420   31.8410   40.9830 C   0  0  0  0  0  0  0  0  0  0  0  0
   38.9390   30.6760   41.7310 C   0  0  0  0  0  0  0  0  0  0  0  0
   37.8920   29.7890   41.9850 C   0  0  0  0  0  0  0  0  0  0  0  0
   36.6520   30.0970   41.5010 N   0  0  0  0  0  0  0  0  0  0  0  0
   36.4020   31.2110   40.7950 C   0  0  0  0  0  0  0  0  0  0  0  0
   37.3920   32.0720   40.5420 N   0  0  0  0  0  0  0  0  0  0  0  0
   38.2040   28.6720   42.7070 O   0  0  0  0  0  0  0  0  0  0  0  0
   37.4150   28.3770   43.8460 C   0  0  0  0  0  0  0  0  0  0  0  0
   36.4290   27.2530   43.5860 C   0  0  0  0  0  0  0  0  0  0  0  0
   39.4406   32.5639   40.7604 H   0  0  0  0  0  0  0  0  0  0  0  0
   39.9568   30.4776   42.0981 H   0  0  0  0  0  0  0  0  0  0  0  0
   35.3858   31.4143   40.4261 H   0  0  0  0  0  0  0  0  0  0  0  0
   38.0802   28.0808   44.6705 H   0  0  0  0  0  0  0  0  0  0  0  0
   36.8389   29.2790   44.1001 H   0  0  0  0  0  0  0  0  0  0  0  0
   36.0736   26.8479   44.5449 H   0  0  0  0  0  0  0  0  0  0  0  0
   35.5742   27.6405   43.0123 H   0  0  0  0  0  0  0  0  0  0  0  0
   36.9245   26.4559   43.0123 H   0  0  0  0  0  0  0  0  0  0  0  0
  1  2  2  0
  2  3  1  0
  3  7  1  0
  4  3  2  0
  5  4  1  0
  6  5  2  0
  6  1  1  0
  7  8  1  0
  9  8  1  0
  1 10  1  0
  2 11  1  0
  5 12  1  0
  8 13  1  0
  8 14  1  0
  9 15  1  0
  9 16  1  0
  9 17  1  0
M  ISO  8  10  14  11  14  12  14  13   8  14   8  15   8  16   8  17   8
M  END
>  <minimizedAffinity>  (1) 
-2.96139574

>  <minimizedRMSD>  (1) 
3.11623979

$$$$
