
     RDKit          3D

 23 24  0  0  0  0  0  0  0  0999 V2000
   38.2600   30.0390   41.8490 C   0  0  0  0  0  0  0  0  0  0  0  0
   38.5960   30.5650   40.5600 C   0  0  0  0  0  0  0  0  0  0  0  0
   38.4660   29.6720   39.4990 C   0  0  0  0  0  0  0  0  0  0  0  0
   38.0450   28.3990   39.7200 N   0  0  0  0  0  0  0  0  0  0  0  0
   37.7420   27.9640   40.9620 C   0  0  0  0  0  0  0  0  0  0  0  0
   37.8540   28.7890   42.0030 N   0  0  0  0  0  0  0  0  0  0  0  0
   39.0280   31.9170   40.4440 N   0  0  0  0  0  0  0  0  0  0  0  0
   38.1840   33.0390   40.6400 C   0  0  0  0  0  0  0  0  0  0  0  0
   36.9620   32.9270   40.1640 N   0  0  0  0  0  0  0  0  0  0  0  0
   38.7830   34.1530   41.3390 N   0  0  0  0  0  0  0  0  0  0  0  0
   36.2820   33.6950   40.2650 H   0  0  0  0  0  0  0  0  0  0  0  0
   37.3070   26.5480   40.9570 C   0  0  0  0  0  0  0  0  0  0  0  0
   36.8550   25.7720   39.7730 C   0  0  0  0  0  0  0  0  0  0  0  0
   36.5210   24.2520   40.5030 S   0  0  0  0  0  0  0  0  0  0  0  0
   37.0080   24.7790   42.2840 C   0  0  0  0  0  0  0  0  0  0  0  0
   37.3520   25.9710   42.1680 N   0  0  0  0  0  0  0  0  0  0  0  0
   38.3414   30.6897   42.7322 H   0  0  0  0  0  0  0  0  0  0  0  0
   38.7055   29.9991   38.4764 H   0  0  0  0  0  0  0  0  0  0  0  0
   40.0143   32.0903   40.2029 H   0  0  0  0  0  0  0  0  0  0  0  0
   38.2320   35.0044   41.5191 H   0  0  0  0  0  0  0  0  0  0  0  0
   39.7610   34.0956   41.6571 H   0  0  0  0  0  0  0  0  0  0  0  0
   36.7605   26.0835   38.7223 H   0  0  0  0  0  0  0  0  0  0  0  0
   36.9879   24.1679   43.1984 H   0  0  0  0  0  0  0  0  0  0  0  0
  1  6  2  0
  2  1  1  0
  3  4  1  0
  3  2  2  0
  4  5  2  0
  5  6  1  0
  7  2  1  0
  7  8  1  0
  8 10  1  0
  9 11  1  0
  9  8  2  0
 12  5  1  0
 12 16  1  0
 13 14  1  0
 13 12  2  0
 14 15  1  0
 16 15  2  0
  1 17  1  0
  3 18  1  0
  7 19  1  0
 10 20  1  0
 10 21  1  0
 13 22  1  0
 15 23  1  0
M  ISO  4  17  14  18  14  22  14  23  14
M  END
>  <minimizedAffinity>  (1) 
-4.42420626

>  <minimizedRMSD>  (1) 
2.96785355

$$$$
