
     RDKit          3D

 36 40  0  0  0  0  0  0  0  0999 V2000
   39.6530   24.4630   42.7750 C   0  0  0  0  0  0  0  0  0  0  0  0
   38.4060   25.0910   42.5100 C   0  0  0  0  0  0  0  0  0  0  0  0
   38.2730   26.4510   42.7780 C   0  0  0  0  0  0  0  0  0  0  0  0
   39.3530   27.1380   43.2890 N   0  0  0  0  0  0  0  0  0  0  0  0
   40.5200   26.5050   43.5270 C   0  0  0  0  0  0  0  0  0  0  0  0
   40.6800   25.1840   43.2760 N   0  0  0  0  0  0  0  0  0  0  0  0
   41.6220   27.2360   44.0550 N   0  0  0  0  0  0  0  0  0  0  0  0
   42.4300   26.8390   45.0590 C   0  0  0  0  0  0  0  0  0  0  0  0
   43.3740   27.7640   45.3150 N   0  0  0  0  0  0  0  0  0  0  0  0
   43.1710   28.7830   44.4560 C   0  0  0  0  0  0  0  0  0  0  0  0
   43.8590   29.9890   44.2930 C   0  0  0  0  0  0  0  0  0  0  0  0
   44.8380   30.2730   45.0040 O   0  0  0  0  0  0  0  0  0  0  0  0
   43.4420   30.8500   43.3440 N   0  0  0  0  0  0  0  0  0  0  0  0
   42.3710   30.4700   42.6110 C   0  0  0  0  0  0  0  0  0  0  0  0
   41.9340   31.3840   41.6090 N   0  0  0  0  0  0  0  0  0  0  0  0
   41.6790   29.3190   42.7350 N   0  0  0  0  0  0  0  0  0  0  0  0
   42.0810   28.4380   43.6850 C   0  0  0  0  0  0  0  0  0  0  0  0
   37.0530   27.0070   42.5060 O   0  0  0  0  0  0  0  0  0  0  0  0
   36.4070   30.6460   39.8410 N   0  0  0  0  0  0  0  0  0  0  0  0
   36.6570   30.9810   41.1270 C   0  0  0  0  0  0  0  0  0  0  0  0
   36.8340   29.8520   41.8400 N   0  0  0  0  0  0  0  0  0  0  0  0
   36.7030   28.7700   41.0290 C   0  0  0  0  0  0  0  0  0  0  0  0
   36.7790   27.3860   41.2040 C   0  0  0  0  0  0  0  0  0  0  0  0
   36.5850   26.5800   40.1290 N   0  0  0  0  0  0  0  0  0  0  0  0
   36.3270   27.1200   38.9270 C   0  0  0  0  0  0  0  0  0  0  0  0
   36.2440   28.4510   38.7110 N   0  0  0  0  0  0  0  0  0  0  0  0
   36.4300   29.3050   39.7560 C   0  0  0  0  0  0  0  0  0  0  0  0
   39.7821   23.3896   42.5722 H   0  0  0  0  0  0  0  0  0  0  0  0
   37.5630   24.5145   42.1015 H   0  0  0  0  0  0  0  0  0  0  0  0
   42.3308   25.8851   45.5978 H   0  0  0  0  0  0  0  0  0  0  0  0
   43.9147   31.7512   43.1851 H   0  0  0  0  0  0  0  0  0  0  0  0
   42.4296   32.2769   41.4750 H   0  0  0  0  0  0  0  0  0  0  0  0
   41.1225   31.1517   41.0187 H   0  0  0  0  0  0  0  0  0  0  0  0
   36.2306   31.3009   39.0659 H   0  0  0  0  0  0  0  0  0  0  0  0
   36.7074   32.0053   41.5248 H   0  0  0  0  0  0  0  0  0  0  0  0
   36.1753   26.4431   38.0733 H   0  0  0  0  0  0  0  0  0  0  0  0
  1  6  2  0
  2  1  1  0
  2  3  2  0
  3  4  1  0
  4  5  2  0
  5  7  1  0
  6  5  1  0
  7  8  1  0
  8  9  2  0
 10  9  1  0
 11 10  1  0
 11 12  2  0
 13 11  1  0
 14 16  2  0
 14 13  1  0
 15 14  1  0
 16 17  1  0
 17  7  1  0
 17 10  2  0
 18  3  1  0
 19 20  1  0
 20 21  2  0
 22 23  2  0
 22 21  1  0
 23 18  1  0
 24 23  1  0
 25 24  2  0
 26 25  1  0
 26 27  2  0
 27 19  1  0
 27 22  1  0
  1 28  1  0
  2 29  1  0
  8 30  1  0
 13 31  1  0
 15 32  1  0
 15 33  1  0
 19 34  1  0
 20 35  1  0
 25 36  1  0
M  ISO  7  28  14  29  14  30  14  31   9  34   9  35  14  36  14
M  END
>  <minimizedAffinity>  (1) 
-5.60161209

>  <minimizedRMSD>  (1) 
2.87940025

$$$$
