
     RDKit          3D

 31 34  0  0  0  0  0  0  0  0999 V2000
   40.0910   25.5390   43.6490 C   0  0  0  0  0  0  0  0  0  0  0  0
   39.4830   26.7920   43.9090 C   0  0  0  0  0  0  0  0  0  0  0  0
   38.2930   27.0900   43.2300 C   0  0  0  0  0  0  0  0  0  0  0  0
   37.7770   26.1830   42.3630 N   0  0  0  0  0  0  0  0  0  0  0  0
   38.3860   24.9910   42.1370 C   0  0  0  0  0  0  0  0  0  0  0  0
   39.5290   24.6670   42.7680 N   0  0  0  0  0  0  0  0  0  0  0  0
   37.7980   24.0410   41.1960 C   0  0  0  0  0  0  0  0  0  0  0  0
   36.5150   24.2580   40.7160 C   0  0  0  0  0  0  0  0  0  0  0  0
   35.9720   23.3460   39.8210 C   0  0  0  0  0  0  0  0  0  0  0  0
   36.7530   22.2720   39.4650 C   0  0  0  0  0  0  0  0  0  0  0  0
   38.0110   22.0520   39.9300 C   0  0  0  0  0  0  0  0  0  0  0  0
   38.5070   22.9490   40.7910 N   0  0  0  0  0  0  0  0  0  0  0  0
   37.7420   28.3130   43.5150 O   0  0  0  0  0  0  0  0  0  0  0  0
   39.3160   31.7620   41.0090 N   0  0  0  0  0  0  0  0  0  0  0  0
   40.1930   31.3790   41.9570 C   0  0  0  0  0  0  0  0  0  0  0  0
   39.6510   30.3620   42.6470 N   0  0  0  0  0  0  0  0  0  0  0  0
   38.4180   30.0770   42.1510 C   0  0  0  0  0  0  0  0  0  0  0  0
   37.4280   29.1520   42.4620 C   0  0  0  0  0  0  0  0  0  0  0  0
   36.2770   29.1520   41.7280 N   0  0  0  0  0  0  0  0  0  0  0  0
   36.1220   30.0340   40.7340 C   0  0  0  0  0  0  0  0  0  0  0  0
   37.0660   30.9510   40.4010 N   0  0  0  0  0  0  0  0  0  0  0  0
   38.2240   30.9780   41.1100 C   0  0  0  0  0  0  0  0  0  0  0  0
   41.0250   25.2687   44.1634 H   0  0  0  0  0  0  0  0  0  0  0  0
   39.9285   27.5053   44.6180 H   0  0  0  0  0  0  0  0  0  0  0  0
   35.9379   25.1371   41.0387 H   0  0  0  0  0  0  0  0  0  0  0  0
   34.9587   23.4773   39.4135 H   0  0  0  0  0  0  0  0  0  0  0  0
   36.3320   21.5427   38.7572 H   0  0  0  0  0  0  0  0  0  0  0  0
   38.5956   21.1758   39.6129 H   0  0  0  0  0  0  0  0  0  0  0  0
   39.4553   32.5208   40.3266 H   0  0  0  0  0  0  0  0  0  0  0  0
   41.1834   31.8231   42.1355 H   0  0  0  0  0  0  0  0  0  0  0  0
   35.1845   30.0152   40.1589 H   0  0  0  0  0  0  0  0  0  0  0  0
  1  2  2  0
  3 13  1  0
  3  2  1  0
  4  3  2  0
  5  4  1  0
  5  6  2  0
  6  1  1  0
  7  5  1  0
  8  7  2  0
  9  8  1  0
 10  9  2  0
 10 11  1  0
 11 12  2  0
 12  7  1  0
 14 22  1  0
 14 15  1  0
 15 16  2  0
 17 18  2  0
 17 16  1  0
 18 13  1  0
 19 18  1  0
 20 19  2  0
 21 20  1  0
 21 22  2  0
 22 17  1  0
  1 23  1  0
  2 24  1  0
  8 25  1  0
  9 26  1  0
 10 27  1  0
 11 28  1  0
 14 29  1  0
 15 30  1  0
 20 31  1  0
M  ISO  8  23  14  24  14  25  14  26  14  27  14  28  14  29   9  30  14
M  ISO  1  31  14
M  END
>  <minimizedAffinity>  (1) 
-5.50059938

>  <minimizedRMSD>  (1) 
5.22263098

$$$$
