
     RDKit          3D

 29 31  0  0  0  0  0  0  0  0999 V2000
   37.1540   26.4650   39.3380 C   0  0  0  0  0  0  0  0  0  0  0  0
   37.6900   27.6090   38.7080 C   0  0  0  0  0  0  0  0  0  0  0  0
   37.7460   28.8040   39.4480 C   0  0  0  0  0  0  0  0  0  0  0  0
   37.2860   28.8200   40.7370 N   0  0  0  0  0  0  0  0  0  0  0  0
   36.7800   27.6970   41.2960 C   0  0  0  0  0  0  0  0  0  0  0  0
   36.7120   26.5410   40.6180 N   0  0  0  0  0  0  0  0  0  0  0  0
   36.3030   27.7240   42.6380 N   0  0  0  0  0  0  0  0  0  0  0  0
   37.1550   28.0670   43.7250 C   0  0  0  0  0  0  0  0  0  0  0  0
   38.4420   27.8530   43.5950 N   0  0  0  0  0  0  0  0  0  0  0  0
   36.6650   28.6270   44.9350 N   0  0  0  0  0  0  0  0  0  0  0  0
   39.0950   28.1000   44.3880 H   0  0  0  0  0  0  0  0  0  0  0  0
   38.2750   29.8800   38.7890 O   0  0  0  0  0  0  0  0  0  0  0  0
   38.2060   34.1950   40.2310 N   0  0  0  0  0  0  0  0  0  0  0  0
   37.1170   33.8730   39.4950 C   0  0  0  0  0  0  0  0  0  0  0  0
   37.2300   32.5910   39.1200 N   0  0  0  0  0  0  0  0  0  0  0  0
   38.3760   32.0570   39.5950 C   0  0  0  0  0  0  0  0  0  0  0  0
   38.9940   30.8100   39.5210 C   0  0  0  0  0  0  0  0  0  0  0  0
   40.1800   30.6380   40.1430 N   0  0  0  0  0  0  0  0  0  0  0  0
   40.7470   31.6440   40.8140 C   0  0  0  0  0  0  0  0  0  0  0  0
   40.1860   32.8810   40.9180 N   0  0  0  0  0  0  0  0  0  0  0  0
   38.9900   33.0990   40.3050 C   0  0  0  0  0  0  0  0  0  0  0  0
   37.0949   25.5125   38.7911 H   0  0  0  0  0  0  0  0  0  0  0  0
   38.0527   27.5672   37.6704 H   0  0  0  0  0  0  0  0  0  0  0  0
   35.3178   27.4896   42.8261 H   0  0  0  0  0  0  0  0  0  0  0  0
   37.3184   28.8602   45.6963 H   0  0  0  0  0  0  0  0  0  0  0  0
   35.6563   28.7999   45.0511 H   0  0  0  0  0  0  0  0  0  0  0  0
   38.4014   35.1117   40.6580 H   0  0  0  0  0  0  0  0  0  0  0  0
   36.2834   34.5466   39.2473 H   0  0  0  0  0  0  0  0  0  0  0  0
   41.7141   31.4650   41.3067 H   0  0  0  0  0  0  0  0  0  0  0  0
  1  6  2  0
  2  1  1  0
  2  3  2  0
  3  4  1  0
  4  5  2  0
  5  7  1  0
  6  5  1  0
  7  8  1  0
  8 10  1  0
  9  8  2  0
  9 11  1  0
 12  3  1  0
 12 17  1  0
 13 21  1  0
 14 13  1  0
 15 14  2  0
 15 16  1  0
 16 21  2  0
 17 16  1  0
 17 18  2  0
 18 19  1  0
 19 20  2  0
 21 20  1  0
  1 22  1  0
  2 23  1  0
  7 24  1  0
 10 25  1  0
 10 26  1  0
 13 27  1  0
 14 28  1  0
 19 29  1  0
M  ISO  5  22  14  23  14  27   9  28  14  29  14
M  END
>  <minimizedAffinity>  (1) 
-5.41981268

>  <minimizedRMSD>  (1) 
3.83879828

$$$$
