
     RDKit          3D

 35 39  0  0  0  0  0  0  0  0999 V2000
   39.6350   24.2950   42.7310 C   0  0  0  0  0  0  0  0  0  0  0  0
   38.3650   24.8800   42.4450 C   0  0  0  0  0  0  0  0  0  0  0  0
   38.2020   26.2440   42.6770 C   0  0  0  0  0  0  0  0  0  0  0  0
   39.2540   26.9710   43.1680 N   0  0  0  0  0  0  0  0  0  0  0  0
   40.4360   26.3750   43.4230 C   0  0  0  0  0  0  0  0  0  0  0  0
   40.6370   25.0620   43.2130 N   0  0  0  0  0  0  0  0  0  0  0  0
   41.5450   27.1060   43.9320 N   0  0  0  0  0  0  0  0  0  0  0  0
   42.1640   26.9960   45.1370 C   0  0  0  0  0  0  0  0  0  0  0  0
   43.1730   27.9120   45.1540 N   0  0  0  0  0  0  0  0  0  0  0  0
   43.1920   28.5880   43.9790 C   0  0  0  0  0  0  0  0  0  0  0  0
   44.0370   29.6010   43.5550 C   0  0  0  0  0  0  0  0  0  0  0  0
   43.8490   30.1180   42.3270 N   0  0  0  0  0  0  0  0  0  0  0  0
   42.8290   29.6050   41.5780 C   0  0  0  0  0  0  0  0  0  0  0  0
   42.0040   28.6200   41.9850 N   0  0  0  0  0  0  0  0  0  0  0  0
   42.1620   28.0790   43.2060 C   0  0  0  0  0  0  0  0  0  0  0  0
   45.0920   30.1180   44.3560 N   0  0  0  0  0  0  0  0  0  0  0  0
   36.9680   26.7570   42.3880 O   0  0  0  0  0  0  0  0  0  0  0  0
   36.3760   30.5150   39.8980 N   0  0  0  0  0  0  0  0  0  0  0  0
   36.6040   30.7940   41.2000 C   0  0  0  0  0  0  0  0  0  0  0  0
   36.7660   29.6270   41.8540 N   0  0  0  0  0  0  0  0  0  0  0  0
   36.6460   28.5880   40.9910 C   0  0  0  0  0  0  0  0  0  0  0  0
   36.7160   27.2030   41.1020 C   0  0  0  0  0  0  0  0  0  0  0  0
   36.5390   26.4390   39.9820 N   0  0  0  0  0  0  0  0  0  0  0  0
   36.3010   27.0360   38.8000 C   0  0  0  0  0  0  0  0  0  0  0  0
   36.2270   28.3840   38.6600 N   0  0  0  0  0  0  0  0  0  0  0  0
   36.3980   29.1830   39.7530 C   0  0  0  0  0  0  0  0  0  0  0  0
   39.7977   23.2208   42.5591 H   0  0  0  0  0  0  0  0  0  0  0  0
   37.5377   24.2707   42.0522 H   0  0  0  0  0  0  0  0  0  0  0  0
   41.9003   26.2990   45.9461 H   0  0  0  0  0  0  0  0  0  0  0  0
   42.6697   30.0244   40.5736 H   0  0  0  0  0  0  0  0  0  0  0  0
   45.6921   30.8723   43.9929 H   0  0  0  0  0  0  0  0  0  0  0  0
   45.2561   29.7382   45.2993 H   0  0  0  0  0  0  0  0  0  0  0  0
   36.2140   31.2039   39.1496 H   0  0  0  0  0  0  0  0  0  0  0  0
   36.6494   31.7977   41.6477 H   0  0  0  0  0  0  0  0  0  0  0  0
   36.1605   26.4052   37.9098 H   0  0  0  0  0  0  0  0  0  0  0  0
  1  6  2  0
  2  3  2  0
  2  1  1  0
  3  4  1  0
  4  5  2  0
  5  7  1  0
  6  5  1  0
  7  8  1  0
  8  9  2  0
 10  9  1  0
 11 10  2  0
 11 16  1  0
 12 11  1  0
 13 14  1  0
 13 12  2  0
 14 15  2  0
 15  7  1  0
 15 10  1  0
 17  3  1  0
 18 19  1  0
 19 20  2  0
 21 22  2  0
 21 20  1  0
 22 17  1  0
 23 22  1  0
 24 23  2  0
 25 24  1  0
 25 26  2  0
 26 18  1  0
 26 21  1  0
  1 27  1  0
  2 28  1  0
  8 29  1  0
 13 30  1  0
 16 31  1  0
 16 32  1  0
 18 33  1  0
 19 34  1  0
 24 35  1  0
M  ISO  7  27  14  28  14  29  14  30  14  33   9  34  14  35  14
M  END
>  <minimizedAffinity>  (1) 
-5.22730589

>  <minimizedRMSD>  (1) 
3.07099605

$$$$
