
     RDKit          3D

 33 36  0  0  0  0  0  0  0  0999 V2000
   39.2590   25.1610   42.9130 C   0  0  0  0  0  0  0  0  0  0  0  0
   38.8690   25.9710   41.8100 C   0  0  0  0  0  0  0  0  0  0  0  0
   39.6950   27.0330   41.4410 C   0  0  0  0  0  0  0  0  0  0  0  0
   40.8370   27.2490   42.1490 N   0  0  0  0  0  0  0  0  0  0  0  0
   41.1760   26.4650   43.1860 C   0  0  0  0  0  0  0  0  0  0  0  0
   40.4110   25.4330   43.5770 N   0  0  0  0  0  0  0  0  0  0  0  0
   42.3730   26.7000   43.9210 N   0  0  0  0  0  0  0  0  0  0  0  0
   42.2250   26.9730   45.2350 C   0  0  0  0  0  0  0  0  0  0  0  0
   43.3390   27.2120   46.0170 C   0  0  0  0  0  0  0  0  0  0  0  0
   44.5540   27.1510   45.3690 C   0  0  0  0  0  0  0  0  0  0  0  0
   45.7920   27.3710   46.0260 N   0  0  0  0  0  0  0  0  0  0  0  0
   44.6840   26.8770   44.0580 N   0  0  0  0  0  0  0  0  0  0  0  0
   43.5690   26.6440   43.3050 C   0  0  0  0  0  0  0  0  0  0  0  0
   43.6130   26.3840   42.0790 O   0  0  0  0  0  0  0  0  0  0  0  0
   39.2750   27.7790   40.3750 O   0  0  0  0  0  0  0  0  0  0  0  0
   35.5260   30.2930   40.8790 N   0  0  0  0  0  0  0  0  0  0  0  0
   35.2360   29.0050   40.6630 C   0  0  0  0  0  0  0  0  0  0  0  0
   36.3980   28.3410   40.5270 N   0  0  0  0  0  0  0  0  0  0  0  0
   37.4450   29.1950   40.6540 C   0  0  0  0  0  0  0  0  0  0  0  0
   38.8360   29.0670   40.6050 C   0  0  0  0  0  0  0  0  0  0  0  0
   39.5940   30.1820   40.7820 N   0  0  0  0  0  0  0  0  0  0  0  0
   39.0080   31.3640   40.9970 C   0  0  0  0  0  0  0  0  0  0  0  0
   37.6580   31.5350   41.0520 N   0  0  0  0  0  0  0  0  0  0  0  0
   36.8550   30.4470   40.8800 C   0  0  0  0  0  0  0  0  0  0  0  0
   38.6282   24.3162   43.2268 H   0  0  0  0  0  0  0  0  0  0  0  0
   37.9382   25.7647   41.2613 H   0  0  0  0  0  0  0  0  0  0  0  0
   41.2204   27.0051   45.6818 H   0  0  0  0  0  0  0  0  0  0  0  0
   43.2609   27.4371   47.0909 H   0  0  0  0  0  0  0  0  0  0  0  0
   46.6735   27.3140   45.4962 H   0  0  0  0  0  0  0  0  0  0  0  0
   45.8094   27.5878   47.0328 H   0  0  0  0  0  0  0  0  0  0  0  0
   34.8369   31.0452   41.0216 H   0  0  0  0  0  0  0  0  0  0  0  0
   34.2283   28.5675   40.6067 H   0  0  0  0  0  0  0  0  0  0  0  0
   39.6505   32.2458   41.1370 H   0  0  0  0  0  0  0  0  0  0  0  0
  1  6  2  0
  2  1  1  0
  3  2  2  0
  3  4  1  0
  4  5  2  0
  5  6  1  0
  5  7  1  0
  7  8  1  0
  8  9  2  0
 10  9  1  0
 10 11  1  0
 12 10  2  0
 13  7  1  0
 13 12  1  0
 14 13  2  0
 15 20  1  0
 15  3  1  0
 16 24  1  0
 17 16  1  0
 18 19  1  0
 18 17  2  0
 19 24  2  0
 20 19  1  0
 20 21  2  0
 21 22  1  0
 22 23  2  0
 24 23  1  0
  1 25  1  0
  2 26  1  0
  8 27  1  0
  9 28  1  0
 11 29  1  0
 11 30  1  0
 16 31  1  0
 17 32  1  0
 22 33  1  0
M  ISO  7  25  14  26  14  27  14  28  14  31   9  32  14  33  14
M  END
>  <minimizedAffinity>  (1) 
-5.09388399

>  <minimizedRMSD>  (1) 
2.29965472

$$$$
