
     RDKit          3D

 36 40  0  0  0  0  0  0  0  0999 V2000
   38.8670   24.5930   40.5250 C   0  0  0  0  0  0  0  0  0  0  0  0
   38.5410   25.6830   39.6760 C   0  0  0  0  0  0  0  0  0  0  0  0
   39.1020   26.9360   39.9810 C   0  0  0  0  0  0  0  0  0  0  0  0
   39.9220   27.0480   41.0580 N   0  0  0  0  0  0  0  0  0  0  0  0
   40.2070   25.9870   41.8390 C   0  0  0  0  0  0  0  0  0  0  0  0
   39.6950   24.7730   41.5870 N   0  0  0  0  0  0  0  0  0  0  0  0
   41.0980   26.2180   42.9700 C   0  0  0  0  0  0  0  0  0  0  0  0
   40.6820   26.5900   44.2320 C   0  0  0  0  0  0  0  0  0  0  0  0
   41.7920   26.7040   44.9900 N   0  0  0  0  0  0  0  0  0  0  0  0
   42.8680   26.4100   44.2200 C   0  0  0  0  0  0  0  0  0  0  0  0
   44.2120   26.3840   44.5280 C   0  0  0  0  0  0  0  0  0  0  0  0
   45.1630   26.0470   43.5590 C   0  0  0  0  0  0  0  0  0  0  0  0
   44.7610   25.7310   42.2560 C   0  0  0  0  0  0  0  0  0  0  0  0
   43.4190   25.7710   42.0000 C   0  0  0  0  0  0  0  0  0  0  0  0
   42.4680   26.0960   42.9280 C   0  0  0  0  0  0  0  0  0  0  0  0
   38.7620   27.9570   39.1390 O   0  0  0  0  0  0  0  0  0  0  0  0
   35.4160   30.4860   40.8910 N   0  0  0  0  0  0  0  0  0  0  0  0
   34.9910   29.2580   40.5180 C   0  0  0  0  0  0  0  0  0  0  0  0
   36.0450   28.5880   40.0140 N   0  0  0  0  0  0  0  0  0  0  0  0
   37.1510   29.3630   40.0550 C   0  0  0  0  0  0  0  0  0  0  0  0
   38.4870   29.2040   39.6830 C   0  0  0  0  0  0  0  0  0  0  0  0
   39.3540   30.2310   39.8740 N   0  0  0  0  0  0  0  0  0  0  0  0
   38.9140   31.3780   40.4180 C   0  0  0  0  0  0  0  0  0  0  0  0
   37.6370   31.5750   40.7920 N   0  0  0  0  0  0  0  0  0  0  0  0
   36.7280   30.5670   40.6160 C   0  0  0  0  0  0  0  0  0  0  0  0
   38.4468   23.5969   40.3219 H   0  0  0  0  0  0  0  0  0  0  0  0
   37.8739   25.5523   38.8111 H   0  0  0  0  0  0  0  0  0  0  0  0
   39.6451   26.7607   44.5572 H   0  0  0  0  0  0  0  0  0  0  0  0
   41.8175   26.9694   45.9849 H   0  0  0  0  0  0  0  0  0  0  0  0
   44.5403   26.6313   45.5483 H   0  0  0  0  0  0  0  0  0  0  0  0
   46.2309   26.0303   43.8221 H   0  0  0  0  0  0  0  0  0  0  0  0
   45.4894   25.4636   41.4763 H   0  0  0  0  0  0  0  0  0  0  0  0
   43.0819   25.5260   40.9820 H   0  0  0  0  0  0  0  0  0  0  0  0
   34.8370   31.2271   41.3111 H   0  0  0  0  0  0  0  0  0  0  0  0
   33.9645   28.8735   40.6100 H   0  0  0  0  0  0  0  0  0  0  0  0
   39.6338   32.1967   40.5648 H   0  0  0  0  0  0  0  0  0  0  0  0
  1  6  2  0
  2  3  2  0
  2  1  1  0
  3  4  1  0
  4  5  2  0
  5  7  1  0
  6  5  1  0
  7  8  2  0
  8  9  1  0
 10 11  2  0
 10  9  1  0
 12 11  1  0
 13 12  2  0
 14 13  1  0
 14 15  2  0
 15  7  1  0
 15 10  1  0
 16 21  1  0
 16  3  1  0
 18 17  1  0
 19 20  1  0
 19 18  2  0
 20 25  2  0
 21 22  2  0
 21 20  1  0
 22 23  1  0
 23 24  2  0
 25 24  1  0
 25 17  1  0
  1 26  1  0
  2 27  1  0
  8 28  1  0
  9 29  1  0
 11 30  1  0
 12 31  1  0
 13 32  1  0
 14 33  1  0
 17 34  1  0
 18 35  1  0
 23 36  1  0
M  ISO  8  26  14  27  14  28  14  29   9  30  14  31  14  32  14  33  14
M  ISO  3  34   9  35  14  36  14
M  END
>  <minimizedAffinity>  (1) 
-5.01269293

>  <minimizedRMSD>  (1) 
2.87155223

$$$$
