
     RDKit          3D

 29 32  0  0  0  0  0  0  0  0999 V2000
   38.9260   24.6450   42.6080 C   0  0  0  0  0  0  0  0  0  0  0  0
   38.5340   25.5080   41.5600 C   0  0  0  0  0  0  0  0  0  0  0  0
   39.3550   26.6050   41.2530 C   0  0  0  0  0  0  0  0  0  0  0  0
   40.5040   26.7850   41.9910 N   0  0  0  0  0  0  0  0  0  0  0  0
   40.8440   25.9450   42.9780 C   0  0  0  0  0  0  0  0  0  0  0  0
   40.0670   24.8760   43.2950 N   0  0  0  0  0  0  0  0  0  0  0  0
   42.0430   26.1050   43.7750 C   0  0  0  0  0  0  0  0  0  0  0  0
   42.0820   26.9870   44.8320 C   0  0  0  0  0  0  0  0  0  0  0  0
   43.3410   26.9220   45.3920 C   0  0  0  0  0  0  0  0  0  0  0  0
   44.0010   26.0120   44.6580 N   0  0  0  0  0  0  0  0  0  0  0  0
   43.2500   25.5080   43.6830 N   0  0  0  0  0  0  0  0  0  0  0  0
   38.9510   27.4150   40.2410 O   0  0  0  0  0  0  0  0  0  0  0  0
   35.4850   30.2860   40.8450 N   0  0  0  0  0  0  0  0  0  0  0  0
   35.0660   29.0350   40.5820 C   0  0  0  0  0  0  0  0  0  0  0  0
   36.1470   28.2580   40.4190 N   0  0  0  0  0  0  0  0  0  0  0  0
   37.2730   28.9940   40.5740 C   0  0  0  0  0  0  0  0  0  0  0  0
   38.6400   28.7320   40.5180 C   0  0  0  0  0  0  0  0  0  0  0  0
   39.5220   29.7540   40.7330 N   0  0  0  0  0  0  0  0  0  0  0  0
   39.0560   30.9890   40.9930 C   0  0  0  0  0  0  0  0  0  0  0  0
   37.7410   31.2840   41.0550 N   0  0  0  0  0  0  0  0  0  0  0  0
   36.8290   30.2830   40.8450 C   0  0  0  0  0  0  0  0  0  0  0  0
   38.2984   23.7794   42.8665 H   0  0  0  0  0  0  0  0  0  0  0  0
   37.6067   25.3246   40.9974 H   0  0  0  0  0  0  0  0  0  0  0  0
   41.2556   27.6295   45.1699 H   0  0  0  0  0  0  0  0  0  0  0  0
   43.7214   27.4918   46.2526 H   0  0  0  0  0  0  0  0  0  0  0  0
   44.9781   25.7356   44.8304 H   0  0  0  0  0  0  0  0  0  0  0  0
   34.8816   31.1030   41.0163 H   0  0  0  0  0  0  0  0  0  0  0  0
   34.0185   28.7064   40.5127 H   0  0  0  0  0  0  0  0  0  0  0  0
   39.7823   31.7974   41.1633 H   0  0  0  0  0  0  0  0  0  0  0  0
  1  6  2  0
  2  1  1  0
  3  2  2  0
  3  4  1  0
  4  5  2  0
  5  6  1  0
  5  7  1  0
  7  8  1  0
  8  9  2  0
 10  9  1  0
 11  7  2  0
 11 10  1  0
 12 17  1  0
 12  3  1  0
 14 13  1  0
 15 16  1  0
 15 14  2  0
 16 21  2  0
 17 16  1  0
 17 18  2  0
 18 19  1  0
 19 20  2  0
 21 13  1  0
 21 20  1  0
  1 22  1  0
  2 23  1  0
  8 24  1  0
  9 25  1  0
 10 26  1  0
 13 27  1  0
 14 28  1  0
 19 29  1  0
M  ISO  8  22  14  23  14  24  14  25  14  26   9  27   9  28  14  29  14
M  END
>  <minimizedAffinity>  (1) 
-4.96600819

>  <minimizedRMSD>  (1) 
1.81684554

$$$$
