
     RDKit          3D

 32 35  0  0  0  0  0  0  0  0999 V2000
   39.6970   26.0490   41.6730 C   0  0  0  0  0  0  0  0  0  0  0  0
   39.4510   27.0370   40.6770 C   0  0  0  0  0  0  0  0  0  0  0  0
   40.2200   28.2130   40.7260 C   0  0  0  0  0  0  0  0  0  0  0  0
   41.1640   28.3620   41.7180 N   0  0  0  0  0  0  0  0  0  0  0  0
   41.3480   27.3940   42.6280 C   0  0  0  0  0  0  0  0  0  0  0  0
   40.6400   26.2540   42.6240 N   0  0  0  0  0  0  0  0  0  0  0  0
   42.3150   27.5200   43.6640 N   0  0  0  0  0  0  0  0  0  0  0  0
   42.0080   27.0580   44.9040 C   0  0  0  0  0  0  0  0  0  0  0  0
   43.0000   27.2140   45.8670 C   0  0  0  0  0  0  0  0  0  0  0  0
   44.2290   27.8080   45.5710 C   0  0  0  0  0  0  0  0  0  0  0  0
   44.9590   27.8370   46.5950 O   0  0  0  0  0  0  0  0  0  0  0  0
   44.4620   28.2430   44.3140 N   0  0  0  0  0  0  0  0  0  0  0  0
   43.5090   28.0950   43.3810 C   0  0  0  0  0  0  0  0  0  0  0  0
   43.7850   28.5190   42.2290 O   0  0  0  0  0  0  0  0  0  0  0  0
   39.9510   29.1310   39.7540 O   0  0  0  0  0  0  0  0  0  0  0  0
   36.4470   31.8530   40.7710 N   0  0  0  0  0  0  0  0  0  0  0  0
   36.0550   30.6070   40.4590 C   0  0  0  0  0  0  0  0  0  0  0  0
   37.1510   29.8820   40.1750 N   0  0  0  0  0  0  0  0  0  0  0  0
   38.2730   30.6430   40.2990 C   0  0  0  0  0  0  0  0  0  0  0  0
   39.6250   30.4180   40.1340 C   0  0  0  0  0  0  0  0  0  0  0  0
   40.4840   31.4560   40.3550 N   0  0  0  0  0  0  0  0  0  0  0  0
   40.0080   32.6490   40.7200 C   0  0  0  0  0  0  0  0  0  0  0  0
   38.6880   32.9080   40.8920 N   0  0  0  0  0  0  0  0  0  0  0  0
   37.7860   31.8920   40.6810 C   0  0  0  0  0  0  0  0  0  0  0  0
   39.1178   25.1138   41.6701 H   0  0  0  0  0  0  0  0  0  0  0  0
   38.6883   26.8857   39.8989 H   0  0  0  0  0  0  0  0  0  0  0  0
   41.0384   26.5911   45.1319 H   0  0  0  0  0  0  0  0  0  0  0  0
   42.8110   26.8593   46.8909 H   0  0  0  0  0  0  0  0  0  0  0  0
   45.3615   28.6836   44.0740 H   0  0  0  0  0  0  0  0  0  0  0  0
   35.8318   32.6368   41.0321 H   0  0  0  0  0  0  0  0  0  0  0  0
   35.0172   30.2428   40.4392 H   0  0  0  0  0  0  0  0  0  0  0  0
   40.7251   33.4655   40.8903 H   0  0  0  0  0  0  0  0  0  0  0  0
  1  6  2  0
  2  3  2  0
  2  1  1  0
  3  4  1  0
  4  5  2  0
  5  7  1  0
  6  5  1  0
  7  8  1  0
  8  9  2  0
 10  9  1  0
 10 11  2  0
 12 10  1  0
 13  7  1  0
 13 12  1  0
 14 13  2  0
 15 20  1  0
 15  3  1  0
 17 16  1  0
 18 19  1  0
 18 17  2  0
 19 24  2  0
 20 19  1  0
 20 21  2  0
 21 22  1  0
 22 23  2  0
 24 16  1  0
 24 23  1  0
  1 25  1  0
  2 26  1  0
  8 27  1  0
  9 28  1  0
 12 29  1  0
 16 30  1  0
 17 31  1  0
 22 32  1  0
M  ISO  8  25  14  26  14  27  14  28  14  29   9  30   9  31  14  32  14
M  END
>  <minimizedAffinity>  (1) 
-4.91436672

>  <minimizedRMSD>  (1) 
2.38119936

$$$$
