
     RDKit          3D

 29 32  0  0  0  0  0  0  0  0999 V2000
   39.4280   26.3980   41.1950 O   0  0  0  0  0  0  0  0  0  0  0  0
   36.9550   29.1750   43.8070 N   0  0  0  0  0  0  0  0  0  0  0  0
   37.0720   27.9410   44.3370 C   0  0  0  0  0  0  0  0  0  0  0  0
   37.8110   27.2030   43.5010 N   0  0  0  0  0  0  0  0  0  0  0  0
   38.1880   27.9370   42.4190 C   0  0  0  0  0  0  0  0  0  0  0  0
   38.9420   27.6910   41.2670 C   0  0  0  0  0  0  0  0  0  0  0  0
   39.1080   28.7030   40.3790 N   0  0  0  0  0  0  0  0  0  0  0  0
   38.5560   29.8980   40.6220 C   0  0  0  0  0  0  0  0  0  0  0  0
   37.8200   30.1820   41.7210 N   0  0  0  0  0  0  0  0  0  0  0  0
   37.6220   29.1880   42.6500 C   0  0  0  0  0  0  0  0  0  0  0  0
   42.8880   25.3740   40.6650 C   0  0  0  0  0  0  0  0  0  0  0  0
   41.5040   25.6180   40.4260 C   0  0  0  0  0  0  0  0  0  0  0  0
   40.7480   26.1800   41.4600 C   0  0  0  0  0  0  0  0  0  0  0  0
   41.3660   26.4710   42.6520 N   0  0  0  0  0  0  0  0  0  0  0  0
   42.6810   26.2220   42.8300 C   0  0  0  0  0  0  0  0  0  0  0  0
   43.4330   25.6830   41.8570 N   0  0  0  0  0  0  0  0  0  0  0  0
   43.2340   26.5830   44.1690 C   0  0  0  0  0  0  0  0  0  0  0  0
   42.4980   27.0500   45.2460 C   0  0  0  0  0  0  0  0  0  0  0  0
   43.1510   27.3320   46.3940 C   0  0  0  0  0  0  0  0  0  0  0  0
   44.5620   27.1230   46.4010 C   0  0  0  0  0  0  0  0  0  0  0  0
   44.9000   26.5030   44.6840 S   0  0  0  0  0  0  0  0  0  0  0  0
   36.4424   29.9669   44.2207 H   0  0  0  0  0  0  0  0  0  0  0  0
   36.6369   27.6011   45.2884 H   0  0  0  0  0  0  0  0  0  0  0  0
   38.7103   30.6980   39.8829 H   0  0  0  0  0  0  0  0  0  0  0  0
   43.5121   24.9324   39.8741 H   0  0  0  0  0  0  0  0  0  0  0  0
   41.0443   25.3717   39.4575 H   0  0  0  0  0  0  0  0  0  0  0  0
   41.4094   27.1876   45.1680 H   0  0  0  0  0  0  0  0  0  0  0  0
   42.6197   27.7053   47.2819 H   0  0  0  0  0  0  0  0  0  0  0  0
   45.2749   27.2886   47.2222 H   0  0  0  0  0  0  0  0  0  0  0  0
  1  6  1  0
  1 13  1  0
  2  3  1  0
  4  3  2  0
  5 10  2  0
  5  4  1  0
  6  5  1  0
  7  8  1  0
  7  6  2  0
  8  9  2  0
  9 10  1  0
 10  2  1  0
 11 16  2  0
 12 11  1  0
 12 13  2  0
 13 14  1  0
 14 15  2  0
 15 17  1  0
 16 15  1  0
 17 21  1  0
 17 18  2  0
 18 19  1  0
 19 20  2  0
 21 20  1  0
  2 22  1  0
  3 23  1  0
  8 24  1  0
 11 25  1  0
 12 26  1  0
 18 27  1  0
 19 28  1  0
 20 29  1  0
M  ISO  8  22   9  23  14  24  14  25  14  26  14  27  14  28  14  29  14
M  END
>  <minimizedAffinity>  (1) 
-4.79482794

>  <minimizedRMSD>  (1) 
2.97175097

$$$$
