
     RDKit          3D

 34 36  0  0  0  0  0  0  0  0999 V2000
   40.5380   28.7170   39.1390 O   0  0  0  0  0  0  0  0  0  0  0  0
   38.3490   32.0630   36.9710 N   0  0  0  0  0  0  0  0  0  0  0  0
   37.5740   30.9810   37.1630 C   0  0  0  0  0  0  0  0  0  0  0  0
   38.2940   30.0520   37.8040 N   0  0  0  0  0  0  0  0  0  0  0  0
   39.5480   30.5080   38.0400 C   0  0  0  0  0  0  0  0  0  0  0  0
   40.6940   30.0000   38.6490 C   0  0  0  0  0  0  0  0  0  0  0  0
   41.8090   30.7720   38.7060 N   0  0  0  0  0  0  0  0  0  0  0  0
   41.7960   32.0130   38.1750 C   0  0  0  0  0  0  0  0  0  0  0  0
   40.7100   32.5390   37.5800 N   0  0  0  0  0  0  0  0  0  0  0  0
   39.5610   31.7990   37.4990 C   0  0  0  0  0  0  0  0  0  0  0  0
   40.8720   28.5890   42.7760 C   0  0  0  0  0  0  0  0  0  0  0  0
   41.1990   28.7540   41.4020 C   0  0  0  0  0  0  0  0  0  0  0  0
   40.1880   28.5490   40.4540 C   0  0  0  0  0  0  0  0  0  0  0  0
   38.9290   28.2000   40.8860 N   0  0  0  0  0  0  0  0  0  0  0  0
   38.6580   28.0530   42.2030 C   0  0  0  0  0  0  0  0  0  0  0  0
   39.6220   28.2470   43.1240 N   0  0  0  0  0  0  0  0  0  0  0  0
   37.2850   27.6770   42.6050 C   0  0  0  0  0  0  0  0  0  0  0  0
   37.0210   27.9850   44.0700 C   0  0  0  0  0  0  0  0  0  0  0  0
   37.0680   26.1670   42.4760 C   0  0  0  0  0  0  0  0  0  0  0  0
   36.2090   28.3320   41.8010 C   0  0  0  0  0  0  0  0  0  0  0  0
   38.0672   32.9368   36.5042 H   0  0  0  0  0  0  0  0  0  0  0  0
   36.5256   30.8768   36.8468 H   0  0  0  0  0  0  0  0  0  0  0  0
   42.7118   32.6197   38.2311 H   0  0  0  0  0  0  0  0  0  0  0  0
   41.6394   28.7409   43.5493 H   0  0  0  0  0  0  0  0  0  0  0  0
   42.2165   29.0345   41.0923 H   0  0  0  0  0  0  0  0  0  0  0  0
   37.6078   27.3004   44.7001 H   0  0  0  0  0  0  0  0  0  0  0  0
   37.3140   29.0232   44.2850 H   0  0  0  0  0  0  0  0  0  0  0  0
   35.9502   27.8542   44.2850 H   0  0  0  0  0  0  0  0  0  0  0  0
   37.0036   25.7189   43.4785 H   0  0  0  0  0  0  0  0  0  0  0  0
   36.1332   25.9764   41.9284 H   0  0  0  0  0  0  0  0  0  0  0  0
   37.9113   25.7208   41.9284 H   0  0  0  0  0  0  0  0  0  0  0  0
   35.4684   28.7828   42.4779 H   0  0  0  0  0  0  0  0  0  0  0  0
   36.6503   29.1148   41.1666 H   0  0  0  0  0  0  0  0  0  0  0  0
   35.7163   27.5805   41.1666 H   0  0  0  0  0  0  0  0  0  0  0  0
  1 13  1  0
  2  3  1  0
  2 10  1  0
  3  4  2  0
  4  5  1  0
  5  6  2  0
  6  7  1  0
  6  1  1  0
  8  7  2  0
  9  8  1  0
 10  9  2  0
 10  5  1  0
 11 16  2  0
 12 11  1  0
 13 14  1  0
 13 12  2  0
 14 15  2  0
 15 17  1  0
 15 16  1  0
 17 18  1  0
 19 17  1  0
 20 17  1  0
  2 21  1  0
  3 22  1  0
  8 23  1  0
 11 24  1  0
 12 25  1  0
 18 26  1  0
 18 27  1  0
 18 28  1  0
 19 29  1  0
 19 30  1  0
 19 31  1  0
 20 32  1  0
 20 33  1  0
 20 34  1  0
M  ISO  8  21   9  22  14  23  14  24  14  25  14  26   8  27   8  28   8
M  ISO  6  29   8  30   8  31   8  32   8  33   8  34   8
M  END
>  <minimizedAffinity>  (1) 
-4.76264572

>  <minimizedRMSD>  (1) 
3.89083409

$$$$
