
     RDKit          3D

 31 33  0  0  0  0  0  0  0  0999 V2000
   36.4240   26.6100   40.4310 O   0  0  0  0  0  0  0  0  0  0  0  0
   37.3320   29.1210   44.1130 N   0  0  0  0  0  0  0  0  0  0  0  0
   36.7150   27.9660   44.4160 C   0  0  0  0  0  0  0  0  0  0  0  0
   36.4920   27.3030   43.2700 N   0  0  0  0  0  0  0  0  0  0  0  0
   36.9590   28.0110   42.2030 C   0  0  0  0  0  0  0  0  0  0  0  0
   36.9950   27.8110   40.8280 C   0  0  0  0  0  0  0  0  0  0  0  0
   37.5610   28.7730   40.0500 N   0  0  0  0  0  0  0  0  0  0  0  0
   38.0670   29.8810   40.6280 C   0  0  0  0  0  0  0  0  0  0  0  0
   38.0490   30.1080   41.9590 N   0  0  0  0  0  0  0  0  0  0  0  0
   37.4910   29.1700   42.7790 C   0  0  0  0  0  0  0  0  0  0  0  0
   37.6410   23.2190   40.9620 C   0  0  0  0  0  0  0  0  0  0  0  0
   36.8340   24.3740   41.0310 C   0  0  0  0  0  0  0  0  0  0  0  0
   37.2540   25.5190   40.3230 C   0  0  0  0  0  0  0  0  0  0  0  0
   38.4100   25.4610   39.6110 N   0  0  0  0  0  0  0  0  0  0  0  0
   39.1600   24.3430   39.5650 C   0  0  0  0  0  0  0  0  0  0  0  0
   38.7770   23.2290   40.2370 N   0  0  0  0  0  0  0  0  0  0  0  0
   40.4030   24.3930   38.7550 C   0  0  0  0  0  0  0  0  0  0  0  0
   40.7250   23.0410   38.1250 C   0  0  0  0  0  0  0  0  0  0  0  0
   41.5780   24.8580   39.5930 C   0  0  0  0  0  0  0  0  0  0  0  0
   37.6306   29.8421   44.7851 H   0  0  0  0  0  0  0  0  0  0  0  0
   36.4410   27.6242   45.4250 H   0  0  0  0  0  0  0  0  0  0  0  0
   38.5205   30.6438   39.9780 H   0  0  0  0  0  0  0  0  0  0  0  0
   37.3423   22.3080   41.5013 H   0  0  0  0  0  0  0  0  0  0  0  0
   35.9047   24.3813   41.6196 H   0  0  0  0  0  0  0  0  0  0  0  0
   40.2275   25.1169   37.9456 H   0  0  0  0  0  0  0  0  0  0  0  0
   40.9016   22.2996   38.9182 H   0  0  0  0  0  0  0  0  0  0  0  0
   39.8791   22.7163   37.5013 H   0  0  0  0  0  0  0  0  0  0  0  0
   41.6265   23.1325   37.5013 H   0  0  0  0  0  0  0  0  0  0  0  0
   41.3292   24.7595   40.6600 H   0  0  0  0  0  0  0  0  0  0  0  0
   42.4591   24.2408   39.3635 H   0  0  0  0  0  0  0  0  0  0  0  0
   41.7981   25.9110   39.3635 H   0  0  0  0  0  0  0  0  0  0  0  0
  1  6  1  0
  2  3  1  0
  4  3  2  0
  5 10  2  0
  5  4  1  0
  6  5  1  0
  7  8  1  0
  7  6  2  0
  8  9  2  0
  9 10  1  0
 10  2  1  0
 11 12  2  0
 13  1  1  0
 13 12  1  0
 14 13  2  0
 15 14  1  0
 15 16  2  0
 16 11  1  0
 17 15  1  0
 17 19  1  0
 18 17  1  0
  2 20  1  0
  3 21  1  0
  8 22  1  0
 11 23  1  0
 12 24  1  0
 17 25  1  0
 18 26  1  0
 18 27  1  0
 18 28  1  0
 19 29  1  0
 19 30  1  0
 19 31  1  0
M  ISO  8  20   9  21  14  22  14  23  14  24  14  25   8  26   8  27   8
M  ISO  4  28   8  29   8  30   8  31   8
M  END
>  <minimizedAffinity>  (1) 
-4.57837486

>  <minimizedRMSD>  (1) 
4.2743659

$$$$
