
     RDKit          3D

 24 26  0  0  0  0  0  0  0  0999 V2000
   39.1270   27.7150   40.3830 O   0  0  0  0  0  0  0  0  0  0  0  0
   35.6330   30.5920   40.9380 N   0  0  0  0  0  0  0  0  0  0  0  0
   35.2280   29.3510   40.6460 C   0  0  0  0  0  0  0  0  0  0  0  0
   36.3250   28.5840   40.5020 N   0  0  0  0  0  0  0  0  0  0  0  0
   37.4450   29.3060   40.6970 C   0  0  0  0  0  0  0  0  0  0  0  0
   38.8090   29.0390   40.6750 C   0  0  0  0  0  0  0  0  0  0  0  0
   39.6740   30.0590   40.9310 N   0  0  0  0  0  0  0  0  0  0  0  0
   39.2140   31.2850   41.1960 C   0  0  0  0  0  0  0  0  0  0  0  0
   37.8950   31.5830   41.2260 N   0  0  0  0  0  0  0  0  0  0  0  0
   36.9870   30.5990   40.9780 C   0  0  0  0  0  0  0  0  0  0  0  0
   38.8490   24.6920   42.3850 C   0  0  0  0  0  0  0  0  0  0  0  0
   38.6720   25.6140   41.3270 C   0  0  0  0  0  0  0  0  0  0  0  0
   39.3260   26.8630   41.4220 C   0  0  0  0  0  0  0  0  0  0  0  0
   40.0880   27.1160   42.5210 N   0  0  0  0  0  0  0  0  0  0  0  0
   40.2340   26.2080   43.5150 C   0  0  0  0  0  0  0  0  0  0  0  0
   39.6250   25.0070   43.4550 N   0  0  0  0  0  0  0  0  0  0  0  0
   41.0520   26.5790   44.6120 N   0  0  0  0  0  0  0  0  0  0  0  0
   35.0203   31.4032   41.1040 H   0  0  0  0  0  0  0  0  0  0  0  0
   34.1851   29.0169   40.5421 H   0  0  0  0  0  0  0  0  0  0  0  0
   39.9393   32.0868   41.3986 H   0  0  0  0  0  0  0  0  0  0  0  0
   38.3538   23.7108   42.3411 H   0  0  0  0  0  0  0  0  0  0  0  0
   38.0450   25.3665   40.4577 H   0  0  0  0  0  0  0  0  0  0  0  0
   41.1944   25.9231   45.3933 H   0  0  0  0  0  0  0  0  0  0  0  0
   41.5039   27.5045   44.6277 H   0  0  0  0  0  0  0  0  0  0  0  0
  1  6  1  0
  1 13  1  0
  2 10  1  0
  3  2  1  0
  4  3  2  0
  4  5  1  0
  5 10  2  0
  6  5  1  0
  6  7  2  0
  7  8  1  0
  8  9  2  0
 10  9  1  0
 11 16  2  0
 12 13  2  0
 12 11  1  0
 13 14  1  0
 14 15  2  0
 15 17  1  0
 16 15  1  0
  2 18  1  0
  3 19  1  0
  8 20  1  0
 11 21  1  0
 12 22  1  0
 17 23  1  0
 17 24  1  0
M  ISO  5  18   9  19  14  20  14  21  14  22  14
M  END
>  <minimizedAffinity>  (1) 
-4.39317465

>  <minimizedRMSD>  (1) 
0.518214107

$$$$
