
     RDKit          3D

 41 45  0  0  0  0  0  0  0  0999 V2000
   41.7480   25.9030   42.0530 C   0  0  0  0  0  0  0  0  0  0  0  0
   40.6140   26.7130   41.8610 C   0  0  0  0  0  0  0  0  0  0  0  0
   40.3290   27.7250   42.7880 C   0  0  0  0  0  0  0  0  0  0  0  0
   41.1900   27.8780   43.8600 N   0  0  0  0  0  0  0  0  0  0  0  0
   42.2540   27.0780   43.9940 C   0  0  0  0  0  0  0  0  0  0  0  0
   42.5420   26.1110   43.1230 N   0  0  0  0  0  0  0  0  0  0  0  0
   39.7090   26.5390   40.7150 C   0  0  0  0  0  0  0  0  0  0  0  0
   39.9910   27.1980   39.5240 C   0  0  0  0  0  0  0  0  0  0  0  0
   39.1460   27.0340   38.4560 C   0  0  0  0  0  0  0  0  0  0  0  0
   38.0330   26.2200   38.5740 C   0  0  0  0  0  0  0  0  0  0  0  0
   37.7230   25.5490   39.7430 C   0  0  0  0  0  0  0  0  0  0  0  0
   36.6080   24.7470   39.8260 C   0  0  0  0  0  0  0  0  0  0  0  0
   36.3320   24.0860   41.0290 C   0  0  0  0  0  0  0  0  0  0  0  0
   37.2010   24.2740   42.0810 C   0  0  0  0  0  0  0  0  0  0  0  0
   38.3280   25.0880   41.9870 C   0  0  0  0  0  0  0  0  0  0  0  0
   38.5870   25.7360   40.7860 C   0  0  0  0  0  0  0  0  0  0  0  0
   43.1470   27.2980   45.1800 C   0  0  0  0  0  0  0  0  0  0  0  0
   43.7140   28.5690   45.1480 F   0  0  0  0  0  0  0  0  0  0  0  0
   42.3940   27.3020   46.3670 F   0  0  0  0  0  0  0  0  0  0  0  0
   44.1970   26.4070   45.2410 F   0  0  0  0  0  0  0  0  0  0  0  0
   39.2290   28.4930   42.5800 O   0  0  0  0  0  0  0  0  0  0  0  0
   36.9630   31.9490   40.7220 N   0  0  0  0  0  0  0  0  0  0  0  0
   36.1500   30.9140   41.0030 C   0  0  0  0  0  0  0  0  0  0  0  0
   36.9210   29.9450   41.5490 N   0  0  0  0  0  0  0  0  0  0  0  0
   38.2190   30.3490   41.6210 C   0  0  0  0  0  0  0  0  0  0  0  0
   39.3870   29.7640   42.0790 C   0  0  0  0  0  0  0  0  0  0  0  0
   40.5390   30.4830   41.9930 N   0  0  0  0  0  0  0  0  0  0  0  0
   40.5220   31.7290   41.4710 C   0  0  0  0  0  0  0  0  0  0  0  0
   39.3830   32.3190   41.0160 N   0  0  0  0  0  0  0  0  0  0  0  0
   38.2120   31.6340   41.0840 C   0  0  0  0  0  0  0  0  0  0  0  0
   41.9857   25.1046   41.3346 H   0  0  0  0  0  0  0  0  0  0  0  0
   40.8790   27.8417   39.4392 H   0  0  0  0  0  0  0  0  0  0  0  0
   39.3529   27.5491   37.5064 H   0  0  0  0  0  0  0  0  0  0  0  0
   37.3694   26.1021   37.7047 H   0  0  0  0  0  0  0  0  0  0  0  0
   35.9422   24.6268   38.9586 H   0  0  0  0  0  0  0  0  0  0  0  0
   35.4495   23.4373   41.1307 H   0  0  0  0  0  0  0  0  0  0  0  0
   36.9973   23.7614   43.0327 H   0  0  0  0  0  0  0  0  0  0  0  0
   39.0004   25.2151   42.8483 H   0  0  0  0  0  0  0  0  0  0  0  0
   36.6707   32.8404   40.2966 H   0  0  0  0  0  0  0  0  0  0  0  0
   35.0659   30.8650   40.8232 H   0  0  0  0  0  0  0  0  0  0  0  0
   41.4668   32.2892   41.4113 H   0  0  0  0  0  0  0  0  0  0  0  0
  1  6  2  0
  2  1  1  0
  2  3  2  0
  3  4  1  0
  4  5  2  0
  5 17  1  0
  6  5  1  0
  7 16  1  0
  7  2  1  0
  8  7  2  0
  9 10  2  0
  9  8  1  0
 10 11  1  0
 11 12  1  0
 11 16  2  0
 12 13  2  0
 13 14  1  0
 15 14  2  0
 16 15  1  0
 17 20  1  0
 17 19  1  0
 18 17  1  0
 21  3  1  0
 22 23  1  0
 22 30  1  0
 23 24  2  0
 24 25  1  0
 25 26  2  0
 26 21  1  0
 27 26  1  0
 28 27  2  0
 29 30  2  0
 29 28  1  0
 30 25  1  0
  1 31  1  0
  8 32  1  0
  9 33  1  0
 10 34  1  0
 12 35  1  0
 13 36  1  0
 14 37  1  0
 15 38  1  0
 22 39  1  0
 23 40  1  0
 28 41  1  0
M  ISO  8  31  14  32  14  33  14  34  14  35  14  36  14  37  14  38  14
M  ISO  3  39   9  40  14  41  14
M  END
>  <minimizedAffinity>  (1) 
-5.92343044

>  <minimizedRMSD>  (1) 
3.43782234

$$$$
