
     RDKit          3D

 38 41  0  0  0  0  0  0  0  0999 V2000
   44.5080   26.2590   44.2580 C   0  0  0  0  0  0  0  0  0  0  0  0
   43.2990   26.3120   43.5190 C   0  0  0  0  0  0  0  0  0  0  0  0
   42.1570   26.8610   44.0980 C   0  0  0  0  0  0  0  0  0  0  0  0
   42.2560   27.3370   45.3880 N   0  0  0  0  0  0  0  0  0  0  0  0
   43.4320   27.2660   46.0550 C   0  0  0  0  0  0  0  0  0  0  0  0
   44.5380   26.7400   45.5110 N   0  0  0  0  0  0  0  0  0  0  0  0
   43.4050   25.7750   42.2260 N   0  0  0  0  0  0  0  0  0  0  0  0
   42.3790   25.4690   41.4120 C   0  0  0  0  0  0  0  0  0  0  0  0
   42.7160   24.9520   40.1790 C   0  0  0  0  0  0  0  0  0  0  0  0
   41.6160   24.5990   39.2500 C   0  0  0  0  0  0  0  0  0  0  0  0
   44.0090   24.7380   39.7470 C   0  0  0  0  0  0  0  0  0  0  0  0
   44.2860   24.2650   38.6220 O   0  0  0  0  0  0  0  0  0  0  0  0
   45.0010   25.0670   40.6160 N   0  0  0  0  0  0  0  0  0  0  0  0
   44.6830   25.5790   41.8380 C   0  0  0  0  0  0  0  0  0  0  0  0
   45.6990   25.8440   42.5490 O   0  0  0  0  0  0  0  0  0  0  0  0
   43.4590   27.8040   47.4500 C   0  0  0  0  0  0  0  0  0  0  0  0
   43.5940   29.1980   47.4410 F   0  0  0  0  0  0  0  0  0  0  0  0
   42.2440   27.5830   48.0970 F   0  0  0  0  0  0  0  0  0  0  0  0
   44.5370   27.3150   48.1760 F   0  0  0  0  0  0  0  0  0  0  0  0
   41.0380   26.8810   43.3420 O   0  0  0  0  0  0  0  0  0  0  0  0
   37.0820   29.1320   43.3680 N   0  0  0  0  0  0  0  0  0  0  0  0
   36.9390   27.8710   43.8110 C   0  0  0  0  0  0  0  0  0  0  0  0
   38.1620   27.2900   43.7640 N   0  0  0  0  0  0  0  0  0  0  0  0
   39.0840   28.1620   43.2990 C   0  0  0  0  0  0  0  0  0  0  0  0
   40.4560   28.1030   43.0530 C   0  0  0  0  0  0  0  0  0  0  0  0
   41.0790   29.2040   42.5700 N   0  0  0  0  0  0  0  0  0  0  0  0
   40.3660   30.3370   42.3350 C   0  0  0  0  0  0  0  0  0  0  0  0
   39.0330   30.4320   42.5620 N   0  0  0  0  0  0  0  0  0  0  0  0
   38.3640   29.3350   43.0520 C   0  0  0  0  0  0  0  0  0  0  0  0
   45.4142   25.8272   43.8082 H   0  0  0  0  0  0  0  0  0  0  0  0
   41.3320   25.6223   41.7124 H   0  0  0  0  0  0  0  0  0  0  0  0
   40.7251   24.3131   39.8284 H   0  0  0  0  0  0  0  0  0  0  0  0
   41.3789   25.4662   38.6161 H   0  0  0  0  0  0  0  0  0  0  0  0
   41.9278   23.7558   38.6161 H   0  0  0  0  0  0  0  0  0  0  0  0
   45.9872   24.9301   40.3523 H   0  0  0  0  0  0  0  0  0  0  0  0
   36.3269   29.8277   43.2857 H   0  0  0  0  0  0  0  0  0  0  0  0
   36.0043   27.3993   44.1484 H   0  0  0  0  0  0  0  0  0  0  0  0
   40.8952   31.2178   41.9424 H   0  0  0  0  0  0  0  0  0  0  0  0
  1  6  2  0
  2  3  2  0
  2  1  1  0
  3  4  1  0
  4  5  2  0
  5 16  1  0
  6  5  1  0
  7  2  1  0
  8  7  1  0
  9  8  2  0
 10  9  1  0
 11  9  1  0
 11 13  1  0
 12 11  2  0
 13 14  1  0
 14  7  1  0
 14 15  2  0
 16 18  1  0
 16 19  1  0
 17 16  1  0
 20  3  1  0
 21 22  1  0
 23 22  2  0
 24 23  1  0
 25 24  2  0
 25 20  1  0
 26 25  1  0
 27 28  1  0
 27 26  2  0
 28 29  2  0
 29 24  1  0
 29 21  1  0
  1 30  1  0
  8 31  1  0
 10 32  1  0
 10 33  1  0
 10 34  1  0
 13 35  1  0
 21 36  1  0
 22 37  1  0
 27 38  1  0
M  ISO  8  30  14  31  14  32   8  33   8  34   8  35   9  36   9  37  14
M  ISO  1  38  14
M  END
>  <minimizedAffinity>  (1) 
-5.88173389

>  <minimizedRMSD>  (1) 
0.374960989

$$$$
