
     RDKit          3D

 25 26  0  0  0  0  0  0  0  0999 V2000
   39.4860   31.5150   39.4650 C   0  0  0  0  0  0  0  0  0  0  0  0
   38.8260   32.7650   39.2320 C   0  0  0  0  0  0  0  0  0  0  0  0
   37.4940   32.6700   38.8200 C   0  0  0  0  0  0  0  0  0  0  0  0
   36.9110   31.4400   38.6670 N   0  0  0  0  0  0  0  0  0  0  0  0
   37.5870   30.3120   38.9010 C   0  0  0  0  0  0  0  0  0  0  0  0
   38.8580   30.3470   39.2950 N   0  0  0  0  0  0  0  0  0  0  0  0
   39.5190   33.9910   39.4220 N   0  0  0  0  0  0  0  0  0  0  0  0
   39.7110   34.5970   40.6950 C   0  0  0  0  0  0  0  0  0  0  0  0
   38.6900   34.5380   41.5140 N   0  0  0  0  0  0  0  0  0  0  0  0
   41.0050   35.1960   40.9150 N   0  0  0  0  0  0  0  0  0  0  0  0
   38.7270   34.9570   42.4550 H   0  0  0  0  0  0  0  0  0  0  0  0
   36.9230   29.0230   38.7240 C   0  0  0  0  0  0  0  0  0  0  0  0
   35.7650   28.8960   37.9840 C   0  0  0  0  0  0  0  0  0  0  0  0
   35.0880   27.7070   37.7790 C   0  0  0  0  0  0  0  0  0  0  0  0
   35.6190   26.6090   38.3530 N   0  0  0  0  0  0  0  0  0  0  0  0
   36.7540   26.6920   39.0870 C   0  0  0  0  0  0  0  0  0  0  0  0
   37.3680   27.8690   39.2530 N   0  0  0  0  0  0  0  0  0  0  0  0
   40.5362   31.5162   39.7921 H   0  0  0  0  0  0  0  0  0  0  0  0
   36.9139   33.5827   38.6186 H   0  0  0  0  0  0  0  0  0  0  0  0
   39.9032   34.4668   38.5932 H   0  0  0  0  0  0  0  0  0  0  0  0
   41.2148   35.6530   41.8139 H   0  0  0  0  0  0  0  0  0  0  0  0
   41.7189   35.1666   40.1732 H   0  0  0  0  0  0  0  0  0  0  0  0
   35.3506   29.8053   37.5242 H   0  0  0  0  0  0  0  0  0  0  0  0
   34.1665   27.6602   37.1801 H   0  0  0  0  0  0  0  0  0  0  0  0
   37.1736   25.7864   39.5494 H   0  0  0  0  0  0  0  0  0  0  0  0
  2  7  1  0
  2  1  2  0
  3  2  1  0
  4  3  2  0
  4  5  1  0
  5  6  2  0
  6  1  1  0
  7  8  1  0
  8 10  1  0
  8  9  2  0
  9 11  1  0
 12  5  1  0
 12 17  1  0
 13 12  2  0
 14 13  1  0
 14 15  2  0
 15 16  1  0
 16 17  2  0
  1 18  1  0
  3 19  1  0
  7 20  1  0
 10 21  1  0
 10 22  1  0
 13 23  1  0
 14 24  1  0
 16 25  1  0
M  ISO  5  18  14  19  14  23  14  24  14  25  14
M  END
>  <minimizedAffinity>  (1) 
-4.24244308

>  <minimizedRMSD>  (1) 
5.99405241

$$$$
