
     RDKit          3D

 32 34  0  0  0  0  0  0  0  0999 V2000
   44.2030   25.8420   44.0990 C   0  0  0  0  0  0  0  0  0  0  0  0
   42.9610   25.8480   43.4480 C   0  0  0  0  0  0  0  0  0  0  0  0
   41.9260   26.6150   44.0110 C   0  0  0  0  0  0  0  0  0  0  0  0
   42.1830   27.3120   45.1560 N   0  0  0  0  0  0  0  0  0  0  0  0
   43.3850   27.2750   45.7370 C   0  0  0  0  0  0  0  0  0  0  0  0
   44.3900   26.5500   45.2220 N   0  0  0  0  0  0  0  0  0  0  0  0
   42.7470   25.0940   42.2610 N   0  0  0  0  0  0  0  0  0  0  0  0
   43.0800   25.5200   40.9480 C   0  0  0  0  0  0  0  0  0  0  0  0
   42.7320   26.7390   40.6860 N   0  0  0  0  0  0  0  0  0  0  0  0
   43.7450   24.5690   40.0890 N   0  0  0  0  0  0  0  0  0  0  0  0
   42.9110   27.1780   39.7790 H   0  0  0  0  0  0  0  0  0  0  0  0
   43.5960   28.0640   46.9910 C   0  0  0  0  0  0  0  0  0  0  0  0
   43.6510   29.4270   46.7080 F   0  0  0  0  0  0  0  0  0  0  0  0
   42.4950   27.9180   47.8470 F   0  0  0  0  0  0  0  0  0  0  0  0
   44.7800   27.7450   47.6260 F   0  0  0  0  0  0  0  0  0  0  0  0
   40.7230   26.6080   43.3640 O   0  0  0  0  0  0  0  0  0  0  0  0
   36.9650   29.1380   43.5260 N   0  0  0  0  0  0  0  0  0  0  0  0
   36.8230   28.0030   44.2070 C   0  0  0  0  0  0  0  0  0  0  0  0
   37.9870   27.3250   44.0990 N   0  0  0  0  0  0  0  0  0  0  0  0
   38.8740   28.0130   43.3560 C   0  0  0  0  0  0  0  0  0  0  0  0
   40.1810   27.7940   42.9380 C   0  0  0  0  0  0  0  0  0  0  0  0
   40.7860   28.7390   42.1690 N   0  0  0  0  0  0  0  0  0  0  0  0
   40.1160   29.8600   41.8320 C   0  0  0  0  0  0  0  0  0  0  0  0
   38.8370   30.1070   42.2230 N   0  0  0  0  0  0  0  0  0  0  0  0
   38.1920   29.1790   42.9980 C   0  0  0  0  0  0  0  0  0  0  0  0
   45.0323   25.2503   43.6840 H   0  0  0  0  0  0  0  0  0  0  0  0
   42.3158   24.1641   42.3620 H   0  0  0  0  0  0  0  0  0  0  0  0
   44.0047   24.8361   39.1287 H   0  0  0  0  0  0  0  0  0  0  0  0
   43.9597   23.6234   40.4365 H   0  0  0  0  0  0  0  0  0  0  0  0
   36.2450   29.8673   43.4227 H   0  0  0  0  0  0  0  0  0  0  0  0
   35.9263   27.6779   44.7549 H   0  0  0  0  0  0  0  0  0  0  0  0
   40.6283   30.6100   41.2115 H   0  0  0  0  0  0  0  0  0  0  0  0
  1  6  2  0
  2  3  2  0
  2  1  1  0
  3  4  1  0
  4  5  2  0
  5 12  1  0
  6  5  1  0
  7  2  1  0
  8  7  1  0
  9  8  2  0
 10  8  1  0
 11  9  1  0
 12 15  1  0
 12 14  1  0
 13 12  1  0
 16  3  1  0
 17 18  1  0
 19 18  2  0
 20 19  1  0
 21 20  2  0
 21 16  1  0
 22 21  1  0
 23 22  2  0
 23 24  1  0
 24 25  2  0
 25 20  1  0
 25 17  1  0
  1 26  1  0
  7 27  1  0
 10 28  1  0
 10 29  1  0
 17 30  1  0
 18 31  1  0
 23 32  1  0
M  ISO  4  26  14  30   9  31  14  32  14
M  END
>  <minimizedAffinity>  (1) 
-5.62499857

>  <minimizedRMSD>  (1) 
0.881823659

$$$$
