
     RDKit          3D

 35 38  0  0  0  0  0  0  0  0999 V2000
   44.5900   26.3950   44.3370 C   0  0  0  0  0  0  0  0  0  0  0  0
   43.4150   26.4320   43.5640 C   0  0  0  0  0  0  0  0  0  0  0  0
   42.2340   26.9340   44.1330 C   0  0  0  0  0  0  0  0  0  0  0  0
   42.2790   27.3730   45.4320 N   0  0  0  0  0  0  0  0  0  0  0  0
   43.4230   27.3190   46.1360 C   0  0  0  0  0  0  0  0  0  0  0  0
   44.5670   26.8420   45.6120 N   0  0  0  0  0  0  0  0  0  0  0  0
   43.3920   25.9580   42.1770 C   0  0  0  0  0  0  0  0  0  0  0  0
   44.5410   26.1700   41.4390 C   0  0  0  0  0  0  0  0  0  0  0  0
   44.6360   25.7620   40.1130 C   0  0  0  0  0  0  0  0  0  0  0  0
   43.5450   25.1310   39.5260 C   0  0  0  0  0  0  0  0  0  0  0  0
   42.3970   24.9220   40.2740 C   0  0  0  0  0  0  0  0  0  0  0  0
   42.3090   25.3340   41.6060 C   0  0  0  0  0  0  0  0  0  0  0  0
   43.4060   27.8130   47.5510 C   0  0  0  0  0  0  0  0  0  0  0  0
   43.3850   29.2070   47.5790 F   0  0  0  0  0  0  0  0  0  0  0  0
   42.2240   27.4430   48.1880 F   0  0  0  0  0  0  0  0  0  0  0  0
   44.5310   27.4180   48.2600 F   0  0  0  0  0  0  0  0  0  0  0  0
   41.1170   26.9560   43.3600 O   0  0  0  0  0  0  0  0  0  0  0  0
   37.1210   29.0920   43.3350 N   0  0  0  0  0  0  0  0  0  0  0  0
   37.0010   27.8260   43.7460 C   0  0  0  0  0  0  0  0  0  0  0  0
   38.2390   27.2720   43.7210 N   0  0  0  0  0  0  0  0  0  0  0  0
   39.1480   28.1820   43.2940 C   0  0  0  0  0  0  0  0  0  0  0  0
   40.5170   28.1640   43.0820 C   0  0  0  0  0  0  0  0  0  0  0  0
   41.1150   29.2970   42.6360 N   0  0  0  0  0  0  0  0  0  0  0  0
   40.3850   30.4040   42.4100 C   0  0  0  0  0  0  0  0  0  0  0  0
   39.0490   30.4580   42.6060 N   0  0  0  0  0  0  0  0  0  0  0  0
   38.4030   29.3410   43.0540 C   0  0  0  0  0  0  0  0  0  0  0  0
   45.5232   26.0040   43.9054 H   0  0  0  0  0  0  0  0  0  0  0  0
   45.3986   26.6721   41.9105 H   0  0  0  0  0  0  0  0  0  0  0  0
   45.5580   25.9354   39.5387 H   0  0  0  0  0  0  0  0  0  0  0  0
   43.5925   24.8007   38.4778 H   0  0  0  0  0  0  0  0  0  0  0  0
   41.5358   24.4204   39.8084 H   0  0  0  0  0  0  0  0  0  0  0  0
   41.3906   25.1622   42.1865 H   0  0  0  0  0  0  0  0  0  0  0  0
   36.3485   29.7677   43.2487 H   0  0  0  0  0  0  0  0  0  0  0  0
   36.0696   27.3253   44.0489 H   0  0  0  0  0  0  0  0  0  0  0  0
   40.8992   31.3069   42.0490 H   0  0  0  0  0  0  0  0  0  0  0  0
  1  6  2  0
  2  3  2  0
  2  1  1  0
  3  4  1  0
  4  5  2  0
  5 13  1  0
  6  5  1  0
  7  2  1  0
  8  7  2  0
  9  8  1  0
 10  9  2  0
 10 11  1  0
 11 12  2  0
 12  7  1  0
 13 14  1  0
 13 15  1  0
 13 16  1  0
 17  3  1  0
 18 19  1  0
 20 19  2  0
 21 20  1  0
 22 21  2  0
 22 17  1  0
 23 22  1  0
 24 25  1  0
 24 23  2  0
 25 26  2  0
 26 21  1  0
 26 18  1  0
  1 27  1  0
  8 28  1  0
  9 29  1  0
 10 30  1  0
 11 31  1  0
 12 32  1  0
 18 33  1  0
 19 34  1  0
 24 35  1  0
M  ISO  8  27  14  28  14  29  14  30  14  31  14  32  14  33   9  34  14
M  ISO  1  35  14
M  END
>  <minimizedAffinity>  (1) 
-5.59989548

>  <minimizedRMSD>  (1) 
0.261681437

$$$$
