
     RDKit          3D

 38 41  0  0  0  0  0  0  0  0999 V2000
   44.5430   26.3500   44.3140 C   0  0  0  0  0  0  0  0  0  0  0  0
   43.3290   26.3760   43.5790 C   0  0  0  0  0  0  0  0  0  0  0  0
   42.1790   26.8860   44.1680 C   0  0  0  0  0  0  0  0  0  0  0  0
   42.2630   27.3520   45.4620 N   0  0  0  0  0  0  0  0  0  0  0  0
   43.4310   27.3120   46.1290 C   0  0  0  0  0  0  0  0  0  0  0  0
   44.5550   26.8250   45.5830 N   0  0  0  0  0  0  0  0  0  0  0  0
   43.9360   24.8780   39.6920 C   0  0  0  0  0  0  0  0  0  0  0  0
   45.0290   25.2910   40.4590 C   0  0  0  0  0  0  0  0  0  0  0  0
   44.7200   25.7740   41.7360 C   0  0  0  0  0  0  0  0  0  0  0  0
   43.4220   25.8490   42.2400 C   0  0  0  0  0  0  0  0  0  0  0  0
   42.3830   25.4240   41.4370 C   0  0  0  0  0  0  0  0  0  0  0  0
   42.6270   24.9380   40.1640 C   0  0  0  0  0  0  0  0  0  0  0  0
   44.3080   24.2720   38.0930 S   0  0  0  0  0  0  0  0  0  0  0  0
   45.6260   23.5660   38.0660 O   0  0  0  0  0  0  0  0  0  0  0  0
   43.1790   23.4280   37.6320 O   0  0  0  0  0  0  0  0  0  0  0  0
   43.4520   27.8380   47.5410 C   0  0  0  0  0  0  0  0  0  0  0  0
   43.4490   29.2200   47.5500 F   0  0  0  0  0  0  0  0  0  0  0  0
   42.2710   27.4640   48.2090 F   0  0  0  0  0  0  0  0  0  0  0  0
   44.5830   27.4200   48.2310 F   0  0  0  0  0  0  0  0  0  0  0  0
   41.0450   26.8860   43.4140 O   0  0  0  0  0  0  0  0  0  0  0  0
   37.0810   29.1120   43.3380 N   0  0  0  0  0  0  0  0  0  0  0  0
   36.9460   27.8620   43.8100 C   0  0  0  0  0  0  0  0  0  0  0  0
   38.1700   27.2840   43.7940 N   0  0  0  0  0  0  0  0  0  0  0  0
   39.0990   28.1570   43.3130 C   0  0  0  0  0  0  0  0  0  0  0  0
   40.4700   28.1000   43.0860 C   0  0  0  0  0  0  0  0  0  0  0  0
   41.0820   29.1910   42.5850 N   0  0  0  0  0  0  0  0  0  0  0  0
   40.3640   30.3010   42.3190 C   0  0  0  0  0  0  0  0  0  0  0  0
   39.0360   30.3910   42.5270 N   0  0  0  0  0  0  0  0  0  0  0  0
   38.3660   29.3220   43.0310 C   0  0  0  0  0  0  0  0  0  0  0  0
   45.4614   25.9498   43.8597 H   0  0  0  0  0  0  0  0  0  0  0  0
   46.0620   25.2399   40.0845 H   0  0  0  0  0  0  0  0  0  0  0  0
   45.5468   26.1131   42.3774 H   0  0  0  0  0  0  0  0  0  0  0  0
   41.3502   25.4720   41.8125 H   0  0  0  0  0  0  0  0  0  0  0  0
   41.7934   24.6017   39.5300 H   0  0  0  0  0  0  0  0  0  0  0  0
   44.4468   25.3148   37.2154 H   0  0  0  0  0  0  0  0  0  0  0  0
   36.3195   29.7971   43.2300 H   0  0  0  0  0  0  0  0  0  0  0  0
   36.0104   27.3928   44.1483 H   0  0  0  0  0  0  0  0  0  0  0  0
   40.8892   31.1774   41.9115 H   0  0  0  0  0  0  0  0  0  0  0  0
  1  6  2  0
  2  3  2  0
  2  1  1  0
  3  4  1  0
  4  5  2  0
  5 16  1  0
  6  5  1  0
  7 12  2  0
  7  8  1  0
  8  9  2  0
  9 10  1  0
 10  2  1  0
 11 10  2  0
 12 11  1  0
 13  7  1  0
 14 13  2  0
 15 13  2  0
 16 17  1  0
 16 18  1  0
 16 19  1  0
 20  3  1  0
 21 22  1  0
 23 22  2  0
 24 23  1  0
 25 24  2  0
 25 20  1  0
 26 25  1  0
 27 28  1  0
 27 26  2  0
 28 29  2  0
 29 24  1  0
 29 21  1  0
  1 30  1  0
  8 31  1  0
  9 32  1  0
 11 33  1  0
 12 34  1  0
 13 35  1  0
 21 36  1  0
 22 37  1  0
 27 38  1  0
M  ISO  8  30  14  31  14  32  14  33  14  34  14  35  11  36   9  37  14
M  ISO  1  38  14
M  END
>  <minimizedAffinity>  (1) 
-5.5287962

>  <minimizedRMSD>  (1) 
0.220458001

$$$$
