
     RDKit          3D

 41 44  0  0  0  0  0  0  0  0999 V2000
   44.5520   26.3780   44.4250 C   0  0  0  0  0  0  0  0  0  0  0  0
   43.3770   26.3970   43.6580 C   0  0  0  0  0  0  0  0  0  0  0  0
   42.2120   26.9400   44.2100 C   0  0  0  0  0  0  0  0  0  0  0  0
   42.2750   27.4360   45.4970 N   0  0  0  0  0  0  0  0  0  0  0  0
   43.4160   27.4000   46.1970 C   0  0  0  0  0  0  0  0  0  0  0  0
   44.5480   26.8800   45.6790 N   0  0  0  0  0  0  0  0  0  0  0  0
   43.3710   25.8500   42.2850 C   0  0  0  0  0  0  0  0  0  0  0  0
   43.5740   26.9270   41.2420 C   0  0  0  0  0  0  0  0  0  0  0  0
   43.7530   26.2340   39.9070 C   0  0  0  0  0  0  0  0  0  0  0  0
   42.4190   25.6320   39.5200 C   0  0  0  0  0  0  0  0  0  0  0  0
   41.4620   25.5840   40.6760 C   0  0  0  0  0  0  0  0  0  0  0  0
   42.1460   25.0700   41.9320 C   0  0  0  0  0  0  0  0  0  0  0  0
   43.4240   27.9510   47.5800 C   0  0  0  0  0  0  0  0  0  0  0  0
   43.4620   29.3470   47.5440 F   0  0  0  0  0  0  0  0  0  0  0  0
   42.2240   27.6570   48.2280 F   0  0  0  0  0  0  0  0  0  0  0  0
   44.5210   27.5450   48.3180 F   0  0  0  0  0  0  0  0  0  0  0  0
   41.0970   26.9400   43.4380 O   0  0  0  0  0  0  0  0  0  0  0  0
   37.0940   29.0970   43.3140 N   0  0  0  0  0  0  0  0  0  0  0  0
   36.9680   27.8390   43.7450 C   0  0  0  0  0  0  0  0  0  0  0  0
   38.2040   27.2800   43.7480 N   0  0  0  0  0  0  0  0  0  0  0  0
   39.1200   28.1800   43.3200 C   0  0  0  0  0  0  0  0  0  0  0  0
   40.4950   28.1520   43.1290 C   0  0  0  0  0  0  0  0  0  0  0  0
   41.1080   29.2720   42.6720 N   0  0  0  0  0  0  0  0  0  0  0  0
   40.3750   30.3820   42.4150 C   0  0  0  0  0  0  0  0  0  0  0  0
   39.0410   30.4430   42.5900 N   0  0  0  0  0  0  0  0  0  0  0  0
   38.3830   29.3350   43.0490 C   0  0  0  0  0  0  0  0  0  0  0  0
   45.4762   25.9543   44.0051 H   0  0  0  0  0  0  0  0  0  0  0  0
   44.2208   25.1515   42.2808 H   0  0  0  0  0  0  0  0  0  0  0  0
   42.6956   27.5883   41.2080 H   0  0  0  0  0  0  0  0  0  0  0  0
   44.4543   27.5411   41.4829 H   0  0  0  0  0  0  0  0  0  0  0  0
   44.0705   26.9622   39.1462 H   0  0  0  0  0  0  0  0  0  0  0  0
   44.5231   25.4518   39.9785 H   0  0  0  0  0  0  0  0  0  0  0  0
   41.9753   26.2399   38.7178 H   0  0  0  0  0  0  0  0  0  0  0  0
   42.5984   24.5991   39.1868 H   0  0  0  0  0  0  0  0  0  0  0  0
   41.0767   26.5967   40.8656 H   0  0  0  0  0  0  0  0  0  0  0  0
   40.6401   24.8990   40.4207 H   0  0  0  0  0  0  0  0  0  0  0  0
   41.4358   25.1329   42.7697 H   0  0  0  0  0  0  0  0  0  0  0  0
   42.4580   24.0331   41.7384 H   0  0  0  0  0  0  0  0  0  0  0  0
   36.3246   29.7729   43.2038 H   0  0  0  0  0  0  0  0  0  0  0  0
   36.0313   27.3455   44.0435 H   0  0  0  0  0  0  0  0  0  0  0  0
   40.8952   31.2779   42.0451 H   0  0  0  0  0  0  0  0  0  0  0  0
  1  6  2  0
  2  3  2  0
  2  1  1  0
  3  4  1  0
  4  5  2  0
  5 13  1  0
  6  5  1  0
  7  2  1  0
  8  7  1  0
  9  8  1  0
 10  9  1  0
 10 11  1  0
 11 12  1  0
 12  7  1  0
 13 15  1  0
 13 16  1  0
 14 13  1  0
 17  3  1  0
 18 19  1  0
 19 20  2  0
 21 20  1  0
 22 21  2  0
 22 17  1  0
 23 22  1  0
 24 25  1  0
 24 23  2  0
 25 26  2  0
 26 18  1  0
 26 21  1  0
  1 27  1  0
  7 28  1  0
  8 29  1  0
  8 30  1  0
  9 31  1  0
  9 32  1  0
 10 33  1  0
 10 34  1  0
 11 35  1  0
 11 36  1  0
 12 37  1  0
 12 38  1  0
 18 39  1  0
 19 40  1  0
 24 41  1  0
M  ISO  8  27  14  28  13  29  13  30  13  31  13  32  13  33  13  34  13
M  ISO  7  35  13  36  13  37  13  38  13  39   9  40  14  41  14
M  END
>  <minimizedAffinity>  (1) 
-5.50451279

>  <minimizedRMSD>  (1) 
0.399124295

$$$$
