
     RDKit          3D

 30 33  0  0  0  0  0  0  0  0999 V2000
   44.5600   26.3830   44.3840 C   0  0  0  0  0  0  0  0  0  0  0  0
   43.3690   26.3990   43.6230 C   0  0  0  0  0  0  0  0  0  0  0  0
   42.2060   26.9180   44.1840 C   0  0  0  0  0  0  0  0  0  0  0  0
   42.2690   27.4010   45.4790 N   0  0  0  0  0  0  0  0  0  0  0  0
   43.4240   27.3630   46.1610 C   0  0  0  0  0  0  0  0  0  0  0  0
   44.5440   26.8680   45.6320 N   0  0  0  0  0  0  0  0  0  0  0  0
   43.3450   25.8790   42.2590 C   0  0  0  0  0  0  0  0  0  0  0  0
   42.3720   25.1920   41.6160 N   0  0  0  0  0  0  0  0  0  0  0  0
   42.7590   24.9120   40.3890 O   0  0  0  0  0  0  0  0  0  0  0  0
   43.9640   25.4090   40.2320 C   0  0  0  0  0  0  0  0  0  0  0  0
   44.3500   26.0130   41.3750 N   0  0  0  0  0  0  0  0  0  0  0  0
   43.4160   27.9070   47.5660 C   0  0  0  0  0  0  0  0  0  0  0  0
   43.4380   29.2880   47.5550 F   0  0  0  0  0  0  0  0  0  0  0  0
   42.2170   27.5650   48.2070 F   0  0  0  0  0  0  0  0  0  0  0  0
   44.5210   27.4830   48.2840 F   0  0  0  0  0  0  0  0  0  0  0  0
   41.0820   26.9150   43.4170 O   0  0  0  0  0  0  0  0  0  0  0  0
   37.1010   29.1020   43.3310 N   0  0  0  0  0  0  0  0  0  0  0  0
   36.9710   27.8490   43.7930 C   0  0  0  0  0  0  0  0  0  0  0  0
   38.2000   27.2800   43.7820 N   0  0  0  0  0  0  0  0  0  0  0  0
   39.1250   28.1650   43.3130 C   0  0  0  0  0  0  0  0  0  0  0  0
   40.4900   28.1260   43.0930 C   0  0  0  0  0  0  0  0  0  0  0  0
   41.1040   29.2260   42.6020 N   0  0  0  0  0  0  0  0  0  0  0  0
   40.3770   30.3290   42.3390 C   0  0  0  0  0  0  0  0  0  0  0  0
   39.0390   30.4060   42.5400 N   0  0  0  0  0  0  0  0  0  0  0  0
   38.3800   29.3070   43.0390 C   0  0  0  0  0  0  0  0  0  0  0  0
   45.4886   25.9771   43.9563 H   0  0  0  0  0  0  0  0  0  0  0  0
   44.5646   25.3433   39.3128 H   0  0  0  0  0  0  0  0  0  0  0  0
   36.3396   29.7870   43.2217 H   0  0  0  0  0  0  0  0  0  0  0  0
   36.0362   27.3709   44.1210 H   0  0  0  0  0  0  0  0  0  0  0  0
   40.8962   31.2131   41.9404 H   0  0  0  0  0  0  0  0  0  0  0  0
  1  6  2  0
  2  3  2  0
  2  1  1  0
  3  4  1  0
  4  5  2  0
  5 12  1  0
  6  5  1  0
  7  2  1  0
  8  7  2  0
  9  8  1  0
 10  9  1  0
 10 11  2  0
 11  7  1  0
 12 14  1  0
 12 15  1  0
 13 12  1  0
 16  3  1  0
 17 18  1  0
 19 18  2  0
 20 19  1  0
 21 20  2  0
 21 16  1  0
 22 21  1  0
 23 24  1  0
 23 22  2  0
 24 25  2  0
 25 20  1  0
 25 17  1  0
  1 26  1  0
 10 27  1  0
 17 28  1  0
 18 29  1  0
 23 30  1  0
M  ISO  5  26  14  27  14  28   9  29  14  30  14
M  END
>  <minimizedAffinity>  (1) 
-5.48083878

>  <minimizedRMSD>  (1) 
0.338364989

$$$$
