
     RDKit          3D

 32 35  0  0  0  0  0  0  0  0999 V2000
   44.5390   26.3430   44.3650 C   0  0  0  0  0  0  0  0  0  0  0  0
   43.3450   26.3690   43.6240 C   0  0  0  0  0  0  0  0  0  0  0  0
   42.1890   26.8930   44.1900 C   0  0  0  0  0  0  0  0  0  0  0  0
   42.2610   27.3700   45.4690 N   0  0  0  0  0  0  0  0  0  0  0  0
   43.4210   27.3320   46.1550 C   0  0  0  0  0  0  0  0  0  0  0  0
   44.5490   26.8280   45.6200 N   0  0  0  0  0  0  0  0  0  0  0  0
   43.3160   25.8600   42.2940 N   0  0  0  0  0  0  0  0  0  0  0  0
   42.4010   25.3550   41.4570 C   0  0  0  0  0  0  0  0  0  0  0  0
   43.0820   25.0490   40.2780 C   0  0  0  0  0  0  0  0  0  0  0  0
   44.3920   25.3770   40.4320 N   0  0  0  0  0  0  0  0  0  0  0  0
   44.5310   25.8820   41.6890 C   0  0  0  0  0  0  0  0  0  0  0  0
   43.4290   27.8750   47.5590 C   0  0  0  0  0  0  0  0  0  0  0  0
   43.4010   29.2550   47.5540 F   0  0  0  0  0  0  0  0  0  0  0  0
   42.2560   27.4950   48.2260 F   0  0  0  0  0  0  0  0  0  0  0  0
   44.5500   27.4860   48.2670 F   0  0  0  0  0  0  0  0  0  0  0  0
   41.0600   26.8910   43.4210 O   0  0  0  0  0  0  0  0  0  0  0  0
   37.1000   29.0990   43.3410 N   0  0  0  0  0  0  0  0  0  0  0  0
   36.9530   27.8550   43.8060 C   0  0  0  0  0  0  0  0  0  0  0  0
   38.1840   27.2760   43.7930 N   0  0  0  0  0  0  0  0  0  0  0  0
   39.1100   28.1590   43.3180 C   0  0  0  0  0  0  0  0  0  0  0  0
   40.4830   28.1100   43.0920 C   0  0  0  0  0  0  0  0  0  0  0  0
   41.0900   29.2020   42.6000 N   0  0  0  0  0  0  0  0  0  0  0  0
   40.3860   30.3150   42.3310 C   0  0  0  0  0  0  0  0  0  0  0  0
   39.0400   30.4050   42.5370 N   0  0  0  0  0  0  0  0  0  0  0  0
   38.3920   29.3180   43.0350 C   0  0  0  0  0  0  0  0  0  0  0  0
   45.4574   25.9297   43.9227 H   0  0  0  0  0  0  0  0  0  0  0  0
   41.3292   25.2105   41.6581 H   0  0  0  0  0  0  0  0  0  0  0  0
   42.6326   24.6140   39.3731 H   0  0  0  0  0  0  0  0  0  0  0  0
   45.4674   26.2455   42.1373 H   0  0  0  0  0  0  0  0  0  0  0  0
   36.3400   29.7858   43.2332 H   0  0  0  0  0  0  0  0  0  0  0  0
   36.0139   27.3873   44.1369 H   0  0  0  0  0  0  0  0  0  0  0  0
   40.9171   31.1899   41.9279 H   0  0  0  0  0  0  0  0  0  0  0  0
  1  6  2  0
  2  3  2  0
  2  1  1  0
  3  4  1  0
  4  5  2  0
  5 12  1  0
  6  5  1  0
  7  2  1  0
  8  7  1  0
  9 10  1  0
  9  8  2  0
 10 11  2  0
 11  7  1  0
 12 14  1  0
 12 15  1  0
 13 12  1  0
 16  3  1  0
 17 18  1  0
 19 18  2  0
 20 19  1  0
 21 20  2  0
 21 16  1  0
 22 21  1  0
 23 24  1  0
 23 22  2  0
 24 25  2  0
 25 20  1  0
 25 17  1  0
  1 26  1  0
  8 27  1  0
  9 28  1  0
 11 29  1  0
 17 30  1  0
 18 31  1  0
 23 32  1  0
M  ISO  7  26  14  27  14  28  14  29  14  30   9  31  14  32  14
M  END
>  <minimizedAffinity>  (1) 
-5.47922611

>  <minimizedRMSD>  (1) 
0.0994747952

$$$$
