
     RDKit          3D

 27 29  0  0  0  0  0  0  0  0999 V2000
   44.4320   26.0090   44.3030 C   0  0  0  0  0  0  0  0  0  0  0  0
   43.2300   26.0500   43.5630 C   0  0  0  0  0  0  0  0  0  0  0  0
   42.1190   26.7360   44.0780 C   0  0  0  0  0  0  0  0  0  0  0  0
   42.2650   27.3460   45.3080 N   0  0  0  0  0  0  0  0  0  0  0  0
   43.4280   27.2780   45.9720 C   0  0  0  0  0  0  0  0  0  0  0  0
   44.4880   26.6290   45.4900 N   0  0  0  0  0  0  0  0  0  0  0  0
   43.5030   27.9700   47.3080 C   0  0  0  0  0  0  0  0  0  0  0  0
   43.5820   29.3510   47.1360 F   0  0  0  0  0  0  0  0  0  0  0  0
   42.3200   27.7750   48.0270 F   0  0  0  0  0  0  0  0  0  0  0  0
   44.6270   27.5960   48.0190 F   0  0  0  0  0  0  0  0  0  0  0  0
   43.1450   25.4000   42.2990 N   0  0  0  0  0  0  0  0  0  0  0  0
   40.9940   26.7440   43.3310 O   0  0  0  0  0  0  0  0  0  0  0  0
   37.1280   29.1130   43.4490 N   0  0  0  0  0  0  0  0  0  0  0  0
   36.9730   27.8940   43.9890 C   0  0  0  0  0  0  0  0  0  0  0  0
   38.1720   27.2840   43.9010 N   0  0  0  0  0  0  0  0  0  0  0  0
   39.0800   28.0860   43.3210 C   0  0  0  0  0  0  0  0  0  0  0  0
   40.4310   27.9590   42.9940 C   0  0  0  0  0  0  0  0  0  0  0  0
   41.0490   29.0130   42.3920 N   0  0  0  0  0  0  0  0  0  0  0  0
   40.3520   30.1430   42.1270 C   0  0  0  0  0  0  0  0  0  0  0  0
   39.0390   30.2960   42.4320 N   0  0  0  0  0  0  0  0  0  0  0  0
   38.3820   29.2550   43.0410 C   0  0  0  0  0  0  0  0  0  0  0  0
   45.3103   25.4755   43.9107 H   0  0  0  0  0  0  0  0  0  0  0  0
   43.9613   24.8971   41.9226 H   0  0  0  0  0  0  0  0  0  0  0  0
   42.2673   25.4327   41.7610 H   0  0  0  0  0  0  0  0  0  0  0  0
   36.3894   29.8259   43.3647 H   0  0  0  0  0  0  0  0  0  0  0  0
   36.0506   27.4757   44.4182 H   0  0  0  0  0  0  0  0  0  0  0  0
   40.8764   30.9785   41.6402 H   0  0  0  0  0  0  0  0  0  0  0  0
  1  6  2  0
  2  3  2  0
  2  1  1  0
  3  4  1  0
  4  5  2  0
  5  7  1  0
  6  5  1  0
  7 10  1  0
  7  9  1  0
  8  7  1  0
 11  2  1  0
 12  3  1  0
 13 14  1  0
 15 14  2  0
 16 15  1  0
 17 16  2  0
 17 12  1  0
 18 17  1  0
 19 18  2  0
 19 20  1  0
 20 21  2  0
 21 16  1  0
 21 13  1  0
  1 22  1  0
 11 23  1  0
 11 24  1  0
 13 25  1  0
 14 26  1  0
 19 27  1  0
M  ISO  4  22  14  25   9  26  14  27  14
M  END
>  <minimizedAffinity>  (1) 
-5.45800352

>  <minimizedRMSD>  (1) 
0.247869894

$$$$
