
     RDKit          3D

 32 35  0  0  0  0  0  0  0  0999 V2000
   44.5830   26.4630   44.2940 C   0  0  0  0  0  0  0  0  0  0  0  0
   43.3850   26.4840   43.5610 C   0  0  0  0  0  0  0  0  0  0  0  0
   42.2140   26.9420   44.1530 C   0  0  0  0  0  0  0  0  0  0  0  0
   42.2770   27.3680   45.4700 N   0  0  0  0  0  0  0  0  0  0  0  0
   43.4440   27.3300   46.1330 C   0  0  0  0  0  0  0  0  0  0  0  0
   44.5790   26.8930   45.5790 N   0  0  0  0  0  0  0  0  0  0  0  0
   43.3630   26.0300   42.1870 C   0  0  0  0  0  0  0  0  0  0  0  0
   42.3920   25.2650   41.5840 C   0  0  0  0  0  0  0  0  0  0  0  0
   42.7370   25.0440   40.2620 C   0  0  0  0  0  0  0  0  0  0  0  0
   43.9410   25.7080   40.1260 C   0  0  0  0  0  0  0  0  0  0  0  0
   44.2860   26.2770   41.2640 O   0  0  0  0  0  0  0  0  0  0  0  0
   43.4520   27.8040   47.5570 C   0  0  0  0  0  0  0  0  0  0  0  0
   43.4640   29.1890   47.6170 F   0  0  0  0  0  0  0  0  0  0  0  0
   42.2630   27.4380   48.2000 F   0  0  0  0  0  0  0  0  0  0  0  0
   44.5690   27.3820   48.2530 F   0  0  0  0  0  0  0  0  0  0  0  0
   41.0780   26.9430   43.4000 O   0  0  0  0  0  0  0  0  0  0  0  0
   37.0870   29.1050   43.3260 N   0  0  0  0  0  0  0  0  0  0  0  0
   36.9660   27.8400   43.7720 C   0  0  0  0  0  0  0  0  0  0  0  0
   38.1960   27.2890   43.7550 N   0  0  0  0  0  0  0  0  0  0  0  0
   39.1140   28.1810   43.3040 C   0  0  0  0  0  0  0  0  0  0  0  0
   40.4800   28.1430   43.0930 C   0  0  0  0  0  0  0  0  0  0  0  0
   41.0910   29.2480   42.6210 N   0  0  0  0  0  0  0  0  0  0  0  0
   40.3590   30.3650   42.3650 C   0  0  0  0  0  0  0  0  0  0  0  0
   39.0150   30.4360   42.5610 N   0  0  0  0  0  0  0  0  0  0  0  0
   38.3640   29.3320   43.0400 C   0  0  0  0  0  0  0  0  0  0  0  0
   45.5130   26.1019   43.8306 H   0  0  0  0  0  0  0  0  0  0  0  0
   41.4832   24.8877   42.0756 H   0  0  0  0  0  0  0  0  0  0  0  0
   42.1839   24.4748   39.5003 H   0  0  0  0  0  0  0  0  0  0  0  0
   44.5295   25.7552   39.1978 H   0  0  0  0  0  0  0  0  0  0  0  0
   36.3182   29.7828   43.2238 H   0  0  0  0  0  0  0  0  0  0  0  0
   36.0356   27.3476   44.0911 H   0  0  0  0  0  0  0  0  0  0  0  0
   40.8793   31.2547   41.9806 H   0  0  0  0  0  0  0  0  0  0  0  0
  1  6  2  0
  2  3  2  0
  2  1  1  0
  3  4  1  0
  4  5  2  0
  5 12  1  0
  6  5  1  0
  7  2  1  0
  8  7  2  0
  9  8  1  0
 10  9  2  0
 10 11  1  0
 11  7  1  0
 12 13  1  0
 12 14  1  0
 12 15  1  0
 16  3  1  0
 17 18  1  0
 19 18  2  0
 20 19  1  0
 21 20  2  0
 21 16  1  0
 22 21  1  0
 23 24  1  0
 23 22  2  0
 24 25  2  0
 25 20  1  0
 25 17  1  0
  1 26  1  0
  8 27  1  0
  9 28  1  0
 10 29  1  0
 17 30  1  0
 18 31  1  0
 23 32  1  0
M  ISO  7  26  14  27  14  28  14  29  14  30   9  31  14  32  14
M  END
>  <minimizedAffinity>  (1) 
-5.43608761

>  <minimizedRMSD>  (1) 
0.280331582

$$$$
