
     RDKit          3D

 28 30  0  0  0  0  0  0  0  0999 V2000
   44.5630   26.3750   44.4270 C   0  0  0  0  0  0  0  0  0  0  0  0
   43.3770   26.3910   43.6580 C   0  0  0  0  0  0  0  0  0  0  0  0
   42.2110   26.9160   44.2040 C   0  0  0  0  0  0  0  0  0  0  0  0
   42.2640   27.4060   45.4920 N   0  0  0  0  0  0  0  0  0  0  0  0
   43.4190   27.3710   46.1870 C   0  0  0  0  0  0  0  0  0  0  0  0
   44.5460   26.8720   45.6810 N   0  0  0  0  0  0  0  0  0  0  0  0
   43.4030   27.9240   47.5870 C   0  0  0  0  0  0  0  0  0  0  0  0
   43.4340   29.3220   47.5600 F   0  0  0  0  0  0  0  0  0  0  0  0
   42.2050   27.6160   48.2200 F   0  0  0  0  0  0  0  0  0  0  0  0
   44.5080   27.5170   48.3170 F   0  0  0  0  0  0  0  0  0  0  0  0
   43.3800   25.8540   42.2910 C   0  0  0  0  0  0  0  0  0  0  0  0
   44.5850   25.3020   41.9180 F   0  0  0  0  0  0  0  0  0  0  0  0
   42.3550   24.9260   42.0970 F   0  0  0  0  0  0  0  0  0  0  0  0
   43.1380   26.8770   41.3950 F   0  0  0  0  0  0  0  0  0  0  0  0
   41.0960   26.9060   43.4230 O   0  0  0  0  0  0  0  0  0  0  0  0
   37.1110   29.0960   43.3340 N   0  0  0  0  0  0  0  0  0  0  0  0
   36.9880   27.8340   43.8030 C   0  0  0  0  0  0  0  0  0  0  0  0
   38.2140   27.2670   43.7930 N   0  0  0  0  0  0  0  0  0  0  0  0
   39.1340   28.1500   43.3210 C   0  0  0  0  0  0  0  0  0  0  0  0
   40.4990   28.1150   43.0980 C   0  0  0  0  0  0  0  0  0  0  0  0
   41.1150   29.2080   42.6040 N   0  0  0  0  0  0  0  0  0  0  0  0
   40.3890   30.3210   42.3350 C   0  0  0  0  0  0  0  0  0  0  0  0
   39.0540   30.4010   42.5370 N   0  0  0  0  0  0  0  0  0  0  0  0
   38.3940   29.3100   43.0380 C   0  0  0  0  0  0  0  0  0  0  0  0
   45.4914   25.9610   44.0067 H   0  0  0  0  0  0  0  0  0  0  0  0
   36.3451   29.7759   43.2240 H   0  0  0  0  0  0  0  0  0  0  0  0
   36.0552   27.3541   44.1340 H   0  0  0  0  0  0  0  0  0  0  0  0
   40.9111   31.2018   41.9329 H   0  0  0  0  0  0  0  0  0  0  0  0
  1  6  2  0
  2  3  2  0
  2  1  1  0
  3  4  1  0
  4  5  2  0
  5  7  1  0
  6  5  1  0
  7  9  1  0
  7 10  1  0
  8  7  1  0
 11  2  1  0
 12 11  1  0
 13 11  1  0
 14 11  1  0
 15  3  1  0
 16 17  1  0
 18 17  2  0
 19 18  1  0
 20 19  2  0
 20 15  1  0
 21 20  1  0
 22 23  1  0
 22 21  2  0
 23 24  2  0
 24 19  1  0
 24 16  1  0
  1 25  1  0
 16 26  1  0
 17 27  1  0
 22 28  1  0
M  ISO  4  25  14  26   9  27  14  28  14
M  END
>  <minimizedAffinity>  (1) 
-5.42142344

>  <minimizedRMSD>  (1) 
0.116836034

$$$$
