
     RDKit          3D

 32 35  0  0  0  0  0  0  0  0999 V2000
   44.5480   26.3140   44.4480 C   0  0  0  0  0  0  0  0  0  0  0  0
   43.3500   26.3260   43.6740 C   0  0  0  0  0  0  0  0  0  0  0  0
   42.2020   26.8820   44.2230 C   0  0  0  0  0  0  0  0  0  0  0  0
   42.2700   27.3980   45.4880 N   0  0  0  0  0  0  0  0  0  0  0  0
   43.4150   27.3750   46.1970 C   0  0  0  0  0  0  0  0  0  0  0  0
   44.5410   26.8440   45.6940 N   0  0  0  0  0  0  0  0  0  0  0  0
   43.4130   27.9590   47.5740 C   0  0  0  0  0  0  0  0  0  0  0  0
   43.4470   29.3400   47.5230 F   0  0  0  0  0  0  0  0  0  0  0  0
   42.2060   27.6560   48.2210 F   0  0  0  0  0  0  0  0  0  0  0  0
   44.5100   27.5540   48.3140 F   0  0  0  0  0  0  0  0  0  0  0  0
   43.5510   25.7040   42.3630 C   0  0  0  0  0  0  0  0  0  0  0  0
   42.5930   25.7720   41.2470 C   0  0  0  0  0  0  0  0  0  0  0  0
   43.7940   26.6800   41.2180 C   0  0  0  0  0  0  0  0  0  0  0  0
   41.0950   26.8710   43.4550 O   0  0  0  0  0  0  0  0  0  0  0  0
   37.1140   29.0720   43.3480 N   0  0  0  0  0  0  0  0  0  0  0  0
   36.9840   27.8390   43.8260 C   0  0  0  0  0  0  0  0  0  0  0  0
   38.2130   27.2760   43.8160 N   0  0  0  0  0  0  0  0  0  0  0  0
   39.1300   28.1420   43.3340 C   0  0  0  0  0  0  0  0  0  0  0  0
   40.4990   28.0800   43.1140 C   0  0  0  0  0  0  0  0  0  0  0  0
   41.1190   29.1790   42.6000 N   0  0  0  0  0  0  0  0  0  0  0  0
   40.4010   30.2830   42.3190 C   0  0  0  0  0  0  0  0  0  0  0  0
   39.0630   30.3720   42.5230 N   0  0  0  0  0  0  0  0  0  0  0  0
   38.3960   29.2850   43.0420 C   0  0  0  0  0  0  0  0  0  0  0  0
   45.4700   25.8778   44.0361 H   0  0  0  0  0  0  0  0  0  0  0  0
   44.0389   24.8412   42.8400 H   0  0  0  0  0  0  0  0  0  0  0  0
   42.5238   24.9359   40.5356 H   0  0  0  0  0  0  0  0  0  0  0  0
   41.5070   25.9314   41.1749 H   0  0  0  0  0  0  0  0  0  0  0  0
   44.6077   26.5014   40.4996 H   0  0  0  0  0  0  0  0  0  0  0  0
   43.9615   27.7634   41.1274 H   0  0  0  0  0  0  0  0  0  0  0  0
   36.3498   29.7529   43.2323 H   0  0  0  0  0  0  0  0  0  0  0  0
   36.0513   27.3653   44.1661 H   0  0  0  0  0  0  0  0  0  0  0  0
   40.9256   31.1560   41.9034 H   0  0  0  0  0  0  0  0  0  0  0  0
  1  6  2  0
  2  3  2  0
  2  1  1  0
  3  4  1  0
  4  5  2  0
  5  7  1  0
  6  5  1  0
  7  9  1  0
  7 10  1  0
  8  7  1  0
 11  2  1  0
 12 11  1  0
 13 12  1  0
 13 11  1  0
 14  3  1  0
 15 16  1  0
 17 16  2  0
 18 17  1  0
 19 18  2  0
 19 14  1  0
 20 19  1  0
 21 22  1  0
 21 20  2  0
 22 23  2  0
 23 18  1  0
 23 15  1  0
  1 24  1  0
 11 25  1  0
 12 26  1  0
 12 27  1  0
 13 28  1  0
 13 29  1  0
 15 30  1  0
 16 31  1  0
 21 32  1  0
M  ISO  8  24  14  25  13  26  13  27  13  28  13  29  13  30   9  31  14
M  ISO  1  32  14
M  END
>  <minimizedAffinity>  (1) 
-5.30271816

>  <minimizedRMSD>  (1) 
0.0280572046

$$$$
