
     RDKit          3D

 34 36  0  0  0  0  0  0  0  0999 V2000
   44.5770   26.3580   44.4300 C   0  0  0  0  0  0  0  0  0  0  0  0
   43.4160   26.3940   43.6420 C   0  0  0  0  0  0  0  0  0  0  0  0
   42.2460   26.9540   44.1850 C   0  0  0  0  0  0  0  0  0  0  0  0
   42.2820   27.4450   45.4720 N   0  0  0  0  0  0  0  0  0  0  0  0
   43.4310   27.3800   46.1820 C   0  0  0  0  0  0  0  0  0  0  0  0
   44.5610   26.8510   45.6820 N   0  0  0  0  0  0  0  0  0  0  0  0
   43.4040   27.9310   47.5720 C   0  0  0  0  0  0  0  0  0  0  0  0
   43.4200   29.3180   47.5600 F   0  0  0  0  0  0  0  0  0  0  0  0
   42.2010   27.6100   48.1990 F   0  0  0  0  0  0  0  0  0  0  0  0
   44.4960   27.5310   48.3150 F   0  0  0  0  0  0  0  0  0  0  0  0
   43.4000   25.8570   42.2520 C   0  0  0  0  0  0  0  0  0  0  0  0
   43.5620   26.9700   41.2260 C   0  0  0  0  0  0  0  0  0  0  0  0
   42.0920   25.1750   41.9190 C   0  0  0  0  0  0  0  0  0  0  0  0
   41.1450   26.9700   43.3890 O   0  0  0  0  0  0  0  0  0  0  0  0
   37.1280   29.0880   43.3250 N   0  0  0  0  0  0  0  0  0  0  0  0
   37.0100   27.8090   43.7320 C   0  0  0  0  0  0  0  0  0  0  0  0
   38.2520   27.2780   43.7140 N   0  0  0  0  0  0  0  0  0  0  0  0
   39.1670   28.1850   43.3050 C   0  0  0  0  0  0  0  0  0  0  0  0
   40.5470   28.1820   43.1060 C   0  0  0  0  0  0  0  0  0  0  0  0
   41.1450   29.3130   42.6740 N   0  0  0  0  0  0  0  0  0  0  0  0
   40.4060   30.4170   42.4440 C   0  0  0  0  0  0  0  0  0  0  0  0
   39.0640   30.4630   42.6240 N   0  0  0  0  0  0  0  0  0  0  0  0
   38.4180   29.3370   43.0620 C   0  0  0  0  0  0  0  0  0  0  0  0
   45.5028   25.9254   44.0228 H   0  0  0  0  0  0  0  0  0  0  0  0
   44.2348   25.1420   42.2089 H   0  0  0  0  0  0  0  0  0  0  0  0
   43.7017   27.9297   41.7451 H   0  0  0  0  0  0  0  0  0  0  0  0
   44.4395   26.7629   40.5958 H   0  0  0  0  0  0  0  0  0  0  0  0
   42.6619   27.0216   40.5958 H   0  0  0  0  0  0  0  0  0  0  0  0
   41.5724   24.9041   42.8499 H   0  0  0  0  0  0  0  0  0  0  0  0
   41.4609   25.8588   41.3324 H   0  0  0  0  0  0  0  0  0  0  0  0
   42.2913   24.2660   41.3324 H   0  0  0  0  0  0  0  0  0  0  0  0
   36.3550   29.7623   43.2316 H   0  0  0  0  0  0  0  0  0  0  0  0
   36.0814   27.2961   44.0229 H   0  0  0  0  0  0  0  0  0  0  0  0
   40.9179   31.3251   42.0929 H   0  0  0  0  0  0  0  0  0  0  0  0
  1  6  2  0
  2  3  2  0
  2  1  1  0
  3  4  1  0
  4  5  2  0
  5  7  1  0
  6  5  1  0
  7  9  1  0
  7 10  1  0
  8  7  1  0
 11  2  1  0
 12 11  1  0
 13 11  1  0
 14  3  1  0
 15 16  1  0
 17 16  2  0
 18 17  1  0
 19 18  2  0
 19 14  1  0
 20 19  1  0
 21 22  1  0
 21 20  2  0
 22 23  2  0
 23 18  1  0
 23 15  1  0
  1 24  1  0
 11 25  1  0
 12 26  1  0
 12 27  1  0
 12 28  1  0
 13 29  1  0
 13 30  1  0
 13 31  1  0
 15 32  1  0
 16 33  1  0
 21 34  1  0
M  ISO  8  24  14  25   8  26   8  27   8  28   8  29   8  30   8  31   8
M  ISO  3  32   9  33  14  34  14
M  END
>  <minimizedAffinity>  (1) 
-5.28354216

>  <minimizedRMSD>  (1) 
0.271054327

$$$$
