
     RDKit          3D

 37 40  0  0  0  0  0  0  0  0999 V2000
   44.6730   26.6960   44.0540 C   0  0  0  0  0  0  0  0  0  0  0  0
   43.4370   26.7090   43.3560 C   0  0  0  0  0  0  0  0  0  0  0  0
   42.2550   26.9560   44.0730 C   0  0  0  0  0  0  0  0  0  0  0  0
   42.3510   27.1760   45.4270 N   0  0  0  0  0  0  0  0  0  0  0  0
   43.5410   27.1540   46.0450 C   0  0  0  0  0  0  0  0  0  0  0  0
   44.6850   26.9210   45.3870 N   0  0  0  0  0  0  0  0  0  0  0  0
   43.3640   26.4790   41.9540 N   0  0  0  0  0  0  0  0  0  0  0  0
   42.9260   25.2530   41.3130 C   0  0  0  0  0  0  0  0  0  0  0  0
   43.3580   25.3390   39.8900 C   0  0  0  0  0  0  0  0  0  0  0  0
   43.3280   26.8470   39.6320 C   0  0  0  0  0  0  0  0  0  0  0  0
   43.7340   27.4810   40.9430 C   0  0  0  0  0  0  0  0  0  0  0  0
   43.5780   27.4010   47.5240 C   0  0  0  0  0  0  0  0  0  0  0  0
   44.3880   28.4830   47.8230 F   0  0  0  0  0  0  0  0  0  0  0  0
   42.3010   27.7800   47.9790 F   0  0  0  0  0  0  0  0  0  0  0  0
   44.0760   26.3270   48.2340 F   0  0  0  0  0  0  0  0  0  0  0  0
   41.0930   26.9620   43.3780 O   0  0  0  0  0  0  0  0  0  0  0  0
   37.0810   29.0840   43.3350 N   0  0  0  0  0  0  0  0  0  0  0  0
   36.9650   27.8050   43.7470 C   0  0  0  0  0  0  0  0  0  0  0  0
   38.2100   27.2630   43.7240 N   0  0  0  0  0  0  0  0  0  0  0  0
   39.1200   28.1870   43.3010 C   0  0  0  0  0  0  0  0  0  0  0  0
   40.4880   28.1770   43.0960 C   0  0  0  0  0  0  0  0  0  0  0  0
   41.0760   29.3100   42.6570 N   0  0  0  0  0  0  0  0  0  0  0  0
   40.3430   30.4140   42.4290 C   0  0  0  0  0  0  0  0  0  0  0  0
   39.0030   30.4600   42.6190 N   0  0  0  0  0  0  0  0  0  0  0  0
   38.3610   29.3420   43.0610 C   0  0  0  0  0  0  0  0  0  0  0  0
   45.6126   26.5046   43.5151 H   0  0  0  0  0  0  0  0  0  0  0  0
   43.3918   24.3831   41.7992 H   0  0  0  0  0  0  0  0  0  0  0  0
   41.8353   25.1329   41.3899 H   0  0  0  0  0  0  0  0  0  0  0  0
   44.3710   24.9317   39.7557 H   0  0  0  0  0  0  0  0  0  0  0  0
   42.7244   24.7611   39.2011 H   0  0  0  0  0  0  0  0  0  0  0  0
   44.0385   27.1166   38.8367 H   0  0  0  0  0  0  0  0  0  0  0  0
   42.3363   27.1879   39.2999 H   0  0  0  0  0  0  0  0  0  0  0  0
   44.8163   27.6761   40.9641 H   0  0  0  0  0  0  0  0  0  0  0  0
   43.2461   28.4523   41.1120 H   0  0  0  0  0  0  0  0  0  0  0  0
   36.3047   29.7550   43.2460 H   0  0  0  0  0  0  0  0  0  0  0  0
   36.0364   27.2964   44.0456 H   0  0  0  0  0  0  0  0  0  0  0  0
   40.8546   31.3201   42.0723 H   0  0  0  0  0  0  0  0  0  0  0  0
  1  6  2  0
  2  1  1  0
  2  3  2  0
  3  4  1  0
  4  5  2  0
  5 12  1  0
  6  5  1  0
  7  2  1  0
  8  7  1  0
  9  8  1  0
 10  9  1  0
 10 11  1  0
 11  7  1  0
 12 13  1  0
 12 14  1  0
 12 15  1  0
 16  3  1  0
 17 18  1  0
 19 18  2  0
 20 19  1  0
 21 20  2  0
 21 16  1  0
 22 21  1  0
 23 24  1  0
 23 22  2  0
 24 25  2  0
 25 20  1  0
 25 17  1  0
  1 26  1  0
  8 27  1  0
  8 28  1  0
  9 29  1  0
  9 30  1  0
 10 31  1  0
 10 32  1  0
 11 33  1  0
 11 34  1  0
 17 35  1  0
 18 36  1  0
 23 37  1  0
M  ISO  8  26  14  27  13  28  13  29  13  30  13  31  13  32  13  33  13
M  ISO  4  34  13  35   9  36  14  37  14
M  END
>  <minimizedAffinity>  (1) 
-5.27585411

>  <minimizedRMSD>  (1) 
0.774119079

$$$$
