
     RDKit          3D

 46 50  0  0  0  0  0  0  0  0999 V2000
   41.1030   26.9340   43.4630 O   0  0  0  0  0  0  0  0  0  0  0  0
   37.1120   29.0800   43.2450 N   0  0  0  0  0  0  0  0  0  0  0  0
   36.9780   27.7960   43.6600 C   0  0  0  0  0  0  0  0  0  0  0  0
   38.2080   27.2500   43.6910 N   0  0  0  0  0  0  0  0  0  0  0  0
   39.1370   28.1600   43.3030 C   0  0  0  0  0  0  0  0  0  0  0  0
   40.5170   28.1340   43.1550 C   0  0  0  0  0  0  0  0  0  0  0  0
   41.1440   29.2730   42.7300 N   0  0  0  0  0  0  0  0  0  0  0  0
   40.4190   30.3770   42.4680 C   0  0  0  0  0  0  0  0  0  0  0  0
   39.0720   30.4230   42.6050 N   0  0  0  0  0  0  0  0  0  0  0  0
   38.4090   29.3200   43.0240 C   0  0  0  0  0  0  0  0  0  0  0  0
   41.0970   31.5500   42.0260 N   0  0  0  0  0  0  0  0  0  0  0  0
   40.7010   32.3240   41.0010 C   0  0  0  0  0  0  0  0  0  0  0  0
   41.4570   33.4220   40.6930 C   0  0  0  0  0  0  0  0  0  0  0  0
   41.0550   34.3120   39.5610 C   0  0  0  0  0  0  0  0  0  0  0  0
   42.5960   33.7750   41.3730 C   0  0  0  0  0  0  0  0  0  0  0  0
   43.2860   34.7920   41.0800 O   0  0  0  0  0  0  0  0  0  0  0  0
   42.9720   32.9870   42.3940 N   0  0  0  0  0  0  0  0  0  0  0  0
   42.2250   31.9110   42.6900 C   0  0  0  0  0  0  0  0  0  0  0  0
   42.6440   31.2130   43.6700 O   0  0  0  0  0  0  0  0  0  0  0  0
   44.5770   26.4160   44.4290 C   0  0  0  0  0  0  0  0  0  0  0  0
   43.4040   26.4400   43.6560 C   0  0  0  0  0  0  0  0  0  0  0  0
   42.2370   26.9180   44.2310 C   0  0  0  0  0  0  0  0  0  0  0  0
   42.2800   27.3480   45.5340 N   0  0  0  0  0  0  0  0  0  0  0  0
   43.4160   27.3090   46.2400 C   0  0  0  0  0  0  0  0  0  0  0  0
   44.5750   26.8440   45.6960 N   0  0  0  0  0  0  0  0  0  0  0  0
   43.3620   25.9830   42.2760 C   0  0  0  0  0  0  0  0  0  0  0  0
   44.3830   26.1500   41.3640 C   0  0  0  0  0  0  0  0  0  0  0  0
   44.3590   25.7230   40.0550 C   0  0  0  0  0  0  0  0  0  0  0  0
   43.2240   25.0820   39.6260 N   0  0  0  0  0  0  0  0  0  0  0  0
   42.2230   24.9160   40.5040 C   0  0  0  0  0  0  0  0  0  0  0  0
   42.2780   25.3420   41.7730 N   0  0  0  0  0  0  0  0  0  0  0  0
   43.4050   27.7910   47.6560 C   0  0  0  0  0  0  0  0  0  0  0  0
   43.3300   29.1760   47.6980 F   0  0  0  0  0  0  0  0  0  0  0  0
   42.2480   27.3560   48.3080 F   0  0  0  0  0  0  0  0  0  0  0  0
   44.5460   27.4170   48.3530 F   0  0  0  0  0  0  0  0  0  0  0  0
   36.3448   29.7560   43.1210 H   0  0  0  0  0  0  0  0  0  0  0  0
   36.0361   27.2925   43.9233 H   0  0  0  0  0  0  0  0  0  0  0  0
   39.7950   32.0816   40.4262 H   0  0  0  0  0  0  0  0  0  0  0  0
   40.6332   35.2459   39.9608 H   0  0  0  0  0  0  0  0  0  0  0  0
   41.9365   34.5422   38.9446 H   0  0  0  0  0  0  0  0  0  0  0  0
   40.2995   33.8027   38.9446 H   0  0  0  0  0  0  0  0  0  0  0  0
   43.8180   33.2042   42.9399 H   0  0  0  0  0  0  0  0  0  0  0  0
   45.5107   26.0397   43.9856 H   0  0  0  0  0  0  0  0  0  0  0  0
   45.2904   26.6663   41.7104 H   0  0  0  0  0  0  0  0  0  0  0  0
   45.2132   25.8887   39.3820 H   0  0  0  0  0  0  0  0  0  0  0  0
   41.3106   24.4040   40.1645 H   0  0  0  0  0  0  0  0  0  0  0  0
  1 22  1  0
  2  3  1  0
  3  4  2  0
  5  4  1  0
  6  5  2  0
  6  1  1  0
  7  6  1  0
  8  9  1  0
  8  7  2  0
  9 10  2  0
 10  2  1  0
 10  5  1  0
 11  8  1  0
 11 18  1  0
 12 11  1  0
 13 12  2  0
 13 15  1  0
 14 13  1  0
 15 17  1  0
 16 15  2  0
 17 18  1  0
 18 19  2  0
 20 25  2  0
 21 22  2  0
 21 20  1  0
 22 23  1  0
 23 24  2  0
 24 32  1  0
 25 24  1  0
 26 21  1  0
 27 26  2  0
 28 27  1  0
 29 28  2  0
 29 30  1  0
 30 31  2  0
 31 26  1  0
 32 33  1  0
 32 34  1  0
 32 35  1  0
  2 36  1  0
  3 37  1  0
 12 38  1  0
 14 39  1  0
 14 40  1  0
 14 41  1  0
 17 42  1  0
 20 43  1  0
 27 44  1  0
 28 45  1  0
 30 46  1  0
M  ISO  8  36   9  37  14  38  14  39   8  40   8  41   8  42   9  43  14
M  ISO  3  44  14  45  14  46  14
M  END
>  <minimizedAffinity>  (1) 
-7.3484292

>  <minimizedRMSD>  (1) 
0.0866990685

$$$$
