
     RDKit          3D

 44 48  0  0  0  0  0  0  0  0999 V2000
   41.1040   26.9490   43.4350 O   0  0  0  0  0  0  0  0  0  0  0  0
   37.1330   29.0980   43.2990 N   0  0  0  0  0  0  0  0  0  0  0  0
   36.9990   27.8320   43.7400 C   0  0  0  0  0  0  0  0  0  0  0  0
   38.2350   27.2750   43.7460 N   0  0  0  0  0  0  0  0  0  0  0  0
   39.1530   28.1840   43.3080 C   0  0  0  0  0  0  0  0  0  0  0  0
   40.5210   28.1480   43.1200 C   0  0  0  0  0  0  0  0  0  0  0  0
   41.1460   29.2660   42.6570 N   0  0  0  0  0  0  0  0  0  0  0  0
   40.4080   30.3660   42.3980 C   0  0  0  0  0  0  0  0  0  0  0  0
   39.0780   30.4430   42.5660 N   0  0  0  0  0  0  0  0  0  0  0  0
   38.4210   29.3360   43.0320 C   0  0  0  0  0  0  0  0  0  0  0  0
   41.0380   31.5460   41.9130 N   0  0  0  0  0  0  0  0  0  0  0  0
   40.3580   32.2460   40.9680 C   0  0  0  0  0  0  0  0  0  0  0  0
   40.8920   33.4210   40.4270 C   0  0  0  0  0  0  0  0  0  0  0  0
   42.1260   33.8180   40.8980 C   0  0  0  0  0  0  0  0  0  0  0  0
   42.7030   35.0080   40.3720 N   0  0  0  0  0  0  0  0  0  0  0  0
   42.7800   33.0890   41.8480 N   0  0  0  0  0  0  0  0  0  0  0  0
   42.2580   31.9640   42.3590 C   0  0  0  0  0  0  0  0  0  0  0  0
   42.8190   31.2580   43.2340 O   0  0  0  0  0  0  0  0  0  0  0  0
   44.5820   26.4290   44.4160 C   0  0  0  0  0  0  0  0  0  0  0  0
   43.4150   26.4470   43.6310 C   0  0  0  0  0  0  0  0  0  0  0  0
   42.2390   26.9320   44.1990 C   0  0  0  0  0  0  0  0  0  0  0  0
   42.2860   27.3660   45.4990 N   0  0  0  0  0  0  0  0  0  0  0  0
   43.4220   27.3330   46.2170 C   0  0  0  0  0  0  0  0  0  0  0  0
   44.5690   26.8670   45.6820 N   0  0  0  0  0  0  0  0  0  0  0  0
   43.3750   25.9820   42.2500 C   0  0  0  0  0  0  0  0  0  0  0  0
   44.4040   26.1420   41.3520 C   0  0  0  0  0  0  0  0  0  0  0  0
   44.4010   25.7160   40.0440 C   0  0  0  0  0  0  0  0  0  0  0  0
   43.2650   25.0790   39.6100 N   0  0  0  0  0  0  0  0  0  0  0  0
   42.2500   24.9160   40.4820 C   0  0  0  0  0  0  0  0  0  0  0  0
   42.2960   25.3500   41.7570 N   0  0  0  0  0  0  0  0  0  0  0  0
   43.3910   27.8240   47.6270 C   0  0  0  0  0  0  0  0  0  0  0  0
   43.3500   29.2110   47.6610 F   0  0  0  0  0  0  0  0  0  0  0  0
   42.2150   27.4210   48.2600 F   0  0  0  0  0  0  0  0  0  0  0  0
   44.5160   27.4360   48.3480 F   0  0  0  0  0  0  0  0  0  0  0  0
   36.3650   29.7749   43.1856 H   0  0  0  0  0  0  0  0  0  0  0  0
   36.0611   27.3415   44.0395 H   0  0  0  0  0  0  0  0  0  0  0  0
   39.3772   31.8854   40.6244 H   0  0  0  0  0  0  0  0  0  0  0  0
   40.3533   34.0003   39.6626 H   0  0  0  0  0  0  0  0  0  0  0  0
   43.6236   35.3258   40.7073 H   0  0  0  0  0  0  0  0  0  0  0  0
   42.2000   35.5514   39.6560 H   0  0  0  0  0  0  0  0  0  0  0  0
   45.5196   26.0495   43.9838 H   0  0  0  0  0  0  0  0  0  0  0  0
   45.3083   26.6553   41.7108 H   0  0  0  0  0  0  0  0  0  0  0  0
   45.2635   25.8773   39.3807 H   0  0  0  0  0  0  0  0  0  0  0  0
   41.3400   24.4039   40.1360 H   0  0  0  0  0  0  0  0  0  0  0  0
  1 21  1  0
  2  3  1  0
  3  4  2  0
  5  4  1  0
  6  5  2  0
  6  1  1  0
  7  6  1  0
  8  9  1  0
  8  7  2  0
  9 10  2  0
 10  2  1  0
 10  5  1  0
 11 17  1  0
 11  8  1  0
 12 11  1  0
 13 14  1  0
 13 12  2  0
 14 16  2  0
 15 14  1  0
 16 17  1  0
 17 18  2  0
 19 24  2  0
 20 21  2  0
 20 19  1  0
 21 22  1  0
 22 23  2  0
 23 31  1  0
 24 23  1  0
 25 20  1  0
 26 25  2  0
 27 26  1  0
 28 27  2  0
 28 29  1  0
 29 30  2  0
 30 25  1  0
 31 32  1  0
 31 33  1  0
 31 34  1  0
  2 35  1  0
  3 36  1  0
 12 37  1  0
 13 38  1  0
 15 39  1  0
 15 40  1  0
 19 41  1  0
 26 42  1  0
 27 43  1  0
 29 44  1  0
M  ISO  8  35   9  36  14  37  14  38  14  41  14  42  14  43  14  44  14
M  END
>  <minimizedAffinity>  (1) 
-7.08693409

>  <minimizedRMSD>  (1) 
0.0575045347

$$$$
