
     RDKit          3D

 47 51  0  0  0  0  0  0  0  0999 V2000
   44.6070   26.3860   44.3580 C   0  0  0  0  0  0  0  0  0  0  0  0
   43.4460   26.4200   43.5660 C   0  0  0  0  0  0  0  0  0  0  0  0
   42.2690   26.9250   44.1290 C   0  0  0  0  0  0  0  0  0  0  0  0
   42.3010   27.3660   45.4340 N   0  0  0  0  0  0  0  0  0  0  0  0
   43.4400   27.3080   46.1410 C   0  0  0  0  0  0  0  0  0  0  0  0
   44.5810   26.8290   45.6240 N   0  0  0  0  0  0  0  0  0  0  0  0
   43.4070   25.9550   42.1850 C   0  0  0  0  0  0  0  0  0  0  0  0
   44.4460   26.1060   41.3040 C   0  0  0  0  0  0  0  0  0  0  0  0
   44.4440   25.6770   39.9890 C   0  0  0  0  0  0  0  0  0  0  0  0
   43.3030   25.0530   39.5470 N   0  0  0  0  0  0  0  0  0  0  0  0
   42.2840   24.9060   40.4120 C   0  0  0  0  0  0  0  0  0  0  0  0
   42.3230   25.3360   41.6840 N   0  0  0  0  0  0  0  0  0  0  0  0
   43.4100   27.8020   47.5540 C   0  0  0  0  0  0  0  0  0  0  0  0
   43.3860   29.1790   47.5970 F   0  0  0  0  0  0  0  0  0  0  0  0
   42.2140   27.4220   48.1850 F   0  0  0  0  0  0  0  0  0  0  0  0
   44.5080   27.3910   48.2930 F   0  0  0  0  0  0  0  0  0  0  0  0
   41.1470   26.9560   43.3570 O   0  0  0  0  0  0  0  0  0  0  0  0
   37.1790   29.1430   43.3580 N   0  0  0  0  0  0  0  0  0  0  0  0
   37.0510   27.8860   43.8000 C   0  0  0  0  0  0  0  0  0  0  0  0
   38.2870   27.3140   43.7630 N   0  0  0  0  0  0  0  0  0  0  0  0
   39.1960   28.1970   43.3030 C   0  0  0  0  0  0  0  0  0  0  0  0
   40.5560   28.1610   43.0650 C   0  0  0  0  0  0  0  0  0  0  0  0
   41.1780   29.2740   42.5810 N   0  0  0  0  0  0  0  0  0  0  0  0
   40.4450   30.3800   42.3470 C   0  0  0  0  0  0  0  0  0  0  0  0
   39.1170   30.4580   42.5650 N   0  0  0  0  0  0  0  0  0  0  0  0
   38.4620   29.3690   43.0470 C   0  0  0  0  0  0  0  0  0  0  0  0
   41.0660   31.5560   41.8430 N   0  0  0  0  0  0  0  0  0  0  0  0
   42.3120   32.0860   42.3440 C   0  0  0  0  0  0  0  0  0  0  0  0
   42.8430   33.0310   41.2840 C   0  0  0  0  0  0  0  0  0  0  0  0
   42.7760   32.4450   39.9770 N   0  0  0  0  0  0  0  0  0  0  0  0
   41.4350   32.1000   39.5740 C   0  0  0  0  0  0  0  0  0  0  0  0
   40.4840   32.3400   40.7520 C   0  0  0  0  0  0  0  0  0  0  0  0
   45.5440   25.9931   43.9364 H   0  0  0  0  0  0  0  0  0  0  0  0
   45.3531   26.6080   41.6717 H   0  0  0  0  0  0  0  0  0  0  0  0
   45.3122   25.8279   39.3306 H   0  0  0  0  0  0  0  0  0  0  0  0
   41.3695   24.4069   40.0591 H   0  0  0  0  0  0  0  0  0  0  0  0
   36.4136   29.8267   43.2710 H   0  0  0  0  0  0  0  0  0  0  0  0
   36.1197   27.4038   44.1319 H   0  0  0  0  0  0  0  0  0  0  0  0
   42.1414   32.6296   43.2849 H   0  0  0  0  0  0  0  0  0  0  0  0
   43.0305   31.2788   42.5492 H   0  0  0  0  0  0  0  0  0  0  0  0
   42.2428   33.9528   41.2937 H   0  0  0  0  0  0  0  0  0  0  0  0
   43.8971   33.2480   41.5116 H   0  0  0  0  0  0  0  0  0  0  0  0
   43.1587   33.1176   39.2973 H   0  0  0  0  0  0  0  0  0  0  0  0
   41.1328   32.7269   38.7221 H   0  0  0  0  0  0  0  0  0  0  0  0
   41.3969   31.0423   39.2744 H   0  0  0  0  0  0  0  0  0  0  0  0
   40.4478   33.4077   41.0140 H   0  0  0  0  0  0  0  0  0  0  0  0
   39.4481   32.0470   40.5261 H   0  0  0  0  0  0  0  0  0  0  0  0
  1  6  2  0
  2  3  2  0
  2  1  1  0
  3  4  1  0
  4  5  2  0
  5 13  1  0
  6  5  1  0
  7  2  1  0
  8  7  2  0
  9  8  1  0
 10  9  2  0
 10 11  1  0
 11 12  2  0
 12  7  1  0
 13 14  1  0
 13 15  1  0
 13 16  1  0
 17  3  1  0
 18 19  1  0
 20 19  2  0
 21 20  1  0
 22 21  2  0
 22 17  1  0
 23 22  1  0
 24 25  1  0
 24 23  2  0
 25 26  2  0
 26 21  1  0
 26 18  1  0
 27 28  1  0
 27 24  1  0
 29 28  1  0
 30 29  1  0
 31 30  1  0
 31 32  1  0
 32 27  1  0
  1 33  1  0
  8 34  1  0
  9 35  1  0
 11 36  1  0
 18 37  1  0
 19 38  1  0
 28 39  1  0
 28 40  1  0
 29 41  1  0
 29 42  1  0
 30 43  1  0
 31 44  1  0
 31 45  1  0
 32 46  1  0
 32 47  1  0
M  ISO  8  33  14  34  14  35  14  36  14  37   9  38  14  39  13  40  13
M  ISO  7  41  13  42  13  43   5  44  13  45  13  46  13  47  13
M  END
>  <minimizedAffinity>  (1) 
-6.34790611

>  <minimizedRMSD>  (1) 
0.0860320479

$$$$
