
     RDKit          3D

 43 47  0  0  0  0  0  0  0  0999 V2000
   41.1200   26.9530   43.4330 O   0  0  0  0  0  0  0  0  0  0  0  0
   37.1460   29.1000   43.2950 N   0  0  0  0  0  0  0  0  0  0  0  0
   37.0110   27.8360   43.7210 C   0  0  0  0  0  0  0  0  0  0  0  0
   38.2470   27.2820   43.7280 N   0  0  0  0  0  0  0  0  0  0  0  0
   39.1670   28.1890   43.3070 C   0  0  0  0  0  0  0  0  0  0  0  0
   40.5390   28.1590   43.1250 C   0  0  0  0  0  0  0  0  0  0  0  0
   41.1530   29.2760   42.6800 N   0  0  0  0  0  0  0  0  0  0  0  0
   40.4300   30.3890   42.4220 C   0  0  0  0  0  0  0  0  0  0  0  0
   39.1000   30.4600   42.5840 N   0  0  0  0  0  0  0  0  0  0  0  0
   38.4410   29.3460   43.0350 C   0  0  0  0  0  0  0  0  0  0  0  0
   41.1820   31.5460   41.9440 C   0  0  0  0  0  0  0  0  0  0  0  0
   42.4240   31.8980   42.4290 C   0  0  0  0  0  0  0  0  0  0  0  0
   43.0720   33.0080   41.9250 C   0  0  0  0  0  0  0  0  0  0  0  0
   42.5200   33.8010   40.9350 C   0  0  0  0  0  0  0  0  0  0  0  0
   41.2610   33.4710   40.4220 C   0  0  0  0  0  0  0  0  0  0  0  0
   40.6470   32.3480   40.9570 C   0  0  0  0  0  0  0  0  0  0  0  0
   44.5930   26.4190   44.4060 C   0  0  0  0  0  0  0  0  0  0  0  0
   43.4260   26.4460   43.6320 C   0  0  0  0  0  0  0  0  0  0  0  0
   42.2490   26.9310   44.1950 C   0  0  0  0  0  0  0  0  0  0  0  0
   42.2880   27.3670   45.5050 N   0  0  0  0  0  0  0  0  0  0  0  0
   43.4300   27.3220   46.2070 C   0  0  0  0  0  0  0  0  0  0  0  0
   44.5770   26.8570   45.6800 N   0  0  0  0  0  0  0  0  0  0  0  0
   43.3830   25.9880   42.2530 C   0  0  0  0  0  0  0  0  0  0  0  0
   44.4110   26.1560   41.3460 C   0  0  0  0  0  0  0  0  0  0  0  0
   44.4010   25.7330   40.0330 C   0  0  0  0  0  0  0  0  0  0  0  0
   43.2780   25.0960   39.6030 N   0  0  0  0  0  0  0  0  0  0  0  0
   42.2560   24.9220   40.4830 C   0  0  0  0  0  0  0  0  0  0  0  0
   42.3080   25.3480   41.7480 N   0  0  0  0  0  0  0  0  0  0  0  0
   43.4070   27.8100   47.6260 C   0  0  0  0  0  0  0  0  0  0  0  0
   43.3510   29.1970   47.6670 F   0  0  0  0  0  0  0  0  0  0  0  0
   42.2360   27.3900   48.2680 F   0  0  0  0  0  0  0  0  0  0  0  0
   44.5320   27.4190   48.3370 F   0  0  0  0  0  0  0  0  0  0  0  0
   36.3773   29.7766   43.1844 H   0  0  0  0  0  0  0  0  0  0  0  0
   36.0721   27.3414   44.0106 H   0  0  0  0  0  0  0  0  0  0  0  0
   42.8982   31.2946   43.2171 H   0  0  0  0  0  0  0  0  0  0  0  0
   44.0624   33.2712   42.3248 H   0  0  0  0  0  0  0  0  0  0  0  0
   43.0636   34.6791   40.5563 H   0  0  0  0  0  0  0  0  0  0  0  0
   40.7823   34.0715   39.6344 H   0  0  0  0  0  0  0  0  0  0  0  0
   39.6565   32.0757   40.5637 H   0  0  0  0  0  0  0  0  0  0  0  0
   45.5286   26.0377   43.9709 H   0  0  0  0  0  0  0  0  0  0  0  0
   45.3155   26.6714   41.7012 H   0  0  0  0  0  0  0  0  0  0  0  0
   45.2591   25.9024   39.3660 H   0  0  0  0  0  0  0  0  0  0  0  0
   41.3467   24.4080   40.1381 H   0  0  0  0  0  0  0  0  0  0  0  0
  1 19  1  0
  2  3  1  0
  3  4  2  0
  5  4  1  0
  6  5  2  0
  6  1  1  0
  7  6  1  0
  8  9  1  0
  8  7  2  0
  9 10  2  0
 10  2  1  0
 10  5  1  0
 11  8  1  0
 11 12  2  0
 13 12  1  0
 14 13  2  0
 15 14  1  0
 15 16  2  0
 16 11  1  0
 17 22  2  0
 18 19  2  0
 18 17  1  0
 19 20  1  0
 20 21  2  0
 21 29  1  0
 22 21  1  0
 23 18  1  0
 24 23  2  0
 25 24  1  0
 26 25  2  0
 26 27  1  0
 27 28  2  0
 28 23  1  0
 29 30  1  0
 29 31  1  0
 29 32  1  0
  2 33  1  0
  3 34  1  0
 12 35  1  0
 13 36  1  0
 14 37  1  0
 15 38  1  0
 16 39  1  0
 17 40  1  0
 24 41  1  0
 25 42  1  0
 27 43  1  0
M  ISO  8  33   9  34  14  35  14  36  14  37  14  38  14  39  14  40  14
M  ISO  3  41  14  42  14  43  14
M  END
>  <minimizedAffinity>  (1) 
-6.30163527

>  <minimizedRMSD>  (1) 
0.0539874658

$$$$
