
     RDKit          3D

 46 50  0  0  0  0  0  0  0  0999 V2000
   44.5890   26.6840   43.6630 C   0  0  0  0  0  0  0  0  0  0  0  0
   43.3560   26.6630   42.9970 C   0  0  0  0  0  0  0  0  0  0  0  0
   42.1910   26.9240   43.7080 C   0  0  0  0  0  0  0  0  0  0  0  0
   42.3130   27.1940   45.0600 N   0  0  0  0  0  0  0  0  0  0  0  0
   43.5140   27.2050   45.6650 C   0  0  0  0  0  0  0  0  0  0  0  0
   44.6440   26.9540   44.9810 N   0  0  0  0  0  0  0  0  0  0  0  0
   43.2310   26.3780   41.5690 C   0  0  0  0  0  0  0  0  0  0  0  0
   43.5730   27.2750   40.5810 C   0  0  0  0  0  0  0  0  0  0  0  0
   43.4610   27.0230   39.2210 C   0  0  0  0  0  0  0  0  0  0  0  0
   42.9820   25.8090   38.8470 N   0  0  0  0  0  0  0  0  0  0  0  0
   42.6430   24.9200   39.8150 C   0  0  0  0  0  0  0  0  0  0  0  0
   42.7620   25.1930   41.1230 N   0  0  0  0  0  0  0  0  0  0  0  0
   43.5730   27.5040   47.1290 C   0  0  0  0  0  0  0  0  0  0  0  0
   44.2300   28.6980   47.3590 F   0  0  0  0  0  0  0  0  0  0  0  0
   42.2880   27.7210   47.6320 F   0  0  0  0  0  0  0  0  0  0  0  0
   44.2380   26.5300   47.8450 F   0  0  0  0  0  0  0  0  0  0  0  0
   41.0010   26.9030   43.0560 O   0  0  0  0  0  0  0  0  0  0  0  0
   37.1200   29.1880   43.5170 N   0  0  0  0  0  0  0  0  0  0  0  0
   37.0560   27.9820   44.1120 C   0  0  0  0  0  0  0  0  0  0  0  0
   38.2600   27.3770   43.9200 N   0  0  0  0  0  0  0  0  0  0  0  0
   39.0790   28.1850   43.2140 C   0  0  0  0  0  0  0  0  0  0  0  0
   40.3870   28.0920   42.7400 C   0  0  0  0  0  0  0  0  0  0  0  0
   40.9130   29.1370   42.0380 N   0  0  0  0  0  0  0  0  0  0  0  0
   40.1570   30.2210   41.8280 C   0  0  0  0  0  0  0  0  0  0  0  0
   38.8950   30.3700   42.2570 N   0  0  0  0  0  0  0  0  0  0  0  0
   38.3220   29.3490   42.9650 C   0  0  0  0  0  0  0  0  0  0  0  0
   40.7480   31.2870   41.0910 N   0  0  0  0  0  0  0  0  0  0  0  0
   41.9470   31.9710   41.5410 C   0  0  0  0  0  0  0  0  0  0  0  0
   41.9760   33.3190   40.8580 C   0  0  0  0  0  0  0  0  0  0  0  0
   40.7440   33.9120   40.7730 O   0  0  0  0  0  0  0  0  0  0  0  0
   39.7710   33.2130   40.1060 C   0  0  0  0  0  0  0  0  0  0  0  0
   40.2230   31.7930   39.8340 C   0  0  0  0  0  0  0  0  0  0  0  0
   45.5156   26.4791   43.1067 H   0  0  0  0  0  0  0  0  0  0  0  0
   43.9608   28.2566   40.8909 H   0  0  0  0  0  0  0  0  0  0  0  0
   43.7493   27.7779   38.4746 H   0  0  0  0  0  0  0  0  0  0  0  0
   42.2549   23.9355   39.5147 H   0  0  0  0  0  0  0  0  0  0  0  0
   36.3572   29.8797   43.4923 H   0  0  0  0  0  0  0  0  0  0  0  0
   36.1932   27.5643   44.6516 H   0  0  0  0  0  0  0  0  0  0  0  0
   41.9186   32.1023   42.6328 H   0  0  0  0  0  0  0  0  0  0  0  0
   42.8458   31.3878   41.2919 H   0  0  0  0  0  0  0  0  0  0  0  0
   42.6444   33.9832   41.4255 H   0  0  0  0  0  0  0  0  0  0  0  0
   42.3291   33.1545   39.8293 H   0  0  0  0  0  0  0  0  0  0  0  0
   38.8581   33.1901   40.7193 H   0  0  0  0  0  0  0  0  0  0  0  0
   39.5731   33.7113   39.1455 H   0  0  0  0  0  0  0  0  0  0  0  0
   39.3729   31.1793   39.5012 H   0  0  0  0  0  0  0  0  0  0  0  0
   40.9831   31.7594   39.0396 H   0  0  0  0  0  0  0  0  0  0  0  0
  1  6  2  0
  2  1  1  0
  2  3  2  0
  3  4  1  0
  4  5  2  0
  5 13  1  0
  6  5  1  0
  7  2  1  0
  8  7  2  0
  9  8  1  0
 10  9  2  0
 10 11  1  0
 11 12  2  0
 12  7  1  0
 13 14  1  0
 13 15  1  0
 13 16  1  0
 17  3  1  0
 18 19  1  0
 20 19  2  0
 21 20  1  0
 22 17  1  0
 22 21  2  0
 23 22  1  0
 24 23  2  0
 24 25  1  0
 25 26  2  0
 26 21  1  0
 26 18  1  0
 27 28  1  0
 27 24  1  0
 29 28  1  0
 30 29  1  0
 31 30  1  0
 32 31  1  0
 32 27  1  0
  1 33  1  0
  8 34  1  0
  9 35  1  0
 11 36  1  0
 18 37  1  0
 19 38  1  0
 28 39  1  0
 28 40  1  0
 29 41  1  0
 29 42  1  0
 31 43  1  0
 31 44  1  0
 32 45  1  0
 32 46  1  0
M  ISO  8  33  14  34  14  35  14  36  14  37   9  38  14  39  13  40  13
M  ISO  6  41  13  42  13  43  13  44  13  45  13  46  13
M  END
>  <minimizedAffinity>  (1) 
-6.29849291

>  <minimizedRMSD>  (1) 
0.875928164

$$$$
