
     RDKit          3D

 48 52  0  0  0  0  0  0  0  0999 V2000
   44.6410   26.7000   44.0020 C   0  0  0  0  0  0  0  0  0  0  0  0
   43.4210   26.7030   43.3120 C   0  0  0  0  0  0  0  0  0  0  0  0
   42.2520   26.9520   44.0170 C   0  0  0  0  0  0  0  0  0  0  0  0
   42.3500   27.1860   45.3680 N   0  0  0  0  0  0  0  0  0  0  0  0
   43.5350   27.1720   45.9870 C   0  0  0  0  0  0  0  0  0  0  0  0
   44.6880   26.9320   45.3170 N   0  0  0  0  0  0  0  0  0  0  0  0
   43.3130   26.4540   41.8700 C   0  0  0  0  0  0  0  0  0  0  0  0
   43.6320   27.3840   40.9100 C   0  0  0  0  0  0  0  0  0  0  0  0
   43.5410   27.1820   39.5480 C   0  0  0  0  0  0  0  0  0  0  0  0
   43.0970   25.9540   39.1370 N   0  0  0  0  0  0  0  0  0  0  0  0
   42.7830   25.0400   40.0690 C   0  0  0  0  0  0  0  0  0  0  0  0
   42.8840   25.2720   41.3880 N   0  0  0  0  0  0  0  0  0  0  0  0
   43.5780   27.4330   47.4550 C   0  0  0  0  0  0  0  0  0  0  0  0
   44.3830   28.5260   47.7340 F   0  0  0  0  0  0  0  0  0  0  0  0
   42.3060   27.8020   47.9290 F   0  0  0  0  0  0  0  0  0  0  0  0
   44.0890   26.3610   48.1840 F   0  0  0  0  0  0  0  0  0  0  0  0
   41.0660   26.9530   43.3320 O   0  0  0  0  0  0  0  0  0  0  0  0
   37.0580   29.0720   43.3640 N   0  0  0  0  0  0  0  0  0  0  0  0
   36.9500   27.7970   43.7990 C   0  0  0  0  0  0  0  0  0  0  0  0
   38.1960   27.2540   43.7510 N   0  0  0  0  0  0  0  0  0  0  0  0
   39.0910   28.1590   43.2940 C   0  0  0  0  0  0  0  0  0  0  0  0
   40.4460   28.1510   43.0520 C   0  0  0  0  0  0  0  0  0  0  0  0
   41.0400   29.2740   42.5790 N   0  0  0  0  0  0  0  0  0  0  0  0
   40.2860   30.3820   42.3530 C   0  0  0  0  0  0  0  0  0  0  0  0
   38.9650   30.4270   42.5770 N   0  0  0  0  0  0  0  0  0  0  0  0
   38.3330   29.3230   43.0510 C   0  0  0  0  0  0  0  0  0  0  0  0
   40.9330   31.5540   41.8540 N   0  0  0  0  0  0  0  0  0  0  0  0
   40.2460   32.5080   41.0110 C   0  0  0  0  0  0  0  0  0  0  0  0
   41.0180   32.8520   39.7850 C   0  0  0  0  0  0  0  0  0  0  0  0
   42.5020   32.8380   39.9230 C   0  0  0  0  0  0  0  0  0  0  0  0
   43.0570   31.8040   40.8540 C   0  0  0  0  0  0  0  0  0  0  0  0
   42.3240   31.8330   42.1780 C   0  0  0  0  0  0  0  0  0  0  0  0
   45.5736   26.5037   43.4528 H   0  0  0  0  0  0  0  0  0  0  0  0
   43.9877   28.3663   41.2542 H   0  0  0  0  0  0  0  0  0  0  0  0
   43.8118   27.9686   38.8283 H   0  0  0  0  0  0  0  0  0  0  0  0
   42.4260   24.0541   39.7364 H   0  0  0  0  0  0  0  0  0  0  0  0
   36.2811   29.7437   43.2860 H   0  0  0  0  0  0  0  0  0  0  0  0
   36.0292   27.2940   44.1292 H   0  0  0  0  0  0  0  0  0  0  0  0
   39.2792   32.0788   40.7092 H   0  0  0  0  0  0  0  0  0  0  0  0
   40.1167   33.4327   41.5926 H   0  0  0  0  0  0  0  0  0  0  0  0
   40.7185   33.8628   39.4711 H   0  0  0  0  0  0  0  0  0  0  0  0
   40.7803   32.0652   39.0539 H   0  0  0  0  0  0  0  0  0  0  0  0
   42.9327   32.6617   38.9263 H   0  0  0  0  0  0  0  0  0  0  0  0
   42.7722   33.8110   40.3593 H   0  0  0  0  0  0  0  0  0  0  0  0
   42.9429   30.8090   40.3990 H   0  0  0  0  0  0  0  0  0  0  0  0
   44.1207   32.0205   41.0320 H   0  0  0  0  0  0  0  0  0  0  0  0
   42.4187   32.8225   42.6491 H   0  0  0  0  0  0  0  0  0  0  0  0
   42.7338   31.1009   42.8893 H   0  0  0  0  0  0  0  0  0  0  0  0
  1  6  2  0
  2  1  1  0
  2  3  2  0
  3  4  1  0
  4  5  2  0
  5 13  1  0
  6  5  1  0
  7  2  1  0
  8  7  2  0
  9  8  1  0
 10  9  2  0
 10 11  1  0
 11 12  2  0
 12  7  1  0
 13 14  1  0
 13 15  1  0
 13 16  1  0
 17  3  1  0
 18 19  1  0
 20 19  2  0
 21 20  1  0
 22 21  2  0
 22 17  1  0
 23 22  1  0
 24 25  1  0
 24 23  2  0
 25 26  2  0
 26 21  1  0
 26 18  1  0
 27 32  1  0
 27 24  1  0
 28 27  1  0
 29 30  1  0
 29 28  1  0
 30 31  1  0
 31 32  1  0
  1 33  1  0
  8 34  1  0
  9 35  1  0
 11 36  1  0
 18 37  1  0
 19 38  1  0
 28 39  1  0
 28 40  1  0
 29 41  1  0
 29 42  1  0
 30 43  1  0
 30 44  1  0
 31 45  1  0
 31 46  1  0
 32 47  1  0
 32 48  1  0
M  ISO  8  33  14  34  14  35  14  36  14  37   9  38  14  39  13  40  13
M  ISO  8  41  13  42  13  43  13  44  13  45  13  46  13  47  13  48  13
M  END
>  <minimizedAffinity>  (1) 
-6.26265526

>  <minimizedRMSD>  (1) 
0.620960176

$$$$
