
     RDKit          3D

 41 45  0  0  0  0  0  0  0  0999 V2000
   44.5910   26.4310   44.3790 C   0  0  0  0  0  0  0  0  0  0  0  0
   43.4230   26.4520   43.6010 C   0  0  0  0  0  0  0  0  0  0  0  0
   42.2470   26.9380   44.1690 C   0  0  0  0  0  0  0  0  0  0  0  0
   42.2840   27.3790   45.4760 N   0  0  0  0  0  0  0  0  0  0  0  0
   43.4220   27.3390   46.1780 C   0  0  0  0  0  0  0  0  0  0  0  0
   44.5770   26.8690   45.6450 N   0  0  0  0  0  0  0  0  0  0  0  0
   43.3770   25.9900   42.2270 C   0  0  0  0  0  0  0  0  0  0  0  0
   44.4030   26.1610   41.3180 C   0  0  0  0  0  0  0  0  0  0  0  0
   44.4030   25.7410   40.0070 C   0  0  0  0  0  0  0  0  0  0  0  0
   43.2730   25.0910   39.5750 N   0  0  0  0  0  0  0  0  0  0  0  0
   42.2590   24.9180   40.4590 C   0  0  0  0  0  0  0  0  0  0  0  0
   42.2990   25.3420   41.7250 N   0  0  0  0  0  0  0  0  0  0  0  0
   43.3990   27.8320   47.5940 C   0  0  0  0  0  0  0  0  0  0  0  0
   43.3650   29.2170   47.6280 F   0  0  0  0  0  0  0  0  0  0  0  0
   42.2120   27.4360   48.2270 F   0  0  0  0  0  0  0  0  0  0  0  0
   44.5130   27.4330   48.3150 F   0  0  0  0  0  0  0  0  0  0  0  0
   41.1180   26.9520   43.3980 O   0  0  0  0  0  0  0  0  0  0  0  0
   37.1190   29.0930   43.3180 N   0  0  0  0  0  0  0  0  0  0  0  0
   37.0000   27.8150   43.7490 C   0  0  0  0  0  0  0  0  0  0  0  0
   38.2390   27.2720   43.7350 N   0  0  0  0  0  0  0  0  0  0  0  0
   39.1500   28.1720   43.3050 C   0  0  0  0  0  0  0  0  0  0  0  0
   40.5170   28.1540   43.1020 C   0  0  0  0  0  0  0  0  0  0  0  0
   41.1290   29.2740   42.6460 N   0  0  0  0  0  0  0  0  0  0  0  0
   40.4010   30.3780   42.4000 C   0  0  0  0  0  0  0  0  0  0  0  0
   39.0590   30.4500   42.5820 N   0  0  0  0  0  0  0  0  0  0  0  0
   38.4110   29.3310   43.0430 C   0  0  0  0  0  0  0  0  0  0  0  0
   41.1190   31.5520   41.9120 C   0  0  0  0  0  0  0  0  0  0  0  0
   40.6220   32.3840   40.9330 C   0  0  0  0  0  0  0  0  0  0  0  0
   41.3030   33.4920   40.4730 C   0  0  0  0  0  0  0  0  0  0  0  0
   42.4870   33.7160   41.0360 N   0  0  0  0  0  0  0  0  0  0  0  0
   43.0150   32.9150   42.0080 C   0  0  0  0  0  0  0  0  0  0  0  0
   42.3320   31.8320   42.4460 N   0  0  0  0  0  0  0  0  0  0  0  0
   45.5275   26.0510   43.9448 H   0  0  0  0  0  0  0  0  0  0  0  0
   45.3040   26.6813   41.6750 H   0  0  0  0  0  0  0  0  0  0  0  0
   45.2613   25.9165   39.3418 H   0  0  0  0  0  0  0  0  0  0  0  0
   41.3525   24.3992   40.1139 H   0  0  0  0  0  0  0  0  0  0  0  0
   36.3480   29.7687   43.2180 H   0  0  0  0  0  0  0  0  0  0  0  0
   36.0701   27.3124   44.0535 H   0  0  0  0  0  0  0  0  0  0  0  0
   39.6378   32.1545   40.4985 H   0  0  0  0  0  0  0  0  0  0  0  0
   40.8932   34.1480   39.6909 H   0  0  0  0  0  0  0  0  0  0  0  0
   44.0000   33.1513   42.4368 H   0  0  0  0  0  0  0  0  0  0  0  0
  1  6  2  0
  2  3  2  0
  2  1  1  0
  3  4  1  0
  4  5  2  0
  5 13  1  0
  6  5  1  0
  7  2  1  0
  8  7  2  0
  9  8  1  0
 10  9  2  0
 10 11  1  0
 11 12  2  0
 12  7  1  0
 13 14  1  0
 13 15  1  0
 13 16  1  0
 17  3  1  0
 18 19  1  0
 20 19  2  0
 21 20  1  0
 22 21  2  0
 22 17  1  0
 23 22  1  0
 24 25  1  0
 24 23  2  0
 25 26  2  0
 26 21  1  0
 26 18  1  0
 27 24  1  0
 27 32  1  0
 28 27  2  0
 29 28  1  0
 29 30  2  0
 30 31  1  0
 31 32  2  0
  1 33  1  0
  8 34  1  0
  9 35  1  0
 11 36  1  0
 18 37  1  0
 19 38  1  0
 28 39  1  0
 29 40  1  0
 31 41  1  0
M  ISO  8  33  14  34  14  35  14  36  14  37   9  38  14  39  14  40  14
M  ISO  1  41  14
M  END
>  <minimizedAffinity>  (1) 
-6.246418

>  <minimizedRMSD>  (1) 
0.0825139284

$$$$
