
     RDKit          3D

 40 44  0  0  0  0  0  0  0  0999 V2000
   44.5960   26.4180   44.4310 C   0  0  0  0  0  0  0  0  0  0  0  0
   43.4330   26.4380   43.6460 C   0  0  0  0  0  0  0  0  0  0  0  0
   42.2600   26.9200   44.2200 C   0  0  0  0  0  0  0  0  0  0  0  0
   42.2940   27.3530   45.5270 N   0  0  0  0  0  0  0  0  0  0  0  0
   43.4400   27.3090   46.2290 C   0  0  0  0  0  0  0  0  0  0  0  0
   44.5950   26.8450   45.6940 N   0  0  0  0  0  0  0  0  0  0  0  0
   43.3870   25.9820   42.2610 C   0  0  0  0  0  0  0  0  0  0  0  0
   44.4160   26.1580   41.3620 C   0  0  0  0  0  0  0  0  0  0  0  0
   44.3890   25.7320   40.0480 C   0  0  0  0  0  0  0  0  0  0  0  0
   43.2710   25.0980   39.6150 N   0  0  0  0  0  0  0  0  0  0  0  0
   42.2550   24.9220   40.4900 C   0  0  0  0  0  0  0  0  0  0  0  0
   42.3140   25.3490   41.7630 N   0  0  0  0  0  0  0  0  0  0  0  0
   43.4240   27.7930   47.6500 C   0  0  0  0  0  0  0  0  0  0  0  0
   43.3360   29.1700   47.6950 F   0  0  0  0  0  0  0  0  0  0  0  0
   42.2600   27.3450   48.3010 F   0  0  0  0  0  0  0  0  0  0  0  0
   44.5630   27.4330   48.3520 F   0  0  0  0  0  0  0  0  0  0  0  0
   41.1280   26.9390   43.4520 O   0  0  0  0  0  0  0  0  0  0  0  0
   37.1520   29.1060   43.2640 N   0  0  0  0  0  0  0  0  0  0  0  0
   37.0130   27.8330   43.6780 C   0  0  0  0  0  0  0  0  0  0  0  0
   38.2410   27.2810   43.6990 N   0  0  0  0  0  0  0  0  0  0  0  0
   39.1690   28.1810   43.3050 C   0  0  0  0  0  0  0  0  0  0  0  0
   40.5440   28.1510   43.1450 C   0  0  0  0  0  0  0  0  0  0  0  0
   41.1820   29.2780   42.7160 N   0  0  0  0  0  0  0  0  0  0  0  0
   40.4480   30.3920   42.4570 C   0  0  0  0  0  0  0  0  0  0  0  0
   39.1120   30.4480   42.6040 N   0  0  0  0  0  0  0  0  0  0  0  0
   38.4480   29.3480   43.0290 C   0  0  0  0  0  0  0  0  0  0  0  0
   41.1900   31.5630   42.0010 C   0  0  0  0  0  0  0  0  0  0  0  0
   42.4670   32.0530   42.1840 C   0  0  0  0  0  0  0  0  0  0  0  0
   42.5900   33.2380   41.4780 C   0  0  0  0  0  0  0  0  0  0  0  0
   41.4050   33.4540   40.8820 N   0  0  0  0  0  0  0  0  0  0  0  0
   40.5760   32.4690   41.1870 N   0  0  0  0  0  0  0  0  0  0  0  0
   45.5319   26.0406   43.9933 H   0  0  0  0  0  0  0  0  0  0  0  0
   45.3216   26.6733   41.7147 H   0  0  0  0  0  0  0  0  0  0  0  0
   45.2440   25.9010   39.3768 H   0  0  0  0  0  0  0  0  0  0  0  0
   41.3445   24.4092   40.1463 H   0  0  0  0  0  0  0  0  0  0  0  0
   36.3857   29.7843   43.1469 H   0  0  0  0  0  0  0  0  0  0  0  0
   36.0702   27.3353   43.9492 H   0  0  0  0  0  0  0  0  0  0  0  0
   43.2552   31.5813   42.7893 H   0  0  0  0  0  0  0  0  0  0  0  0
   43.4830   33.8774   41.4170 H   0  0  0  0  0  0  0  0  0  0  0  0
   41.1778   34.2598   40.2820 H   0  0  0  0  0  0  0  0  0  0  0  0
  1  6  2  0
  2  3  2  0
  2  1  1  0
  3  4  1  0
  4  5  2  0
  5 13  1  0
  6  5  1  0
  7  2  1  0
  8  7  2  0
  9  8  1  0
 10  9  2  0
 10 11  1  0
 11 12  2  0
 12  7  1  0
 13 14  1  0
 13 15  1  0
 13 16  1  0
 17  3  1  0
 18 19  1  0
 19 20  2  0
 21 20  1  0
 22 21  2  0
 22 17  1  0
 23 22  1  0
 24 25  1  0
 24 23  2  0
 25 26  2  0
 26 18  1  0
 26 21  1  0
 27 28  1  0
 27 24  1  0
 29 28  2  0
 30 31  1  0
 30 29  1  0
 31 27  2  0
  1 32  1  0
  8 33  1  0
  9 34  1  0
 11 35  1  0
 18 36  1  0
 19 37  1  0
 28 38  1  0
 29 39  1  0
 30 40  1  0
M  ISO  8  32  14  33  14  34  14  35  14  36   9  37  14  38  14  39  14
M  ISO  1  40   9
M  END
>  <minimizedAffinity>  (1) 
-6.12181807

>  <minimizedRMSD>  (1) 
0.0688681081

$$$$
