
     RDKit          3D

 36 39  0  0  0  0  0  0  0  0999 V2000
   44.5960   26.4140   44.4010 C   0  0  0  0  0  0  0  0  0  0  0  0
   43.4330   26.4410   43.6210 C   0  0  0  0  0  0  0  0  0  0  0  0
   42.2480   26.9310   44.1730 C   0  0  0  0  0  0  0  0  0  0  0  0
   42.2920   27.3700   45.4920 N   0  0  0  0  0  0  0  0  0  0  0  0
   43.4280   27.3250   46.1990 C   0  0  0  0  0  0  0  0  0  0  0  0
   44.5710   26.8540   45.6710 N   0  0  0  0  0  0  0  0  0  0  0  0
   43.3970   25.9780   42.2380 C   0  0  0  0  0  0  0  0  0  0  0  0
   44.4330   26.1290   41.3440 C   0  0  0  0  0  0  0  0  0  0  0  0
   44.4280   25.7030   40.0330 C   0  0  0  0  0  0  0  0  0  0  0  0
   43.2910   25.0770   39.5980 N   0  0  0  0  0  0  0  0  0  0  0  0
   42.2630   24.9180   40.4610 C   0  0  0  0  0  0  0  0  0  0  0  0
   42.3190   25.3540   41.7300 N   0  0  0  0  0  0  0  0  0  0  0  0
   43.3990   27.8160   47.6150 C   0  0  0  0  0  0  0  0  0  0  0  0
   43.3630   29.1960   47.6440 F   0  0  0  0  0  0  0  0  0  0  0  0
   42.2070   27.4270   48.2390 F   0  0  0  0  0  0  0  0  0  0  0  0
   44.5070   27.4140   48.3410 F   0  0  0  0  0  0  0  0  0  0  0  0
   41.1310   26.9500   43.4020 O   0  0  0  0  0  0  0  0  0  0  0  0
   37.1390   29.0950   43.3100 N   0  0  0  0  0  0  0  0  0  0  0  0
   37.0060   27.8100   43.7190 C   0  0  0  0  0  0  0  0  0  0  0  0
   38.2470   27.2730   43.7090 N   0  0  0  0  0  0  0  0  0  0  0  0
   39.1700   28.1770   43.3040 C   0  0  0  0  0  0  0  0  0  0  0  0
   40.5320   28.1600   43.1180 C   0  0  0  0  0  0  0  0  0  0  0  0
   41.1490   29.3010   42.6840 N   0  0  0  0  0  0  0  0  0  0  0  0
   40.4120   30.4050   42.4520 C   0  0  0  0  0  0  0  0  0  0  0  0
   39.0740   30.4620   42.6220 N   0  0  0  0  0  0  0  0  0  0  0  0
   38.4230   29.3430   43.0540 C   0  0  0  0  0  0  0  0  0  0  0  0
   41.1300   31.5990   41.9870 C   0  0  0  0  0  0  0  0  0  0  0  0
   40.8160   32.0500   40.8350 O   0  0  0  0  0  0  0  0  0  0  0  0
   42.1060   32.2160   42.7560 O   0  0  0  0  0  0  0  0  0  0  0  0
   45.5340   26.0311   43.9725 H   0  0  0  0  0  0  0  0  0  0  0  0
   45.3416   26.6321   41.7065 H   0  0  0  0  0  0  0  0  0  0  0  0
   45.2926   25.8580   39.3709 H   0  0  0  0  0  0  0  0  0  0  0  0
   41.3494   24.4144   40.1121 H   0  0  0  0  0  0  0  0  0  0  0  0
   36.3695   29.7727   43.2124 H   0  0  0  0  0  0  0  0  0  0  0  0
   36.0720   27.3032   44.0033 H   0  0  0  0  0  0  0  0  0  0  0  0
   42.5715   33.0197   42.4133 H   0  0  0  0  0  0  0  0  0  0  0  0
  1  6  2  0
  2  3  2  0
  2  1  1  0
  3  4  1  0
  4  5  2  0
  5 13  1  0
  6  5  1  0
  7  2  1  0
  8  7  2  0
  9  8  1  0
 10  9  2  0
 10 11  1  0
 11 12  2  0
 12  7  1  0
 13 14  1  0
 13 15  1  0
 13 16  1  0
 17  3  1  0
 18 19  1  0
 20 19  2  0
 21 20  1  0
 22 21  2  0
 22 17  1  0
 23 22  1  0
 24 25  1  0
 24 23  2  0
 25 26  2  0
 26 21  1  0
 26 18  1  0
 27 24  1  0
 27 29  1  0
 28 27  2  0
  1 30  1  0
  8 31  1  0
  9 32  1  0
 11 33  1  0
 18 34  1  0
 19 35  1  0
 29 36  1  0
M  ISO  7  30  14  31  14  32  14  33  14  34   9  35  14  36   3
M  END
>  <minimizedAffinity>  (1) 
-5.90241909

>  <minimizedRMSD>  (1) 
0.147689015

$$$$
