
     RDKit          3D

 35 38  0  0  0  0  0  0  0  0999 V2000
   44.5990   26.3890   44.3740 C   0  0  0  0  0  0  0  0  0  0  0  0
   43.4570   26.4440   43.5750 C   0  0  0  0  0  0  0  0  0  0  0  0
   42.2780   26.9660   44.1080 C   0  0  0  0  0  0  0  0  0  0  0  0
   42.3110   27.4060   45.4250 N   0  0  0  0  0  0  0  0  0  0  0  0
   43.4280   27.3300   46.1460 C   0  0  0  0  0  0  0  0  0  0  0  0
   44.5780   26.8260   45.6360 N   0  0  0  0  0  0  0  0  0  0  0  0
   43.4170   25.9830   42.1870 C   0  0  0  0  0  0  0  0  0  0  0  0
   44.4440   26.1520   41.2970 C   0  0  0  0  0  0  0  0  0  0  0  0
   44.4490   25.7350   39.9860 C   0  0  0  0  0  0  0  0  0  0  0  0
   43.3280   25.0970   39.5440 N   0  0  0  0  0  0  0  0  0  0  0  0
   42.3060   24.9190   40.4010 C   0  0  0  0  0  0  0  0  0  0  0  0
   42.3510   25.3480   41.6760 N   0  0  0  0  0  0  0  0  0  0  0  0
   43.4010   27.8210   47.5610 C   0  0  0  0  0  0  0  0  0  0  0  0
   43.3650   29.1990   47.5980 F   0  0  0  0  0  0  0  0  0  0  0  0
   42.2080   27.4320   48.1890 F   0  0  0  0  0  0  0  0  0  0  0  0
   44.5120   27.4260   48.2890 F   0  0  0  0  0  0  0  0  0  0  0  0
   41.1620   27.0210   43.3310 O   0  0  0  0  0  0  0  0  0  0  0  0
   37.1480   29.1000   43.2940 N   0  0  0  0  0  0  0  0  0  0  0  0
   37.0310   27.8070   43.6320 C   0  0  0  0  0  0  0  0  0  0  0  0
   38.2770   27.2750   43.6150 N   0  0  0  0  0  0  0  0  0  0  0  0
   39.1860   28.2220   43.2690 C   0  0  0  0  0  0  0  0  0  0  0  0
   40.5660   28.2410   43.0980 C   0  0  0  0  0  0  0  0  0  0  0  0
   41.1690   29.4040   42.7350 N   0  0  0  0  0  0  0  0  0  0  0  0
   40.4190   30.5010   42.5500 C   0  0  0  0  0  0  0  0  0  0  0  0
   39.0760   30.5300   42.7040 N   0  0  0  0  0  0  0  0  0  0  0  0
   38.4320   29.3840   43.0690 C   0  0  0  0  0  0  0  0  0  0  0  0
   41.0830   31.7020   42.1700 N   0  0  0  0  0  0  0  0  0  0  0  0
   45.5314   25.9794   43.9583 H   0  0  0  0  0  0  0  0  0  0  0  0
   45.3447   26.6668   41.6627 H   0  0  0  0  0  0  0  0  0  0  0  0
   45.3134   25.9075   39.3279 H   0  0  0  0  0  0  0  0  0  0  0  0
   41.4008   24.4041   40.0467 H   0  0  0  0  0  0  0  0  0  0  0  0
   36.3683   29.7690   43.2198 H   0  0  0  0  0  0  0  0  0  0  0  0
   36.0983   27.2779   43.8770 H   0  0  0  0  0  0  0  0  0  0  0  0
   42.1055   31.7080   42.0457 H   0  0  0  0  0  0  0  0  0  0  0  0
   40.5408   32.5647   42.0194 H   0  0  0  0  0  0  0  0  0  0  0  0
  1  6  2  0
  2  3  2  0
  2  1  1  0
  3  4  1  0
  4  5  2  0
  5 13  1  0
  6  5  1  0
  7  2  1  0
  8  7  2  0
  9  8  1  0
 10  9  2  0
 10 11  1  0
 11 12  2  0
 12  7  1  0
 13 14  1  0
 13 15  1  0
 13 16  1  0
 17  3  1  0
 18 19  1  0
 20 19  2  0
 21 20  1  0
 22 21  2  0
 22 17  1  0
 23 22  1  0
 24 25  1  0
 24 23  2  0
 25 26  2  0
 26 21  1  0
 26 18  1  0
 27 24  1  0
  1 28  1  0
  8 29  1  0
  9 30  1  0
 11 31  1  0
 18 32  1  0
 19 33  1  0
 27 34  1  0
 27 35  1  0
M  ISO  6  28  14  29  14  30  14  31  14  32   9  33  14
M  END
>  <minimizedAffinity>  (1) 
-5.72038031

>  <minimizedRMSD>  (1) 
0.0829365179

$$$$
