
     RDKit          3D

 40 44  0  0  0  0  0  0  0  0999 V2000
   44.5810   26.4200   44.3650 C   0  0  0  0  0  0  0  0  0  0  0  0
   43.4210   26.4420   43.5770 C   0  0  0  0  0  0  0  0  0  0  0  0
   42.2430   26.9340   44.1360 C   0  0  0  0  0  0  0  0  0  0  0  0
   42.2850   27.3750   45.4380 N   0  0  0  0  0  0  0  0  0  0  0  0
   43.4150   27.3370   46.1540 C   0  0  0  0  0  0  0  0  0  0  0  0
   44.5690   26.8610   45.6280 N   0  0  0  0  0  0  0  0  0  0  0  0
   43.3870   25.9730   42.2020 C   0  0  0  0  0  0  0  0  0  0  0  0
   44.4130   26.1160   41.3080 C   0  0  0  0  0  0  0  0  0  0  0  0
   44.4110   25.6840   40.0040 C   0  0  0  0  0  0  0  0  0  0  0  0
   43.2830   25.0590   39.5670 N   0  0  0  0  0  0  0  0  0  0  0  0
   42.2590   24.9070   40.4330 C   0  0  0  0  0  0  0  0  0  0  0  0
   42.3000   25.3420   41.7000 N   0  0  0  0  0  0  0  0  0  0  0  0
   43.3900   27.8340   47.5650 C   0  0  0  0  0  0  0  0  0  0  0  0
   43.3640   29.2040   47.5960 F   0  0  0  0  0  0  0  0  0  0  0  0
   42.1960   27.4530   48.1930 F   0  0  0  0  0  0  0  0  0  0  0  0
   44.4990   27.4190   48.2930 F   0  0  0  0  0  0  0  0  0  0  0  0
   41.1200   26.9520   43.3620 O   0  0  0  0  0  0  0  0  0  0  0  0
   37.1240   29.0970   43.3670 N   0  0  0  0  0  0  0  0  0  0  0  0
   37.0090   27.8230   43.8140 C   0  0  0  0  0  0  0  0  0  0  0  0
   38.2470   27.2720   43.7740 N   0  0  0  0  0  0  0  0  0  0  0  0
   39.1500   28.1790   43.3080 C   0  0  0  0  0  0  0  0  0  0  0  0
   40.5200   28.1570   43.0680 C   0  0  0  0  0  0  0  0  0  0  0  0
   41.1240   29.2650   42.5880 N   0  0  0  0  0  0  0  0  0  0  0  0
   40.3840   30.3680   42.3540 C   0  0  0  0  0  0  0  0  0  0  0  0
   39.0550   30.4320   42.5720 N   0  0  0  0  0  0  0  0  0  0  0  0
   38.4080   29.3340   43.0570 C   0  0  0  0  0  0  0  0  0  0  0  0
   41.0430   31.5990   41.8230 C   0  0  0  0  0  0  0  0  0  0  0  0
   40.8520   31.8980   40.3360 C   0  0  0  0  0  0  0  0  0  0  0  0
   42.1850   31.4890   40.8670 C   0  0  0  0  0  0  0  0  0  0  0  0
   45.5175   26.0332   43.9369 H   0  0  0  0  0  0  0  0  0  0  0  0
   45.3214   26.6226   41.6658 H   0  0  0  0  0  0  0  0  0  0  0  0
   45.2785   25.8356   39.3449 H   0  0  0  0  0  0  0  0  0  0  0  0
   41.3470   24.4019   40.0821 H   0  0  0  0  0  0  0  0  0  0  0  0
   36.3519   29.7731   43.2794 H   0  0  0  0  0  0  0  0  0  0  0  0
   36.0845   27.3286   44.1469 H   0  0  0  0  0  0  0  0  0  0  0  0
   40.8927   32.1303   42.7744 H   0  0  0  0  0  0  0  0  0  0  0  0
   40.6859   32.9314   39.9975 H   0  0  0  0  0  0  0  0  0  0  0  0
   40.1799   31.5340   39.5449 H   0  0  0  0  0  0  0  0  0  0  0  0
   42.5921   30.4986   40.6151 H   0  0  0  0  0  0  0  0  0  0  0  0
   43.1951   31.9223   40.8237 H   0  0  0  0  0  0  0  0  0  0  0  0
  1  6  2  0
  2  3  2  0
  2  1  1  0
  3  4  1  0
  4  5  2  0
  5 13  1  0
  6  5  1  0
  7  2  1  0
  8  7  2  0
  9  8  1  0
 10  9  2  0
 10 11  1  0
 11 12  2  0
 12  7  1  0
 13 14  1  0
 13 15  1  0
 13 16  1  0
 17  3  1  0
 18 19  1  0
 20 19  2  0
 21 20  1  0
 22 21  2  0
 22 17  1  0
 23 22  1  0
 24 25  1  0
 24 23  2  0
 25 26  2  0
 26 21  1  0
 26 18  1  0
 27 24  1  0
 28 29  1  0
 28 27  1  0
 29 27  1  0
  1 30  1  0
  8 31  1  0
  9 32  1  0
 11 33  1  0
 18 34  1  0
 19 35  1  0
 27 36  1  0
 28 37  1  0
 28 38  1  0
 29 39  1  0
 29 40  1  0
M  ISO  8  30  14  31  14  32  14  33  14  34   9  35  14  36  13  37  13
M  ISO  3  38  13  39  13  40  13
M  END
>  <minimizedAffinity>  (1) 
-5.63500643

>  <minimizedRMSD>  (1) 
0.0646584108

$$$$
