
     RDKit          3D

 29 31  0  0  0  0  0  0  0  0999 V2000
   37.6470   29.3780   41.6240 C   0  0  0  0  0  0  0  0  0  0  0  0
   37.6890   29.2490   43.0290 C   0  0  0  0  0  0  0  0  0  0  0  0
   37.5320   28.0620   43.7160 C   0  0  0  0  0  0  0  0  0  0  0  0
   37.3200   26.9070   42.9910 C   0  0  0  0  0  0  0  0  0  0  0  0
   37.2690   26.9610   41.6120 C   0  0  0  0  0  0  0  0  0  0  0  0
   37.0630   25.8150   40.8800 C   0  0  0  0  0  0  0  0  0  0  0  0
   37.0110   25.8160   39.4950 C   0  0  0  0  0  0  0  0  0  0  0  0
   37.1820   27.0630   38.9020 C   0  0  0  0  0  0  0  0  0  0  0  0
   37.3840   28.1830   39.6560 C   0  0  0  0  0  0  0  0  0  0  0  0
   37.4340   28.1740   41.0160 C   0  0  0  0  0  0  0  0  0  0  0  0
   37.8240   30.6940   41.1140 C   0  0  0  0  0  0  0  0  0  0  0  0
   36.9500   31.5010   40.3690 C   0  0  0  0  0  0  0  0  0  0  0  0
   37.2570   32.7980   39.9720 C   0  0  0  0  0  0  0  0  0  0  0  0
   38.4780   33.2420   40.3560 N   0  0  0  0  0  0  0  0  0  0  0  0
   39.3310   32.5060   41.0610 C   0  0  0  0  0  0  0  0  0  0  0  0
   38.9990   31.2620   41.4240 N   0  0  0  0  0  0  0  0  0  0  0  0
   36.8880   24.5130   41.5770 C   0  0  0  0  0  0  0  0  0  0  0  0
   36.2020   24.6730   42.7880 F   0  0  0  0  0  0  0  0  0  0  0  0
   36.1960   23.5870   40.8570 F   0  0  0  0  0  0  0  0  0  0  0  0
   38.1280   23.9800   41.9400 F   0  0  0  0  0  0  0  0  0  0  0  0
   37.8593   30.1612   43.6197 H   0  0  0  0  0  0  0  0  0  0  0  0
   37.5748   28.0373   44.8149 H   0  0  0  0  0  0  0  0  0  0  0  0
   37.1920   25.9458   43.5103 H   0  0  0  0  0  0  0  0  0  0  0  0
   36.8469   24.8999   38.9087 H   0  0  0  0  0  0  0  0  0  0  0  0
   37.1539   27.1480   37.8056 H   0  0  0  0  0  0  0  0  0  0  0  0
   37.5132   29.1440   39.1366 H   0  0  0  0  0  0  0  0  0  0  0  0
   35.9718   31.0862   40.0845 H   0  0  0  0  0  0  0  0  0  0  0  0
   36.5598   33.4178   39.3891 H   0  0  0  0  0  0  0  0  0  0  0  0
   40.3096   32.9196   41.3459 H   0  0  0  0  0  0  0  0  0  0  0  0
  1  2  2  0
  2  3  1  0
  4  3  2  0
  5  4  1  0
  6 17  1  0
  6  5  2  0
  7  6  1  0
  8  7  2  0
  8  9  1  0
  9 10  2  0
 10  5  1  0
 10  1  1  0
 11 16  1  0
 11  1  1  0
 12 11  2  0
 13 14  2  0
 13 12  1  0
 14 15  1  0
 15 16  2  0
 17 20  1  0
 17 18  1  0
 19 17  1  0
  2 21  1  0
  3 22  1  0
  4 23  1  0
  7 24  1  0
  8 25  1  0
  9 26  1  0
 12 27  1  0
 13 28  1  0
 15 29  1  0
M  ISO  8  21  14  22  14  23  14  24  14  25  14  26  14  27  14  28  14
M  ISO  1  29  14
M  END
>  <minimizedAffinity>  (1) 
-6.05893946

>  <minimizedRMSD>  (1) 
2.00475669

$$$$
