
     RDKit          3D

 33 36  0  0  0  0  0  0  0  0999 V2000
   37.0510   31.3490   39.7330 C   0  0  0  0  0  0  0  0  0  0  0  0
   36.4040   30.8300   40.8760 C   0  0  0  0  0  0  0  0  0  0  0  0
   35.5350   29.7540   40.8470 C   0  0  0  0  0  0  0  0  0  0  0  0
   35.2810   29.1490   39.6400 C   0  0  0  0  0  0  0  0  0  0  0  0
   35.8700   29.5970   38.4910 C   0  0  0  0  0  0  0  0  0  0  0  0
   35.6170   28.9640   37.3140 C   0  0  0  0  0  0  0  0  0  0  0  0
   36.2380   29.3820   36.1170 C   0  0  0  0  0  0  0  0  0  0  0  0
   37.1020   30.4690   36.2380 C   0  0  0  0  0  0  0  0  0  0  0  0
   37.3160   31.0690   37.4420 C   0  0  0  0  0  0  0  0  0  0  0  0
   36.7250   30.6730   38.6030 C   0  0  0  0  0  0  0  0  0  0  0  0
   37.9180   32.4660   39.9590 C   0  0  0  0  0  0  0  0  0  0  0  0
   37.6590   33.8410   39.8650 C   0  0  0  0  0  0  0  0  0  0  0  0
   38.6150   34.8050   40.1660 C   0  0  0  0  0  0  0  0  0  0  0  0
   39.8290   34.3320   40.5620 N   0  0  0  0  0  0  0  0  0  0  0  0
   40.0970   33.0360   40.6570 C   0  0  0  0  0  0  0  0  0  0  0  0
   39.1590   32.1390   40.3600 N   0  0  0  0  0  0  0  0  0  0  0  0
   34.7330   27.8340   37.0920 C   0  0  0  0  0  0  0  0  0  0  0  0
   33.4460   27.6890   36.6440 C   0  0  0  0  0  0  0  0  0  0  0  0
   33.0700   26.3760   36.5270 C   0  0  0  0  0  0  0  0  0  0  0  0
   34.1650   25.7080   36.9150 N   0  0  0  0  0  0  0  0  0  0  0  0
   35.1260   26.5390   37.2430 N   0  0  0  0  0  0  0  0  0  0  0  0
   36.6026   31.3093   41.8460 H   0  0  0  0  0  0  0  0  0  0  0  0
   35.0582   29.3911   41.7695 H   0  0  0  0  0  0  0  0  0  0  0  0
   34.5934   28.2914   39.5977 H   0  0  0  0  0  0  0  0  0  0  0  0
   36.0525   28.8836   35.1541 H   0  0  0  0  0  0  0  0  0  0  0  0
   37.6203   30.8491   35.3453 H   0  0  0  0  0  0  0  0  0  0  0  0
   38.0071   31.9240   37.4785 H   0  0  0  0  0  0  0  0  0  0  0  0
   36.6607   34.1698   39.5405 H   0  0  0  0  0  0  0  0  0  0  0  0
   38.4039   35.8818   40.0891 H   0  0  0  0  0  0  0  0  0  0  0  0
   41.0939   32.7027   40.9811 H   0  0  0  0  0  0  0  0  0  0  0  0
   32.7856   28.5354   36.4041 H   0  0  0  0  0  0  0  0  0  0  0  0
   32.1034   25.9692   36.1950 H   0  0  0  0  0  0  0  0  0  0  0  0
   34.2418   24.6815   36.9509 H   0  0  0  0  0  0  0  0  0  0  0  0
  1 11  1  0
  1  2  2  0
  3  2  1  0
  4  3  2  0
  5 10  2  0
  5  4  1  0
  6  5  1  0
  7  8  1  0
  7  6  2  0
  8  9  2  0
  9 10  1  0
 10  1  1  0
 11 16  1  0
 12 11  2  0
 12 13  1  0
 13 14  2  0
 14 15  1  0
 16 15  2  0
 17 21  2  0
 17  6  1  0
 18 17  1  0
 19 18  2  0
 19 20  1  0
 20 21  1  0
  2 22  1  0
  3 23  1  0
  4 24  1  0
  7 25  1  0
  8 26  1  0
  9 27  1  0
 12 28  1  0
 13 29  1  0
 15 30  1  0
 18 31  1  0
 19 32  1  0
 20 33  1  0
M  ISO  8  22  14  23  14  24  14  25  14  26  14  27  14  28  14  29  14
M  ISO  4  30  14  31  14  32  14  33   9
M  END
>  <minimizedAffinity>  (1) 
-5.46635866

>  <minimizedRMSD>  (1) 
5.88949537

$$$$
