
     RDKit          3D

 32 34  0  0  0  0  0  0  0  0999 V2000
   37.3540   28.3820   43.7370 C   0  0  0  0  0  0  0  0  0  0  0  0
   36.8250   27.2440   43.1030 C   0  0  0  0  0  0  0  0  0  0  0  0
   36.9550   27.2000   41.7140 C   0  0  0  0  0  0  0  0  0  0  0  0
   37.5660   28.2230   41.0540 N   0  0  0  0  0  0  0  0  0  0  0  0
   38.0550   29.2870   41.6960 C   0  0  0  0  0  0  0  0  0  0  0  0
   37.9440   29.3560   43.0330 N   0  0  0  0  0  0  0  0  0  0  0  0
   38.6990   30.3720   41.0700 N   0  0  0  0  0  0  0  0  0  0  0  0
   39.2350   31.2940   41.8650 N   0  0  0  0  0  0  0  0  0  0  0  0
   39.8130   32.2600   41.1190 C   0  0  0  0  0  0  0  0  0  0  0  0
   39.5980   31.8680   39.7970 C   0  0  0  0  0  0  0  0  0  0  0  0
   38.8950   30.6780   39.7730 C   0  0  0  0  0  0  0  0  0  0  0  0
   38.4580   29.9330   38.6400 N   0  0  0  0  0  0  0  0  0  0  0  0
   37.1860   30.4440   38.2040 C   0  0  0  0  0  0  0  0  0  0  0  0
   36.8010   30.0930   36.7960 C   0  0  0  0  0  0  0  0  0  0  0  0
   37.2300   28.7310   36.3580 C   0  0  0  0  0  0  0  0  0  0  0  0
   37.9460   27.9560   37.4190 C   0  0  0  0  0  0  0  0  0  0  0  0
   39.0810   28.8370   37.9280 C   0  0  0  0  0  0  0  0  0  0  0  0
   37.2818   28.4737   44.8308 H   0  0  0  0  0  0  0  0  0  0  0  0
   36.3375   26.4361   43.6683 H   0  0  0  0  0  0  0  0  0  0  0  0
   36.5639   26.3390   41.1522 H   0  0  0  0  0  0  0  0  0  0  0  0
   40.3380   33.1586   41.4752 H   0  0  0  0  0  0  0  0  0  0  0  0
   39.9365   32.4218   38.9089 H   0  0  0  0  0  0  0  0  0  0  0  0
   36.4117   30.0468   38.8769 H   0  0  0  0  0  0  0  0  0  0  0  0
   37.2738   31.5402   38.2306 H   0  0  0  0  0  0  0  0  0  0  0  0
   35.7055   30.1509   36.7147 H   0  0  0  0  0  0  0  0  0  0  0  0
   37.3192   30.8097   36.1420 H   0  0  0  0  0  0  0  0  0  0  0  0
   36.3358   28.1649   36.0581 H   0  0  0  0  0  0  0  0  0  0  0  0
   37.9378   28.8684   35.5272 H   0  0  0  0  0  0  0  0  0  0  0  0
   37.2562   27.7163   38.2417 H   0  0  0  0  0  0  0  0  0  0  0  0
   38.3353   27.0090   37.0170 H   0  0  0  0  0  0  0  0  0  0  0  0
   39.7328   28.2650   38.6047 H   0  0  0  0  0  0  0  0  0  0  0  0
   39.7053   29.2026   37.0993 H   0  0  0  0  0  0  0  0  0  0  0  0
  2  1  2  0
  3  2  1  0
  4  5  1  0
  4  3  2  0
  5  6  2  0
  6  1  1  0
  7  5  1  0
  7  8  1  0
  9  8  2  0
 10  9  1  0
 11 10  2  0
 11  7  1  0
 12 11  1  0
 13 12  1  0
 14 13  1  0
 15 14  1  0
 15 16  1  0
 16 17  1  0
 17 12  1  0
  1 18  1  0
  2 19  1  0
  3 20  1  0
  9 21  1  0
 10 22  1  0
 13 23  1  0
 13 24  1  0
 14 25  1  0
 14 26  1  0
 15 27  1  0
 15 28  1  0
 16 29  1  0
 16 30  1  0
 17 31  1  0
 17 32  1  0
M  ISO  8  18  14  19  14  20  14  21  14  22  14  23  13  24  13  25  13
M  ISO  7  26  13  27  13  28  13  29  13  30  13  31  13  32  13
M  END
>  <minimizedAffinity>  (1) 
-4.29557228

>  <minimizedRMSD>  (1) 
2.81575322

$$$$
