
     RDKit          3D

 32 35  0  0  0  0  0  0  0  0999 V2000
   37.0160   31.2850   39.7020 C   0  0  0  0  0  0  0  0  0  0  0  0
   36.3630   30.7600   40.8380 C   0  0  0  0  0  0  0  0  0  0  0  0
   35.4890   29.6840   40.7920 C   0  0  0  0  0  0  0  0  0  0  0  0
   35.2420   29.0930   39.5720 C   0  0  0  0  0  0  0  0  0  0  0  0
   35.8410   29.5560   38.4360 C   0  0  0  0  0  0  0  0  0  0  0  0
   35.6010   28.9320   37.2510 C   0  0  0  0  0  0  0  0  0  0  0  0
   36.2370   29.3530   36.0630 C   0  0  0  0  0  0  0  0  0  0  0  0
   37.0990   30.4290   36.2000 C   0  0  0  0  0  0  0  0  0  0  0  0
   37.3040   31.0240   37.4100 C   0  0  0  0  0  0  0  0  0  0  0  0
   36.6840   30.6120   38.5710 C   0  0  0  0  0  0  0  0  0  0  0  0
   37.8820   32.4020   39.9450 C   0  0  0  0  0  0  0  0  0  0  0  0
   37.6160   33.7750   39.8410 C   0  0  0  0  0  0  0  0  0  0  0  0
   38.5620   34.7520   40.1540 C   0  0  0  0  0  0  0  0  0  0  0  0
   39.7670   34.2850   40.5690 N   0  0  0  0  0  0  0  0  0  0  0  0
   40.0420   32.9890   40.6730 C   0  0  0  0  0  0  0  0  0  0  0  0
   39.1150   32.0750   40.3660 N   0  0  0  0  0  0  0  0  0  0  0  0
   34.7020   27.7770   37.0300 C   0  0  0  0  0  0  0  0  0  0  0  0
   33.4970   27.8880   36.3920 C   0  0  0  0  0  0  0  0  0  0  0  0
   32.8560   26.2050   36.2520 S   0  0  0  0  0  0  0  0  0  0  0  0
   34.4070   25.5390   37.1290 C   0  0  0  0  0  0  0  0  0  0  0  0
   34.9250   26.5150   37.2860 N   0  0  0  0  0  0  0  0  0  0  0  0
   36.5580   31.2300   41.8132 H   0  0  0  0  0  0  0  0  0  0  0  0
   35.0050   29.3116   41.7069 H   0  0  0  0  0  0  0  0  0  0  0  0
   34.5534   28.2372   39.5127 H   0  0  0  0  0  0  0  0  0  0  0  0
   36.0604   28.8607   35.0953 H   0  0  0  0  0  0  0  0  0  0  0  0
   37.6288   30.8111   35.3149 H   0  0  0  0  0  0  0  0  0  0  0  0
   37.9987   31.8752   37.4625 H   0  0  0  0  0  0  0  0  0  0  0  0
   36.6208   34.0950   39.4986 H   0  0  0  0  0  0  0  0  0  0  0  0
   38.3459   35.8273   40.0701 H   0  0  0  0  0  0  0  0  0  0  0  0
   41.0370   32.6663   41.0133 H   0  0  0  0  0  0  0  0  0  0  0  0
   33.0171   28.8120   36.0372 H   0  0  0  0  0  0  0  0  0  0  0  0
   34.7011   24.5136   37.3973 H   0  0  0  0  0  0  0  0  0  0  0  0
  1 11  1  0
  1  2  2  0
  3  2  1  0
  4  3  2  0
  5 10  2  0
  5  4  1  0
  6  5  1  0
  7  8  1  0
  7  6  2  0
  8  9  2  0
  9 10  1  0
 10  1  1  0
 11 16  1  0
 12 11  2  0
 12 13  1  0
 13 14  2  0
 14 15  1  0
 16 15  2  0
 17  6  1  0
 17 21  1  0
 18 17  2  0
 19 18  1  0
 19 20  1  0
 20 21  2  0
  2 22  1  0
  3 23  1  0
  4 24  1  0
  7 25  1  0
  8 26  1  0
  9 27  1  0
 12 28  1  0
 13 29  1  0
 15 30  1  0
 18 31  1  0
 20 32  1  0
M  ISO  8  22  14  23  14  24  14  25  14  26  14  27  14  28  14  29  14
M  ISO  3  30  14  31  14  32  14
M  END
>  <minimizedAffinity>  (1) 
-5.42807627

>  <minimizedRMSD>  (1) 
5.90554094

$$$$
