
     RDKit          3D

 34 37  0  0  0  0  0  0  0  0999 V2000
   39.6790   32.3020   39.7150 C   0  0  0  0  0  0  0  0  0  0  0  0
   38.3340   32.3930   39.2950 C   0  0  0  0  0  0  0  0  0  0  0  0
   37.3180   31.5760   39.7510 C   0  0  0  0  0  0  0  0  0  0  0  0
   37.6350   30.6010   40.6800 C   0  0  0  0  0  0  0  0  0  0  0  0
   38.9160   30.4550   41.1320 C   0  0  0  0  0  0  0  0  0  0  0  0
   39.2080   29.4980   42.0560 C   0  0  0  0  0  0  0  0  0  0  0  0
   40.5080   29.3290   42.5530 C   0  0  0  0  0  0  0  0  0  0  0  0
   41.4560   30.1950   42.0410 C   0  0  0  0  0  0  0  0  0  0  0  0
   41.1260   31.1420   41.1140 C   0  0  0  0  0  0  0  0  0  0  0  0
   39.8560   31.3060   40.6290 C   0  0  0  0  0  0  0  0  0  0  0  0
   40.5830   33.2360   39.1220 C   0  0  0  0  0  0  0  0  0  0  0  0
   41.4400   33.0720   38.0220 C   0  0  0  0  0  0  0  0  0  0  0  0
   42.2370   34.1070   37.5320 C   0  0  0  0  0  0  0  0  0  0  0  0
   42.1330   35.2760   38.1850 N   0  0  0  0  0  0  0  0  0  0  0  0
   41.3280   35.4610   39.2340 C   0  0  0  0  0  0  0  0  0  0  0  0
   40.5780   34.4480   39.6760 N   0  0  0  0  0  0  0  0  0  0  0  0
   38.1970   28.5720   42.6130 C   0  0  0  0  0  0  0  0  0  0  0  0
   37.6610   28.8090   43.8530 C   0  0  0  0  0  0  0  0  0  0  0  0
   36.7170   28.0890   44.5350 C   0  0  0  0  0  0  0  0  0  0  0  0
   36.2600   26.9850   43.8660 N   0  0  0  0  0  0  0  0  0  0  0  0
   36.7630   26.7130   42.6340 C   0  0  0  0  0  0  0  0  0  0  0  0
   37.6700   27.4890   42.0900 N   0  0  0  0  0  0  0  0  0  0  0  0
   38.0783   33.1660   38.5554 H   0  0  0  0  0  0  0  0  0  0  0  0
   36.2873   31.6969   39.3863 H   0  0  0  0  0  0  0  0  0  0  0  0
   36.8459   29.9351   41.0594 H   0  0  0  0  0  0  0  0  0  0  0  0
   40.7566   28.5600   43.2992 H   0  0  0  0  0  0  0  0  0  0  0  0
   42.4974   30.1198   42.3873 H   0  0  0  0  0  0  0  0  0  0  0  0
   41.9191   31.8054   40.7386 H   0  0  0  0  0  0  0  0  0  0  0  0
   41.4847   32.0903   37.5278 H   0  0  0  0  0  0  0  0  0  0  0  0
   42.9057   33.9745   36.6687 H   0  0  0  0  0  0  0  0  0  0  0  0
   41.2827   36.4413   39.7310 H   0  0  0  0  0  0  0  0  0  0  0  0
   38.0423   29.7011   44.3714 H   0  0  0  0  0  0  0  0  0  0  0  0
   36.3566   28.3730   45.5347 H   0  0  0  0  0  0  0  0  0  0  0  0
   36.4048   25.8298   42.0848 H   0  0  0  0  0  0  0  0  0  0  0  0
  1 10  1  0
  2  1  2  0
  2  3  1  0
  3  4  2  0
  4  5  1  0
  5  6  2  0
  6  7  1  0
  6 17  1  0
  8  7  2  0
  9  8  1  0
 10  9  2  0
 10  5  1  0
 11 16  1  0
 11  1  1  0
 12 11  2  0
 13 12  1  0
 13 14  2  0
 14 15  1  0
 15 16  2  0
 17 18  2  0
 18 19  1  0
 20 19  2  0
 21 20  1  0
 22 17  1  0
 22 21  2  0
  2 23  1  0
  3 24  1  0
  4 25  1  0
  7 26  1  0
  8 27  1  0
  9 28  1  0
 12 29  1  0
 13 30  1  0
 15 31  1  0
 18 32  1  0
 19 33  1  0
 21 34  1  0
M  ISO  8  23  14  24  14  25  14  26  14  27  14  28  14  29  14  30  14
M  ISO  4  31  14  32  14  33  14  34  14
M  END
>  <minimizedAffinity>  (1) 
-5.34537888

>  <minimizedRMSD>  (1) 
5.17689323

$$$$
