
     RDKit          3D

 39 42  0  0  0  0  0  0  0  0999 V2000
   38.1930   27.3620   41.5100 C   0  0  0  0  0  0  0  0  0  0  0  0
   38.2830   27.8120   42.8460 C   0  0  0  0  0  0  0  0  0  0  0  0
   38.3640   29.1390   43.2250 C   0  0  0  0  0  0  0  0  0  0  0  0
   38.3580   30.0950   42.2450 C   0  0  0  0  0  0  0  0  0  0  0  0
   38.2730   29.7360   40.9170 C   0  0  0  0  0  0  0  0  0  0  0  0
   38.2600   30.7060   39.9410 C   0  0  0  0  0  0  0  0  0  0  0  0
   38.1650   30.3910   38.6040 C   0  0  0  0  0  0  0  0  0  0  0  0
   38.0860   29.0380   38.3210 C   0  0  0  0  0  0  0  0  0  0  0  0
   38.1010   28.0940   39.3010 C   0  0  0  0  0  0  0  0  0  0  0  0
   38.1960   28.4020   40.6260 C   0  0  0  0  0  0  0  0  0  0  0  0
   38.1230   25.9540   41.3190 C   0  0  0  0  0  0  0  0  0  0  0  0
   39.1470   25.0120   41.1350 C   0  0  0  0  0  0  0  0  0  0  0  0
   38.8950   23.6480   40.9970 C   0  0  0  0  0  0  0  0  0  0  0  0
   37.5920   23.2830   41.0520 N   0  0  0  0  0  0  0  0  0  0  0  0
   36.6000   24.1500   41.2240 C   0  0  0  0  0  0  0  0  0  0  0  0
   36.8770   25.4550   41.3530 N   0  0  0  0  0  0  0  0  0  0  0  0
   38.3580   32.0940   40.3830 C   0  0  0  0  0  0  0  0  0  0  0  0
   37.4560   33.0630   39.6520 C   0  0  0  0  0  0  0  0  0  0  0  0
   38.0740   34.4030   40.0050 C   0  0  0  0  0  0  0  0  0  0  0  0
   39.5310   34.1370   40.3760 C   0  0  0  0  0  0  0  0  0  0  0  0
   39.7100   32.6660   39.9990 C   0  0  0  0  0  0  0  0  0  0  0  0
   38.2891   27.0523   43.6415 H   0  0  0  0  0  0  0  0  0  0  0  0
   38.4315   29.4195   44.2865 H   0  0  0  0  0  0  0  0  0  0  0  0
   38.4215   31.1583   42.5197 H   0  0  0  0  0  0  0  0  0  0  0  0
   38.1527   31.1594   37.8170 H   0  0  0  0  0  0  0  0  0  0  0  0
   38.0088   28.7163   37.2719 H   0  0  0  0  0  0  0  0  0  0  0  0
   38.0335   27.0350   39.0114 H   0  0  0  0  0  0  0  0  0  0  0  0
   40.1886   25.3637   41.0983 H   0  0  0  0  0  0  0  0  0  0  0  0
   39.7026   22.9152   40.8527 H   0  0  0  0  0  0  0  0  0  0  0  0
   35.5581   23.7990   41.2603 H   0  0  0  0  0  0  0  0  0  0  0  0
   38.1233   32.0248   41.4554 H   0  0  0  0  0  0  0  0  0  0  0  0
   36.4195   32.9939   40.0138 H   0  0  0  0  0  0  0  0  0  0  0  0
   37.3923   32.8770   38.5697 H   0  0  0  0  0  0  0  0  0  0  0  0
   38.0218   35.0826   39.1416 H   0  0  0  0  0  0  0  0  0  0  0  0
   37.5359   34.8765   40.8394 H   0  0  0  0  0  0  0  0  0  0  0  0
   40.2113   34.7802   39.7985 H   0  0  0  0  0  0  0  0  0  0  0  0
   39.7585   34.3482   41.4313 H   0  0  0  0  0  0  0  0  0  0  0  0
   39.9067   32.5471   38.9233 H   0  0  0  0  0  0  0  0  0  0  0  0
   40.5629   32.1754   40.4909 H   0  0  0  0  0  0  0  0  0  0  0  0
  1  2  2  0
  2  3  1  0
  4  3  2  0
  5  4  1  0
  6 17  1  0
  6  5  2  0
  7  6  1  0
  8  7  2  0
  8  9  1  0
  9 10  2  0
 10  5  1  0
 10  1  1  0
 11 16  1  0
 11  1  1  0
 12 11  2  0
 13 14  2  0
 13 12  1  0
 14 15  1  0
 15 16  2  0
 18 19  1  0
 18 17  1  0
 19 20  1  0
 21 20  1  0
 21 17  1  0
  2 22  1  0
  3 23  1  0
  4 24  1  0
  7 25  1  0
  8 26  1  0
  9 27  1  0
 12 28  1  0
 13 29  1  0
 15 30  1  0
 17 31  1  0
 18 32  1  0
 18 33  1  0
 19 34  1  0
 19 35  1  0
 20 36  1  0
 20 37  1  0
 21 38  1  0
 21 39  1  0
M  ISO  8  22  14  23  14  24  14  25  14  26  14  27  14  28  14  29  14
M  ISO  8  30  14  31  13  32  13  33  13  34  13  35  13  36  13  37  13
M  ISO  2  38  13  39  13
M  END
>  <minimizedAffinity>  (1) 
-5.22772884

>  <minimizedRMSD>  (1) 
6.95178938

$$$$
