
     RDKit          3D

 33 36  0  0  0  0  0  0  0  0999 V2000
   38.4370   30.3740   40.0850 C   0  0  0  0  0  0  0  0  0  0  0  0
   38.5460   29.8260   38.7860 C   0  0  0  0  0  0  0  0  0  0  0  0
   38.5180   28.4710   38.5050 C   0  0  0  0  0  0  0  0  0  0  0  0
   38.3740   27.5840   39.5590 C   0  0  0  0  0  0  0  0  0  0  0  0
   38.2630   28.0580   40.8410 C   0  0  0  0  0  0  0  0  0  0  0  0
   38.1140   27.1770   41.8880 C   0  0  0  0  0  0  0  0  0  0  0  0
   37.9900   27.6020   43.2070 C   0  0  0  0  0  0  0  0  0  0  0  0
   38.0300   28.9810   43.3850 C   0  0  0  0  0  0  0  0  0  0  0  0
   38.1800   29.8240   42.3220 C   0  0  0  0  0  0  0  0  0  0  0  0
   38.2990   29.4080   41.0330 C   0  0  0  0  0  0  0  0  0  0  0  0
   38.4910   31.7930   40.1640 C   0  0  0  0  0  0  0  0  0  0  0  0
   39.5000   32.6370   40.6510 C   0  0  0  0  0  0  0  0  0  0  0  0
   39.4150   34.0210   40.6230 C   0  0  0  0  0  0  0  0  0  0  0  0
   38.2770   34.5230   40.0880 N   0  0  0  0  0  0  0  0  0  0  0  0
   37.3010   33.7540   39.6180 C   0  0  0  0  0  0  0  0  0  0  0  0
   37.4160   32.4220   39.6620 N   0  0  0  0  0  0  0  0  0  0  0  0
   38.0740   25.7660   41.7000 N   0  0  0  0  0  0  0  0  0  0  0  0
   39.1150   24.9120   41.5730 C   0  0  0  0  0  0  0  0  0  0  0  0
   38.7050   23.6230   41.4060 C   0  0  0  0  0  0  0  0  0  0  0  0
   37.3600   23.6690   41.4290 N   0  0  0  0  0  0  0  0  0  0  0  0
   37.0050   24.9560   41.6050 C   0  0  0  0  0  0  0  0  0  0  0  0
   38.6607   30.5229   37.9427 H   0  0  0  0  0  0  0  0  0  0  0  0
   38.6079   28.1077   37.4706 H   0  0  0  0  0  0  0  0  0  0  0  0
   38.3487   26.5010   39.3680 H   0  0  0  0  0  0  0  0  0  0  0  0
   37.8694   26.9005   44.0457 H   0  0  0  0  0  0  0  0  0  0  0  0
   37.9393   29.3988   44.3985 H   0  0  0  0  0  0  0  0  0  0  0  0
   38.2062   30.9057   42.5202 H   0  0  0  0  0  0  0  0  0  0  0  0
   40.4045   32.1779   41.0767 H   0  0  0  0  0  0  0  0  0  0  0  0
   40.2174   34.6668   41.0091 H   0  0  0  0  0  0  0  0  0  0  0  0
   36.3968   34.2133   39.1920 H   0  0  0  0  0  0  0  0  0  0  0  0
   40.1701   25.2218   41.6012 H   0  0  0  0  0  0  0  0  0  0  0  0
   39.3392   22.7332   41.2792 H   0  0  0  0  0  0  0  0  0  0  0  0
   35.9631   25.3037   41.6641 H   0  0  0  0  0  0  0  0  0  0  0  0
  1 11  1  0
  1 10  1  0
  2  1  2  0
  3  2  1  0
  3  4  2  0
  4  5  1  0
  5 10  2  0
  5  6  1  0
  6  7  2  0
  7  8  1  0
  9  8  2  0
 10  9  1  0
 11 12  2  0
 13 12  1  0
 14 13  2  0
 15 16  2  0
 15 14  1  0
 16 11  1  0
 17  6  1  0
 18 17  1  0
 19 20  1  0
 19 18  2  0
 20 21  2  0
 21 17  1  0
  2 22  1  0
  3 23  1  0
  4 24  1  0
  7 25  1  0
  8 26  1  0
  9 27  1  0
 12 28  1  0
 13 29  1  0
 15 30  1  0
 18 31  1  0
 19 32  1  0
 21 33  1  0
M  ISO  8  22  14  23  14  24  14  25  14  26  14  27  14  28  14  29  14
M  ISO  4  30  14  31  14  32  14  33  14
M  END
>  <minimizedAffinity>  (1) 
-5.18554592

>  <minimizedRMSD>  (1) 
3.80581474

$$$$
