
     RDKit          3D

 36 39  0  0  0  0  0  0  0  0999 V2000
   37.5270   29.8830   40.4290 C   0  0  0  0  0  0  0  0  0  0  0  0
   36.7950   29.4910   41.5690 C   0  0  0  0  0  0  0  0  0  0  0  0
   36.5030   28.1840   41.9030 C   0  0  0  0  0  0  0  0  0  0  0  0
   36.9580   27.1790   41.0670 C   0  0  0  0  0  0  0  0  0  0  0  0
   37.6740   27.4910   39.9450 C   0  0  0  0  0  0  0  0  0  0  0  0
   38.1350   26.4940   39.1130 C   0  0  0  0  0  0  0  0  0  0  0  0
   38.8710   26.7560   37.9720 C   0  0  0  0  0  0  0  0  0  0  0  0
   39.1140   28.1090   37.7210 C   0  0  0  0  0  0  0  0  0  0  0  0
   38.6420   29.0760   38.5660 C   0  0  0  0  0  0  0  0  0  0  0  0
   37.9200   28.8140   39.6870 C   0  0  0  0  0  0  0  0  0  0  0  0
   37.7180   31.2850   40.2630 C   0  0  0  0  0  0  0  0  0  0  0  0
   37.0000   32.2050   39.4840 C   0  0  0  0  0  0  0  0  0  0  0  0
   37.2880   33.5650   39.4570 C   0  0  0  0  0  0  0  0  0  0  0  0
   38.3240   33.9560   40.2420 N   0  0  0  0  0  0  0  0  0  0  0  0
   39.0220   33.1080   40.9880 C   0  0  0  0  0  0  0  0  0  0  0  0
   38.7180   31.8080   40.9910 N   0  0  0  0  0  0  0  0  0  0  0  0
   37.8860   25.1180   39.3710 N   0  0  0  0  0  0  0  0  0  0  0  0
   36.8070   24.4050   38.9920 C   0  0  0  0  0  0  0  0  0  0  0  0
   36.7000   23.0690   39.3150 C   0  0  0  0  0  0  0  0  0  0  0  0
   37.7290   22.4920   40.0360 C   0  0  0  0  0  0  0  0  0  0  0  0
   37.6230   21.2610   40.3300 O   0  0  0  0  0  0  0  0  0  0  0  0
   38.7980   23.2200   40.4050 N   0  0  0  0  0  0  0  0  0  0  0  0
   38.8960   24.5380   40.0820 C   0  0  0  0  0  0  0  0  0  0  0  0
   39.9360   25.0810   40.4890 O   0  0  0  0  0  0  0  0  0  0  0  0
   36.4309   30.2832   42.2397 H   0  0  0  0  0  0  0  0  0  0  0  0
   35.9248   27.9476   42.8084 H   0  0  0  0  0  0  0  0  0  0  0  0
   36.7430   26.1270   41.3060 H   0  0  0  0  0  0  0  0  0  0  0  0
   39.2383   25.9577   37.3103 H   0  0  0  0  0  0  0  0  0  0  0  0
   39.6926   28.4005   36.8320 H   0  0  0  0  0  0  0  0  0  0  0  0
   38.8596   30.1267   38.3238 H   0  0  0  0  0  0  0  0  0  0  0  0
   36.1701   31.8327   38.8654 H   0  0  0  0  0  0  0  0  0  0  0  0
   36.7158   34.2751   38.8419 H   0  0  0  0  0  0  0  0  0  0  0  0
   39.8536   33.4778   41.6057 H   0  0  0  0  0  0  0  0  0  0  0  0
   36.0045   24.8934   38.4198 H   0  0  0  0  0  0  0  0  0  0  0  0
   35.8229   22.4802   39.0085 H   0  0  0  0  0  0  0  0  0  0  0  0
   39.5551   22.7723   40.9410 H   0  0  0  0  0  0  0  0  0  0  0  0
  1  2  2  0
  2  3  1  0
  4  3  2  0
  5  4  1  0
  6 17  1  0
  6  5  2  0
  7  6  1  0
  8  7  2  0
  8  9  1  0
  9 10  2  0
 10  5  1  0
 10  1  1  0
 11  1  1  0
 11 16  1  0
 12 11  2  0
 13 12  1  0
 13 14  2  0
 14 15  1  0
 15 16  2  0
 17 23  1  0
 18 19  2  0
 18 17  1  0
 19 20  1  0
 20 21  2  0
 20 22  1  0
 23 22  1  0
 23 24  2  0
  2 25  1  0
  3 26  1  0
  4 27  1  0
  7 28  1  0
  8 29  1  0
  9 30  1  0
 12 31  1  0
 13 32  1  0
 15 33  1  0
 18 34  1  0
 19 35  1  0
 22 36  1  0
M  ISO  8  25  14  26  14  27  14  28  14  29  14  30  14  31  14  32  14
M  ISO  4  33  14  34  14  35  14  36   9
M  END
>  <minimizedAffinity>  (1) 
-5.09434605

>  <minimizedRMSD>  (1) 
3.89279318

$$$$
