
     RDKit          3D

 27 28  0  0  0  0  0  0  0  0999 V2000
   37.2770   30.0740   41.3290 C   0  0  0  0  0  0  0  0  0  0  0  0
   38.2880   29.5030   42.1710 C   0  0  0  0  0  0  0  0  0  0  0  0
   39.3500   30.3340   42.4170 C   0  0  0  0  0  0  0  0  0  0  0  0
   39.4250   31.5900   41.9010 N   0  0  0  0  0  0  0  0  0  0  0  0
   38.4350   32.0770   41.1090 C   0  0  0  0  0  0  0  0  0  0  0  0
   37.3900   31.3230   40.8390 N   0  0  0  0  0  0  0  0  0  0  0  0
   38.1080   28.1860   42.6530 N   0  0  0  0  0  0  0  0  0  0  0  0
   37.1010   27.7940   43.5480 C   0  0  0  0  0  0  0  0  0  0  0  0
   36.8070   28.6510   44.5040 N   0  0  0  0  0  0  0  0  0  0  0  0
   36.5240   26.4870   43.2850 N   0  0  0  0  0  0  0  0  0  0  0  0
   36.0530   28.4300   45.1770 H   0  0  0  0  0  0  0  0  0  0  0  0
   38.7030   33.4420   40.6570 C   0  0  0  0  0  0  0  0  0  0  0  0
   37.8300   34.3080   40.0110 C   0  0  0  0  0  0  0  0  0  0  0  0
   38.4610   35.5070   39.7510 C   0  0  0  0  0  0  0  0  0  0  0  0
   39.7190   35.3040   40.2640 C   0  0  0  0  0  0  0  0  0  0  0  0
   39.8180   34.1120   40.7730 O   0  0  0  0  0  0  0  0  0  0  0  0
   40.8810   36.1860   40.3110 C   0  0  0  0  0  0  0  0  0  0  0  0
   41.5080   36.5790   41.3300 O   0  0  0  0  0  0  0  0  0  0  0  0
   41.4240   36.6930   39.1370 O   0  0  0  0  0  0  0  0  0  0  0  0
   36.3879   29.4771   41.0775 H   0  0  0  0  0  0  0  0  0  0  0  0
   40.1704   29.9722   43.0542 H   0  0  0  0  0  0  0  0  0  0  0  0
   38.7630   27.4626   42.3235 H   0  0  0  0  0  0  0  0  0  0  0  0
   35.7781   26.1213   43.8940 H   0  0  0  0  0  0  0  0  0  0  0  0
   36.8608   25.9260   42.4896 H   0  0  0  0  0  0  0  0  0  0  0  0
   36.7888   34.0725   39.7458 H   0  0  0  0  0  0  0  0  0  0  0  0
   38.0572   36.4026   39.2561 H   0  0  0  0  0  0  0  0  0  0  0  0
   42.2122   37.2909   39.1740 H   0  0  0  0  0  0  0  0  0  0  0  0
  1  2  2  0
  2  3  1  0
  2  7  1  0
  4  3  2  0
  5  4  1  0
  6  5  2  0
  6  1  1  0
  7  8  1  0
  8  9  2  0
  9 11  1  0
 10  8  1  0
 12 16  1  0
 12  5  1  0
 13 12  2  0
 14 13  1  0
 14 15  2  0
 15 17  1  0
 15 16  1  0
 17 18  2  0
 19 17  1  0
  1 20  1  0
  3 21  1  0
  7 22  1  0
 10 23  1  0
 10 24  1  0
 13 25  1  0
 14 26  1  0
 19 27  1  0
M  ISO  5  20  14  21  14  25  14  26  14  27   3
M  END
>  <minimizedAffinity>  (1) 
-5.28798771

>  <minimizedRMSD>  (1) 
0.806357265

$$$$
