
     RDKit          3D

 46 50  0  0  0  0  0  0  0  0999 V2000
   40.2600   32.9420   40.7810 C   0  0  0  0  0  0  0  0  0  0  0  0
   41.3580   32.3270   41.4210 C   0  0  0  0  0  0  0  0  0  0  0  0
   41.2880   31.0960   42.0540 C   0  0  0  0  0  0  0  0  0  0  0  0
   40.0710   30.4280   42.0610 C   0  0  0  0  0  0  0  0  0  0  0  0
   38.9840   30.9830   41.4550 C   0  0  0  0  0  0  0  0  0  0  0  0
   37.8220   30.2900   41.4860 C   0  0  0  0  0  0  0  0  0  0  0  0
   36.6550   30.8130   40.8690 C   0  0  0  0  0  0  0  0  0  0  0  0
   36.8090   32.0630   40.2490 C   0  0  0  0  0  0  0  0  0  0  0  0
   38.0160   32.7020   40.2590 C   0  0  0  0  0  0  0  0  0  0  0  0
   39.1340   32.1930   40.8560 C   0  0  0  0  0  0  0  0  0  0  0  0
   37.5210   29.0110   42.0860 C   0  0  0  0  0  0  0  0  0  0  0  0
   37.3500   28.7040   43.4190 C   0  0  0  0  0  0  0  0  0  0  0  0
   37.0340   27.4610   43.9090 C   0  0  0  0  0  0  0  0  0  0  0  0
   36.8630   26.4000   43.0530 C   0  0  0  0  0  0  0  0  0  0  0  0
   37.0380   26.7210   41.7390 C   0  0  0  0  0  0  0  0  0  0  0  0
   37.3470   27.9450   41.2700 N   0  0  0  0  0  0  0  0  0  0  0  0
   36.8870   25.7010   40.7420 N   0  0  0  0  0  0  0  0  0  0  0  0
   36.5680   25.9280   39.4540 C   0  0  0  0  0  0  0  0  0  0  0  0
   36.4620   24.8470   38.6220 C   0  0  0  0  0  0  0  0  0  0  0  0
   36.6770   23.5900   39.1110 C   0  0  0  0  0  0  0  0  0  0  0  0
   36.5770   22.4230   38.2810 N   0  0  0  0  0  0  0  0  0  0  0  0
   36.9960   23.4000   40.4140 N   0  0  0  0  0  0  0  0  0  0  0  0
   37.1030   24.4560   41.2400 C   0  0  0  0  0  0  0  0  0  0  0  0
   37.4000   24.2060   42.4290 O   0  0  0  0  0  0  0  0  0  0  0  0
   40.5300   34.2120   40.1950 C   0  0  0  0  0  0  0  0  0  0  0  0
   40.0600   35.4960   40.5440 C   0  0  0  0  0  0  0  0  0  0  0  0
   40.4510   36.6410   39.8620 C   0  0  0  0  0  0  0  0  0  0  0  0
   41.3220   36.4580   38.8260 N   0  0  0  0  0  0  0  0  0  0  0  0
   41.7710   35.2670   38.4860 C   0  0  0  0  0  0  0  0  0  0  0  0
   41.3860   34.1730   39.1510 N   0  0  0  0  0  0  0  0  0  0  0  0
   42.3233   32.8545   41.4170 H   0  0  0  0  0  0  0  0  0  0  0  0
   42.1739   30.6595   42.5384 H   0  0  0  0  0  0  0  0  0  0  0  0
   39.9841   29.4497   42.5563 H   0  0  0  0  0  0  0  0  0  0  0  0
   35.6954   30.2752   40.8763 H   0  0  0  0  0  0  0  0  0  0  0  0
   35.9486   32.5327   39.7499 H   0  0  0  0  0  0  0  0  0  0  0  0
   38.0918   33.6791   39.7594 H   0  0  0  0  0  0  0  0  0  0  0  0
   37.4767   29.5187   44.1471 H   0  0  0  0  0  0  0  0  0  0  0  0
   36.9171   27.3138   44.9928 H   0  0  0  0  0  0  0  0  0  0  0  0
   36.6086   25.3861   43.3955 H   0  0  0  0  0  0  0  0  0  0  0  0
   36.3981   26.9493   39.0825 H   0  0  0  0  0  0  0  0  0  0  0  0
   36.2043   24.9899   37.5622 H   0  0  0  0  0  0  0  0  0  0  0  0
   36.7456   21.4895   38.6824 H   0  0  0  0  0  0  0  0  0  0  0  0
   36.3367   22.5191   37.2841 H   0  0  0  0  0  0  0  0  0  0  0  0
   39.3591   35.5935   41.3861 H   0  0  0  0  0  0  0  0  0  0  0  0
   40.0803   37.6385   40.1404 H   0  0  0  0  0  0  0  0  0  0  0  0
   42.4720   35.1715   37.6437 H   0  0  0  0  0  0  0  0  0  0  0  0
  1 10  1  0
  1  2  2  0
  2  3  1  0
  3  4  2  0
  5  6  2  0
  5  4  1  0
  6 11  1  0
  7  6  1  0
  8  9  1  0
  8  7  2  0
  9 10  2  0
 10  5  1  0
 11 12  2  0
 12 13  1  0
 14 13  2  0
 15 14  1  0
 16 15  2  0
 16 11  1  0
 17 23  1  0
 17 15  1  0
 18 17  1  0
 19 20  1  0
 19 18  2  0
 20 22  2  0
 21 20  1  0
 22 23  1  0
 23 24  2  0
 25 26  2  0
 25  1  1  0
 27 26  1  0
 28 27  2  0
 29 28  1  0
 29 30  2  0
 30 25  1  0
  2 31  1  0
  3 32  1  0
  4 33  1  0
  7 34  1  0
  8 35  1  0
  9 36  1  0
 12 37  1  0
 13 38  1  0
 14 39  1  0
 18 40  1  0
 19 41  1  0
 21 42  1  0
 21 43  1  0
 26 44  1  0
 27 45  1  0
 29 46  1  0
M  ISO  8  31  14  32  14  33  14  34  14  35  14  36  14  37  14  38  14
M  ISO  6  39  14  40  14  41  14  44  14  45  14  46  14
M  END
>  <minimizedAffinity>  (1) 
-7.45217848

>  <minimizedRMSD>  (1) 
2.72496605

$$$$
