
     RDKit          3D

 49 53  0  0  0  0  0  0  0  0999 V2000
   39.8870   32.6700   40.9130 C   0  0  0  0  0  0  0  0  0  0  0  0
   41.0110   32.0800   41.5230 C   0  0  0  0  0  0  0  0  0  0  0  0
   41.0170   30.7990   42.0560 C   0  0  0  0  0  0  0  0  0  0  0  0
   39.8450   30.0520   41.9830 C   0  0  0  0  0  0  0  0  0  0  0  0
   38.7390   30.5830   41.4020 C   0  0  0  0  0  0  0  0  0  0  0  0
   37.6200   29.8160   41.3520 C   0  0  0  0  0  0  0  0  0  0  0  0
   36.4320   30.3110   40.7560 C   0  0  0  0  0  0  0  0  0  0  0  0
   36.5100   31.6170   40.2410 C   0  0  0  0  0  0  0  0  0  0  0  0
   37.6720   32.3280   40.3290 C   0  0  0  0  0  0  0  0  0  0  0  0
   38.8160   31.8430   40.9070 C   0  0  0  0  0  0  0  0  0  0  0  0
   37.3970   28.4760   41.8390 C   0  0  0  0  0  0  0  0  0  0  0  0
   36.8300   28.0810   43.0350 C   0  0  0  0  0  0  0  0  0  0  0  0
   36.6220   26.7780   43.4280 C   0  0  0  0  0  0  0  0  0  0  0  0
   36.9930   25.7520   42.5930 C   0  0  0  0  0  0  0  0  0  0  0  0
   37.5530   26.1550   41.4110 C   0  0  0  0  0  0  0  0  0  0  0  0
   37.7410   27.4350   41.0600 N   0  0  0  0  0  0  0  0  0  0  0  0
   37.9700   25.1610   40.4800 N   0  0  0  0  0  0  0  0  0  0  0  0
   38.7130   23.9630   40.7540 C   0  0  0  0  0  0  0  0  0  0  0  0
   37.8110   22.7930   40.4410 C   0  0  0  0  0  0  0  0  0  0  0  0
   37.2620   22.8560   39.1090 N   0  0  0  0  0  0  0  0  0  0  0  0
   37.7780   23.9680   38.3430 C   0  0  0  0  0  0  0  0  0  0  0  0
   37.6550   25.2740   39.0530 C   0  0  0  0  0  0  0  0  0  0  0  0
   40.0790   33.9990   40.4370 C   0  0  0  0  0  0  0  0  0  0  0  0
   39.3610   35.1800   40.7150 C   0  0  0  0  0  0  0  0  0  0  0  0
   39.7070   36.4110   40.1700 C   0  0  0  0  0  0  0  0  0  0  0  0
   40.7910   36.4160   39.3430 N   0  0  0  0  0  0  0  0  0  0  0  0
   41.4760   35.3240   39.0690 C   0  0  0  0  0  0  0  0  0  0  0  0
   41.1310   34.1480   39.6020 N   0  0  0  0  0  0  0  0  0  0  0  0
   41.9382   32.6691   41.5802 H   0  0  0  0  0  0  0  0  0  0  0  0
   41.9229   30.3853   42.5233 H   0  0  0  0  0  0  0  0  0  0  0  0
   39.8149   29.0327   42.3955 H   0  0  0  0  0  0  0  0  0  0  0  0
   35.5106   29.7128   40.7003 H   0  0  0  0  0  0  0  0  0  0  0  0
   35.6281   32.0692   39.7636 H   0  0  0  0  0  0  0  0  0  0  0  0
   37.6911   33.3462   39.9131 H   0  0  0  0  0  0  0  0  0  0  0  0
   36.5187   28.8735   43.7315 H   0  0  0  0  0  0  0  0  0  0  0  0
   36.1622   26.5600   44.4032 H   0  0  0  0  0  0  0  0  0  0  0  0
   36.8515   24.6927   42.8533 H   0  0  0  0  0  0  0  0  0  0  0  0
   39.6121   23.9248   40.1214 H   0  0  0  0  0  0  0  0  0  0  0  0
   39.0343   23.9363   41.8057 H   0  0  0  0  0  0  0  0  0  0  0  0
   38.3922   21.8642   40.5388 H   0  0  0  0  0  0  0  0  0  0  0  0
   36.9700   22.8222   41.1494 H   0  0  0  0  0  0  0  0  0  0  0  0
   37.4928   21.9815   38.6161 H   0  0  0  0  0  0  0  0  0  0  0  0
   37.2206   24.0300   37.3967 H   0  0  0  0  0  0  0  0  0  0  0  0
   38.8498   23.7837   38.1780 H   0  0  0  0  0  0  0  0  0  0  0  0
   38.3483   25.9937   38.5932 H   0  0  0  0  0  0  0  0  0  0  0  0
   36.6113   25.6097   38.9634 H   0  0  0  0  0  0  0  0  0  0  0  0
   38.4935   35.1252   41.3892 H   0  0  0  0  0  0  0  0  0  0  0  0
   39.1399   37.3269   40.3927 H   0  0  0  0  0  0  0  0  0  0  0  0
   42.3422   35.3812   38.3934 H   0  0  0  0  0  0  0  0  0  0  0  0
  1  2  2  0
  2  3  1  0
  4  3  2  0
  5  4  1  0
  6  5  2  0
  6 11  1  0
  7  6  1  0
  8  9  1  0
  8  7  2  0
  9 10  2  0
 10  1  1  0
 10  5  1  0
 11 12  2  0
 12 13  1  0
 14 13  2  0
 15 14  1  0
 16 15  2  0
 16 11  1  0
 17 18  1  0
 17 15  1  0
 19 18  1  0
 20 19  1  0
 21 22  1  0
 21 20  1  0
 22 17  1  0
 23 24  2  0
 23  1  1  0
 25 24  1  0
 26 25  2  0
 27 26  1  0
 27 28  2  0
 28 23  1  0
  2 29  1  0
  3 30  1  0
  4 31  1  0
  7 32  1  0
  8 33  1  0
  9 34  1  0
 12 35  1  0
 13 36  1  0
 14 37  1  0
 18 38  1  0
 18 39  1  0
 19 40  1  0
 19 41  1  0
 20 42  1  0
 21 43  1  0
 21 44  1  0
 22 45  1  0
 22 46  1  0
 24 47  1  0
 25 48  1  0
 27 49  1  0
M  ISO  8  29  14  30  14  31  14  32  14  33  14  34  14  35  14  36  14
M  ISO  8  37  14  38  13  39  13  40  13  41  13  42   5  43  13  44  13
M  ISO  5  45  13  46  13  47  14  48  14  49  14
M  END
>  <minimizedAffinity>  (1) 
-7.04178476

>  <minimizedRMSD>  (1) 
1.7470957

$$$$
