
     RDKit          3D

 41 45  0  0  0  0  0  0  0  0999 V2000
   39.7330   32.4380   40.9380 C   0  0  0  0  0  0  0  0  0  0  0  0
   40.8510   31.8780   41.5970 C   0  0  0  0  0  0  0  0  0  0  0  0
   40.8720   30.5920   42.1130 C   0  0  0  0  0  0  0  0  0  0  0  0
   39.7350   29.8080   41.9780 C   0  0  0  0  0  0  0  0  0  0  0  0
   38.6340   30.3050   41.3510 C   0  0  0  0  0  0  0  0  0  0  0  0
   37.5530   29.5020   41.2390 C   0  0  0  0  0  0  0  0  0  0  0  0
   36.3780   29.9610   40.5860 C   0  0  0  0  0  0  0  0  0  0  0  0
   36.4380   31.2700   40.0900 C   0  0  0  0  0  0  0  0  0  0  0  0
   37.5660   32.0250   40.2410 C   0  0  0  0  0  0  0  0  0  0  0  0
   38.6920   31.5760   40.8700 C   0  0  0  0  0  0  0  0  0  0  0  0
   37.3520   28.1490   41.7040 C   0  0  0  0  0  0  0  0  0  0  0  0
   36.7520   27.7160   42.8670 C   0  0  0  0  0  0  0  0  0  0  0  0
   36.5670   26.4040   43.2250 C   0  0  0  0  0  0  0  0  0  0  0  0
   36.9960   25.3970   42.3970 C   0  0  0  0  0  0  0  0  0  0  0  0
   37.5940   25.8410   41.2390 C   0  0  0  0  0  0  0  0  0  0  0  0
   37.7640   27.1400   40.9100 N   0  0  0  0  0  0  0  0  0  0  0  0
   38.0800   24.8820   40.3000 N   0  0  0  0  0  0  0  0  0  0  0  0
   38.7390   23.7070   40.4150 C   0  0  0  0  0  0  0  0  0  0  0  0
   38.9570   23.2030   39.1860 N   0  0  0  0  0  0  0  0  0  0  0  0
   38.4320   24.0640   38.2900 C   0  0  0  0  0  0  0  0  0  0  0  0
   37.8990   25.0880   39.0010 N   0  0  0  0  0  0  0  0  0  0  0  0
   39.9020   33.7780   40.4880 C   0  0  0  0  0  0  0  0  0  0  0  0
   39.0900   34.9150   40.6940 C   0  0  0  0  0  0  0  0  0  0  0  0
   39.4330   36.1690   40.1890 C   0  0  0  0  0  0  0  0  0  0  0  0
   40.5960   36.2390   39.4810 N   0  0  0  0  0  0  0  0  0  0  0  0
   41.3620   35.1850   39.2810 C   0  0  0  0  0  0  0  0  0  0  0  0
   41.0240   33.9890   39.7700 N   0  0  0  0  0  0  0  0  0  0  0  0
   41.7538   32.4968   41.7063 H   0  0  0  0  0  0  0  0  0  0  0  0
   41.7684   30.2021   42.6174 H   0  0  0  0  0  0  0  0  0  0  0  0
   39.7236   28.7835   42.3783 H   0  0  0  0  0  0  0  0  0  0  0  0
   35.4823   29.3318   40.4772 H   0  0  0  0  0  0  0  0  0  0  0  0
   35.5654   31.6950   39.5724 H   0  0  0  0  0  0  0  0  0  0  0  0
   37.5677   33.0474   39.8351 H   0  0  0  0  0  0  0  0  0  0  0  0
   36.3918   28.4854   43.5658 H   0  0  0  0  0  0  0  0  0  0  0  0
   36.0740   26.1591   44.1773 H   0  0  0  0  0  0  0  0  0  0  0  0
   36.8731   24.3306   42.6371 H   0  0  0  0  0  0  0  0  0  0  0  0
   39.0475   23.2382   41.3611 H   0  0  0  0  0  0  0  0  0  0  0  0
   38.4356   23.9562   37.1953 H   0  0  0  0  0  0  0  0  0  0  0  0
   38.1590   34.8083   41.2701 H   0  0  0  0  0  0  0  0  0  0  0  0
   38.7997   37.0533   40.3530 H   0  0  0  0  0  0  0  0  0  0  0  0
   42.2921   35.2920   38.7036 H   0  0  0  0  0  0  0  0  0  0  0  0
  1  2  2  0
  2  3  1  0
  4  3  2  0
  5  4  1  0
  6  5  2  0
  6 11  1  0
  7  6  1  0
  8  9  1  0
  8  7  2  0
  9 10  2  0
 10  1  1  0
 10  5  1  0
 11 12  2  0
 12 13  1  0
 14 13  2  0
 15 14  1  0
 16 15  2  0
 16 11  1  0
 17 18  1  0
 17 15  1  0
 19 18  2  0
 20 21  2  0
 20 19  1  0
 21 17  1  0
 22 23  2  0
 22  1  1  0
 24 23  1  0
 25 24  2  0
 26 25  1  0
 26 27  2  0
 27 22  1  0
  2 28  1  0
  3 29  1  0
  4 30  1  0
  7 31  1  0
  8 32  1  0
  9 33  1  0
 12 34  1  0
 13 35  1  0
 14 36  1  0
 18 37  1  0
 20 38  1  0
 23 39  1  0
 24 40  1  0
 26 41  1  0
M  ISO  8  28  14  29  14  30  14  31  14  32  14  33  14  34  14  35  14
M  ISO  6  36  14  37  14  38  14  39  14  40  14  41  14
M  END
>  <minimizedAffinity>  (1) 
-6.85351706

>  <minimizedRMSD>  (1) 
1.39621913

$$$$
