
     RDKit          3D

 31 33  0  0  0  0  0  0  0  0999 V2000
   37.4810   29.1070   40.7240 C   0  0  0  0  0  0  0  0  0  0  0  0
   38.2310   28.6870   41.8740 C   0  0  0  0  0  0  0  0  0  0  0  0
   38.9600   29.6950   42.4870 C   0  0  0  0  0  0  0  0  0  0  0  0
   38.9460   30.9650   42.0180 N   0  0  0  0  0  0  0  0  0  0  0  0
   38.2190   31.3110   40.9270 C   0  0  0  0  0  0  0  0  0  0  0  0
   37.5090   30.3790   40.3120 N   0  0  0  0  0  0  0  0  0  0  0  0
   38.1780   27.3270   42.2860 N   0  0  0  0  0  0  0  0  0  0  0  0
   37.0140   26.6960   42.7870 C   0  0  0  0  0  0  0  0  0  0  0  0
   36.2680   27.4330   43.5790 N   0  0  0  0  0  0  0  0  0  0  0  0
   36.8280   25.3380   42.3500 N   0  0  0  0  0  0  0  0  0  0  0  0
   35.4150   27.0500   44.0040 H   0  0  0  0  0  0  0  0  0  0  0  0
   38.3430   32.7300   40.5880 C   0  0  0  0  0  0  0  0  0  0  0  0
   37.4920   33.4730   39.7640 C   0  0  0  0  0  0  0  0  0  0  0  0
   37.9650   34.7800   39.7050 C   0  0  0  0  0  0  0  0  0  0  0  0
   39.0930   34.7360   40.5160 C   0  0  0  0  0  0  0  0  0  0  0  0
   39.2730   33.5570   40.9970 O   0  0  0  0  0  0  0  0  0  0  0  0
   39.9510   35.9250   40.7660 C   0  0  0  0  0  0  0  0  0  0  0  0
   39.4740   37.1710   40.0290 C   0  0  0  0  0  0  0  0  0  0  0  0
   40.7740   36.5400   39.7110 C   0  0  0  0  0  0  0  0  0  0  0  0
   36.8748   28.3721   40.1740 H   0  0  0  0  0  0  0  0  0  0  0  0
   39.5638   29.4571   43.3752 H   0  0  0  0  0  0  0  0  0  0  0  0
   39.0394   26.7667   42.2156 H   0  0  0  0  0  0  0  0  0  0  0  0
   36.0067   24.8030   42.6666 H   0  0  0  0  0  0  0  0  0  0  0  0
   37.5161   24.9007   41.7206 H   0  0  0  0  0  0  0  0  0  0  0  0
   36.5990   33.0888   39.2492 H   0  0  0  0  0  0  0  0  0  0  0  0
   37.5493   35.6361   39.1533 H   0  0  0  0  0  0  0  0  0  0  0  0
   40.1981   35.5997   41.7873 H   0  0  0  0  0  0  0  0  0  0  0  0
   38.6385   37.1069   39.3164 H   0  0  0  0  0  0  0  0  0  0  0  0
   39.1402   38.1773   40.3220 H   0  0  0  0  0  0  0  0  0  0  0  0
   40.9055   36.0194   38.7509 H   0  0  0  0  0  0  0  0  0  0  0  0
   41.8106   36.9053   39.6649 H   0  0  0  0  0  0  0  0  0  0  0  0
  1  2  2  0
  2  7  1  0
  2  3  1  0
  4  3  2  0
  5  4  1  0
  6  1  1  0
  6  5  2  0
  7  8  1  0
  8  9  2  0
  9 11  1  0
 10  8  1  0
 12  5  1  0
 12 16  1  0
 13 12  2  0
 14 13  1  0
 14 15  2  0
 15 17  1  0
 15 16  1  0
 18 17  1  0
 19 18  1  0
 19 17  1  0
  1 20  1  0
  3 21  1  0
  7 22  1  0
 10 23  1  0
 10 24  1  0
 13 25  1  0
 14 26  1  0
 17 27  1  0
 18 28  1  0
 18 29  1  0
 19 30  1  0
 19 31  1  0
M  ISO  8  20  14  21  14  25  14  26  14  27  13  28  13  29  13  30  13
M  ISO  1  31  13
M  END
>  <minimizedAffinity>  (1) 
-5.23359823

>  <minimizedRMSD>  (1) 
1.6368593

$$$$
