
     RDKit          3D

 38 41  0  0  0  0  0  0  0  0999 V2000
   39.5320   31.8570   41.0000 C   0  0  0  0  0  0  0  0  0  0  0  0
   40.4670   31.4380   41.9740 C   0  0  0  0  0  0  0  0  0  0  0  0
   40.5040   30.1580   42.5060 C   0  0  0  0  0  0  0  0  0  0  0  0
   39.5700   29.2320   42.0570 C   0  0  0  0  0  0  0  0  0  0  0  0
   38.6530   29.5910   41.1220 C   0  0  0  0  0  0  0  0  0  0  0  0
   37.7660   28.6510   40.7120 C   0  0  0  0  0  0  0  0  0  0  0  0
   36.7870   28.9610   39.7350 C   0  0  0  0  0  0  0  0  0  0  0  0
   36.8150   30.2780   39.2430 C   0  0  0  0  0  0  0  0  0  0  0  0
   37.7400   31.1680   39.7050 C   0  0  0  0  0  0  0  0  0  0  0  0
   38.6870   30.8640   40.6540 C   0  0  0  0  0  0  0  0  0  0  0  0
   39.6490   33.2120   40.5850 C   0  0  0  0  0  0  0  0  0  0  0  0
   38.7190   34.2750   40.6720 C   0  0  0  0  0  0  0  0  0  0  0  0
   39.0180   35.5560   40.2260 C   0  0  0  0  0  0  0  0  0  0  0  0
   40.2630   35.7390   39.6970 N   0  0  0  0  0  0  0  0  0  0  0  0
   41.1420   34.7610   39.6080 C   0  0  0  0  0  0  0  0  0  0  0  0
   40.8430   33.5330   40.0390 N   0  0  0  0  0  0  0  0  0  0  0  0
   37.6180   27.2790   41.1320 C   0  0  0  0  0  0  0  0  0  0  0  0
   36.9260   26.7720   42.2110 C   0  0  0  0  0  0  0  0  0  0  0  0
   36.8040   25.4400   42.5220 C   0  0  0  0  0  0  0  0  0  0  0  0
   37.3910   24.5010   41.7430 C   0  0  0  0  0  0  0  0  0  0  0  0
   38.0810   25.0050   40.6690 C   0  0  0  0  0  0  0  0  0  0  0  0
   38.1940   26.3140   40.3730 N   0  0  0  0  0  0  0  0  0  0  0  0
   38.7760   24.0660   39.7280 C   0  0  0  0  0  0  0  0  0  0  0  0
   41.2076   32.1692   42.3302 H   0  0  0  0  0  0  0  0  0  0  0  0
   41.2528   29.8828   43.2634 H   0  0  0  0  0  0  0  0  0  0  0  0
   39.5736   28.2081   42.4591 H   0  0  0  0  0  0  0  0  0  0  0  0
   36.0535   28.2199   39.3846 H   0  0  0  0  0  0  0  0  0  0  0  0
   36.0867   30.5925   38.4810 H   0  0  0  0  0  0  0  0  0  0  0  0
   37.7273   32.1883   39.2942 H   0  0  0  0  0  0  0  0  0  0  0  0
   37.7275   34.0806   41.1068 H   0  0  0  0  0  0  0  0  0  0  0  0
   38.2909   36.3785   40.2953 H   0  0  0  0  0  0  0  0  0  0  0  0
   42.1332   34.9586   39.1738 H   0  0  0  0  0  0  0  0  0  0  0  0
   36.4309   27.4935   42.8776 H   0  0  0  0  0  0  0  0  0  0  0  0
   36.2271   25.1347   43.4075 H   0  0  0  0  0  0  0  0  0  0  0  0
   37.3207   23.4236   41.9534 H   0  0  0  0  0  0  0  0  0  0  0  0
   39.3329   23.3136   40.3057 H   0  0  0  0  0  0  0  0  0  0  0  0
   38.0304   23.5636   39.0942 H   0  0  0  0  0  0  0  0  0  0  0  0
   39.4743   24.6323   39.0942 H   0  0  0  0  0  0  0  0  0  0  0  0
  1  2  2  0
  2  3  1  0
  4  3  2  0
  5  4  1  0
  6  5  2  0
  6 17  1  0
  7  6  1  0
  8  9  1  0
  8  7  2  0
  9 10  2  0
 10  1  1  0
 10  5  1  0
 11 12  2  0
 11  1  1  0
 13 12  1  0
 14 13  2  0
 15 14  1  0
 15 16  2  0
 16 11  1  0
 17 18  2  0
 18 19  1  0
 20 19  2  0
 21 20  1  0
 22 21  2  0
 22 17  1  0
 23 21  1  0
  2 24  1  0
  3 25  1  0
  4 26  1  0
  7 27  1  0
  8 28  1  0
  9 29  1  0
 12 30  1  0
 13 31  1  0
 15 32  1  0
 18 33  1  0
 19 34  1  0
 20 35  1  0
 23 36  1  0
 23 37  1  0
 23 38  1  0
M  ISO  8  24  14  25  14  26  14  27  14  28  14  29  14  30  14  31  14
M  ISO  7  32  14  33  14  34  14  35  14  36   8  37   8  38   8
M  END
>  <minimizedAffinity>  (1) 
-6.00701284

>  <minimizedRMSD>  (1) 
0.379349083

$$$$
