
     RDKit          3D

 36 39  0  0  0  0  0  0  0  0999 V2000
   39.5090   31.8500   41.0150 C   0  0  0  0  0  0  0  0  0  0  0  0
   40.4340   31.4360   41.9910 C   0  0  0  0  0  0  0  0  0  0  0  0
   40.4670   30.1570   42.5300 C   0  0  0  0  0  0  0  0  0  0  0  0
   39.5330   29.2300   42.0810 C   0  0  0  0  0  0  0  0  0  0  0  0
   38.6200   29.5850   41.1390 C   0  0  0  0  0  0  0  0  0  0  0  0
   37.7340   28.6490   40.7300 C   0  0  0  0  0  0  0  0  0  0  0  0
   36.7590   28.9620   39.7440 C   0  0  0  0  0  0  0  0  0  0  0  0
   36.7930   30.2750   39.2490 C   0  0  0  0  0  0  0  0  0  0  0  0
   37.7210   31.1620   39.7150 C   0  0  0  0  0  0  0  0  0  0  0  0
   38.6570   30.8540   40.6640 C   0  0  0  0  0  0  0  0  0  0  0  0
   39.6310   33.2050   40.5930 C   0  0  0  0  0  0  0  0  0  0  0  0
   38.7100   34.2670   40.6700 C   0  0  0  0  0  0  0  0  0  0  0  0
   39.0200   35.5520   40.2160 C   0  0  0  0  0  0  0  0  0  0  0  0
   40.2680   35.7220   39.6930 N   0  0  0  0  0  0  0  0  0  0  0  0
   41.1410   34.7380   39.6140 C   0  0  0  0  0  0  0  0  0  0  0  0
   40.8290   33.5180   40.0510 N   0  0  0  0  0  0  0  0  0  0  0  0
   37.5800   27.2780   41.1470 C   0  0  0  0  0  0  0  0  0  0  0  0
   36.8940   26.7870   42.2370 C   0  0  0  0  0  0  0  0  0  0  0  0
   36.7650   25.4510   42.5580 C   0  0  0  0  0  0  0  0  0  0  0  0
   37.3440   24.4920   41.7640 C   0  0  0  0  0  0  0  0  0  0  0  0
   38.0190   24.9990   40.6920 C   0  0  0  0  0  0  0  0  0  0  0  0
   38.1400   26.3020   40.3870 N   0  0  0  0  0  0  0  0  0  0  0  0
   38.8270   23.8490   39.5660 S   0  0  0  0  0  0  0  0  0  0  0  0
   41.1737   32.1679   42.3476 H   0  0  0  0  0  0  0  0  0  0  0  0
   41.2121   29.8843   43.2919 H   0  0  0  0  0  0  0  0  0  0  0  0
   39.5331   28.2083   42.4886 H   0  0  0  0  0  0  0  0  0  0  0  0
   36.0249   28.2225   39.3915 H   0  0  0  0  0  0  0  0  0  0  0  0
   36.0695   30.5907   38.4829 H   0  0  0  0  0  0  0  0  0  0  0  0
   37.7155   32.1823   39.3038 H   0  0  0  0  0  0  0  0  0  0  0  0
   37.7154   34.0796   41.1009 H   0  0  0  0  0  0  0  0  0  0  0  0
   38.2980   36.3796   40.2771 H   0  0  0  0  0  0  0  0  0  0  0  0
   42.1359   34.9251   39.1837 H   0  0  0  0  0  0  0  0  0  0  0  0
   36.4115   27.5173   42.9033 H   0  0  0  0  0  0  0  0  0  0  0  0
   36.1971   25.1537   43.4519 H   0  0  0  0  0  0  0  0  0  0  0  0
   37.2705   23.4145   41.9728 H   0  0  0  0  0  0  0  0  0  0  0  0
   39.4962   22.8966   40.2885 H   0  0  0  0  0  0  0  0  0  0  0  0
  1  2  2  0
  2  3  1  0
  4  3  2  0
  5  4  1  0
  6  5  2  0
  6 17  1  0
  7  6  1  0
  8  9  1  0
  8  7  2  0
  9 10  2  0
 10  1  1  0
 10  5  1  0
 11 12  2  0
 11  1  1  0
 13 12  1  0
 14 13  2  0
 15 14  1  0
 15 16  2  0
 16 11  1  0
 17 18  2  0
 18 19  1  0
 20 19  2  0
 21 20  1  0
 22 21  2  0
 22 17  1  0
 23 21  1  0
  2 24  1  0
  3 25  1  0
  4 26  1  0
  7 27  1  0
  8 28  1  0
  9 29  1  0
 12 30  1  0
 13 31  1  0
 15 32  1  0
 18 33  1  0
 19 34  1  0
 20 35  1  0
 23 36  1  0
M  ISO  8  24  14  25  14  26  14  27  14  28  14  29  14  30  14  31  14
M  ISO  5  32  14  33  14  34  14  35  14  36  11
M  END
>  <minimizedAffinity>  (1) 
-5.99222183

>  <minimizedRMSD>  (1) 
0.408234626

$$$$
