
     RDKit          3D

 37 40  0  0  0  0  0  0  0  0999 V2000
   39.5800   31.8000   41.0060 C   0  0  0  0  0  0  0  0  0  0  0  0
   40.4870   31.4060   42.0160 C   0  0  0  0  0  0  0  0  0  0  0  0
   40.5330   30.1290   42.5500 C   0  0  0  0  0  0  0  0  0  0  0  0
   39.6380   29.1810   42.0670 C   0  0  0  0  0  0  0  0  0  0  0  0
   38.7470   29.5150   41.0950 C   0  0  0  0  0  0  0  0  0  0  0  0
   37.9010   28.5570   40.6570 C   0  0  0  0  0  0  0  0  0  0  0  0
   36.9510   28.8440   39.6400 C   0  0  0  0  0  0  0  0  0  0  0  0
   36.9680   30.1600   39.1490 C   0  0  0  0  0  0  0  0  0  0  0  0
   37.8540   31.0720   39.6450 C   0  0  0  0  0  0  0  0  0  0  0  0
   38.7650   30.7900   40.6230 C   0  0  0  0  0  0  0  0  0  0  0  0
   37.7670   27.1820   41.0700 C   0  0  0  0  0  0  0  0  0  0  0  0
   37.0220   26.6680   42.1130 C   0  0  0  0  0  0  0  0  0  0  0  0
   36.9140   25.3350   42.4350 C   0  0  0  0  0  0  0  0  0  0  0  0
   37.5790   24.3930   41.6890 C   0  0  0  0  0  0  0  0  0  0  0  0
   38.3100   24.9170   40.6620 C   0  0  0  0  0  0  0  0  0  0  0  0
   38.4080   26.2250   40.3600 N   0  0  0  0  0  0  0  0  0  0  0  0
   39.0540   24.0340   39.8090 N   0  0  0  0  0  0  0  0  0  0  0  0
   39.6790   33.1610   40.5950 C   0  0  0  0  0  0  0  0  0  0  0  0
   38.7400   34.2130   40.6900 C   0  0  0  0  0  0  0  0  0  0  0  0
   39.0270   35.5010   40.2470 C   0  0  0  0  0  0  0  0  0  0  0  0
   40.2570   35.6970   39.7170 N   0  0  0  0  0  0  0  0  0  0  0  0
   41.1510   34.7270   39.6190 C   0  0  0  0  0  0  0  0  0  0  0  0
   40.8680   33.4920   40.0470 N   0  0  0  0  0  0  0  0  0  0  0  0
   41.1955   32.1552   42.3991 H   0  0  0  0  0  0  0  0  0  0  0  0
   41.2586   29.8715   43.3356 H   0  0  0  0  0  0  0  0  0  0  0  0
   39.6505   28.1583   42.4719 H   0  0  0  0  0  0  0  0  0  0  0  0
   36.2490   28.0860   39.2623 H   0  0  0  0  0  0  0  0  0  0  0  0
   36.2624   30.4575   38.3593 H   0  0  0  0  0  0  0  0  0  0  0  0
   37.8333   32.0921   39.2338 H   0  0  0  0  0  0  0  0  0  0  0  0
   36.4689   27.3842   42.7384 H   0  0  0  0  0  0  0  0  0  0  0  0
   36.2953   25.0237   43.2896 H   0  0  0  0  0  0  0  0  0  0  0  0
   37.5273   23.3146   41.8998 H   0  0  0  0  0  0  0  0  0  0  0  0
   39.6095   24.4167   39.0306 H   0  0  0  0  0  0  0  0  0  0  0  0
   39.0323   23.0178   39.9753 H   0  0  0  0  0  0  0  0  0  0  0  0
   37.7519   34.0076   41.1275 H   0  0  0  0  0  0  0  0  0  0  0  0
   38.2929   36.3166   40.3236 H   0  0  0  0  0  0  0  0  0  0  0  0
   42.1376   34.9384   39.1809 H   0  0  0  0  0  0  0  0  0  0  0  0
  1  2  2  0
  2  3  1  0
  4  3  2  0
  5  4  1  0
  6 11  1  0
  6  5  2  0
  7  6  1  0
  8  7  2  0
  8  9  1  0
  9 10  2  0
 10  1  1  0
 10  5  1  0
 11 12  2  0
 12 13  1  0
 14 13  2  0
 15 14  1  0
 16 15  2  0
 16 11  1  0
 17 15  1  0
 18 19  2  0
 18  1  1  0
 20 19  1  0
 21 20  2  0
 22 21  1  0
 22 23  2  0
 23 18  1  0
  2 24  1  0
  3 25  1  0
  4 26  1  0
  7 27  1  0
  8 28  1  0
  9 29  1  0
 12 30  1  0
 13 31  1  0
 14 32  1  0
 17 33  1  0
 17 34  1  0
 19 35  1  0
 20 36  1  0
 22 37  1  0
M  ISO  8  24  14  25  14  26  14  27  14  28  14  29  14  30  14  31  14
M  ISO  4  32  14  35  14  36  14  37  14
M  END
>  <minimizedAffinity>  (1) 
-5.947896

>  <minimizedRMSD>  (1) 
0.226463154

$$$$
