
     RDKit          3D

 27 29  0  0  0  0  0  0  0  0999 V2000
   39.2850   27.2980   42.8060 C   0  0  0  0  0  0  0  0  0  0  0  0
   38.2970   27.3560   43.7880 C   0  0  0  0  0  0  0  0  0  0  0  0
   37.4910   28.4750   43.8130 C   0  0  0  0  0  0  0  0  0  0  0  0
   37.7390   29.4110   42.8800 N   0  0  0  0  0  0  0  0  0  0  0  0
   38.6740   29.3820   41.9330 C   0  0  0  0  0  0  0  0  0  0  0  0
   39.4260   28.2990   41.9360 N   0  0  0  0  0  0  0  0  0  0  0  0
   38.6510   30.5710   41.0960 C   0  0  0  0  0  0  0  0  0  0  0  0
   39.1560   31.7770   41.5230 C   0  0  0  0  0  0  0  0  0  0  0  0
   39.1530   32.9230   40.7600 C   0  0  0  0  0  0  0  0  0  0  0  0
   38.6250   32.9140   39.4890 C   0  0  0  0  0  0  0  0  0  0  0  0
   38.1060   31.7290   39.0140 C   0  0  0  0  0  0  0  0  0  0  0  0
   37.5830   31.7430   37.7390 C   0  0  0  0  0  0  0  0  0  0  0  0
   37.0470   30.5920   37.2020 C   0  0  0  0  0  0  0  0  0  0  0  0
   37.0620   29.4410   37.9950 C   0  0  0  0  0  0  0  0  0  0  0  0
   37.6010   29.5010   39.2580 C   0  0  0  0  0  0  0  0  0  0  0  0
   38.1390   30.6190   39.8240 C   0  0  0  0  0  0  0  0  0  0  0  0
   36.4890   28.5860   44.7720 O   0  0  0  0  0  0  0  0  0  0  0  0
   39.9503   26.4239   42.7486 H   0  0  0  0  0  0  0  0  0  0  0  0
   38.1654   26.5408   44.5148 H   0  0  0  0  0  0  0  0  0  0  0  0
   39.5876   31.8289   42.5334 H   0  0  0  0  0  0  0  0  0  0  0  0
   39.5756   33.8525   41.1691 H   0  0  0  0  0  0  0  0  0  0  0  0
   38.6175   33.8243   38.8715 H   0  0  0  0  0  0  0  0  0  0  0  0
   37.5932   32.6721   37.1502 H   0  0  0  0  0  0  0  0  0  0  0  0
   36.6232   30.5798   36.1870 H   0  0  0  0  0  0  0  0  0  0  0  0
   36.6468   28.4970   37.6123 H   0  0  0  0  0  0  0  0  0  0  0  0
   37.5982   28.5783   39.8569 H   0  0  0  0  0  0  0  0  0  0  0  0
   35.9094   29.3883   44.7917 H   0  0  0  0  0  0  0  0  0  0  0  0
  1  2  2  0
  2  3  1  0
  3 17  1  0
  4  3  2  0
  5  6  2  0
  5  4  1  0
  6  1  1  0
  7  8  2  0
  7  5  1  0
  9  8  1  0
 10  9  2  0
 11 10  1  0
 11 16  2  0
 12 11  1  0
 13 12  2  0
 13 14  1  0
 14 15  2  0
 15 16  1  0
 16  7  1  0
  1 18  1  0
  2 19  1  0
  8 20  1  0
  9 21  1  0
 10 22  1  0
 12 23  1  0
 13 24  1  0
 14 25  1  0
 15 26  1  0
 17 27  1  0
M  ISO  8  18  14  19  14  20  14  21  14  22  14  23  14  24  14  25  14
M  ISO  2  26  14  27   3
M  END
>  <minimizedAffinity>  (1) 
-5.29235315

>  <minimizedRMSD>  (1) 
2.96732163

$$$$
