
     RDKit          3D

 24 26  0  0  0  0  0  0  0  0999 V2000
   37.2990   28.4400   43.7700 C   0  0  0  0  0  0  0  0  0  0  0  0
   36.9840   27.1680   43.2570 C   0  0  0  0  0  0  0  0  0  0  0  0
   37.3480   26.8790   41.9530 C   0  0  0  0  0  0  0  0  0  0  0  0
   37.9880   27.8370   41.2310 N   0  0  0  0  0  0  0  0  0  0  0  0
   38.2800   29.0550   41.7500 C   0  0  0  0  0  0  0  0  0  0  0  0
   37.9320   29.3390   43.0060 N   0  0  0  0  0  0  0  0  0  0  0  0
   38.9470   29.8510   40.7830 N   0  0  0  0  0  0  0  0  0  0  0  0
   40.2180   30.3320   40.8350 C   0  0  0  0  0  0  0  0  0  0  0  0
   40.4580   31.0490   39.7010 N   0  0  0  0  0  0  0  0  0  0  0  0
   39.3580   31.0340   38.9250 C   0  0  0  0  0  0  0  0  0  0  0  0
   38.9420   31.5330   37.7080 C   0  0  0  0  0  0  0  0  0  0  0  0
   37.7100   31.3130   37.2100 N   0  0  0  0  0  0  0  0  0  0  0  0
   36.8260   30.5770   37.9090 C   0  0  0  0  0  0  0  0  0  0  0  0
   37.2170   30.0810   39.1010 N   0  0  0  0  0  0  0  0  0  0  0  0
   38.4440   30.2910   39.6130 C   0  0  0  0  0  0  0  0  0  0  0  0
   39.9000   32.3180   36.9760 N   0  0  0  0  0  0  0  0  0  0  0  0
   37.0280   25.6270   41.4760 O   0  0  0  0  0  0  0  0  0  0  0  0
   37.0239   28.6969   44.8036 H   0  0  0  0  0  0  0  0  0  0  0  0
   36.4623   26.4231   43.8758 H   0  0  0  0  0  0  0  0  0  0  0  0
   40.9328   30.1695   41.6551 H   0  0  0  0  0  0  0  0  0  0  0  0
   35.8150   30.3857   37.5199 H   0  0  0  0  0  0  0  0  0  0  0  0
   39.6470   32.7172   36.0609 H   0  0  0  0  0  0  0  0  0  0  0  0
   40.8389   32.4808   37.3671 H   0  0  0  0  0  0  0  0  0  0  0  0
   37.2679   25.3741   40.5494 H   0  0  0  0  0  0  0  0  0  0  0  0
  2  1  2  0
  3  2  1  0
  4  5  1  0
  4  3  2  0
  5  6  2  0
  6  1  1  0
  7  8  1  0
  7  5  1  0
  9  8  2  0
 10 15  2  0
 10  9  1  0
 11 10  1  0
 12 11  2  0
 12 13  1  0
 13 14  2  0
 14 15  1  0
 15  7  1  0
 16 11  1  0
 17  3  1  0
  1 18  1  0
  2 19  1  0
  8 20  1  0
 13 21  1  0
 16 22  1  0
 16 23  1  0
 17 24  1  0
M  ISO  5  18  14  19  14  20  14  21  14  24   3
M  END
>  <minimizedAffinity>  (1) 
-5.23382282

>  <minimizedRMSD>  (1) 
4.2063303

$$$$
