
     RDKit          3D

 25 27  0  0  0  0  0  0  0  0999 V2000
   40.4720   27.1500   43.8580 C   0  0  0  0  0  0  0  0  0  0  0  0
   40.3830   25.7350   43.8650 C   0  0  0  0  0  0  0  0  0  0  0  0
   39.5060   25.1240   42.9840 C   0  0  0  0  0  0  0  0  0  0  0  0
   38.7600   25.9010   42.1390 N   0  0  0  0  0  0  0  0  0  0  0  0
   38.8720   27.2550   42.1610 C   0  0  0  0  0  0  0  0  0  0  0  0
   39.7120   27.8670   43.0040 N   0  0  0  0  0  0  0  0  0  0  0  0
   38.0730   28.0180   41.2610 N   0  0  0  0  0  0  0  0  0  0  0  0
   38.0650   29.3740   41.3030 C   0  0  0  0  0  0  0  0  0  0  0  0
   37.2220   29.8000   40.3400 N   0  0  0  0  0  0  0  0  0  0  0  0
   36.7110   28.7390   39.7080 C   0  0  0  0  0  0  0  0  0  0  0  0
   35.8260   28.5110   38.6710 C   0  0  0  0  0  0  0  0  0  0  0  0
   35.3070   29.5080   38.1060 O   0  0  0  0  0  0  0  0  0  0  0  0
   35.4870   27.2810   38.2320 N   0  0  0  0  0  0  0  0  0  0  0  0
   36.0600   26.2380   38.8590 C   0  0  0  0  0  0  0  0  0  0  0  0
   35.6990   24.9440   38.3920 N   0  0  0  0  0  0  0  0  0  0  0  0
   36.9350   26.3260   39.8780 N   0  0  0  0  0  0  0  0  0  0  0  0
   37.2470   27.5920   40.2860 C   0  0  0  0  0  0  0  0  0  0  0  0
   39.4410   23.7590   43.0140 O   0  0  0  0  0  0  0  0  0  0  0  0
   41.1592   27.6624   44.5474 H   0  0  0  0  0  0  0  0  0  0  0  0
   40.9964   25.1361   44.5543 H   0  0  0  0  0  0  0  0  0  0  0  0
   38.6394   30.0084   41.9941 H   0  0  0  0  0  0  0  0  0  0  0  0
   34.8230   27.1475   37.4560 H   0  0  0  0  0  0  0  0  0  0  0  0
   36.1047   24.1059   38.8323 H   0  0  0  0  0  0  0  0  0  0  0  0
   35.0319   24.8450   37.6135 H   0  0  0  0  0  0  0  0  0  0  0  0
   38.8282   23.2791   42.4022 H   0  0  0  0  0  0  0  0  0  0  0  0
  1  2  2  0
  3 18  1  0
  3  2  1  0
  4  5  1  0
  4  3  2  0
  5  6  2  0
  6  1  1  0
  7  8  1  0
  7  5  1  0
  9  8  2  0
 10 17  2  0
 10  9  1  0
 11 10  1  0
 12 11  2  0
 13 11  1  0
 13 14  1  0
 14 16  2  0
 15 14  1  0
 16 17  1  0
 17  7  1  0
  1 19  1  0
  2 20  1  0
  8 21  1  0
 13 22  1  0
 15 23  1  0
 15 24  1  0
 18 25  1  0
M  ISO  5  19  14  20  14  21  14  22   9  25   3
M  END
>  <minimizedAffinity>  (1) 
-4.50564194

>  <minimizedRMSD>  (1) 
3.07900071

$$$$
