
     RDKit          3D

 21 22  0  0  0  0  0  0  0  0999 V2000
   40.0630   26.5700   43.9260 C   0  0  0  0  0  0  0  0  0  0  0  0
   39.8910   25.2360   43.5340 C   0  0  0  0  0  0  0  0  0  0  0  0
   38.9220   24.9310   42.5920 C   0  0  0  0  0  0  0  0  0  0  0  0
   38.1800   25.9520   42.0900 N   0  0  0  0  0  0  0  0  0  0  0  0
   38.3560   27.2300   42.4760 C   0  0  0  0  0  0  0  0  0  0  0  0
   39.2870   27.5390   43.3840 N   0  0  0  0  0  0  0  0  0  0  0  0
   37.5110   28.2610   41.8820 C   0  0  0  0  0  0  0  0  0  0  0  0
   37.9130   29.5860   41.9260 C   0  0  0  0  0  0  0  0  0  0  0  0
   37.1020   30.5720   41.3560 C   0  0  0  0  0  0  0  0  0  0  0  0
   35.9070   30.2560   40.7500 C   0  0  0  0  0  0  0  0  0  0  0  0
   35.5320   28.9220   40.7220 C   0  0  0  0  0  0  0  0  0  0  0  0
   36.3240   27.9420   41.2800 C   0  0  0  0  0  0  0  0  0  0  0  0
   38.7950   23.5980   42.2400 O   0  0  0  0  0  0  0  0  0  0  0  0
   40.8273   26.8302   44.6731 H   0  0  0  0  0  0  0  0  0  0  0  0
   40.5165   24.4420   43.9680 H   0  0  0  0  0  0  0  0  0  0  0  0
   38.8638   29.8605   42.4061 H   0  0  0  0  0  0  0  0  0  0  0  0
   37.4257   31.6227   41.3926 H   0  0  0  0  0  0  0  0  0  0  0  0
   35.2718   31.0352   40.3035 H   0  0  0  0  0  0  0  0  0  0  0  0
   34.5822   28.6396   40.2443 H   0  0  0  0  0  0  0  0  0  0  0  0
   35.9986   26.8919   41.2411 H   0  0  0  0  0  0  0  0  0  0  0  0
   38.1180   23.3250   41.5713 H   0  0  0  0  0  0  0  0  0  0  0  0
  2  1  2  0
  3  2  1  0
  4  5  1  0
  4  3  2  0
  5  6  2  0
  6  1  1  0
  7  8  2  0
  7  5  1  0
  9  8  1  0
 10  9  2  0
 11 10  1  0
 11 12  2  0
 12  7  1  0
 13  3  1  0
  1 14  1  0
  2 15  1  0
  8 16  1  0
  9 17  1  0
 10 18  1  0
 11 19  1  0
 12 20  1  0
 13 21  1  0
M  ISO  8  14  14  15  14  16  14  17  14  18  14  19  14  20  14  21   3
M  END
>  <minimizedAffinity>  (1) 
-4.4206562

>  <minimizedRMSD>  (1) 
3.03406405

$$$$
