
     RDKit          3D

 24 25  0  0  0  0  0  0  0  0999 V2000
   38.8410   30.1410   39.9980 C   0  0  0  0  0  0  0  0  0  0  0  0
   37.5520   30.0370   40.5580 C   0  0  0  0  0  0  0  0  0  0  0  0
   36.8410   31.2020   40.8090 C   0  0  0  0  0  0  0  0  0  0  0  0
   37.4250   32.3850   40.5030 N   0  0  0  0  0  0  0  0  0  0  0  0
   38.6540   32.4740   39.9690 C   0  0  0  0  0  0  0  0  0  0  0  0
   39.3570   31.3620   39.7180 N   0  0  0  0  0  0  0  0  0  0  0  0
   39.2540   33.7690   39.6510 C   0  0  0  0  0  0  0  0  0  0  0  0
   38.7760   34.8770   40.5950 C   0  0  0  0  0  0  0  0  0  0  0  0
   39.7570   35.9770   40.1940 C   0  0  0  0  0  0  0  0  0  0  0  0
   41.0770   35.2180   40.2900 C   0  0  0  0  0  0  0  0  0  0  0  0
   40.7490   33.8140   39.8040 C   0  0  0  0  0  0  0  0  0  0  0  0
   35.5900   31.0560   41.3550 O   0  0  0  0  0  0  0  0  0  0  0  0
   39.4264   29.2335   39.7888 H   0  0  0  0  0  0  0  0  0  0  0  0
   37.1186   29.0532   40.7912 H   0  0  0  0  0  0  0  0  0  0  0  0
   38.9496   33.9173   38.6044 H   0  0  0  0  0  0  0  0  0  0  0  0
   37.7325   35.1640   40.3983 H   0  0  0  0  0  0  0  0  0  0  0  0
   38.7704   34.6165   41.6637 H   0  0  0  0  0  0  0  0  0  0  0  0
   39.7243   36.8255   40.8933 H   0  0  0  0  0  0  0  0  0  0  0  0
   39.5597   36.4327   39.2125 H   0  0  0  0  0  0  0  0  0  0  0  0
   41.8397   35.6828   39.6480 H   0  0  0  0  0  0  0  0  0  0  0  0
   41.4864   35.2209   41.3110 H   0  0  0  0  0  0  0  0  0  0  0  0
   41.0808   33.0671   40.5402 H   0  0  0  0  0  0  0  0  0  0  0  0
   41.2588   33.5855   38.8564 H   0  0  0  0  0  0  0  0  0  0  0  0
   35.0404   31.8550   41.5539 H   0  0  0  0  0  0  0  0  0  0  0  0
  1  2  2  0
  2  3  1  0
  3 12  1  0
  4  3  2  0
  5  4  1  0
  6  5  2  0
  6  1  1  0
  7 11  1  0
  7  5  1  0
  7  8  1  0
  9 10  1  0
  9  8  1  0
 11 10  1  0
  1 13  1  0
  2 14  1  0
  7 15  1  0
  8 16  1  0
  8 17  1  0
  9 18  1  0
  9 19  1  0
 10 20  1  0
 10 21  1  0
 11 22  1  0
 11 23  1  0
 12 24  1  0
M  ISO  8  13  14  14  14  15  13  16  13  17  13  18  13  19  13  20  13
M  ISO  4  21  13  22  13  23  13  24   3
M  END
>  <minimizedAffinity>  (1) 
-4.40975142

>  <minimizedRMSD>  (1) 
4.9981122

$$$$
