
     RDKit          3D

 25 26  0  0  0  0  0  0  0  0999 V2000
   40.0930   28.6660   42.3680 C   0  0  0  0  0  0  0  0  0  0  0  0
   38.9540   28.3750   43.1650 C   0  0  0  0  0  0  0  0  0  0  0  0
   37.8320   29.1730   43.0070 C   0  0  0  0  0  0  0  0  0  0  0  0
   37.8640   30.2010   42.0970 N   0  0  0  0  0  0  0  0  0  0  0  0
   38.9600   30.4430   41.3650 C   0  0  0  0  0  0  0  0  0  0  0  0
   40.0560   29.6980   41.4900 N   0  0  0  0  0  0  0  0  0  0  0  0
   38.9250   31.5240   40.4420 N   0  0  0  0  0  0  0  0  0  0  0  0
   39.5820   32.7740   40.6530 C   0  0  0  0  0  0  0  0  0  0  0  0
   38.7030   33.9710   40.4650 C   0  0  0  0  0  0  0  0  0  0  0  0
   37.6600   33.8350   39.5250 N   0  0  0  0  0  0  0  0  0  0  0  0
   37.1590   32.5330   39.2440 C   0  0  0  0  0  0  0  0  0  0  0  0
   38.2050   31.4450   39.1830 C   0  0  0  0  0  0  0  0  0  0  0  0
   36.7450   28.8580   43.7990 O   0  0  0  0  0  0  0  0  0  0  0  0
   41.0030   28.0553   42.4630 H   0  0  0  0  0  0  0  0  0  0  0  0
   38.9621   27.5430   43.8845 H   0  0  0  0  0  0  0  0  0  0  0  0
   39.9702   32.7898   41.6821 H   0  0  0  0  0  0  0  0  0  0  0  0
   40.3765   32.8443   39.8954 H   0  0  0  0  0  0  0  0  0  0  0  0
   38.2491   34.2105   41.4380 H   0  0  0  0  0  0  0  0  0  0  0  0
   39.3589   34.7587   40.0658 H   0  0  0  0  0  0  0  0  0  0  0  0
   36.8679   34.3973   39.8675 H   0  0  0  0  0  0  0  0  0  0  0  0
   36.4370   32.2683   40.0305 H   0  0  0  0  0  0  0  0  0  0  0  0
   36.7122   32.5860   38.2402 H   0  0  0  0  0  0  0  0  0  0  0  0
   37.7282   30.4597   39.0746 H   0  0  0  0  0  0  0  0  0  0  0  0
   38.8766   31.5740   38.3214 H   0  0  0  0  0  0  0  0  0  0  0  0
   35.9133   29.3909   43.7328 H   0  0  0  0  0  0  0  0  0  0  0  0
  1  2  2  0
  3  2  1  0
  3 13  1  0
  4  3  2  0
  5  6  2  0
  5  4  1  0
  6  1  1  0
  7  8  1  0
  7  5  1  0
  9  8  1  0
 10  9  1  0
 11 10  1  0
 12 11  1  0
 12  7  1  0
  1 14  1  0
  2 15  1  0
  8 16  1  0
  8 17  1  0
  9 18  1  0
  9 19  1  0
 10 20  1  0
 11 21  1  0
 11 22  1  0
 12 23  1  0
 12 24  1  0
 13 25  1  0
M  ISO  8  14  14  15  14  16  13  17  13  18  13  19  13  20   5  21  13
M  ISO  4  22  13  23  13  24  13  25   3
M  END
>  <minimizedAffinity>  (1) 
-4.39332867

>  <minimizedRMSD>  (1) 
3.49243879

$$$$
