
     RDKit          3D

 24 25  0  0  0  0  0  0  0  0999 V2000
   38.6000   28.9600   42.1530 C   0  0  0  0  0  0  0  0  0  0  0  0
   37.9680   29.1550   43.3940 C   0  0  0  0  0  0  0  0  0  0  0  0
   37.0940   28.1820   43.8530 C   0  0  0  0  0  0  0  0  0  0  0  0
   36.8840   27.0730   43.0820 N   0  0  0  0  0  0  0  0  0  0  0  0
   37.5010   26.9130   41.9000 C   0  0  0  0  0  0  0  0  0  0  0  0
   38.3470   27.8450   41.4440 N   0  0  0  0  0  0  0  0  0  0  0  0
   37.2560   25.7440   41.1250 N   0  0  0  0  0  0  0  0  0  0  0  0
   37.3350   25.7840   39.6880 C   0  0  0  0  0  0  0  0  0  0  0  0
   36.8320   24.4840   39.1030 C   0  0  0  0  0  0  0  0  0  0  0  0
   37.4370   23.3790   39.6350 O   0  0  0  0  0  0  0  0  0  0  0  0
   37.5390   23.3350   40.9940 C   0  0  0  0  0  0  0  0  0  0  0  0
   36.9220   24.4830   41.7410 C   0  0  0  0  0  0  0  0  0  0  0  0
   36.4920   28.4080   45.0760 O   0  0  0  0  0  0  0  0  0  0  0  0
   39.2981   29.7157   41.7637 H   0  0  0  0  0  0  0  0  0  0  0  0
   38.1630   30.0602   43.9877 H   0  0  0  0  0  0  0  0  0  0  0  0
   36.7186   26.6142   39.3128 H   0  0  0  0  0  0  0  0  0  0  0  0
   38.3834   25.9311   39.3893 H   0  0  0  0  0  0  0  0  0  0  0  0
   37.0171   24.4948   38.0187 H   0  0  0  0  0  0  0  0  0  0  0  0
   35.7604   24.4138   39.3412 H   0  0  0  0  0  0  0  0  0  0  0  0
   37.0525   22.4102   41.3377 H   0  0  0  0  0  0  0  0  0  0  0  0
   38.6161   23.3863   41.2111 H   0  0  0  0  0  0  0  0  0  0  0  0
   37.2941   24.4793   42.7762 H   0  0  0  0  0  0  0  0  0  0  0  0
   35.8286   24.3642   41.7223 H   0  0  0  0  0  0  0  0  0  0  0  0
   35.8597   27.7426   45.4470 H   0  0  0  0  0  0  0  0  0  0  0  0
  1  2  2  0
  2  3  1  0
  3 13  1  0
  4  3  2  0
  5  4  1  0
  6  5  2  0
  6  1  1  0
  7 12  1  0
  7  5  1  0
  8  7  1  0
  9 10  1  0
  9  8  1  0
 10 11  1  0
 11 12  1  0
  1 14  1  0
  2 15  1  0
  8 16  1  0
  8 17  1  0
  9 18  1  0
  9 19  1  0
 11 20  1  0
 11 21  1  0
 12 22  1  0
 12 23  1  0
 13 24  1  0
M  ISO  8  14  14  15  14  16  13  17  13  18  13  19  13  20  13  21  13
M  ISO  3  22  13  23  13  24   3
M  END
>  <minimizedAffinity>  (1) 
-4.25350475

>  <minimizedRMSD>  (1) 
5.01627159

$$$$
