
     RDKit          3D

 18 19  0  0  0  0  0  0  0  0999 V2000
   40.1060   25.6530   43.7310 C   0  0  0  0  0  0  0  0  0  0  0  0
   39.6690   24.4270   43.1990 C   0  0  0  0  0  0  0  0  0  0  0  0
   38.5990   24.4170   42.3120 C   0  0  0  0  0  0  0  0  0  0  0  0
   38.0290   25.6150   42.0020 N   0  0  0  0  0  0  0  0  0  0  0  0
   38.4640   26.7720   42.5230 C   0  0  0  0  0  0  0  0  0  0  0  0
   39.4860   26.8110   43.3770 N   0  0  0  0  0  0  0  0  0  0  0  0
   37.7090   27.9420   42.0590 C   0  0  0  0  0  0  0  0  0  0  0  0
   36.4660   27.8770   41.3910 C   0  0  0  0  0  0  0  0  0  0  0  0
   35.8840   29.0610   41.0190 C   0  0  0  0  0  0  0  0  0  0  0  0
   36.5420   30.2760   41.3140 C   0  0  0  0  0  0  0  0  0  0  0  0
   38.0510   29.7730   42.1540 S   0  0  0  0  0  0  0  0  0  0  0  0
   38.2030   23.2090   41.8150 O   0  0  0  0  0  0  0  0  0  0  0  0
   40.9510   25.6758   44.4349 H   0  0  0  0  0  0  0  0  0  0  0  0
   40.1675   23.4879   43.4812 H   0  0  0  0  0  0  0  0  0  0  0  0
   35.9831   26.9121   41.1773 H   0  0  0  0  0  0  0  0  0  0  0  0
   34.9158   29.0651   40.4968 H   0  0  0  0  0  0  0  0  0  0  0  0
   36.2073   31.2980   41.0825 H   0  0  0  0  0  0  0  0  0  0  0  0
   37.4447   23.1593   41.1804 H   0  0  0  0  0  0  0  0  0  0  0  0
  2  1  2  0
  3  2  1  0
  4  3  2  0
  4  5  1  0
  5  6  2  0
  6  1  1  0
  7 11  1  0
  7  5  1  0
  8  7  2  0
  9 10  2  0
  9  8  1  0
 10 11  1  0
 12  3  1  0
  1 13  1  0
  2 14  1  0
  8 15  1  0
  9 16  1  0
 10 17  1  0
 12 18  1  0
M  ISO  6  13  14  14  14  15  14  16  14  17  14  18   3
M  END
>  <minimizedAffinity>  (1) 
-4.06269073

>  <minimizedRMSD>  (1) 
3.38539171

$$$$
