
     RDKit          3D

 17 18  0  0  0  0  0  0  0  0999 V2000
   40.1270   26.7260   43.8000 C   0  0  0  0  0  0  0  0  0  0  0  0
   39.7760   25.4010   43.4840 C   0  0  0  0  0  0  0  0  0  0  0  0
   38.6620   25.1860   42.6790 C   0  0  0  0  0  0  0  0  0  0  0  0
   37.9600   26.2610   42.2320 N   0  0  0  0  0  0  0  0  0  0  0  0
   38.3230   27.5290   42.5520 C   0  0  0  0  0  0  0  0  0  0  0  0
   39.3920   27.7450   43.3250 N   0  0  0  0  0  0  0  0  0  0  0  0
   37.4550   28.4990   41.9810 N   0  0  0  0  0  0  0  0  0  0  0  0
   36.5430   28.0320   41.0800 C   0  0  0  0  0  0  0  0  0  0  0  0
   35.8000   29.0840   40.6360 N   0  0  0  0  0  0  0  0  0  0  0  0
   36.2690   30.1960   41.2750 C   0  0  0  0  0  0  0  0  0  0  0  0
   37.2790   29.8140   42.0910 N   0  0  0  0  0  0  0  0  0  0  0  0
   38.3520   23.8820   42.3940 O   0  0  0  0  0  0  0  0  0  0  0  0
   41.0022   26.9274   44.4352 H   0  0  0  0  0  0  0  0  0  0  0  0
   40.3680   24.5554   43.8642 H   0  0  0  0  0  0  0  0  0  0  0  0
   36.4273   26.9843   40.7656 H   0  0  0  0  0  0  0  0  0  0  0  0
   35.8922   31.2217   41.1488 H   0  0  0  0  0  0  0  0  0  0  0  0
   37.5692   23.6722   41.8254 H   0  0  0  0  0  0  0  0  0  0  0  0
  2  1  2  0
  3  2  1  0
  4  5  1  0
  4  3  2  0
  5  6  2  0
  6  1  1  0
  7 11  1  0
  7  5  1  0
  8  7  1  0
  9  8  2  0
  9 10  1  0
 10 11  2  0
 12  3  1  0
  1 13  1  0
  2 14  1  0
  8 15  1  0
 10 16  1  0
 12 17  1  0
M  ISO  5  13  14  14  14  15  14  16  14  17   3
M  END
>  <minimizedAffinity>  (1) 
-3.95232153

>  <minimizedRMSD>  (1) 
2.693151

$$$$
