
     RDKit          3D

 14 14  0  0  0  0  0  0  0  0999 V2000
   39.9860   25.8330   43.7480 C   0  0  0  0  0  0  0  0  0  0  0  0
   39.6320   24.6390   43.0960 C   0  0  0  0  0  0  0  0  0  0  0  0
   38.4110   24.5970   42.4100 C   0  0  0  0  0  0  0  0  0  0  0  0
   37.6350   25.7170   42.4150 N   0  0  0  0  0  0  0  0  0  0  0  0
   38.0090   26.8380   43.0480 C   0  0  0  0  0  0  0  0  0  0  0  0
   39.1640   26.9060   43.7080 N   0  0  0  0  0  0  0  0  0  0  0  0
   38.1000   23.4160   41.7880 O   0  0  0  0  0  0  0  0  0  0  0  0
   37.0910   27.9710   42.9790 C   0  0  0  0  0  0  0  0  0  0  0  0
   36.3000   28.1070   42.0340 O   0  0  0  0  0  0  0  0  0  0  0  0
   37.0150   28.9740   43.9320 O   0  0  0  0  0  0  0  0  0  0  0  0
   40.9385   25.8949   44.2947 H   0  0  0  0  0  0  0  0  0  0  0  0
   40.2952   23.7619   43.1236 H   0  0  0  0  0  0  0  0  0  0  0  0
   38.7262   22.6508   41.8371 H   0  0  0  0  0  0  0  0  0  0  0  0
   36.3672   29.7143   43.8209 H   0  0  0  0  0  0  0  0  0  0  0  0
  2  1  2  0
  3  4  2  0
  3  2  1  0
  4  5  1  0
  5  6  2  0
  6  1  1  0
  7  3  1  0
  8  5  1  0
  8 10  1  0
  9  8  2  0
  1 11  1  0
  2 12  1  0
  7 13  1  0
 10 14  1  0
M  ISO  4  11  14  12  14  13   3  14   3
M  END
>  <minimizedAffinity>  (1) 
-3.93756247

>  <minimizedRMSD>  (1) 
3.40759778

$$$$
