
     RDKit          3D

 18 19  0  0  0  0  0  0  0  0999 V2000
   40.0240   26.5720   43.9040 C   0  0  0  0  0  0  0  0  0  0  0  0
   39.8330   25.2410   43.4990 C   0  0  0  0  0  0  0  0  0  0  0  0
   38.8310   24.9310   42.5890 C   0  0  0  0  0  0  0  0  0  0  0  0
   38.0700   25.9640   42.1290 N   0  0  0  0  0  0  0  0  0  0  0  0
   38.2650   27.2310   42.5250 C   0  0  0  0  0  0  0  0  0  0  0  0
   39.2220   27.5440   43.3980 N   0  0  0  0  0  0  0  0  0  0  0  0
   37.4030   28.2780   41.9820 C   0  0  0  0  0  0  0  0  0  0  0  0
   37.5420   29.6450   42.1630 C   0  0  0  0  0  0  0  0  0  0  0  0
   36.5400   30.2370   41.4920 N   0  0  0  0  0  0  0  0  0  0  0  0
   35.7630   29.3000   40.8880 C   0  0  0  0  0  0  0  0  0  0  0  0
   36.3140   28.1240   41.2050 N   0  0  0  0  0  0  0  0  0  0  0  0
   38.6800   23.6220   42.2220 O   0  0  0  0  0  0  0  0  0  0  0  0
   40.8159   26.8249   44.6244 H   0  0  0  0  0  0  0  0  0  0  0  0
   40.4763   24.4450   43.9021 H   0  0  0  0  0  0  0  0  0  0  0  0
   38.3256   30.1504   42.7465 H   0  0  0  0  0  0  0  0  0  0  0  0
   34.8700   29.4726   40.2694 H   0  0  0  0  0  0  0  0  0  0  0  0
   35.9503   27.2122   40.8932 H   0  0  0  0  0  0  0  0  0  0  0  0
   37.9751   23.3674   41.5752 H   0  0  0  0  0  0  0  0  0  0  0  0
  2  1  2  0
  3  2  1  0
  4  5  1  0
  4  3  2  0
  5  6  2  0
  6  1  1  0
  7  8  2  0
  7  5  1  0
  9  8  1  0
 10 11  1  0
 10  9  2  0
 11  7  1  0
 12  3  1  0
  1 13  1  0
  2 14  1  0
  8 15  1  0
 10 16  1  0
 11 17  1  0
 12 18  1  0
M  ISO  6  13  14  14  14  15  14  16  14  17   9  18   3
M  END
>  <minimizedAffinity>  (1) 
-3.88141656

>  <minimizedRMSD>  (1) 
2.91921687

$$$$
