
     RDKit          3D

 17 17  0  0  0  0  0  0  0  0999 V2000
   38.1750   28.9910   43.2860 C   0  0  0  0  0  0  0  0  0  0  0  0
   38.0390   27.5790   43.3170 C   0  0  0  0  0  0  0  0  0  0  0  0
   37.1640   26.9730   42.4190 C   0  0  0  0  0  0  0  0  0  0  0  0
   36.4850   27.7690   41.5580 N   0  0  0  0  0  0  0  0  0  0  0  0
   36.6240   29.1020   41.5420 C   0  0  0  0  0  0  0  0  0  0  0  0
   37.4600   29.7160   42.3970 N   0  0  0  0  0  0  0  0  0  0  0  0
   37.0650   25.6110   42.4830 O   0  0  0  0  0  0  0  0  0  0  0  0
   35.8720   29.9700   40.5920 C   0  0  0  0  0  0  0  0  0  0  0  0
   34.7800   29.2160   39.8650 C   0  0  0  0  0  0  0  0  0  0  0  0
   38.8605   29.4944   43.9836 H   0  0  0  0  0  0  0  0  0  0  0  0
   38.6129   26.9754   44.0356 H   0  0  0  0  0  0  0  0  0  0  0  0
   36.4575   25.1294   41.8673 H   0  0  0  0  0  0  0  0  0  0  0  0
   35.4157   30.7977   41.1548 H   0  0  0  0  0  0  0  0  0  0  0  0
   36.5837   30.3396   39.8391 H   0  0  0  0  0  0  0  0  0  0  0  0
   34.1053   28.7502   40.5984 H   0  0  0  0  0  0  0  0  0  0  0  0
   34.2101   29.9139   39.2341 H   0  0  0  0  0  0  0  0  0  0  0  0
   35.2307   28.4358   39.2341 H   0  0  0  0  0  0  0  0  0  0  0  0
  1  2  2  0
  3  7  1  0
  3  2  1  0
  4  3  2  0
  5  4  1  0
  5  6  2  0
  6  1  1  0
  8  5  1  0
  9  8  1  0
  1 10  1  0
  2 11  1  0
  7 12  1  0
  8 13  1  0
  8 14  1  0
  9 15  1  0
  9 16  1  0
  9 17  1  0
M  ISO  8  10  14  11  14  12   3  13   8  14   8  15   8  16   8  17   8
M  END
>  <minimizedAffinity>  (1) 
-3.23373628

>  <minimizedRMSD>  (1) 
0.487618893

$$$$
