
     RDKit          3D

 36 38  0  0  0  0  0  0  0  0999 V2000
   37.1150   28.2930   41.1320 C   0  0  0  0  0  0  0  0  0  0  0  0
   38.2380   27.5450   40.7000 C   0  0  0  0  0  0  0  0  0  0  0  0
   39.2300   28.3060   40.1170 C   0  0  0  0  0  0  0  0  0  0  0  0
   39.1180   29.6530   39.9810 N   0  0  0  0  0  0  0  0  0  0  0  0
   38.0110   30.3160   40.4180 C   0  0  0  0  0  0  0  0  0  0  0  0
   37.0450   29.6210   40.9790 N   0  0  0  0  0  0  0  0  0  0  0  0
   38.2490   26.1400   40.8920 N   0  0  0  0  0  0  0  0  0  0  0  0
   38.3030   25.5140   42.1560 C   0  0  0  0  0  0  0  0  0  0  0  0
   39.0630   26.1000   43.0720 N   0  0  0  0  0  0  0  0  0  0  0  0
   37.5080   24.3030   42.2670 N   0  0  0  0  0  0  0  0  0  0  0  0
   39.1550   25.6970   44.0110 H   0  0  0  0  0  0  0  0  0  0  0  0
   38.1040   31.7510   40.1730 C   0  0  0  0  0  0  0  0  0  0  0  0
   37.0460   32.6080   39.8430 C   0  0  0  0  0  0  0  0  0  0  0  0
   37.5340   33.9000   39.6890 C   0  0  0  0  0  0  0  0  0  0  0  0
   38.8730   33.7390   39.9380 C   0  0  0  0  0  0  0  0  0  0  0  0
   39.1520   32.5120   40.2060 O   0  0  0  0  0  0  0  0  0  0  0  0
   39.9110   34.7140   39.9320 N   0  0  0  0  0  0  0  0  0  0  0  0
   41.3720   34.5990   39.8800 C   0  0  0  0  0  0  0  0  0  0  0  0
   41.8060   35.4540   41.0560 C   0  0  0  0  0  0  0  0  0  0  0  0
   40.6600   36.4540   41.2270 C   0  0  0  0  0  0  0  0  0  0  0  0
   39.8220   36.1620   39.9760 C   0  0  0  0  0  0  0  0  0  0  0  0
   36.2747   27.7662   41.6078 H   0  0  0  0  0  0  0  0  0  0  0  0
   40.1394   27.8069   39.7511 H   0  0  0  0  0  0  0  0  0  0  0  0
   38.2155   25.5385   40.0566 H   0  0  0  0  0  0  0  0  0  0  0  0
   37.4878   23.7797   43.1539 H   0  0  0  0  0  0  0  0  0  0  0  0
   36.9646   23.9678   41.4588 H   0  0  0  0  0  0  0  0  0  0  0  0
   35.9950   32.3059   39.7245 H   0  0  0  0  0  0  0  0  0  0  0  0
   36.9856   34.8184   39.4325 H   0  0  0  0  0  0  0  0  0  0  0  0
   41.6941   33.5548   40.0063 H   0  0  0  0  0  0  0  0  0  0  0  0
   41.8049   34.9177   38.9203 H   0  0  0  0  0  0  0  0  0  0  0  0
   41.9289   34.8411   41.9611 H   0  0  0  0  0  0  0  0  0  0  0  0
   42.7759   35.9450   40.8883 H   0  0  0  0  0  0  0  0  0  0  0  0
   40.0904   36.2610   42.1480 H   0  0  0  0  0  0  0  0  0  0  0  0
   40.9840   37.5011   41.3195 H   0  0  0  0  0  0  0  0  0  0  0  0
   40.2583   36.6234   39.0778 H   0  0  0  0  0  0  0  0  0  0  0  0
   38.7963   36.5581   40.0079 H   0  0  0  0  0  0  0  0  0  0  0  0
  2  7  1  0
  2  1  2  0
  3  2  1  0
  4  3  2  0
  4  5  1  0
  5  6  2  0
  6  1  1  0
  7  8  1  0
  8 10  1  0
  8  9  2  0
  9 11  1  0
 12 16  1  0
 12  5  1  0
 13 12  2  0
 14 13  1  0
 14 15  2  0
 15 16  1  0
 17 15  1  0
 17 21  1  0
 18 17  1  0
 18 19  1  0
 19 20  1  0
 21 20  1  0
  1 22  1  0
  3 23  1  0
  7 24  1  0
 10 25  1  0
 10 26  1  0
 13 27  1  0
 14 28  1  0
 18 29  1  0
 18 30  1  0
 19 31  1  0
 19 32  1  0
 20 33  1  0
 20 34  1  0
 21 35  1  0
 21 36  1  0
M  ISO  8  22  14  23  14  27  14  28  14  29  13  30  13  31  13  32  13
M  ISO  4  33  13  34  13  35  13  36  13
M  END
>  <minimizedAffinity>  (1) 
-4.98269701

>  <minimizedRMSD>  (1) 
2.74626207

$$$$
