
     RDKit          3D

 28 30  0  0  0  0  0  0  0  0999 V2000
   36.9940   28.6270   42.8320 C   0  0  0  0  0  0  0  0  0  0  0  0
   37.3040   27.4190   42.0420 C   0  0  0  0  0  0  0  0  0  0  0  0
   36.6070   27.1020   40.9310 N   0  0  0  0  0  0  0  0  0  0  0  0
   36.8890   25.9970   40.2060 C   0  0  0  0  0  0  0  0  0  0  0  0
   37.8980   25.1770   40.5990 N   0  0  0  0  0  0  0  0  0  0  0  0
   38.6040   25.4840   41.7110 C   0  0  0  0  0  0  0  0  0  0  0  0
   39.6300   24.6300   42.0900 C   0  0  0  0  0  0  0  0  0  0  0  0
   40.3440   24.9530   43.2270 C   0  0  0  0  0  0  0  0  0  0  0  0
   40.0850   26.0640   43.9830 C   0  0  0  0  0  0  0  0  0  0  0  0
   39.0640   26.9180   43.6110 C   0  0  0  0  0  0  0  0  0  0  0  0
   38.3400   26.5930   42.4590 C   0  0  0  0  0  0  0  0  0  0  0  0
   36.7120   31.5190   40.5850 C   0  0  0  0  0  0  0  0  0  0  0  0
   38.0090   32.0230   40.5650 C   0  0  0  0  0  0  0  0  0  0  0  0
   39.0000   31.3910   41.3130 C   0  0  0  0  0  0  0  0  0  0  0  0
   38.6400   30.2850   42.0430 N   0  0  0  0  0  0  0  0  0  0  0  0
   37.3860   29.8200   42.0450 C   0  0  0  0  0  0  0  0  0  0  0  0
   36.4400   30.4410   41.3190 N   0  0  0  0  0  0  0  0  0  0  0  0
   40.2570   31.9070   41.2730 O   0  0  0  0  0  0  0  0  0  0  0  0
   35.9158   28.6627   43.0469 H   0  0  0  0  0  0  0  0  0  0  0  0
   37.5463   28.6061   43.7831 H   0  0  0  0  0  0  0  0  0  0  0  0
   36.3052   25.7631   39.3035 H   0  0  0  0  0  0  0  0  0  0  0  0
   39.8660   23.7283   41.5058 H   0  0  0  0  0  0  0  0  0  0  0  0
   41.1601   24.2852   43.5401 H   0  0  0  0  0  0  0  0  0  0  0  0
   40.6851   26.2758   44.8802 H   0  0  0  0  0  0  0  0  0  0  0  0
   38.8298   27.8183   44.1980 H   0  0  0  0  0  0  0  0  0  0  0  0
   35.9183   32.0065   39.9998 H   0  0  0  0  0  0  0  0  0  0  0  0
   38.2496   32.9124   39.9640 H   0  0  0  0  0  0  0  0  0  0  0  0
   40.9837   31.4812   41.7933 H   0  0  0  0  0  0  0  0  0  0  0  0
  2 11  1  0
  2  1  1  0
  3  2  2  0
  4  5  2  0
  4  3  1  0
  5  6  1  0
  6  7  1  0
  6 11  2  0
  7  8  2  0
  8  9  1  0
 10  9  2  0
 11 10  1  0
 12 17  2  0
 13 12  1  0
 13 14  2  0
 14 15  1  0
 15 16  2  0
 16  1  1  0
 17 16  1  0
 18 14  1  0
  1 19  1  0
  1 20  1  0
  4 21  1  0
  7 22  1  0
  8 23  1  0
  9 24  1  0
 10 25  1  0
 12 26  1  0
 13 27  1  0
 18 28  1  0
M  ISO  8  19   8  20   8  21  14  22  14  23  14  24  14  25  14  26  14
M  ISO  2  27  14  28   3
M  END
>  <minimizedAffinity>  (1) 
-5.10502672

>  <minimizedRMSD>  (1) 
6.26668167

$$$$
