
     RDKit          3D

 27 29  0  0  0  0  0  0  0  0999 V2000
   36.7220   27.8520   39.8520 C   0  0  0  0  0  0  0  0  0  0  0  0
   37.2580   29.0100   39.1740 N   0  0  0  0  0  0  0  0  0  0  0  0
   36.4580   30.0810   38.8970 C   0  0  0  0  0  0  0  0  0  0  0  0
   37.1500   31.0640   38.2580 N   0  0  0  0  0  0  0  0  0  0  0  0
   38.4130   30.6160   38.1230 C   0  0  0  0  0  0  0  0  0  0  0  0
   39.5990   31.0890   37.5850 C   0  0  0  0  0  0  0  0  0  0  0  0
   40.7340   30.3610   37.6140 N   0  0  0  0  0  0  0  0  0  0  0  0
   40.7200   29.1290   38.1860 C   0  0  0  0  0  0  0  0  0  0  0  0
   39.5770   28.6180   38.7280 N   0  0  0  0  0  0  0  0  0  0  0  0
   38.4440   29.3600   38.6940 C   0  0  0  0  0  0  0  0  0  0  0  0
   39.5570   32.4020   36.9920 N   0  0  0  0  0  0  0  0  0  0  0  0
   38.8130   26.6490   42.5980 C   0  0  0  0  0  0  0  0  0  0  0  0
   38.3260   27.3670   43.7060 C   0  0  0  0  0  0  0  0  0  0  0  0
   37.2840   28.2640   43.5280 C   0  0  0  0  0  0  0  0  0  0  0  0
   36.7800   28.4010   42.2550 N   0  0  0  0  0  0  0  0  0  0  0  0
   37.2610   27.7070   41.2190 C   0  0  0  0  0  0  0  0  0  0  0  0
   38.2640   26.8440   41.3940 N   0  0  0  0  0  0  0  0  0  0  0  0
   36.8210   28.9560   44.6210 O   0  0  0  0  0  0  0  0  0  0  0  0
   36.9780   26.9524   39.2730 H   0  0  0  0  0  0  0  0  0  0  0  0
   35.6324   27.9809   39.9305 H   0  0  0  0  0  0  0  0  0  0  0  0
   35.3909   30.1419   39.1568 H   0  0  0  0  0  0  0  0  0  0  0  0
   41.6448   28.5340   38.2126 H   0  0  0  0  0  0  0  0  0  0  0  0
   38.6760   32.9355   36.9840 H   0  0  0  0  0  0  0  0  0  0  0  0
   40.4080   32.8068   36.5762 H   0  0  0  0  0  0  0  0  0  0  0  0
   39.6388   25.9329   42.7211 H   0  0  0  0  0  0  0  0  0  0  0  0
   38.7673   27.2181   44.7025 H   0  0  0  0  0  0  0  0  0  0  0  0
   36.0778   29.6021   44.5194 H   0  0  0  0  0  0  0  0  0  0  0  0
  1 16  1  0
  2  1  1  0
  3  2  1  0
  4  3  2  0
  5  4  1  0
  5 10  2  0
  6  7  2  0
  6  5  1  0
  7  8  1  0
  8  9  2  0
 10  9  1  0
 10  2  1  0
 11  6  1  0
 12 13  2  0
 14 13  1  0
 14 18  1  0
 15 14  2  0
 16 17  2  0
 16 15  1  0
 17 12  1  0
  1 19  1  0
  1 20  1  0
  3 21  1  0
  8 22  1  0
 11 23  1  0
 11 24  1  0
 12 25  1  0
 13 26  1  0
 18 27  1  0
M  ISO  7  19   8  20   8  21  14  22  14  25  14  26  14  27   3
M  END
>  <minimizedAffinity>  (1) 
-5.04791594

>  <minimizedRMSD>  (1) 
3.19060826

$$$$
