
     RDKit          3D

 27 28  0  0  0  0  0  0  0  0999 V2000
   37.4520   30.3710   41.1850 C   0  0  0  0  0  0  0  0  0  0  0  0
   38.4230   29.7140   41.9910 C   0  0  0  0  0  0  0  0  0  0  0  0
   39.5180   30.4960   42.3080 C   0  0  0  0  0  0  0  0  0  0  0  0
   39.6310   31.7770   41.8760 N   0  0  0  0  0  0  0  0  0  0  0  0
   38.6640   32.3440   41.1070 C   0  0  0  0  0  0  0  0  0  0  0  0
   37.5910   31.6360   40.7720 N   0  0  0  0  0  0  0  0  0  0  0  0
   38.1920   28.3650   42.3820 N   0  0  0  0  0  0  0  0  0  0  0  0
   37.2000   27.9680   43.3000 C   0  0  0  0  0  0  0  0  0  0  0  0
   36.9810   28.7830   44.3210 N   0  0  0  0  0  0  0  0  0  0  0  0
   36.5660   26.7100   42.9710 N   0  0  0  0  0  0  0  0  0  0  0  0
   36.2760   28.5360   45.0280 H   0  0  0  0  0  0  0  0  0  0  0  0
   38.9700   33.7380   40.7400 C   0  0  0  0  0  0  0  0  0  0  0  0
   38.1630   34.6210   40.0190 C   0  0  0  0  0  0  0  0  0  0  0  0
   38.8320   35.8360   39.8950 C   0  0  0  0  0  0  0  0  0  0  0  0
   40.0290   35.6060   40.5660 C   0  0  0  0  0  0  0  0  0  0  0  0
   40.0460   34.4000   41.0210 O   0  0  0  0  0  0  0  0  0  0  0  0
   41.0730   36.6840   40.6780 C   0  0  0  0  0  0  0  0  0  0  0  0
   36.5496   29.8159   40.8891 H   0  0  0  0  0  0  0  0  0  0  0  0
   40.3197   30.0678   42.9276 H   0  0  0  0  0  0  0  0  0  0  0  0
   38.7873   27.6335   41.9679 H   0  0  0  0  0  0  0  0  0  0  0  0
   35.8265   26.3312   43.5798 H   0  0  0  0  0  0  0  0  0  0  0  0
   36.8541   26.1931   42.1280 H   0  0  0  0  0  0  0  0  0  0  0  0
   37.1649   34.3943   39.6161 H   0  0  0  0  0  0  0  0  0  0  0  0
   38.4961   36.7536   39.3899 H   0  0  0  0  0  0  0  0  0  0  0  0
   41.2737   36.8912   41.7395 H   0  0  0  0  0  0  0  0  0  0  0  0
   41.9994   36.3496   40.1882 H   0  0  0  0  0  0  0  0  0  0  0  0
   40.7091   37.5992   40.1882 H   0  0  0  0  0  0  0  0  0  0  0  0
  1  2  2  0
  2  3  1  0
  2  7  1  0
  4  3  2  0
  5  4  1  0
  6  5  2  0
  6  1  1  0
  7  8  1  0
  8  9  2  0
  9 11  1  0
 10  8  1  0
 12 16  1  0
 12  5  1  0
 13 12  2  0
 14 13  1  0
 14 15  2  0
 15 17  1  0
 15 16  1  0
  1 18  1  0
  3 19  1  0
  7 20  1  0
 10 21  1  0
 10 22  1  0
 13 23  1  0
 14 24  1  0
 17 25  1  0
 17 26  1  0
 17 27  1  0
M  ISO  7  18  14  19  14  23  14  24  14  25   8  26   8  27   8
M  END
>  <minimizedAffinity>  (1) 
-4.96382666

>  <minimizedRMSD>  (1) 
0.503832281

$$$$
