
     RDKit          3D

 25 27  0  0  0  0  0  0  0  0999 V2000
   35.4430   28.9160   40.8400 C   0  0  0  0  0  0  0  0  0  0  0  0
   35.8440   28.9600   39.4410 N   0  0  0  0  0  0  0  0  0  0  0  0
   35.7020   28.0130   38.4940 C   0  0  0  0  0  0  0  0  0  0  0  0
   36.2220   28.5010   37.3420 N   0  0  0  0  0  0  0  0  0  0  0  0
   36.6840   29.7500   37.5830 C   0  0  0  0  0  0  0  0  0  0  0  0
   37.2960   30.6460   36.7320 C   0  0  0  0  0  0  0  0  0  0  0  0
   37.6560   31.8340   37.2520 N   0  0  0  0  0  0  0  0  0  0  0  0
   37.4420   32.1610   38.5440 C   0  0  0  0  0  0  0  0  0  0  0  0
   36.8400   31.2600   39.3560 N   0  0  0  0  0  0  0  0  0  0  0  0
   36.4430   30.0470   38.9270 C   0  0  0  0  0  0  0  0  0  0  0  0
   38.2030   29.0620   43.2450 C   0  0  0  0  0  0  0  0  0  0  0  0
   38.6180   27.7330   43.3170 C   0  0  0  0  0  0  0  0  0  0  0  0
   37.9710   26.7580   42.5500 C   0  0  0  0  0  0  0  0  0  0  0  0
   36.9430   27.1840   41.7560 N   0  0  0  0  0  0  0  0  0  0  0  0
   36.5640   28.4700   41.7080 C   0  0  0  0  0  0  0  0  0  0  0  0
   37.1860   29.3850   42.4410 N   0  0  0  0  0  0  0  0  0  0  0  0
   38.4190   25.4770   42.6580 O   0  0  0  0  0  0  0  0  0  0  0  0
   34.6030   28.2144   40.9503 H   0  0  0  0  0  0  0  0  0  0  0  0
   35.1460   29.9292   41.1487 H   0  0  0  0  0  0  0  0  0  0  0  0
   35.2458   27.0215   38.6312 H   0  0  0  0  0  0  0  0  0  0  0  0
   37.4816   30.4008   35.6758 H   0  0  0  0  0  0  0  0  0  0  0  0
   37.7515   33.1431   38.9308 H   0  0  0  0  0  0  0  0  0  0  0  0
   38.7069   29.8355   43.8431 H   0  0  0  0  0  0  0  0  0  0  0  0
   39.4527   27.4514   43.9757 H   0  0  0  0  0  0  0  0  0  0  0  0
   37.9892   24.7563   42.1327 H   0  0  0  0  0  0  0  0  0  0  0  0
  1 15  1  0
  2  1  1  0
  3  2  1  0
  4  5  1  0
  4  3  2  0
  5 10  2  0
  6  7  2  0
  6  5  1  0
  7  8  1  0
  8  9  2  0
 10  9  1  0
 10  2  1  0
 11 12  2  0
 13 17  1  0
 13 12  1  0
 14 13  2  0
 15 14  1  0
 15 16  2  0
 16 11  1  0
  1 18  1  0
  1 19  1  0
  3 20  1  0
  6 21  1  0
  8 22  1  0
 11 23  1  0
 12 24  1  0
 17 25  1  0
M  ISO  8  18   8  19   8  20  14  21  14  22  14  23  14  24  14  25   3
M  END
>  <minimizedAffinity>  (1) 
-4.40690613

>  <minimizedRMSD>  (1) 
1.38283122

$$$$
