
     RDKit          3D

 20 21  0  0  0  0  0  0  0  0999 V2000
   38.2210   29.0800   43.1700 C   0  0  0  0  0  0  0  0  0  0  0  0
   38.2210   27.6760   43.1880 C   0  0  0  0  0  0  0  0  0  0  0  0
   37.3600   26.9780   42.3370 C   0  0  0  0  0  0  0  0  0  0  0  0
   36.5570   27.7250   41.5270 N   0  0  0  0  0  0  0  0  0  0  0  0
   36.5720   29.0630   41.5260 C   0  0  0  0  0  0  0  0  0  0  0  0
   37.3910   29.7250   42.3360 N   0  0  0  0  0  0  0  0  0  0  0  0
   35.6930   29.8560   40.6390 C   0  0  0  0  0  0  0  0  0  0  0  0
   36.4930   30.7090   39.6830 C   0  0  0  0  0  0  0  0  0  0  0  0
   36.9420   30.1650   38.5100 C   0  0  0  0  0  0  0  0  0  0  0  0
   37.8430   31.5510   37.6980 S   0  0  0  0  0  0  0  0  0  0  0  0
   37.4360   32.6690   39.1530 C   0  0  0  0  0  0  0  0  0  0  0  0
   36.8420   31.9800   39.8290 N   0  0  0  0  0  0  0  0  0  0  0  0
   37.4000   25.6130   42.3910 O   0  0  0  0  0  0  0  0  0  0  0  0
   38.8938   29.6448   43.8321 H   0  0  0  0  0  0  0  0  0  0  0  0
   38.8932   27.1301   43.8663 H   0  0  0  0  0  0  0  0  0  0  0  0
   35.0578   29.1699   40.0595 H   0  0  0  0  0  0  0  0  0  0  0  0
   35.0816   30.5219   41.2657 H   0  0  0  0  0  0  0  0  0  0  0  0
   36.7983   29.1395   38.1389 H   0  0  0  0  0  0  0  0  0  0  0  0
   37.7058   33.7240   39.3088 H   0  0  0  0  0  0  0  0  0  0  0  0
   36.8078   25.0769   41.8062 H   0  0  0  0  0  0  0  0  0  0  0  0
  1  2  2  0
  3 13  1  0
  3  2  1  0
  4  3  2  0
  5  4  1  0
  5  6  2  0
  6  1  1  0
  7  5  1  0
  8 12  1  0
  8  7  1  0
  9  8  2  0
 10  9  1  0
 10 11  1  0
 11 12  2  0
  1 14  1  0
  2 15  1  0
  7 16  1  0
  7 17  1  0
  9 18  1  0
 11 19  1  0
 13 20  1  0
M  ISO  7  14  14  15  14  16   8  17   8  18  14  19  14  20   3
M  END
>  <minimizedAffinity>  (1) 
-3.88301706

>  <minimizedRMSD>  (1) 
1.11671638

$$$$
