
     RDKit          3D

 15 15  0  0  0  0  0  0  0  0999 V2000
   38.2580   28.8100   43.3590 C   0  0  0  0  0  0  0  0  0  0  0  0
   38.0720   27.4260   43.3540 C   0  0  0  0  0  0  0  0  0  0  0  0
   37.1800   26.8700   42.4550 C   0  0  0  0  0  0  0  0  0  0  0  0
   36.5170   27.7330   41.6040 N   0  0  0  0  0  0  0  0  0  0  0  0
   36.7170   29.0530   41.6350 C   0  0  0  0  0  0  0  0  0  0  0  0
   37.5820   29.5820   42.5070 N   0  0  0  0  0  0  0  0  0  0  0  0
   35.9990   29.9660   40.7160 C   0  0  0  0  0  0  0  0  0  0  0  0
   35.5910   31.1190   41.3810 O   0  0  0  0  0  0  0  0  0  0  0  0
   37.0020   25.5100   42.4530 O   0  0  0  0  0  0  0  0  0  0  0  0
   38.9648   29.2652   44.0684 H   0  0  0  0  0  0  0  0  0  0  0  0
   38.6275   26.7865   44.0557 H   0  0  0  0  0  0  0  0  0  0  0  0
   35.1147   29.4501   40.3136 H   0  0  0  0  0  0  0  0  0  0  0  0
   36.6802   30.2522   39.9011 H   0  0  0  0  0  0  0  0  0  0  0  0
   35.6430   30.9720   42.3586 H   0  0  0  0  0  0  0  0  0  0  0  0
   36.3676   25.0947   41.8164 H   0  0  0  0  0  0  0  0  0  0  0  0
  2  1  2  0
  3  2  1  0
  4  5  1  0
  4  3  2  0
  5  6  2  0
  6  1  1  0
  7  8  1  0
  7  5  1  0
  9  3  1  0
  1 10  1  0
  2 11  1  0
  7 12  1  0
  7 13  1  0
  8 14  1  0
  9 15  1  0
M  ISO  6  10  14  11  14  12   8  13   8  14   3  15   3
M  END
>  <minimizedAffinity>  (1) 
-3.73735833

>  <minimizedRMSD>  (1) 
0.503394425

$$$$
