
     RDKit          3D

 15 15  0  0  0  0  0  0  0  0999 V2000
   38.3160   29.1960   43.1480 C   0  0  0  0  0  0  0  0  0  0  0  0
   38.0470   27.8230   43.2640 C   0  0  0  0  0  0  0  0  0  0  0  0
   37.0770   27.2440   42.4600 C   0  0  0  0  0  0  0  0  0  0  0  0
   36.4140   28.0640   41.5710 N   0  0  0  0  0  0  0  0  0  0  0  0
   36.7020   29.3720   41.4930 C   0  0  0  0  0  0  0  0  0  0  0  0
   37.6330   29.9300   42.2630 N   0  0  0  0  0  0  0  0  0  0  0  0
   35.9820   30.2530   40.5300 C   0  0  0  0  0  0  0  0  0  0  0  0
   37.0500   31.6670   40.0850 S   0  0  0  0  0  0  0  0  0  0  0  0
   36.8410   25.9120   42.5970 O   0  0  0  0  0  0  0  0  0  0  0  0
   39.0837   29.6651   43.7810 H   0  0  0  0  0  0  0  0  0  0  0  0
   38.6027   27.2099   43.9888 H   0  0  0  0  0  0  0  0  0  0  0  0
   35.7343   29.6808   39.6238 H   0  0  0  0  0  0  0  0  0  0  0  0
   35.0558   30.6238   40.9933 H   0  0  0  0  0  0  0  0  0  0  0  0
   37.5066   32.2715   41.2265 H   0  0  0  0  0  0  0  0  0  0  0  0
   36.1544   25.4707   42.0367 H   0  0  0  0  0  0  0  0  0  0  0  0
  1  2  2  0
  3  9  1  0
  3  2  1  0
  4  3  2  0
  5  4  1  0
  5  6  2  0
  6  1  1  0
  7  5  1  0
  8  7  1  0
  1 10  1  0
  2 11  1  0
  7 12  1  0
  7 13  1  0
  8 14  1  0
  9 15  1  0
M  ISO  6  10  14  11  14  12   8  13   8  14  11  15   3
M  END
>  <minimizedAffinity>  (1) 
-3.01820278

>  <minimizedRMSD>  (1) 
0.624870121

$$$$
