
     RDKit          3D

 30 31  0  0  0  0  0  0  0  0999 V2000
   39.7010   26.6210   43.8860 C   0  0  0  0  0  0  0  0  0  0  0  0
   39.7720   25.3040   43.4350 C   0  0  0  0  0  0  0  0  0  0  0  0
   38.7840   24.8110   42.5810 C   0  0  0  0  0  0  0  0  0  0  0  0
   37.7820   25.6790   42.2350 N   0  0  0  0  0  0  0  0  0  0  0  0
   37.7410   26.9420   42.6840 C   0  0  0  0  0  0  0  0  0  0  0  0
   38.6930   27.4030   43.5010 N   0  0  0  0  0  0  0  0  0  0  0  0
   36.6500   27.8620   42.2970 C   0  0  0  0  0  0  0  0  0  0  0  0
   36.4890   28.0720   40.8310 C   0  0  0  0  0  0  0  0  0  0  0  0
   35.2980   29.0220   40.6700 C   0  0  0  0  0  0  0  0  0  0  0  0
   35.0240   29.1440   39.1790 C   0  0  0  0  0  0  0  0  0  0  0  0
   36.1970   29.9710   38.6400 C   0  0  0  0  0  0  0  0  0  0  0  0
   37.4140   29.0960   38.7740 C   0  0  0  0  0  0  0  0  0  0  0  0
   37.6940   28.6940   40.1800 C   0  0  0  0  0  0  0  0  0  0  0  0
   38.8750   23.5200   42.1550 O   0  0  0  0  0  0  0  0  0  0  0  0
   40.4766   27.0146   44.5594 H   0  0  0  0  0  0  0  0  0  0  0  0
   40.6029   24.6560   43.7507 H   0  0  0  0  0  0  0  0  0  0  0  0
   35.7061   27.4546   42.6883 H   0  0  0  0  0  0  0  0  0  0  0  0
   36.9130   28.8430   42.7194 H   0  0  0  0  0  0  0  0  0  0  0  0
   36.3451   27.0965   40.3434 H   0  0  0  0  0  0  0  0  0  0  0  0
   34.4159   28.6122   41.1838 H   0  0  0  0  0  0  0  0  0  0  0  0
   35.5186   30.0057   41.1101 H   0  0  0  0  0  0  0  0  0  0  0  0
   34.9982   28.1513   38.7058 H   0  0  0  0  0  0  0  0  0  0  0  0
   34.0508   29.6119   38.9693 H   0  0  0  0  0  0  0  0  0  0  0  0
   36.3201   30.8908   39.2306 H   0  0  0  0  0  0  0  0  0  0  0  0
   36.0310   30.2751   37.5960 H   0  0  0  0  0  0  0  0  0  0  0  0
   37.2589   28.1869   38.1745 H   0  0  0  0  0  0  0  0  0  0  0  0
   38.2774   29.6799   38.4223 H   0  0  0  0  0  0  0  0  0  0  0  0
   38.5180   27.9653   40.1851 H   0  0  0  0  0  0  0  0  0  0  0  0
   37.9629   29.5969   40.7479 H   0  0  0  0  0  0  0  0  0  0  0  0
   38.1857   23.1490   41.5490 H   0  0  0  0  0  0  0  0  0  0  0  0
  2  1  2  0
  3  2  1  0
  4  3  2  0
  4  5  1  0
  5  6  2  0
  6  1  1  0
  7  5  1  0
  8  7  1  0
  9  8  1  0
 10  9  1  0
 11 12  1  0
 11 10  1  0
 12 13  1  0
 13  8  1  0
 14  3  1  0
  1 15  1  0
  2 16  1  0
  7 17  1  0
  7 18  1  0
  8 19  1  0
  9 20  1  0
  9 21  1  0
 10 22  1  0
 10 23  1  0
 11 24  1  0
 11 25  1  0
 12 26  1  0
 12 27  1  0
 13 28  1  0
 13 29  1  0
 14 30  1  0
M  ISO  8  15  14  16  14  17   8  18   8  19  13  20  13  21  13  22  13
M  ISO  8  23  13  24  13  25  13  26  13  27  13  28  13  29  13  30   3
M  END
>  <minimizedAffinity>  (1) 
-4.48688841

>  <minimizedRMSD>  (1) 
2.9678607

$$$$
