
     RDKit          3D

 45 47  0  0  0  0  0  0  0  0999 V2000
   36.3690   30.6890   40.6310 C   0  0  0  0  0  0  0  0  0  0  0  0
   36.2630   29.7510   39.4790 C   0  0  0  0  0  0  0  0  0  0  0  0
   34.8070   29.2710   39.4720 C   0  0  0  0  0  0  0  0  0  0  0  0
   34.6990   28.2170   38.3830 C   0  0  0  0  0  0  0  0  0  0  0  0
   34.7880   29.0180   37.0760 C   0  0  0  0  0  0  0  0  0  0  0  0
   36.2000   29.5290   37.0130 C   0  0  0  0  0  0  0  0  0  0  0  0
   36.5500   30.4180   38.1560 C   0  0  0  0  0  0  0  0  0  0  0  0
   39.5190   30.3680   42.4800 C   0  0  0  0  0  0  0  0  0  0  0  0
   40.2620   31.4260   41.9850 C   0  0  0  0  0  0  0  0  0  0  0  0
   39.7270   32.2810   41.0130 C   0  0  0  0  0  0  0  0  0  0  0  0
   38.4570   31.9820   40.6200 N   0  0  0  0  0  0  0  0  0  0  0  0
   37.7520   30.9570   41.1070 C   0  0  0  0  0  0  0  0  0  0  0  0
   38.2770   30.1590   42.0270 N   0  0  0  0  0  0  0  0  0  0  0  0
   40.4860   33.3070   40.5520 O   0  0  0  0  0  0  0  0  0  0  0  0
   42.0290   33.7990   36.8490 N   0  0  0  0  0  0  0  0  0  0  0  0
   42.6170   34.6140   37.8750 C   0  0  0  0  0  0  0  0  0  0  0  0
   41.8940   34.6120   39.1810 C   0  0  0  0  0  0  0  0  0  0  0  0
   40.8610   33.4900   39.2110 C   0  0  0  0  0  0  0  0  0  0  0  0
   41.6130   32.2560   38.7130 C   0  0  0  0  0  0  0  0  0  0  0  0
   41.9040   32.4110   37.2380 C   0  0  0  0  0  0  0  0  0  0  0  0
   35.7975   30.2638   41.4692 H   0  0  0  0  0  0  0  0  0  0  0  0
   35.9776   31.6534   40.2750 H   0  0  0  0  0  0  0  0  0  0  0  0
   36.9981   28.9408   39.5940 H   0  0  0  0  0  0  0  0  0  0  0  0
   34.5469   28.8355   40.4480 H   0  0  0  0  0  0  0  0  0  0  0  0
   34.1164   30.1062   39.2837 H   0  0  0  0  0  0  0  0  0  0  0  0
   35.5255   27.4947   38.4553 H   0  0  0  0  0  0  0  0  0  0  0  0
   33.7723   27.6288   38.4553 H   0  0  0  0  0  0  0  0  0  0  0  0
   34.5748   28.3702   36.2129 H   0  0  0  0  0  0  0  0  0  0  0  0
   34.0558   29.8384   37.0497 H   0  0  0  0  0  0  0  0  0  0  0  0
   36.8846   28.6680   37.0164 H   0  0  0  0  0  0  0  0  0  0  0  0
   36.2931   30.1247   36.0930 H   0  0  0  0  0  0  0  0  0  0  0  0
   37.6209   30.6637   38.1037 H   0  0  0  0  0  0  0  0  0  0  0  0
   35.9373   31.3289   38.0869 H   0  0  0  0  0  0  0  0  0  0  0  0
   39.9478   29.7015   43.2428 H   0  0  0  0  0  0  0  0  0  0  0  0
   41.2824   31.5969   42.3586 H   0  0  0  0  0  0  0  0  0  0  0  0
   42.6198   33.8528   36.0070 H   0  0  0  0  0  0  0  0  0  0  0  0
   43.6405   34.2521   38.0522 H   0  0  0  0  0  0  0  0  0  0  0  0
   42.5747   35.6488   37.5044 H   0  0  0  0  0  0  0  0  0  0  0  0
   42.6171   34.4617   39.9961 H   0  0  0  0  0  0  0  0  0  0  0  0
   41.3797   35.5761   39.3074 H   0  0  0  0  0  0  0  0  0  0  0  0
   39.9648   33.6908   38.6056 H   0  0  0  0  0  0  0  0  0  0  0  0
   42.5587   32.1540   39.2655 H   0  0  0  0  0  0  0  0  0  0  0  0
   40.9978   31.3587   38.8753 H   0  0  0  0  0  0  0  0  0  0  0  0
   41.0832   31.9550   36.6650 H   0  0  0  0  0  0  0  0  0  0  0  0
   42.8626   31.9137   37.0286 H   0  0  0  0  0  0  0  0  0  0  0  0
  1 12  1  0
  2  1  1  0
  3  2  1  0
  4  3  1  0
  5  4  1  0
  6  5  1  0
  6  7  1  0
  7  2  1  0
  9  8  2  0
 10  9  1  0
 11 10  2  0
 11 12  1  0
 12 13  2  0
 13  8  1  0
 14 10  1  0
 15 20  1  0
 15 16  1  0
 16 17  1  0
 17 18  1  0
 18 14  1  0
 19 18  1  0
 20 19  1  0
  1 21  1  0
  1 22  1  0
  2 23  1  0
  3 24  1  0
  3 25  1  0
  4 26  1  0
  4 27  1  0
  5 28  1  0
  5 29  1  0
  6 30  1  0
  6 31  1  0
  7 32  1  0
  7 33  1  0
  8 34  1  0
  9 35  1  0
 15 36  1  0
 16 37  1  0
 16 38  1  0
 17 39  1  0
 17 40  1  0
 18 41  1  0
 19 42  1  0
 19 43  1  0
 20 44  1  0
 20 45  1  0
M  ISO  8  21   8  22   8  23  13  24  13  25  13  26  13  27  13  28  13
M  ISO  8  29  13  30  13  31  13  32  13  33  13  34  14  35  14  36   5
M  ISO  8  37  13  38  13  39  13  40  13  41  13  42  13  43  13  44  13
M  ISO  1  45  13
M  END
>  <minimizedAffinity>  (1) 
-5.28772831

>  <minimizedRMSD>  (1) 
8.20740891

$$$$
