
     RDKit          3D

 37 39  0  0  0  0  0  0  0  0999 V2000
   36.6080   27.8780   42.2710 C   0  0  0  0  0  0  0  0  0  0  0  0
   36.5140   28.1620   40.8180 C   0  0  0  0  0  0  0  0  0  0  0  0
   35.2610   29.0170   40.6250 C   0  0  0  0  0  0  0  0  0  0  0  0
   35.0680   29.2040   39.1310 C   0  0  0  0  0  0  0  0  0  0  0  0
   36.2030   30.1460   38.7070 C   0  0  0  0  0  0  0  0  0  0  0  0
   37.4670   29.3670   38.8830 C   0  0  0  0  0  0  0  0  0  0  0  0
   37.7010   28.9140   40.2840 C   0  0  0  0  0  0  0  0  0  0  0  0
   39.6150   26.6940   44.0110 C   0  0  0  0  0  0  0  0  0  0  0  0
   39.7990   25.4200   43.4390 C   0  0  0  0  0  0  0  0  0  0  0  0
   38.9020   24.9650   42.4600 C   0  0  0  0  0  0  0  0  0  0  0  0
   37.8860   25.8000   42.1160 N   0  0  0  0  0  0  0  0  0  0  0  0
   37.7420   27.0150   42.6880 C   0  0  0  0  0  0  0  0  0  0  0  0
   38.5880   27.4600   43.6190 N   0  0  0  0  0  0  0  0  0  0  0  0
   39.1530   23.7310   41.9670 O   0  0  0  0  0  0  0  0  0  0  0  0
   37.9710   23.4070   40.9930 C   0  0  0  0  0  0  0  0  0  0  0  0
   38.2830   22.2070   40.2110 C   0  0  0  0  0  0  0  0  0  0  0  0
   37.2880   21.8740   39.3420 C   0  0  0  0  0  0  0  0  0  0  0  0
   36.1050   22.6170   39.2290 C   0  0  0  0  0  0  0  0  0  0  0  0
   36.2890   23.9560   40.4210 S   0  0  0  0  0  0  0  0  0  0  0  0
   35.6755   27.3825   42.5792 H   0  0  0  0  0  0  0  0  0  0  0  0
   36.7786   28.8507   42.7554 H   0  0  0  0  0  0  0  0  0  0  0  0
   36.4771   27.2084   40.2709 H   0  0  0  0  0  0  0  0  0  0  0  0
   34.3871   28.5070   41.0565 H   0  0  0  0  0  0  0  0  0  0  0  0
   35.3714   29.9889   41.1281 H   0  0  0  0  0  0  0  0  0  0  0  0
   35.1468   28.2406   38.6060 H   0  0  0  0  0  0  0  0  0  0  0  0
   34.0757   29.6114   38.8871 H   0  0  0  0  0  0  0  0  0  0  0  0
   36.2142   31.0430   39.3437 H   0  0  0  0  0  0  0  0  0  0  0  0
   36.0792   30.4870   37.6685 H   0  0  0  0  0  0  0  0  0  0  0  0
   37.4216   28.4800   38.2341 H   0  0  0  0  0  0  0  0  0  0  0  0
   38.2978   30.0378   38.6188 H   0  0  0  0  0  0  0  0  0  0  0  0
   38.5821   28.2558   40.3058 H   0  0  0  0  0  0  0  0  0  0  0  0
   37.8635   29.8009   40.9141 H   0  0  0  0  0  0  0  0  0  0  0  0
   40.3134   27.0594   44.7783 H   0  0  0  0  0  0  0  0  0  0  0  0
   40.6398   24.7861   43.7573 H   0  0  0  0  0  0  0  0  0  0  0  0
   39.2184   21.6375   40.3145 H   0  0  0  0  0  0  0  0  0  0  0  0
   37.4182   20.9873   38.7041 H   0  0  0  0  0  0  0  0  0  0  0  0
   35.2527   22.4252   38.5606 H   0  0  0  0  0  0  0  0  0  0  0  0
  1 12  1  0
  2  1  1  0
  3  2  1  0
  4  3  1  0
  5  6  1  0
  5  4  1  0
  6  7  1  0
  7  2  1  0
  9  8  2  0
 10  9  1  0
 11 10  2  0
 11 12  1  0
 12 13  2  0
 13  8  1  0
 14 10  1  0
 15 14  1  0
 16 15  2  0
 17 16  1  0
 18 17  2  0
 18 19  1  0
 19 15  1  0
  1 20  1  0
  1 21  1  0
  2 22  1  0
  3 23  1  0
  3 24  1  0
  4 25  1  0
  4 26  1  0
  5 27  1  0
  5 28  1  0
  6 29  1  0
  6 30  1  0
  7 31  1  0
  7 32  1  0
  8 33  1  0
  9 34  1  0
 16 35  1  0
 17 36  1  0
 18 37  1  0
M  ISO  8  20   8  21   8  22  13  23  13  24  13  25  13  26  13  27  13
M  ISO  8  28  13  29  13  30  13  31  13  32  13  33  14  34  14  35  14
M  ISO  2  36  14  37  14
M  END
>  <minimizedAffinity>  (1) 
-4.80584526

>  <minimizedRMSD>  (1) 
0.381145597

$$$$
