
     RDKit          3D

 37 39  0  0  0  0  0  0  0  0999 V2000
   36.8500   28.2470   42.1890 C   0  0  0  0  0  0  0  0  0  0  0  0
   36.5030   28.2430   40.7360 C   0  0  0  0  0  0  0  0  0  0  0  0
   35.2640   29.1450   40.6100 C   0  0  0  0  0  0  0  0  0  0  0  0
   34.7720   29.0080   39.1830 C   0  0  0  0  0  0  0  0  0  0  0  0
   35.8050   29.7480   38.3490 C   0  0  0  0  0  0  0  0  0  0  0  0
   37.0920   28.9990   38.4610 C   0  0  0  0  0  0  0  0  0  0  0  0
   37.5800   28.8080   39.8540 C   0  0  0  0  0  0  0  0  0  0  0  0
   39.6650   26.6540   43.9170 C   0  0  0  0  0  0  0  0  0  0  0  0
   39.6630   25.3660   43.3580 C   0  0  0  0  0  0  0  0  0  0  0  0
   38.7180   25.0200   42.3980 C   0  0  0  0  0  0  0  0  0  0  0  0
   37.8270   26.0070   42.0600 N   0  0  0  0  0  0  0  0  0  0  0  0
   37.8360   27.2250   42.5930 C   0  0  0  0  0  0  0  0  0  0  0  0
   38.7530   27.5340   43.5140 N   0  0  0  0  0  0  0  0  0  0  0  0
   38.7680   23.7640   41.8980 O   0  0  0  0  0  0  0  0  0  0  0  0
   37.9190   23.2410   40.9350 C   0  0  0  0  0  0  0  0  0  0  0  0
   36.6980   23.5310   40.3640 C   0  0  0  0  0  0  0  0  0  0  0  0
   36.4340   22.5450   39.4230 C   0  0  0  0  0  0  0  0  0  0  0  0
   37.5300   21.7030   39.4810 C   0  0  0  0  0  0  0  0  0  0  0  0
   38.3890   22.1280   40.3740 O   0  0  0  0  0  0  0  0  0  0  0  0
   35.9265   28.0768   42.7618 H   0  0  0  0  0  0  0  0  0  0  0  0
   37.3141   29.2230   42.3938 H   0  0  0  0  0  0  0  0  0  0  0  0
   36.3486   27.2041   40.4092 H   0  0  0  0  0  0  0  0  0  0  0  0
   34.4838   28.8187   41.3134 H   0  0  0  0  0  0  0  0  0  0  0  0
   35.5091   30.1910   40.8464 H   0  0  0  0  0  0  0  0  0  0  0  0
   34.7220   27.9491   38.8894 H   0  0  0  0  0  0  0  0  0  0  0  0
   33.7589   29.4152   39.0500 H   0  0  0  0  0  0  0  0  0  0  0  0
   35.9319   30.7720   38.7302 H   0  0  0  0  0  0  0  0  0  0  0  0
   35.4829   29.8103   37.2990 H   0  0  0  0  0  0  0  0  0  0  0  0
   36.9517   28.0066   38.0078 H   0  0  0  0  0  0  0  0  0  0  0  0
   37.8511   29.6060   37.9459 H   0  0  0  0  0  0  0  0  0  0  0  0
   38.4343   28.1152   39.8427 H   0  0  0  0  0  0  0  0  0  0  0  0
   37.8793   29.7877   40.2549 H   0  0  0  0  0  0  0  0  0  0  0  0
   40.4101   26.9312   44.6773 H   0  0  0  0  0  0  0  0  0  0  0  0
   40.4118   24.6276   43.6806 H   0  0  0  0  0  0  0  0  0  0  0  0
   36.0516   24.3866   40.6091 H   0  0  0  0  0  0  0  0  0  0  0  0
   35.5497   22.4536   38.7752 H   0  0  0  0  0  0  0  0  0  0  0  0
   37.6618   20.8023   38.8635 H   0  0  0  0  0  0  0  0  0  0  0  0
  1 12  1  0
  2  1  1  0
  3  2  1  0
  4  3  1  0
  5  6  1  0
  5  4  1  0
  6  7  1  0
  7  2  1  0
  9  8  2  0
 10  9  1  0
 11 10  2  0
 11 12  1  0
 12 13  2  0
 13  8  1  0
 14 10  1  0
 15 14  1  0
 16 15  2  0
 17 18  2  0
 17 16  1  0
 18 19  1  0
 19 15  1  0
  1 20  1  0
  1 21  1  0
  2 22  1  0
  3 23  1  0
  3 24  1  0
  4 25  1  0
  4 26  1  0
  5 27  1  0
  5 28  1  0
  6 29  1  0
  6 30  1  0
  7 31  1  0
  7 32  1  0
  8 33  1  0
  9 34  1  0
 16 35  1  0
 17 36  1  0
 18 37  1  0
M  ISO  8  20   8  21   8  22  13  23  13  24  13  25  13  26  13  27  13
M  ISO  8  28  13  29  13  30  13  31  13  32  13  33  14  34  14  35  14
M  ISO  2  36  14  37  14
M  END
>  <minimizedAffinity>  (1) 
-4.73822069

>  <minimizedRMSD>  (1) 
0.475786865

$$$$
