
     RDKit          3D

 38 40  0  0  0  0  0  0  0  0999 V2000
   36.6060   27.9340   42.2560 C   0  0  0  0  0  0  0  0  0  0  0  0
   36.4390   28.1160   40.7870 C   0  0  0  0  0  0  0  0  0  0  0  0
   35.2280   29.0320   40.6030 C   0  0  0  0  0  0  0  0  0  0  0  0
   34.9510   29.1090   39.1090 C   0  0  0  0  0  0  0  0  0  0  0  0
   36.1080   29.9500   38.5480 C   0  0  0  0  0  0  0  0  0  0  0  0
   37.3440   29.1390   38.7280 C   0  0  0  0  0  0  0  0  0  0  0  0
   37.6240   28.7890   40.1490 C   0  0  0  0  0  0  0  0  0  0  0  0
   39.6190   26.7360   43.9740 C   0  0  0  0  0  0  0  0  0  0  0  0
   39.7780   25.4510   43.4270 C   0  0  0  0  0  0  0  0  0  0  0  0
   38.8580   24.9900   42.4700 C   0  0  0  0  0  0  0  0  0  0  0  0
   37.8480   25.8270   42.1200 N   0  0  0  0  0  0  0  0  0  0  0  0
   37.7210   27.0540   42.6630 C   0  0  0  0  0  0  0  0  0  0  0  0
   38.5970   27.5010   43.5790 N   0  0  0  0  0  0  0  0  0  0  0  0
   39.0810   23.7390   41.9940 O   0  0  0  0  0  0  0  0  0  0  0  0
   38.6540   23.4410   40.7050 C   0  0  0  0  0  0  0  0  0  0  0  0
   39.3880   23.8770   39.6110 C   0  0  0  0  0  0  0  0  0  0  0  0
   38.9080   23.5470   38.3540 C   0  0  0  0  0  0  0  0  0  0  0  0
   37.7780   22.8350   38.2480 N   0  0  0  0  0  0  0  0  0  0  0  0
   37.0550   22.4040   39.2970 C   0  0  0  0  0  0  0  0  0  0  0  0
   37.5110   22.7180   40.5220 N   0  0  0  0  0  0  0  0  0  0  0  0
   35.6737   27.5061   42.6531 H   0  0  0  0  0  0  0  0  0  0  0  0
   36.8427   28.9295   42.6597 H   0  0  0  0  0  0  0  0  0  0  0  0
   36.3238   27.1291   40.3150 H   0  0  0  0  0  0  0  0  0  0  0  0
   34.3558   28.6151   41.1279 H   0  0  0  0  0  0  0  0  0  0  0  0
   35.4255   30.0316   41.0175 H   0  0  0  0  0  0  0  0  0  0  0  0
   34.9477   28.1041   38.6615 H   0  0  0  0  0  0  0  0  0  0  0  0
   33.9674   29.5488   38.8873 H   0  0  0  0  0  0  0  0  0  0  0  0
   36.1915   30.8980   39.0997 H   0  0  0  0  0  0  0  0  0  0  0  0
   35.9441   30.1969   37.4887 H   0  0  0  0  0  0  0  0  0  0  0  0
   37.2350   28.2065   38.1548 H   0  0  0  0  0  0  0  0  0  0  0  0
   38.1867   29.7508   38.3736 H   0  0  0  0  0  0  0  0  0  0  0  0
   38.4871   28.1081   40.1875 H   0  0  0  0  0  0  0  0  0  0  0  0
   37.8369   29.7164   40.7009 H   0  0  0  0  0  0  0  0  0  0  0  0
   40.3322   27.1100   44.7234 H   0  0  0  0  0  0  0  0  0  0  0  0
   40.6150   24.8120   43.7451 H   0  0  0  0  0  0  0  0  0  0  0  0
   40.3122   24.4602   39.7366 H   0  0  0  0  0  0  0  0  0  0  0  0
   39.4496   23.8665   37.4514 H   0  0  0  0  0  0  0  0  0  0  0  0
   36.1325   21.8210   39.1589 H   0  0  0  0  0  0  0  0  0  0  0  0
  1 12  1  0
  2  1  1  0
  3  2  1  0
  4  3  1  0
  5  6  1  0
  5  4  1  0
  6  7  1  0
  7  2  1  0
  9  8  2  0
 10  9  1  0
 11 10  2  0
 11 12  1  0
 12 13  2  0
 13  8  1  0
 14 10  1  0
 15 14  1  0
 16 15  2  0
 17 16  1  0
 18 17  2  0
 18 19  1  0
 19 20  2  0
 20 15  1  0
  1 21  1  0
  1 22  1  0
  2 23  1  0
  3 24  1  0
  3 25  1  0
  4 26  1  0
  4 27  1  0
  5 28  1  0
  5 29  1  0
  6 30  1  0
  6 31  1  0
  7 32  1  0
  7 33  1  0
  8 34  1  0
  9 35  1  0
 16 36  1  0
 17 37  1  0
 19 38  1  0
M  ISO  8  21   8  22   8  23  13  24  13  25  13  26  13  27  13  28  13
M  ISO  8  29  13  30  13  31  13  32  13  33  13  34  14  35  14  36  14
M  ISO  2  37  14  38  14
M  END
>  <minimizedAffinity>  (1) 
-4.67321157

>  <minimizedRMSD>  (1) 
1.07947385

$$$$
