
     RDKit          3D

 37 39  0  0  0  0  0  0  0  0999 V2000
   36.4960   28.1580   40.7880 C   0  0  0  0  0  0  0  0  0  0  0  0
   35.2640   29.0530   40.6520 C   0  0  0  0  0  0  0  0  0  0  0  0
   34.9430   29.0980   39.1660 C   0  0  0  0  0  0  0  0  0  0  0  0
   36.0360   29.9670   38.5620 C   0  0  0  0  0  0  0  0  0  0  0  0
   37.3150   29.1870   38.6970 C   0  0  0  0  0  0  0  0  0  0  0  0
   37.6460   28.8090   40.0920 C   0  0  0  0  0  0  0  0  0  0  0  0
   36.7160   27.9760   42.2500 C   0  0  0  0  0  0  0  0  0  0  0  0
   39.6340   26.5550   43.9210 C   0  0  0  0  0  0  0  0  0  0  0  0
   39.7330   25.2860   43.3320 C   0  0  0  0  0  0  0  0  0  0  0  0
   38.8090   24.8950   42.3570 C   0  0  0  0  0  0  0  0  0  0  0  0
   37.8460   25.8170   42.0470 N   0  0  0  0  0  0  0  0  0  0  0  0
   37.7770   27.0190   42.6250 C   0  0  0  0  0  0  0  0  0  0  0  0
   38.6580   27.3800   43.5480 N   0  0  0  0  0  0  0  0  0  0  0  0
   38.9480   23.6580   41.8190 O   0  0  0  0  0  0  0  0  0  0  0  0
   37.9170   23.2470   40.9070 C   0  0  0  0  0  0  0  0  0  0  0  0
   38.2370   21.9490   40.1950 C   0  0  0  0  0  0  0  0  0  0  0  0
   38.1510   23.2230   39.4620 C   0  0  0  0  0  0  0  0  0  0  0  0
   36.3732   27.1704   40.3195 H   0  0  0  0  0  0  0  0  0  0  0  0
   34.4187   28.6282   41.2133 H   0  0  0  0  0  0  0  0  0  0  0  0
   35.4495   30.0593   41.0556 H   0  0  0  0  0  0  0  0  0  0  0  0
   34.9672   28.0871   38.7329 H   0  0  0  0  0  0  0  0  0  0  0  0
   33.9370   29.4970   38.9690 H   0  0  0  0  0  0  0  0  0  0  0  0
   36.1108   30.9194   39.1073 H   0  0  0  0  0  0  0  0  0  0  0  0
   35.8219   30.2068   37.5100 H   0  0  0  0  0  0  0  0  0  0  0  0
   37.2234   28.2666   38.1016 H   0  0  0  0  0  0  0  0  0  0  0  0
   38.1257   29.8410   38.3434 H   0  0  0  0  0  0  0  0  0  0  0  0
   38.4939   28.1084   40.0775 H   0  0  0  0  0  0  0  0  0  0  0  0
   37.8961   29.7289   40.6409 H   0  0  0  0  0  0  0  0  0  0  0  0
   36.9784   28.9554   42.6766 H   0  0  0  0  0  0  0  0  0  0  0  0
   35.7795   27.5539   42.6433 H   0  0  0  0  0  0  0  0  0  0  0  0
   40.3590   26.8670   44.6872 H   0  0  0  0  0  0  0  0  0  0  0  0
   40.5363   24.5989   43.6363 H   0  0  0  0  0  0  0  0  0  0  0  0
   37.1107   23.6819   41.5159 H   0  0  0  0  0  0  0  0  0  0  0  0
   39.2114   21.4611   40.3447 H   0  0  0  0  0  0  0  0  0  0  0  0
   37.7609   20.9609   40.1113 H   0  0  0  0  0  0  0  0  0  0  0  0
   39.0648   23.6771   39.0512 H   0  0  0  0  0  0  0  0  0  0  0  0
   37.5776   23.5659   38.5881 H   0  0  0  0  0  0  0  0  0  0  0  0
  1  7  1  0
  2  1  1  0
  3  2  1  0
  4  5  1  0
  4  3  1  0
  5  6  1  0
  6  1  1  0
  7 12  1  0
  9  8  2  0
 10  9  1  0
 11 10  2  0
 11 12  1  0
 12 13  2  0
 13  8  1  0
 14 10  1  0
 15 14  1  0
 16 15  1  0
 17 16  1  0
 17 15  1  0
  1 18  1  0
  2 19  1  0
  2 20  1  0
  3 21  1  0
  3 22  1  0
  4 23  1  0
  4 24  1  0
  5 25  1  0
  5 26  1  0
  6 27  1  0
  6 28  1  0
  7 29  1  0
  7 30  1  0
  8 31  1  0
  9 32  1  0
 15 33  1  0
 16 34  1  0
 16 35  1  0
 17 36  1  0
 17 37  1  0
M  ISO  8  18  13  19  13  20  13  21  13  22  13  23  13  24  13  25  13
M  ISO  8  26  13  27  13  28  13  29   8  30   8  31  14  32  14  33  13
M  ISO  4  34  13  35  13  36  13  37  13
M  END
>  <minimizedAffinity>  (1) 
-4.43139076

>  <minimizedRMSD>  (1) 
0.990852177

$$$$
