
     RDKit          3D

 36 37  0  0  0  0  0  0  0  0999 V2000
   36.4610   28.1310   40.7770 C   0  0  0  0  0  0  0  0  0  0  0  0
   35.2380   29.0410   40.6540 C   0  0  0  0  0  0  0  0  0  0  0  0
   34.8420   29.0500   39.1840 C   0  0  0  0  0  0  0  0  0  0  0  0
   35.9390   29.8530   38.4830 C   0  0  0  0  0  0  0  0  0  0  0  0
   37.1930   29.0570   38.6020 C   0  0  0  0  0  0  0  0  0  0  0  0
   37.5930   28.7640   40.0080 C   0  0  0  0  0  0  0  0  0  0  0  0
   36.7430   28.0290   42.2420 C   0  0  0  0  0  0  0  0  0  0  0  0
   39.6460   26.5530   43.9090 C   0  0  0  0  0  0  0  0  0  0  0  0
   39.7290   25.3000   43.3240 C   0  0  0  0  0  0  0  0  0  0  0  0
   38.8050   24.9290   42.3530 C   0  0  0  0  0  0  0  0  0  0  0  0
   37.8480   25.8600   42.0360 N   0  0  0  0  0  0  0  0  0  0  0  0
   37.7910   27.0560   42.6140 C   0  0  0  0  0  0  0  0  0  0  0  0
   38.6840   27.3890   43.5380 N   0  0  0  0  0  0  0  0  0  0  0  0
   38.9180   23.6810   41.7960 O   0  0  0  0  0  0  0  0  0  0  0  0
   37.8630   23.2350   40.9300 C   0  0  0  0  0  0  0  0  0  0  0  0
   38.2890   22.0060   40.1560 C   0  0  0  0  0  0  0  0  0  0  0  0
   36.3123   27.1230   40.3625 H   0  0  0  0  0  0  0  0  0  0  0  0
   34.4120   28.6500   41.2662 H   0  0  0  0  0  0  0  0  0  0  0  0
   35.4654   30.0575   41.0076 H   0  0  0  0  0  0  0  0  0  0  0  0
   34.8010   28.0244   38.7884 H   0  0  0  0  0  0  0  0  0  0  0  0
   33.8453   29.4882   39.0274 H   0  0  0  0  0  0  0  0  0  0  0  0
   36.0631   30.8314   38.9702 H   0  0  0  0  0  0  0  0  0  0  0  0
   35.6841   30.0354   37.4286 H   0  0  0  0  0  0  0  0  0  0  0  0
   37.0473   28.1012   38.0773 H   0  0  0  0  0  0  0  0  0  0  0  0
   37.9982   29.6631   38.1613 H   0  0  0  0  0  0  0  0  0  0  0  0
   38.4509   28.0755   40.0008 H   0  0  0  0  0  0  0  0  0  0  0  0
   37.8599   29.7117   40.4986 H   0  0  0  0  0  0  0  0  0  0  0  0
   37.0577   29.0211   42.5980 H   0  0  0  0  0  0  0  0  0  0  0  0
   35.8134   27.6700   42.7078 H   0  0  0  0  0  0  0  0  0  0  0  0
   40.3737   26.8537   44.6772 H   0  0  0  0  0  0  0  0  0  0  0  0
   40.5228   24.6011   43.6264 H   0  0  0  0  0  0  0  0  0  0  0  0
   36.9776   22.9913   41.5356 H   0  0  0  0  0  0  0  0  0  0  0  0
   37.6282   24.0384   40.2162 H   0  0  0  0  0  0  0  0  0  0  0  0
   38.5659   21.2072   40.8597 H   0  0  0  0  0  0  0  0  0  0  0  0
   37.4567   21.6647   39.5229 H   0  0  0  0  0  0  0  0  0  0  0  0
   39.1540   22.2530   39.5229 H   0  0  0  0  0  0  0  0  0  0  0  0
  1  7  1  0
  2  1  1  0
  3  2  1  0
  4  5  1  0
  4  3  1  0
  5  6  1  0
  6  1  1  0
  7 12  1  0
  9  8  2  0
 10  9  1  0
 11 10  2  0
 11 12  1  0
 12 13  2  0
 13  8  1  0
 14 10  1  0
 15 14  1  0
 16 15  1  0
  1 17  1  0
  2 18  1  0
  2 19  1  0
  3 20  1  0
  3 21  1  0
  4 22  1  0
  4 23  1  0
  5 24  1  0
  5 25  1  0
  6 26  1  0
  6 27  1  0
  7 28  1  0
  7 29  1  0
  8 30  1  0
  9 31  1  0
 15 32  1  0
 15 33  1  0
 16 34  1  0
 16 35  1  0
 16 36  1  0
M  ISO  8  17  13  18  13  19  13  20  13  21  13  22  13  23  13  24  13
M  ISO  8  25  13  26  13  27  13  28   8  29   8  30  14  31  14  32   8
M  ISO  4  33   8  34   8  35   8  36   8
M  END
>  <minimizedAffinity>  (1) 
-4.27848482

>  <minimizedRMSD>  (1) 
0.376749784

$$$$
