
     RDKit          3D

 32 33  0  0  0  0  0  0  0  0999 V2000
   36.4530   28.1210   40.7590 C   0  0  0  0  0  0  0  0  0  0  0  0
   35.2210   29.0270   40.5900 C   0  0  0  0  0  0  0  0  0  0  0  0
   34.9520   29.0980   39.0860 C   0  0  0  0  0  0  0  0  0  0  0  0
   36.0900   29.9440   38.5250 C   0  0  0  0  0  0  0  0  0  0  0  0
   37.3560   29.1720   38.7230 C   0  0  0  0  0  0  0  0  0  0  0  0
   37.6360   28.7930   40.1360 C   0  0  0  0  0  0  0  0  0  0  0  0
   36.6000   27.9170   42.2270 C   0  0  0  0  0  0  0  0  0  0  0  0
   39.5900   26.6990   43.9630 C   0  0  0  0  0  0  0  0  0  0  0  0
   39.7500   25.4230   43.3980 C   0  0  0  0  0  0  0  0  0  0  0  0
   38.8480   24.9600   42.4260 C   0  0  0  0  0  0  0  0  0  0  0  0
   37.8450   25.8140   42.0830 N   0  0  0  0  0  0  0  0  0  0  0  0
   37.7130   27.0290   42.6370 C   0  0  0  0  0  0  0  0  0  0  0  0
   38.5730   27.4590   43.5600 N   0  0  0  0  0  0  0  0  0  0  0  0
   39.0740   23.7220   41.9340 O   0  0  0  0  0  0  0  0  0  0  0  0
   38.1970   23.2830   40.9260 C   0  0  0  0  0  0  0  0  0  0  0  0
   38.6840   23.1930   39.7480 O   0  0  0  0  0  0  0  0  0  0  0  0
   36.3571   27.1448   40.2612 H   0  0  0  0  0  0  0  0  0  0  0  0
   34.3548   28.5956   41.1131 H   0  0  0  0  0  0  0  0  0  0  0  0
   35.3948   30.0264   41.0155 H   0  0  0  0  0  0  0  0  0  0  0  0
   34.9628   28.0913   38.6427 H   0  0  0  0  0  0  0  0  0  0  0  0
   33.9652   29.5287   38.8611 H   0  0  0  0  0  0  0  0  0  0  0  0
   36.1459   30.9030   39.0609 H   0  0  0  0  0  0  0  0  0  0  0  0
   35.9271   30.1589   37.4586 H   0  0  0  0  0  0  0  0  0  0  0  0
   37.2926   28.2500   38.1265 H   0  0  0  0  0  0  0  0  0  0  0  0
   38.1770   29.8332   38.4088 H   0  0  0  0  0  0  0  0  0  0  0  0
   38.4938   28.1048   40.1600 H   0  0  0  0  0  0  0  0  0  0  0  0
   37.8576   29.7077   40.7053 H   0  0  0  0  0  0  0  0  0  0  0  0
   36.7619   28.9007   42.6918 H   0  0  0  0  0  0  0  0  0  0  0  0
   35.6769   27.4184   42.5576 H   0  0  0  0  0  0  0  0  0  0  0  0
   40.2931   27.0647   44.7258 H   0  0  0  0  0  0  0  0  0  0  0  0
   40.5856   24.7834   43.7183 H   0  0  0  0  0  0  0  0  0  0  0  0
   37.1480   23.0306   41.1402 H   0  0  0  0  0  0  0  0  0  0  0  0
  1  7  1  0
  2  1  1  0
  3  2  1  0
  4  5  1  0
  4  3  1  0
  5  6  1  0
  6  1  1  0
  7 12  1  0
  9  8  2  0
 10  9  1  0
 11 10  2  0
 11 12  1  0
 12 13  2  0
 13  8  1  0
 14 10  1  0
 15 14  1  0
 16 15  2  0
  1 17  1  0
  2 18  1  0
  2 19  1  0
  3 20  1  0
  3 21  1  0
  4 22  1  0
  4 23  1  0
  5 24  1  0
  5 25  1  0
  6 26  1  0
  6 27  1  0
  7 28  1  0
  7 29  1  0
  8 30  1  0
  9 31  1  0
 15 32  1  0
M  ISO  8  17  13  18  13  19  13  20  13  21  13  22  13  23  13  24  13
M  ISO  8  25  13  26  13  27  13  28   8  29   8  30  14  31  14  32   6
M  END
>  <minimizedAffinity>  (1) 
-4.15842533

>  <minimizedRMSD>  (1) 
1.01200211

$$$$
