
     RDKit          3D

 30 33  0  0  0  0  0  0  0  0999 V2000
   37.1710   28.2730   40.5360 N   0  0  0  0  0  0  0  0  0  0  0  0
   36.7600   27.1050   41.0730 C   0  0  0  0  0  0  0  0  0  0  0  0
   37.1920   27.1680   42.3780 C   0  0  0  0  0  0  0  0  0  0  0  0
   37.8460   28.3440   42.6200 N   0  0  0  0  0  0  0  0  0  0  0  0
   37.8140   29.0050   41.4540 C   0  0  0  0  0  0  0  0  0  0  0  0
   38.4550   30.2740   41.4720 N   0  0  0  0  0  0  0  0  0  0  0  0
   39.5910   30.5120   42.1950 C   0  0  0  0  0  0  0  0  0  0  0  0
   40.0090   31.8020   42.0370 N   0  0  0  0  0  0  0  0  0  0  0  0
   39.1390   32.3960   41.2080 C   0  0  0  0  0  0  0  0  0  0  0  0
   39.0590   33.6750   40.6990 C   0  0  0  0  0  0  0  0  0  0  0  0
   38.0200   33.9140   39.8760 N   0  0  0  0  0  0  0  0  0  0  0  0
   37.0990   32.9970   39.5450 C   0  0  0  0  0  0  0  0  0  0  0  0
   37.1660   31.7350   40.0380 N   0  0  0  0  0  0  0  0  0  0  0  0
   38.1830   31.4640   40.8580 C   0  0  0  0  0  0  0  0  0  0  0  0
   35.7280   29.0300   38.6910 C   0  0  0  0  0  0  0  0  0  0  0  0
   36.9650   28.6720   39.2110 C   0  0  0  0  0  0  0  0  0  0  0  0
   38.0750   28.7240   38.3220 C   0  0  0  0  0  0  0  0  0  0  0  0
   37.8690   29.1140   37.0370 N   0  0  0  0  0  0  0  0  0  0  0  0
   36.6200   29.4580   36.5810 C   0  0  0  0  0  0  0  0  0  0  0  0
   35.5380   29.4160   37.4180 N   0  0  0  0  0  0  0  0  0  0  0  0
   40.0140   34.6830   41.0220 N   0  0  0  0  0  0  0  0  0  0  0  0
   36.2074   26.2909   40.5812 H   0  0  0  0  0  0  0  0  0  0  0  0
   37.0325   26.3778   43.1264 H   0  0  0  0  0  0  0  0  0  0  0  0
   40.1001   29.7639   42.8204 H   0  0  0  0  0  0  0  0  0  0  0  0
   36.2790   33.2717   38.8652 H   0  0  0  0  0  0  0  0  0  0  0  0
   34.8546   28.9956   39.3588 H   0  0  0  0  0  0  0  0  0  0  0  0
   39.0829   28.4530   38.6694 H   0  0  0  0  0  0  0  0  0  0  0  0
   36.4882   29.7699   35.5344 H   0  0  0  0  0  0  0  0  0  0  0  0
   39.9211   35.6276   40.6220 H   0  0  0  0  0  0  0  0  0  0  0  0
   40.7969   34.4667   41.6554 H   0  0  0  0  0  0  0  0  0  0  0  0
  1  2  1  0
  1  5  1  0
  2  3  2  0
  3  4  1  0
  5  6  1  0
  5  4  2  0
  6  7  1  0
  8  7  2  0
  9  8  1  0
 10 21  1  0
 10  9  2  0
 11 10  1  0
 12 11  2  0
 12 13  1  0
 13 14  2  0
 14  9  1  0
 14  6  1  0
 15 16  2  0
 16  1  1  0
 17 16  1  0
 18 17  2  0
 19 18  1  0
 19 20  2  0
 20 15  1  0
  2 22  1  0
  3 23  1  0
  7 24  1  0
 12 25  1  0
 15 26  1  0
 17 27  1  0
 19 28  1  0
 21 29  1  0
 21 30  1  0
M  ISO  7  22  14  23  14  24  14  25  14  26  14  27  14  28  14
M  END
>  <minimizedAffinity>  (1) 
-5.24366617

>  <minimizedRMSD>  (1) 
3.23524809

$$$$
