
     RDKit          3D

 33 36  0  0  0  0  0  0  0  0999 V2000
   38.0220   27.4870   41.5820 N   0  0  0  0  0  0  0  0  0  0  0  0
   37.3510   26.3150   41.7250 C   0  0  0  0  0  0  0  0  0  0  0  0
   38.2500   25.5020   42.3480 C   0  0  0  0  0  0  0  0  0  0  0  0
   39.4050   26.1540   42.5670 N   0  0  0  0  0  0  0  0  0  0  0  0
   39.2530   27.4020   42.0790 C   0  0  0  0  0  0  0  0  0  0  0  0
   40.4190   28.2330   42.2810 C   0  0  0  0  0  0  0  0  0  0  0  0
   40.6230   29.3700   41.4780 C   0  0  0  0  0  0  0  0  0  0  0  0
   41.6370   30.2980   41.5420 C   0  0  0  0  0  0  0  0  0  0  0  0
   42.5580   30.0530   42.5320 C   0  0  0  0  0  0  0  0  0  0  0  0
   42.4780   28.9830   43.3850 C   0  0  0  0  0  0  0  0  0  0  0  0
   43.4060   28.7990   44.3860 C   0  0  0  0  0  0  0  0  0  0  0  0
   43.3190   27.7380   45.2890 C   0  0  0  0  0  0  0  0  0  0  0  0
   42.2410   26.8630   45.1340 C   0  0  0  0  0  0  0  0  0  0  0  0
   41.3480   27.0900   44.1230 C   0  0  0  0  0  0  0  0  0  0  0  0
   41.4170   28.1250   43.2230 C   0  0  0  0  0  0  0  0  0  0  0  0
   36.9230   29.6910   41.8350 C   0  0  0  0  0  0  0  0  0  0  0  0
   37.4500   28.6460   41.0360 C   0  0  0  0  0  0  0  0  0  0  0  0
   37.3890   28.8080   39.6250 C   0  0  0  0  0  0  0  0  0  0  0  0
   36.8360   29.9400   39.1330 N   0  0  0  0  0  0  0  0  0  0  0  0
   36.3360   30.9310   39.9480 C   0  0  0  0  0  0  0  0  0  0  0  0
   36.3800   30.8030   41.3130 N   0  0  0  0  0  0  0  0  0  0  0  0
   36.3236   26.0777   41.4117 H   0  0  0  0  0  0  0  0  0  0  0  0
   38.0572   24.4570   42.6323 H   0  0  0  0  0  0  0  0  0  0  0  0
   39.8708   29.5400   40.6936 H   0  0  0  0  0  0  0  0  0  0  0  0
   41.7044   31.1594   40.8612 H   0  0  0  0  0  0  0  0  0  0  0  0
   43.4013   30.7501   42.6456 H   0  0  0  0  0  0  0  0  0  0  0  0
   44.2408   29.5095   44.4766 H   0  0  0  0  0  0  0  0  0  0  0  0
   44.0645   27.5974   46.0855 H   0  0  0  0  0  0  0  0  0  0  0  0
   42.1126   26.0069   45.8127 H   0  0  0  0  0  0  0  0  0  0  0  0
   40.5075   26.3874   44.0229 H   0  0  0  0  0  0  0  0  0  0  0  0
   36.9602   29.5870   42.9294 H   0  0  0  0  0  0  0  0  0  0  0  0
   37.7815   28.0326   38.9507 H   0  0  0  0  0  0  0  0  0  0  0  0
   35.8968   31.8345   39.4998 H   0  0  0  0  0  0  0  0  0  0  0  0
  1  2  1  0
  1  5  1  0
  2  3  2  0
  3  4  1  0
  5  6  1  0
  5  4  2  0
  6 15  2  0
  7  8  2  0
  7  6  1  0
  8  9  1  0
  9 10  2  0
 10 11  1  0
 11 12  2  0
 13 12  1  0
 14 13  2  0
 15 10  1  0
 15 14  1  0
 17  1  1  0
 17 16  2  0
 18 17  1  0
 19 18  2  0
 19 20  1  0
 20 21  2  0
 21 16  1  0
  2 22  1  0
  3 23  1  0
  7 24  1  0
  8 25  1  0
  9 26  1  0
 11 27  1  0
 12 28  1  0
 13 29  1  0
 14 30  1  0
 16 31  1  0
 18 32  1  0
 20 33  1  0
M  ISO  8  22  14  23  14  24  14  25  14  26  14  27  14  28  14  29  14
M  ISO  4  30  14  31  14  32  14  33  14
M  END
>  <minimizedAffinity>  (1) 
-4.83851719

>  <minimizedRMSD>  (1) 
2.09746814

$$$$
