
     RDKit          3D

 30 32  0  0  0  0  0  0  0  0999 V2000
   38.6880   28.1070   42.7430 N   0  0  0  0  0  0  0  0  0  0  0  0
   38.5290   26.9430   43.4110 C   0  0  0  0  0  0  0  0  0  0  0  0
   39.7740   26.6680   43.9290 C   0  0  0  0  0  0  0  0  0  0  0  0
   40.6620   27.6400   43.5830 N   0  0  0  0  0  0  0  0  0  0  0  0
   39.9420   28.5150   42.8440 C   0  0  0  0  0  0  0  0  0  0  0  0
   37.6320   30.1440   41.8770 C   0  0  0  0  0  0  0  0  0  0  0  0
   37.6780   28.7650   42.0520 C   0  0  0  0  0  0  0  0  0  0  0  0
   36.6060   28.0310   41.4700 C   0  0  0  0  0  0  0  0  0  0  0  0
   35.6260   28.6800   40.7970 N   0  0  0  0  0  0  0  0  0  0  0  0
   35.6440   30.0460   40.6630 C   0  0  0  0  0  0  0  0  0  0  0  0
   36.6570   30.7880   41.2080 N   0  0  0  0  0  0  0  0  0  0  0  0
   42.0010   31.9290   41.2690 C   0  0  0  0  0  0  0  0  0  0  0  0
   40.7370   31.6190   40.8320 C   0  0  0  0  0  0  0  0  0  0  0  0
   40.1130   30.5120   41.3680 C   0  0  0  0  0  0  0  0  0  0  0  0
   40.6780   29.6700   42.3370 C   0  0  0  0  0  0  0  0  0  0  0  0
   41.9690   30.0530   42.7290 C   0  0  0  0  0  0  0  0  0  0  0  0
   42.5900   31.1420   42.2050 C   0  0  0  0  0  0  0  0  0  0  0  0
   42.9140   33.3010   40.6770 S   0  0  0  0  0  0  0  0  0  0  0  0
   42.2620   33.9400   39.5060 O   0  0  0  0  0  0  0  0  0  0  0  0
   43.0570   34.3510   41.7580 O   0  0  0  0  0  0  0  0  0  0  0  0
   37.6098   26.3482   43.5170 H   0  0  0  0  0  0  0  0  0  0  0  0
   40.0178   25.7851   44.5382 H   0  0  0  0  0  0  0  0  0  0  0  0
   38.4430   30.7463   42.3124 H   0  0  0  0  0  0  0  0  0  0  0  0
   36.5735   26.9358   41.5670 H   0  0  0  0  0  0  0  0  0  0  0  0
   34.8361   30.5496   40.1120 H   0  0  0  0  0  0  0  0  0  0  0  0
   40.2348   32.2377   40.0737 H   0  0  0  0  0  0  0  0  0  0  0  0
   39.1007   30.2725   41.0103 H   0  0  0  0  0  0  0  0  0  0  0  0
   42.4958   29.4523   43.4851 H   0  0  0  0  0  0  0  0  0  0  0  0
   43.6034   31.3941   42.5507 H   0  0  0  0  0  0  0  0  0  0  0  0
   44.1408   32.8187   40.3037 H   0  0  0  0  0  0  0  0  0  0  0  0
  1  5  1  0
  1  2  1  0
  2  3  2  0
  4  3  1  0
  5  4  2  0
  6  7  2  0
  7  1  1  0
  8  7  1  0
  9  8  2  0
 10  9  1  0
 10 11  2  0
 11  6  1  0
 12 17  2  0
 13 12  1  0
 13 14  2  0
 14 15  1  0
 15 16  2  0
 15  5  1  0
 17 16  1  0
 18 12  1  0
 18 20  2  0
 19 18  2  0
  2 21  1  0
  3 22  1  0
  6 23  1  0
  8 24  1  0
 10 25  1  0
 13 26  1  0
 14 27  1  0
 16 28  1  0
 17 29  1  0
 18 30  1  0
M  ISO  8  21  14  22  14  23  14  24  14  25  14  26  14  27  14  28  14
M  ISO  2  29  14  30  11
M  END
>  <minimizedAffinity>  (1) 
-4.45859814

>  <minimizedRMSD>  (1) 
0.345020384

$$$$
