
     RDKit          3D

 30 32  0  0  0  0  0  0  0  0999 V2000
   38.5430   28.2250   42.1040 N   0  0  0  0  0  0  0  0  0  0  0  0
   39.6490   28.4430   42.8640 C   0  0  0  0  0  0  0  0  0  0  0  0
   39.8910   27.1960   43.4440 C   0  0  0  0  0  0  0  0  0  0  0  0
   38.9680   26.2940   43.0390 N   0  0  0  0  0  0  0  0  0  0  0  0
   38.1460   26.9670   42.2080 C   0  0  0  0  0  0  0  0  0  0  0  0
   38.4020   29.5480   40.0610 C   0  0  0  0  0  0  0  0  0  0  0  0
   37.9410   29.2180   41.3330 C   0  0  0  0  0  0  0  0  0  0  0  0
   36.8110   29.9410   41.8110 C   0  0  0  0  0  0  0  0  0  0  0  0
   36.2620   30.8950   41.0090 N   0  0  0  0  0  0  0  0  0  0  0  0
   36.7610   31.1750   39.7610 C   0  0  0  0  0  0  0  0  0  0  0  0
   37.8480   30.4940   39.2770 N   0  0  0  0  0  0  0  0  0  0  0  0
   37.0190   26.1870   41.6260 C   0  0  0  0  0  0  0  0  0  0  0  0
   36.9860   24.7760   42.2040 C   0  0  0  0  0  0  0  0  0  0  0  0
   37.1450   23.8100   41.0710 C   0  0  0  0  0  0  0  0  0  0  0  0
   36.5400   24.5960   39.9080 C   0  0  0  0  0  0  0  0  0  0  0  0
   37.1960   25.9350   40.1250 C   0  0  0  0  0  0  0  0  0  0  0  0
   40.2165   29.3767   42.9913 H   0  0  0  0  0  0  0  0  0  0  0  0
   40.7184   26.9773   44.1351 H   0  0  0  0  0  0  0  0  0  0  0  0
   39.2737   29.0018   39.6714 H   0  0  0  0  0  0  0  0  0  0  0  0
   36.3908   29.7334   42.8062 H   0  0  0  0  0  0  0  0  0  0  0  0
   36.2849   31.9518   39.1446 H   0  0  0  0  0  0  0  0  0  0  0  0
   36.1218   26.7837   41.8472 H   0  0  0  0  0  0  0  0  0  0  0  0
   37.8086   24.6474   42.9229 H   0  0  0  0  0  0  0  0  0  0  0  0
   36.0350   24.5989   42.7276 H   0  0  0  0  0  0  0  0  0  0  0  0
   38.2043   23.5759   40.8890 H   0  0  0  0  0  0  0  0  0  0  0  0
   36.6695   22.8336   41.2460 H   0  0  0  0  0  0  0  0  0  0  0  0
   35.4447   24.6610   39.9857 H   0  0  0  0  0  0  0  0  0  0  0  0
   36.7076   24.1545   38.9145 H   0  0  0  0  0  0  0  0  0  0  0  0
   38.2621   25.8976   39.8565 H   0  0  0  0  0  0  0  0  0  0  0  0
   36.7572   26.7303   39.5045 H   0  0  0  0  0  0  0  0  0  0  0  0
  1  5  1  0
  1  2  1  0
  2  3  2  0
  4  3  1  0
  5  4  2  0
  6  7  2  0
  7  8  1  0
  7  1  1  0
  9  8  2  0
 10  9  1  0
 11 10  2  0
 11  6  1  0
 12 13  1  0
 12  5  1  0
 14 13  1  0
 15 16  1  0
 15 14  1  0
 16 12  1  0
  2 17  1  0
  3 18  1  0
  6 19  1  0
  8 20  1  0
 10 21  1  0
 12 22  1  0
 13 23  1  0
 13 24  1  0
 14 25  1  0
 14 26  1  0
 15 27  1  0
 15 28  1  0
 16 29  1  0
 16 30  1  0
M  ISO  8  17  14  18  14  19  14  20  14  21  14  22  13  23  13  24  13
M  ISO  6  25  13  26  13  27  13  28  13  29  13  30  13
M  END
>  <minimizedAffinity>  (1) 
-4.45050287

>  <minimizedRMSD>  (1) 
4.35392904

$$$$
