
     RDKit          3D

 27 29  0  0  0  0  0  0  0  0999 V2000
   38.5380   28.0680   42.4130 N   0  0  0  0  0  0  0  0  0  0  0  0
   38.4610   26.9990   43.2360 C   0  0  0  0  0  0  0  0  0  0  0  0
   39.7420   26.9110   43.7730 C   0  0  0  0  0  0  0  0  0  0  0  0
   40.5570   27.8940   43.2880 N   0  0  0  0  0  0  0  0  0  0  0  0
   39.7690   28.5930   42.4430 C   0  0  0  0  0  0  0  0  0  0  0  0
   40.4040   29.6880   41.7950 N   0  0  0  0  0  0  0  0  0  0  0  0
   41.1570   29.5200   40.6670 C   0  0  0  0  0  0  0  0  0  0  0  0
   41.7950   30.5490   40.0050 C   0  0  0  0  0  0  0  0  0  0  0  0
   41.6690   31.8260   40.5100 C   0  0  0  0  0  0  0  0  0  0  0  0
   42.2250   32.8100   39.9560 O   0  0  0  0  0  0  0  0  0  0  0  0
   40.9290   32.0000   41.6190 N   0  0  0  0  0  0  0  0  0  0  0  0
   40.3270   30.9740   42.2290 C   0  0  0  0  0  0  0  0  0  0  0  0
   39.6390   31.2070   43.2800 O   0  0  0  0  0  0  0  0  0  0  0  0
   36.9620   29.8420   41.7820 C   0  0  0  0  0  0  0  0  0  0  0  0
   37.4870   28.5600   41.6430 C   0  0  0  0  0  0  0  0  0  0  0  0
   36.8880   27.7380   40.6480 C   0  0  0  0  0  0  0  0  0  0  0  0
   35.8620   28.2440   39.9090 N   0  0  0  0  0  0  0  0  0  0  0  0
   35.3900   29.5180   40.0940 C   0  0  0  0  0  0  0  0  0  0  0  0
   35.9470   30.3320   41.0440 N   0  0  0  0  0  0  0  0  0  0  0  0
   37.5932   26.3527   43.4342 H   0  0  0  0  0  0  0  0  0  0  0  0
   40.0584   26.1458   44.4971 H   0  0  0  0  0  0  0  0  0  0  0  0
   41.2608   28.5025   40.2621 H   0  0  0  0  0  0  0  0  0  0  0  0
   42.3881   30.3559   39.0989 H   0  0  0  0  0  0  0  0  0  0  0  0
   40.8233   32.9477   42.0084 H   0  0  0  0  0  0  0  0  0  0  0  0
   37.4055   30.4984   42.5452 H   0  0  0  0  0  0  0  0  0  0  0  0
   37.2472   26.7122   40.4787 H   0  0  0  0  0  0  0  0  0  0  0  0
   34.5590   29.8884   39.4757 H   0  0  0  0  0  0  0  0  0  0  0  0
  1  5  1  0
  1  2  1  0
  2  3  2  0
  4  3  1  0
  5  4  2  0
  6 12  1  0
  6  5  1  0
  7  6  1  0
  8  9  1  0
  8  7  2  0
  9 11  1  0
 10  9  2  0
 11 12  1  0
 12 13  2  0
 15 14  2  0
 15  1  1  0
 16 15  1  0
 17 18  1  0
 17 16  2  0
 18 19  2  0
 19 14  1  0
  2 20  1  0
  3 21  1  0
  7 22  1  0
  8 23  1  0
 11 24  1  0
 14 25  1  0
 16 26  1  0
 18 27  1  0
M  ISO  8  20  14  21  14  22  14  23  14  24   9  25  14  26  14  27  14
M  END
>  <minimizedAffinity>  (1) 
-4.39586163

>  <minimizedRMSD>  (1) 
0.789886355

$$$$
