
     RDKit          3D

 33 35  0  0  0  0  0  0  0  0999 V2000
   38.7090   28.1520   42.3590 N   0  0  0  0  0  0  0  0  0  0  0  0
   38.2600   27.0540   43.0150 C   0  0  0  0  0  0  0  0  0  0  0  0
   39.3700   26.7020   43.7900 C   0  0  0  0  0  0  0  0  0  0  0  0
   40.4220   27.5510   43.5980 N   0  0  0  0  0  0  0  0  0  0  0  0
   39.9720   28.4500   42.6910 C   0  0  0  0  0  0  0  0  0  0  0  0
   37.0040   29.8670   41.9020 C   0  0  0  0  0  0  0  0  0  0  0  0
   37.9290   28.8900   41.4600 C   0  0  0  0  0  0  0  0  0  0  0  0
   38.0450   28.6690   40.0580 C   0  0  0  0  0  0  0  0  0  0  0  0
   37.2660   29.4080   39.2200 N   0  0  0  0  0  0  0  0  0  0  0  0
   36.3800   30.3480   39.6860 C   0  0  0  0  0  0  0  0  0  0  0  0
   36.2450   30.5840   41.0300 N   0  0  0  0  0  0  0  0  0  0  0  0
   40.9680   29.4690   42.2850 C   0  0  0  0  0  0  0  0  0  0  0  0
   42.2670   29.3220   43.0940 C   0  0  0  0  0  0  0  0  0  0  0  0
   43.2540   30.3290   42.5860 C   0  0  0  0  0  0  0  0  0  0  0  0
   42.7410   31.7380   42.6250 C   0  0  0  0  0  0  0  0  0  0  0  0
   41.4140   31.8190   41.9110 C   0  0  0  0  0  0  0  0  0  0  0  0
   40.4670   30.8730   42.6540 C   0  0  0  0  0  0  0  0  0  0  0  0
   37.2763   26.5657   42.9537 H   0  0  0  0  0  0  0  0  0  0  0  0
   39.3927   25.8413   44.4746 H   0  0  0  0  0  0  0  0  0  0  0  0
   36.8962   30.0513   42.9811 H   0  0  0  0  0  0  0  0  0  0  0  0
   38.7464   27.9200   39.6616 H   0  0  0  0  0  0  0  0  0  0  0  0
   35.7700   30.9197   38.9711 H   0  0  0  0  0  0  0  0  0  0  0  0
   41.1273   29.3332   41.2051 H   0  0  0  0  0  0  0  0  0  0  0  0
   42.0643   29.5046   44.1596 H   0  0  0  0  0  0  0  0  0  0  0  0
   42.6708   28.3051   42.9812 H   0  0  0  0  0  0  0  0  0  0  0  0
   43.5040   30.0776   41.5447 H   0  0  0  0  0  0  0  0  0  0  0  0
   44.1323   30.2848   43.2467 H   0  0  0  0  0  0  0  0  0  0  0  0
   42.6122   32.0508   43.6717 H   0  0  0  0  0  0  0  0  0  0  0  0
   43.4629   32.4012   42.1260 H   0  0  0  0  0  0  0  0  0  0  0  0
   41.0266   32.8480   41.9429 H   0  0  0  0  0  0  0  0  0  0  0  0
   41.5119   31.5361   40.8525 H   0  0  0  0  0  0  0  0  0  0  0  0
   39.4294   31.0173   42.3185 H   0  0  0  0  0  0  0  0  0  0  0  0
   40.4654   31.0470   43.7401 H   0  0  0  0  0  0  0  0  0  0  0  0
  1  5  1  0
  1  2  1  0
  2  3  2  0
  4  3  1  0
  5  4  2  0
  7  6  2  0
  7  1  1  0
  8  7  1  0
  9 10  1  0
  9  8  2  0
 10 11  2  0
 11  6  1  0
 12 17  1  0
 12  5  1  0
 12 13  1  0
 14 15  1  0
 14 13  1  0
 16 15  1  0
 16 17  1  0
  2 18  1  0
  3 19  1  0
  6 20  1  0
  8 21  1  0
 10 22  1  0
 12 23  1  0
 13 24  1  0
 13 25  1  0
 14 26  1  0
 14 27  1  0
 15 28  1  0
 15 29  1  0
 16 30  1  0
 16 31  1  0
 17 32  1  0
 17 33  1  0
M  ISO  8  18  14  19  14  20  14  21  14  22  14  23  13  24  13  25  13
M  ISO  8  26  13  27  13  28  13  29  13  30  13  31  13  32  13  33  13
M  END
>  <minimizedAffinity>  (1) 
-3.93549895

>  <minimizedRMSD>  (1) 
1.15916133

$$$$
