
     RDKit          3D

 30 31  0  0  0  0  0  0  0  0999 V2000
   37.5360   30.3190   41.2810 C   0  0  0  0  0  0  0  0  0  0  0  0
   38.4020   29.3860   41.9570 C   0  0  0  0  0  0  0  0  0  0  0  0
   39.7150   29.7910   42.0040 C   0  0  0  0  0  0  0  0  0  0  0  0
   40.1570   30.9500   41.4690 N   0  0  0  0  0  0  0  0  0  0  0  0
   39.2890   31.7910   40.8420 C   0  0  0  0  0  0  0  0  0  0  0  0
   37.9980   31.4620   40.7600 N   0  0  0  0  0  0  0  0  0  0  0  0
   37.8250   28.2090   42.4740 N   0  0  0  0  0  0  0  0  0  0  0  0
   36.9810   28.1540   43.5920 C   0  0  0  0  0  0  0  0  0  0  0  0
   37.2160   28.9970   44.5570 N   0  0  0  0  0  0  0  0  0  0  0  0
   35.9460   27.1570   43.5330 N   0  0  0  0  0  0  0  0  0  0  0  0
   36.6460   29.0280   45.4200 H   0  0  0  0  0  0  0  0  0  0  0  0
   39.9100   33.0010   40.3160 C   0  0  0  0  0  0  0  0  0  0  0  0
   39.6270   34.3110   40.6140 C   0  0  0  0  0  0  0  0  0  0  0  0
   40.4600   35.1550   39.8840 C   0  0  0  0  0  0  0  0  0  0  0  0
   41.2250   34.2620   39.1600 C   0  0  0  0  0  0  0  0  0  0  0  0
   40.8810   33.0400   39.4350 O   0  0  0  0  0  0  0  0  0  0  0  0
   42.2900   34.6620   38.2060 C   0  0  0  0  0  0  0  0  0  0  0  0
   42.3050   33.8100   37.1000 F   0  0  0  0  0  0  0  0  0  0  0  0
   42.0990   35.9710   37.8190 F   0  0  0  0  0  0  0  0  0  0  0  0
   43.5400   34.5130   38.7930 F   0  0  0  0  0  0  0  0  0  0  0  0
   40.4700   36.6330   39.9220 C   0  0  0  0  0  0  0  0  0  0  0  0
   40.9730   37.1090   38.7170 F   0  0  0  0  0  0  0  0  0  0  0  0
   39.2510   37.2080   40.1130 F   0  0  0  0  0  0  0  0  0  0  0  0
   41.3800   37.0400   40.9050 F   0  0  0  0  0  0  0  0  0  0  0  0
   36.4650   30.0850   41.1907 H   0  0  0  0  0  0  0  0  0  0  0  0
   40.4443   29.1365   42.5038 H   0  0  0  0  0  0  0  0  0  0  0  0
   38.0394   27.3229   41.9947 H   0  0  0  0  0  0  0  0  0  0  0  0
   35.2850   27.0539   44.3162 H   0  0  0  0  0  0  0  0  0  0  0  0
   35.8658   26.5462   42.7076 H   0  0  0  0  0  0  0  0  0  0  0  0
   38.8562   34.6445   41.3244 H   0  0  0  0  0  0  0  0  0  0  0  0
  1  2  2  0
  2  3  1  0
  2  7  1  0
  4  3  2  0
  5  4  1  0
  6  5  2  0
  6  1  1  0
  7  8  1  0
  8  9  2  0
  9 11  1  0
 10  8  1  0
 12 13  2  0
 12  5  1  0
 14 21  1  0
 14 13  1  0
 15 16  1  0
 15 14  2  0
 16 12  1  0
 17 20  1  0
 17 15  1  0
 18 17  1  0
 19 17  1  0
 21 23  1  0
 21 24  1  0
 22 21  1  0
  1 25  1  0
  3 26  1  0
  7 27  1  0
 10 28  1  0
 10 29  1  0
 13 30  1  0
M  ISO  3  25  14  26  14  30  14
M  END
>  <minimizedAffinity>  (1) 
-5.91406345

>  <minimizedRMSD>  (1) 
2.17656898

$$$$
