
     RDKit          3D

 25 27  0  0  0  0  0  0  0  0999 V2000
   38.5310   28.0300   42.4350 N   0  0  0  0  0  0  0  0  0  0  0  0
   38.4080   26.9060   43.2120 C   0  0  0  0  0  0  0  0  0  0  0  0
   39.6740   26.8220   43.7910 C   0  0  0  0  0  0  0  0  0  0  0  0
   40.4760   27.8170   43.3850 N   0  0  0  0  0  0  0  0  0  0  0  0
   39.7480   28.5790   42.5200 C   0  0  0  0  0  0  0  0  0  0  0  0
   37.0410   29.8980   41.8210 C   0  0  0  0  0  0  0  0  0  0  0  0
   37.4610   28.5520   41.6820 C   0  0  0  0  0  0  0  0  0  0  0  0
   36.7760   27.7050   40.7510 C   0  0  0  0  0  0  0  0  0  0  0  0
   35.7530   28.2430   40.0420 N   0  0  0  0  0  0  0  0  0  0  0  0
   35.3710   29.5620   40.1990 C   0  0  0  0  0  0  0  0  0  0  0  0
   36.0120   30.4010   41.0900 N   0  0  0  0  0  0  0  0  0  0  0  0
   40.4310   29.6980   41.8660 C   0  0  0  0  0  0  0  0  0  0  0  0
   41.1270   30.6240   42.6030 C   0  0  0  0  0  0  0  0  0  0  0  0
   41.7910   31.7080   42.0900 C   0  0  0  0  0  0  0  0  0  0  0  0
   41.7650   31.8850   40.7660 N   0  0  0  0  0  0  0  0  0  0  0  0
   41.0910   30.9900   40.0390 C   0  0  0  0  0  0  0  0  0  0  0  0
   40.4700   29.9660   40.5730 N   0  0  0  0  0  0  0  0  0  0  0  0
   37.5390   26.2446   43.3437 H   0  0  0  0  0  0  0  0  0  0  0  0
   39.9781   26.0342   44.4960 H   0  0  0  0  0  0  0  0  0  0  0  0
   37.5603   30.5513   42.5377 H   0  0  0  0  0  0  0  0  0  0  0  0
   37.0702   26.6537   40.6160 H   0  0  0  0  0  0  0  0  0  0  0  0
   34.5358   29.9535   39.5996 H   0  0  0  0  0  0  0  0  0  0  0  0
   41.1540   30.4847   43.6938 H   0  0  0  0  0  0  0  0  0  0  0  0
   42.3274   32.4088   42.7466 H   0  0  0  0  0  0  0  0  0  0  0  0
   41.0554   31.1172   38.9470 H   0  0  0  0  0  0  0  0  0  0  0  0
  1  5  1  0
  1  2  1  0
  2  3  2  0
  4  3  1  0
  5  4  2  0
  7  6  2  0
  7  1  1  0
  8  7  1  0
  9 10  1  0
  9  8  2  0
 10 11  2  0
 11  6  1  0
 12  5  1  0
 12 13  2  0
 14 13  1  0
 15 14  2  0
 16 17  2  0
 16 15  1  0
 17 12  1  0
  2 18  1  0
  3 19  1  0
  6 20  1  0
  8 21  1  0
 10 22  1  0
 13 23  1  0
 14 24  1  0
 16 25  1  0
M  ISO  8  18  14  19  14  20  14  21  14  22  14  23  14  24  14  25  14
M  END
>  <minimizedAffinity>  (1) 
-3.87143183

>  <minimizedRMSD>  (1) 
0.933941841

$$$$
