
     RDKit          3D

 20 21  0  0  0  0  0  0  0  0999 V2000
   38.4940   27.9020   42.4810 N   0  0  0  0  0  0  0  0  0  0  0  0
   38.3680   26.6740   43.0550 C   0  0  0  0  0  0  0  0  0  0  0  0
   39.5880   26.5400   43.7360 C   0  0  0  0  0  0  0  0  0  0  0  0
   40.3770   27.6360   43.5620 N   0  0  0  0  0  0  0  0  0  0  0  0
   39.6710   28.4710   42.7730 C   0  0  0  0  0  0  0  0  0  0  0  0
   37.0330   29.8000   41.9210 C   0  0  0  0  0  0  0  0  0  0  0  0
   37.4900   28.4880   41.6980 C   0  0  0  0  0  0  0  0  0  0  0  0
   36.8940   27.7590   40.6260 C   0  0  0  0  0  0  0  0  0  0  0  0
   35.9260   28.3680   39.8860 N   0  0  0  0  0  0  0  0  0  0  0  0
   35.5190   29.6570   40.1500 C   0  0  0  0  0  0  0  0  0  0  0  0
   36.0760   30.3840   41.1780 N   0  0  0  0  0  0  0  0  0  0  0  0
   40.3630   29.7360   42.4210 C   0  0  0  0  0  0  0  0  0  0  0  0
   41.6590   29.8080   42.8890 F   0  0  0  0  0  0  0  0  0  0  0  0
   39.7450   30.8530   43.0380 F   0  0  0  0  0  0  0  0  0  0  0  0
   40.2250   29.9990   41.0790 F   0  0  0  0  0  0  0  0  0  0  0  0
   37.5262   25.9681   42.9994 H   0  0  0  0  0  0  0  0  0  0  0  0
   39.8708   25.6613   44.3342 H   0  0  0  0  0  0  0  0  0  0  0  0
   37.4807   30.3767   42.7438 H   0  0  0  0  0  0  0  0  0  0  0  0
   37.2089   26.7291   40.4023 H   0  0  0  0  0  0  0  0  0  0  0  0
   34.7349   30.1139   39.5284 H   0  0  0  0  0  0  0  0  0  0  0  0
  1  5  1  0
  1  2  1  0
  2  3  2  0
  4  3  1  0
  5  4  2  0
  7  6  2  0
  7  1  1  0
  8  7  1  0
  9 10  1  0
  9  8  2  0
 10 11  2  0
 11  6  1  0
 12  5  1  0
 12 13  1  0
 12 14  1  0
 15 12  1  0
  2 16  1  0
  3 17  1  0
  6 18  1  0
  8 19  1  0
 10 20  1  0
M  ISO  5  16  14  17  14  18  14  19  14  20  14
M  END
>  <minimizedAffinity>  (1) 
-3.7336843

>  <minimizedRMSD>  (1) 
0.768324077

$$$$
