
     RDKit          3D

 23 25  0  0  0  0  0  0  0  0999 V2000
   38.5550   28.0200   42.4290 N   0  0  0  0  0  0  0  0  0  0  0  0
   38.4180   26.8930   43.1960 C   0  0  0  0  0  0  0  0  0  0  0  0
   39.6760   26.8010   43.8070 C   0  0  0  0  0  0  0  0  0  0  0  0
   40.4800   27.8070   43.4130 N   0  0  0  0  0  0  0  0  0  0  0  0
   39.7560   28.5590   42.5440 C   0  0  0  0  0  0  0  0  0  0  0  0
   37.0750   29.8850   41.8250 C   0  0  0  0  0  0  0  0  0  0  0  0
   37.4880   28.5340   41.6720 C   0  0  0  0  0  0  0  0  0  0  0  0
   36.7910   27.7160   40.7400 C   0  0  0  0  0  0  0  0  0  0  0  0
   35.7680   28.2640   40.0400 N   0  0  0  0  0  0  0  0  0  0  0  0
   35.3960   29.5830   40.2130 C   0  0  0  0  0  0  0  0  0  0  0  0
   36.0470   30.4080   41.1080 N   0  0  0  0  0  0  0  0  0  0  0  0
   40.4160   29.7130   41.8810 C   0  0  0  0  0  0  0  0  0  0  0  0
   40.6730   30.9190   42.5730 C   0  0  0  0  0  0  0  0  0  0  0  0
   41.4780   31.9740   41.3080 S   0  0  0  0  0  0  0  0  0  0  0  0
   41.3440   30.6020   40.0110 C   0  0  0  0  0  0  0  0  0  0  0  0
   40.8450   29.8410   40.6620 N   0  0  0  0  0  0  0  0  0  0  0  0
   37.5460   26.2313   43.3043 H   0  0  0  0  0  0  0  0  0  0  0  0
   39.9681   26.0113   44.5149 H   0  0  0  0  0  0  0  0  0  0  0  0
   37.6037   30.5263   42.5456 H   0  0  0  0  0  0  0  0  0  0  0  0
   37.0755   26.6639   40.5910 H   0  0  0  0  0  0  0  0  0  0  0  0
   34.5599   29.9861   39.6227 H   0  0  0  0  0  0  0  0  0  0  0  0
   40.4445   31.1654   43.6204 H   0  0  0  0  0  0  0  0  0  0  0  0
   41.6561   30.5648   38.9569 H   0  0  0  0  0  0  0  0  0  0  0  0
  1  5  1  0
  1  2  1  0
  2  3  2  0
  4  3  1  0
  5  4  2  0
  7  6  2  0
  7  1  1  0
  8  7  1  0
  9 10  1  0
  9  8  2  0
 10 11  2  0
 11  6  1  0
 12  5  1  0
 12 13  2  0
 14 13  1  0
 15 16  2  0
 15 14  1  0
 16 12  1  0
  2 17  1  0
  3 18  1  0
  6 19  1  0
  8 20  1  0
 10 21  1  0
 13 22  1  0
 15 23  1  0
M  ISO  7  17  14  18  14  19  14  20  14  21  14  22  14  23  14
M  END
>  <minimizedAffinity>  (1) 
-3.71285677

>  <minimizedRMSD>  (1) 
0.766626775

$$$$
