
     RDKit          3D

 22 24  0  0  0  0  0  0  0  0999 V2000
   38.5230   27.9700   42.4610 N   0  0  0  0  0  0  0  0  0  0  0  0
   38.4190   26.7730   43.1130 C   0  0  0  0  0  0  0  0  0  0  0  0
   39.6580   26.6710   43.7550 C   0  0  0  0  0  0  0  0  0  0  0  0
   40.4330   27.7350   43.4940 N   0  0  0  0  0  0  0  0  0  0  0  0
   39.6970   28.5420   42.6710 C   0  0  0  0  0  0  0  0  0  0  0  0
   37.0760   29.8610   41.8520 C   0  0  0  0  0  0  0  0  0  0  0  0
   37.4680   28.5040   41.7050 C   0  0  0  0  0  0  0  0  0  0  0  0
   36.7660   27.6900   40.7620 C   0  0  0  0  0  0  0  0  0  0  0  0
   35.7560   28.2710   40.0520 N   0  0  0  0  0  0  0  0  0  0  0  0
   35.4090   29.5960   40.2230 C   0  0  0  0  0  0  0  0  0  0  0  0
   36.0660   30.4070   41.1260 N   0  0  0  0  0  0  0  0  0  0  0  0
   40.3730   29.7620   42.1800 C   0  0  0  0  0  0  0  0  0  0  0  0
   40.6430   30.9530   42.7230 N   0  0  0  0  0  0  0  0  0  0  0  0
   41.2700   31.7270   41.9020 O   0  0  0  0  0  0  0  0  0  0  0  0
   41.4600   31.1150   40.7690 C   0  0  0  0  0  0  0  0  0  0  0  0
   40.9070   29.9250   40.9620 N   0  0  0  0  0  0  0  0  0  0  0  0
   37.5746   26.0681   43.1289 H   0  0  0  0  0  0  0  0  0  0  0  0
   39.9585   25.8264   44.3924 H   0  0  0  0  0  0  0  0  0  0  0  0
   37.6086   30.4918   42.5789 H   0  0  0  0  0  0  0  0  0  0  0  0
   37.0309   26.6327   40.6142 H   0  0  0  0  0  0  0  0  0  0  0  0
   34.5876   30.0164   39.6241 H   0  0  0  0  0  0  0  0  0  0  0  0
   41.9604   31.4946   39.8659 H   0  0  0  0  0  0  0  0  0  0  0  0
  1  5  1  0
  1  2  1  0
  2  3  2  0
  4  3  1  0
  5  4  2  0
  7  6  2  0
  7  1  1  0
  8  7  1  0
  9 10  1  0
  9  8  2  0
 10 11  2  0
 11  6  1  0
 12  5  1  0
 12 13  2  0
 14 13  1  0
 15 16  2  0
 15 14  1  0
 16 12  1  0
  2 17  1  0
  3 18  1  0
  6 19  1  0
  8 20  1  0
 10 21  1  0
 15 22  1  0
M  ISO  6  17  14  18  14  19  14  20  14  21  14  22  14
M  END
>  <minimizedAffinity>  (1) 
-3.71074438

>  <minimizedRMSD>  (1) 
0.92031908

$$$$
