
     RDKit          3D

 18 19  0  0  0  0  0  0  0  0999 V2000
   37.7450   30.0940   41.7150 C   0  0  0  0  0  0  0  0  0  0  0  0
   37.5800   28.7180   41.8870 C   0  0  0  0  0  0  0  0  0  0  0  0
   36.3880   28.1360   41.3840 C   0  0  0  0  0  0  0  0  0  0  0  0
   35.4860   28.9350   40.7720 N   0  0  0  0  0  0  0  0  0  0  0  0
   35.6940   30.2830   40.6290 C   0  0  0  0  0  0  0  0  0  0  0  0
   36.8290   30.8710   41.1010 N   0  0  0  0  0  0  0  0  0  0  0  0
   38.5320   27.9160   42.5230 N   0  0  0  0  0  0  0  0  0  0  0  0
   38.4040   27.3730   43.7490 C   0  0  0  0  0  0  0  0  0  0  0  0
   39.5910   26.6690   43.9400 C   0  0  0  0  0  0  0  0  0  0  0  0
   40.4010   26.7960   42.8520 N   0  0  0  0  0  0  0  0  0  0  0  0
   39.7140   27.5710   42.0000 C   0  0  0  0  0  0  0  0  0  0  0  0
   40.3250   27.8610   40.7850 O   0  0  0  0  0  0  0  0  0  0  0  0
   38.6626   30.5652   42.0971 H   0  0  0  0  0  0  0  0  0  0  0  0
   36.2018   27.0571   41.4899 H   0  0  0  0  0  0  0  0  0  0  0  0
   34.9336   30.8984   40.1260 H   0  0  0  0  0  0  0  0  0  0  0  0
   37.5548   27.4646   44.4422 H   0  0  0  0  0  0  0  0  0  0  0  0
   39.8393   26.0916   44.8427 H   0  0  0  0  0  0  0  0  0  0  0  0
   41.2249   27.5001   40.5849 H   0  0  0  0  0  0  0  0  0  0  0  0
  1  2  2  0
  2  7  1  0
  3  2  1  0
  4  3  2  0
  5  4  1  0
  5  6  2  0
  6  1  1  0
  7  8  1  0
  8  9  2  0
 10  9  1  0
 11  7  1  0
 11 10  2  0
 12 11  1  0
  1 13  1  0
  3 14  1  0
  5 15  1  0
  8 16  1  0
  9 17  1  0
 12 18  1  0
M  ISO  6  13  14  14  14  15  14  16  14  17  14  18   3
M  END
>  <minimizedAffinity>  (1) 
-3.28491759

>  <minimizedRMSD>  (1) 
0.844623804

$$$$
