
     RDKit          3D

 38 40  0  0  0  0  0  0  0  0999 V2000
   40.6740   30.9190   40.7950 C   0  0  0  0  0  0  0  0  0  0  0  0
   40.0610   32.1390   41.0560 C   0  0  0  0  0  0  0  0  0  0  0  0
   40.5560   33.1050   40.1820 C   0  0  0  0  0  0  0  0  0  0  0  0
   41.4600   32.4030   39.4240 C   0  0  0  0  0  0  0  0  0  0  0  0
   41.5060   31.1560   39.7970 O   0  0  0  0  0  0  0  0  0  0  0  0
   40.1470   34.4650   40.1720 N   0  0  0  0  0  0  0  0  0  0  0  0
   41.0830   35.3820   40.4640 C   0  0  0  0  0  0  0  0  0  0  0  0
   40.7840   36.7470   40.4810 C   0  0  0  0  0  0  0  0  0  0  0  0
   39.4910   37.1260   40.1880 C   0  0  0  0  0  0  0  0  0  0  0  0
   39.1490   38.4890   40.1950 N   0  0  0  0  0  0  0  0  0  0  0  0
   38.5680   36.1850   39.8980 N   0  0  0  0  0  0  0  0  0  0  0  0
   38.8900   34.8650   39.8890 C   0  0  0  0  0  0  0  0  0  0  0  0
   38.0190   33.9990   39.6160 O   0  0  0  0  0  0  0  0  0  0  0  0
   40.9550   27.4020   41.9260 C   0  0  0  0  0  0  0  0  0  0  0  0
   39.8640   27.3030   42.8330 C   0  0  0  0  0  0  0  0  0  0  0  0
   39.1240   28.4720   42.9700 C   0  0  0  0  0  0  0  0  0  0  0  0
   39.4160   29.6070   42.3010 N   0  0  0  0  0  0  0  0  0  0  0  0
   40.4780   29.6400   41.4440 C   0  0  0  0  0  0  0  0  0  0  0  0
   41.2180   28.5430   41.2790 N   0  0  0  0  0  0  0  0  0  0  0  0
   39.6180   26.0730   43.5020 N   0  0  0  0  0  0  0  0  0  0  0  0
   39.0330   24.9420   42.8830 C   0  0  0  0  0  0  0  0  0  0  0  0
   38.0770   25.1770   42.0060 N   0  0  0  0  0  0  0  0  0  0  0  0
   39.5770   23.6860   43.3090 N   0  0  0  0  0  0  0  0  0  0  0  0
   37.5830   24.4130   41.5500 H   0  0  0  0  0  0  0  0  0  0  0  0
   42.2560   33.0160   38.3380 C   0  0  0  0  0  0  0  0  0  0  0  0
   42.9080   32.0200   37.5980 F   0  0  0  0  0  0  0  0  0  0  0  0
   41.4280   33.7450   37.5020 F   0  0  0  0  0  0  0  0  0  0  0  0
   43.2540   33.8140   38.8370 F   0  0  0  0  0  0  0  0  0  0  0  0
   39.3022   32.3148   41.8327 H   0  0  0  0  0  0  0  0  0  0  0  0
   42.1067   35.0520   40.6947 H   0  0  0  0  0  0  0  0  0  0  0  0
   41.5547   37.4945   40.7202 H   0  0  0  0  0  0  0  0  0  0  0  0
   38.1851   38.7792   39.9771 H   0  0  0  0  0  0  0  0  0  0  0  0
   39.8623   39.1978   40.4181 H   0  0  0  0  0  0  0  0  0  0  0  0
   41.5946   26.5239   41.7532 H   0  0  0  0  0  0  0  0  0  0  0  0
   38.2625   28.4717   43.6539 H   0  0  0  0  0  0  0  0  0  0  0  0
   39.8808   26.0004   44.4953 H   0  0  0  0  0  0  0  0  0  0  0  0
   39.2141   22.8069   42.9135 H   0  0  0  0  0  0  0  0  0  0  0  0
   40.3308   23.6626   44.0106 H   0  0  0  0  0  0  0  0  0  0  0  0
  1  2  2  0
  1 18  1  0
  3  2  1  0
  4  5  1  0
  4  3  2  0
  5  1  1  0
  6  3  1  0
  6  7  1  0
  7  8  2  0
  9 10  1  0
  9  8  1  0
 11  9  2  0
 12 11  1  0
 12  6  1  0
 13 12  2  0
 14 15  2  0
 15 16  1  0
 15 20  1  0
 17 16  2  0
 18 17  1  0
 19 18  2  0
 19 14  1  0
 21 23  1  0
 21 20  1  0
 22 21  2  0
 24 22  1  0
 25 28  1  0
 25  4  1  0
 26 25  1  0
 27 25  1  0
  2 29  1  0
  7 30  1  0
  8 31  1  0
 10 32  1  0
 10 33  1  0
 14 34  1  0
 16 35  1  0
 20 36  1  0
 23 37  1  0
 23 38  1  0
M  ISO  5  29  14  30  14  31  14  34  14  35  14
M  END
>  <minimizedAffinity>  (1) 
-5.70673275

>  <minimizedRMSD>  (1) 
3.65532088

$$$$
