
     RDKit          3D

 44 48  0  0  0  0  0  0  0  0999 V2000
   36.8760   28.5090   41.9000 N   0  0  0  0  0  0  0  0  0  0  0  0
   36.4840   27.5840   42.7950 C   0  0  0  0  0  0  0  0  0  0  0  0
   37.2310   27.8560   43.9140 C   0  0  0  0  0  0  0  0  0  0  0  0
   38.0660   28.9310   43.7030 N   0  0  0  0  0  0  0  0  0  0  0  0
   37.8160   29.3100   42.4390 C   0  0  0  0  0  0  0  0  0  0  0  0
   38.5680   30.4160   41.9850 N   0  0  0  0  0  0  0  0  0  0  0  0
   39.8750   30.6080   42.3630 C   0  0  0  0  0  0  0  0  0  0  0  0
   40.3790   31.7490   41.7910 N   0  0  0  0  0  0  0  0  0  0  0  0
   39.3990   32.2830   41.0500 C   0  0  0  0  0  0  0  0  0  0  0  0
   39.3330   33.4100   40.2670 C   0  0  0  0  0  0  0  0  0  0  0  0
   38.1620   33.6410   39.6580 N   0  0  0  0  0  0  0  0  0  0  0  0
   37.0910   32.8460   39.7770 C   0  0  0  0  0  0  0  0  0  0  0  0
   37.1290   31.7250   40.5470 N   0  0  0  0  0  0  0  0  0  0  0  0
   38.2930   31.4710   41.1690 C   0  0  0  0  0  0  0  0  0  0  0  0
   35.0910   29.0130   40.2870 C   0  0  0  0  0  0  0  0  0  0  0  0
   36.3890   28.6370   40.5950 C   0  0  0  0  0  0  0  0  0  0  0  0
   37.2450   28.3740   39.5020 C   0  0  0  0  0  0  0  0  0  0  0  0
   36.7770   28.4960   38.2300 N   0  0  0  0  0  0  0  0  0  0  0  0
   35.4860   28.8710   37.9920 C   0  0  0  0  0  0  0  0  0  0  0  0
   34.6230   29.1350   39.0340 N   0  0  0  0  0  0  0  0  0  0  0  0
   34.9460   29.0130   36.6860 N   0  0  0  0  0  0  0  0  0  0  0  0
   35.7620   29.0880   35.4900 C   0  0  0  0  0  0  0  0  0  0  0  0
   35.2220   28.2670   34.3650 C   0  0  0  0  0  0  0  0  0  0  0  0
   33.8430   27.8880   34.5250 N   0  0  0  0  0  0  0  0  0  0  0  0
   33.1270   29.0350   35.0600 C   0  0  0  0  0  0  0  0  0  0  0  0
   33.4980   29.0900   36.5330 C   0  0  0  0  0  0  0  0  0  0  0  0
   40.4570   34.2890   40.1110 N   0  0  0  0  0  0  0  0  0  0  0  0
   35.7348   26.7899   42.6605 H   0  0  0  0  0  0  0  0  0  0  0  0
   37.1707   27.2900   44.8553 H   0  0  0  0  0  0  0  0  0  0  0  0
   40.4387   29.9402   43.0310 H   0  0  0  0  0  0  0  0  0  0  0  0
   36.1645   33.1038   39.2430 H   0  0  0  0  0  0  0  0  0  0  0  0
   34.4028   29.2242   41.1187 H   0  0  0  0  0  0  0  0  0  0  0  0
   38.2876   28.0712   39.6789 H   0  0  0  0  0  0  0  0  0  0  0  0
   35.8131   30.1377   35.1653 H   0  0  0  0  0  0  0  0  0  0  0  0
   36.7553   28.6886   35.7427 H   0  0  0  0  0  0  0  0  0  0  0  0
   35.8253   27.3507   34.2851 H   0  0  0  0  0  0  0  0  0  0  0  0
   35.2771   28.8913   33.4610 H   0  0  0  0  0  0  0  0  0  0  0  0
   33.4450   27.6203   33.6135 H   0  0  0  0  0  0  0  0  0  0  0  0
   33.4408   29.9573   34.5492 H   0  0  0  0  0  0  0  0  0  0  0  0
   32.0405   28.9437   34.9145 H   0  0  0  0  0  0  0  0  0  0  0  0
   33.1358   30.0347   36.9648 H   0  0  0  0  0  0  0  0  0  0  0  0
   33.0342   28.2395   37.0541 H   0  0  0  0  0  0  0  0  0  0  0  0
   40.3771   35.1267   39.5171 H   0  0  0  0  0  0  0  0  0  0  0  0
   41.3434   34.0820   40.5930 H   0  0  0  0  0  0  0  0  0  0  0  0
  1  5  1  0
  1  2  1  0
  2  3  2  0
  4  3  1  0
  5  4  2  0
  6  7  1  0
  6  5  1  0
  8  7  2  0
  9 14  2  0
  9  8  1  0
 10  9  1  0
 11 12  1  0
 11 10  2  0
 12 13  2  0
 13 14  1  0
 14  6  1  0
 15 16  2  0
 16  1  1  0
 17 16  1  0
 18 17  2  0
 19 18  1  0
 19 20  2  0
 20 15  1  0
 21 19  1  0
 22 21  1  0
 23 24  1  0
 23 22  1  0
 24 25  1  0
 25 26  1  0
 26 21  1  0
 27 10  1  0
  2 28  1  0
  3 29  1  0
  7 30  1  0
 12 31  1  0
 15 32  1  0
 17 33  1  0
 22 34  1  0
 22 35  1  0
 23 36  1  0
 23 37  1  0
 24 38  1  0
 25 39  1  0
 25 40  1  0
 26 41  1  0
 26 42  1  0
 27 43  1  0
 27 44  1  0
M  ISO  8  28  14  29  14  30  14  31  14  32  14  33  14  34  13  35  13
M  ISO  7  36  13  37  13  38   5  39  13  40  13  41  13  42  13
M  END
>  <minimizedAffinity>  (1) 
-6.50761223

>  <minimizedRMSD>  (1) 
1.63938344

$$$$
