
     RDKit          3D

 40 44  0  0  0  0  0  0  0  0999 V2000
   37.3460   28.2920   41.8030 N   0  0  0  0  0  0  0  0  0  0  0  0
   37.2130   27.3250   42.7210 C   0  0  0  0  0  0  0  0  0  0  0  0
   38.2120   27.5630   43.6270 C   0  0  0  0  0  0  0  0  0  0  0  0
   38.9450   28.6640   43.2620 N   0  0  0  0  0  0  0  0  0  0  0  0
   38.3840   29.0900   42.1310 C   0  0  0  0  0  0  0  0  0  0  0  0
   38.9840   30.2420   41.5550 N   0  0  0  0  0  0  0  0  0  0  0  0
   40.3410   30.4530   41.5980 C   0  0  0  0  0  0  0  0  0  0  0  0
   40.6660   31.6260   40.9770 N   0  0  0  0  0  0  0  0  0  0  0  0
   39.5270   32.1660   40.5370 C   0  0  0  0  0  0  0  0  0  0  0  0
   39.2570   33.3330   39.8480 C   0  0  0  0  0  0  0  0  0  0  0  0
   37.9570   33.5540   39.5670 N   0  0  0  0  0  0  0  0  0  0  0  0
   36.9630   32.7250   39.9150 C   0  0  0  0  0  0  0  0  0  0  0  0
   37.2160   31.5760   40.5930 N   0  0  0  0  0  0  0  0  0  0  0  0
   38.4910   31.3280   40.8840 C   0  0  0  0  0  0  0  0  0  0  0  0
   35.2540   28.9770   40.7120 C   0  0  0  0  0  0  0  0  0  0  0  0
   36.5450   28.4690   40.6680 C   0  0  0  0  0  0  0  0  0  0  0  0
   37.0520   28.1200   39.3960 C   0  0  0  0  0  0  0  0  0  0  0  0
   36.2700   28.2940   38.3010 N   0  0  0  0  0  0  0  0  0  0  0  0
   35.0000   28.8010   38.4030 C   0  0  0  0  0  0  0  0  0  0  0  0
   34.4820   29.1490   39.6300 N   0  0  0  0  0  0  0  0  0  0  0  0
   34.1340   29.0020   37.2550 C   0  0  0  0  0  0  0  0  0  0  0  0
   34.6710   29.0430   35.9800 C   0  0  0  0  0  0  0  0  0  0  0  0
   33.8720   29.2330   34.8670 C   0  0  0  0  0  0  0  0  0  0  0  0
   32.5070   29.3890   34.9870 C   0  0  0  0  0  0  0  0  0  0  0  0
   31.9680   29.3490   36.2510 C   0  0  0  0  0  0  0  0  0  0  0  0
   32.7720   29.1600   37.3560 C   0  0  0  0  0  0  0  0  0  0  0  0
   40.2820   34.2430   39.4590 N   0  0  0  0  0  0  0  0  0  0  0  0
   36.4660   26.5178   42.7422 H   0  0  0  0  0  0  0  0  0  0  0  0
   38.4008   26.9551   44.5241 H   0  0  0  0  0  0  0  0  0  0  0  0
   41.0658   29.7717   42.0675 H   0  0  0  0  0  0  0  0  0  0  0  0
   35.9268   32.9792   39.6474 H   0  0  0  0  0  0  0  0  0  0  0  0
   34.8402   29.2548   41.6926 H   0  0  0  0  0  0  0  0  0  0  0  0
   38.0686   27.7121   39.2948 H   0  0  0  0  0  0  0  0  0  0  0  0
   35.7564   28.9219   35.8490 H   0  0  0  0  0  0  0  0  0  0  0  0
   34.3334   29.2601   33.8688 H   0  0  0  0  0  0  0  0  0  0  0  0
   31.8715   29.5402   34.1019 H   0  0  0  0  0  0  0  0  0  0  0  0
   30.8826   29.4691   36.3829 H   0  0  0  0  0  0  0  0  0  0  0  0
   32.3072   29.1348   38.3526 H   0  0  0  0  0  0  0  0  0  0  0  0
   40.0399   35.1028   38.9462 H   0  0  0  0  0  0  0  0  0  0  0  0
   41.2651   34.0410   39.6906 H   0  0  0  0  0  0  0  0  0  0  0  0
  1  5  1  0
  1  2  1  0
  2  3  2  0
  4  3  1  0
  5  4  2  0
  6  7  1  0
  6  5  1  0
  8  7  2  0
  9 14  2  0
  9  8  1  0
 10  9  1  0
 11 10  2  0
 11 12  1  0
 12 13  2  0
 13 14  1  0
 14  6  1  0
 16 15  2  0
 16  1  1  0
 17 16  1  0
 18 19  1  0
 18 17  2  0
 19 20  2  0
 20 15  1  0
 21 26  1  0
 21 19  1  0
 22 21  2  0
 23 24  2  0
 23 22  1  0
 24 25  1  0
 25 26  2  0
 27 10  1  0
  2 28  1  0
  3 29  1  0
  7 30  1  0
 12 31  1  0
 15 32  1  0
 17 33  1  0
 22 34  1  0
 23 35  1  0
 24 36  1  0
 25 37  1  0
 26 38  1  0
 27 39  1  0
 27 40  1  0
M  ISO  8  28  14  29  14  30  14  31  14  32  14  33  14  34  14  35  14
M  ISO  3  36  14  37  14  38  14
M  END
>  <minimizedAffinity>  (1) 
-6.48513412

>  <minimizedRMSD>  (1) 
2.21057796

$$$$
