
     RDKit          3D

 44 49  0  0  0  0  0  0  0  0999 V2000
   38.4460   27.5220   41.7060 N   0  0  0  0  0  0  0  0  0  0  0  0
   38.4070   26.3870   42.4200 C   0  0  0  0  0  0  0  0  0  0  0  0
   39.2170   26.6420   43.5030 C   0  0  0  0  0  0  0  0  0  0  0  0
   39.7290   27.8980   43.4420 N   0  0  0  0  0  0  0  0  0  0  0  0
   39.2350   28.4290   42.3130 C   0  0  0  0  0  0  0  0  0  0  0  0
   39.6490   29.7720   42.0360 N   0  0  0  0  0  0  0  0  0  0  0  0
   40.9120   30.2110   42.3260 C   0  0  0  0  0  0  0  0  0  0  0  0
   41.0550   31.5200   41.9640 N   0  0  0  0  0  0  0  0  0  0  0  0
   39.8770   31.9140   41.4410 C   0  0  0  0  0  0  0  0  0  0  0  0
   39.4430   33.1120   40.9170 C   0  0  0  0  0  0  0  0  0  0  0  0
   38.1640   33.1330   40.4780 N   0  0  0  0  0  0  0  0  0  0  0  0
   37.3360   32.0750   40.5300 C   0  0  0  0  0  0  0  0  0  0  0  0
   37.7520   30.8920   41.0430 N   0  0  0  0  0  0  0  0  0  0  0  0
   39.0130   30.8410   41.4860 C   0  0  0  0  0  0  0  0  0  0  0  0
   38.3890   27.9230   39.2880 C   0  0  0  0  0  0  0  0  0  0  0  0
   37.7690   27.7510   40.5070 C   0  0  0  0  0  0  0  0  0  0  0  0
   36.3610   27.8100   40.4900 C   0  0  0  0  0  0  0  0  0  0  0  0
   35.7220   28.0200   39.3280 N   0  0  0  0  0  0  0  0  0  0  0  0
   36.3550   28.1830   38.1480 C   0  0  0  0  0  0  0  0  0  0  0  0
   37.7110   28.1320   38.1430 N   0  0  0  0  0  0  0  0  0  0  0  0
   35.8550   28.4200   36.7790 C   0  0  0  0  0  0  0  0  0  0  0  0
   36.5980   28.2820   35.6650 N   0  0  0  0  0  0  0  0  0  0  0  0
   36.1340   28.4990   34.4470 C   0  0  0  0  0  0  0  0  0  0  0  0
   34.8860   28.8730   34.2050 N   0  0  0  0  0  0  0  0  0  0  0  0
   34.0440   29.0430   35.2650 C   0  0  0  0  0  0  0  0  0  0  0  0
   32.7540   29.4310   34.9940 C   0  0  0  0  0  0  0  0  0  0  0  0
   31.8770   29.6140   36.0280 C   0  0  0  0  0  0  0  0  0  0  0  0
   32.3460   29.3910   37.3290 C   0  0  0  0  0  0  0  0  0  0  0  0
   33.6530   29.0030   37.5100 C   0  0  0  0  0  0  0  0  0  0  0  0
   34.5580   28.8110   36.5080 C   0  0  0  0  0  0  0  0  0  0  0  0
   40.2870   34.2610   40.8430 N   0  0  0  0  0  0  0  0  0  0  0  0
   37.8541   25.4638   42.1920 H   0  0  0  0  0  0  0  0  0  0  0  0
   39.4223   25.9238   44.3105 H   0  0  0  0  0  0  0  0  0  0  0  0
   41.7004   29.5967   42.7855 H   0  0  0  0  0  0  0  0  0  0  0  0
   36.3077   32.1711   40.1512 H   0  0  0  0  0  0  0  0  0  0  0  0
   39.4877   27.8880   39.2484 H   0  0  0  0  0  0  0  0  0  0  0  0
   35.7899   27.6849   41.4217 H   0  0  0  0  0  0  0  0  0  0  0  0
   36.8154   28.3629   33.5943 H   0  0  0  0  0  0  0  0  0  0  0  0
   32.4295   29.5929   33.9555 H   0  0  0  0  0  0  0  0  0  0  0  0
   30.8383   29.9258   35.8439 H   0  0  0  0  0  0  0  0  0  0  0  0
   31.6787   29.5243   38.1932 H   0  0  0  0  0  0  0  0  0  0  0  0
   33.9945   28.8346   38.5420 H   0  0  0  0  0  0  0  0  0  0  0  0
   39.9268   35.1398   40.4444 H   0  0  0  0  0  0  0  0  0  0  0  0
   41.2561   34.2112   41.1882 H   0  0  0  0  0  0  0  0  0  0  0  0
  1  5  1  0
  1  2  1  0
  2  3  2  0
  4  3  1  0
  5  4  2  0
  6  5  1  0
  6  7  1  0
  8  7  2  0
  9 14  2  0
  9  8  1  0
 10  9  1  0
 11 12  1  0
 11 10  2  0
 12 13  2  0
 13 14  1  0
 14  6  1  0
 15 16  2  0
 16  1  1  0
 17 16  1  0
 18 17  2  0
 19 18  1  0
 20 19  2  0
 20 15  1  0
 21 19  1  0
 22 21  2  0
 23 22  1  0
 24 23  2  0
 24 25  1  0
 25 30  2  0
 26 25  1  0
 26 27  2  0
 27 28  1  0
 28 29  2  0
 30 21  1  0
 30 29  1  0
 31 10  1  0
  2 32  1  0
  3 33  1  0
  7 34  1  0
 12 35  1  0
 15 36  1  0
 17 37  1  0
 23 38  1  0
 26 39  1  0
 27 40  1  0
 28 41  1  0
 29 42  1  0
 31 43  1  0
 31 44  1  0
M  ISO  8  32  14  33  14  34  14  35  14  36  14  37  14  38  14  39  14
M  ISO  3  40  14  41  14  42  14
M  END
>  <minimizedAffinity>  (1) 
-6.47772694

>  <minimizedRMSD>  (1) 
2.64877224

$$$$
