
     RDKit          3D

 36 40  0  0  0  0  0  0  0  0999 V2000
   36.8910   28.4970   41.9490 N   0  0  0  0  0  0  0  0  0  0  0  0
   36.4490   27.5780   42.8300 C   0  0  0  0  0  0  0  0  0  0  0  0
   37.2020   27.8000   43.9610 C   0  0  0  0  0  0  0  0  0  0  0  0
   38.0780   28.8300   43.7620 N   0  0  0  0  0  0  0  0  0  0  0  0
   37.8630   29.2410   42.5100 C   0  0  0  0  0  0  0  0  0  0  0  0
   38.6760   30.3220   42.0830 N   0  0  0  0  0  0  0  0  0  0  0  0
   39.9810   30.4550   42.4780 C   0  0  0  0  0  0  0  0  0  0  0  0
   40.5470   31.5750   41.9330 N   0  0  0  0  0  0  0  0  0  0  0  0
   39.6000   32.1660   41.1840 C   0  0  0  0  0  0  0  0  0  0  0  0
   39.5990   33.3110   40.4120 C   0  0  0  0  0  0  0  0  0  0  0  0
   38.4350   33.5940   39.7880 N   0  0  0  0  0  0  0  0  0  0  0  0
   37.3390   32.8420   39.8890 C   0  0  0  0  0  0  0  0  0  0  0  0
   37.3200   31.7150   40.6410 N   0  0  0  0  0  0  0  0  0  0  0  0
   38.4480   31.4020   41.2710 C   0  0  0  0  0  0  0  0  0  0  0  0
   35.1550   29.1040   40.3180 C   0  0  0  0  0  0  0  0  0  0  0  0
   36.4220   28.6680   40.6420 C   0  0  0  0  0  0  0  0  0  0  0  0
   37.3040   28.3750   39.5530 C   0  0  0  0  0  0  0  0  0  0  0  0
   36.8500   28.5400   38.2830 N   0  0  0  0  0  0  0  0  0  0  0  0
   35.5800   28.9770   38.0340 C   0  0  0  0  0  0  0  0  0  0  0  0
   34.7220   29.2630   39.0480 N   0  0  0  0  0  0  0  0  0  0  0  0
   35.2530   29.1000   36.6610 N   0  0  0  0  0  0  0  0  0  0  0  0
   35.8960   29.3370   35.5240 C   0  0  0  0  0  0  0  0  0  0  0  0
   35.0170   29.3380   34.4810 N   0  0  0  0  0  0  0  0  0  0  0  0
   33.7980   29.0900   35.0280 C   0  0  0  0  0  0  0  0  0  0  0  0
   33.9720   28.9490   36.3570 N   0  0  0  0  0  0  0  0  0  0  0  0
   40.7490   34.1420   40.2780 N   0  0  0  0  0  0  0  0  0  0  0  0
   35.6644   26.8219   42.6796 H   0  0  0  0  0  0  0  0  0  0  0  0
   37.1111   27.2274   44.8958 H   0  0  0  0  0  0  0  0  0  0  0  0
   40.5044   29.7542   43.1450 H   0  0  0  0  0  0  0  0  0  0  0  0
   36.4290   33.1433   39.3494 H   0  0  0  0  0  0  0  0  0  0  0  0
   34.4588   29.3350   41.1378 H   0  0  0  0  0  0  0  0  0  0  0  0
   38.3292   28.0232   39.7408 H   0  0  0  0  0  0  0  0  0  0  0  0
   36.9791   29.5076   35.4359 H   0  0  0  0  0  0  0  0  0  0  0  0
   32.8439   29.0176   34.4854 H   0  0  0  0  0  0  0  0  0  0  0  0
   40.7075   34.9883   39.6923 H   0  0  0  0  0  0  0  0  0  0  0  0
   41.6217   33.8963   40.7668 H   0  0  0  0  0  0  0  0  0  0  0  0
  1  5  1  0
  1  2  1  0
  2  3  2  0
  4  3  1  0
  5  4  2  0
  6  7  1  0
  6  5  1  0
  8  7  2  0
  9 14  2  0
  9  8  1  0
 10  9  1  0
 11 12  1  0
 11 10  2  0
 12 13  2  0
 13 14  1  0
 14  6  1  0
 15 16  2  0
 16  1  1  0
 17 16  1  0
 18 17  2  0
 19 18  1  0
 19 20  2  0
 20 15  1  0
 21 19  1  0
 22 21  1  0
 23 24  1  0
 23 22  2  0
 24 25  2  0
 25 21  1  0
 26 10  1  0
  2 27  1  0
  3 28  1  0
  7 29  1  0
 12 30  1  0
 15 31  1  0
 17 32  1  0
 22 33  1  0
 24 34  1  0
 26 35  1  0
 26 36  1  0
M  ISO  8  27  14  28  14  29  14  30  14  31  14  32  14  33  14  34  14
M  END
>  <minimizedAffinity>  (1) 
-6.38377142

>  <minimizedRMSD>  (1) 
1.52342308

$$$$
