
     RDKit          3D

 38 42  0  0  0  0  0  0  0  0999 V2000
   37.3290   28.3410   41.7990 N   0  0  0  0  0  0  0  0  0  0  0  0
   37.1690   27.3600   42.7200 C   0  0  0  0  0  0  0  0  0  0  0  0
   38.1670   27.6070   43.6400 C   0  0  0  0  0  0  0  0  0  0  0  0
   38.9000   28.7030   43.2810 N   0  0  0  0  0  0  0  0  0  0  0  0
   38.3540   29.1300   42.1370 C   0  0  0  0  0  0  0  0  0  0  0  0
   38.9710   30.2870   41.5680 N   0  0  0  0  0  0  0  0  0  0  0  0
   40.3200   30.4990   41.6330 C   0  0  0  0  0  0  0  0  0  0  0  0
   40.6510   31.6740   41.0150 N   0  0  0  0  0  0  0  0  0  0  0  0
   39.5150   32.2160   40.5550 C   0  0  0  0  0  0  0  0  0  0  0  0
   39.2420   33.3770   39.8630 C   0  0  0  0  0  0  0  0  0  0  0  0
   37.9490   33.5950   39.5640 N   0  0  0  0  0  0  0  0  0  0  0  0
   36.9520   32.7620   39.8990 C   0  0  0  0  0  0  0  0  0  0  0  0
   37.2050   31.6140   40.5810 N   0  0  0  0  0  0  0  0  0  0  0  0
   38.4800   31.3680   40.8930 C   0  0  0  0  0  0  0  0  0  0  0  0
   35.2440   28.9840   40.6760 C   0  0  0  0  0  0  0  0  0  0  0  0
   36.5370   28.5100   40.6530 C   0  0  0  0  0  0  0  0  0  0  0  0
   37.0830   28.1780   39.3820 C   0  0  0  0  0  0  0  0  0  0  0  0
   36.3110   28.3430   38.2730 N   0  0  0  0  0  0  0  0  0  0  0  0
   35.0330   28.8190   38.3550 C   0  0  0  0  0  0  0  0  0  0  0  0
   34.4900   29.1430   39.5630 N   0  0  0  0  0  0  0  0  0  0  0  0
   34.1980   28.9990   37.1730 C   0  0  0  0  0  0  0  0  0  0  0  0
   32.8180   29.1300   37.3450 C   0  0  0  0  0  0  0  0  0  0  0  0
   32.0350   29.3030   36.2010 C   0  0  0  0  0  0  0  0  0  0  0  0
   32.5900   29.3420   34.9770 N   0  0  0  0  0  0  0  0  0  0  0  0
   33.9190   29.2120   34.8390 C   0  0  0  0  0  0  0  0  0  0  0  0
   34.6990   29.0450   35.9310 N   0  0  0  0  0  0  0  0  0  0  0  0
   40.2620   34.2960   39.4830 N   0  0  0  0  0  0  0  0  0  0  0  0
   36.4191   26.5553   42.7314 H   0  0  0  0  0  0  0  0  0  0  0  0
   38.3483   27.0030   44.5413 H   0  0  0  0  0  0  0  0  0  0  0  0
   41.0388   29.8199   42.1148 H   0  0  0  0  0  0  0  0  0  0  0  0
   35.9180   33.0111   39.6184 H   0  0  0  0  0  0  0  0  0  0  0  0
   34.8015   29.2467   41.6482 H   0  0  0  0  0  0  0  0  0  0  0  0
   38.1106   27.7948   39.2969 H   0  0  0  0  0  0  0  0  0  0  0  0
   32.3636   29.0981   38.3463 H   0  0  0  0  0  0  0  0  0  0  0  0
   30.9449   29.4092   36.3035 H   0  0  0  0  0  0  0  0  0  0  0  0
   34.3735   29.2413   33.8377 H   0  0  0  0  0  0  0  0  0  0  0  0
   40.0169   35.1527   38.9664 H   0  0  0  0  0  0  0  0  0  0  0  0
   41.2446   34.1037   39.7248 H   0  0  0  0  0  0  0  0  0  0  0  0
  1  5  1  0
  1  2  1  0
  2  3  2  0
  4  3  1  0
  5  4  2  0
  6  7  1  0
  6  5  1  0
  8  7  2  0
  9 14  2  0
  9  8  1  0
 10  9  1  0
 11 10  2  0
 11 12  1  0
 12 13  2  0
 13 14  1  0
 14  6  1  0
 16 15  2  0
 16  1  1  0
 17 16  1  0
 18 19  1  0
 18 17  2  0
 19 20  2  0
 20 15  1  0
 21 22  2  0
 21 19  1  0
 23 22  1  0
 24 23  2  0
 25 24  1  0
 25 26  2  0
 26 21  1  0
 27 10  1  0
  2 28  1  0
  3 29  1  0
  7 30  1  0
 12 31  1  0
 15 32  1  0
 17 33  1  0
 22 34  1  0
 23 35  1  0
 25 36  1  0
 27 37  1  0
 27 38  1  0
M  ISO  8  28  14  29  14  30  14  31  14  32  14  33  14  34  14  35  14
M  ISO  1  36  14
M  END
>  <minimizedAffinity>  (1) 
-6.10536528

>  <minimizedRMSD>  (1) 
2.15890479

$$$$
