
     RDKit          3D

 41 43  0  0  0  0  0  0  0  0999 V2000
   40.8180   31.4950   40.4370 C   0  0  0  0  0  0  0  0  0  0  0  0
   40.8580   32.7330   41.0290 C   0  0  0  0  0  0  0  0  0  0  0  0
   41.5850   33.5970   40.2140 C   0  0  0  0  0  0  0  0  0  0  0  0
   41.9470   32.8050   39.1550 C   0  0  0  0  0  0  0  0  0  0  0  0
   41.4970   31.6040   39.3050 O   0  0  0  0  0  0  0  0  0  0  0  0
   38.9510   28.2960   40.6740 C   0  0  0  0  0  0  0  0  0  0  0  0
   39.0620   27.9970   42.0770 C   0  0  0  0  0  0  0  0  0  0  0  0
   39.7770   28.9400   42.8050 C   0  0  0  0  0  0  0  0  0  0  0  0
   40.3120   30.0310   42.2340 N   0  0  0  0  0  0  0  0  0  0  0  0
   40.1780   30.2660   40.9050 C   0  0  0  0  0  0  0  0  0  0  0  0
   39.5040   29.3990   40.1550 N   0  0  0  0  0  0  0  0  0  0  0  0
   38.4540   26.8120   42.5680 N   0  0  0  0  0  0  0  0  0  0  0  0
   37.0600   26.6360   42.7000 C   0  0  0  0  0  0  0  0  0  0  0  0
   36.3550   27.6860   43.0620 N   0  0  0  0  0  0  0  0  0  0  0  0
   36.5890   25.3060   42.4170 N   0  0  0  0  0  0  0  0  0  0  0  0
   35.3520   27.6250   43.2250 H   0  0  0  0  0  0  0  0  0  0  0  0
   41.8140   34.9550   40.5400 N   0  0  0  0  0  0  0  0  0  0  0  0
   42.7100   35.5640   41.5330 C   0  0  0  0  0  0  0  0  0  0  0  0
   42.0110   36.7210   42.2400 C   0  0  0  0  0  0  0  0  0  0  0  0
   40.5750   36.5560   42.1220 N   0  0  0  0  0  0  0  0  0  0  0  0
   40.2290   36.8080   40.7300 C   0  0  0  0  0  0  0  0  0  0  0  0
   41.0560   35.9670   39.7890 C   0  0  0  0  0  0  0  0  0  0  0  0
   42.7500   33.3140   38.0200 C   0  0  0  0  0  0  0  0  0  0  0  0
   43.2220   32.2420   37.2480 F   0  0  0  0  0  0  0  0  0  0  0  0
   41.9670   34.1310   37.2170 F   0  0  0  0  0  0  0  0  0  0  0  0
   43.8720   33.9860   38.4360 F   0  0  0  0  0  0  0  0  0  0  0  0
   40.3923   32.9988   41.9894 H   0  0  0  0  0  0  0  0  0  0  0  0
   38.4020   27.6060   40.0163 H   0  0  0  0  0  0  0  0  0  0  0  0
   39.9093   28.7875   43.8863 H   0  0  0  0  0  0  0  0  0  0  0  0
   39.0680   26.0327   42.8449 H   0  0  0  0  0  0  0  0  0  0  0  0
   35.5847   25.0892   42.4889 H   0  0  0  0  0  0  0  0  0  0  0  0
   37.2562   24.5709   42.1426 H   0  0  0  0  0  0  0  0  0  0  0  0
   42.9970   34.8053   42.2760 H   0  0  0  0  0  0  0  0  0  0  0  0
   43.6043   35.9471   41.0197 H   0  0  0  0  0  0  0  0  0  0  0  0
   42.2942   36.7274   43.3029 H   0  0  0  0  0  0  0  0  0  0  0  0
   42.3124   37.6723   41.7773 H   0  0  0  0  0  0  0  0  0  0  0  0
   40.3066   35.5970   42.3849 H   0  0  0  0  0  0  0  0  0  0  0  0
   39.1655   36.5715   40.5785 H   0  0  0  0  0  0  0  0  0  0  0  0
   40.4319   37.8670   40.5122 H   0  0  0  0  0  0  0  0  0  0  0  0
   41.7579   36.6157   39.2444 H   0  0  0  0  0  0  0  0  0  0  0  0
   40.3853   35.4585   39.0808 H   0  0  0  0  0  0  0  0  0  0  0  0
  1 10  1  0
  1  2  2  0
  3 17  1  0
  3  2  1  0
  4  5  1  0
  4  3  2  0
  5  1  1  0
  6  7  2  0
  7 12  1  0
  7  8  1  0
  9  8  2  0
 10  9  1  0
 11  6  1  0
 11 10  2  0
 12 13  1  0
 13 14  2  0
 14 16  1  0
 15 13  1  0
 17 18  1  0
 18 19  1  0
 20 19  1  0
 21 20  1  0
 22 17  1  0
 22 21  1  0
 23 26  1  0
 23  4  1  0
 24 23  1  0
 25 23  1  0
  2 27  1  0
  6 28  1  0
  8 29  1  0
 12 30  1  0
 15 31  1  0
 15 32  1  0
 18 33  1  0
 18 34  1  0
 19 35  1  0
 19 36  1  0
 20 37  1  0
 21 38  1  0
 21 39  1  0
 22 40  1  0
 22 41  1  0
M  ISO  8  27  14  28  14  29  14  33  13  34  13  35  13  36  13  37   5
M  ISO  4  38  13  39  13  40  13  41  13
M  END
>  <minimizedAffinity>  (1) 
-5.57146931

>  <minimizedRMSD>  (1) 
3.73044443

$$$$
