
     RDKit          3D

 37 41  0  0  0  0  0  0  0  0999 V2000
   36.8050   28.4280   41.8910 N   0  0  0  0  0  0  0  0  0  0  0  0
   36.3150   27.4870   42.7330 C   0  0  0  0  0  0  0  0  0  0  0  0
   36.9930   27.6900   43.9080 C   0  0  0  0  0  0  0  0  0  0  0  0
   37.8690   28.7260   43.7840 N   0  0  0  0  0  0  0  0  0  0  0  0
   37.7290   29.1590   42.5300 C   0  0  0  0  0  0  0  0  0  0  0  0
   38.5620   30.2580   42.1690 N   0  0  0  0  0  0  0  0  0  0  0  0
   39.8400   30.3880   42.6400 C   0  0  0  0  0  0  0  0  0  0  0  0
   40.4320   31.5140   42.1550 N   0  0  0  0  0  0  0  0  0  0  0  0
   39.5320   32.1200   41.3640 C   0  0  0  0  0  0  0  0  0  0  0  0
   39.5560   33.2710   40.6160 C   0  0  0  0  0  0  0  0  0  0  0  0
   38.4390   33.5650   39.9340 N   0  0  0  0  0  0  0  0  0  0  0  0
   37.3340   32.8080   39.9510 C   0  0  0  0  0  0  0  0  0  0  0  0
   37.2850   31.6670   40.6820 N   0  0  0  0  0  0  0  0  0  0  0  0
   38.3860   31.3460   41.3750 C   0  0  0  0  0  0  0  0  0  0  0  0
   35.1520   29.0620   40.1840 C   0  0  0  0  0  0  0  0  0  0  0  0
   36.4170   28.6170   40.5680 C   0  0  0  0  0  0  0  0  0  0  0  0
   37.3430   28.3490   39.5290 C   0  0  0  0  0  0  0  0  0  0  0  0
   36.9750   28.5300   38.2390 N   0  0  0  0  0  0  0  0  0  0  0  0
   35.7140   28.9710   37.9150 C   0  0  0  0  0  0  0  0  0  0  0  0
   34.8050   29.2360   38.8880 N   0  0  0  0  0  0  0  0  0  0  0  0
   35.2760   29.1800   36.5210 C   0  0  0  0  0  0  0  0  0  0  0  0
   35.0840   27.9130   35.7160 C   0  0  0  0  0  0  0  0  0  0  0  0
   36.1880   28.8530   35.4200 C   0  0  0  0  0  0  0  0  0  0  0  0
   40.7150   34.1140   40.5660 N   0  0  0  0  0  0  0  0  0  0  0  0
   35.5457   26.7297   42.5218 H   0  0  0  0  0  0  0  0  0  0  0  0
   36.8493   27.0980   44.8239 H   0  0  0  0  0  0  0  0  0  0  0  0
   40.3262   29.6751   43.3222 H   0  0  0  0  0  0  0  0  0  0  0  0
   36.4556   33.1158   39.3648 H   0  0  0  0  0  0  0  0  0  0  0  0
   34.4082   29.2797   40.9647 H   0  0  0  0  0  0  0  0  0  0  0  0
   38.3564   27.9954   39.7699 H   0  0  0  0  0  0  0  0  0  0  0  0
   34.6869   30.0742   36.7727 H   0  0  0  0  0  0  0  0  0  0  0  0
   35.2974   26.9327   36.1671 H   0  0  0  0  0  0  0  0  0  0  0  0
   34.2596   27.4639   35.1427 H   0  0  0  0  0  0  0  0  0  0  0  0
   37.2256   28.5616   35.6402 H   0  0  0  0  0  0  0  0  0  0  0  0
   36.5213   29.3846   34.5165 H   0  0  0  0  0  0  0  0  0  0  0  0
   40.7037   34.9717   39.9959 H   0  0  0  0  0  0  0  0  0  0  0  0
   41.5587   33.8618   41.1002 H   0  0  0  0  0  0  0  0  0  0  0  0
  1  5  1  0
  1  2  1  0
  2  3  2  0
  4  3  1  0
  5  4  2  0
  6  5  1  0
  6  7  1  0
  8  7  2  0
  9 14  2  0
  9  8  1  0
 10  9  1  0
 11 12  1  0
 11 10  2  0
 12 13  2  0
 13 14  1  0
 14  6  1  0
 15 16  2  0
 16  1  1  0
 17 16  1  0
 18 17  2  0
 19 18  1  0
 19 20  2  0
 20 15  1  0
 21 19  1  0
 22 21  1  0
 23 22  1  0
 23 21  1  0
 24 10  1  0
  2 25  1  0
  3 26  1  0
  7 27  1  0
 12 28  1  0
 15 29  1  0
 17 30  1  0
 21 31  1  0
 22 32  1  0
 22 33  1  0
 23 34  1  0
 23 35  1  0
 24 36  1  0
 24 37  1  0
M  ISO  8  25  14  26  14  27  14  28  14  29  14  30  14  31  13  32  13
M  ISO  3  33  13  34  13  35  13
M  END
>  <minimizedAffinity>  (1) 
-5.74693537

>  <minimizedRMSD>  (1) 
1.45730317

$$$$
