
     RDKit          3D

 55 59  0  0  0  0  0  0  0  0999 V2000
   35.1210   28.9700   40.2570 C   0  0  0  0  0  0  0  0  0  0  0  0
   36.3660   28.4840   40.6470 C   0  0  0  0  0  0  0  0  0  0  0  0
   37.2300   28.0690   39.6110 C   0  0  0  0  0  0  0  0  0  0  0  0
   36.8460   28.1500   38.3150 N   0  0  0  0  0  0  0  0  0  0  0  0
   35.5920   28.6430   37.9910 C   0  0  0  0  0  0  0  0  0  0  0  0
   34.7190   29.0570   38.9620 N   0  0  0  0  0  0  0  0  0  0  0  0
   36.7800   28.3950   41.9720 N   0  0  0  0  0  0  0  0  0  0  0  0
   36.3550   27.5170   42.8860 C   0  0  0  0  0  0  0  0  0  0  0  0
   37.0460   27.8240   44.0300 C   0  0  0  0  0  0  0  0  0  0  0  0
   37.8750   28.8730   43.8090 N   0  0  0  0  0  0  0  0  0  0  0  0
   37.7020   29.2220   42.5270 C   0  0  0  0  0  0  0  0  0  0  0  0
   38.4860   30.3150   42.0830 N   0  0  0  0  0  0  0  0  0  0  0  0
   39.7630   30.5290   42.5110 C   0  0  0  0  0  0  0  0  0  0  0  0
   40.2880   31.6540   41.9250 N   0  0  0  0  0  0  0  0  0  0  0  0
   39.3450   32.1630   41.1200 C   0  0  0  0  0  0  0  0  0  0  0  0
   39.3180   33.2650   40.2980 C   0  0  0  0  0  0  0  0  0  0  0  0
   38.1610   33.4640   39.6220 N   0  0  0  0  0  0  0  0  0  0  0  0
   37.0970   32.6630   39.7230 C   0  0  0  0  0  0  0  0  0  0  0  0
   37.1110   31.5750   40.5270 N   0  0  0  0  0  0  0  0  0  0  0  0
   38.2420   31.3400   41.2190 C   0  0  0  0  0  0  0  0  0  0  0  0
   40.4220   34.1440   40.1600 N   0  0  0  0  0  0  0  0  0  0  0  0
   35.0690   28.7820   36.6170 C   0  0  0  0  0  0  0  0  0  0  0  0
   33.6350   29.2070   36.5790 C   0  0  0  0  0  0  0  0  0  0  0  0
   35.1260   27.4020   35.9540 C   0  0  0  0  0  0  0  0  0  0  0  0
   35.9730   29.6660   35.7990 C   0  0  0  0  0  0  0  0  0  0  0  0
   35.7230   29.7240   34.3440 C   0  0  0  0  0  0  0  0  0  0  0  0
   36.7080   29.0700   33.4510 C   0  0  0  0  0  0  0  0  0  0  0  0
   36.5600   29.8580   32.1400 C   0  0  0  0  0  0  0  0  0  0  0  0
   36.6280   31.2700   32.6850 C   0  0  0  0  0  0  0  0  0  0  0  0
   35.8260   31.2030   33.9520 C   0  0  0  0  0  0  0  0  0  0  0  0
   34.4241   29.3020   41.0407 H   0  0  0  0  0  0  0  0  0  0  0  0
   38.2267   27.6753   39.8592 H   0  0  0  0  0  0  0  0  0  0  0  0
   35.6103   26.7190   42.7496 H   0  0  0  0  0  0  0  0  0  0  0  0
   36.9423   27.2950   44.9889 H   0  0  0  0  0  0  0  0  0  0  0  0
   40.2986   29.8884   43.2271 H   0  0  0  0  0  0  0  0  0  0  0  0
   36.1920   32.8923   39.1413 H   0  0  0  0  0  0  0  0  0  0  0  0
   40.3569   34.9579   39.5321 H   0  0  0  0  0  0  0  0  0  0  0  0
   41.2890   33.9686   40.6876 H   0  0  0  0  0  0  0  0  0  0  0  0
   33.2583   29.3186   37.6064 H   0  0  0  0  0  0  0  0  0  0  0  0
   33.5514   30.1685   36.0513 H   0  0  0  0  0  0  0  0  0  0  0  0
   33.0410   28.4463   36.0513 H   0  0  0  0  0  0  0  0  0  0  0  0
   35.1582   26.6233   36.7303 H   0  0  0  0  0  0  0  0  0  0  0  0
   34.2330   27.2589   35.3278 H   0  0  0  0  0  0  0  0  0  0  0  0
   36.0278   27.3330   35.3278 H   0  0  0  0  0  0  0  0  0  0  0  0
   35.8797   30.6891   36.1920 H   0  0  0  0  0  0  0  0  0  0  0  0
   36.9730   29.2184   35.8977 H   0  0  0  0  0  0  0  0  0  0  0  0
   34.7612   29.2076   34.2090 H   0  0  0  0  0  0  0  0  0  0  0  0
   37.7277   29.1598   33.8536 H   0  0  0  0  0  0  0  0  0  0  0  0
   36.5350   27.9904   33.3305 H   0  0  0  0  0  0  0  0  0  0  0  0
   35.5983   29.6551   31.6461 H   0  0  0  0  0  0  0  0  0  0  0  0
   37.3036   29.6199   31.3652 H   0  0  0  0  0  0  0  0  0  0  0  0
   37.6683   31.5597   32.8944 H   0  0  0  0  0  0  0  0  0  0  0  0
   36.2433   32.0186   31.9768 H   0  0  0  0  0  0  0  0  0  0  0  0
   36.3306   31.7699   34.7482 H   0  0  0  0  0  0  0  0  0  0  0  0
   34.8269   31.6394   33.8060 H   0  0  0  0  0  0  0  0  0  0  0  0
  1  2  2  0
  2  7  1  0
  3  2  1  0
  4  3  2  0
  5  4  1  0
  5  6  2  0
  6  1  1  0
  7 11  1  0
  7  8  1  0
  8  9  2  0
 10  9  1  0
 11 10  2  0
 12 13  1  0
 12 11  1  0
 14 13  2  0
 15 20  2  0
 15 14  1  0
 16 15  1  0
 17 18  1  0
 17 16  2  0
 18 19  2  0
 19 20  1  0
 20 12  1  0
 21 16  1  0
 22  5  1  0
 23 22  1  0
 24 22  1  0
 25 22  1  0
 26 25  1  0
 27 26  1  0
 28 29  1  0
 28 27  1  0
 29 30  1  0
 30 26  1  0
  1 31  1  0
  3 32  1  0
  8 33  1  0
  9 34  1  0
 13 35  1  0
 18 36  1  0
 21 37  1  0
 21 38  1  0
 23 39  1  0
 23 40  1  0
 23 41  1  0
 24 42  1  0
 24 43  1  0
 24 44  1  0
 25 45  1  0
 25 46  1  0
 26 47  1  0
 27 48  1  0
 27 49  1  0
 28 50  1  0
 28 51  1  0
 29 52  1  0
 29 53  1  0
 30 54  1  0
 30 55  1  0
M  ISO  8  31  14  32  14  33  14  34  14  35  14  36  14  39   8  40   8
M  ISO  8  41   8  42   8  43   8  44   8  45   8  46   8  47  13  48  13
M  ISO  7  49  13  50  13  51  13  52  13  53  13  54  13  55  13
M  END
>  <minimizedAffinity>  (1) 
-6.40330887

>  <minimizedRMSD>  (1) 
1.46630692

$$$$
