
     RDKit          3D

 49 53  0  0  0  0  0  0  0  0999 V2000
   35.1790   29.0560   40.5230 C   0  0  0  0  0  0  0  0  0  0  0  0
   36.1790   28.1950   41.0080 C   0  0  0  0  0  0  0  0  0  0  0  0
   36.7260   27.2560   40.0880 C   0  0  0  0  0  0  0  0  0  0  0  0
   36.2620   27.2390   38.8170 N   0  0  0  0  0  0  0  0  0  0  0  0
   35.2750   28.1130   38.4020 C   0  0  0  0  0  0  0  0  0  0  0  0
   34.7290   29.0200   39.2430 N   0  0  0  0  0  0  0  0  0  0  0  0
   36.6450   28.2240   42.3150 N   0  0  0  0  0  0  0  0  0  0  0  0
   36.2260   27.4400   43.3290 C   0  0  0  0  0  0  0  0  0  0  0  0
   36.9710   27.8360   44.4120 C   0  0  0  0  0  0  0  0  0  0  0  0
   37.8260   28.8420   44.0580 N   0  0  0  0  0  0  0  0  0  0  0  0
   37.6050   29.0620   42.7610 C   0  0  0  0  0  0  0  0  0  0  0  0
   38.3960   30.0820   42.1770 N   0  0  0  0  0  0  0  0  0  0  0  0
   39.7020   30.2960   42.5400 C   0  0  0  0  0  0  0  0  0  0  0  0
   40.2360   31.3390   41.8270 N   0  0  0  0  0  0  0  0  0  0  0  0
   39.2840   31.7930   41.0120 C   0  0  0  0  0  0  0  0  0  0  0  0
   39.2620   32.8080   40.0870 C   0  0  0  0  0  0  0  0  0  0  0  0
   38.0940   32.9830   39.4310 N   0  0  0  0  0  0  0  0  0  0  0  0
   37.0100   32.2350   39.6450 C   0  0  0  0  0  0  0  0  0  0  0  0
   37.0190   31.2270   40.5590 N   0  0  0  0  0  0  0  0  0  0  0  0
   38.1600   31.0240   41.2280 C   0  0  0  0  0  0  0  0  0  0  0  0
   40.3950   33.6330   39.8250 N   0  0  0  0  0  0  0  0  0  0  0  0
   34.7550   28.1200   37.0300 C   0  0  0  0  0  0  0  0  0  0  0  0
   33.3170   28.6180   36.9750 C   0  0  0  0  0  0  0  0  0  0  0  0
   34.7410   26.7160   36.4640 C   0  0  0  0  0  0  0  0  0  0  0  0
   35.6080   28.9740   36.1060 C   0  0  0  0  0  0  0  0  0  0  0  0
   36.9930   28.9290   36.4390 N   0  0  0  0  0  0  0  0  0  0  0  0
   37.5830   29.8250   37.2480 N   0  0  0  0  0  0  0  0  0  0  0  0
   38.8880   29.5360   37.3950 C   0  0  0  0  0  0  0  0  0  0  0  0
   39.1940   28.4090   36.6610 C   0  0  0  0  0  0  0  0  0  0  0  0
   37.9800   28.0820   36.0940 C   0  0  0  0  0  0  0  0  0  0  0  0
   34.7412   29.7927   41.2126 H   0  0  0  0  0  0  0  0  0  0  0  0
   37.5129   26.5559   40.4053 H   0  0  0  0  0  0  0  0  0  0  0  0
   35.4560   26.6551   43.2957 H   0  0  0  0  0  0  0  0  0  0  0  0
   36.8912   27.4051   45.4209 H   0  0  0  0  0  0  0  0  0  0  0  0
   40.2452   29.7121   43.2976 H   0  0  0  0  0  0  0  0  0  0  0  0
   36.0927   32.4368   39.0724 H   0  0  0  0  0  0  0  0  0  0  0  0
   40.3341   34.3834   39.1221 H   0  0  0  0  0  0  0  0  0  0  0  0
   41.2743   33.4785   40.3386 H   0  0  0  0  0  0  0  0  0  0  0  0
   32.9354   28.7502   37.9982 H   0  0  0  0  0  0  0  0  0  0  0  0
   33.2824   29.5805   36.4435 H   0  0  0  0  0  0  0  0  0  0  0  0
   32.6945   27.8831   36.4435 H   0  0  0  0  0  0  0  0  0  0  0  0
   34.7337   25.9882   37.2888 H   0  0  0  0  0  0  0  0  0  0  0  0
   33.8414   26.5788   35.8460 H   0  0  0  0  0  0  0  0  0  0  0  0
   35.6376   26.5608   35.8460 H   0  0  0  0  0  0  0  0  0  0  0  0
   35.2636   30.0166   36.1726 H   0  0  0  0  0  0  0  0  0  0  0  0
   35.4978   28.5738   35.0873 H   0  0  0  0  0  0  0  0  0  0  0  0
   39.6009   30.1094   38.0058 H   0  0  0  0  0  0  0  0  0  0  0  0
   40.1629   27.8991   36.5546 H   0  0  0  0  0  0  0  0  0  0  0  0
   37.8338   27.2183   35.4287 H   0  0  0  0  0  0  0  0  0  0  0  0
  1  2  2  0
  2  7  1  0
  3  2  1  0
  4  3  2  0
  5  4  1  0
  5  6  2  0
  6  1  1  0
  7 11  1  0
  7  8  1  0
  8  9  2  0
 10  9  1  0
 11 10  2  0
 12 13  1  0
 12 11  1  0
 14 13  2  0
 15 20  2  0
 15 14  1  0
 16 15  1  0
 17 18  1  0
 17 16  2  0
 18 19  2  0
 19 20  1  0
 20 12  1  0
 21 16  1  0
 22  5  1  0
 23 22  1  0
 24 22  1  0
 25 26  1  0
 25 22  1  0
 26 27  1  0
 27 28  2  0
 29 28  1  0
 30 26  1  0
 30 29  2  0
  1 31  1  0
  3 32  1  0
  8 33  1  0
  9 34  1  0
 13 35  1  0
 18 36  1  0
 21 37  1  0
 21 38  1  0
 23 39  1  0
 23 40  1  0
 23 41  1  0
 24 42  1  0
 24 43  1  0
 24 44  1  0
 25 45  1  0
 25 46  1  0
 28 47  1  0
 29 48  1  0
 30 49  1  0
M  ISO  8  31  14  32  14  33  14  34  14  35  14  36  14  39   8  40   8
M  ISO  8  41   8  42   8  43   8  44   8  45   8  46   8  47  14  48  14
M  ISO  1  49  14
M  END
>  <minimizedAffinity>  (1) 
-6.12517166

>  <minimizedRMSD>  (1) 
0.688941956

$$$$
