
     RDKit          3D

 49 53  0  0  0  0  0  0  0  0999 V2000
   35.0890   29.1730   40.5100 C   0  0  0  0  0  0  0  0  0  0  0  0
   36.1020   28.2770   40.9040 C   0  0  0  0  0  0  0  0  0  0  0  0
   36.5050   27.3120   39.9460 C   0  0  0  0  0  0  0  0  0  0  0  0
   35.9130   27.2980   38.7290 N   0  0  0  0  0  0  0  0  0  0  0  0
   34.9240   28.2050   38.4010 C   0  0  0  0  0  0  0  0  0  0  0  0
   34.5060   29.1430   39.2810 N   0  0  0  0  0  0  0  0  0  0  0  0
   36.6960   28.3060   42.1570 N   0  0  0  0  0  0  0  0  0  0  0  0
   36.3580   27.5560   43.2210 C   0  0  0  0  0  0  0  0  0  0  0  0
   37.2260   27.9430   44.2140 C   0  0  0  0  0  0  0  0  0  0  0  0
   38.0720   28.9100   43.7530 N   0  0  0  0  0  0  0  0  0  0  0  0
   37.7260   29.1150   42.4870 C   0  0  0  0  0  0  0  0  0  0  0  0
   38.4930   30.1040   41.7950 N   0  0  0  0  0  0  0  0  0  0  0  0
   39.8410   30.2650   42.0160 C   0  0  0  0  0  0  0  0  0  0  0  0
   40.3330   31.2770   41.2290 N   0  0  0  0  0  0  0  0  0  0  0  0
   39.3130   31.7520   40.5170 C   0  0  0  0  0  0  0  0  0  0  0  0
   39.2350   32.7550   39.5830 C   0  0  0  0  0  0  0  0  0  0  0  0
   38.0060   32.9710   39.0510 N   0  0  0  0  0  0  0  0  0  0  0  0
   36.9170   32.2700   39.3910 C   0  0  0  0  0  0  0  0  0  0  0  0
   36.9850   31.2790   40.3130 N   0  0  0  0  0  0  0  0  0  0  0  0
   38.1880   31.0440   40.8550 C   0  0  0  0  0  0  0  0  0  0  0  0
   40.3550   33.5350   39.1780 N   0  0  0  0  0  0  0  0  0  0  0  0
   34.2640   28.2190   37.0990 C   0  0  0  0  0  0  0  0  0  0  0  0
   32.9280   28.9230   37.1360 C   0  0  0  0  0  0  0  0  0  0  0  0
   33.9800   26.7990   36.6390 C   0  0  0  0  0  0  0  0  0  0  0  0
   35.1180   28.8840   36.0320 C   0  0  0  0  0  0  0  0  0  0  0  0
   36.5210   28.8230   36.2520 N   0  0  0  0  0  0  0  0  0  0  0  0
   37.4080   27.8810   35.8590 C   0  0  0  0  0  0  0  0  0  0  0  0
   38.7040   28.1990   36.2830 C   0  0  0  0  0  0  0  0  0  0  0  0
   38.6010   29.3600   36.9510 N   0  0  0  0  0  0  0  0  0  0  0  0
   37.3060   29.6960   36.9130 C   0  0  0  0  0  0  0  0  0  0  0  0
   34.7532   29.9334   41.2305 H   0  0  0  0  0  0  0  0  0  0  0  0
   37.2910   26.5821   40.1897 H   0  0  0  0  0  0  0  0  0  0  0  0
   35.5620   26.7993   43.2829 H   0  0  0  0  0  0  0  0  0  0  0  0
   37.2373   27.5322   45.2343 H   0  0  0  0  0  0  0  0  0  0  0  0
   40.4387   29.6691   42.7214 H   0  0  0  0  0  0  0  0  0  0  0  0
   35.9529   32.5019   38.9149 H   0  0  0  0  0  0  0  0  0  0  0  0
   40.2384   34.2759   38.4720 H   0  0  0  0  0  0  0  0  0  0  0  0
   41.2819   33.3584   39.5910 H   0  0  0  0  0  0  0  0  0  0  0  0
   32.6262   29.0820   38.1818 H   0  0  0  0  0  0  0  0  0  0  0  0
   33.0112   29.8944   36.6266 H   0  0  0  0  0  0  0  0  0  0  0  0
   32.1738   28.3052   36.6266 H   0  0  0  0  0  0  0  0  0  0  0  0
   33.8499   26.1485   37.5164 H   0  0  0  0  0  0  0  0  0  0  0  0
   33.0615   26.7864   36.0338 H   0  0  0  0  0  0  0  0  0  0  0  0
   34.8230   26.4341   36.0338 H   0  0  0  0  0  0  0  0  0  0  0  0
   34.8284   29.9437   35.9766 H   0  0  0  0  0  0  0  0  0  0  0  0
   34.9313   28.3270   35.1020 H   0  0  0  0  0  0  0  0  0  0  0  0
   37.1456   26.9822   35.2816 H   0  0  0  0  0  0  0  0  0  0  0  0
   39.6201   27.6166   36.1053 H   0  0  0  0  0  0  0  0  0  0  0  0
   36.9146   30.6102   37.3830 H   0  0  0  0  0  0  0  0  0  0  0  0
  1  2  2  0
  2  7  1  0
  3  2  1  0
  4  3  2  0
  5  4  1  0
  5  6  2  0
  6  1  1  0
  7 11  1  0
  7  8  1  0
  8  9  2  0
 10  9  1  0
 11 10  2  0
 12 13  1  0
 12 11  1  0
 14 13  2  0
 15 20  2  0
 15 14  1  0
 16 15  1  0
 17 18  1  0
 17 16  2  0
 18 19  2  0
 19 20  1  0
 20 12  1  0
 21 16  1  0
 22 23  1  0
 22  5  1  0
 24 22  1  0
 25 26  1  0
 25 22  1  0
 26 30  1  0
 27 26  1  0
 27 28  2  0
 28 29  1  0
 30 29  2  0
  1 31  1  0
  3 32  1  0
  8 33  1  0
  9 34  1  0
 13 35  1  0
 18 36  1  0
 21 37  1  0
 21 38  1  0
 23 39  1  0
 23 40  1  0
 23 41  1  0
 24 42  1  0
 24 43  1  0
 24 44  1  0
 25 45  1  0
 25 46  1  0
 27 47  1  0
 28 48  1  0
 30 49  1  0
M  ISO  8  31  14  32  14  33  14  34  14  35  14  36  14  39   8  40   8
M  ISO  8  41   8  42   8  43   8  44   8  45   8  46   8  47  14  48  14
M  ISO  1  49  14
M  END
>  <minimizedAffinity>  (1) 
-6.11263132

>  <minimizedRMSD>  (1) 
0.672904432

$$$$
