
     RDKit          3D

 43 46  0  0  0  0  0  0  0  0999 V2000
   35.0900   28.9990   40.4270 C   0  0  0  0  0  0  0  0  0  0  0  0
   36.2800   28.3590   40.8220 C   0  0  0  0  0  0  0  0  0  0  0  0
   37.0080   27.7320   39.7980 C   0  0  0  0  0  0  0  0  0  0  0  0
   36.5560   27.7630   38.5130 N   0  0  0  0  0  0  0  0  0  0  0  0
   35.3800   28.4090   38.1930 C   0  0  0  0  0  0  0  0  0  0  0  0
   34.6530   29.0240   39.1520 N   0  0  0  0  0  0  0  0  0  0  0  0
   36.7390   28.3270   42.1240 N   0  0  0  0  0  0  0  0  0  0  0  0
   36.3290   27.4790   43.0970 C   0  0  0  0  0  0  0  0  0  0  0  0
   37.0630   27.8290   44.1980 C   0  0  0  0  0  0  0  0  0  0  0  0
   37.9050   28.8720   43.8990 N   0  0  0  0  0  0  0  0  0  0  0  0
   37.6870   29.1600   42.6200 C   0  0  0  0  0  0  0  0  0  0  0  0
   38.4620   30.2240   42.0940 N   0  0  0  0  0  0  0  0  0  0  0  0
   39.7600   30.4350   42.4640 C   0  0  0  0  0  0  0  0  0  0  0  0
   40.2700   31.5290   41.8050 N   0  0  0  0  0  0  0  0  0  0  0  0
   39.3130   32.0100   41.0250 C   0  0  0  0  0  0  0  0  0  0  0  0
   39.2710   33.0770   40.1590 C   0  0  0  0  0  0  0  0  0  0  0  0
   38.1020   33.2710   39.5200 N   0  0  0  0  0  0  0  0  0  0  0  0
   37.0230   32.4920   39.6930 C   0  0  0  0  0  0  0  0  0  0  0  0
   37.0440   31.4270   40.5490 N   0  0  0  0  0  0  0  0  0  0  0  0
   38.1940   31.2110   41.1980 C   0  0  0  0  0  0  0  0  0  0  0  0
   40.3930   33.9280   39.9470 N   0  0  0  0  0  0  0  0  0  0  0  0
   34.8180   28.4940   36.8450 C   0  0  0  0  0  0  0  0  0  0  0  0
   33.4340   29.0670   36.8050 C   0  0  0  0  0  0  0  0  0  0  0  0
   34.7700   27.1130   36.2240 C   0  0  0  0  0  0  0  0  0  0  0  0
   35.7410   29.3360   35.9410 C   0  0  0  0  0  0  0  0  0  0  0  0
   36.6110   30.0940   36.7190 O   0  0  0  0  0  0  0  0  0  0  0  0
   34.4872   29.5034   41.1965 H   0  0  0  0  0  0  0  0  0  0  0  0
   37.9485   27.2129   40.0346 H   0  0  0  0  0  0  0  0  0  0  0  0
   35.5727   26.6840   43.0196 H   0  0  0  0  0  0  0  0  0  0  0  0
   36.9890   27.3438   45.1824 H   0  0  0  0  0  0  0  0  0  0  0  0
   40.3169   29.8187   43.1851 H   0  0  0  0  0  0  0  0  0  0  0  0
   36.1023   32.7155   39.1340 H   0  0  0  0  0  0  0  0  0  0  0  0
   40.3233   34.7180   39.2898 H   0  0  0  0  0  0  0  0  0  0  0  0
   41.2742   33.7535   40.4509 H   0  0  0  0  0  0  0  0  0  0  0  0
   33.0698   29.2178   37.8319 H   0  0  0  0  0  0  0  0  0  0  0  0
   33.4517   30.0318   36.2769 H   0  0  0  0  0  0  0  0  0  0  0  0
   32.7646   28.3721   36.2769 H   0  0  0  0  0  0  0  0  0  0  0  0
   34.7436   26.3539   37.0197 H   0  0  0  0  0  0  0  0  0  0  0  0
   33.8682   27.0224   35.6007 H   0  0  0  0  0  0  0  0  0  0  0  0
   35.6634   26.9600   35.6007 H   0  0  0  0  0  0  0  0  0  0  0  0
   35.1289   30.0073   35.3208 H   0  0  0  0  0  0  0  0  0  0  0  0
   36.3269   28.6626   35.2981 H   0  0  0  0  0  0  0  0  0  0  0  0
   36.4239   29.9310   37.6774 H   0  0  0  0  0  0  0  0  0  0  0  0
  1  2  2  0
  2  7  1  0
  3  2  1  0
  4  3  2  0
  5  4  1  0
  5  6  2  0
  6  1  1  0
  7 11  1  0
  7  8  1  0
  8  9  2  0
 10  9  1  0
 11 10  2  0
 12 13  1  0
 12 11  1  0
 14 13  2  0
 15 20  2  0
 15 14  1  0
 16 15  1  0
 17 18  1  0
 17 16  2  0
 18 19  2  0
 19 20  1  0
 20 12  1  0
 21 16  1  0
 22  5  1  0
 23 22  1  0
 24 22  1  0
 25 26  1  0
 25 22  1  0
  1 27  1  0
  3 28  1  0
  8 29  1  0
  9 30  1  0
 13 31  1  0
 18 32  1  0
 21 33  1  0
 21 34  1  0
 23 35  1  0
 23 36  1  0
 23 37  1  0
 24 38  1  0
 24 39  1  0
 24 40  1  0
 25 41  1  0
 25 42  1  0
 26 43  1  0
M  ISO  8  27  14  28  14  29  14  30  14  31  14  32  14  35   8  36   8
M  ISO  7  37   8  38   8  39   8  40   8  41   8  42   8  43   3
M  END
>  <minimizedAffinity>  (1) 
-5.91114807

>  <minimizedRMSD>  (1) 
0.202056408

$$$$
