
     RDKit          3D

 44 47  0  0  0  0  0  0  0  0999 V2000
   35.0600   28.9500   40.4260 C   0  0  0  0  0  0  0  0  0  0  0  0
   36.2980   28.3920   40.7890 C   0  0  0  0  0  0  0  0  0  0  0  0
   37.0660   27.8580   39.7420 C   0  0  0  0  0  0  0  0  0  0  0  0
   36.6210   27.8910   38.4720 N   0  0  0  0  0  0  0  0  0  0  0  0
   35.3920   28.4530   38.1670 C   0  0  0  0  0  0  0  0  0  0  0  0
   34.6140   28.9820   39.1480 N   0  0  0  0  0  0  0  0  0  0  0  0
   36.7630   28.3540   42.0920 N   0  0  0  0  0  0  0  0  0  0  0  0
   36.3600   27.4960   43.0610 C   0  0  0  0  0  0  0  0  0  0  0  0
   37.0950   27.8440   44.1600 C   0  0  0  0  0  0  0  0  0  0  0  0
   37.9290   28.8900   43.8700 N   0  0  0  0  0  0  0  0  0  0  0  0
   37.7000   29.1760   42.5950 C   0  0  0  0  0  0  0  0  0  0  0  0
   38.4770   30.2610   42.0660 N   0  0  0  0  0  0  0  0  0  0  0  0
   39.7700   30.4720   42.4360 C   0  0  0  0  0  0  0  0  0  0  0  0
   40.2740   31.5700   41.7830 N   0  0  0  0  0  0  0  0  0  0  0  0
   39.3150   32.0510   41.0090 C   0  0  0  0  0  0  0  0  0  0  0  0
   39.2700   33.1210   40.1500 C   0  0  0  0  0  0  0  0  0  0  0  0
   38.0890   33.3140   39.5110 N   0  0  0  0  0  0  0  0  0  0  0  0
   37.0160   32.5240   39.6850 C   0  0  0  0  0  0  0  0  0  0  0  0
   37.0510   31.4650   40.5310 N   0  0  0  0  0  0  0  0  0  0  0  0
   38.2000   31.2510   41.1740 C   0  0  0  0  0  0  0  0  0  0  0  0
   40.3750   33.9800   39.9340 N   0  0  0  0  0  0  0  0  0  0  0  0
   34.8220   28.5370   36.8220 C   0  0  0  0  0  0  0  0  0  0  0  0
   33.4430   29.1310   36.7920 C   0  0  0  0  0  0  0  0  0  0  0  0
   34.7240   27.1420   36.2240 C   0  0  0  0  0  0  0  0  0  0  0  0
   35.7440   29.3390   35.9070 C   0  0  0  0  0  0  0  0  0  0  0  0
   35.0780   29.5540   34.6400 N   0  0  0  0  0  0  0  0  0  0  0  0
   34.4254   29.3797   41.2151 H   0  0  0  0  0  0  0  0  0  0  0  0
   38.0446   27.4066   39.9625 H   0  0  0  0  0  0  0  0  0  0  0  0
   35.6083   26.6969   42.9809 H   0  0  0  0  0  0  0  0  0  0  0  0
   37.0258   27.3517   45.1412 H   0  0  0  0  0  0  0  0  0  0  0  0
   40.3294   29.8534   43.1532 H   0  0  0  0  0  0  0  0  0  0  0  0
   36.0912   32.7407   39.1303 H   0  0  0  0  0  0  0  0  0  0  0  0
   40.2924   34.7705   39.2789 H   0  0  0  0  0  0  0  0  0  0  0  0
   41.2612   33.8142   40.4320 H   0  0  0  0  0  0  0  0  0  0  0  0
   33.0873   29.2842   37.8216 H   0  0  0  0  0  0  0  0  0  0  0  0
   33.4711   30.0968   36.2662 H   0  0  0  0  0  0  0  0  0  0  0  0
   32.7605   28.4471   36.2662 H   0  0  0  0  0  0  0  0  0  0  0  0
   34.6718   26.3989   37.0334 H   0  0  0  0  0  0  0  0  0  0  0  0
   33.8187   27.0720   35.6031 H   0  0  0  0  0  0  0  0  0  0  0  0
   35.6106   26.9461   35.6031 H   0  0  0  0  0  0  0  0  0  0  0  0
   35.9734   30.3089   36.3726 H   0  0  0  0  0  0  0  0  0  0  0  0
   36.6811   28.7860   35.7457 H   0  0  0  0  0  0  0  0  0  0  0  0
   34.1111   29.8661   34.8090 H   0  0  0  0  0  0  0  0  0  0  0  0
   35.5829   30.2747   34.1047 H   0  0  0  0  0  0  0  0  0  0  0  0
  1  2  2  0
  2  7  1  0
  3  2  1  0
  4  3  2  0
  5  4  1  0
  5  6  2  0
  6  1  1  0
  7 11  1  0
  7  8  1  0
  8  9  2  0
 10  9  1  0
 11 10  2  0
 12 13  1  0
 12 11  1  0
 14 13  2  0
 15 20  2  0
 15 14  1  0
 16 15  1  0
 17 18  1  0
 17 16  2  0
 18 19  2  0
 19 20  1  0
 20 12  1  0
 21 16  1  0
 22  5  1  0
 23 22  1  0
 24 22  1  0
 25 22  1  0
 26 25  1  0
  1 27  1  0
  3 28  1  0
  8 29  1  0
  9 30  1  0
 13 31  1  0
 18 32  1  0
 21 33  1  0
 21 34  1  0
 23 35  1  0
 23 36  1  0
 23 37  1  0
 24 38  1  0
 24 39  1  0
 24 40  1  0
 25 41  1  0
 25 42  1  0
 26 43  1  0
 26 44  1  0
M  ISO  8  27  14  28  14  29  14  30  14  31  14  32  14  35   8  36   8
M  ISO  8  37   8  38   8  39   8  40   8  41   8  42   8  43   5  44   5
M  END
>  <minimizedAffinity>  (1) 
-5.85778236

>  <minimizedRMSD>  (1) 
0.0305371881

$$$$
