
     RDKit          3D

 26 28  0  0  0  0  0  0  0  0999 V2000
   37.1980   30.3320   40.4280 C   0  0  0  0  0  0  0  0  0  0  0  0
   37.2390   31.7140   40.6340 C   0  0  0  0  0  0  0  0  0  0  0  0
   37.2680   32.6480   39.6330 C   0  0  0  0  0  0  0  0  0  0  0  0
   37.2600   32.2340   38.3220 C   0  0  0  0  0  0  0  0  0  0  0  0
   37.2210   30.8910   38.0530 C   0  0  0  0  0  0  0  0  0  0  0  0
   37.2130   30.5450   36.7220 C   0  0  0  0  0  0  0  0  0  0  0  0
   37.1740   29.2140   36.3620 C   0  0  0  0  0  0  0  0  0  0  0  0
   37.1440   28.2840   37.4030 C   0  0  0  0  0  0  0  0  0  0  0  0
   37.1530   28.6990   38.6990 C   0  0  0  0  0  0  0  0  0  0  0  0
   37.1910   29.9980   39.0940 C   0  0  0  0  0  0  0  0  0  0  0  0
   38.4120   28.7160   43.4040 C   0  0  0  0  0  0  0  0  0  0  0  0
   37.5030   27.7120   43.7410 C   0  0  0  0  0  0  0  0  0  0  0  0
   36.4110   27.5850   42.8930 C   0  0  0  0  0  0  0  0  0  0  0  0
   36.3130   28.4140   41.8460 N   0  0  0  0  0  0  0  0  0  0  0  0
   37.1660   29.3680   41.5160 C   0  0  0  0  0  0  0  0  0  0  0  0
   38.2050   29.4730   42.3390 N   0  0  0  0  0  0  0  0  0  0  0  0
   37.2486   32.0765   41.6725 H   0  0  0  0  0  0  0  0  0  0  0  0
   37.2974   33.7205   39.8758 H   0  0  0  0  0  0  0  0  0  0  0  0
   37.2845   32.9682   37.5032 H   0  0  0  0  0  0  0  0  0  0  0  0
   37.2376   31.3262   35.9479 H   0  0  0  0  0  0  0  0  0  0  0  0
   37.1669   28.9009   35.3075 H   0  0  0  0  0  0  0  0  0  0  0  0
   37.1129   27.2086   37.1740 H   0  0  0  0  0  0  0  0  0  0  0  0
   37.1277   27.9274   39.4826 H   0  0  0  0  0  0  0  0  0  0  0  0
   39.3042   28.8785   44.0265 H   0  0  0  0  0  0  0  0  0  0  0  0
   37.6424   27.0648   44.6195 H   0  0  0  0  0  0  0  0  0  0  0  0
   35.6427   26.8197   43.0773 H   0  0  0  0  0  0  0  0  0  0  0  0
  1  2  2  0
  1 15  1  0
  3  2  1  0
  4  3  2  0
  5  4  1  0
  5 10  2  0
  6  5  1  0
  7  6  2  0
  7  8  1  0
  8  9  2  0
  9 10  1  0
 10  1  1  0
 11 12  2  0
 13 12  1  0
 14 13  2  0
 15 14  1  0
 15 16  2  0
 16 11  1  0
  2 17  1  0
  3 18  1  0
  4 19  1  0
  6 20  1  0
  7 21  1  0
  8 22  1  0
  9 23  1  0
 11 24  1  0
 12 25  1  0
 13 26  1  0
M  ISO  8  17  14  18  14  19  14  20  14  21  14  22  14  23  14  24  14
M  ISO  2  25  14  26  14
M  END
>  <minimizedAffinity>  (1) 
-4.87446547

>  <minimizedRMSD>  (1) 
1.10734999

$$$$
