
     RDKit          3D

 21 22  0  0  0  0  0  0  0  0999 V2000
   36.8890   25.5230   42.6080 C   0  0  0  0  0  0  0  0  0  0  0  0
   38.0890   29.0640   43.3060 C   0  0  0  0  0  0  0  0  0  0  0  0
   37.9220   27.6680   43.4460 C   0  0  0  0  0  0  0  0  0  0  0  0
   37.1100   27.0000   42.5210 C   0  0  0  0  0  0  0  0  0  0  0  0
   36.5240   27.7360   41.5330 N   0  0  0  0  0  0  0  0  0  0  0  0
   36.7090   29.0660   41.4340 C   0  0  0  0  0  0  0  0  0  0  0  0
   37.4780   29.7150   42.3060 N   0  0  0  0  0  0  0  0  0  0  0  0
   37.8030   24.9090   41.6080 C   0  0  0  0  0  0  0  0  0  0  0  0
   37.6590   23.6150   41.1400 C   0  0  0  0  0  0  0  0  0  0  0  0
   38.5880   23.1930   40.2140 C   0  0  0  0  0  0  0  0  0  0  0  0
   39.5990   23.9170   39.7370 N   0  0  0  0  0  0  0  0  0  0  0  0
   39.7080   25.1700   40.2150 C   0  0  0  0  0  0  0  0  0  0  0  0
   38.8270   25.6380   41.1230 N   0  0  0  0  0  0  0  0  0  0  0  0
   37.1293   25.1600   43.6182 H   0  0  0  0  0  0  0  0  0  0  0  0
   35.8397   25.2614   42.4069 H   0  0  0  0  0  0  0  0  0  0  0  0
   38.7203   29.6166   44.0174 H   0  0  0  0  0  0  0  0  0  0  0  0
   38.4173   27.1197   44.2609 H   0  0  0  0  0  0  0  0  0  0  0  0
   36.2186   29.6235   40.6224 H   0  0  0  0  0  0  0  0  0  0  0  0
   36.8474   22.9591   41.4880 H   0  0  0  0  0  0  0  0  0  0  0  0
   38.4854   22.1656   39.8346 H   0  0  0  0  0  0  0  0  0  0  0  0
   40.5231   25.8188   39.8621 H   0  0  0  0  0  0  0  0  0  0  0  0
  2  3  2  0
  4  1  1  0
  4  3  1  0
  5  4  2  0
  6  5  1  0
  6  7  2  0
  7  2  1  0
  8  1  1  0
  9  8  2  0
 10  9  1  0
 11 10  2  0
 11 12  1  0
 12 13  2  0
 13  8  1  0
  1 14  1  0
  1 15  1  0
  2 16  1  0
  3 17  1  0
  6 18  1  0
  9 19  1  0
 10 20  1  0
 12 21  1  0
M  ISO  8  14   8  15   8  16  14  17  14  18  14  19  14  20  14  21  14
M  END
>  <minimizedAffinity>  (1) 
-3.52772307

>  <minimizedRMSD>  (1) 
0.638594806

$$$$
