
     RDKit          3D

 20 21  0  0  0  0  0  0  0  0999 V2000
   38.0200   29.0000   43.3610 C   0  0  0  0  0  0  0  0  0  0  0  0
   37.8620   27.5940   43.4650 C   0  0  0  0  0  0  0  0  0  0  0  0
   37.0930   26.9800   42.4860 C   0  0  0  0  0  0  0  0  0  0  0  0
   36.5370   27.7310   41.4940 N   0  0  0  0  0  0  0  0  0  0  0  0
   36.7200   29.0740   41.4430 C   0  0  0  0  0  0  0  0  0  0  0  0
   37.4530   29.7000   42.3660 N   0  0  0  0  0  0  0  0  0  0  0  0
   36.8690   25.4900   42.5140 C   0  0  0  0  0  0  0  0  0  0  0  0
   37.2390   24.9290   41.1720 C   0  0  0  0  0  0  0  0  0  0  0  0
   36.3200   23.8950   40.5330 C   0  0  0  0  0  0  0  0  0  0  0  0
   37.6340   23.4830   41.0710 C   0  0  0  0  0  0  0  0  0  0  0  0
   38.6219   29.5295   44.1142 H   0  0  0  0  0  0  0  0  0  0  0  0
   38.3255   27.0193   44.2804 H   0  0  0  0  0  0  0  0  0  0  0  0
   36.2584   29.6545   40.6306 H   0  0  0  0  0  0  0  0  0  0  0  0
   37.4979   25.0345   43.2931 H   0  0  0  0  0  0  0  0  0  0  0  0
   35.8144   25.2709   42.7370 H   0  0  0  0  0  0  0  0  0  0  0  0
   37.6826   25.8872   40.8638 H   0  0  0  0  0  0  0  0  0  0  0  0
   36.1500   23.9072   39.4463 H   0  0  0  0  0  0  0  0  0  0  0  0
   35.2796   23.5753   40.6922 H   0  0  0  0  0  0  0  0  0  0  0  0
   37.6823   22.8656   41.9801 H   0  0  0  0  0  0  0  0  0  0  0  0
   38.5022   22.9502   40.6558 H   0  0  0  0  0  0  0  0  0  0  0  0
  1  2  2  0
  3  7  1  0
  3  2  1  0
  4  3  2  0
  5  4  1  0
  5  6  2  0
  6  1  1  0
  8  7  1  0
  9 10  1  0
  9  8  1  0
 10  8  1  0
  1 11  1  0
  2 12  1  0
  5 13  1  0
  7 14  1  0
  7 15  1  0
  8 16  1  0
  9 17  1  0
  9 18  1  0
 10 19  1  0
 10 20  1  0
M  ISO  8  11  14  12  14  13  14  14   8  15   8  16  13  17  13  18  13
M  ISO  2  19  13  20  13
M  END
>  <minimizedAffinity>  (1) 
-3.39091635

>  <minimizedRMSD>  (1) 
0.72548002

$$$$
