
     RDKit          3D

 15 15  0  0  0  0  0  0  0  0999 V2000
   37.8780   28.8080   43.4200 C   0  0  0  0  0  0  0  0  0  0  0  0
   37.8440   27.3950   43.3710 C   0  0  0  0  0  0  0  0  0  0  0  0
   37.2070   26.7930   42.2910 C   0  0  0  0  0  0  0  0  0  0  0  0
   36.6500   27.5950   41.3350 N   0  0  0  0  0  0  0  0  0  0  0  0
   36.7000   28.9490   41.4100 C   0  0  0  0  0  0  0  0  0  0  0  0
   37.3140   29.5260   42.4530 N   0  0  0  0  0  0  0  0  0  0  0  0
   37.1260   25.3080   42.1640 C   0  0  0  0  0  0  0  0  0  0  0  0
   38.4000   24.6690   42.4070 N   0  0  0  0  0  0  0  0  0  0  0  0
   38.3729   29.3152   44.2613 H   0  0  0  0  0  0  0  0  0  0  0  0
   38.3078   26.7898   44.1638 H   0  0  0  0  0  0  0  0  0  0  0  0
   36.2417   29.5666   40.6235 H   0  0  0  0  0  0  0  0  0  0  0  0
   36.3949   24.9294   42.8935 H   0  0  0  0  0  0  0  0  0  0  0  0
   36.8215   25.0732   41.1334 H   0  0  0  0  0  0  0  0  0  0  0  0
   38.5566   24.5904   43.4220 H   0  0  0  0  0  0  0  0  0  0  0  0
   38.3984   23.7289   41.9861 H   0  0  0  0  0  0  0  0  0  0  0  0
  2  1  2  0
  3  2  1  0
  4  5  1  0
  4  3  2  0
  5  6  2  0
  6  1  1  0
  7  3  1  0
  7  8  1  0
  1  9  1  0
  2 10  1  0
  5 11  1  0
  7 12  1  0
  7 13  1  0
  8 14  1  0
  8 15  1  0
M  ISO  7   9  14  10  14  11  14  12   8  13   8  14   5  15   5
M  END
>  <minimizedAffinity>  (1) 
-2.63492632

>  <minimizedRMSD>  (1) 
0.326994002

$$$$
