
     RDKit          3D

 20 21  0  0  0  0  0  0  0  0999 V2000
   39.5330   29.3850   42.6370 C   0  0  0  0  0  0  0  0  0  0  0  0
   38.8670   28.1860   42.9820 C   0  0  0  0  0  0  0  0  0  0  0  0
   37.5290   28.0360   42.6540 C   0  0  0  0  0  0  0  0  0  0  0  0
   36.9220   29.0760   42.0050 N   0  0  0  0  0  0  0  0  0  0  0  0
   37.5790   30.2110   41.6860 C   0  0  0  0  0  0  0  0  0  0  0  0
   38.8640   30.3550   42.0000 N   0  0  0  0  0  0  0  0  0  0  0  0
   36.7660   26.7900   42.9920 C   0  0  0  0  0  0  0  0  0  0  0  0
   37.1780   25.7140   42.1000 C   0  0  0  0  0  0  0  0  0  0  0  0
   37.6780   24.4660   42.2840 C   0  0  0  0  0  0  0  0  0  0  0  0
   37.9890   23.6350   41.2630 C   0  0  0  0  0  0  0  0  0  0  0  0
   37.7140   24.2580   39.9440 C   0  0  0  0  0  0  0  0  0  0  0  0
   37.0810   25.8650   40.3360 S   0  0  0  0  0  0  0  0  0  0  0  0
   40.5948   29.5203   42.8904 H   0  0  0  0  0  0  0  0  0  0  0  0
   39.4050   27.3815   43.5048 H   0  0  0  0  0  0  0  0  0  0  0  0
   37.0493   31.0213   41.1636 H   0  0  0  0  0  0  0  0  0  0  0  0
   36.9739   26.5034   44.0335 H   0  0  0  0  0  0  0  0  0  0  0  0
   35.6883   26.9748   42.8720 H   0  0  0  0  0  0  0  0  0  0  0  0
   37.8382   24.1130   43.3134 H   0  0  0  0  0  0  0  0  0  0  0  0
   38.3959   22.6215   41.3941 H   0  0  0  0  0  0  0  0  0  0  0  0
   37.8686   23.8199   38.9469 H   0  0  0  0  0  0  0  0  0  0  0  0
  1  2  2  0
  3  2  1  0
  3  7  1  0
  4  3  2  0
  5  6  2  0
  5  4  1  0
  6  1  1  0
  8  9  2  0
  8  7  1  0
 10  9  1  0
 11 12  1  0
 11 10  2  0
 12  8  1  0
  1 13  1  0
  2 14  1  0
  5 15  1  0
  7 16  1  0
  7 17  1  0
  9 18  1  0
 10 19  1  0
 11 20  1  0
M  ISO  8  13  14  14  14  15  14  16   8  17   8  18  14  19  14  20  14
M  END
>  <minimizedAffinity>  (1) 
-3.48437428

>  <minimizedRMSD>  (1) 
1.78878665

$$$$
