
     RDKit          3D

 31 33  0  0  0  0  0  0  0  0999 V2000
   38.2340   27.1110   43.0660 C   0  0  0  0  0  0  0  0  0  0  0  0
   39.2120   26.2490   43.4170 C   0  0  0  0  0  0  0  0  0  0  0  0
   39.5080   25.1510   42.7000 C   0  0  0  0  0  0  0  0  0  0  0  0
   38.6550   25.0170   41.5180 C   0  0  0  0  0  0  0  0  0  0  0  0
   37.5740   26.4200   41.5730 S   0  0  0  0  0  0  0  0  0  0  0  0
   38.7790   23.9340   40.6020 N   0  0  0  0  0  0  0  0  0  0  0  0
   38.0150   22.8540   40.8440 C   0  0  0  0  0  0  0  0  0  0  0  0
   38.1340   21.8040   39.9580 C   0  0  0  0  0  0  0  0  0  0  0  0
   39.0250   21.9570   38.9020 C   0  0  0  0  0  0  0  0  0  0  0  0
   39.0970   20.8370   38.0270 N   0  0  0  0  0  0  0  0  0  0  0  0
   39.7560   23.0740   38.7270 N   0  0  0  0  0  0  0  0  0  0  0  0
   39.6460   24.1040   39.5880 C   0  0  0  0  0  0  0  0  0  0  0  0
   40.3100   25.1580   39.4560 O   0  0  0  0  0  0  0  0  0  0  0  0
   37.6860   28.3540   43.6210 C   0  0  0  0  0  0  0  0  0  0  0  0
   39.3200   31.1820   41.6800 C   0  0  0  0  0  0  0  0  0  0  0  0
   39.1440   30.1130   42.5930 C   0  0  0  0  0  0  0  0  0  0  0  0
   37.9230   29.4810   42.6790 C   0  0  0  0  0  0  0  0  0  0  0  0
   36.9250   29.9300   41.8620 N   0  0  0  0  0  0  0  0  0  0  0  0
   37.1110   30.9510   40.9960 C   0  0  0  0  0  0  0  0  0  0  0  0
   38.2890   31.5610   40.9130 N   0  0  0  0  0  0  0  0  0  0  0  0
   39.7917   26.4540   44.3291 H   0  0  0  0  0  0  0  0  0  0  0  0
   40.2993   24.4363   42.9702 H   0  0  0  0  0  0  0  0  0  0  0  0
   37.3307   22.8105   41.7041 H   0  0  0  0  0  0  0  0  0  0  0  0
   37.5471   20.8819   40.0820 H   0  0  0  0  0  0  0  0  0  0  0  0
   39.7303   20.8577   37.2150 H   0  0  0  0  0  0  0  0  0  0  0  0
   38.5158   20.0056   38.2057 H   0  0  0  0  0  0  0  0  0  0  0  0
   36.6043   28.2352   43.7818 H   0  0  0  0  0  0  0  0  0  0  0  0
   38.1840   28.5724   44.5772 H   0  0  0  0  0  0  0  0  0  0  0  0
   40.2904   31.6941   41.6019 H   0  0  0  0  0  0  0  0  0  0  0  0
   39.9794   29.7888   43.2310 H   0  0  0  0  0  0  0  0  0  0  0  0
   36.2803   31.2799   40.3544 H   0  0  0  0  0  0  0  0  0  0  0  0
  1  2  2  0
  1 14  1  0
  3  2  1  0
  4  5  1  0
  4  3  2  0
  5  1  1  0
  6  7  1  0
  6  4  1  0
  8  7  2  0
  9  8  1  0
 10  9  1  0
 11  9  2  0
 11 12  1  0
 12  6  1  0
 13 12  2  0
 15 16  2  0
 16 17  1  0
 17 14  1  0
 18 17  2  0
 19 18  1  0
 20 19  2  0
 20 15  1  0
  2 21  1  0
  3 22  1  0
  7 23  1  0
  8 24  1  0
 10 25  1  0
 10 26  1  0
 14 27  1  0
 14 28  1  0
 15 29  1  0
 16 30  1  0
 19 31  1  0
M  ISO  8  21  14  22  14  23  14  24  14  27   8  28   8  29  14  30  14
M  ISO  1  31  14
M  END
>  <minimizedAffinity>  (1) 
-4.58263397

>  <minimizedRMSD>  (1) 
2.22748089

$$$$
