
     RDKit          3D

 30 32  0  0  0  0  0  0  0  0999 V2000
   37.0480   26.4560   42.4080 C   0  0  0  0  0  0  0  0  0  0  0  0
   36.9510   25.1110   42.4570 C   0  0  0  0  0  0  0  0  0  0  0  0
   36.8290   24.3440   41.3580 C   0  0  0  0  0  0  0  0  0  0  0  0
   36.8140   25.1450   40.1320 C   0  0  0  0  0  0  0  0  0  0  0  0
   36.9710   26.8200   40.6780 S   0  0  0  0  0  0  0  0  0  0  0  0
   36.6930   24.5780   38.8270 N   0  0  0  0  0  0  0  0  0  0  0  0
   35.4390   24.3370   38.4070 C   0  0  0  0  0  0  0  0  0  0  0  0
   35.3450   23.7830   37.1270 C   0  0  0  0  0  0  0  0  0  0  0  0
   36.4930   23.5160   36.3760 C   0  0  0  0  0  0  0  0  0  0  0  0
   36.3190   23.0240   35.2490 O   0  0  0  0  0  0  0  0  0  0  0  0
   37.7040   23.8050   36.9110 N   0  0  0  0  0  0  0  0  0  0  0  0
   37.8240   24.3380   38.1390 C   0  0  0  0  0  0  0  0  0  0  0  0
   38.9550   24.6120   38.6500 O   0  0  0  0  0  0  0  0  0  0  0  0
   37.1850   27.5300   43.4000 C   0  0  0  0  0  0  0  0  0  0  0  0
   40.8110   28.5420   42.8960 C   0  0  0  0  0  0  0  0  0  0  0  0
   39.6870   27.7410   43.1650 C   0  0  0  0  0  0  0  0  0  0  0  0
   38.4200   28.3190   43.1260 C   0  0  0  0  0  0  0  0  0  0  0  0
   38.3410   29.6500   42.8240 N   0  0  0  0  0  0  0  0  0  0  0  0
   39.4510   30.3870   42.5710 C   0  0  0  0  0  0  0  0  0  0  0  0
   40.6620   29.8380   42.6080 N   0  0  0  0  0  0  0  0  0  0  0  0
   36.9726   24.6189   43.4405 H   0  0  0  0  0  0  0  0  0  0  0  0
   36.7500   23.2470   41.3781 H   0  0  0  0  0  0  0  0  0  0  0  0
   34.5550   24.5586   39.0230 H   0  0  0  0  0  0  0  0  0  0  0  0
   34.3550   23.5543   36.7056 H   0  0  0  0  0  0  0  0  0  0  0  0
   38.5541   23.6113   36.3627 H   0  0  0  0  0  0  0  0  0  0  0  0
   36.3088   28.1926   43.3436 H   0  0  0  0  0  0  0  0  0  0  0  0
   37.2529   27.0883   44.4051 H   0  0  0  0  0  0  0  0  0  0  0  0
   41.8177   28.0994   42.9228 H   0  0  0  0  0  0  0  0  0  0  0  0
   39.8064   26.6737   43.4027 H   0  0  0  0  0  0  0  0  0  0  0  0
   39.3482   31.4557   42.3314 H   0  0  0  0  0  0  0  0  0  0  0  0
  1  2  2  0
  1 14  1  0
  3  2  1  0
  4  5  1  0
  4  3  2  0
  5  1  1  0
  6  4  1  0
  7  6  1  0
  8  7  2  0
  9 11  1  0
  9  8  1  0
 10  9  2  0
 11 12  1  0
 12 13  2  0
 12  6  1  0
 15 16  2  0
 17 16  1  0
 17 14  1  0
 18 17  2  0
 19 20  2  0
 19 18  1  0
 20 15  1  0
  2 21  1  0
  3 22  1  0
  7 23  1  0
  8 24  1  0
 11 25  1  0
 14 26  1  0
 14 27  1  0
 15 28  1  0
 16 29  1  0
 19 30  1  0
M  ISO  8  21  14  22  14  23  14  24  14  25   9  26   8  27   8  28  14
M  ISO  2  29  14  30  14
M  END
>  <minimizedAffinity>  (1) 
-4.14273977

>  <minimizedRMSD>  (1) 
1.70600784

$$$$
