
     RDKit          3D

 33 35  0  0  0  0  0  0  0  0999 V2000
   36.5960   27.2240   43.0610 C   0  0  0  0  0  0  0  0  0  0  0  0
   39.3400   29.8160   42.6080 C   0  0  0  0  0  0  0  0  0  0  0  0
   38.6660   28.6510   43.0570 C   0  0  0  0  0  0  0  0  0  0  0  0
   37.3730   28.4240   42.6360 C   0  0  0  0  0  0  0  0  0  0  0  0
   36.8220   29.3510   41.8040 N   0  0  0  0  0  0  0  0  0  0  0  0
   37.4750   30.4490   41.3890 C   0  0  0  0  0  0  0  0  0  0  0  0
   38.7130   30.6740   41.7870 N   0  0  0  0  0  0  0  0  0  0  0  0
   37.0040   26.0640   42.2610 C   0  0  0  0  0  0  0  0  0  0  0  0
   37.3870   24.7980   42.5280 C   0  0  0  0  0  0  0  0  0  0  0  0
   37.7170   23.9120   41.5700 C   0  0  0  0  0  0  0  0  0  0  0  0
   37.6090   24.4840   40.2350 C   0  0  0  0  0  0  0  0  0  0  0  0
   37.0710   26.1550   40.4920 S   0  0  0  0  0  0  0  0  0  0  0  0
   37.9110   23.7370   38.9810 C   0  0  0  0  0  0  0  0  0  0  0  0
   37.0390   22.5040   38.9950 C   0  0  0  0  0  0  0  0  0  0  0  0
   37.7860   21.4890   38.1630 C   0  0  0  0  0  0  0  0  0  0  0  0
   39.2330   21.7540   38.5420 C   0  0  0  0  0  0  0  0  0  0  0  0
   39.3010   23.2090   38.9600 C   0  0  0  0  0  0  0  0  0  0  0  0
   36.7889   27.0210   44.1248 H   0  0  0  0  0  0  0  0  0  0  0  0
   35.5227   27.4120   42.9104 H   0  0  0  0  0  0  0  0  0  0  0  0
   40.3723   30.0156   42.9312 H   0  0  0  0  0  0  0  0  0  0  0  0
   39.1672   27.9401   43.7304 H   0  0  0  0  0  0  0  0  0  0  0  0
   36.9768   31.1622   40.7159 H   0  0  0  0  0  0  0  0  0  0  0  0
   37.4317   24.4747   43.5785 H   0  0  0  0  0  0  0  0  0  0  0  0
   38.0314   22.8774   41.7717 H   0  0  0  0  0  0  0  0  0  0  0  0
   37.7538   24.4178   38.1314 H   0  0  0  0  0  0  0  0  0  0  0  0
   36.9040   22.1373   40.0233 H   0  0  0  0  0  0  0  0  0  0  0  0
   36.0329   22.7044   38.5980 H   0  0  0  0  0  0  0  0  0  0  0  0
   37.6196   21.6558   37.0885 H   0  0  0  0  0  0  0  0  0  0  0  0
   37.4676   20.4521   38.3462 H   0  0  0  0  0  0  0  0  0  0  0  0
   39.5340   21.1032   39.3762 H   0  0  0  0  0  0  0  0  0  0  0  0
   39.9119   21.5462   37.7018 H   0  0  0  0  0  0  0  0  0  0  0  0
   39.7484   23.2909   39.9616 H   0  0  0  0  0  0  0  0  0  0  0  0
   39.9217   23.7839   38.2571 H   0  0  0  0  0  0  0  0  0  0  0  0
  2  3  2  0
  4  3  1  0
  4  1  1  0
  5  4  2  0
  6  7  2  0
  6  5  1  0
  7  2  1  0
  8  9  2  0
  8  1  1  0
 10  9  1  0
 11 12  1  0
 11 10  2  0
 12  8  1  0
 13 14  1  0
 13 11  1  0
 15 16  1  0
 15 14  1  0
 16 17  1  0
 17 13  1  0
  1 18  1  0
  1 19  1  0
  2 20  1  0
  3 21  1  0
  6 22  1  0
  9 23  1  0
 10 24  1  0
 13 25  1  0
 14 26  1  0
 14 27  1  0
 15 28  1  0
 15 29  1  0
 16 30  1  0
 16 31  1  0
 17 32  1  0
 17 33  1  0
M  ISO  8  18   8  19   8  20  14  21  14  22  14  23  14  24  14  25  13
M  ISO  8  26  13  27  13  28  13  29  13  30  13  31  13  32  13  33  13
M  END
>  <minimizedAffinity>  (1) 
-4.04714441

>  <minimizedRMSD>  (1) 
1.02281451

$$$$
