
     RDKit          3D

 27 29  0  0  0  0  0  0  0  0999 V2000
   37.0240   26.0650   42.2650 C   0  0  0  0  0  0  0  0  0  0  0  0
   37.3400   24.7810   42.5440 C   0  0  0  0  0  0  0  0  0  0  0  0
   37.7210   23.9010   41.6020 C   0  0  0  0  0  0  0  0  0  0  0  0
   37.7510   24.4850   40.2650 C   0  0  0  0  0  0  0  0  0  0  0  0
   37.2550   26.1480   40.5010 S   0  0  0  0  0  0  0  0  0  0  0  0
   38.1150   23.8090   39.0310 C   0  0  0  0  0  0  0  0  0  0  0  0
   39.1300   22.9050   38.9410 C   0  0  0  0  0  0  0  0  0  0  0  0
   39.1140   22.5250   37.5940 C   0  0  0  0  0  0  0  0  0  0  0  0
   38.0880   23.2280   36.9620 C   0  0  0  0  0  0  0  0  0  0  0  0
   37.5200   23.9880   37.8770 O   0  0  0  0  0  0  0  0  0  0  0  0
   36.5860   27.2260   43.0430 C   0  0  0  0  0  0  0  0  0  0  0  0
   39.3240   29.8240   42.6230 C   0  0  0  0  0  0  0  0  0  0  0  0
   38.6490   28.6680   43.0590 C   0  0  0  0  0  0  0  0  0  0  0  0
   37.3480   28.4290   42.6150 C   0  0  0  0  0  0  0  0  0  0  0  0
   36.7990   29.3460   41.7690 N   0  0  0  0  0  0  0  0  0  0  0  0
   37.4590   30.4460   41.3610 C   0  0  0  0  0  0  0  0  0  0  0  0
   38.7050   30.6810   41.7830 N   0  0  0  0  0  0  0  0  0  0  0  0
   37.2829   24.4408   43.5885 H   0  0  0  0  0  0  0  0  0  0  0  0
   37.9819   22.8540   41.8158 H   0  0  0  0  0  0  0  0  0  0  0  0
   39.8029   22.5562   39.7382 H   0  0  0  0  0  0  0  0  0  0  0  0
   39.7907   21.8002   37.1179 H   0  0  0  0  0  0  0  0  0  0  0  0
   37.8063   23.1608   35.9008 H   0  0  0  0  0  0  0  0  0  0  0  0
   35.5118   27.3945   42.8762 H   0  0  0  0  0  0  0  0  0  0  0  0
   36.7677   27.0394   44.1117 H   0  0  0  0  0  0  0  0  0  0  0  0
   40.3495   30.0278   42.9646 H   0  0  0  0  0  0  0  0  0  0  0  0
   39.1419   27.9608   43.7423 H   0  0  0  0  0  0  0  0  0  0  0  0
   36.9702   31.1551   40.6767 H   0  0  0  0  0  0  0  0  0  0  0  0
  1  2  2  0
  1 11  1  0
  3  2  1  0
  4  5  1  0
  4  3  2  0
  5  1  1  0
  6  4  1  0
  7  6  2  0
  8  7  1  0
  9  8  2  0
  9 10  1  0
 10  6  1  0
 12 13  2  0
 14 11  1  0
 14 13  1  0
 15 14  2  0
 16 15  1  0
 16 17  2  0
 17 12  1  0
  2 18  1  0
  3 19  1  0
  7 20  1  0
  8 21  1  0
  9 22  1  0
 11 23  1  0
 11 24  1  0
 12 25  1  0
 13 26  1  0
 16 27  1  0
M  ISO  8  18  14  19  14  20  14  21  14  22  14  23   8  24   8  25  14
M  ISO  2  26  14  27  14
M  END
>  <minimizedAffinity>  (1) 
-3.87336993

>  <minimizedRMSD>  (1) 
0.535951138

$$$$
