
     RDKit          3D

 28 30  0  0  0  0  0  0  0  0999 V2000
   37.1010   25.7870   42.1350 C   0  0  0  0  0  0  0  0  0  0  0  0
   37.5300   24.5240   42.3310 C   0  0  0  0  0  0  0  0  0  0  0  0
   37.8200   23.6870   41.3180 C   0  0  0  0  0  0  0  0  0  0  0  0
   37.6140   24.3080   40.0160 C   0  0  0  0  0  0  0  0  0  0  0  0
   37.0550   25.9460   40.3720 S   0  0  0  0  0  0  0  0  0  0  0  0
   37.8520   23.6280   38.7430 C   0  0  0  0  0  0  0  0  0  0  0  0
   38.7790   22.6480   38.6310 C   0  0  0  0  0  0  0  0  0  0  0  0
   38.9190   22.0700   37.3700 C   0  0  0  0  0  0  0  0  0  0  0  0
   38.1630   22.4830   36.3370 N   0  0  0  0  0  0  0  0  0  0  0  0
   37.2570   23.4680   36.5270 C   0  0  0  0  0  0  0  0  0  0  0  0
   37.0990   24.0460   37.7350 N   0  0  0  0  0  0  0  0  0  0  0  0
   36.7120   26.9080   42.9980 C   0  0  0  0  0  0  0  0  0  0  0  0
   39.5430   29.4150   42.6250 C   0  0  0  0  0  0  0  0  0  0  0  0
   38.8470   28.2350   42.9880 C   0  0  0  0  0  0  0  0  0  0  0  0
   37.5130   28.1170   42.6520 C   0  0  0  0  0  0  0  0  0  0  0  0
   36.9300   29.1600   41.9790 N   0  0  0  0  0  0  0  0  0  0  0  0
   37.6110   30.2740   41.6420 C   0  0  0  0  0  0  0  0  0  0  0  0
   38.9040   30.3910   41.9680 N   0  0  0  0  0  0  0  0  0  0  0  0
   37.6480   24.1622   43.3631 H   0  0  0  0  0  0  0  0  0  0  0  0
   38.1717   22.6540   41.4567 H   0  0  0  0  0  0  0  0  0  0  0  0
   39.3885   22.3253   39.4880 H   0  0  0  0  0  0  0  0  0  0  0  0
   39.6558   21.2674   37.2182 H   0  0  0  0  0  0  0  0  0  0  0  0
   36.6381   23.8038   35.6819 H   0  0  0  0  0  0  0  0  0  0  0  0
   35.6433   27.1252   42.8542 H   0  0  0  0  0  0  0  0  0  0  0  0
   36.8988   26.6383   44.0479 H   0  0  0  0  0  0  0  0  0  0  0  0
   40.6063   29.5288   42.8826 H   0  0  0  0  0  0  0  0  0  0  0  0
   39.3611   27.4265   43.5285 H   0  0  0  0  0  0  0  0  0  0  0  0
   37.1044   31.0859   41.0996 H   0  0  0  0  0  0  0  0  0  0  0  0
  1  2  2  0
  1 12  1  0
  3  2  1  0
  4  5  1  0
  4  3  2  0
  5  1  1  0
  6  4  1  0
  7  6  2  0
  8  7  1  0
  9 10  1  0
  9  8  2  0
 10 11  2  0
 11  6  1  0
 13 14  2  0
 15 14  1  0
 15 12  1  0
 16 15  2  0
 17 18  2  0
 17 16  1  0
 18 13  1  0
  2 19  1  0
  3 20  1  0
  7 21  1  0
  8 22  1  0
 10 23  1  0
 12 24  1  0
 12 25  1  0
 13 26  1  0
 14 27  1  0
 17 28  1  0
M  ISO  8  19  14  20  14  21  14  22  14  23  14  24   8  25   8  26  14
M  ISO  2  27  14  28  14
M  END
>  <minimizedAffinity>  (1) 
-3.82742

>  <minimizedRMSD>  (1) 
0.118436396

$$$$
