
     RDKit          3D

 26 28  0  0  0  0  0  0  0  0999 V2000
   36.6990   26.9230   42.9780 C   0  0  0  0  0  0  0  0  0  0  0  0
   39.5220   29.4450   42.6580 C   0  0  0  0  0  0  0  0  0  0  0  0
   38.8270   28.2610   43.0080 C   0  0  0  0  0  0  0  0  0  0  0  0
   37.5050   28.1390   42.6480 C   0  0  0  0  0  0  0  0  0  0  0  0
   36.9320   29.1780   41.9660 N   0  0  0  0  0  0  0  0  0  0  0  0
   37.6170   30.3020   41.6420 C   0  0  0  0  0  0  0  0  0  0  0  0
   38.9020   30.4240   41.9900 N   0  0  0  0  0  0  0  0  0  0  0  0
   37.1140   25.8220   42.1180 C   0  0  0  0  0  0  0  0  0  0  0  0
   37.4990   24.5450   42.3210 C   0  0  0  0  0  0  0  0  0  0  0  0
   37.8460   23.6970   41.3120 C   0  0  0  0  0  0  0  0  0  0  0  0
   37.7460   24.3520   40.0090 C   0  0  0  0  0  0  0  0  0  0  0  0
   37.2010   25.9970   40.3600 S   0  0  0  0  0  0  0  0  0  0  0  0
   38.0670   23.6420   38.8000 N   0  0  0  0  0  0  0  0  0  0  0  0
   38.9440   22.6230   38.7370 C   0  0  0  0  0  0  0  0  0  0  0  0
   39.0430   22.1530   37.4860 N   0  0  0  0  0  0  0  0  0  0  0  0
   38.1930   22.9120   36.7450 C   0  0  0  0  0  0  0  0  0  0  0  0
   37.6060   23.8170   37.5680 N   0  0  0  0  0  0  0  0  0  0  0  0
   36.8621   26.6486   44.0307 H   0  0  0  0  0  0  0  0  0  0  0  0
   35.6314   27.1338   42.8173 H   0  0  0  0  0  0  0  0  0  0  0  0
   40.5796   29.5600   42.9378 H   0  0  0  0  0  0  0  0  0  0  0  0
   39.3350   27.4546   43.5572 H   0  0  0  0  0  0  0  0  0  0  0  0
   37.1159   31.1130   41.0932 H   0  0  0  0  0  0  0  0  0  0  0  0
   37.5347   24.1688   43.3541 H   0  0  0  0  0  0  0  0  0  0  0  0
   38.1610   22.6534   41.4593 H   0  0  0  0  0  0  0  0  0  0  0  0
   39.5046   22.2287   39.5974 H   0  0  0  0  0  0  0  0  0  0  0  0
   38.0123   22.8101   35.6647 H   0  0  0  0  0  0  0  0  0  0  0  0
  2  3  2  0
  4  1  1  0
  4  3  1  0
  5  4  2  0
  6  5  1  0
  6  7  2  0
  7  2  1  0
  8  9  2  0
  8  1  1  0
 10  9  1  0
 11 12  1  0
 11 10  2  0
 12  8  1  0
 13 11  1  0
 14 13  1  0
 15 14  2  0
 16 15  1  0
 16 17  2  0
 17 13  1  0
  1 18  1  0
  1 19  1  0
  2 20  1  0
  3 21  1  0
  6 22  1  0
  9 23  1  0
 10 24  1  0
 14 25  1  0
 16 26  1  0
M  ISO  8  18   8  19   8  20  14  21  14  22  14  23  14  24  14  25  14
M  ISO  1  26  14
M  END
>  <minimizedAffinity>  (1) 
-3.76875401

>  <minimizedRMSD>  (1) 
0.242522255

$$$$
