
     RDKit          3D

 27 29  0  0  0  0  0  0  0  0999 V2000
   36.6910   26.9120   42.9640 C   0  0  0  0  0  0  0  0  0  0  0  0
   39.5280   29.4370   42.6400 C   0  0  0  0  0  0  0  0  0  0  0  0
   38.8270   28.2610   42.9890 C   0  0  0  0  0  0  0  0  0  0  0  0
   37.5030   28.1330   42.6300 C   0  0  0  0  0  0  0  0  0  0  0  0
   36.9260   29.1740   41.9400 N   0  0  0  0  0  0  0  0  0  0  0  0
   37.6210   30.2780   41.6260 C   0  0  0  0  0  0  0  0  0  0  0  0
   38.8940   30.4120   41.9660 N   0  0  0  0  0  0  0  0  0  0  0  0
   37.1240   25.7980   42.1110 C   0  0  0  0  0  0  0  0  0  0  0  0
   37.5180   24.5260   42.3300 C   0  0  0  0  0  0  0  0  0  0  0  0
   37.8710   23.6980   41.3350 C   0  0  0  0  0  0  0  0  0  0  0  0
   37.7780   24.3210   40.0210 C   0  0  0  0  0  0  0  0  0  0  0  0
   37.2190   25.9650   40.3450 S   0  0  0  0  0  0  0  0  0  0  0  0
   38.0960   23.6630   38.7880 N   0  0  0  0  0  0  0  0  0  0  0  0
   38.9680   22.6370   38.7590 C   0  0  0  0  0  0  0  0  0  0  0  0
   39.0300   22.2530   37.4250 C   0  0  0  0  0  0  0  0  0  0  0  0
   38.1990   23.0590   36.7190 N   0  0  0  0  0  0  0  0  0  0  0  0
   37.6190   23.9400   37.5810 C   0  0  0  0  0  0  0  0  0  0  0  0
   36.8423   26.6469   44.0208 H   0  0  0  0  0  0  0  0  0  0  0  0
   35.6244   27.1179   42.7910 H   0  0  0  0  0  0  0  0  0  0  0  0
   40.5858   29.5540   42.9181 H   0  0  0  0  0  0  0  0  0  0  0  0
   39.3331   27.4558   43.5417 H   0  0  0  0  0  0  0  0  0  0  0  0
   37.1229   31.0890   41.0745 H   0  0  0  0  0  0  0  0  0  0  0  0
   37.5510   24.1535   43.3645 H   0  0  0  0  0  0  0  0  0  0  0  0
   38.1961   22.6593   41.4942 H   0  0  0  0  0  0  0  0  0  0  0  0
   39.5131   22.1980   39.6076 H   0  0  0  0  0  0  0  0  0  0  0  0
   39.6449   21.4387   37.0141 H   0  0  0  0  0  0  0  0  0  0  0  0
   36.8954   24.7283   37.3260 H   0  0  0  0  0  0  0  0  0  0  0  0
  2  3  2  0
  4  1  1  0
  4  3  1  0
  5  4  2  0
  6  5  1  0
  6  7  2  0
  7  2  1  0
  8  9  2  0
  8  1  1  0
 10  9  1  0
 11 12  1  0
 11 10  2  0
 12  8  1  0
 13 11  1  0
 14 13  1  0
 15 14  2  0
 16 15  1  0
 16 17  2  0
 17 13  1  0
  1 18  1  0
  1 19  1  0
  2 20  1  0
  3 21  1  0
  6 22  1  0
  9 23  1  0
 10 24  1  0
 14 25  1  0
 15 26  1  0
 17 27  1  0
M  ISO  8  18   8  19   8  20  14  21  14  22  14  23  14  24  14  25  14
M  ISO  2  26  14  27  14
M  END
>  <minimizedAffinity>  (1) 
-3.75554514

>  <minimizedRMSD>  (1) 
0.172079459

$$$$
