
     RDKit          3D

 29 30  0  0  0  0  0  0  0  0999 V2000
   37.3670   29.9760   41.4220 C   0  0  0  0  0  0  0  0  0  0  0  0
   38.2950   29.3510   42.3320 C   0  0  0  0  0  0  0  0  0  0  0  0
   39.3950   30.1330   42.6390 C   0  0  0  0  0  0  0  0  0  0  0  0
   39.5650   31.3650   42.1260 N   0  0  0  0  0  0  0  0  0  0  0  0
   38.6680   31.9090   41.2780 C   0  0  0  0  0  0  0  0  0  0  0  0
   37.5770   31.2080   40.9350 N   0  0  0  0  0  0  0  0  0  0  0  0
   37.9890   28.0510   42.7920 N   0  0  0  0  0  0  0  0  0  0  0  0
   36.9550   27.7280   43.6820 C   0  0  0  0  0  0  0  0  0  0  0  0
   36.6760   28.6080   44.6030 N   0  0  0  0  0  0  0  0  0  0  0  0
   36.3590   26.4440   43.4220 N   0  0  0  0  0  0  0  0  0  0  0  0
   35.9080   28.4460   45.2790 H   0  0  0  0  0  0  0  0  0  0  0  0
   39.0020   33.2460   40.8170 C   0  0  0  0  0  0  0  0  0  0  0  0
   38.1710   34.2420   40.3730 C   0  0  0  0  0  0  0  0  0  0  0  0
   38.9260   35.3610   40.0310 C   0  0  0  0  0  0  0  0  0  0  0  0
   40.2110   34.9640   40.2950 C   0  0  0  0  0  0  0  0  0  0  0  0
   40.2000   33.7590   40.7380 O   0  0  0  0  0  0  0  0  0  0  0  0
   41.3950   35.8310   40.0830 C   0  0  0  0  0  0  0  0  0  0  0  0
   42.5530   35.1810   40.5140 F   0  0  0  0  0  0  0  0  0  0  0  0
   41.5040   36.1360   38.7370 F   0  0  0  0  0  0  0  0  0  0  0  0
   41.3050   36.9880   40.8160 F   0  0  0  0  0  0  0  0  0  0  0  0
   38.3840   36.5740   39.5340 N   0  0  0  0  0  0  0  0  0  0  0  0
   36.4628   29.4277   41.1192 H   0  0  0  0  0  0  0  0  0  0  0  0
   40.1559   29.7336   43.3257 H   0  0  0  0  0  0  0  0  0  0  0  0
   38.5734   27.2770   42.4452 H   0  0  0  0  0  0  0  0  0  0  0  0
   35.5886   26.1042   44.0153 H   0  0  0  0  0  0  0  0  0  0  0  0
   36.7028   25.8649   42.6427 H   0  0  0  0  0  0  0  0  0  0  0  0
   37.0760   34.1685   40.2984 H   0  0  0  0  0  0  0  0  0  0  0  0
   37.3664   36.6691   39.4058 H   0  0  0  0  0  0  0  0  0  0  0  0
   39.0080   37.3597   39.3013 H   0  0  0  0  0  0  0  0  0  0  0  0
  1  2  2  0
  2  3  1  0
  2  7  1  0
  4  3  2  0
  5  4  1  0
  6  5  2  0
  6  1  1  0
  7  8  1  0
  8  9  2  0
  9 11  1  0
 10  8  1  0
 12  5  1  0
 13 12  2  0
 14 15  2  0
 14 13  1  0
 15 16  1  0
 16 12  1  0
 17 15  1  0
 17 18  1  0
 17 20  1  0
 19 17  1  0
 21 14  1  0
  1 22  1  0
  3 23  1  0
  7 24  1  0
 10 25  1  0
 10 26  1  0
 13 27  1  0
 21 28  1  0
 21 29  1  0
M  ISO  3  22  14  23  14  27  14
M  END
>  <minimizedAffinity>  (1) 
-5.35205889

>  <minimizedRMSD>  (1) 
0.498966366

$$$$
