
     RDKit          3D

 25 27  0  0  0  0  0  0  0  0999 V2000
   37.1200   25.8050   42.1190 C   0  0  0  0  0  0  0  0  0  0  0  0
   37.5110   24.5310   42.3350 C   0  0  0  0  0  0  0  0  0  0  0  0
   37.8600   23.6990   41.3380 C   0  0  0  0  0  0  0  0  0  0  0  0
   37.7650   24.3330   40.0290 C   0  0  0  0  0  0  0  0  0  0  0  0
   37.2110   25.9780   40.3570 S   0  0  0  0  0  0  0  0  0  0  0  0
   38.0930   23.6290   38.7820 C   0  0  0  0  0  0  0  0  0  0  0  0
   38.9720   22.6320   38.7150 N   0  0  0  0  0  0  0  0  0  0  0  0
   39.0740   22.1940   37.5180 O   0  0  0  0  0  0  0  0  0  0  0  0
   38.2460   22.9100   36.7630 C   0  0  0  0  0  0  0  0  0  0  0  0
   37.6140   23.8280   37.5490 N   0  0  0  0  0  0  0  0  0  0  0  0
   36.6910   26.9260   42.9620 C   0  0  0  0  0  0  0  0  0  0  0  0
   39.5300   29.4490   42.6510 C   0  0  0  0  0  0  0  0  0  0  0  0
   38.8250   28.2690   42.9950 C   0  0  0  0  0  0  0  0  0  0  0  0
   37.4990   28.1430   42.6320 C   0  0  0  0  0  0  0  0  0  0  0  0
   36.9350   29.1830   41.9490 N   0  0  0  0  0  0  0  0  0  0  0  0
   37.6170   30.2980   41.6290 C   0  0  0  0  0  0  0  0  0  0  0  0
   38.8870   30.4210   41.9750 N   0  0  0  0  0  0  0  0  0  0  0  0
   37.5455   24.1582   43.3693 H   0  0  0  0  0  0  0  0  0  0  0  0
   38.1807   22.6582   41.4927 H   0  0  0  0  0  0  0  0  0  0  0  0
   38.0954   22.7826   35.6808 H   0  0  0  0  0  0  0  0  0  0  0  0
   35.6262   27.1336   42.7804 H   0  0  0  0  0  0  0  0  0  0  0  0
   36.8409   26.6648   44.0200 H   0  0  0  0  0  0  0  0  0  0  0  0
   40.5867   29.5697   42.9317 H   0  0  0  0  0  0  0  0  0  0  0  0
   39.3292   27.4613   43.5458 H   0  0  0  0  0  0  0  0  0  0  0  0
   37.1169   31.1085   41.0786 H   0  0  0  0  0  0  0  0  0  0  0  0
  1  2  2  0
  1 11  1  0
  3  2  1  0
  4  5  1  0
  4  3  2  0
  5  1  1  0
  6  4  1  0
  7  6  2  0
  8  7  1  0
  9  8  1  0
  9 10  2  0
 10  6  1  0
 12 13  2  0
 14 11  1  0
 14 13  1  0
 15 14  2  0
 16 15  1  0
 16 17  2  0
 17 12  1  0
  2 18  1  0
  3 19  1  0
  9 20  1  0
 11 21  1  0
 11 22  1  0
 12 23  1  0
 13 24  1  0
 16 25  1  0
M  ISO  8  18  14  19  14  20  14  21   8  22   8  23  14  24  14  25  14
M  END
>  <minimizedAffinity>  (1) 
-3.75077748

>  <minimizedRMSD>  (1) 
0.171879083

$$$$
