
     RDKit          3D

 27 29  0  0  0  0  0  0  0  0999 V2000
   37.0850   25.8110   42.1520 C   0  0  0  0  0  0  0  0  0  0  0  0
   37.5010   24.5410   42.3280 C   0  0  0  0  0  0  0  0  0  0  0  0
   37.7890   23.6990   41.3240 C   0  0  0  0  0  0  0  0  0  0  0  0
   37.5950   24.3370   40.0240 C   0  0  0  0  0  0  0  0  0  0  0  0
   37.0570   25.9680   40.3790 S   0  0  0  0  0  0  0  0  0  0  0  0
   37.8000   23.7650   38.6940 C   0  0  0  0  0  0  0  0  0  0  0  0
   38.7320   22.7710   38.4860 C   0  0  0  0  0  0  0  0  0  0  0  0
   38.6480   22.4930   37.1700 N   0  0  0  0  0  0  0  0  0  0  0  0
   37.7050   23.2960   36.6550 C   0  0  0  0  0  0  0  0  0  0  0  0
   37.1510   24.1070   37.5780 N   0  0  0  0  0  0  0  0  0  0  0  0
   36.7070   26.9320   43.0150 C   0  0  0  0  0  0  0  0  0  0  0  0
   39.5400   29.4350   42.6210 C   0  0  0  0  0  0  0  0  0  0  0  0
   38.8310   28.2640   42.9890 C   0  0  0  0  0  0  0  0  0  0  0  0
   37.4980   28.1420   42.6530 C   0  0  0  0  0  0  0  0  0  0  0  0
   36.9390   29.1770   41.9740 N   0  0  0  0  0  0  0  0  0  0  0  0
   37.6180   30.2850   41.6290 C   0  0  0  0  0  0  0  0  0  0  0  0
   38.8960   30.4090   41.9480 N   0  0  0  0  0  0  0  0  0  0  0  0
   37.6112   24.1722   43.3585 H   0  0  0  0  0  0  0  0  0  0  0  0
   38.1277   22.6616   41.4618 H   0  0  0  0  0  0  0  0  0  0  0  0
   39.3970   22.3074   39.2295 H   0  0  0  0  0  0  0  0  0  0  0  0
   37.4151   23.2929   35.5939 H   0  0  0  0  0  0  0  0  0  0  0  0
   36.4120   24.8137   37.4538 H   0  0  0  0  0  0  0  0  0  0  0  0
   35.6355   27.1453   42.8870 H   0  0  0  0  0  0  0  0  0  0  0  0
   36.9115   26.6666   44.0627 H   0  0  0  0  0  0  0  0  0  0  0  0
   40.6028   29.5474   42.8815 H   0  0  0  0  0  0  0  0  0  0  0  0
   39.3397   27.4582   43.5385 H   0  0  0  0  0  0  0  0  0  0  0  0
   37.1093   31.0910   41.0798 H   0  0  0  0  0  0  0  0  0  0  0  0
  1  2  2  0
  1 11  1  0
  3  2  1  0
  4  5  1  0
  4  3  2  0
  5  1  1  0
  6  4  1  0
  7  6  2  0
  8  7  1  0
  9  8  2  0
  9 10  1  0
 10  6  1  0
 12 13  2  0
 14 13  1  0
 14 11  1  0
 15 14  2  0
 16 17  2  0
 16 15  1  0
 17 12  1  0
  2 18  1  0
  3 19  1  0
  7 20  1  0
  9 21  1  0
 10 22  1  0
 11 23  1  0
 11 24  1  0
 12 25  1  0
 13 26  1  0
 16 27  1  0
M  ISO  8  18  14  19  14  20  14  21  14  22   9  23   8  24   8  25  14
M  ISO  2  26  14  27  14
M  END
>  <minimizedAffinity>  (1) 
-3.74994397

>  <minimizedRMSD>  (1) 
0.140580222

$$$$
