
     RDKit          3D

 32 34  0  0  0  0  0  0  0  0999 V2000
   37.0730   25.8160   42.1510 C   0  0  0  0  0  0  0  0  0  0  0  0
   37.4790   24.5420   42.3110 C   0  0  0  0  0  0  0  0  0  0  0  0
   37.7530   23.6940   41.2900 C   0  0  0  0  0  0  0  0  0  0  0  0
   37.5490   24.3490   40.0020 C   0  0  0  0  0  0  0  0  0  0  0  0
   37.0260   25.9830   40.3870 S   0  0  0  0  0  0  0  0  0  0  0  0
   37.7320   23.7890   38.7130 N   0  0  0  0  0  0  0  0  0  0  0  0
   38.9780   23.7750   37.9680 C   0  0  0  0  0  0  0  0  0  0  0  0
   38.6380   23.1130   36.6510 C   0  0  0  0  0  0  0  0  0  0  0  0
   37.4350   22.2910   36.9860 C   0  0  0  0  0  0  0  0  0  0  0  0
   36.6850   23.1600   37.9820 C   0  0  0  0  0  0  0  0  0  0  0  0
   36.7160   26.9140   43.0390 C   0  0  0  0  0  0  0  0  0  0  0  0
   39.5440   29.4180   42.6230 C   0  0  0  0  0  0  0  0  0  0  0  0
   38.8530   28.2410   43.0010 C   0  0  0  0  0  0  0  0  0  0  0  0
   37.5150   28.1320   42.6720 C   0  0  0  0  0  0  0  0  0  0  0  0
   36.9480   29.1780   41.9980 N   0  0  0  0  0  0  0  0  0  0  0  0
   37.6250   30.2810   41.6520 C   0  0  0  0  0  0  0  0  0  0  0  0
   38.9110   30.3960   41.9630 N   0  0  0  0  0  0  0  0  0  0  0  0
   37.5959   24.1649   43.3377 H   0  0  0  0  0  0  0  0  0  0  0  0
   38.0844   22.6526   41.4152 H   0  0  0  0  0  0  0  0  0  0  0  0
   39.3417   24.8000   37.8032 H   0  0  0  0  0  0  0  0  0  0  0  0
   39.7754   23.2410   38.5056 H   0  0  0  0  0  0  0  0  0  0  0  0
   39.4659   22.4779   36.3028 H   0  0  0  0  0  0  0  0  0  0  0  0
   38.4577   23.8327   35.8389 H   0  0  0  0  0  0  0  0  0  0  0  0
   36.8251   22.1017   36.0904 H   0  0  0  0  0  0  0  0  0  0  0  0
   37.6893   21.2985   37.3862 H   0  0  0  0  0  0  0  0  0  0  0  0
   36.0613   23.9045   37.4655 H   0  0  0  0  0  0  0  0  0  0  0  0
   35.9941   22.5893   38.6200 H   0  0  0  0  0  0  0  0  0  0  0  0
   35.6431   27.1344   42.9372 H   0  0  0  0  0  0  0  0  0  0  0  0
   36.9340   26.6311   44.0794 H   0  0  0  0  0  0  0  0  0  0  0  0
   40.6092   29.5296   42.8736 H   0  0  0  0  0  0  0  0  0  0  0  0
   39.3681   27.4340   43.5427 H   0  0  0  0  0  0  0  0  0  0  0  0
   37.1156   31.0916   41.1102 H   0  0  0  0  0  0  0  0  0  0  0  0
  1  2  2  0
  1 11  1  0
  3  2  1  0
  4  5  1  0
  4  3  2  0
  5  1  1  0
  6  4  1  0
  7  6  1  0
  8  9  1  0
  8  7  1  0
  9 10  1  0
 10  6  1  0
 12 13  2  0
 14 13  1  0
 14 11  1  0
 15 14  2  0
 16 17  2  0
 16 15  1  0
 17 12  1  0
  2 18  1  0
  3 19  1  0
  7 20  1  0
  7 21  1  0
  8 22  1  0
  8 23  1  0
  9 24  1  0
  9 25  1  0
 10 26  1  0
 10 27  1  0
 11 28  1  0
 11 29  1  0
 12 30  1  0
 13 31  1  0
 16 32  1  0
M  ISO  8  18  14  19  14  20  13  21  13  22  13  23  13  24  13  25  13
M  ISO  7  26  13  27  13  28   8  29   8  30  14  31  14  32  14
M  END
>  <minimizedAffinity>  (1) 
-3.74256325

>  <minimizedRMSD>  (1) 
0.177325264

$$$$
