
     RDKit          3D

 21 22  0  0  0  0  0  0  0  0999 V2000
   36.7610   26.7970   42.9940 C   0  0  0  0  0  0  0  0  0  0  0  0
   39.5340   29.3880   42.6390 C   0  0  0  0  0  0  0  0  0  0  0  0
   38.8710   28.1800   42.9910 C   0  0  0  0  0  0  0  0  0  0  0  0
   37.5300   28.0350   42.6590 C   0  0  0  0  0  0  0  0  0  0  0  0
   36.9160   29.0730   42.0050 N   0  0  0  0  0  0  0  0  0  0  0  0
   37.5790   30.2070   41.6850 C   0  0  0  0  0  0  0  0  0  0  0  0
   38.8620   30.3450   42.0030 N   0  0  0  0  0  0  0  0  0  0  0  0
   37.1850   25.7040   42.1130 C   0  0  0  0  0  0  0  0  0  0  0  0
   37.6870   24.4650   42.2980 C   0  0  0  0  0  0  0  0  0  0  0  0
   37.9960   23.6490   41.2760 C   0  0  0  0  0  0  0  0  0  0  0  0
   37.7300   24.2490   39.9660 C   0  0  0  0  0  0  0  0  0  0  0  0
   37.0920   25.8520   40.3480 S   0  0  0  0  0  0  0  0  0  0  0  0
   37.9660   23.6060   38.7640 O   0  0  0  0  0  0  0  0  0  0  0  0
   36.9519   26.5189   44.0410 H   0  0  0  0  0  0  0  0  0  0  0  0
   35.6861   26.9843   42.8542 H   0  0  0  0  0  0  0  0  0  0  0  0
   40.5953   29.5306   42.8907 H   0  0  0  0  0  0  0  0  0  0  0  0
   39.4092   27.3768   43.5155 H   0  0  0  0  0  0  0  0  0  0  0  0
   37.0545   31.0186   41.1594 H   0  0  0  0  0  0  0  0  0  0  0  0
   37.8497   24.1090   43.3260 H   0  0  0  0  0  0  0  0  0  0  0  0
   38.4056   22.6368   41.4089 H   0  0  0  0  0  0  0  0  0  0  0  0
   38.3356   22.6876   38.7581 H   0  0  0  0  0  0  0  0  0  0  0  0
  2  3  2  0
  4  3  1  0
  4  1  1  0
  5  4  2  0
  6  7  2  0
  6  5  1  0
  7  2  1  0
  8  9  2  0
  8  1  1  0
 10  9  1  0
 11 12  1  0
 11 10  2  0
 12  8  1  0
 13 11  1  0
  1 14  1  0
  1 15  1  0
  2 16  1  0
  3 17  1  0
  6 18  1  0
  9 19  1  0
 10 20  1  0
 13 21  1  0
M  ISO  8  14   8  15   8  16  14  17  14  18  14  19  14  20  14  21   3
M  END
>  <minimizedAffinity>  (1) 
-3.60112

>  <minimizedRMSD>  (1) 
0.0153493537

$$$$
