
     RDKit          3D

 21 22  0  0  0  0  0  0  0  0999 V2000
   36.7650   26.7960   42.9920 C   0  0  0  0  0  0  0  0  0  0  0  0
   39.5320   29.3750   42.6360 C   0  0  0  0  0  0  0  0  0  0  0  0
   38.8660   28.1820   42.9810 C   0  0  0  0  0  0  0  0  0  0  0  0
   37.5240   28.0360   42.6520 C   0  0  0  0  0  0  0  0  0  0  0  0
   36.9320   29.0750   42.0090 N   0  0  0  0  0  0  0  0  0  0  0  0
   37.5870   30.2060   41.6890 C   0  0  0  0  0  0  0  0  0  0  0  0
   38.8630   30.3540   41.9960 N   0  0  0  0  0  0  0  0  0  0  0  0
   37.1850   25.7000   42.1100 C   0  0  0  0  0  0  0  0  0  0  0  0
   37.6890   24.4620   42.2900 C   0  0  0  0  0  0  0  0  0  0  0  0
   37.9950   23.6380   41.2720 C   0  0  0  0  0  0  0  0  0  0  0  0
   37.7140   24.2440   39.9710 C   0  0  0  0  0  0  0  0  0  0  0  0
   37.0750   25.8550   40.3470 S   0  0  0  0  0  0  0  0  0  0  0  0
   37.9930   23.4470   38.3990 S   0  0  0  0  0  0  0  0  0  0  0  0
   36.9649   26.5204   44.0380 H   0  0  0  0  0  0  0  0  0  0  0  0
   35.6889   26.9796   42.8570 H   0  0  0  0  0  0  0  0  0  0  0  0
   40.5945   29.5066   42.8883 H   0  0  0  0  0  0  0  0  0  0  0  0
   39.4019   27.3764   43.5043 H   0  0  0  0  0  0  0  0  0  0  0  0
   37.0548   31.0148   41.1669 H   0  0  0  0  0  0  0  0  0  0  0  0
   37.8578   24.1095   43.3182 H   0  0  0  0  0  0  0  0  0  0  0  0
   38.4081   22.6269   41.4026 H   0  0  0  0  0  0  0  0  0  0  0  0
   38.4404   22.1691   38.6079 H   0  0  0  0  0  0  0  0  0  0  0  0
  2  3  2  0
  4  3  1  0
  4  1  1  0
  5  4  2  0
  6  7  2  0
  6  5  1  0
  7  2  1  0
  8  9  2  0
  8  1  1  0
 10  9  1  0
 11 12  1  0
 11 10  2  0
 12  8  1  0
 13 11  1  0
  1 14  1  0
  1 15  1  0
  2 16  1  0
  3 17  1  0
  6 18  1  0
  9 19  1  0
 10 20  1  0
 13 21  1  0
M  ISO  8  14   8  15   8  16  14  17  14  18  14  19  14  20  14  21  11
M  END
>  <minimizedAffinity>  (1) 
-3.59304094

>  <minimizedRMSD>  (1) 
0.013264358

$$$$
