
     RDKit          3D

 22 23  0  0  0  0  0  0  0  0999 V2000
   36.7190   26.8860   43.0020 C   0  0  0  0  0  0  0  0  0  0  0  0
   39.5410   29.3980   42.6270 C   0  0  0  0  0  0  0  0  0  0  0  0
   38.8520   28.2160   42.9890 C   0  0  0  0  0  0  0  0  0  0  0  0
   37.5070   28.1040   42.6510 C   0  0  0  0  0  0  0  0  0  0  0  0
   36.9390   29.1430   41.9890 N   0  0  0  0  0  0  0  0  0  0  0  0
   37.6070   30.2590   41.6510 C   0  0  0  0  0  0  0  0  0  0  0  0
   38.8910   30.3800   41.9680 N   0  0  0  0  0  0  0  0  0  0  0  0
   37.1050   25.7740   42.1280 C   0  0  0  0  0  0  0  0  0  0  0  0
   37.5320   24.5080   42.3060 C   0  0  0  0  0  0  0  0  0  0  0  0
   37.8220   23.6850   41.2880 C   0  0  0  0  0  0  0  0  0  0  0  0
   37.6250   24.3120   39.9820 C   0  0  0  0  0  0  0  0  0  0  0  0
   37.0730   25.9310   40.3580 S   0  0  0  0  0  0  0  0  0  0  0  0
   37.8430   23.7100   38.6640 C   0  0  0  0  0  0  0  0  0  0  0  0
   37.4500   22.5410   38.5780 O   0  0  0  0  0  0  0  0  0  0  0  0
   36.9166   26.6127   44.0490 H   0  0  0  0  0  0  0  0  0  0  0  0
   35.6476   27.0966   42.8690 H   0  0  0  0  0  0  0  0  0  0  0  0
   40.6044   29.5160   42.8823 H   0  0  0  0  0  0  0  0  0  0  0  0
   39.3675   27.4053   43.5247 H   0  0  0  0  0  0  0  0  0  0  0  0
   37.0922   31.0692   41.1138 H   0  0  0  0  0  0  0  0  0  0  0  0
   37.6479   24.1328   43.3335 H   0  0  0  0  0  0  0  0  0  0  0  0
   38.1704   22.6501   41.4210 H   0  0  0  0  0  0  0  0  0  0  0  0
   38.3131   24.2486   37.8280 H   0  0  0  0  0  0  0  0  0  0  0  0
  2  3  2  0
  4  3  1  0
  4  1  1  0
  5  4  2  0
  6  7  2  0
  6  5  1  0
  7  2  1  0
  8  9  2  0
  8  1  1  0
 10  9  1  0
 11 12  1  0
 11 10  2  0
 12  8  1  0
 13 11  1  0
 14 13  2  0
  1 15  1  0
  1 16  1  0
  2 17  1  0
  3 18  1  0
  6 19  1  0
  9 20  1  0
 10 21  1  0
 13 22  1  0
M  ISO  8  15   8  16   8  17  14  18  14  19  14  20  14  21  14  22   6
M  END
>  <minimizedAffinity>  (1) 
-3.54918933

>  <minimizedRMSD>  (1) 
0.168302208

$$$$
