
     RDKit          3D

 38 42  0  0  0  0  0  0  0  0999 V2000
   36.5980   28.0130   42.0220 C   0  0  0  0  0  0  0  0  0  0  0  0
   40.1450   29.2000   42.7060 C   0  0  0  0  0  0  0  0  0  0  0  0
   38.9830   28.3880   42.6780 C   0  0  0  0  0  0  0  0  0  0  0  0
   37.8260   28.8420   42.0650 C   0  0  0  0  0  0  0  0  0  0  0  0
   37.8590   30.0760   41.5050 N   0  0  0  0  0  0  0  0  0  0  0  0
   38.9830   30.8510   41.5370 C   0  0  0  0  0  0  0  0  0  0  0  0
   40.0780   30.4150   42.1200 N   0  0  0  0  0  0  0  0  0  0  0  0
   39.0300   32.1490   40.9520 N   0  0  0  0  0  0  0  0  0  0  0  0
   37.8690   32.6980   40.5000 C   0  0  0  0  0  0  0  0  0  0  0  0
   38.0840   33.9370   39.9700 N   0  0  0  0  0  0  0  0  0  0  0  0
   39.4050   34.1710   40.0920 C   0  0  0  0  0  0  0  0  0  0  0  0
   40.3000   35.1910   39.7800 C   0  0  0  0  0  0  0  0  0  0  0  0
   41.6120   35.0760   40.0600 N   0  0  0  0  0  0  0  0  0  0  0  0
   42.0970   33.9650   40.6520 C   0  0  0  0  0  0  0  0  0  0  0  0
   41.2820   32.9230   40.9870 N   0  0  0  0  0  0  0  0  0  0  0  0
   39.9760   33.0690   40.6940 C   0  0  0  0  0  0  0  0  0  0  0  0
   36.9490   26.6030   41.7800 C   0  0  0  0  0  0  0  0  0  0  0  0
   36.9760   25.4810   42.5150 C   0  0  0  0  0  0  0  0  0  0  0  0
   37.3540   24.2930   42.0050 C   0  0  0  0  0  0  0  0  0  0  0  0
   37.7150   24.3800   40.6120 C   0  0  0  0  0  0  0  0  0  0  0  0
   37.4970   26.0530   40.1730 S   0  0  0  0  0  0  0  0  0  0  0  0
   38.1660   23.2880   39.7600 C   0  0  0  0  0  0  0  0  0  0  0  0
   38.2490   21.9930   40.1480 C   0  0  0  0  0  0  0  0  0  0  0  0
   38.7250   21.3540   38.9980 C   0  0  0  0  0  0  0  0  0  0  0  0
   38.9040   22.2590   37.9960 N   0  0  0  0  0  0  0  0  0  0  0  0
   38.5550   23.4360   38.4880 N   0  0  0  0  0  0  0  0  0  0  0  0
   36.0684   28.0967   42.9825 H   0  0  0  0  0  0  0  0  0  0  0  0
   35.9511   28.3687   41.2065 H   0  0  0  0  0  0  0  0  0  0  0  0
   41.0701   28.8520   43.1888 H   0  0  0  0  0  0  0  0  0  0  0  0
   39.0000   27.3924   43.1453 H   0  0  0  0  0  0  0  0  0  0  0  0
   36.8862   32.2070   40.5549 H   0  0  0  0  0  0  0  0  0  0  0  0
   39.9288   36.1066   39.2964 H   0  0  0  0  0  0  0  0  0  0  0  0
   43.1732   33.8976   40.8695 H   0  0  0  0  0  0  0  0  0  0  0  0
   36.6786   25.5331   43.5727 H   0  0  0  0  0  0  0  0  0  0  0  0
   37.3839   23.3600   42.5868 H   0  0  0  0  0  0  0  0  0  0  0  0
   38.0030   21.5526   41.1255 H   0  0  0  0  0  0  0  0  0  0  0  0
   38.9258   20.2757   38.9150 H   0  0  0  0  0  0  0  0  0  0  0  0
   39.2440   22.0651   37.0433 H   0  0  0  0  0  0  0  0  0  0  0  0
  1  4  1  0
  3  2  2  0
  4  3  1  0
  5  6  1  0
  5  4  2  0
  6  7  2  0
  7  2  1  0
  8  6  1  0
  9  8  1  0
 10 11  1  0
 10  9  2  0
 11 16  2  0
 12 13  2  0
 12 11  1  0
 13 14  1  0
 14 15  2  0
 16  8  1  0
 16 15  1  0
 17  1  1  0
 17 18  2  0
 19 18  1  0
 20 19  2  0
 21 20  1  0
 21 17  1  0
 22 23  1  0
 22 20  1  0
 24 23  2  0
 25 26  1  0
 25 24  1  0
 26 22  2  0
  1 27  1  0
  1 28  1  0
  2 29  1  0
  3 30  1  0
  9 31  1  0
 12 32  1  0
 14 33  1  0
 18 34  1  0
 19 35  1  0
 23 36  1  0
 24 37  1  0
 25 38  1  0
M  ISO  8  27   8  28   8  29  14  30  14  31  14  32  14  33  14  34  14
M  ISO  4  35  14  36  14  37  14  38   9
M  END
>  <minimizedAffinity>  (1) 
-6.06881714

>  <minimizedRMSD>  (1) 
2.22633791

$$$$
