
     RDKit          3D

 37 40  0  0  0  0  0  0  0  0999 V2000
   37.2900   27.3370   43.2230 C   0  0  0  0  0  0  0  0  0  0  0  0
   40.7950   28.5440   42.4180 C   0  0  0  0  0  0  0  0  0  0  0  0
   39.7310   27.7120   42.8710 C   0  0  0  0  0  0  0  0  0  0  0  0
   38.4280   28.1740   42.7630 C   0  0  0  0  0  0  0  0  0  0  0  0
   38.2190   29.4170   42.2240 N   0  0  0  0  0  0  0  0  0  0  0  0
   39.2550   30.1860   41.8010 C   0  0  0  0  0  0  0  0  0  0  0  0
   40.5100   29.7490   41.9000 N   0  0  0  0  0  0  0  0  0  0  0  0
   38.9270   31.4650   41.2550 N   0  0  0  0  0  0  0  0  0  0  0  0
   37.7800   31.8590   40.6720 C   0  0  0  0  0  0  0  0  0  0  0  0
   37.6750   33.1570   40.2090 C   0  0  0  0  0  0  0  0  0  0  0  0
   38.7130   34.0590   40.3260 C   0  0  0  0  0  0  0  0  0  0  0  0
   38.5920   35.2370   39.8950 O   0  0  0  0  0  0  0  0  0  0  0  0
   39.8500   33.6110   40.9220 N   0  0  0  0  0  0  0  0  0  0  0  0
   39.9530   32.3350   41.3790 C   0  0  0  0  0  0  0  0  0  0  0  0
   41.0860   32.1220   41.8970 O   0  0  0  0  0  0  0  0  0  0  0  0
   37.0610   26.2350   42.2750 C   0  0  0  0  0  0  0  0  0  0  0  0
   36.9180   24.9050   42.3780 C   0  0  0  0  0  0  0  0  0  0  0  0
   36.7120   24.1150   41.3060 C   0  0  0  0  0  0  0  0  0  0  0  0
   36.6660   24.8620   40.0730 C   0  0  0  0  0  0  0  0  0  0  0  0
   36.9060   26.5320   40.5220 S   0  0  0  0  0  0  0  0  0  0  0  0
   36.4600   24.3300   38.7310 C   0  0  0  0  0  0  0  0  0  0  0  0
   37.3740   23.6420   38.0250 C   0  0  0  0  0  0  0  0  0  0  0  0
   36.7140   23.3610   36.8300 C   0  0  0  0  0  0  0  0  0  0  0  0
   35.4460   23.8790   36.8600 N   0  0  0  0  0  0  0  0  0  0  0  0
   35.3100   24.4710   38.0380 N   0  0  0  0  0  0  0  0  0  0  0  0
   37.5206   26.9220   44.2153 H   0  0  0  0  0  0  0  0  0  0  0  0
   36.3842   27.9586   43.2802 H   0  0  0  0  0  0  0  0  0  0  0  0
   41.8381   28.2028   42.4919 H   0  0  0  0  0  0  0  0  0  0  0  0
   39.9394   26.7203   43.2990 H   0  0  0  0  0  0  0  0  0  0  0  0
   36.9386   31.1585   40.5655 H   0  0  0  0  0  0  0  0  0  0  0  0
   36.7372   33.4804   39.7336 H   0  0  0  0  0  0  0  0  0  0  0  0
   40.6495   34.2515   41.0294 H   0  0  0  0  0  0  0  0  0  0  0  0
   36.9709   24.4423   43.3745 H   0  0  0  0  0  0  0  0  0  0  0  0
   36.5924   23.0231   41.3646 H   0  0  0  0  0  0  0  0  0  0  0  0
   38.3974   23.3668   38.3198 H   0  0  0  0  0  0  0  0  0  0  0  0
   37.1478   22.8046   35.9861 H   0  0  0  0  0  0  0  0  0  0  0  0
   34.7381   23.8200   36.1142 H   0  0  0  0  0  0  0  0  0  0  0  0
  2  3  2  0
  4  3  1  0
  4  1  1  0
  5  4  2  0
  6  7  2  0
  6  5  1  0
  7  2  1  0
  8 14  1  0
  8  6  1  0
  9  8  1  0
 10 11  1  0
 10  9  2  0
 11 13  1  0
 12 11  2  0
 13 14  1  0
 14 15  2  0
 16 17  2  0
 16  1  1  0
 18 17  1  0
 19 20  1  0
 19 18  2  0
 20 16  1  0
 21 19  1  0
 22 21  1  0
 23 24  1  0
 23 22  2  0
 24 25  1  0
 25 21  2  0
  1 26  1  0
  1 27  1  0
  2 28  1  0
  3 29  1  0
  9 30  1  0
 10 31  1  0
 13 32  1  0
 17 33  1  0
 18 34  1  0
 22 35  1  0
 23 36  1  0
 24 37  1  0
M  ISO  8  26   8  27   8  28  14  29  14  30  14  31  14  32   9  33  14
M  ISO  4  34  14  35  14  36  14  37   9
M  END
>  <minimizedAffinity>  (1) 
-5.76850224

>  <minimizedRMSD>  (1) 
2.14143896

$$$$
