
     RDKit          3D

 34 37  0  0  0  0  0  0  0  0999 V2000
   39.0100   29.6280   42.7320 C   0  0  0  0  0  0  0  0  0  0  0  0
   36.5100   31.2950   40.4170 C   0  0  0  0  0  0  0  0  0  0  0  0
   37.1030   30.3470   41.2990 C   0  0  0  0  0  0  0  0  0  0  0  0
   38.3530   30.5890   41.8090 C   0  0  0  0  0  0  0  0  0  0  0  0
   38.9760   31.7420   41.4400 N   0  0  0  0  0  0  0  0  0  0  0  0
   38.4100   32.6400   40.6010 C   0  0  0  0  0  0  0  0  0  0  0  0
   37.2110   32.4160   40.1080 N   0  0  0  0  0  0  0  0  0  0  0  0
   39.2220   33.7970   40.3300 N   0  0  0  0  0  0  0  0  0  0  0  0
   40.3660   33.8140   39.5920 C   0  0  0  0  0  0  0  0  0  0  0  0
   40.8750   35.0950   39.5450 C   0  0  0  0  0  0  0  0  0  0  0  0
   40.0280   35.8560   40.2610 N   0  0  0  0  0  0  0  0  0  0  0  0
   39.0300   35.0660   40.7340 C   0  0  0  0  0  0  0  0  0  0  0  0
   39.2820   28.3590   42.0390 C   0  0  0  0  0  0  0  0  0  0  0  0
   40.2350   27.9030   41.2110 C   0  0  0  0  0  0  0  0  0  0  0  0
   40.2240   26.6520   40.7160 C   0  0  0  0  0  0  0  0  0  0  0  0
   39.0950   25.8870   41.1720 C   0  0  0  0  0  0  0  0  0  0  0  0
   38.1860   26.9680   42.2210 S   0  0  0  0  0  0  0  0  0  0  0  0
   38.7650   24.5080   40.8410 C   0  0  0  0  0  0  0  0  0  0  0  0
   39.1910   23.8680   39.7180 C   0  0  0  0  0  0  0  0  0  0  0  0
   38.6390   22.5970   39.8290 C   0  0  0  0  0  0  0  0  0  0  0  0
   37.9120   22.5180   40.9950 N   0  0  0  0  0  0  0  0  0  0  0  0
   38.0110   23.7120   41.5950 N   0  0  0  0  0  0  0  0  0  0  0  0
   39.9580   30.0573   43.0883 H   0  0  0  0  0  0  0  0  0  0  0  0
   38.3405   29.4346   43.5831 H   0  0  0  0  0  0  0  0  0  0  0  0
   35.5083   31.1232   39.9963 H   0  0  0  0  0  0  0  0  0  0  0  0
   36.5626   29.4277   41.5691 H   0  0  0  0  0  0  0  0  0  0  0  0
   40.8172   32.9366   39.1056 H   0  0  0  0  0  0  0  0  0  0  0  0
   41.7873   35.4266   39.0276 H   0  0  0  0  0  0  0  0  0  0  0  0
   38.1902   35.4118   41.3546 H   0  0  0  0  0  0  0  0  0  0  0  0
   41.0560   28.5776   40.9264 H   0  0  0  0  0  0  0  0  0  0  0  0
   40.9942   26.2576   40.0369 H   0  0  0  0  0  0  0  0  0  0  0  0
   39.8245   24.2641   38.9107 H   0  0  0  0  0  0  0  0  0  0  0  0
   38.7636   21.7828   39.0999 H   0  0  0  0  0  0  0  0  0  0  0  0
   37.3919   21.6986   41.3400 H   0  0  0  0  0  0  0  0  0  0  0  0
  2  3  2  0
  3  4  1  0
  4  1  1  0
  5  4  2  0
  6  5  1  0
  7  2  1  0
  7  6  2  0
  8  6  1  0
  8 12  1  0
  9  8  1  0
 10  9  2  0
 10 11  1  0
 11 12  2  0
 13 17  1  0
 13  1  1  0
 14 13  2  0
 15 16  2  0
 15 14  1  0
 16 17  1  0
 18 16  1  0
 18 22  2  0
 19 20  2  0
 19 18  1  0
 20 21  1  0
 21 22  1  0
  1 23  1  0
  1 24  1  0
  2 25  1  0
  3 26  1  0
  9 27  1  0
 10 28  1  0
 12 29  1  0
 14 30  1  0
 15 31  1  0
 19 32  1  0
 20 33  1  0
 21 34  1  0
M  ISO  8  23   8  24   8  25  14  26  14  27  14  28  14  29  14  30  14
M  ISO  4  31  14  32  14  33  14  34   9
M  END
>  <minimizedAffinity>  (1) 
-5.48999119

>  <minimizedRMSD>  (1) 
3.63854766

$$$$
