
     RDKit          3D

 36 39  0  0  0  0  0  0  0  0999 V2000
   36.8520   27.3780   42.9710 C   0  0  0  0  0  0  0  0  0  0  0  0
   40.3140   28.9340   42.7930 C   0  0  0  0  0  0  0  0  0  0  0  0
   39.2710   28.0170   43.0870 C   0  0  0  0  0  0  0  0  0  0  0  0
   37.9800   28.3050   42.6880 C   0  0  0  0  0  0  0  0  0  0  0  0
   37.7580   29.4800   42.0160 N   0  0  0  0  0  0  0  0  0  0  0  0
   38.7770   30.3400   41.7480 C   0  0  0  0  0  0  0  0  0  0  0  0
   40.0060   30.0690   42.1260 N   0  0  0  0  0  0  0  0  0  0  0  0
   38.3990   31.5680   41.0180 C   0  0  0  0  0  0  0  0  0  0  0  0
   37.3360   31.5130   40.1150 C   0  0  0  0  0  0  0  0  0  0  0  0
   37.0410   32.6900   39.4770 C   0  0  0  0  0  0  0  0  0  0  0  0
   37.7180   33.8630   39.6760 C   0  0  0  0  0  0  0  0  0  0  0  0
   38.7520   33.8290   40.5810 C   0  0  0  0  0  0  0  0  0  0  0  0
   39.0940   32.6910   41.2510 N   0  0  0  0  0  0  0  0  0  0  0  0
   36.9570   26.1830   42.1180 C   0  0  0  0  0  0  0  0  0  0  0  0
   37.0070   24.8570   42.3250 C   0  0  0  0  0  0  0  0  0  0  0  0
   37.1050   23.9720   41.3140 C   0  0  0  0  0  0  0  0  0  0  0  0
   37.1470   24.6130   40.0240 C   0  0  0  0  0  0  0  0  0  0  0  0
   37.0480   26.3240   40.3410 S   0  0  0  0  0  0  0  0  0  0  0  0
   37.2500   23.9530   38.7290 C   0  0  0  0  0  0  0  0  0  0  0  0
   38.2670   23.1650   38.3360 C   0  0  0  0  0  0  0  0  0  0  0  0
   37.8950   22.7890   37.0430 C   0  0  0  0  0  0  0  0  0  0  0  0
   36.6900   23.3520   36.7050 N   0  0  0  0  0  0  0  0  0  0  0  0
   36.3170   24.0620   37.7600 N   0  0  0  0  0  0  0  0  0  0  0  0
   36.8856   27.0753   44.0280 H   0  0  0  0  0  0  0  0  0  0  0  0
   35.9017   27.8902   42.7599 H   0  0  0  0  0  0  0  0  0  0  0  0
   41.3493   28.7259   43.1009 H   0  0  0  0  0  0  0  0  0  0  0  0
   39.4889   27.0845   43.6282 H   0  0  0  0  0  0  0  0  0  0  0  0
   36.7726   30.5870   39.9278 H   0  0  0  0  0  0  0  0  0  0  0  0
   36.2072   32.6919   38.7595 H   0  0  0  0  0  0  0  0  0  0  0  0
   37.4486   34.7848   39.1396 H   0  0  0  0  0  0  0  0  0  0  0  0
   39.3226   34.7500   40.7713 H   0  0  0  0  0  0  0  0  0  0  0  0
   36.9665   24.4798   43.3575 H   0  0  0  0  0  0  0  0  0  0  0  0
   37.1481   22.8822   41.4571 H   0  0  0  0  0  0  0  0  0  0  0  0
   39.1712   22.8849   38.8963 H   0  0  0  0  0  0  0  0  0  0  0  0
   38.4859   22.1328   36.3870 H   0  0  0  0  0  0  0  0  0  0  0  0
   36.1811   23.2450   35.8159 H   0  0  0  0  0  0  0  0  0  0  0  0
  2  3  2  0
  4  1  1  0
  4  3  1  0
  5  4  2  0
  6  5  1  0
  6  7  2  0
  7  2  1  0
  8 13  1  0
  8  6  1  0
  9  8  2  0
 10 11  2  0
 10  9  1  0
 11 12  1  0
 12 13  2  0
 14 15  2  0
 14  1  1  0
 16 15  1  0
 17 18  1  0
 17 16  2  0
 18 14  1  0
 19 17  1  0
 20 19  1  0
 21 20  2  0
 22 21  1  0
 22 23  1  0
 23 19  2  0
  1 24  1  0
  1 25  1  0
  2 26  1  0
  3 27  1  0
  9 28  1  0
 10 29  1  0
 11 30  1  0
 12 31  1  0
 15 32  1  0
 16 33  1  0
 20 34  1  0
 21 35  1  0
 22 36  1  0
M  ISO  8  24   8  25   8  26  14  27  14  28  14  29  14  30  14  31  14
M  ISO  5  32  14  33  14  34  14  35  14  36   9
M  END
>  <minimizedAffinity>  (1) 
-5.3132019

>  <minimizedRMSD>  (1) 
1.37171686

$$$$
