
     RDKit          3D

 34 37  0  0  0  0  0  0  0  0999 V2000
   36.6840   27.7410   42.8220 C   0  0  0  0  0  0  0  0  0  0  0  0
   40.1610   29.2580   42.6880 C   0  0  0  0  0  0  0  0  0  0  0  0
   39.1040   28.3490   42.9700 C   0  0  0  0  0  0  0  0  0  0  0  0
   37.8190   28.6570   42.5520 C   0  0  0  0  0  0  0  0  0  0  0  0
   37.6250   29.8340   41.8810 N   0  0  0  0  0  0  0  0  0  0  0  0
   38.6580   30.6820   41.6270 C   0  0  0  0  0  0  0  0  0  0  0  0
   39.8920   30.3890   42.0260 N   0  0  0  0  0  0  0  0  0  0  0  0
   38.3520   31.8820   40.9210 N   0  0  0  0  0  0  0  0  0  0  0  0
   38.8490   33.1200   40.9820 N   0  0  0  0  0  0  0  0  0  0  0  0
   38.2120   33.9070   40.0950 C   0  0  0  0  0  0  0  0  0  0  0  0
   37.2540   33.1450   39.4260 C   0  0  0  0  0  0  0  0  0  0  0  0
   37.3760   31.8790   39.9750 C   0  0  0  0  0  0  0  0  0  0  0  0
   36.9000   26.4510   42.1460 C   0  0  0  0  0  0  0  0  0  0  0  0
   37.0020   25.1690   42.5280 C   0  0  0  0  0  0  0  0  0  0  0  0
   37.2070   24.1680   41.6510 C   0  0  0  0  0  0  0  0  0  0  0  0
   37.2990   24.6350   40.2900 C   0  0  0  0  0  0  0  0  0  0  0  0
   37.0970   26.3660   40.3730 S   0  0  0  0  0  0  0  0  0  0  0  0
   37.5160   23.8220   39.0980 C   0  0  0  0  0  0  0  0  0  0  0  0
   38.3850   22.7980   39.0120 C   0  0  0  0  0  0  0  0  0  0  0  0
   38.2240   22.3530   37.6930 C   0  0  0  0  0  0  0  0  0  0  0  0
   37.2860   23.1100   37.0520 N   0  0  0  0  0  0  0  0  0  0  0  0
   36.8620   24.0100   37.9330 N   0  0  0  0  0  0  0  0  0  0  0  0
   36.6019   27.5739   43.9061 H   0  0  0  0  0  0  0  0  0  0  0  0
   35.7575   28.1953   42.4409 H   0  0  0  0  0  0  0  0  0  0  0  0
   41.1884   29.0335   43.0107 H   0  0  0  0  0  0  0  0  0  0  0  0
   39.3039   27.4135   43.5129 H   0  0  0  0  0  0  0  0  0  0  0  0
   38.4136   34.9750   39.9256 H   0  0  0  0  0  0  0  0  0  0  0  0
   36.5587   33.4749   38.6400 H   0  0  0  0  0  0  0  0  0  0  0  0
   36.7742   31.0039   39.6887 H   0  0  0  0  0  0  0  0  0  0  0  0
   36.9149   24.9266   43.5974 H   0  0  0  0  0  0  0  0  0  0  0  0
   37.2946   23.1105   41.9409 H   0  0  0  0  0  0  0  0  0  0  0  0
   39.0582   22.4056   39.7885 H   0  0  0  0  0  0  0  0  0  0  0  0
   38.7738   21.5150   37.2397 H   0  0  0  0  0  0  0  0  0  0  0  0
   36.9694   23.0044   36.0776 H   0  0  0  0  0  0  0  0  0  0  0  0
  2  3  2  0
  4  1  1  0
  4  3  1  0
  5  4  2  0
  6  5  1  0
  6  7  2  0
  7  2  1  0
  8  9  1  0
  8  6  1  0
 10  9  2  0
 11 12  2  0
 11 10  1  0
 12  8  1  0
 13 14  2  0
 13  1  1  0
 15 14  1  0
 16 17  1  0
 16 15  2  0
 17 13  1  0
 18 16  1  0
 19 18  1  0
 20 19  2  0
 21 20  1  0
 21 22  1  0
 22 18  2  0
  1 23  1  0
  1 24  1  0
  2 25  1  0
  3 26  1  0
 10 27  1  0
 11 28  1  0
 12 29  1  0
 14 30  1  0
 15 31  1  0
 19 32  1  0
 20 33  1  0
 21 34  1  0
M  ISO  8  23   8  24   8  25  14  26  14  27  14  28  14  29  14  30  14
M  ISO  4  31  14  32  14  33  14  34   9
M  END
>  <minimizedAffinity>  (1) 
-5.25091982

>  <minimizedRMSD>  (1) 
1.20705914

$$$$
