
     RDKit          3D

 35 37  0  0  0  0  0  0  0  0999 V2000
   40.8380   30.6380   40.3110 C   0  0  0  0  0  0  0  0  0  0  0  0
   40.4380   31.8460   40.8240 C   0  0  0  0  0  0  0  0  0  0  0  0
   40.9840   32.8870   40.0840 C   0  0  0  0  0  0  0  0  0  0  0  0
   41.7120   32.2270   39.1320 C   0  0  0  0  0  0  0  0  0  0  0  0
   41.6050   30.9410   39.2930 O   0  0  0  0  0  0  0  0  0  0  0  0
   39.6640   27.7030   42.2440 C   0  0  0  0  0  0  0  0  0  0  0  0
   40.0100   26.6200   41.3530 C   0  0  0  0  0  0  0  0  0  0  0  0
   40.6150   27.0230   40.1730 C   0  0  0  0  0  0  0  0  0  0  0  0
   40.8550   28.3170   39.8940 N   0  0  0  0  0  0  0  0  0  0  0  0
   40.5100   29.2960   40.7650 C   0  0  0  0  0  0  0  0  0  0  0  0
   39.9200   28.9800   41.9280 N   0  0  0  0  0  0  0  0  0  0  0  0
   39.7060   25.2950   41.7590 N   0  0  0  0  0  0  0  0  0  0  0  0
   40.3970   24.5870   42.7540 C   0  0  0  0  0  0  0  0  0  0  0  0
   41.6920   24.7860   42.8180 N   0  0  0  0  0  0  0  0  0  0  0  0
   39.5870   23.7280   43.5840 N   0  0  0  0  0  0  0  0  0  0  0  0
   42.2730   24.3050   43.5260 H   0  0  0  0  0  0  0  0  0  0  0  0
   40.7690   34.3030   40.3460 C   0  0  0  0  0  0  0  0  0  0  0  0
   39.6110   34.9160   39.9350 C   0  0  0  0  0  0  0  0  0  0  0  0
   39.3450   36.2520   40.1510 C   0  0  0  0  0  0  0  0  0  0  0  0
   40.3020   36.9400   40.8010 N   0  0  0  0  0  0  0  0  0  0  0  0
   41.4540   36.3910   41.2260 C   0  0  0  0  0  0  0  0  0  0  0  0
   41.6600   35.0730   40.9850 N   0  0  0  0  0  0  0  0  0  0  0  0
   42.5030   32.9190   38.0750 C   0  0  0  0  0  0  0  0  0  0  0  0
   43.1250   31.9770   37.2460 F   0  0  0  0  0  0  0  0  0  0  0  0
   41.6650   33.7100   37.3250 F   0  0  0  0  0  0  0  0  0  0  0  0
   43.5220   33.6500   38.6320 F   0  0  0  0  0  0  0  0  0  0  0  0
   39.7795   31.9720   41.6961 H   0  0  0  0  0  0  0  0  0  0  0  0
   39.1790   27.4742   43.2044 H   0  0  0  0  0  0  0  0  0  0  0  0
   40.9092   26.2583   39.4391 H   0  0  0  0  0  0  0  0  0  0  0  0
   38.9223   24.8189   41.2900 H   0  0  0  0  0  0  0  0  0  0  0  0
   40.0246   23.1766   44.3359 H   0  0  0  0  0  0  0  0  0  0  0  0
   38.5713   23.6663   43.4245 H   0  0  0  0  0  0  0  0  0  0  0  0
   38.8583   34.3117   39.4074 H   0  0  0  0  0  0  0  0  0  0  0  0
   38.4108   36.7248   39.8137 H   0  0  0  0  0  0  0  0  0  0  0  0
   42.2073   36.9942   41.7539 H   0  0  0  0  0  0  0  0  0  0  0  0
  1 10  1  0
  1  2  2  0
  3 17  1  0
  3  2  1  0
  4  5  1  0
  4  3  2  0
  5  1  1  0
  7 12  1  0
  7  6  2  0
  8  7  1  0
  9  8  2  0
  9 10  1  0
 10 11  2  0
 11  6  1  0
 12 13  1  0
 13 14  2  0
 13 15  1  0
 14 16  1  0
 17 22  2  0
 18 19  2  0
 18 17  1  0
 19 20  1  0
 20 21  2  0
 22 21  1  0
 23 26  1  0
 23  4  1  0
 24 23  1  0
 25 23  1  0
  2 27  1  0
  6 28  1  0
  8 29  1  0
 12 30  1  0
 15 31  1  0
 15 32  1  0
 18 33  1  0
 19 34  1  0
 21 35  1  0
M  ISO  6  27  14  28  14  29  14  33  14  34  14  35  14
M  END
>  <minimizedAffinity>  (1) 
-5.18244743

>  <minimizedRMSD>  (1) 
4.24478912

$$$$
