
     RDKit          3D

 30 32  0  0  0  0  0  0  0  0999 V2000
   36.8910   26.5750   42.2830 C   0  0  0  0  0  0  0  0  0  0  0  0
   37.0990   25.3000   42.6460 C   0  0  0  0  0  0  0  0  0  0  0  0
   37.4410   24.3350   41.7620 C   0  0  0  0  0  0  0  0  0  0  0  0
   37.5480   24.8470   40.4220 C   0  0  0  0  0  0  0  0  0  0  0  0
   37.1730   26.5640   40.5300 S   0  0  0  0  0  0  0  0  0  0  0  0
   37.8940   24.1020   39.2210 C   0  0  0  0  0  0  0  0  0  0  0  0
   39.0150   23.3340   39.0850 C   0  0  0  0  0  0  0  0  0  0  0  0
   38.9040   22.8380   37.7920 C   0  0  0  0  0  0  0  0  0  0  0  0
   37.7720   23.2960   37.2060 N   0  0  0  0  0  0  0  0  0  0  0  0
   37.1640   24.0760   38.1080 N   0  0  0  0  0  0  0  0  0  0  0  0
   36.5200   27.8200   42.9780 C   0  0  0  0  0  0  0  0  0  0  0  0
   39.4110   30.2290   42.4990 C   0  0  0  0  0  0  0  0  0  0  0  0
   38.6350   29.1430   42.9830 C   0  0  0  0  0  0  0  0  0  0  0  0
   37.3660   28.9430   42.5000 C   0  0  0  0  0  0  0  0  0  0  0  0
   36.9160   29.8200   41.5620 N   0  0  0  0  0  0  0  0  0  0  0  0
   37.6560   30.8500   41.1030 C   0  0  0  0  0  0  0  0  0  0  0  0
   38.8690   31.0460   41.5630 N   0  0  0  0  0  0  0  0  0  0  0  0
   37.0520   31.7160   40.0960 C   0  0  0  0  0  0  0  0  0  0  0  0
   36.7000   31.2690   38.9750 O   0  0  0  0  0  0  0  0  0  0  0  0
   36.8270   33.0650   40.3020 O   0  0  0  0  0  0  0  0  0  0  0  0
   36.9868   25.0284   43.7060 H   0  0  0  0  0  0  0  0  0  0  0  0
   37.6164   23.2840   42.0352 H   0  0  0  0  0  0  0  0  0  0  0  0
   39.8123   23.1522   39.8207 H   0  0  0  0  0  0  0  0  0  0  0  0
   39.6325   22.1680   37.3120 H   0  0  0  0  0  0  0  0  0  0  0  0
   37.4434   23.0853   36.2528 H   0  0  0  0  0  0  0  0  0  0  0  0
   35.4633   28.0487   42.7754 H   0  0  0  0  0  0  0  0  0  0  0  0
   36.6739   27.6883   44.0592 H   0  0  0  0  0  0  0  0  0  0  0  0
   40.4298   30.4036   42.8754 H   0  0  0  0  0  0  0  0  0  0  0  0
   39.0496   28.4640   43.7427 H   0  0  0  0  0  0  0  0  0  0  0  0
   36.4140   33.6126   39.5881 H   0  0  0  0  0  0  0  0  0  0  0  0
  1  2  2  0
  1 11  1  0
  3  2  1  0
  4  5  1  0
  4  3  2  0
  5  1  1  0
  6  4  1  0
  7  6  1  0
  8  7  2  0
  9  8  1  0
  9 10  1  0
 10  6  2  0
 12 13  2  0
 14 11  1  0
 14 13  1  0
 15 14  2  0
 16 15  1  0
 16 17  2  0
 17 12  1  0
 18 20  1  0
 18 16  1  0
 19 18  2  0
  2 21  1  0
  3 22  1  0
  7 23  1  0
  8 24  1  0
  9 25  1  0
 11 26  1  0
 11 27  1  0
 12 28  1  0
 13 29  1  0
 20 30  1  0
M  ISO  8  21  14  22  14  23  14  24  14  25   9  26   8  27   8  28  14
M  ISO  2  29  14  30   3
M  END
>  <minimizedAffinity>  (1) 
-4.86942339

>  <minimizedRMSD>  (1) 
0.588376701

$$$$
