
     RDKit          3D

 30 32  0  0  0  0  0  0  0  0999 V2000
   36.9290   26.3070   42.2470 C   0  0  0  0  0  0  0  0  0  0  0  0
   37.0390   25.0020   42.5360 C   0  0  0  0  0  0  0  0  0  0  0  0
   37.3770   24.0830   41.6100 C   0  0  0  0  0  0  0  0  0  0  0  0
   37.5970   24.6650   40.3100 C   0  0  0  0  0  0  0  0  0  0  0  0
   37.3190   26.3760   40.5120 S   0  0  0  0  0  0  0  0  0  0  0  0
   37.9720   23.9620   39.0960 C   0  0  0  0  0  0  0  0  0  0  0  0
   39.0360   23.1510   38.9610 C   0  0  0  0  0  0  0  0  0  0  0  0
   38.9570   22.7310   37.6320 C   0  0  0  0  0  0  0  0  0  0  0  0
   37.8800   23.2860   37.0180 N   0  0  0  0  0  0  0  0  0  0  0  0
   37.2760   24.0490   37.9410 N   0  0  0  0  0  0  0  0  0  0  0  0
   36.5880   27.5220   43.0070 C   0  0  0  0  0  0  0  0  0  0  0  0
   39.4920   29.9380   42.6510 C   0  0  0  0  0  0  0  0  0  0  0  0
   38.6990   28.8420   43.0990 C   0  0  0  0  0  0  0  0  0  0  0  0
   37.4500   28.6490   42.5720 C   0  0  0  0  0  0  0  0  0  0  0  0
   37.0210   29.5380   41.6220 N   0  0  0  0  0  0  0  0  0  0  0  0
   37.7710   30.5720   41.2010 C   0  0  0  0  0  0  0  0  0  0  0  0
   38.9870   30.7620   41.7110 N   0  0  0  0  0  0  0  0  0  0  0  0
   37.2620   31.5170   40.1620 C   0  0  0  0  0  0  0  0  0  0  0  0
   35.9480   31.2230   39.8100 F   0  0  0  0  0  0  0  0  0  0  0  0
   37.2460   32.8120   40.6160 F   0  0  0  0  0  0  0  0  0  0  0  0
   38.0580   31.5140   39.0220 F   0  0  0  0  0  0  0  0  0  0  0  0
   36.8463   24.6695   43.5667 H   0  0  0  0  0  0  0  0  0  0  0  0
   37.4742   23.0082   41.8228 H   0  0  0  0  0  0  0  0  0  0  0  0
   39.7887   22.8827   39.7170 H   0  0  0  0  0  0  0  0  0  0  0  0
   39.6686   22.0453   37.1488 H   0  0  0  0  0  0  0  0  0  0  0  0
   37.5863   23.1486   36.0404 H   0  0  0  0  0  0  0  0  0  0  0  0
   35.5335   27.7796   42.8289 H   0  0  0  0  0  0  0  0  0  0  0  0
   36.7495   27.3356   44.0790 H   0  0  0  0  0  0  0  0  0  0  0  0
   40.4971   30.1085   43.0643 H   0  0  0  0  0  0  0  0  0  0  0  0
   39.0883   28.1545   43.8643 H   0  0  0  0  0  0  0  0  0  0  0  0
  1  2  2  0
  1 11  1  0
  3  2  1  0
  4  5  1  0
  4  3  2  0
  5  1  1  0
  6  4  1  0
  7  6  1  0
  8  7  2  0
  9  8  1  0
  9 10  1  0
 10  6  2  0
 12 13  2  0
 14 11  1  0
 14 13  1  0
 15 14  2  0
 16 15  1  0
 16 17  2  0
 17 12  1  0
 18 20  1  0
 18 16  1  0
 19 18  1  0
 21 18  1  0
  2 22  1  0
  3 23  1  0
  7 24  1  0
  8 25  1  0
  9 26  1  0
 11 27  1  0
 11 28  1  0
 12 29  1  0
 13 30  1  0
M  ISO  8  22  14  23  14  24  14  25  14  26   9  27   8  28   8  29  14
M  ISO  1  30  14
M  END
>  <minimizedAffinity>  (1) 
-4.66899729

>  <minimizedRMSD>  (1) 
0.412703574

$$$$
