
     RDKit          3D

 29 31  0  0  0  0  0  0  0  0999 V2000
   37.2300   25.6360   42.1440 C   0  0  0  0  0  0  0  0  0  0  0  0
   37.7670   24.4140   42.2860 C   0  0  0  0  0  0  0  0  0  0  0  0
   38.0540   23.6260   41.2320 C   0  0  0  0  0  0  0  0  0  0  0  0
   37.7200   24.2470   39.9720 C   0  0  0  0  0  0  0  0  0  0  0  0
   37.0620   25.8110   40.3760 S   0  0  0  0  0  0  0  0  0  0  0  0
   37.8970   23.6800   38.6400 C   0  0  0  0  0  0  0  0  0  0  0  0
   38.7330   22.6710   38.3340 C   0  0  0  0  0  0  0  0  0  0  0  0
   38.5450   22.4970   36.9640 C   0  0  0  0  0  0  0  0  0  0  0  0
   37.6230   23.3870   36.4990 N   0  0  0  0  0  0  0  0  0  0  0  0
   37.2320   24.1110   37.5480 N   0  0  0  0  0  0  0  0  0  0  0  0
   36.8110   26.7100   43.0610 C   0  0  0  0  0  0  0  0  0  0  0  0
   39.0890   29.6030   42.1320 C   0  0  0  0  0  0  0  0  0  0  0  0
   38.6530   28.3360   42.6080 C   0  0  0  0  0  0  0  0  0  0  0  0
   37.3140   28.0210   42.5750 C   0  0  0  0  0  0  0  0  0  0  0  0
   36.4500   28.9530   42.0790 N   0  0  0  0  0  0  0  0  0  0  0  0
   36.8910   30.1620   41.6280 C   0  0  0  0  0  0  0  0  0  0  0  0
   38.1750   30.4640   41.6590 N   0  0  0  0  0  0  0  0  0  0  0  0
   35.8280   30.9810   41.1540 N   0  0  0  0  0  0  0  0  0  0  0  0
   37.9803   24.0429   43.2993 H   0  0  0  0  0  0  0  0  0  0  0  0
   38.4937   22.6216   41.3212 H   0  0  0  0  0  0  0  0  0  0  0  0
   39.4047   22.1158   39.0052 H   0  0  0  0  0  0  0  0  0  0  0  0
   39.0654   21.7496   36.3471 H   0  0  0  0  0  0  0  0  0  0  0  0
   37.2932   23.4815   35.5278 H   0  0  0  0  0  0  0  0  0  0  0  0
   35.7125   26.7377   43.1112 H   0  0  0  0  0  0  0  0  0  0  0  0
   37.2263   26.5128   44.0603 H   0  0  0  0  0  0  0  0  0  0  0  0
   40.1554   29.8722   42.1512 H   0  0  0  0  0  0  0  0  0  0  0  0
   39.3821   27.6118   43.0004 H   0  0  0  0  0  0  0  0  0  0  0  0
   34.8588   30.6334   41.1808 H   0  0  0  0  0  0  0  0  0  0  0  0
   36.0279   31.9213   40.7842 H   0  0  0  0  0  0  0  0  0  0  0  0
  1  2  2  0
  1 11  1  0
  3  2  1  0
  4  5  1  0
  4  3  2  0
  5  1  1  0
  6  4  1  0
  7  6  1  0
  8  7  2  0
  9  8  1  0
  9 10  1  0
 10  6  2  0
 12 13  2  0
 14 13  1  0
 14 11  1  0
 15 14  2  0
 16 17  2  0
 16 15  1  0
 17 12  1  0
 18 16  1  0
  2 19  1  0
  3 20  1  0
  7 21  1  0
  8 22  1  0
  9 23  1  0
 11 24  1  0
 11 25  1  0
 12 26  1  0
 13 27  1  0
 18 28  1  0
 18 29  1  0
M  ISO  8  19  14  20  14  21  14  22  14  23   9  24   8  25   8  26  14
M  ISO  1  27  14
M  END
>  <minimizedAffinity>  (1) 
-4.48126507

>  <minimizedRMSD>  (1) 
0.615926921

$$$$
