
     RDKit          3D

 30 32  0  0  0  0  0  0  0  0999 V2000
   37.0180   26.0440   42.2640 C   0  0  0  0  0  0  0  0  0  0  0  0
   37.4200   24.7920   42.5360 C   0  0  0  0  0  0  0  0  0  0  0  0
   37.7470   23.9040   41.5730 C   0  0  0  0  0  0  0  0  0  0  0  0
   37.6110   24.4640   40.2520 C   0  0  0  0  0  0  0  0  0  0  0  0
   37.0600   26.1140   40.4790 S   0  0  0  0  0  0  0  0  0  0  0  0
   37.8780   23.7910   38.9930 C   0  0  0  0  0  0  0  0  0  0  0  0
   39.0950   23.2960   38.6240 C   0  0  0  0  0  0  0  0  0  0  0  0
   38.8650   22.7540   37.3640 C   0  0  0  0  0  0  0  0  0  0  0  0
   37.5580   22.9350   37.0270 N   0  0  0  0  0  0  0  0  0  0  0  0
   36.9640   23.5760   38.0440 N   0  0  0  0  0  0  0  0  0  0  0  0
   36.6010   27.2190   43.0460 C   0  0  0  0  0  0  0  0  0  0  0  0
   39.3530   29.7970   42.6230 C   0  0  0  0  0  0  0  0  0  0  0  0
   38.6510   28.6330   43.0510 C   0  0  0  0  0  0  0  0  0  0  0  0
   37.3680   28.4160   42.6250 C   0  0  0  0  0  0  0  0  0  0  0  0
   36.8110   29.3410   41.7970 N   0  0  0  0  0  0  0  0  0  0  0  0
   37.4730   30.4500   41.3850 C   0  0  0  0  0  0  0  0  0  0  0  0
   38.7150   30.6630   41.7960 N   0  0  0  0  0  0  0  0  0  0  0  0
   36.6990   31.3450   40.4800 C   0  0  0  0  0  0  0  0  0  0  0  0
   37.4857   24.4766   43.5878 H   0  0  0  0  0  0  0  0  0  0  0  0
   38.0782   22.8743   41.7731 H   0  0  0  0  0  0  0  0  0  0  0  0
   40.0375   23.3201   39.1906 H   0  0  0  0  0  0  0  0  0  0  0  0
   39.6205   22.2570   36.7377 H   0  0  0  0  0  0  0  0  0  0  0  0
   37.1078   22.6343   36.1507 H   0  0  0  0  0  0  0  0  0  0  0  0
   35.5281   27.4002   42.8845 H   0  0  0  0  0  0  0  0  0  0  0  0
   36.7945   27.0266   44.1116 H   0  0  0  0  0  0  0  0  0  0  0  0
   40.3844   29.9882   42.9542 H   0  0  0  0  0  0  0  0  0  0  0  0
   39.1387   27.9106   43.7220 H   0  0  0  0  0  0  0  0  0  0  0  0
   36.0964   32.0419   41.0810 H   0  0  0  0  0  0  0  0  0  0  0  0
   37.3939   31.9145   39.8454 H   0  0  0  0  0  0  0  0  0  0  0  0
   36.0352   30.7395   39.8454 H   0  0  0  0  0  0  0  0  0  0  0  0
  1  2  2  0
  1 11  1  0
  3  2  1  0
  4  5  1  0
  4  3  2  0
  5  1  1  0
  6  4  1  0
  7  6  1  0
  8  7  2  0
  9  8  1  0
  9 10  1  0
 10  6  2  0
 12 13  2  0
 14 11  1  0
 14 13  1  0
 15 14  2  0
 16 17  2  0
 16 15  1  0
 17 12  1  0
 18 16  1  0
  2 19  1  0
  3 20  1  0
  7 21  1  0
  8 22  1  0
  9 23  1  0
 11 24  1  0
 11 25  1  0
 12 26  1  0
 13 27  1  0
 18 28  1  0
 18 29  1  0
 18 30  1  0
M  ISO  8  19  14  20  14  21  14  22  14  23   9  24   8  25   8  26  14
M  ISO  4  27  14  28   8  29   8  30   8
M  END
>  <minimizedAffinity>  (1) 
-4.23688126

>  <minimizedRMSD>  (1) 
0.0206029136

$$$$
