
     RDKit          3D

 33 35  0  0  0  0  0  0  0  0999 V2000
   38.8970   29.7400   42.3780 C   0  0  0  0  0  0  0  0  0  0  0  0
   38.1740   29.3540   41.2080 C   0  0  0  0  0  0  0  0  0  0  0  0
   38.0760   27.9920   41.0220 C   0  0  0  0  0  0  0  0  0  0  0  0
   38.6400   27.1060   41.9110 N   0  0  0  0  0  0  0  0  0  0  0  0
   39.3090   27.5450   42.9960 C   0  0  0  0  0  0  0  0  0  0  0  0
   39.4360   28.8650   43.2280 N   0  0  0  0  0  0  0  0  0  0  0  0
   37.3610   27.4820   39.8730 C   0  0  0  0  0  0  0  0  0  0  0  0
   37.1370   28.1790   38.7050 C   0  0  0  0  0  0  0  0  0  0  0  0
   36.4740   27.7170   37.5960 C   0  0  0  0  0  0  0  0  0  0  0  0
   35.9750   26.4320   37.6410 C   0  0  0  0  0  0  0  0  0  0  0  0
   36.1490   25.6600   38.7680 C   0  0  0  0  0  0  0  0  0  0  0  0
   35.6340   24.3840   38.7670 C   0  0  0  0  0  0  0  0  0  0  0  0
   35.7850   23.5750   39.8740 C   0  0  0  0  0  0  0  0  0  0  0  0
   36.4600   24.0710   40.9760 C   0  0  0  0  0  0  0  0  0  0  0  0
   36.9580   25.3560   40.9310 C   0  0  0  0  0  0  0  0  0  0  0  0
   36.8290   26.1940   39.8440 C   0  0  0  0  0  0  0  0  0  0  0  0
   37.6440   30.3460   40.3660 N   0  0  0  0  0  0  0  0  0  0  0  0
   36.6130   31.2450   40.7420 C   0  0  0  0  0  0  0  0  0  0  0  0
   35.6570   30.7470   41.4990 N   0  0  0  0  0  0  0  0  0  0  0  0
   36.7460   32.6020   40.2420 N   0  0  0  0  0  0  0  0  0  0  0  0
   34.8740   31.3310   41.8160 H   0  0  0  0  0  0  0  0  0  0  0  0
   39.0151   30.8132   42.5885 H   0  0  0  0  0  0  0  0  0  0  0  0
   39.7532   26.8212   43.6951 H   0  0  0  0  0  0  0  0  0  0  0  0
   37.5280   29.2061   38.6573 H   0  0  0  0  0  0  0  0  0  0  0  0
   36.3453   28.3480   36.7042 H   0  0  0  0  0  0  0  0  0  0  0  0
   35.4363   26.0225   36.7738 H   0  0  0  0  0  0  0  0  0  0  0  0
   35.1007   24.0082   37.8814 H   0  0  0  0  0  0  0  0  0  0  0  0
   35.3762   22.5538   39.8809 H   0  0  0  0  0  0  0  0  0  0  0  0
   36.5970   23.4499   41.8735 H   0  0  0  0  0  0  0  0  0  0  0  0
   37.4903   25.7353   41.8158 H   0  0  0  0  0  0  0  0  0  0  0  0
   38.0290   30.4257   39.4140 H   0  0  0  0  0  0  0  0  0  0  0  0
   36.0341   33.3089   40.4752 H   0  0  0  0  0  0  0  0  0  0  0  0
   37.5522   32.8575   39.6541 H   0  0  0  0  0  0  0  0  0  0  0  0
  1  6  2  0
  2  1  1  0
  3  2  2  0
  3  4  1  0
  4  5  2  0
  5  6  1  0
  7  3  1  0
  8  7  2  0
  9 10  2  0
  9  8  1  0
 10 11  1  0
 11 16  2  0
 12 11  1  0
 12 13  2  0
 13 14  1  0
 15 14  2  0
 16  7  1  0
 16 15  1  0
 17 18  1  0
 17  2  1  0
 18 19  2  0
 19 21  1  0
 20 18  1  0
  1 22  1  0
  5 23  1  0
  8 24  1  0
  9 25  1  0
 10 26  1  0
 12 27  1  0
 13 28  1  0
 14 29  1  0
 15 30  1  0
 17 31  1  0
 20 32  1  0
 20 33  1  0
M  ISO  8  22  14  23  14  24  14  25  14  26  14  27  14  28  14  29  14
M  ISO  1  30  14
M  END
>  <minimizedAffinity>  (1) 
-5.90963793

>  <minimizedRMSD>  (1) 
0.774537325

$$$$
