
     RDKit          3D

 43 45  0  0  0  0  0  0  0  0999 V2000
   37.8380   29.3680   41.3680 C   0  0  0  0  0  0  0  0  0  0  0  0
   38.5090   28.6110   42.3840 C   0  0  0  0  0  0  0  0  0  0  0  0
   39.8320   28.9630   42.5570 C   0  0  0  0  0  0  0  0  0  0  0  0
   40.4230   29.9310   41.8300 N   0  0  0  0  0  0  0  0  0  0  0  0
   39.7320   30.6190   40.8730 C   0  0  0  0  0  0  0  0  0  0  0  0
   38.4610   30.3260   40.6630 N   0  0  0  0  0  0  0  0  0  0  0  0
   37.7720   27.6200   43.0770 N   0  0  0  0  0  0  0  0  0  0  0  0
   36.8050   27.8850   44.0610 C   0  0  0  0  0  0  0  0  0  0  0  0
   37.0340   28.9070   44.8510 N   0  0  0  0  0  0  0  0  0  0  0  0
   35.6850   26.9810   44.0610 N   0  0  0  0  0  0  0  0  0  0  0  0
   36.3890   29.1490   45.6050 H   0  0  0  0  0  0  0  0  0  0  0  0
   40.5490   31.6250   40.2040 C   0  0  0  0  0  0  0  0  0  0  0  0
   40.8440   32.9090   40.6530 C   0  0  0  0  0  0  0  0  0  0  0  0
   41.6490   33.5350   39.7230 C   0  0  0  0  0  0  0  0  0  0  0  0
   41.8010   32.5780   38.7400 C   0  0  0  0  0  0  0  0  0  0  0  0
   41.1580   31.5030   39.0510 O   0  0  0  0  0  0  0  0  0  0  0  0
   42.1670   34.9210   39.8620 C   0  0  0  0  0  0  0  0  0  0  0  0
   41.2700   35.9040   39.1850 C   0  0  0  0  0  0  0  0  0  0  0  0
   40.1560   36.4660   39.9850 C   0  0  0  0  0  0  0  0  0  0  0  0
   40.3160   36.4410   41.4610 C   0  0  0  0  0  0  0  0  0  0  0  0
   41.7690   36.4690   41.8050 C   0  0  0  0  0  0  0  0  0  0  0  0
   42.4870   35.2700   41.2920 C   0  0  0  0  0  0  0  0  0  0  0  0
   42.6040   32.8110   37.5110 C   0  0  0  0  0  0  0  0  0  0  0  0
   42.5450   31.6740   36.6950 F   0  0  0  0  0  0  0  0  0  0  0  0
   42.0740   33.8980   36.8290 F   0  0  0  0  0  0  0  0  0  0  0  0
   43.9260   33.0210   37.8050 F   0  0  0  0  0  0  0  0  0  0  0  0
   36.7787   29.1572   41.1593 H   0  0  0  0  0  0  0  0  0  0  0  0
   40.4260   28.4336   43.3166 H   0  0  0  0  0  0  0  0  0  0  0  0
   37.9583   26.6344   42.8428 H   0  0  0  0  0  0  0  0  0  0  0  0
   34.9273   27.0998   44.7485 H   0  0  0  0  0  0  0  0  0  0  0  0
   35.6412   26.2152   43.3735 H   0  0  0  0  0  0  0  0  0  0  0  0
   40.4925   33.3528   41.5961 H   0  0  0  0  0  0  0  0  0  0  0  0
   43.1312   34.9767   39.3355 H   0  0  0  0  0  0  0  0  0  0  0  0
   41.8941   36.7454   38.8496 H   0  0  0  0  0  0  0  0  0  0  0  0
   40.7824   35.3355   38.3794 H   0  0  0  0  0  0  0  0  0  0  0  0
   40.0241   37.5151   39.6818 H   0  0  0  0  0  0  0  0  0  0  0  0
   39.2937   35.8156   39.7767 H   0  0  0  0  0  0  0  0  0  0  0  0
   39.8186   37.3191   41.8986 H   0  0  0  0  0  0  0  0  0  0  0  0
   39.8616   35.5236   41.8635 H   0  0  0  0  0  0  0  0  0  0  0  0
   42.2211   37.3695   41.3637 H   0  0  0  0  0  0  0  0  0  0  0  0
   41.8584   36.4752   42.9013 H   0  0  0  0  0  0  0  0  0  0  0  0
   42.2189   34.4110   41.9246 H   0  0  0  0  0  0  0  0  0  0  0  0
   43.5606   35.5071   41.3259 H   0  0  0  0  0  0  0  0  0  0  0  0
  1  2  2  0
  2  3  1  0
  2  7  1  0
  4  3  2  0
  5  4  1  0
  6  5  2  0
  6  1  1  0
  7  8  1  0
  8 10  1  0
  8  9  2  0
  9 11  1  0
 12 13  2  0
 12  5  1  0
 14 17  1  0
 14 13  1  0
 15 16  1  0
 15 14  2  0
 16 12  1  0
 17 22  1  0
 18 17  1  0
 18 19  1  0
 19 20  1  0
 20 21  1  0
 22 21  1  0
 23 26  1  0
 23 15  1  0
 24 23  1  0
 25 23  1  0
  1 27  1  0
  3 28  1  0
  7 29  1  0
 10 30  1  0
 10 31  1  0
 13 32  1  0
 17 33  1  0
 18 34  1  0
 18 35  1  0
 19 36  1  0
 19 37  1  0
 20 38  1  0
 20 39  1  0
 21 40  1  0
 21 41  1  0
 22 42  1  0
 22 43  1  0
M  ISO  8  27  14  28  14  32  14  33  13  34  13  35  13  36  13  37  13
M  ISO  6  38  13  39  13  40  13  41  13  42  13  43  13
M  END
>  <minimizedAffinity>  (1) 
-5.14228487

>  <minimizedRMSD>  (1) 
3.77903748

$$$$
