
     RDKit          3D

 27 28  0  0  0  0  0  0  0  0999 V2000
   38.6310   29.3220   42.5750 C   0  0  0  0  0  0  0  0  0  0  0  0
   37.8710   29.1720   41.3700 C   0  0  0  0  0  0  0  0  0  0  0  0
   37.3810   27.9030   41.1360 C   0  0  0  0  0  0  0  0  0  0  0  0
   37.6370   26.8980   42.0360 N   0  0  0  0  0  0  0  0  0  0  0  0
   38.3510   27.0840   43.1480 C   0  0  0  0  0  0  0  0  0  0  0  0
   38.8310   28.2940   43.3900 N   0  0  0  0  0  0  0  0  0  0  0  0
   36.6120   27.4950   39.9720 C   0  0  0  0  0  0  0  0  0  0  0  0
   36.7910   26.1450   39.6240 C   0  0  0  0  0  0  0  0  0  0  0  0
   36.1650   25.5120   38.5530 C   0  0  0  0  0  0  0  0  0  0  0  0
   35.3170   26.2340   37.7740 C   0  0  0  0  0  0  0  0  0  0  0  0
   35.1230   27.5540   38.0890 C   0  0  0  0  0  0  0  0  0  0  0  0
   35.7470   28.1500   39.1420 C   0  0  0  0  0  0  0  0  0  0  0  0
   37.6300   30.2470   40.4710 N   0  0  0  0  0  0  0  0  0  0  0  0
   36.7520   31.3320   40.7720 C   0  0  0  0  0  0  0  0  0  0  0  0
   35.6130   30.9890   41.3350 N   0  0  0  0  0  0  0  0  0  0  0  0
   37.1900   32.6700   40.4360 N   0  0  0  0  0  0  0  0  0  0  0  0
   34.8730   31.6650   41.5460 H   0  0  0  0  0  0  0  0  0  0  0  0
   39.0554   30.3046   42.8287 H   0  0  0  0  0  0  0  0  0  0  0  0
   38.5359   26.2537   43.8454 H   0  0  0  0  0  0  0  0  0  0  0  0
   37.4750   25.5451   40.2423 H   0  0  0  0  0  0  0  0  0  0  0  0
   36.3531   24.4490   38.3418 H   0  0  0  0  0  0  0  0  0  0  0  0
   34.8025   25.7736   36.9177 H   0  0  0  0  0  0  0  0  0  0  0  0
   34.4392   28.1526   37.4692 H   0  0  0  0  0  0  0  0  0  0  0  0
   35.5442   29.2139   39.3344 H   0  0  0  0  0  0  0  0  0  0  0  0
   38.1112   30.2428   39.5603 H   0  0  0  0  0  0  0  0  0  0  0  0
   36.5826   33.4768   40.6386 H   0  0  0  0  0  0  0  0  0  0  0  0
   38.1090   32.8153   39.9942 H   0  0  0  0  0  0  0  0  0  0  0  0
  1  6  2  0
  2  1  1  0
  3  2  2  0
  3  4  1  0
  4  5  2  0
  5  6  1  0
  7  3  1  0
  8  7  2  0
  9  8  1  0
 10 11  1  0
 10  9  2  0
 11 12  2  0
 12  7  1  0
 13 14  1  0
 13  2  1  0
 14 15  2  0
 15 17  1  0
 16 14  1  0
  1 18  1  0
  5 19  1  0
  8 20  1  0
  9 21  1  0
 10 22  1  0
 11 23  1  0
 12 24  1  0
 13 25  1  0
 16 26  1  0
 16 27  1  0
M  ISO  7  18  14  19  14  20  14  21  14  22  14  23  14  24  14
M  END
>  <minimizedAffinity>  (1) 
-5.16000938

>  <minimizedRMSD>  (1) 
0.405739456

$$$$
