
     RDKit          3D

 28 30  0  0  0  0  0  0  0  0999 V2000
   38.7570   29.6240   42.4310 C   0  0  0  0  0  0  0  0  0  0  0  0
   38.0730   29.3330   41.2050 C   0  0  0  0  0  0  0  0  0  0  0  0
   37.8880   27.9860   40.9810 C   0  0  0  0  0  0  0  0  0  0  0  0
   38.3310   27.0510   41.8700 N   0  0  0  0  0  0  0  0  0  0  0  0
   38.9640   27.3840   42.9980 C   0  0  0  0  0  0  0  0  0  0  0  0
   39.1760   28.6840   43.2770 N   0  0  0  0  0  0  0  0  0  0  0  0
   37.2180   27.6270   39.7850 N   0  0  0  0  0  0  0  0  0  0  0  0
   36.9690   28.3630   38.6850 C   0  0  0  0  0  0  0  0  0  0  0  0
   36.2910   27.6200   37.7640 N   0  0  0  0  0  0  0  0  0  0  0  0
   36.1020   26.3770   38.2880 C   0  0  0  0  0  0  0  0  0  0  0  0
   35.4760   25.2830   37.7420 C   0  0  0  0  0  0  0  0  0  0  0  0
   35.4330   24.1520   38.4990 N   0  0  0  0  0  0  0  0  0  0  0  0
   36.0030   24.1630   39.7360 C   0  0  0  0  0  0  0  0  0  0  0  0
   36.6200   25.2440   40.2710 N   0  0  0  0  0  0  0  0  0  0  0  0
   36.6860   26.3990   39.5470 C   0  0  0  0  0  0  0  0  0  0  0  0
   37.6650   30.3920   40.3690 N   0  0  0  0  0  0  0  0  0  0  0  0
   36.6730   31.3470   40.7160 C   0  0  0  0  0  0  0  0  0  0  0  0
   35.6320   30.8770   41.3680 N   0  0  0  0  0  0  0  0  0  0  0  0
   36.9440   32.7060   40.3070 N   0  0  0  0  0  0  0  0  0  0  0  0
   34.8690   31.5000   41.6720 H   0  0  0  0  0  0  0  0  0  0  0  0
   38.9455   30.6773   42.6861 H   0  0  0  0  0  0  0  0  0  0  0  0
   39.3088   26.6036   43.6924 H   0  0  0  0  0  0  0  0  0  0  0  0
   37.2693   29.4124   38.5490 H   0  0  0  0  0  0  0  0  0  0  0  0
   35.0291   25.3190   36.7375 H   0  0  0  0  0  0  0  0  0  0  0  0
   35.9599   23.2414   40.3349 H   0  0  0  0  0  0  0  0  0  0  0  0
   38.1155   30.4788   39.4468 H   0  0  0  0  0  0  0  0  0  0  0  0
   36.2693   33.4534   40.5240 H   0  0  0  0  0  0  0  0  0  0  0  0
   37.8119   32.9274   39.7984 H   0  0  0  0  0  0  0  0  0  0  0  0
  1  6  2  0
  2  1  1  0
  3  2  2  0
  3  4  1  0
  4  5  2  0
  5  6  1  0
  7  3  1  0
  8  7  1  0
  9 10  1  0
  9  8  2  0
 10 15  2  0
 11 10  1  0
 11 12  2  0
 12 13  1  0
 13 14  2  0
 15  7  1  0
 15 14  1  0
 16 17  1  0
 16  2  1  0
 17 18  2  0
 18 20  1  0
 19 17  1  0
  1 21  1  0
  5 22  1  0
  8 23  1  0
 11 24  1  0
 13 25  1  0
 16 26  1  0
 19 27  1  0
 19 28  1  0
M  ISO  5  21  14  22  14  23  14  24  14  25  14
M  END
>  <minimizedAffinity>  (1) 
-5.11052942

>  <minimizedRMSD>  (1) 
0.505530179

$$$$
