
     RDKit          3D

 30 31  0  0  0  0  0  0  0  0999 V2000
   38.4560   29.4020   42.6270 C   0  0  0  0  0  0  0  0  0  0  0  0
   37.9160   29.3030   41.3060 C   0  0  0  0  0  0  0  0  0  0  0  0
   37.5780   28.0110   40.9330 C   0  0  0  0  0  0  0  0  0  0  0  0
   37.7560   26.9600   41.7680 N   0  0  0  0  0  0  0  0  0  0  0  0
   38.2730   27.1210   43.0090 C   0  0  0  0  0  0  0  0  0  0  0  0
   38.6190   28.3500   43.4230 N   0  0  0  0  0  0  0  0  0  0  0  0
   37.0340   27.8520   39.6270 N   0  0  0  0  0  0  0  0  0  0  0  0
   35.7440   28.0680   39.3120 C   0  0  0  0  0  0  0  0  0  0  0  0
   35.3230   27.8840   38.0130 C   0  0  0  0  0  0  0  0  0  0  0  0
   33.9220   28.1040   37.6000 C   0  0  0  0  0  0  0  0  0  0  0  0
   36.2900   27.4800   37.1160 C   0  0  0  0  0  0  0  0  0  0  0  0
   35.9430   27.3000   35.9100 O   0  0  0  0  0  0  0  0  0  0  0  0
   37.5950   27.2560   37.4030 N   0  0  0  0  0  0  0  0  0  0  0  0
   37.9360   27.4590   38.7090 C   0  0  0  0  0  0  0  0  0  0  0  0
   39.1640   27.2410   38.9520 O   0  0  0  0  0  0  0  0  0  0  0  0
   37.7720   30.4700   40.5150 N   0  0  0  0  0  0  0  0  0  0  0  0
   36.8260   31.4940   40.7790 C   0  0  0  0  0  0  0  0  0  0  0  0
   35.6410   31.0860   41.1820 N   0  0  0  0  0  0  0  0  0  0  0  0
   37.2920   32.8390   40.5690 N   0  0  0  0  0  0  0  0  0  0  0  0
   34.8890   31.7560   41.3940 H   0  0  0  0  0  0  0  0  0  0  0  0
   38.7497   30.3939   43.0011 H   0  0  0  0  0  0  0  0  0  0  0  0
   38.4081   26.2532   43.6713 H   0  0  0  0  0  0  0  0  0  0  0  0
   35.0309   28.3890   40.0855 H   0  0  0  0  0  0  0  0  0  0  0  0
   33.2878   28.2036   38.4932 H   0  0  0  0  0  0  0  0  0  0  0  0
   33.8568   29.0234   36.9996 H   0  0  0  0  0  0  0  0  0  0  0  0
   33.5781   27.2488   36.9996 H   0  0  0  0  0  0  0  0  0  0  0  0
   38.2765   26.9560   36.6913 H   0  0  0  0  0  0  0  0  0  0  0  0
   38.3912   30.5815   39.6995 H   0  0  0  0  0  0  0  0  0  0  0  0
   36.6613   33.6352   40.7401 H   0  0  0  0  0  0  0  0  0  0  0  0
   38.2563   33.0057   40.2476 H   0  0  0  0  0  0  0  0  0  0  0  0
  1  6  2  0
  2  1  1  0
  3  2  2  0
  3  4  1  0
  4  5  2  0
  5  6  1  0
  7  3  1  0
  8  7  1  0
  9  8  2  0
 10  9  1  0
 11 13  1  0
 11  9  1  0
 12 11  2  0
 13 14  1  0
 14 15  2  0
 14  7  1  0
 16 17  1  0
 16  2  1  0
 17 18  2  0
 18 20  1  0
 19 17  1  0
  1 21  1  0
  5 22  1  0
  8 23  1  0
 10 24  1  0
 10 25  1  0
 10 26  1  0
 13 27  1  0
 16 28  1  0
 19 29  1  0
 19 30  1  0
M  ISO  7  21  14  22  14  23  14  24   8  25   8  26   8  27   9
M  END
>  <minimizedAffinity>  (1) 
-4.96402931

>  <minimizedRMSD>  (1) 
0.755041242

$$$$
