
     RDKit          3D

 33 35  0  0  0  0  0  0  0  0999 V2000
   37.7400   28.6900   41.6850 C   0  0  0  0  0  0  0  0  0  0  0  0
   37.6040   27.7370   40.6210 C   0  0  0  0  0  0  0  0  0  0  0  0
   38.1530   28.1410   39.4090 C   0  0  0  0  0  0  0  0  0  0  0  0
   38.7590   29.3350   39.2610 N   0  0  0  0  0  0  0  0  0  0  0  0
   38.8620   30.1980   40.2930 C   0  0  0  0  0  0  0  0  0  0  0  0
   38.3560   29.8600   41.4710 N   0  0  0  0  0  0  0  0  0  0  0  0
   36.9490   26.5120   40.8850 N   0  0  0  0  0  0  0  0  0  0  0  0
   37.4880   25.4510   41.6160 C   0  0  0  0  0  0  0  0  0  0  0  0
   38.7670   25.2390   41.4740 N   0  0  0  0  0  0  0  0  0  0  0  0
   36.5580   24.7310   42.4340 N   0  0  0  0  0  0  0  0  0  0  0  0
   39.2550   24.4690   41.9530 H   0  0  0  0  0  0  0  0  0  0  0  0
   39.5420   31.4420   39.9790 C   0  0  0  0  0  0  0  0  0  0  0  0
   39.4170   32.6790   40.5600 C   0  0  0  0  0  0  0  0  0  0  0  0
   40.2640   33.5920   39.9400 C   0  0  0  0  0  0  0  0  0  0  0  0
   40.8780   32.8260   38.9820 C   0  0  0  0  0  0  0  0  0  0  0  0
   40.4460   31.6010   39.0270 O   0  0  0  0  0  0  0  0  0  0  0  0
   40.3990   34.9680   40.2800 N   0  0  0  0  0  0  0  0  0  0  0  0
   39.4840   35.9120   40.0120 C   0  0  0  0  0  0  0  0  0  0  0  0
   39.9200   37.1080   40.4660 N   0  0  0  0  0  0  0  0  0  0  0  0
   41.1250   36.8870   41.0210 C   0  0  0  0  0  0  0  0  0  0  0  0
   41.3850   35.5730   40.8900 N   0  0  0  0  0  0  0  0  0  0  0  0
   41.8960   33.3480   38.0320 C   0  0  0  0  0  0  0  0  0  0  0  0
   41.8940   32.5980   36.8510 F   0  0  0  0  0  0  0  0  0  0  0  0
   41.6260   34.6660   37.7440 F   0  0  0  0  0  0  0  0  0  0  0  0
   43.1600   33.2120   38.5490 F   0  0  0  0  0  0  0  0  0  0  0  0
   37.3363   28.4585   42.6817 H   0  0  0  0  0  0  0  0  0  0  0  0
   38.0905   27.4644   38.5439 H   0  0  0  0  0  0  0  0  0  0  0  0
   35.9980   26.3925   40.5079 H   0  0  0  0  0  0  0  0  0  0  0  0
   36.8809   23.9351   43.0026 H   0  0  0  0  0  0  0  0  0  0  0  0
   35.5665   25.0092   42.4536 H   0  0  0  0  0  0  0  0  0  0  0  0
   38.7431   32.9150   41.3967 H   0  0  0  0  0  0  0  0  0  0  0  0
   38.5255   35.7390   39.5009 H   0  0  0  0  0  0  0  0  0  0  0  0
   41.7753   37.6383   41.4929 H   0  0  0  0  0  0  0  0  0  0  0  0
  2  7  1  0
  2  1  2  0
  3  2  1  0
  4  3  2  0
  4  5  1  0
  5  6  2  0
  6  1  1  0
  7  8  1  0
  8 10  1  0
  9  8  2  0
  9 11  1  0
 12  5  1  0
 12 13  2  0
 14 17  1  0
 14 13  1  0
 15 16  1  0
 15 14  2  0
 16 12  1  0
 17 21  1  0
 18 17  1  0
 18 19  2  0
 19 20  1  0
 21 20  2  0
 22 25  1  0
 22 15  1  0
 23 22  1  0
 24 22  1  0
  1 26  1  0
  3 27  1  0
  7 28  1  0
 10 29  1  0
 10 30  1  0
 13 31  1  0
 18 32  1  0
 20 33  1  0
M  ISO  5  26  14  27  14  31  14  32  14  33  14
M  END
>  <minimizedAffinity>  (1) 
-5.12205935

>  <minimizedRMSD>  (1) 
3.41846418

$$$$
