
     RDKit          3D

 43 46  0  0  1  0  0  0  0  0999 V2000
   36.9700   27.2910   40.0170 C   0  0  2  0  0  0  0  0  0  0  0  0
   36.5780   25.8370   40.0080 C   0  0  0  0  0  0  0  0  0  0  0  0
   36.3000   25.6120   38.5360 C   0  0  0  0  0  0  0  0  0  0  0  0
   37.1220   26.6070   37.8050 C   0  0  0  0  0  0  0  0  0  0  0  0
   37.9910   27.3120   38.9050 C   0  0  1  0  0  0  0  0  0  0  0  0
   38.2700   28.5720   38.2840 N   0  0  0  0  0  0  0  0  0  0  0  0
   37.4820   29.2070   37.3920 C   0  0  0  0  0  0  0  0  0  0  0  0
   38.0830   30.3530   37.0100 N   0  0  0  0  0  0  0  0  0  0  0  0
   39.2510   30.3890   37.6950 C   0  0  0  0  0  0  0  0  0  0  0  0
   40.2300   31.3700   37.6510 C   0  0  0  0  0  0  0  0  0  0  0  0
   41.3460   31.2310   38.4200 N   0  0  0  0  0  0  0  0  0  0  0  0
   41.4760   30.1300   39.2150 C   0  0  0  0  0  0  0  0  0  0  0  0
   40.5140   29.1740   39.2550 N   0  0  0  0  0  0  0  0  0  0  0  0
   39.4130   29.2870   38.5120 C   0  0  0  0  0  0  0  0  0  0  0  0
   40.1860   32.5510   36.8560 N   0  0  0  0  0  0  0  0  0  0  0  0
   37.9340   29.1130   43.1460 C   0  0  0  0  0  0  0  0  0  0  0  0
   37.6370   28.9680   41.7360 C   0  0  0  0  0  0  0  0  0  0  0  0
   37.4170   27.6950   41.3190 C   0  0  0  0  0  0  0  0  0  0  0  0
   37.4940   26.6670   42.2470 N   0  0  0  0  0  0  0  0  0  0  0  0
   37.7710   26.8510   43.5310 C   0  0  0  0  0  0  0  0  0  0  0  0
   37.9950   28.1000   43.9860 N   0  0  0  0  0  0  0  0  0  0  0  0
   37.6490   30.1020   40.9260 N   0  0  0  0  0  0  0  0  0  0  0  0
   36.5640   31.0280   40.8130 C   0  0  0  0  0  0  0  0  0  0  0  0
   35.3670   30.5200   40.8780 N   0  0  0  0  0  0  0  0  0  0  0  0
   36.9380   32.4270   40.6550 N   0  0  0  0  0  0  0  0  0  0  0  0
   34.5300   31.1120   40.8170 H   0  0  0  0  0  0  0  0  0  0  0  0
   36.1719   28.0260   39.8360 H   0  0  0  0  0  0  0  0  0  0  0  0
   37.3982   25.1969   40.3651 H   0  0  0  0  0  0  0  0  0  0  0  0
   35.7317   25.5951   40.6678 H   0  0  0  0  0  0  0  0  0  0  0  0
   36.5881   24.5911   38.2448 H   0  0  0  0  0  0  0  0  0  0  0  0
   35.2305   25.7284   38.3068 H   0  0  0  0  0  0  0  0  0  0  0  0
   37.7661   26.1072   37.0665 H   0  0  0  0  0  0  0  0  0  0  0  0
   36.5004   27.3250   37.2499 H   0  0  0  0  0  0  0  0  0  0  0  0
   38.9521   26.9252   39.2746 H   0  0  0  0  0  0  0  0  0  0  0  0
   36.5060   28.8480   37.0336 H   0  0  0  0  0  0  0  0  0  0  0  0
   42.3773   30.0152   39.8350 H   0  0  0  0  0  0  0  0  0  0  0  0
   40.9646   33.2244   36.8905 H   0  0  0  0  0  0  0  0  0  0  0  0
   39.3755   32.7317   36.2466 H   0  0  0  0  0  0  0  0  0  0  0  0
   38.1188   30.1244   43.5370 H   0  0  0  0  0  0  0  0  0  0  0  0
   37.8175   25.9930   44.2177 H   0  0  0  0  0  0  0  0  0  0  0  0
   38.4968   30.2861   40.3708 H   0  0  0  0  0  0  0  0  0  0  0  0
   37.9323   32.6933   40.6183 H   0  0  0  0  0  0  0  0  0  0  0  0
   36.2081   33.1499   40.5800 H   0  0  0  0  0  0  0  0  0  0  0  0
  1 18  1  0
  2  1  1  0
  3  2  1  0
  4  3  1  0
  4  5  1  0
  5  1  1  0
  6 14  1  0
  6  5  1  0
  7  6  1  0
  8  7  2  0
  8  9  1  0
  9 14  2  0
 10  9  1  0
 10 11  2  0
 11 12  1  0
 12 13  2  0
 14 13  1  0
 15 10  1  0
 16 21  2  0
 17 16  1  0
 18 17  2  0
 18 19  1  0
 19 20  2  0
 20 21  1  0
 22 17  1  0
 23 24  2  0
 23 22  1  0
 25 23  1  0
 26 24  1  0
  1 27  1  6
  2 28  1  0
  2 29  1  0
  3 30  1  0
  3 31  1  0
  4 32  1  0
  4 33  1  0
  5 34  1  1
  7 35  1  0
 12 36  1  0
 15 37  1  0
 15 38  1  0
 16 39  1  0
 20 40  1  0
 22 41  1  0
 25 42  1  0
 25 43  1  0
M  ISO  8  27  13  28  13  29  13  30  13  31  13  32  13  33  13  34  13
M  ISO  4  35  14  36  14  39  14  40  14
M  END
>  <minimizedAffinity>  (1) 
-6.05686378

>  <minimizedRMSD>  (1) 
0.637917042

$$$$
