
     RDKit          3D

 39 41  0  0  1  0  0  0  0  0999 V2000
   36.8780   27.5950   39.8610 C   0  0  2  0  0  0  0  0  0  0  0  0
   36.5690   26.1230   39.7870 C   0  0  0  0  0  0  0  0  0  0  0  0
   36.0500   26.0010   38.3630 C   0  0  0  0  0  0  0  0  0  0  0  0
   36.6790   27.1050   37.5980 C   0  0  0  0  0  0  0  0  0  0  0  0
   37.7050   27.7460   38.5990 C   0  0  1  0  0  0  0  0  0  0  0  0
   38.3400   29.2590   42.8720 C   0  0  0  0  0  0  0  0  0  0  0  0
   37.8390   29.1780   41.5130 C   0  0  0  0  0  0  0  0  0  0  0  0
   37.5140   27.9300   41.0910 C   0  0  0  0  0  0  0  0  0  0  0  0
   37.6850   26.8680   41.9660 N   0  0  0  0  0  0  0  0  0  0  0  0
   38.1480   26.9900   43.2010 C   0  0  0  0  0  0  0  0  0  0  0  0
   38.4790   28.2020   43.6590 N   0  0  0  0  0  0  0  0  0  0  0  0
   37.7930   30.3470   40.7580 N   0  0  0  0  0  0  0  0  0  0  0  0
   36.7750   31.3470   40.8790 C   0  0  0  0  0  0  0  0  0  0  0  0
   35.5860   30.9210   41.1650 N   0  0  0  0  0  0  0  0  0  0  0  0
   37.1910   32.7210   40.6820 N   0  0  0  0  0  0  0  0  0  0  0  0
   34.7890   31.5690   41.2710 H   0  0  0  0  0  0  0  0  0  0  0  0
   37.9780   29.0650   38.0920 C   0  0  0  0  0  0  0  0  0  0  0  0
   36.9910   29.8680   37.5070 C   0  0  0  0  0  0  0  0  0  0  0  0
   37.4130   31.1040   37.0880 C   0  0  0  0  0  0  0  0  0  0  0  0
   38.7350   31.4990   37.2480 C   0  0  0  0  0  0  0  0  0  0  0  0
   39.6900   30.6760   37.8350 C   0  0  0  0  0  0  0  0  0  0  0  0
   39.2800   29.4440   38.2550 N   0  0  0  0  0  0  0  0  0  0  0  0
   36.0263   28.2909   39.8805 H   0  0  0  0  0  0  0  0  0  0  0  0
   37.4717   25.5135   39.9406 H   0  0  0  0  0  0  0  0  0  0  0  0
   35.8655   25.7703   40.5555 H   0  0  0  0  0  0  0  0  0  0  0  0
   36.3359   25.0290   37.9348 H   0  0  0  0  0  0  0  0  0  0  0  0
   34.9523   26.0642   38.3294 H   0  0  0  0  0  0  0  0  0  0  0  0
   37.1958   26.7158   36.7084 H   0  0  0  0  0  0  0  0  0  0  0  0
   35.9402   27.8341   37.2339 H   0  0  0  0  0  0  0  0  0  0  0  0
   38.7141   27.3374   38.7565 H   0  0  0  0  0  0  0  0  0  0  0  0
   38.6182   30.2465   43.2687 H   0  0  0  0  0  0  0  0  0  0  0  0
   38.2591   26.1038   43.8431 H   0  0  0  0  0  0  0  0  0  0  0  0
   38.5405   30.5028   40.0668 H   0  0  0  0  0  0  0  0  0  0  0  0
   36.5024   33.4833   40.7567 H   0  0  0  0  0  0  0  0  0  0  0  0
   38.1753   32.9353   40.4672 H   0  0  0  0  0  0  0  0  0  0  0  0
   35.9502   29.5311   37.3916 H   0  0  0  0  0  0  0  0  0  0  0  0
   36.6944   31.7921   36.6187 H   0  0  0  0  0  0  0  0  0  0  0  0
   39.0370   32.4973   36.8983 H   0  0  0  0  0  0  0  0  0  0  0  0
   40.7328   31.0045   37.9558 H   0  0  0  0  0  0  0  0  0  0  0  0
  1  8  1  0
  2  1  1  0
  3  2  1  0
  4  3  1  0
  4  5  1  0
  5  1  1  0
  6 11  2  0
  7  6  1  0
  8  7  2  0
  8  9  1  0
  9 10  2  0
 10 11  1  0
 12 13  1  0
 12  7  1  0
 13 14  2  0
 14 16  1  0
 15 13  1  0
 17 22  1  0
 17  5  1  0
 18 17  2  0
 19 20  2  0
 19 18  1  0
 20 21  1  0
 21 22  2  0
  1 23  1  6
  2 24  1  0
  2 25  1  0
  3 26  1  0
  3 27  1  0
  4 28  1  0
  4 29  1  0
  5 30  1  1
  6 31  1  0
 10 32  1  0
 12 33  1  0
 15 34  1  0
 15 35  1  0
 18 36  1  0
 19 37  1  0
 20 38  1  0
 21 39  1  0
M  ISO  8  23  13  24  13  25  13  26  13  27  13  28  13  29  13  30  13
M  ISO  6  31  14  32  14  36  14  37  14  38  14  39  14
M  END
>  <minimizedAffinity>  (1) 
-5.47650099

>  <minimizedRMSD>  (1) 
0.414574742

$$$$
