
     RDKit          3D

 37 39  0  0  1  0  0  0  0  0999 V2000
   36.9200   27.5570   39.8850 C   0  0  2  0  0  0  0  0  0  0  0  0
   36.5770   26.0920   39.8960 C   0  0  0  0  0  0  0  0  0  0  0  0
   35.9930   25.9230   38.5050 C   0  0  0  0  0  0  0  0  0  0  0  0
   36.6800   26.9270   37.6590 C   0  0  0  0  0  0  0  0  0  0  0  0
   37.6990   27.6510   38.5880 C   0  0  1  0  0  0  0  0  0  0  0  0
   38.4820   29.3200   42.7980 C   0  0  0  0  0  0  0  0  0  0  0  0
   37.9180   29.1980   41.4680 C   0  0  0  0  0  0  0  0  0  0  0  0
   37.6140   27.9350   41.0800 C   0  0  0  0  0  0  0  0  0  0  0  0
   37.8610   26.8890   41.9580 N   0  0  0  0  0  0  0  0  0  0  0  0
   38.3800   27.0520   43.1690 C   0  0  0  0  0  0  0  0  0  0  0  0
   38.6950   28.2880   43.5940 N   0  0  0  0  0  0  0  0  0  0  0  0
   37.7960   30.3520   40.6990 N   0  0  0  0  0  0  0  0  0  0  0  0
   36.7360   31.3030   40.8360 C   0  0  0  0  0  0  0  0  0  0  0  0
   35.5740   30.8350   41.1590 N   0  0  0  0  0  0  0  0  0  0  0  0
   37.0940   32.6970   40.6120 N   0  0  0  0  0  0  0  0  0  0  0  0
   34.7570   31.4490   41.2920 H   0  0  0  0  0  0  0  0  0  0  0  0
   37.7370   28.9950   37.9900 C   0  0  0  0  0  0  0  0  0  0  0  0
   36.6620   29.6700   37.3950 C   0  0  0  0  0  0  0  0  0  0  0  0
   37.2440   30.8810   37.0010 C   0  0  0  0  0  0  0  0  0  0  0  0
   38.5830   30.8320   37.3830 C   0  0  0  0  0  0  0  0  0  0  0  0
   38.8530   29.6870   37.9750 O   0  0  0  0  0  0  0  0  0  0  0  0
   36.0782   28.2649   39.9005 H   0  0  0  0  0  0  0  0  0  0  0  0
   37.4720   25.4683   40.0373 H   0  0  0  0  0  0  0  0  0  0  0  0
   35.9035   25.7892   40.7113 H   0  0  0  0  0  0  0  0  0  0  0  0
   36.1856   24.9075   38.1286 H   0  0  0  0  0  0  0  0  0  0  0  0
   34.9024   26.0661   38.5016 H   0  0  0  0  0  0  0  0  0  0  0  0
   37.2053   26.4316   36.8291 H   0  0  0  0  0  0  0  0  0  0  0  0
   35.9650   27.6365   37.2170 H   0  0  0  0  0  0  0  0  0  0  0  0
   38.7333   27.3011   38.7213 H   0  0  0  0  0  0  0  0  0  0  0  0
   38.7460   30.3236   43.1628 H   0  0  0  0  0  0  0  0  0  0  0  0
   38.5511   26.1820   43.8200 H   0  0  0  0  0  0  0  0  0  0  0  0
   38.5158   30.5330   39.9848 H   0  0  0  0  0  0  0  0  0  0  0  0
   36.3776   33.4324   40.6950 H   0  0  0  0  0  0  0  0  0  0  0  0
   38.0635   32.9473   40.3706 H   0  0  0  0  0  0  0  0  0  0  0  0
   35.6225   29.3330   37.2693 H   0  0  0  0  0  0  0  0  0  0  0  0
   36.7399   31.7130   36.4875 H   0  0  0  0  0  0  0  0  0  0  0  0
   39.3129   31.6374   37.2137 H   0  0  0  0  0  0  0  0  0  0  0  0
  1  2  1  0
  1  8  1  0
  3  2  1  0
  4  3  1  0
  4  5  1  0
  5  1  1  0
  6 11  2  0
  7  6  1  0
  8  7  2  0
  8  9  1  0
  9 10  2  0
 10 11  1  0
 12 13  1  0
 12  7  1  0
 13 14  2  0
 14 16  1  0
 15 13  1  0
 17  5  1  0
 18 17  2  0
 19 20  2  0
 19 18  1  0
 20 21  1  0
 21 17  1  0
  1 22  1  6
  2 23  1  0
  2 24  1  0
  3 25  1  0
  3 26  1  0
  4 27  1  0
  4 28  1  0
  5 29  1  1
  6 30  1  0
 10 31  1  0
 12 32  1  0
 15 33  1  0
 15 34  1  0
 18 35  1  0
 19 36  1  0
 20 37  1  0
M  ISO  8  22  13  23  13  24  13  25  13  26  13  27  13  28  13  29  13
M  ISO  5  30  14  31  14  35  14  36  14  37  14
M  END
>  <minimizedAffinity>  (1) 
-5.33193827

>  <minimizedRMSD>  (1) 
0.377175301

$$$$
