
     RDKit          3D

 38 40  0  0  1  0  0  0  0  0999 V2000
   36.9400   27.6340   39.7920 C   0  0  2  0  0  0  0  0  0  0  0  0
   36.5510   26.1850   39.6870 C   0  0  0  0  0  0  0  0  0  0  0  0
   36.1270   26.1010   38.2320 C   0  0  0  0  0  0  0  0  0  0  0  0
   36.9180   27.1350   37.5180 C   0  0  0  0  0  0  0  0  0  0  0  0
   37.8610   27.7620   38.5940 C   0  0  1  0  0  0  0  0  0  0  0  0
   38.2100   29.2050   42.9410 C   0  0  0  0  0  0  0  0  0  0  0  0
   37.8000   29.1660   41.5490 C   0  0  0  0  0  0  0  0  0  0  0  0
   37.5010   27.9340   41.0730 C   0  0  0  0  0  0  0  0  0  0  0  0
   37.6080   26.8430   41.9210 N   0  0  0  0  0  0  0  0  0  0  0  0
   37.9890   26.9280   43.1880 C   0  0  0  0  0  0  0  0  0  0  0  0
   38.2960   28.1360   43.7070 N   0  0  0  0  0  0  0  0  0  0  0  0
   37.8130   30.3530   40.8230 N   0  0  0  0  0  0  0  0  0  0  0  0
   36.7910   31.3530   40.8870 C   0  0  0  0  0  0  0  0  0  0  0  0
   35.5810   30.9250   41.0600 N   0  0  0  0  0  0  0  0  0  0  0  0
   37.2380   32.7310   40.7650 N   0  0  0  0  0  0  0  0  0  0  0  0
   34.7840   31.5740   41.1450 H   0  0  0  0  0  0  0  0  0  0  0  0
   38.0410   29.1260   38.0650 C   0  0  0  0  0  0  0  0  0  0  0  0
   37.0800   29.9120   37.4120 C   0  0  0  0  0  0  0  0  0  0  0  0
   37.4040   31.1780   36.9630 C   0  0  0  0  0  0  0  0  0  0  0  0
   38.6450   31.6500   37.1610 N   0  0  0  0  0  0  0  0  0  0  0  0
   39.5690   30.8750   37.7990 C   0  0  0  0  0  0  0  0  0  0  0  0
   39.2830   29.6390   38.2460 N   0  0  0  0  0  0  0  0  0  0  0  0
   36.1243   28.3709   39.7525 H   0  0  0  0  0  0  0  0  0  0  0  0
   37.4031   25.5221   39.8979 H   0  0  0  0  0  0  0  0  0  0  0  0
   35.7768   25.8713   40.4027 H   0  0  0  0  0  0  0  0  0  0  0  0
   36.3473   25.1026   37.8262 H   0  0  0  0  0  0  0  0  0  0  0  0
   35.0459   26.2675   38.1158 H   0  0  0  0  0  0  0  0  0  0  0  0
   37.5082   26.6770   36.7106 H   0  0  0  0  0  0  0  0  0  0  0  0
   36.2705   27.8933   37.0536 H   0  0  0  0  0  0  0  0  0  0  0  0
   38.8573   27.3598   38.8298 H   0  0  0  0  0  0  0  0  0  0  0  0
   38.4629   30.1810   43.3809 H   0  0  0  0  0  0  0  0  0  0  0  0
   38.0543   26.0233   43.8102 H   0  0  0  0  0  0  0  0  0  0  0  0
   38.6127   30.5237   40.1967 H   0  0  0  0  0  0  0  0  0  0  0  0
   36.5535   33.4997   40.8027 H   0  0  0  0  0  0  0  0  0  0  0  0
   38.2392   32.9386   40.6408 H   0  0  0  0  0  0  0  0  0  0  0  0
   36.0644   29.5190   37.2568 H   0  0  0  0  0  0  0  0  0  0  0  0
   36.6518   31.7935   36.4479 H   0  0  0  0  0  0  0  0  0  0  0  0
   40.5822   31.2745   37.9531 H   0  0  0  0  0  0  0  0  0  0  0  0
  1  8  1  0
  2  1  1  0
  3  2  1  0
  4  3  1  0
  4  5  1  0
  5  1  1  0
  6 11  2  0
  7  6  1  0
  8  7  2  0
  8  9  1  0
  9 10  2  0
 10 11  1  0
 12 13  1  0
 12  7  1  0
 13 14  2  0
 14 16  1  0
 15 13  1  0
 17 22  1  0
 17  5  1  0
 18 17  2  0
 19 20  2  0
 19 18  1  0
 20 21  1  0
 21 22  2  0
  1 23  1  6
  2 24  1  0
  2 25  1  0
  3 26  1  0
  3 27  1  0
  4 28  1  0
  4 29  1  0
  5 30  1  1
  6 31  1  0
 10 32  1  0
 12 33  1  0
 15 34  1  0
 15 35  1  0
 18 36  1  0
 19 37  1  0
 21 38  1  0
M  ISO  8  23  13  24  13  25  13  26  13  27  13  28  13  29  13  30  13
M  ISO  5  31  14  32  14  36  14  37  14  38  14
M  END
>  <minimizedAffinity>  (1) 
-5.2679348

>  <minimizedRMSD>  (1) 
0.429766983

$$$$
