
     RDKit          3D

 42 44  0  0  1  0  0  0  0  0999 V2000
   36.9080   27.5560   39.8940 C   0  0  2  0  0  0  0  0  0  0  0  0
   36.5940   26.0840   39.9010 C   0  0  0  0  0  0  0  0  0  0  0  0
   36.0460   25.8850   38.5110 C   0  0  0  0  0  0  0  0  0  0  0  0
   36.6380   26.9630   37.6750 C   0  0  0  0  0  0  0  0  0  0  0  0
   37.6910   27.6680   38.6080 C   0  0  1  0  0  0  0  0  0  0  0  0
   38.4500   29.3120   42.8260 C   0  0  0  0  0  0  0  0  0  0  0  0
   37.8960   29.1930   41.4920 C   0  0  0  0  0  0  0  0  0  0  0  0
   37.5950   27.9320   41.1020 C   0  0  0  0  0  0  0  0  0  0  0  0
   37.8350   26.8860   41.9810 N   0  0  0  0  0  0  0  0  0  0  0  0
   38.3460   27.0450   43.1960 C   0  0  0  0  0  0  0  0  0  0  0  0
   38.6560   28.2770   43.6200 N   0  0  0  0  0  0  0  0  0  0  0  0
   37.7830   30.3450   40.7200 N   0  0  0  0  0  0  0  0  0  0  0  0
   36.7310   31.3040   40.8390 C   0  0  0  0  0  0  0  0  0  0  0  0
   35.5650   30.8350   41.1450 N   0  0  0  0  0  0  0  0  0  0  0  0
   37.1120   32.6950   40.6190 N   0  0  0  0  0  0  0  0  0  0  0  0
   34.7480   31.4510   41.2770 H   0  0  0  0  0  0  0  0  0  0  0  0
   37.8210   28.9780   38.1600 N   0  0  0  0  0  0  0  0  0  0  0  0
   36.9050   29.5250   37.2340 C   0  0  0  0  0  0  0  0  0  0  0  0
   37.3740   30.9500   37.0860 C   0  0  0  0  0  0  0  0  0  0  0  0
   38.8410   30.8510   37.4140 C   0  0  0  0  0  0  0  0  0  0  0  0
   39.1040   29.3500   37.6220 C   0  0  0  0  0  0  0  0  0  0  0  0
   36.0559   28.2516   39.9027 H   0  0  0  0  0  0  0  0  0  0  0  0
   37.4992   25.4812   40.0658 H   0  0  0  0  0  0  0  0  0  0  0  0
   35.9054   25.7769   40.7020 H   0  0  0  0  0  0  0  0  0  0  0  0
   36.3379   24.8978   38.1235 H   0  0  0  0  0  0  0  0  0  0  0  0
   34.9469   25.9284   38.5028 H   0  0  0  0  0  0  0  0  0  0  0  0
   37.1303   26.5382   36.7878 H   0  0  0  0  0  0  0  0  0  0  0  0
   35.8765   27.6656   37.3057 H   0  0  0  0  0  0  0  0  0  0  0  0
   38.7165   27.2745   38.6673 H   0  0  0  0  0  0  0  0  0  0  0  0
   38.7119   30.3144   43.1955 H   0  0  0  0  0  0  0  0  0  0  0  0
   38.5129   26.1744   43.8473 H   0  0  0  0  0  0  0  0  0  0  0  0
   38.5103   30.5189   40.0117 H   0  0  0  0  0  0  0  0  0  0  0  0
   36.4043   33.4401   40.6889 H   0  0  0  0  0  0  0  0  0  0  0  0
   38.0887   32.9320   40.3938 H   0  0  0  0  0  0  0  0  0  0  0  0
   36.9510   28.9928   36.2724 H   0  0  0  0  0  0  0  0  0  0  0  0
   35.8589   29.4474   37.5650 H   0  0  0  0  0  0  0  0  0  0  0  0
   37.2207   31.3135   36.0592 H   0  0  0  0  0  0  0  0  0  0  0  0
   36.8297   31.6579   37.7284 H   0  0  0  0  0  0  0  0  0  0  0  0
   39.4495   31.2383   36.5835 H   0  0  0  0  0  0  0  0  0  0  0  0
   39.1058   31.4431   38.3024 H   0  0  0  0  0  0  0  0  0  0  0  0
   39.3218   28.8329   36.6759 H   0  0  0  0  0  0  0  0  0  0  0  0
   39.9736   29.1008   38.2479 H   0  0  0  0  0  0  0  0  0  0  0  0
  1  2  1  0
  1  8  1  0
  3  2  1  0
  4  3  1  0
  4  5  1  0
  5  1  1  0
  6 11  2  0
  7  6  1  0
  8  7  2  0
  8  9  1  0
  9 10  2  0
 10 11  1  0
 12 13  1  0
 12  7  1  0
 13 14  2  0
 14 16  1  0
 15 13  1  0
 17 18  1  0
 17  5  1  0
 19 18  1  0
 19 20  1  0
 20 21  1  0
 21 17  1  0
  1 22  1  6
  2 23  1  0
  2 24  1  0
  3 25  1  0
  3 26  1  0
  4 27  1  0
  4 28  1  0
  5 29  1  1
  6 30  1  0
 10 31  1  0
 12 32  1  0
 15 33  1  0
 15 34  1  0
 18 35  1  0
 18 36  1  0
 19 37  1  0
 19 38  1  0
 20 39  1  0
 20 40  1  0
 21 41  1  0
 21 42  1  0
M  ISO  8  22  13  23  13  24  13  25  13  26  13  27  13  28  13  29  13
M  ISO  8  30  14  31  14  35  13  36  13  37  13  38  13  39  13  40  13
M  ISO  2  41  13  42  13
M  END
>  <minimizedAffinity>  (1) 
-5.24539232

>  <minimizedRMSD>  (1) 
0.289901108

$$$$
