
     RDKit          3D

 37 39  0  0  1  0  0  0  0  0999 V2000
   36.9830   27.5740   39.8180 C   0  0  2  0  0  0  0  0  0  0  0  0
   36.5670   26.1240   39.8560 C   0  0  0  0  0  0  0  0  0  0  0  0
   36.0460   25.9380   38.4460 C   0  0  0  0  0  0  0  0  0  0  0  0
   36.7870   26.9090   37.6080 C   0  0  0  0  0  0  0  0  0  0  0  0
   37.8210   27.5950   38.5680 C   0  0  1  0  0  0  0  0  0  0  0  0
   38.4460   29.3120   42.8000 C   0  0  0  0  0  0  0  0  0  0  0  0
   37.9100   29.2040   41.4560 C   0  0  0  0  0  0  0  0  0  0  0  0
   37.6360   27.9410   41.0460 C   0  0  0  0  0  0  0  0  0  0  0  0
   37.8850   26.8920   41.9180 N   0  0  0  0  0  0  0  0  0  0  0  0
   38.3750   27.0360   43.1360 C   0  0  0  0  0  0  0  0  0  0  0  0
   38.6590   28.2730   43.5800 N   0  0  0  0  0  0  0  0  0  0  0  0
   37.7930   30.3630   40.6990 N   0  0  0  0  0  0  0  0  0  0  0  0
   36.7310   31.3140   40.8250 C   0  0  0  0  0  0  0  0  0  0  0  0
   35.5700   30.8320   41.1300 N   0  0  0  0  0  0  0  0  0  0  0  0
   37.0920   32.7030   40.6110 N   0  0  0  0  0  0  0  0  0  0  0  0
   34.7510   31.4420   41.2760 H   0  0  0  0  0  0  0  0  0  0  0  0
   37.9000   28.9060   37.9950 N   0  0  0  0  0  0  0  0  0  0  0  0
   38.9470   29.7140   37.9620 N   0  0  0  0  0  0  0  0  0  0  0  0
   38.5990   30.8710   37.3690 C   0  0  0  0  0  0  0  0  0  0  0  0
   37.2460   30.7350   37.0250 C   0  0  0  0  0  0  0  0  0  0  0  0
   36.7930   29.4710   37.4280 C   0  0  0  0  0  0  0  0  0  0  0  0
   36.1829   28.3270   39.7654 H   0  0  0  0  0  0  0  0  0  0  0  0
   37.4221   25.4633   40.0615 H   0  0  0  0  0  0  0  0  0  0  0  0
   35.8400   25.8805   40.6447 H   0  0  0  0  0  0  0  0  0  0  0  0
   36.2358   24.9111   38.1003 H   0  0  0  0  0  0  0  0  0  0  0  0
   34.9599   26.1038   38.3916 H   0  0  0  0  0  0  0  0  0  0  0  0
   37.3084   26.3904   36.7900 H   0  0  0  0  0  0  0  0  0  0  0  0
   36.1123   27.6443   37.1453 H   0  0  0  0  0  0  0  0  0  0  0  0
   38.8319   27.1911   38.7259 H   0  0  0  0  0  0  0  0  0  0  0  0
   38.6867   30.3132   43.1870 H   0  0  0  0  0  0  0  0  0  0  0  0
   38.5479   26.1586   43.7765 H   0  0  0  0  0  0  0  0  0  0  0  0
   38.5227   30.5513   39.9969 H   0  0  0  0  0  0  0  0  0  0  0  0
   36.3753   33.4389   40.6866 H   0  0  0  0  0  0  0  0  0  0  0  0
   38.0649   32.9531   40.3835 H   0  0  0  0  0  0  0  0  0  0  0  0
   39.2436   31.7443   37.1907 H   0  0  0  0  0  0  0  0  0  0  0  0
   36.6371   31.4989   36.5193 H   0  0  0  0  0  0  0  0  0  0  0  0
   35.7880   29.0383   37.3149 H   0  0  0  0  0  0  0  0  0  0  0  0
  1  2  1  0
  1  8  1  0
  3  2  1  0
  4  3  1  0
  4  5  1  0
  5  1  1  0
  6 11  2  0
  7  6  1  0
  8  7  2  0
  8  9  1  0
  9 10  2  0
 10 11  1  0
 12 13  1  0
 12  7  1  0
 13 14  2  0
 14 16  1  0
 15 13  1  0
 17  5  1  0
 18 17  1  0
 19 18  2  0
 20 19  1  0
 20 21  2  0
 21 17  1  0
  1 22  1  6
  2 23  1  0
  2 24  1  0
  3 25  1  0
  3 26  1  0
  4 27  1  0
  4 28  1  0
  5 29  1  1
  6 30  1  0
 10 31  1  0
 12 32  1  0
 15 33  1  0
 15 34  1  0
 19 35  1  0
 20 36  1  0
 21 37  1  0
M  ISO  8  22  13  23  13  24  13  25  13  26  13  27  13  28  13  29  13
M  ISO  5  30  14  31  14  35  14  36  14  37  14
M  END
>  <minimizedAffinity>  (1) 
-5.23835039

>  <minimizedRMSD>  (1) 
0.311144561

$$$$
