
     RDKit          3D

 46 48  0  0  1  0  0  0  0  0999 V2000
   36.9530   27.6620   39.7140 C   0  0  2  0  0  0  0  0  0  0  0  0
   36.7010   26.1810   39.7490 C   0  0  0  0  0  0  0  0  0  0  0  0
   35.9940   25.9690   38.4140 C   0  0  0  0  0  0  0  0  0  0  0  0
   36.4240   27.0840   37.5140 C   0  0  0  0  0  0  0  0  0  0  0  0
   37.4230   27.8820   38.3150 C   0  0  2  0  0  0  0  0  0  0  0  0
   38.8050   29.5560   42.3550 C   0  0  0  0  0  0  0  0  0  0  0  0
   38.0630   29.3970   41.1420 C   0  0  0  0  0  0  0  0  0  0  0  0
   37.7710   28.1080   40.7860 C   0  0  0  0  0  0  0  0  0  0  0  0
   38.2070   27.0900   41.6110 N   0  0  0  0  0  0  0  0  0  0  0  0
   38.8950   27.2910   42.7320 C   0  0  0  0  0  0  0  0  0  0  0  0
   39.1940   28.5450   43.1000 N   0  0  0  0  0  0  0  0  0  0  0  0
   37.6890   30.5170   40.3570 N   0  0  0  0  0  0  0  0  0  0  0  0
   36.7100   31.4590   40.7170 C   0  0  0  0  0  0  0  0  0  0  0  0
   35.6480   30.9580   41.2890 N   0  0  0  0  0  0  0  0  0  0  0  0
   37.0000   32.8480   40.4120 N   0  0  0  0  0  0  0  0  0  0  0  0
   34.8530   31.5480   41.5740 H   0  0  0  0  0  0  0  0  0  0  0  0
   38.8350   27.7180   38.0430 C   0  0  0  0  0  0  0  0  0  0  0  0
   39.3670   26.6990   37.1390 C   0  0  0  0  0  0  0  0  0  0  0  0
   40.9040   26.8230   37.1210 C   0  0  0  0  0  0  0  0  0  0  0  0
   41.3690   28.1920   36.7000 C   0  0  0  0  0  0  0  0  0  0  0  0
   40.7980   29.2390   37.6770 C   0  0  0  0  0  0  0  0  0  0  0  0
   39.3190   29.1150   37.5530 C   0  0  0  0  0  0  0  0  0  0  0  0
   36.0762   28.2974   39.9074 H   0  0  0  0  0  0  0  0  0  0  0  0
   37.6417   25.6132   39.8016 H   0  0  0  0  0  0  0  0  0  0  0  0
   36.1261   25.8414   40.6232 H   0  0  0  0  0  0  0  0  0  0  0  0
   36.2844   25.0001   37.9816 H   0  0  0  0  0  0  0  0  0  0  0  0
   34.9016   25.9652   38.5427 H   0  0  0  0  0  0  0  0  0  0  0  0
   35.5628   27.7105   37.2388 H   0  0  0  0  0  0  0  0  0  0  0  0
   36.8582   26.7084   36.5757 H   0  0  0  0  0  0  0  0  0  0  0  0
   37.4250   28.9421   38.0213 H   0  0  0  0  0  0  0  0  0  0  0  0
   39.0628   30.5747   42.6804 H   0  0  0  0  0  0  0  0  0  0  0  0
   39.2146   26.4385   43.3494 H   0  0  0  0  0  0  0  0  0  0  0  0
   38.1704   30.6501   39.4562 H   0  0  0  0  0  0  0  0  0  0  0  0
   36.3183   33.5815   40.6534 H   0  0  0  0  0  0  0  0  0  0  0  0
   37.8875   33.1003   39.9541 H   0  0  0  0  0  0  0  0  0  0  0  0
   39.2191   27.3182   38.9931 H   0  0  0  0  0  0  0  0  0  0  0  0
   39.0786   25.6989   37.4948 H   0  0  0  0  0  0  0  0  0  0  0  0
   38.9632   26.8428   36.1260 H   0  0  0  0  0  0  0  0  0  0  0  0
   41.2861   26.6163   38.1316 H   0  0  0  0  0  0  0  0  0  0  0  0
   41.2883   26.0998   36.3866 H   0  0  0  0  0  0  0  0  0  0  0  0
   42.4682   28.2303   36.7196 H   0  0  0  0  0  0  0  0  0  0  0  0
   41.0182   28.4059   35.6796 H   0  0  0  0  0  0  0  0  0  0  0  0
   41.1192   29.0228   38.7066 H   0  0  0  0  0  0  0  0  0  0  0  0
   41.1485   30.2555   37.4448 H   0  0  0  0  0  0  0  0  0  0  0  0
   38.8399   29.8960   38.1617 H   0  0  0  0  0  0  0  0  0  0  0  0
   39.0443   29.2304   36.4941 H   0  0  0  0  0  0  0  0  0  0  0  0
  1  2  1  0
  1  8  1  0
  3  2  1  0
  4  5  1  0
  4  3  1  0
  5  1  1  0
  6 11  2  0
  7  6  1  0
  8  7  2  0
  8  9  1  0
  9 10  2  0
 10 11  1  0
 12 13  1  0
 12  7  1  0
 13 14  2  0
 14 16  1  0
 15 13  1  0
 17  5  1  0
 18 17  1  0
 19 18  1  0
 20 19  1  0
 20 21  1  0
 22 21  1  0
 22 17  1  0
  1 23  1  6
  2 24  1  0
  2 25  1  0
  3 26  1  0
  3 27  1  0
  4 28  1  0
  4 29  1  0
  5 30  1  6
  6 31  1  0
 10 32  1  0
 12 33  1  0
 15 34  1  0
 15 35  1  0
 17 36  1  0
 18 37  1  0
 18 38  1  0
 19 39  1  0
 19 40  1  0
 20 41  1  0
 20 42  1  0
 21 43  1  0
 21 44  1  0
 22 45  1  0
 22 46  1  0
M  ISO  8  23  13  24  13  25  13  26  13  27  13  28  13  29  13  30  13
M  ISO  8  31  14  32  14  36  13  37  13  38  13  39  13  40  13  41  13
M  ISO  5  42  13  43  13  44  13  45  13  46  13
M  END
>  <minimizedAffinity>  (1) 
-5.18131495

>  <minimizedRMSD>  (1) 
0.872133136

$$$$
