
     RDKit          3D

 33 34  0  0  1  0  0  0  0  0999 V2000
   36.8860   27.5790   39.8270 C   0  0  2  0  0  0  0  0  0  0  0  0
   36.6830   26.0980   39.8400 C   0  0  0  0  0  0  0  0  0  0  0  0
   35.9330   25.9080   38.5200 C   0  0  0  0  0  0  0  0  0  0  0  0
   36.3830   27.0190   37.6180 C   0  0  0  0  0  0  0  0  0  0  0  0
   37.4210   27.7920   38.4240 C   0  0  2  0  0  0  0  0  0  0  0  0
   38.7370   29.4850   42.4720 C   0  0  0  0  0  0  0  0  0  0  0  0
   38.0150   29.3150   41.2450 C   0  0  0  0  0  0  0  0  0  0  0  0
   37.7020   28.0270   40.9090 C   0  0  0  0  0  0  0  0  0  0  0  0
   38.0990   27.0140   41.7630 N   0  0  0  0  0  0  0  0  0  0  0  0
   38.7670   27.2250   42.8940 C   0  0  0  0  0  0  0  0  0  0  0  0
   39.0850   28.4790   43.2440 N   0  0  0  0  0  0  0  0  0  0  0  0
   37.6880   30.4290   40.4310 N   0  0  0  0  0  0  0  0  0  0  0  0
   36.7270   31.4040   40.7480 C   0  0  0  0  0  0  0  0  0  0  0  0
   35.6380   30.9350   41.3010 N   0  0  0  0  0  0  0  0  0  0  0  0
   37.0520   32.7780   40.4320 N   0  0  0  0  0  0  0  0  0  0  0  0
   34.8510   31.5480   41.5630 H   0  0  0  0  0  0  0  0  0  0  0  0
   38.8200   27.4310   38.1800 C   0  0  0  0  0  0  0  0  0  0  0  0
   39.2140   27.1900   36.9040 F   0  0  0  0  0  0  0  0  0  0  0  0
   39.6350   28.4910   38.6200 F   0  0  0  0  0  0  0  0  0  0  0  0
   39.1780   26.3730   39.0350 F   0  0  0  0  0  0  0  0  0  0  0  0
   35.9887   28.1893   40.0072 H   0  0  0  0  0  0  0  0  0  0  0  0
   37.6407   25.5568   39.8445 H   0  0  0  0  0  0  0  0  0  0  0  0
   36.1555   25.7153   40.7262 H   0  0  0  0  0  0  0  0  0  0  0  0
   36.1825   24.9326   38.0769 H   0  0  0  0  0  0  0  0  0  0  0  0
   34.8437   25.9315   38.6714 H   0  0  0  0  0  0  0  0  0  0  0  0
   35.5359   27.6696   37.3551 H   0  0  0  0  0  0  0  0  0  0  0  0
   36.7963   26.6390   36.6721 H   0  0  0  0  0  0  0  0  0  0  0  0
   37.5146   28.8534   38.1509 H   0  0  0  0  0  0  0  0  0  0  0  0
   39.0125   30.5039   42.7818 H   0  0  0  0  0  0  0  0  0  0  0  0
   39.0553   26.3790   43.5352 H   0  0  0  0  0  0  0  0  0  0  0  0
   38.1934   30.5314   39.5394 H   0  0  0  0  0  0  0  0  0  0  0  0
   36.3796   33.5284   40.6455 H   0  0  0  0  0  0  0  0  0  0  0  0
   37.9558   33.0057   39.9936 H   0  0  0  0  0  0  0  0  0  0  0  0
  1  2  1  0
  1  8  1  0
  3  2  1  0
  4  5  1  0
  4  3  1  0
  5  1  1  0
  6 11  2  0
  7  6  1  0
  8  7  2  0
  8  9  1  0
  9 10  2  0
 10 11  1  0
 12 13  1  0
 12  7  1  0
 13 14  2  0
 14 16  1  0
 15 13  1  0
 17  5  1  0
 17 19  1  0
 17 20  1  0
 18 17  1  0
  1 21  1  6
  2 22  1  0
  2 23  1  0
  3 24  1  0
  3 25  1  0
  4 26  1  0
  4 27  1  0
  5 28  1  6
  6 29  1  0
 10 30  1  0
 12 31  1  0
 15 32  1  0
 15 33  1  0
M  ISO  8  21  13  22  13  23  13  24  13  25  13  26  13  27  13  28  13
M  ISO  2  29  14  30  14
M  END
>  <minimizedAffinity>  (1) 
-4.82756853

>  <minimizedRMSD>  (1) 
0.517636418

$$$$
