
     RDKit          3D

 33 34  0  0  1  0  0  0  0  0999 V2000
   38.4460   29.3310   42.7070 C   0  0  0  0  0  0  0  0  0  0  0  0
   37.8770   29.1730   41.4000 C   0  0  0  0  0  0  0  0  0  0  0  0
   37.5900   27.8920   41.0270 C   0  0  0  0  0  0  0  0  0  0  0  0
   37.8660   26.8730   41.9230 N   0  0  0  0  0  0  0  0  0  0  0  0
   38.3930   27.0720   43.1260 C   0  0  0  0  0  0  0  0  0  0  0  0
   38.6850   28.3210   43.5150 N   0  0  0  0  0  0  0  0  0  0  0  0
   36.8970   27.4510   39.8580 C   0  0  2  0  0  0  0  0  0  0  0  0
   36.6060   25.9920   39.8810 C   0  0  0  0  0  0  0  0  0  0  0  0
   36.0150   25.7800   38.4900 C   0  0  0  0  0  0  0  0  0  0  0  0
   36.6730   26.8270   37.6160 C   0  0  0  0  0  0  0  0  0  0  0  0
   37.6560   27.5590   38.5410 C   0  0  2  0  0  0  0  0  0  0  0  0
   39.0190   27.0200   38.5380 C   0  0  0  0  0  0  0  0  0  0  0  0
   37.6710   30.2910   40.5520 N   0  0  0  0  0  0  0  0  0  0  0  0
   36.7420   31.3180   40.7900 C   0  0  0  0  0  0  0  0  0  0  0  0
   35.5970   30.9160   41.2640 N   0  0  0  0  0  0  0  0  0  0  0  0
   37.1690   32.6680   40.4870 N   0  0  0  0  0  0  0  0  0  0  0  0
   34.8280   31.5750   41.4690 H   0  0  0  0  0  0  0  0  0  0  0  0
   38.6946   30.3460   43.0503 H   0  0  0  0  0  0  0  0  0  0  0  0
   38.5876   26.2212   43.7955 H   0  0  0  0  0  0  0  0  0  0  0  0
   36.0230   28.1180   39.8919 H   0  0  0  0  0  0  0  0  0  0  0  0
   37.5230   25.4012   40.0227 H   0  0  0  0  0  0  0  0  0  0  0  0
   35.9452   25.6785   40.7026 H   0  0  0  0  0  0  0  0  0  0  0  0
   36.2466   24.7695   38.1223 H   0  0  0  0  0  0  0  0  0  0  0  0
   34.9190   25.8738   38.4900 H   0  0  0  0  0  0  0  0  0  0  0  0
   37.2090   26.3519   36.7811 H   0  0  0  0  0  0  0  0  0  0  0  0
   35.9379   27.5129   37.1698 H   0  0  0  0  0  0  0  0  0  0  0  0
   37.8913   28.5927   38.2476 H   0  0  0  0  0  0  0  0  0  0  0  0
   39.3619   26.8844   39.5743 H   0  0  0  0  0  0  0  0  0  0  0  0
   39.0287   26.0503   38.0187 H   0  0  0  0  0  0  0  0  0  0  0  0
   39.6893   27.7208   38.0187 H   0  0  0  0  0  0  0  0  0  0  0  0
   38.2446   30.3548   39.6989 H   0  0  0  0  0  0  0  0  0  0  0  0
   36.5272   33.4584   40.6428 H   0  0  0  0  0  0  0  0  0  0  0  0
   38.1146   32.8379   40.1156 H   0  0  0  0  0  0  0  0  0  0  0  0
  1  6  2  0
  2  1  1  0
  3  2  2  0
  3  4  1  0
  4  5  2  0
  5  6  1  0
  7  8  1  0
  7  3  1  0
  9  8  1  0
 10  9  1  0
 10 11  1  0
 11  7  1  0
 12 11  1  0
 13 14  1  0
 13  2  1  0
 14 15  2  0
 15 17  1  0
 16 14  1  0
  1 18  1  0
  5 19  1  0
  7 20  1  6
  8 21  1  0
  8 22  1  0
  9 23  1  0
  9 24  1  0
 10 25  1  0
 10 26  1  0
 11 27  1  6
 12 28  1  0
 12 29  1  0
 12 30  1  0
 13 31  1  0
 16 32  1  0
 16 33  1  0
M  ISO  8  18  14  19  14  20  13  21  13  22  13  23  13  24  13  25  13
M  ISO  5  26  13  27  13  28   8  29   8  30   8
M  END
>  <minimizedAffinity>  (1) 
-4.79482365

>  <minimizedRMSD>  (1) 
0.0876572356

$$$$
