
     RDKit          3D

 32 33  0  0  1  0  0  0  0  0999 V2000
   38.6750   29.5380   42.4040 C   0  0  0  0  0  0  0  0  0  0  0  0
   38.0540   29.3750   41.1010 C   0  0  0  0  0  0  0  0  0  0  0  0
   37.8820   28.0820   40.7140 C   0  0  0  0  0  0  0  0  0  0  0  0
   38.2980   27.0730   41.5610 N   0  0  0  0  0  0  0  0  0  0  0  0
   38.8590   27.2690   42.7430 C   0  0  0  0  0  0  0  0  0  0  0  0
   39.0500   28.5310   43.1690 N   0  0  0  0  0  0  0  0  0  0  0  0
   37.1980   27.6360   39.5450 C   0  0  2  0  0  0  0  0  0  0  0  0
   36.5450   26.3000   39.7660 C   0  0  0  0  0  0  0  0  0  0  0  0
   35.9990   26.0010   38.3800 C   0  0  0  0  0  0  0  0  0  0  0  0
   36.8890   26.7260   37.4310 C   0  0  0  0  0  0  0  0  0  0  0  0
   38.0300   27.3170   38.3310 C   0  0  1  0  0  0  0  0  0  0  0  0
   38.7360   28.3450   37.6330 C   0  0  0  0  0  0  0  0  0  0  0  0
   39.0090   28.1670   36.4530 O   0  0  0  0  0  0  0  0  0  0  0  0
   37.7480   30.5100   40.3540 N   0  0  0  0  0  0  0  0  0  0  0  0
   36.7170   31.4410   40.7000 C   0  0  0  0  0  0  0  0  0  0  0  0
   35.6560   30.9450   41.2600 N   0  0  0  0  0  0  0  0  0  0  0  0
   36.9770   32.8330   40.4010 N   0  0  0  0  0  0  0  0  0  0  0  0
   34.8700   31.5400   41.5550 H   0  0  0  0  0  0  0  0  0  0  0  0
   38.8422   30.5603   42.7741 H   0  0  0  0  0  0  0  0  0  0  0  0
   39.1639   26.4155   43.3664 H   0  0  0  0  0  0  0  0  0  0  0  0
   36.5416   28.5009   39.3686 H   0  0  0  0  0  0  0  0  0  0  0  0
   37.2765   25.5419   40.0825 H   0  0  0  0  0  0  0  0  0  0  0  0
   35.7835   26.2972   40.5598 H   0  0  0  0  0  0  0  0  0  0  0  0
   36.0271   24.9194   38.1819 H   0  0  0  0  0  0  0  0  0  0  0  0
   34.9513   26.3207   38.2788 H   0  0  0  0  0  0  0  0  0  0  0  0
   36.3396   27.5315   36.9218 H   0  0  0  0  0  0  0  0  0  0  0  0
   37.2797   26.0684   36.6405 H   0  0  0  0  0  0  0  0  0  0  0  0
   38.8986   26.7042   38.6139 H   0  0  0  0  0  0  0  0  0  0  0  0
   39.0273   29.2745   38.1441 H   0  0  0  0  0  0  0  0  0  0  0  0
   38.2966   30.6904   39.5011 H   0  0  0  0  0  0  0  0  0  0  0  0
   36.2718   33.5488   40.6274 H   0  0  0  0  0  0  0  0  0  0  0  0
   37.8672   33.1078   39.9618 H   0  0  0  0  0  0  0  0  0  0  0  0
  1  6  2  0
  2  1  1  0
  3  2  2  0
  3  4  1  0
  4  5  2  0
  5  6  1  0
  7  8  1  0
  7  3  1  0
  9  8  1  0
 10 11  1  0
 10  9  1  0
 11  7  1  0
 12 11  1  0
 13 12  2  0
 14 15  1  0
 14  2  1  0
 15 16  2  0
 16 18  1  0
 17 15  1  0
  1 19  1  0
  5 20  1  0
  7 21  1  6
  8 22  1  0
  8 23  1  0
  9 24  1  0
  9 25  1  0
 10 26  1  0
 10 27  1  0
 11 28  1  1
 12 29  1  0
 14 30  1  0
 17 31  1  0
 17 32  1  0
M  ISO  8  19  14  20  14  21  13  22  13  23  13  24  13  25  13  26  13
M  ISO  3  27  13  28  13  29   6
M  END
>  <minimizedAffinity>  (1) 
-4.65405893

>  <minimizedRMSD>  (1) 
0.442403048

$$$$
