
     RDKit          3D

 32 34  0  0  0  0  0  0  0  0999 V2000
   39.5180   27.8840   43.3140 C   0  0  0  0  0  0  0  0  0  0  0  0
   38.8350   26.6460   43.3310 C   0  0  0  0  0  0  0  0  0  0  0  0
   37.8850   26.4190   42.3280 C   0  0  0  0  0  0  0  0  0  0  0  0
   37.6700   27.3790   41.4080 N   0  0  0  0  0  0  0  0  0  0  0  0
   38.3300   28.5490   41.4110 C   0  0  0  0  0  0  0  0  0  0  0  0
   39.2510   28.8000   42.3620 N   0  0  0  0  0  0  0  0  0  0  0  0
   37.1290   25.2340   42.2210 N   0  0  0  0  0  0  0  0  0  0  0  0
   38.1180   29.5780   40.4460 N   0  0  0  0  0  0  0  0  0  0  0  0
   37.3210   29.2560   39.4000 C   0  0  0  0  0  0  0  0  0  0  0  0
   36.9950   30.1100   38.3670 C   0  0  0  0  0  0  0  0  0  0  0  0
   37.5370   31.3820   38.4340 C   0  0  0  0  0  0  0  0  0  0  0  0
   37.2850   32.2110   37.5300 O   0  0  0  0  0  0  0  0  0  0  0  0
   38.3240   31.6810   39.4790 N   0  0  0  0  0  0  0  0  0  0  0  0
   38.6240   30.8280   40.4710 C   0  0  0  0  0  0  0  0  0  0  0  0
   39.3570   31.0920   41.4550 O   0  0  0  0  0  0  0  0  0  0  0  0
   38.9100   32.9710   39.6030 C   0  0  0  0  0  0  0  0  0  0  0  0
   38.1790   34.0510   40.1050 C   0  0  0  0  0  0  0  0  0  0  0  0
   38.9510   35.1910   40.1320 C   0  0  0  0  0  0  0  0  0  0  0  0
   40.1420   34.7790   39.6430 N   0  0  0  0  0  0  0  0  0  0  0  0
   40.1210   33.4950   39.3360 N   0  0  0  0  0  0  0  0  0  0  0  0
   36.1100   29.6760   37.2510 C   0  0  0  0  0  0  0  0  0  0  0  0
   40.2732   28.1012   44.0838 H   0  0  0  0  0  0  0  0  0  0  0  0
   39.0422   25.8901   44.1028 H   0  0  0  0  0  0  0  0  0  0  0  0
   36.4442   25.1270   41.4591 H   0  0  0  0  0  0  0  0  0  0  0  0
   37.2614   24.4752   42.9048 H   0  0  0  0  0  0  0  0  0  0  0  0
   36.9028   28.2390   39.3719 H   0  0  0  0  0  0  0  0  0  0  0  0
   37.1306   33.9978   40.4336 H   0  0  0  0  0  0  0  0  0  0  0  0
   38.6661   36.1979   40.4710 H   0  0  0  0  0  0  0  0  0  0  0  0
   40.9628   35.3900   39.5247 H   0  0  0  0  0  0  0  0  0  0  0  0
   35.1942   29.2269   37.6627 H   0  0  0  0  0  0  0  0  0  0  0  0
   35.8456   30.5466   36.6329 H   0  0  0  0  0  0  0  0  0  0  0  0
   36.6365   28.9339   36.6329 H   0  0  0  0  0  0  0  0  0  0  0  0
  1  2  2  0
  3  2  1  0
  4  5  1  0
  4  3  2  0
  5  6  2  0
  6  1  1  0
  7  3  1  0
  8 14  1  0
  8  5  1  0
  9  8  1  0
 10 11  1  0
 10  9  2  0
 11 13  1  0
 12 11  2  0
 13 16  1  0
 13 14  1  0
 14 15  2  0
 16 17  1  0
 17 18  2  0
 19 18  1  0
 20 16  2  0
 20 19  1  0
 21 10  1  0
  1 22  1  0
  2 23  1  0
  7 24  1  0
  7 25  1  0
  9 26  1  0
 17 27  1  0
 18 28  1  0
 19 29  1  0
 21 30  1  0
 21 31  1  0
 21 32  1  0
M  ISO  8  22  14  23  14  26  14  27  14  28  14  29   9  30   8  31   8
M  ISO  1  32   8
M  END
>  <minimizedAffinity>  (1) 
-6.08938837

>  <minimizedRMSD>  (1) 
1.40856636

$$$$
