
     RDKit          3D

 32 34  0  0  0  0  0  0  0  0999 V2000
   38.1730   27.9780   43.5430 C   0  0  0  0  0  0  0  0  0  0  0  0
   37.7810   26.6410   43.2950 C   0  0  0  0  0  0  0  0  0  0  0  0
   37.3470   26.3380   42.0010 C   0  0  0  0  0  0  0  0  0  0  0  0
   37.3240   27.3100   41.0750 N   0  0  0  0  0  0  0  0  0  0  0  0
   37.7010   28.5820   41.3300 C   0  0  0  0  0  0  0  0  0  0  0  0
   38.1270   28.9170   42.5670 N   0  0  0  0  0  0  0  0  0  0  0  0
   36.9320   25.0520   41.6220 N   0  0  0  0  0  0  0  0  0  0  0  0
   37.6820   29.6180   40.3640 N   0  0  0  0  0  0  0  0  0  0  0  0
   37.1990   29.2890   39.1510 C   0  0  0  0  0  0  0  0  0  0  0  0
   37.0970   30.1500   38.0780 C   0  0  0  0  0  0  0  0  0  0  0  0
   37.5330   31.4500   38.3000 C   0  0  0  0  0  0  0  0  0  0  0  0
   37.4790   32.3040   37.3870 O   0  0  0  0  0  0  0  0  0  0  0  0
   38.0090   31.7580   39.5140 N   0  0  0  0  0  0  0  0  0  0  0  0
   38.0980   30.8920   40.5470 C   0  0  0  0  0  0  0  0  0  0  0  0
   38.5380   31.1650   41.6800 O   0  0  0  0  0  0  0  0  0  0  0  0
   38.4760   33.0660   39.8250 C   0  0  0  0  0  0  0  0  0  0  0  0
   39.8010   33.2980   39.4480 C   0  0  0  0  0  0  0  0  0  0  0  0
   40.1070   34.5740   39.8030 N   0  0  0  0  0  0  0  0  0  0  0  0
   39.0070   35.1010   40.3760 C   0  0  0  0  0  0  0  0  0  0  0  0
   38.0150   34.1960   40.3940 N   0  0  0  0  0  0  0  0  0  0  0  0
   36.5520   29.7050   36.7680 C   0  0  0  0  0  0  0  0  0  0  0  0
   38.5217   28.2604   44.5473 H   0  0  0  0  0  0  0  0  0  0  0  0
   37.8162   25.8754   44.0841 H   0  0  0  0  0  0  0  0  0  0  0  0
   36.6200   24.8752   40.6564 H   0  0  0  0  0  0  0  0  0  0  0  0
   36.9394   24.2850   42.3094 H   0  0  0  0  0  0  0  0  0  0  0  0
   36.8593   28.2531   39.0042 H   0  0  0  0  0  0  0  0  0  0  0  0
   40.4730   32.5803   38.9547 H   0  0  0  0  0  0  0  0  0  0  0  0
   38.9324   36.1246   40.7718 H   0  0  0  0  0  0  0  0  0  0  0  0
   37.0692   34.3406   40.7754 H   0  0  0  0  0  0  0  0  0  0  0  0
   35.7099   29.0174   36.9357 H   0  0  0  0  0  0  0  0  0  0  0  0
   36.2034   30.5799   36.1996 H   0  0  0  0  0  0  0  0  0  0  0  0
   37.3395   29.1885   36.1996 H   0  0  0  0  0  0  0  0  0  0  0  0
  2  1  2  0
  3  2  1  0
  4  5  1  0
  4  3  2  0
  5  6  2  0
  6  1  1  0
  7  3  1  0
  8 14  1  0
  8  5  1  0
  9  8  1  0
 10 11  1  0
 10  9  2  0
 11 13  1  0
 12 11  2  0
 13 16  1  0
 13 14  1  0
 14 15  2  0
 16 20  1  0
 17 18  1  0
 17 16  2  0
 18 19  2  0
 19 20  1  0
 21 10  1  0
  1 22  1  0
  2 23  1  0
  7 24  1  0
  7 25  1  0
  9 26  1  0
 17 27  1  0
 19 28  1  0
 20 29  1  0
 21 30  1  0
 21 31  1  0
 21 32  1  0
M  ISO  8  22  14  23  14  26  14  27  14  28  14  29   9  30   8  31   8
M  ISO  1  32   8
M  END
>  <minimizedAffinity>  (1) 
-5.73399019

>  <minimizedRMSD>  (1) 
1.14513505

$$$$
