
     RDKit          3D

 32 34  0  0  0  0  0  0  0  0999 V2000
   38.7460   27.9520   43.4880 C   0  0  0  0  0  0  0  0  0  0  0  0
   38.2310   26.6530   43.3420 C   0  0  0  0  0  0  0  0  0  0  0  0
   37.5870   26.3720   42.1270 C   0  0  0  0  0  0  0  0  0  0  0  0
   37.5040   27.3360   41.2000 N   0  0  0  0  0  0  0  0  0  0  0  0
   38.0050   28.5680   41.3640 C   0  0  0  0  0  0  0  0  0  0  0  0
   38.6270   28.8730   42.5140 N   0  0  0  0  0  0  0  0  0  0  0  0
   37.0190   25.1110   41.8330 N   0  0  0  0  0  0  0  0  0  0  0  0
   37.9240   29.5990   40.3900 N   0  0  0  0  0  0  0  0  0  0  0  0
   37.2790   29.2810   39.2490 C   0  0  0  0  0  0  0  0  0  0  0  0
   37.0940   30.1520   38.1790 C   0  0  0  0  0  0  0  0  0  0  0  0
   37.6220   31.4180   38.3310 C   0  0  0  0  0  0  0  0  0  0  0  0
   37.4970   32.2560   37.4120 O   0  0  0  0  0  0  0  0  0  0  0  0
   38.2590   31.7100   39.4730 N   0  0  0  0  0  0  0  0  0  0  0  0
   38.4260   30.8530   40.4980 C   0  0  0  0  0  0  0  0  0  0  0  0
   39.0170   31.1110   41.5690 O   0  0  0  0  0  0  0  0  0  0  0  0
   38.8280   32.9960   39.7010 C   0  0  0  0  0  0  0  0  0  0  0  0
   38.1010   34.0770   40.1560 C   0  0  0  0  0  0  0  0  0  0  0  0
   38.9650   35.1480   40.2600 C   0  0  0  0  0  0  0  0  0  0  0  0
   40.1980   34.6740   39.8600 C   0  0  0  0  0  0  0  0  0  0  0  0
   40.0620   33.4170   39.5450 O   0  0  0  0  0  0  0  0  0  0  0  0
   36.3690   29.7150   36.9560 C   0  0  0  0  0  0  0  0  0  0  0  0
   39.2596   28.2231   44.4222 H   0  0  0  0  0  0  0  0  0  0  0  0
   38.3272   25.8979   44.1361 H   0  0  0  0  0  0  0  0  0  0  0  0
   36.5564   24.9533   40.9263 H   0  0  0  0  0  0  0  0  0  0  0  0
   37.0678   24.3501   42.5255 H   0  0  0  0  0  0  0  0  0  0  0  0
   36.8711   28.2635   39.1577 H   0  0  0  0  0  0  0  0  0  0  0  0
   37.0269   34.0838   40.3930 H   0  0  0  0  0  0  0  0  0  0  0  0
   38.7215   36.1678   40.5927 H   0  0  0  0  0  0  0  0  0  0  0  0
   41.1310   35.2550   39.8151 H   0  0  0  0  0  0  0  0  0  0  0  0
   35.4599   29.1671   37.2448 H   0  0  0  0  0  0  0  0  0  0  0  0
   36.0918   30.5966   36.3594 H   0  0  0  0  0  0  0  0  0  0  0  0
   37.0191   29.0582   36.3594 H   0  0  0  0  0  0  0  0  0  0  0  0
  2  1  2  0
  3  2  1  0
  4  5  1  0
  4  3  2  0
  5  6  2  0
  6  1  1  0
  7  3  1  0
  8 14  1  0
  8  5  1  0
  9  8  1  0
 10 11  1  0
 10  9  2  0
 11 13  1  0
 12 11  2  0
 13 16  1  0
 13 14  1  0
 14 15  2  0
 16 17  2  0
 17 18  1  0
 19 18  2  0
 20 16  1  0
 20 19  1  0
 21 10  1  0
  1 22  1  0
  2 23  1  0
  7 24  1  0
  7 25  1  0
  9 26  1  0
 17 27  1  0
 18 28  1  0
 19 29  1  0
 21 30  1  0
 21 31  1  0
 21 32  1  0
M  ISO  8  22  14  23  14  26  14  27  14  28  14  29  14  30   8  31   8
M  ISO  1  32   8
M  END
>  <minimizedAffinity>  (1) 
-5.64388752

>  <minimizedRMSD>  (1) 
1.13067579

$$$$
