
     RDKit          3D

 36 37  0  0  0  0  0  0  0  0999 V2000
   39.9920   32.5830   40.3430 C   0  0  0  0  0  0  0  0  0  0  0  0
   39.8920   33.9180   40.7580 C   0  0  0  0  0  0  0  0  0  0  0  0
   40.7290   34.6940   39.9460 C   0  0  0  0  0  0  0  0  0  0  0  0
   41.2800   33.7700   39.0910 C   0  0  0  0  0  0  0  0  0  0  0  0
   40.8360   32.5890   39.3510 O   0  0  0  0  0  0  0  0  0  0  0  0
   40.8620   36.1180   40.1170 C   0  0  0  0  0  0  0  0  0  0  0  0
   40.1440   37.0060   39.5440 O   0  0  0  0  0  0  0  0  0  0  0  0
   41.8250   36.7460   40.9620 N   0  0  0  0  0  0  0  0  0  0  0  0
   41.6410   37.0780   42.3260 C   0  0  0  0  0  0  0  0  0  0  0  0
   40.5040   36.7890   42.8610 N   0  0  0  0  0  0  0  0  0  0  0  0
   42.6910   37.7120   43.0760 N   0  0  0  0  0  0  0  0  0  0  0  0
   40.3710   37.0340   43.8660 H   0  0  0  0  0  0  0  0  0  0  0  0
   37.5270   29.9970   41.3350 C   0  0  0  0  0  0  0  0  0  0  0  0
   38.3360   29.1190   42.1490 C   0  0  0  0  0  0  0  0  0  0  0  0
   39.6520   29.5280   42.2600 C   0  0  0  0  0  0  0  0  0  0  0  0
   40.1260   30.6390   41.6630 N   0  0  0  0  0  0  0  0  0  0  0  0
   39.3000   31.4340   40.9000 C   0  0  0  0  0  0  0  0  0  0  0  0
   38.0390   31.0930   40.7600 N   0  0  0  0  0  0  0  0  0  0  0  0
   37.7540   27.9740   42.7360 N   0  0  0  0  0  0  0  0  0  0  0  0
   36.8530   28.0190   43.8210 C   0  0  0  0  0  0  0  0  0  0  0  0
   37.1060   28.9140   44.7490 N   0  0  0  0  0  0  0  0  0  0  0  0
   35.7660   27.0770   43.7750 N   0  0  0  0  0  0  0  0  0  0  0  0
   36.5270   28.9900   45.5900 H   0  0  0  0  0  0  0  0  0  0  0  0
   42.2520   34.1540   38.0330 C   0  0  0  0  0  0  0  0  0  0  0  0
   42.0200   33.3960   36.8910 F   0  0  0  0  0  0  0  0  0  0  0  0
   42.1060   35.4910   37.7400 F   0  0  0  0  0  0  0  0  0  0  0  0
   43.5470   33.8660   38.4210 F   0  0  0  0  0  0  0  0  0  0  0  0
   39.2641   34.2921   41.5801 H   0  0  0  0  0  0  0  0  0  0  0  0
   42.7361   36.9788   40.5418 H   0  0  0  0  0  0  0  0  0  0  0  0
   42.5449   37.9486   44.0678 H   0  0  0  0  0  0  0  0  0  0  0  0
   43.5893   37.9296   42.6216 H   0  0  0  0  0  0  0  0  0  0  0  0
   36.4637   29.7593   41.1837 H   0  0  0  0  0  0  0  0  0  0  0  0
   40.3426   28.9195   42.8623 H   0  0  0  0  0  0  0  0  0  0  0  0
   38.0017   27.0520   42.3495 H   0  0  0  0  0  0  0  0  0  0  0  0
   35.0710   27.0551   44.5349 H   0  0  0  0  0  0  0  0  0  0  0  0
   35.6830   26.4247   42.9822 H   0  0  0  0  0  0  0  0  0  0  0  0
  1  2  2  0
  1 17  1  0
  3  6  1  0
  3  2  1  0
  4  5  1  0
  4  3  2  0
  5  1  1  0
  6  8  1  0
  7  6  2  0
  8  9  1  0
  9 10  2  0
  9 11  1  0
 10 12  1  0
 13 14  2  0
 14 15  1  0
 14 19  1  0
 16 15  2  0
 17 16  1  0
 18 17  2  0
 18 13  1  0
 19 20  1  0
 20 21  2  0
 21 23  1  0
 22 20  1  0
 24 27  1  0
 24  4  1  0
 25 24  1  0
 26 24  1  0
  2 28  1  0
  8 29  1  0
 11 30  1  0
 11 31  1  0
 13 32  1  0
 15 33  1  0
 19 34  1  0
 22 35  1  0
 22 36  1  0
M  ISO  3  28  14  32  14  33  14
M  END
>  <minimizedAffinity>  (1) 
-6.10115147

>  <minimizedRMSD>  (1) 
0.700419426

$$$$
