
     RDKit          3D

 45 48  0  0  0  0  0  0  0  0999 V2000
   42.4170   28.8840   43.3100 C   0  0  0  0  0  0  0  0  0  0  0  0
   41.8660   27.6850   43.8430 C   0  0  0  0  0  0  0  0  0  0  0  0
   40.5030   27.4820   43.6520 C   0  0  0  0  0  0  0  0  0  0  0  0
   39.7830   28.4070   42.9860 N   0  0  0  0  0  0  0  0  0  0  0  0
   40.3200   29.5250   42.4930 C   0  0  0  0  0  0  0  0  0  0  0  0
   41.6380   29.7740   42.6500 N   0  0  0  0  0  0  0  0  0  0  0  0
   39.8530   26.3510   44.1270 N   0  0  0  0  0  0  0  0  0  0  0  0
   39.5780   30.5130   41.7830 N   0  0  0  0  0  0  0  0  0  0  0  0
   38.3090   30.1990   41.4850 C   0  0  0  0  0  0  0  0  0  0  0  0
   37.4220   31.0240   40.7930 C   0  0  0  0  0  0  0  0  0  0  0  0
   37.9140   32.2490   40.4010 C   0  0  0  0  0  0  0  0  0  0  0  0
   37.1800   33.0520   39.7760 O   0  0  0  0  0  0  0  0  0  0  0  0
   39.1860   32.5420   40.7100 N   0  0  0  0  0  0  0  0  0  0  0  0
   40.0160   31.7110   41.3830 C   0  0  0  0  0  0  0  0  0  0  0  0
   41.1980   31.9770   41.6730 O   0  0  0  0  0  0  0  0  0  0  0  0
   39.7590   33.7900   40.3370 C   0  0  0  0  0  0  0  0  0  0  0  0
   39.3110   34.9290   40.9680 C   0  0  0  0  0  0  0  0  0  0  0  0
   39.8350   36.1550   40.6390 C   0  0  0  0  0  0  0  0  0  0  0  0
   40.8100   36.1810   39.6650 C   0  0  0  0  0  0  0  0  0  0  0  0
   41.2630   35.0640   39.0340 C   0  0  0  0  0  0  0  0  0  0  0  0
   40.7330   33.8120   39.3640 C   0  0  0  0  0  0  0  0  0  0  0  0
   36.0340   30.5710   40.5030 C   0  0  0  0  0  0  0  0  0  0  0  0
   36.0300   29.7510   39.2880 C   0  0  0  0  0  0  0  0  0  0  0  0
   36.2760   30.0740   37.9980 C   0  0  0  0  0  0  0  0  0  0  0  0
   36.2460   29.2060   36.9370 C   0  0  0  0  0  0  0  0  0  0  0  0
   35.9340   27.9160   37.2760 C   0  0  0  0  0  0  0  0  0  0  0  0
   35.6540   27.4270   38.5610 C   0  0  0  0  0  0  0  0  0  0  0  0
   35.7200   28.4190   39.5440 C   0  0  0  0  0  0  0  0  0  0  0  0
   43.4901   29.0908   43.4357 H   0  0  0  0  0  0  0  0  0  0  0  0
   42.4879   26.9538   44.3802 H   0  0  0  0  0  0  0  0  0  0  0  0
   38.8423   26.2328   43.9677 H   0  0  0  0  0  0  0  0  0  0  0  0
   40.3815   25.6301   44.6388 H   0  0  0  0  0  0  0  0  0  0  0  0
   37.9390   29.2157   41.8111 H   0  0  0  0  0  0  0  0  0  0  0  0
   38.5299   34.8565   41.7391 H   0  0  0  0  0  0  0  0  0  0  0  0
   39.4914   37.0766   41.1315 H   0  0  0  0  0  0  0  0  0  0  0  0
   41.2430   37.1524   39.3841 H   0  0  0  0  0  0  0  0  0  0  0  0
   42.0453   35.1452   38.2650 H   0  0  0  0  0  0  0  0  0  0  0  0
   41.0773   32.8910   38.8707 H   0  0  0  0  0  0  0  0  0  0  0  0
   35.6588   29.9754   41.3483 H   0  0  0  0  0  0  0  0  0  0  0  0
   35.3862   31.4476   40.3551 H   0  0  0  0  0  0  0  0  0  0  0  0
   36.5214   31.1241   37.7811 H   0  0  0  0  0  0  0  0  0  0  0  0
   36.4544   29.5185   35.9031 H   0  0  0  0  0  0  0  0  0  0  0  0
   35.8993   27.1861   36.4537 H   0  0  0  0  0  0  0  0  0  0  0  0
   35.4088   26.3757   38.7724 H   0  0  0  0  0  0  0  0  0  0  0  0
   35.5140   28.1283   40.5847 H   0  0  0  0  0  0  0  0  0  0  0  0
  1  2  2  0
  3  2  1  0
  3  7  1  0
  4  3  2  0
  5  6  2  0
  5  4  1  0
  6  1  1  0
  8  5  1  0
  9  8  1  0
 10  9  2  0
 11 13  1  0
 11 10  1  0
 12 11  2  0
 13 14  1  0
 14 15  2  0
 14  8  1  0
 16 13  1  0
 16 17  2  0
 18 17  1  0
 19 18  2  0
 20 21  2  0
 20 19  1  0
 21 16  1  0
 22 10  1  0
 23 28  1  0
 23 22  1  0
 24 23  2  0
 25 26  2  0
 25 24  1  0
 26 27  1  0
 27 28  2  0
  1 29  1  0
  2 30  1  0
  7 31  1  0
  7 32  1  0
  9 33  1  0
 17 34  1  0
 18 35  1  0
 19 36  1  0
 20 37  1  0
 21 38  1  0
 22 39  1  0
 22 40  1  0
 24 41  1  0
 25 42  1  0
 26 43  1  0
 27 44  1  0
 28 45  1  0
M  ISO  8  29  14  30  14  33  14  34  14  35  14  36  14  37  14  38  14
M  ISO  7  39   8  40   8  41  14  42  14  43  14  44  14  45  14
M  END
>  <minimizedAffinity>  (1) 
-7.05049133

>  <minimizedRMSD>  (1) 
2.7871294

$$$$
