
     RDKit          3D

 51 55  0  0  0  0  0  0  0  0999 V2000
   39.0030   28.0480   43.4240 C   0  0  0  0  0  0  0  0  0  0  0  0
   38.3600   26.7910   43.3360 C   0  0  0  0  0  0  0  0  0  0  0  0
   37.6440   26.5350   42.1620 C   0  0  0  0  0  0  0  0  0  0  0  0
   37.6000   27.4660   41.1990 N   0  0  0  0  0  0  0  0  0  0  0  0
   38.2250   28.6580   41.3140 C   0  0  0  0  0  0  0  0  0  0  0  0
   38.9230   28.9470   42.4200 N   0  0  0  0  0  0  0  0  0  0  0  0
   36.9710   25.3370   41.9580 N   0  0  0  0  0  0  0  0  0  0  0  0
   38.1960   29.6630   40.2980 N   0  0  0  0  0  0  0  0  0  0  0  0
   37.6330   29.3110   39.1350 C   0  0  0  0  0  0  0  0  0  0  0  0
   37.5090   30.1290   38.0160 C   0  0  0  0  0  0  0  0  0  0  0  0
   38.0210   31.4010   38.1600 C   0  0  0  0  0  0  0  0  0  0  0  0
   37.9620   32.2190   37.2160 O   0  0  0  0  0  0  0  0  0  0  0  0
   38.5850   31.7360   39.3410 N   0  0  0  0  0  0  0  0  0  0  0  0
   38.6780   30.9070   40.3890 C   0  0  0  0  0  0  0  0  0  0  0  0
   39.1970   31.2040   41.4850 O   0  0  0  0  0  0  0  0  0  0  0  0
   39.1270   33.0320   39.5480 C   0  0  0  0  0  0  0  0  0  0  0  0
   38.3040   34.0110   40.0770 C   0  0  0  0  0  0  0  0  0  0  0  0
   38.8060   35.2730   40.2890 C   0  0  0  0  0  0  0  0  0  0  0  0
   40.1250   35.5000   39.9560 C   0  0  0  0  0  0  0  0  0  0  0  0
   40.9540   34.5500   39.4320 C   0  0  0  0  0  0  0  0  0  0  0  0
   40.4460   33.2750   39.2190 C   0  0  0  0  0  0  0  0  0  0  0  0
   36.9080   29.6540   36.7550 C   0  0  0  0  0  0  0  0  0  0  0  0
   36.8880   28.2070   36.5740 C   0  0  0  0  0  0  0  0  0  0  0  0
   38.1260   27.6140   36.2820 C   0  0  0  0  0  0  0  0  0  0  0  0
   38.3300   26.2880   36.0540 C   0  0  0  0  0  0  0  0  0  0  0  0
   37.2560   25.4150   36.1060 C   0  0  0  0  0  0  0  0  0  0  0  0
   36.0310   25.9490   36.3890 C   0  0  0  0  0  0  0  0  0  0  0  0
   34.8970   25.1560   36.4730 C   0  0  0  0  0  0  0  0  0  0  0  0
   33.6570   25.6820   36.7680 C   0  0  0  0  0  0  0  0  0  0  0  0
   33.4920   27.0540   36.9960 C   0  0  0  0  0  0  0  0  0  0  0  0
   34.6310   27.8080   36.9050 C   0  0  0  0  0  0  0  0  0  0  0  0
   35.8620   27.2980   36.6130 C   0  0  0  0  0  0  0  0  0  0  0  0
   39.5789   28.2976   44.3273 H   0  0  0  0  0  0  0  0  0  0  0  0
   38.4200   26.0527   44.1492 H   0  0  0  0  0  0  0  0  0  0  0  0
   36.4529   25.1801   41.0818 H   0  0  0  0  0  0  0  0  0  0  0  0
   36.9901   24.6056   42.6830 H   0  0  0  0  0  0  0  0  0  0  0  0
   37.2348   28.2885   39.0577 H   0  0  0  0  0  0  0  0  0  0  0  0
   37.2574   33.7812   40.3256 H   0  0  0  0  0  0  0  0  0  0  0  0
   38.1785   36.0729   40.7090 H   0  0  0  0  0  0  0  0  0  0  0  0
   40.5339   36.5075   40.1227 H   0  0  0  0  0  0  0  0  0  0  0  0
   41.9989   34.7887   39.1845 H   0  0  0  0  0  0  0  0  0  0  0  0
   41.0783   32.4789   38.7989 H   0  0  0  0  0  0  0  0  0  0  0  0
   35.8694   30.0144   36.7179 H   0  0  0  0  0  0  0  0  0  0  0  0
   37.5442   30.0499   35.9497 H   0  0  0  0  0  0  0  0  0  0  0  0
   39.0036   28.2754   36.2334 H   0  0  0  0  0  0  0  0  0  0  0  0
   39.3395   25.9126   35.8303 H   0  0  0  0  0  0  0  0  0  0  0  0
   37.3841   24.3372   35.9270 H   0  0  0  0  0  0  0  0  0  0  0  0
   34.9893   24.0738   36.2989 H   0  0  0  0  0  0  0  0  0  0  0  0
   32.7847   25.0143   36.8251 H   0  0  0  0  0  0  0  0  0  0  0  0
   32.5129   27.4961   37.2323 H   0  0  0  0  0  0  0  0  0  0  0  0
   34.5485   28.8912   37.0779 H   0  0  0  0  0  0  0  0  0  0  0  0
  2  1  2  0
  3  2  1  0
  4  5  1  0
  4  3  2  0
  5  6  2  0
  6  1  1  0
  7  3  1  0
  8 14  1  0
  8  5  1  0
  9  8  1  0
 10 11  1  0
 10  9  2  0
 11 13  1  0
 12 11  2  0
 13 16  1  0
 13 14  1  0
 14 15  2  0
 16 17  2  0
 17 18  1  0
 19 18  2  0
 20 19  1  0
 21 20  2  0
 21 16  1  0
 22 10  1  0
 23 32  1  0
 23 22  1  0
 24 23  2  0
 25 26  2  0
 25 24  1  0
 26 27  1  0
 27 28  1  0
 27 32  2  0
 28 29  2  0
 29 30  1  0
 31 30  2  0
 32 31  1  0
  1 33  1  0
  2 34  1  0
  7 35  1  0
  7 36  1  0
  9 37  1  0
 17 38  1  0
 18 39  1  0
 19 40  1  0
 20 41  1  0
 21 42  1  0
 22 43  1  0
 22 44  1  0
 24 45  1  0
 25 46  1  0
 26 47  1  0
 28 48  1  0
 29 49  1  0
 30 50  1  0
 31 51  1  0
M  ISO  8  33  14  34  14  37  14  38  14  39  14  40  14  41  14  42  14
M  ISO  8  43   8  44   8  45  14  46  14  47  14  48  14  49  14  50  14
M  ISO  1  51  14
M  END
>  <minimizedAffinity>  (1) 
-6.63008928

>  <minimizedRMSD>  (1) 
3.39347458

$$$$
