
     RDKit          3D

 48 51  0  0  0  0  0  0  0  0999 V2000
   39.4210   27.7680   43.3580 C   0  0  0  0  0  0  0  0  0  0  0  0
   38.7200   26.5410   43.3850 C   0  0  0  0  0  0  0  0  0  0  0  0
   37.7730   26.3360   42.3650 C   0  0  0  0  0  0  0  0  0  0  0  0
   37.5900   27.2890   41.4470 N   0  0  0  0  0  0  0  0  0  0  0  0
   38.2690   28.4450   41.4420 C   0  0  0  0  0  0  0  0  0  0  0  0
   39.1840   28.6830   42.3990 N   0  0  0  0  0  0  0  0  0  0  0  0
   37.0060   25.1680   42.2680 N   0  0  0  0  0  0  0  0  0  0  0  0
   38.0900   29.4710   40.4750 N   0  0  0  0  0  0  0  0  0  0  0  0
   37.2740   29.1820   39.4390 C   0  0  0  0  0  0  0  0  0  0  0  0
   36.9780   30.0400   38.4080 C   0  0  0  0  0  0  0  0  0  0  0  0
   37.5640   31.2850   38.4460 C   0  0  0  0  0  0  0  0  0  0  0  0
   37.3440   32.1230   37.5430 O   0  0  0  0  0  0  0  0  0  0  0  0
   38.3750   31.5590   39.4870 N   0  0  0  0  0  0  0  0  0  0  0  0
   38.6390   30.6920   40.4740 C   0  0  0  0  0  0  0  0  0  0  0  0
   39.3940   30.9390   41.4460 O   0  0  0  0  0  0  0  0  0  0  0  0
   39.0170   32.8200   39.5980 C   0  0  0  0  0  0  0  0  0  0  0  0
   38.3250   33.8600   40.2020 C   0  0  0  0  0  0  0  0  0  0  0  0
   38.9240   35.0930   40.3210 C   0  0  0  0  0  0  0  0  0  0  0  0
   40.2010   35.2240   39.8230 C   0  0  0  0  0  0  0  0  0  0  0  0
   40.8970   34.2150   39.2250 C   0  0  0  0  0  0  0  0  0  0  0  0
   40.2960   32.9670   39.1030 C   0  0  0  0  0  0  0  0  0  0  0  0
   36.0620   29.6410   37.2950 C   0  0  0  0  0  0  0  0  0  0  0  0
   36.1700   28.2530   36.9780 N   0  0  0  0  0  0  0  0  0  0  0  0
   35.6200   27.2160   37.6380 C   0  0  0  0  0  0  0  0  0  0  0  0
   35.8360   25.9330   37.1810 C   0  0  0  0  0  0  0  0  0  0  0  0
   35.2240   24.7950   37.9180 C   0  0  0  0  0  0  0  0  0  0  0  0
   36.5910   25.6590   36.0730 C   0  0  0  0  0  0  0  0  0  0  0  0
   36.7980   24.4940   35.6410 O   0  0  0  0  0  0  0  0  0  0  0  0
   37.1290   26.7040   35.4300 N   0  0  0  0  0  0  0  0  0  0  0  0
   36.9180   27.9570   35.8770 C   0  0  0  0  0  0  0  0  0  0  0  0
   37.4730   28.8690   35.1950 O   0  0  0  0  0  0  0  0  0  0  0  0
   40.1725   27.9789   44.1331 H   0  0  0  0  0  0  0  0  0  0  0  0
   38.9052   25.7857   44.1630 H   0  0  0  0  0  0  0  0  0  0  0  0
   36.3241   25.0617   41.5034 H   0  0  0  0  0  0  0  0  0  0  0  0
   37.1239   24.4154   42.9612 H   0  0  0  0  0  0  0  0  0  0  0  0
   36.8113   28.1842   39.4190 H   0  0  0  0  0  0  0  0  0  0  0  0
   37.3055   33.7000   40.5827 H   0  0  0  0  0  0  0  0  0  0  0  0
   38.4042   35.9390   40.7944 H   0  0  0  0  0  0  0  0  0  0  0  0
   40.6909   36.2047   39.9132 H   0  0  0  0  0  0  0  0  0  0  0  0
   41.9155   34.3854   38.8460 H   0  0  0  0  0  0  0  0  0  0  0  0
   40.8224   32.1260   38.6281 H   0  0  0  0  0  0  0  0  0  0  0  0
   35.0258   29.8562   37.5948 H   0  0  0  0  0  0  0  0  0  0  0  0
   36.3477   30.2145   36.4009 H   0  0  0  0  0  0  0  0  0  0  0  0
   35.0045   27.3906   38.5328 H   0  0  0  0  0  0  0  0  0  0  0  0
   35.3165   24.9670   39.0005 H   0  0  0  0  0  0  0  0  0  0  0  0
   34.1604   24.7136   37.6492 H   0  0  0  0  0  0  0  0  0  0  0  0
   35.7425   23.8628   37.6492 H   0  0  0  0  0  0  0  0  0  0  0  0
   37.7059   26.5487   34.5910 H   0  0  0  0  0  0  0  0  0  0  0  0
  1  2  2  0
  3  2  1  0
  4  3  2  0
  5  4  1  0
  5  6  2  0
  6  1  1  0
  7  3  1  0
  8  5  1  0
  9  8  1  0
 10 11  1  0
 10  9  2  0
 11 13  1  0
 12 11  2  0
 13 16  1  0
 13 14  1  0
 14  8  1  0
 14 15  2  0
 16 17  2  0
 17 18  1  0
 19 18  2  0
 20 19  1  0
 21 20  2  0
 21 16  1  0
 22 10  1  0
 23 22  1  0
 23 24  1  0
 25 24  2  0
 25 26  1  0
 27 25  1  0
 28 27  2  0
 29 30  1  0
 29 27  1  0
 30 23  1  0
 31 30  2  0
  1 32  1  0
  2 33  1  0
  7 34  1  0
  7 35  1  0
  9 36  1  0
 17 37  1  0
 18 38  1  0
 19 39  1  0
 20 40  1  0
 21 41  1  0
 22 42  1  0
 22 43  1  0
 24 44  1  0
 26 45  1  0
 26 46  1  0
 26 47  1  0
 29 48  1  0
M  ISO  8  32  14  33  14  36  14  37  14  38  14  39  14  40  14  41  14
M  ISO  7  42   8  43   8  44  14  45   8  46   8  47   8  48   9
M  END
>  <minimizedAffinity>  (1) 
-6.57716513

>  <minimizedRMSD>  (1) 
1.338395

$$$$
