
     RDKit          3D

 46 49  0  0  0  0  0  0  0  0999 V2000
   38.9650   27.9190   43.2680 C   0  0  0  0  0  0  0  0  0  0  0  0
   38.3670   26.6490   43.1470 C   0  0  0  0  0  0  0  0  0  0  0  0
   37.7040   26.4010   41.9310 C   0  0  0  0  0  0  0  0  0  0  0  0
   37.6760   27.3430   40.9910 N   0  0  0  0  0  0  0  0  0  0  0  0
   38.2570   28.5400   41.1440 C   0  0  0  0  0  0  0  0  0  0  0  0
   38.9080   28.8340   42.2890 N   0  0  0  0  0  0  0  0  0  0  0  0
   37.0640   25.1840   41.6710 N   0  0  0  0  0  0  0  0  0  0  0  0
   38.2400   29.5690   40.1370 N   0  0  0  0  0  0  0  0  0  0  0  0
   37.7230   29.2270   38.9460 C   0  0  0  0  0  0  0  0  0  0  0  0
   37.6190   30.0630   37.8570 C   0  0  0  0  0  0  0  0  0  0  0  0
   38.0960   31.3500   38.0410 C   0  0  0  0  0  0  0  0  0  0  0  0
   38.0410   32.1840   37.1000 O   0  0  0  0  0  0  0  0  0  0  0  0
   38.6060   31.6710   39.2350 N   0  0  0  0  0  0  0  0  0  0  0  0
   38.6890   30.8210   40.2760 C   0  0  0  0  0  0  0  0  0  0  0  0
   39.1650   31.1130   41.3950 O   0  0  0  0  0  0  0  0  0  0  0  0
   39.1140   32.9790   39.4880 C   0  0  0  0  0  0  0  0  0  0  0  0
   38.2750   33.9200   40.0300 C   0  0  0  0  0  0  0  0  0  0  0  0
   38.7580   35.1870   40.2750 C   0  0  0  0  0  0  0  0  0  0  0  0
   40.0740   35.4500   39.9620 C   0  0  0  0  0  0  0  0  0  0  0  0
   40.9200   34.5290   39.4250 C   0  0  0  0  0  0  0  0  0  0  0  0
   40.4350   33.2530   39.1760 C   0  0  0  0  0  0  0  0  0  0  0  0
   37.0500   29.6260   36.5720 C   0  0  0  0  0  0  0  0  0  0  0  0
   36.0610   28.6190   36.6390 N   0  0  0  0  0  0  0  0  0  0  0  0
   34.8240   29.0290   37.0500 C   0  0  0  0  0  0  0  0  0  0  0  0
   33.7210   28.1910   37.1660 C   0  0  0  0  0  0  0  0  0  0  0  0
   33.8980   26.8600   36.8440 C   0  0  0  0  0  0  0  0  0  0  0  0
   32.7150   26.0840   36.9780 N   0  0  0  0  0  0  0  0  0  0  0  0
   35.1240   26.4280   36.4320 N   0  0  0  0  0  0  0  0  0  0  0  0
   36.1500   27.3130   36.3460 C   0  0  0  0  0  0  0  0  0  0  0  0
   37.2770   26.9190   35.9690 O   0  0  0  0  0  0  0  0  0  0  0  0
   39.4971   28.1688   44.1977 H   0  0  0  0  0  0  0  0  0  0  0  0
   38.4153   25.8999   43.9511 H   0  0  0  0  0  0  0  0  0  0  0  0
   36.5876   25.0348   40.7701 H   0  0  0  0  0  0  0  0  0  0  0  0
   37.0694   24.4374   42.3806 H   0  0  0  0  0  0  0  0  0  0  0  0
   37.3533   28.1974   38.8312 H   0  0  0  0  0  0  0  0  0  0  0  0
   37.2309   33.6662   40.2657 H   0  0  0  0  0  0  0  0  0  0  0  0
   38.1123   35.9654   40.7076 H   0  0  0  0  0  0  0  0  0  0  0  0
   40.4623   36.4605   40.1570 H   0  0  0  0  0  0  0  0  0  0  0  0
   41.9633   34.7899   39.1939 H   0  0  0  0  0  0  0  0  0  0  0  0
   41.0839   32.4783   38.7415 H   0  0  0  0  0  0  0  0  0  0  0  0
   37.8748   29.2458   35.9514 H   0  0  0  0  0  0  0  0  0  0  0  0
   36.5430   30.5101   36.1581 H   0  0  0  0  0  0  0  0  0  0  0  0
   34.6925   30.0908   37.3056 H   0  0  0  0  0  0  0  0  0  0  0  0
   32.7455   28.5732   37.5011 H   0  0  0  0  0  0  0  0  0  0  0  0
   32.7327   25.0768   36.7634 H   0  0  0  0  0  0  0  0  0  0  0  0
   31.8399   26.5288   37.2897 H   0  0  0  0  0  0  0  0  0  0  0  0
  2  1  2  0
  3  2  1  0
  4  5  1  0
  4  3  2  0
  5  6  2  0
  6  1  1  0
  7  3  1  0
  8 14  1  0
  8  5  1  0
  9  8  1  0
 10 11  1  0
 10  9  2  0
 11 13  1  0
 12 11  2  0
 13 16  1  0
 13 14  1  0
 14 15  2  0
 16 17  2  0
 17 18  1  0
 19 18  2  0
 20 19  1  0
 21 20  2  0
 21 16  1  0
 22 23  1  0
 22 10  1  0
 23 24  1  0
 24 25  2  0
 26 27  1  0
 26 25  1  0
 28 26  2  0
 29 28  1  0
 29 23  1  0
 30 29  2  0
  1 31  1  0
  2 32  1  0
  7 33  1  0
  7 34  1  0
  9 35  1  0
 17 36  1  0
 18 37  1  0
 19 38  1  0
 20 39  1  0
 21 40  1  0
 22 41  1  0
 22 42  1  0
 24 43  1  0
 25 44  1  0
 27 45  1  0
 27 46  1  0
M  ISO  8  31  14  32  14  35  14  36  14  37  14  38  14  39  14  40  14
M  ISO  4  41   8  42   8  43  14  44  14
M  END
>  <minimizedAffinity>  (1) 
-6.50324583

>  <minimizedRMSD>  (1) 
0.694846332

$$$$
