
     RDKit          3D

 42 45  0  0  0  0  0  0  0  0999 V2000
   39.5000   27.8630   43.3770 C   0  0  0  0  0  0  0  0  0  0  0  0
   38.8020   26.6260   43.4060 C   0  0  0  0  0  0  0  0  0  0  0  0
   37.8510   26.4320   42.4030 C   0  0  0  0  0  0  0  0  0  0  0  0
   37.6560   27.3940   41.4960 N   0  0  0  0  0  0  0  0  0  0  0  0
   38.3240   28.5500   41.4870 C   0  0  0  0  0  0  0  0  0  0  0  0
   39.2470   28.7870   42.4270 N   0  0  0  0  0  0  0  0  0  0  0  0
   37.1000   25.2650   42.3200 N   0  0  0  0  0  0  0  0  0  0  0  0
   38.1300   29.5810   40.5190 N   0  0  0  0  0  0  0  0  0  0  0  0
   37.2940   29.2940   39.4990 C   0  0  0  0  0  0  0  0  0  0  0  0
   36.9840   30.1530   38.4680 C   0  0  0  0  0  0  0  0  0  0  0  0
   37.5850   31.4000   38.4980 C   0  0  0  0  0  0  0  0  0  0  0  0
   37.3550   32.2400   37.5960 O   0  0  0  0  0  0  0  0  0  0  0  0
   38.4110   31.6600   39.5230 N   0  0  0  0  0  0  0  0  0  0  0  0
   38.6900   30.7890   40.5160 C   0  0  0  0  0  0  0  0  0  0  0  0
   39.4620   31.0350   41.4720 O   0  0  0  0  0  0  0  0  0  0  0  0
   39.0650   32.9150   39.6220 C   0  0  0  0  0  0  0  0  0  0  0  0
   38.3990   33.9580   40.2290 C   0  0  0  0  0  0  0  0  0  0  0  0
   39.0110   35.1830   40.3380 C   0  0  0  0  0  0  0  0  0  0  0  0
   40.2850   35.3140   39.8240 C   0  0  0  0  0  0  0  0  0  0  0  0
   40.9590   34.2920   39.2180 C   0  0  0  0  0  0  0  0  0  0  0  0
   40.3490   33.0450   39.1030 C   0  0  0  0  0  0  0  0  0  0  0  0
   36.0550   29.7460   37.3800 C   0  0  0  0  0  0  0  0  0  0  0  0
   34.8020   29.1190   37.8770 C   0  0  0  0  0  0  0  0  0  0  0  0
   34.3310   27.7810   37.4600 C   0  0  0  0  0  0  0  0  0  0  0  0
   33.6960   28.9790   36.8610 C   0  0  0  0  0  0  0  0  0  0  0  0
   40.2610   28.0714   44.1435 H   0  0  0  0  0  0  0  0  0  0  0  0
   38.9997   25.8647   44.1749 H   0  0  0  0  0  0  0  0  0  0  0  0
   36.4056   25.1518   41.5677 H   0  0  0  0  0  0  0  0  0  0  0  0
   37.2380   24.5136   43.0108 H   0  0  0  0  0  0  0  0  0  0  0  0
   36.8249   28.2991   39.4905 H   0  0  0  0  0  0  0  0  0  0  0  0
   37.3830   33.8103   40.6240 H   0  0  0  0  0  0  0  0  0  0  0  0
   38.5024   36.0315   40.8191 H   0  0  0  0  0  0  0  0  0  0  0  0
   40.7832   36.2913   39.9065 H   0  0  0  0  0  0  0  0  0  0  0  0
   41.9737   34.4522   38.8246 H   0  0  0  0  0  0  0  0  0  0  0  0
   40.8611   32.1986   38.6220 H   0  0  0  0  0  0  0  0  0  0  0  0
   36.5727   29.0240   36.7314 H   0  0  0  0  0  0  0  0  0  0  0  0
   35.7683   30.6599   36.8391 H   0  0  0  0  0  0  0  0  0  0  0  0
   34.9630   29.5627   38.8706 H   0  0  0  0  0  0  0  0  0  0  0  0
   34.9797   27.1407   36.8442 H   0  0  0  0  0  0  0  0  0  0  0  0
   33.9554   26.8956   37.9938 H   0  0  0  0  0  0  0  0  0  0  0  0
   33.8798   29.2322   35.8064 H   0  0  0  0  0  0  0  0  0  0  0  0
   32.6664   29.3550   36.7688 H   0  0  0  0  0  0  0  0  0  0  0  0
  1  2  2  0
  3  2  1  0
  4  3  2  0
  5  4  1  0
  5  6  2  0
  6  1  1  0
  7  3  1  0
  8  5  1  0
  9  8  1  0
 10 11  1  0
 10  9  2  0
 11 13  1  0
 12 11  2  0
 13 16  1  0
 13 14  1  0
 14  8  1  0
 14 15  2  0
 16 17  2  0
 17 18  1  0
 19 18  2  0
 20 19  1  0
 21 20  2  0
 21 16  1  0
 22 23  1  0
 22 10  1  0
 24 23  1  0
 25 24  1  0
 25 23  1  0
  1 26  1  0
  2 27  1  0
  7 28  1  0
  7 29  1  0
  9 30  1  0
 17 31  1  0
 18 32  1  0
 19 33  1  0
 20 34  1  0
 21 35  1  0
 22 36  1  0
 22 37  1  0
 23 38  1  0
 24 39  1  0
 24 40  1  0
 25 41  1  0
 25 42  1  0
M  ISO  8  26  14  27  14  30  14  31  14  32  14  33  14  34  14  35  14
M  ISO  7  36   8  37   8  38  13  39  13  40  13  41  13  42  13
M  END
>  <minimizedAffinity>  (1) 
-6.28476

>  <minimizedRMSD>  (1) 
0.526027083

$$$$
