
     RDKit          3D

 50 53  0  0  0  0  0  0  0  0999 V2000
   39.4940   27.8890   43.3510 C   0  0  0  0  0  0  0  0  0  0  0  0
   38.8000   26.6520   43.3650 C   0  0  0  0  0  0  0  0  0  0  0  0
   37.8780   26.4520   42.3390 C   0  0  0  0  0  0  0  0  0  0  0  0
   37.6920   27.4040   41.4160 N   0  0  0  0  0  0  0  0  0  0  0  0
   38.3650   28.5690   41.4280 C   0  0  0  0  0  0  0  0  0  0  0  0
   39.2600   28.8080   42.3920 N   0  0  0  0  0  0  0  0  0  0  0  0
   37.1170   25.2750   42.2230 N   0  0  0  0  0  0  0  0  0  0  0  0
   38.1820   29.5900   40.4540 N   0  0  0  0  0  0  0  0  0  0  0  0
   37.3740   29.3010   39.4200 C   0  0  0  0  0  0  0  0  0  0  0  0
   37.0750   30.1710   38.3680 C   0  0  0  0  0  0  0  0  0  0  0  0
   37.6660   31.4030   38.4290 C   0  0  0  0  0  0  0  0  0  0  0  0
   37.4560   32.2510   37.5330 O   0  0  0  0  0  0  0  0  0  0  0  0
   38.4730   31.6750   39.4750 N   0  0  0  0  0  0  0  0  0  0  0  0
   38.7410   30.8140   40.4720 C   0  0  0  0  0  0  0  0  0  0  0  0
   39.4870   31.0600   41.4400 O   0  0  0  0  0  0  0  0  0  0  0  0
   39.1090   32.9420   39.5910 C   0  0  0  0  0  0  0  0  0  0  0  0
   38.4080   33.9740   40.2120 C   0  0  0  0  0  0  0  0  0  0  0  0
   38.9870   35.2100   40.3440 C   0  0  0  0  0  0  0  0  0  0  0  0
   40.2680   35.3660   39.8420 C   0  0  0  0  0  0  0  0  0  0  0  0
   40.9730   34.3600   39.2280 C   0  0  0  0  0  0  0  0  0  0  0  0
   40.3810   33.1060   39.0960 C   0  0  0  0  0  0  0  0  0  0  0  0
   36.1790   29.7440   37.2830 C   0  0  0  0  0  0  0  0  0  0  0  0
   36.0040   28.3630   37.0710 N   0  0  0  0  0  0  0  0  0  0  0  0
   34.7390   27.7740   37.2780 C   0  0  0  0  0  0  0  0  0  0  0  0
   34.7660   26.2620   37.3010 C   0  0  0  0  0  0  0  0  0  0  0  0
   35.9340   25.6670   36.5670 C   0  0  0  0  0  0  0  0  0  0  0  0
   36.3380   26.5510   35.4170 C   0  0  0  0  0  0  0  0  0  0  0  0
   36.7910   27.8710   35.9890 C   0  0  0  0  0  0  0  0  0  0  0  0
   40.2353   28.1023   44.1352 H   0  0  0  0  0  0  0  0  0  0  0  0
   38.9792   25.8937   44.1414 H   0  0  0  0  0  0  0  0  0  0  0  0
   36.4466   25.1694   41.4482 H   0  0  0  0  0  0  0  0  0  0  0  0
   37.2301   24.5185   42.9129 H   0  0  0  0  0  0  0  0  0  0  0  0
   36.9123   28.3028   39.4000 H   0  0  0  0  0  0  0  0  0  0  0  0
   37.3923   33.7975   40.5955 H   0  0  0  0  0  0  0  0  0  0  0  0
   38.4560   36.0427   40.8284 H   0  0  0  0  0  0  0  0  0  0  0  0
   40.7479   36.3509   39.9405 H   0  0  0  0  0  0  0  0  0  0  0  0
   41.9887   34.5415   38.8466 H   0  0  0  0  0  0  0  0  0  0  0  0
   40.9137   32.2744   38.6117 H   0  0  0  0  0  0  0  0  0  0  0  0
   35.1868   30.1705   37.4921 H   0  0  0  0  0  0  0  0  0  0  0  0
   36.6708   30.1010   36.3661 H   0  0  0  0  0  0  0  0  0  0  0  0
   34.3449   28.1285   38.2419 H   0  0  0  0  0  0  0  0  0  0  0  0
   34.1050   28.0702   36.4293 H   0  0  0  0  0  0  0  0  0  0  0  0
   34.8098   25.9315   38.3493 H   0  0  0  0  0  0  0  0  0  0  0  0
   33.8555   25.9167   36.7894 H   0  0  0  0  0  0  0  0  0  0  0  0
   36.7823   25.5632   37.2595 H   0  0  0  0  0  0  0  0  0  0  0  0
   35.6435   24.6815   36.1740 H   0  0  0  0  0  0  0  0  0  0  0  0
   35.4804   26.7081   34.7462 H   0  0  0  0  0  0  0  0  0  0  0  0
   37.1487   26.0837   34.8387 H   0  0  0  0  0  0  0  0  0  0  0  0
   37.8244   27.7509   36.3463 H   0  0  0  0  0  0  0  0  0  0  0  0
   36.6908   28.6071   35.1777 H   0  0  0  0  0  0  0  0  0  0  0  0
  1  2  2  0
  3  2  1  0
  4  5  1  0
  4  3  2  0
  5  6  2  0
  6  1  1  0
  7  3  1  0
  8 14  1  0
  8  5  1  0
  9  8  1  0
 10 11  1  0
 10  9  2  0
 11 13  1  0
 12 11  2  0
 13 16  1  0
 13 14  1  0
 14 15  2  0
 16 17  2  0
 17 18  1  0
 19 18  2  0
 20 19  1  0
 21 20  2  0
 21 16  1  0
 22 10  1  0
 23 24  1  0
 23 22  1  0
 24 25  1  0
 26 25  1  0
 27 28  1  0
 27 26  1  0
 28 23  1  0
  1 29  1  0
  2 30  1  0
  7 31  1  0
  7 32  1  0
  9 33  1  0
 17 34  1  0
 18 35  1  0
 19 36  1  0
 20 37  1  0
 21 38  1  0
 22 39  1  0
 22 40  1  0
 24 41  1  0
 24 42  1  0
 25 43  1  0
 25 44  1  0
 26 45  1  0
 26 46  1  0
 27 47  1  0
 27 48  1  0
 28 49  1  0
 28 50  1  0
M  ISO  8  29  14  30  14  33  14  34  14  35  14  36  14  37  14  38  14
M  ISO  8  39   8  40   8  41  13  42  13  43  13  44  13  45  13  46  13
M  ISO  4  47  13  48  13  49  13  50  13
M  END
>  <minimizedAffinity>  (1) 
-6.16926241

>  <minimizedRMSD>  (1) 
1.59150863

$$$$
