
     RDKit          3D

 36 38  0  0  0  0  0  0  0  0999 V2000
   39.4750   27.8730   43.3320 C   0  0  0  0  0  0  0  0  0  0  0  0
   38.7980   26.6330   43.3460 C   0  0  0  0  0  0  0  0  0  0  0  0
   37.8920   26.4340   42.3160 C   0  0  0  0  0  0  0  0  0  0  0  0
   37.7040   27.3860   41.3890 N   0  0  0  0  0  0  0  0  0  0  0  0
   38.3620   28.5470   41.4070 C   0  0  0  0  0  0  0  0  0  0  0  0
   39.2470   28.7950   42.3750 N   0  0  0  0  0  0  0  0  0  0  0  0
   37.1420   25.2520   42.1920 N   0  0  0  0  0  0  0  0  0  0  0  0
   38.1830   29.5820   40.4280 N   0  0  0  0  0  0  0  0  0  0  0  0
   37.3920   29.2820   39.3920 C   0  0  0  0  0  0  0  0  0  0  0  0
   37.1000   30.1480   38.3430 C   0  0  0  0  0  0  0  0  0  0  0  0
   37.6770   31.3880   38.4070 C   0  0  0  0  0  0  0  0  0  0  0  0
   37.4640   32.2350   37.4940 O   0  0  0  0  0  0  0  0  0  0  0  0
   38.4720   31.6680   39.4630 N   0  0  0  0  0  0  0  0  0  0  0  0
   38.7310   30.8110   40.4510 C   0  0  0  0  0  0  0  0  0  0  0  0
   39.4630   31.0520   41.4370 O   0  0  0  0  0  0  0  0  0  0  0  0
   39.0990   32.9430   39.5860 C   0  0  0  0  0  0  0  0  0  0  0  0
   38.3930   33.9620   40.1960 C   0  0  0  0  0  0  0  0  0  0  0  0
   38.9910   35.1960   40.3240 C   0  0  0  0  0  0  0  0  0  0  0  0
   40.2740   35.3510   39.8330 C   0  0  0  0  0  0  0  0  0  0  0  0
   40.9780   34.3520   39.2300 C   0  0  0  0  0  0  0  0  0  0  0  0
   40.3770   33.1080   39.0990 C   0  0  0  0  0  0  0  0  0  0  0  0
   36.2120   29.7340   37.2310 C   0  0  0  0  0  0  0  0  0  0  0  0
   37.0840   28.7270   36.0110 S   0  0  0  0  0  0  0  0  0  0  0  0
   40.2075   28.0920   44.1228 H   0  0  0  0  0  0  0  0  0  0  0  0
   38.9780   25.8755   44.1230 H   0  0  0  0  0  0  0  0  0  0  0  0
   36.4785   25.1425   41.4118 H   0  0  0  0  0  0  0  0  0  0  0  0
   37.2558   24.4952   42.8813 H   0  0  0  0  0  0  0  0  0  0  0  0
   36.9402   28.2793   39.3676 H   0  0  0  0  0  0  0  0  0  0  0  0
   37.3735   33.7911   40.5720 H   0  0  0  0  0  0  0  0  0  0  0  0
   38.4632   36.0338   40.8030 H   0  0  0  0  0  0  0  0  0  0  0  0
   40.7534   36.3358   39.9347 H   0  0  0  0  0  0  0  0  0  0  0  0
   41.9976   34.5274   38.8563 H   0  0  0  0  0  0  0  0  0  0  0  0
   40.9084   32.2737   38.6178 H   0  0  0  0  0  0  0  0  0  0  0  0
   35.3760   29.1493   37.6424 H   0  0  0  0  0  0  0  0  0  0  0  0
   35.8507   30.6426   36.7272 H   0  0  0  0  0  0  0  0  0  0  0  0
   37.8755   27.8129   36.6551 H   0  0  0  0  0  0  0  0  0  0  0  0
  1  2  2  0
  3  2  1  0
  4  5  1  0
  4  3  2  0
  5  6  2  0
  6  1  1  0
  7  3  1  0
  8 14  1  0
  8  5  1  0
  9  8  1  0
 10 11  1  0
 10  9  2  0
 11 13  1  0
 12 11  2  0
 13 16  1  0
 13 14  1  0
 14 15  2  0
 16 17  2  0
 17 18  1  0
 19 18  2  0
 20 19  1  0
 21 20  2  0
 21 16  1  0
 22 10  1  0
 23 22  1  0
  1 24  1  0
  2 25  1  0
  7 26  1  0
  7 27  1  0
  9 28  1  0
 17 29  1  0
 18 30  1  0
 19 31  1  0
 20 32  1  0
 21 33  1  0
 22 34  1  0
 22 35  1  0
 23 36  1  0
M  ISO  8  24  14  25  14  28  14  29  14  30  14  31  14  32  14  33  14
M  ISO  3  34   8  35   8  36  11
M  END
>  <minimizedAffinity>  (1) 
-5.87628555

>  <minimizedRMSD>  (1) 
0.144434124

$$$$
