
     RDKit          3D

 42 45  0  0  0  0  0  0  0  0999 V2000
   38.3450   22.1000   39.9870 C   0  0  0  0  0  0  0  0  0  0  0  0
   37.0540   21.8190   39.4780 C   0  0  0  0  0  0  0  0  0  0  0  0
   36.1150   22.8350   39.6020 C   0  0  0  0  0  0  0  0  0  0  0  0
   36.4490   23.9960   40.1740 N   0  0  0  0  0  0  0  0  0  0  0  0
   37.6800   24.2310   40.6450 C   0  0  0  0  0  0  0  0  0  0  0  0
   38.6380   23.2880   40.5570 N   0  0  0  0  0  0  0  0  0  0  0  0
   34.7970   22.6810   39.1370 N   0  0  0  0  0  0  0  0  0  0  0  0
   38.0650   25.4710   41.2530 N   0  0  0  0  0  0  0  0  0  0  0  0
   37.1710   26.4650   41.2030 C   0  0  0  0  0  0  0  0  0  0  0  0
   37.3650   27.7360   41.7260 C   0  0  0  0  0  0  0  0  0  0  0  0
   38.5700   27.9710   42.3370 C   0  0  0  0  0  0  0  0  0  0  0  0
   38.8260   29.0890   42.8330 O   0  0  0  0  0  0  0  0  0  0  0  0
   39.4570   26.9560   42.3770 N   0  0  0  0  0  0  0  0  0  0  0  0
   39.2370   25.7310   41.8580 C   0  0  0  0  0  0  0  0  0  0  0  0
   40.0550   24.7900   41.8930 O   0  0  0  0  0  0  0  0  0  0  0  0
   40.7320   27.1260   42.9960 C   0  0  0  0  0  0  0  0  0  0  0  0
   40.8770   26.7320   44.3000 C   0  0  0  0  0  0  0  0  0  0  0  0
   42.1030   26.8890   44.9080 C   0  0  0  0  0  0  0  0  0  0  0  0
   43.1370   27.4470   44.1530 C   0  0  0  0  0  0  0  0  0  0  0  0
   43.0020   27.8430   42.8520 C   0  0  0  0  0  0  0  0  0  0  0  0
   41.7640   27.6780   42.2550 C   0  0  0  0  0  0  0  0  0  0  0  0
   36.3070   28.7740   41.6110 C   0  0  0  0  0  0  0  0  0  0  0  0
   36.5190   29.7090   40.4960 C   0  0  0  0  0  0  0  0  0  0  0  0
   36.3630   29.4870   39.1230 C   0  0  0  0  0  0  0  0  0  0  0  0
   36.6230   30.5190   38.2960 C   0  0  0  0  0  0  0  0  0  0  0  0
   37.0290   31.7500   38.7990 C   0  0  0  0  0  0  0  0  0  0  0  0
   37.0440   31.4130   40.6060 S   0  0  0  0  0  0  0  0  0  0  0  0
   39.1286   21.3312   39.9162 H   0  0  0  0  0  0  0  0  0  0  0  0
   36.8091   20.8532   39.0119 H   0  0  0  0  0  0  0  0  0  0  0  0
   34.1207   23.4508   39.2417 H   0  0  0  0  0  0  0  0  0  0  0  0
   34.5078   21.7984   38.6917 H   0  0  0  0  0  0  0  0  0  0  0  0
   36.2093   26.2595   40.7101 H   0  0  0  0  0  0  0  0  0  0  0  0
   40.0298   26.2982   44.8515 H   0  0  0  0  0  0  0  0  0  0  0  0
   42.2623   26.5851   45.9531 H   0  0  0  0  0  0  0  0  0  0  0  0
   44.1179   27.5753   44.6339 H   0  0  0  0  0  0  0  0  0  0  0  0
   43.8475   28.2776   42.2986 H   0  0  0  0  0  0  0  0  0  0  0  0
   41.6025   27.9802   41.2097 H   0  0  0  0  0  0  0  0  0  0  0  0
   35.3402   28.2704   41.4637 H   0  0  0  0  0  0  0  0  0  0  0  0
   36.3332   29.3657   42.5379 H   0  0  0  0  0  0  0  0  0  0  0  0
   36.0411   28.5095   38.7344 H   0  0  0  0  0  0  0  0  0  0  0  0
   36.5126   30.3857   37.2097 H   0  0  0  0  0  0  0  0  0  0  0  0
   37.2752   32.6769   38.2602 H   0  0  0  0  0  0  0  0  0  0  0  0
  1  6  2  0
  2  3  2  0
  2  1  1  0
  3  4  1  0
  4  5  2  0
  5  8  1  0
  6  5  1  0
  7  3  1  0
  8 14  1  0
  9  8  1  0
  9 10  2  0
 10 11  1  0
 11 13  1  0
 11 12  2  0
 13 16  1  0
 14 15  2  0
 14 13  1  0
 16 17  2  0
 17 18  1  0
 19 18  2  0
 20 19  1  0
 21 20  2  0
 21 16  1  0
 22 10  1  0
 23 27  1  0
 23 22  1  0
 24 23  2  0
 25 26  2  0
 25 24  1  0
 26 27  1  0
  1 28  1  0
  2 29  1  0
  7 30  1  0
  7 31  1  0
  9 32  1  0
 17 33  1  0
 18 34  1  0
 19 35  1  0
 20 36  1  0
 21 37  1  0
 22 38  1  0
 22 39  1  0
 24 40  1  0
 25 41  1  0
 26 42  1  0
M  ISO  8  28  14  29  14  32  14  33  14  34  14  35  14  36  14  37  14
M  ISO  5  38   8  39   8  40  14  41  14  42  14
M  END
>  <minimizedAffinity>  (1) 
-5.74903727

>  <minimizedRMSD>  (1) 
5.88393021

$$$$
