
     RDKit          3D

 42 44  0  0  0  0  0  0  0  0999 V2000
   40.4790   32.5630   39.6940 C   0  0  0  0  0  0  0  0  0  0  0  0
   40.8610   33.3990   40.7380 C   0  0  0  0  0  0  0  0  0  0  0  0
   42.1790   33.8160   40.5080 C   0  0  0  0  0  0  0  0  0  0  0  0
   42.4940   33.1890   39.3220 C   0  0  0  0  0  0  0  0  0  0  0  0
   41.5100   32.4920   38.8950 O   0  0  0  0  0  0  0  0  0  0  0  0
   36.8810   31.6880   39.3730 C   0  0  0  0  0  0  0  0  0  0  0  0
   36.9460   30.2740   39.1100 C   0  0  0  0  0  0  0  0  0  0  0  0
   38.2480   29.7680   39.0720 C   0  0  0  0  0  0  0  0  0  0  0  0
   39.3250   30.5480   39.2650 N   0  0  0  0  0  0  0  0  0  0  0  0
   39.1950   31.8910   39.5110 C   0  0  0  0  0  0  0  0  0  0  0  0
   37.9910   32.4120   39.5570 N   0  0  0  0  0  0  0  0  0  0  0  0
   35.7580   29.5380   38.9200 N   0  0  0  0  0  0  0  0  0  0  0  0
   34.8740   29.1980   39.9660 C   0  0  0  0  0  0  0  0  0  0  0  0
   35.4320   28.8570   41.1180 N   0  0  0  0  0  0  0  0  0  0  0  0
   33.4630   29.2650   39.6470 N   0  0  0  0  0  0  0  0  0  0  0  0
   34.8590   28.5770   41.9210 H   0  0  0  0  0  0  0  0  0  0  0  0
   42.8750   34.6920   41.4170 C   0  0  0  0  0  0  0  0  0  0  0  0
   42.4630   35.8470   41.7800 O   0  0  0  0  0  0  0  0  0  0  0  0
   44.1340   34.5100   42.1140 N   0  0  0  0  0  0  0  0  0  0  0  0
   44.8620   35.7380   42.3700 C   0  0  0  0  0  0  0  0  0  0  0  0
   45.0460   35.9200   43.8740 C   0  0  0  0  0  0  0  0  0  0  0  0
   45.7730   34.8690   44.3750 O   0  0  0  0  0  0  0  0  0  0  0  0
   45.0870   33.6770   44.1550 C   0  0  0  0  0  0  0  0  0  0  0  0
   44.9280   33.4010   42.6750 C   0  0  0  0  0  0  0  0  0  0  0  0
   43.8300   33.3560   38.6870 C   0  0  0  0  0  0  0  0  0  0  0  0
   43.8600   32.6800   37.4730 F   0  0  0  0  0  0  0  0  0  0  0  0
   44.0800   34.6960   38.4710 F   0  0  0  0  0  0  0  0  0  0  0  0
   44.8210   32.7820   39.4620 F   0  0  0  0  0  0  0  0  0  0  0  0
   40.2357   33.6840   41.5970 H   0  0  0  0  0  0  0  0  0  0  0  0
   35.8998   32.1827   39.4236 H   0  0  0  0  0  0  0  0  0  0  0  0
   38.3962   28.6955   38.8776 H   0  0  0  0  0  0  0  0  0  0  0  0
   35.5227   29.2318   37.9651 H   0  0  0  0  0  0  0  0  0  0  0  0
   32.7613   29.0300   40.3635 H   0  0  0  0  0  0  0  0  0  0  0  0
   33.1611   29.5476   38.7037 H   0  0  0  0  0  0  0  0  0  0  0  0
   45.8476   35.6874   41.8841 H   0  0  0  0  0  0  0  0  0  0  0  0
   44.2954   36.5897   41.9656 H   0  0  0  0  0  0  0  0  0  0  0  0
   45.5812   36.8615   44.0670 H   0  0  0  0  0  0  0  0  0  0  0  0
   44.0614   35.9520   44.3634 H   0  0  0  0  0  0  0  0  0  0  0  0
   45.6475   32.8503   44.6158 H   0  0  0  0  0  0  0  0  0  0  0  0
   44.0858   33.7641   44.6022 H   0  0  0  0  0  0  0  0  0  0  0  0
   44.4039   32.4460   42.5227 H   0  0  0  0  0  0  0  0  0  0  0  0
   45.9081   33.3298   42.1808 H   0  0  0  0  0  0  0  0  0  0  0  0
  1  2  2  0
  3  2  1  0
  3 17  1  0
  4  3  2  0
  5  4  1  0
  5  1  1  0
  6 11  2  0
  7  6  1  0
  8  7  2  0
  8  9  1  0
  9 10  2  0
 10 11  1  0
 10  1  1  0
 12  7  1  0
 12 13  1  0
 13 14  2  0
 14 16  1  0
 15 13  1  0
 17 18  2  0
 17 19  1  0
 19 20  1  0
 19 24  1  0
 20 21  1  0
 21 22  1  0
 23 22  1  0
 24 23  1  0
 25  4  1  0
 25 28  1  0
 26 25  1  0
 27 25  1  0
  2 29  1  0
  6 30  1  0
  8 31  1  0
 12 32  1  0
 15 33  1  0
 15 34  1  0
 20 35  1  0
 20 36  1  0
 21 37  1  0
 21 38  1  0
 23 39  1  0
 23 40  1  0
 24 41  1  0
 24 42  1  0
M  ISO  8  29  14  30  14  31  14  35  13  36  13  37  13  38  13  39  13
M  ISO  3  40  13  41  13  42  13
M  END
>  <minimizedAffinity>  (1) 
-5.54551125

>  <minimizedRMSD>  (1) 
3.8250227

$$$$
