
     RDKit          3D

 43 45  0  0  0  0  0  0  0  0999 V2000
   40.4370   30.4560   39.8120 C   0  0  0  0  0  0  0  0  0  0  0  0
   40.1910   31.6010   40.5770 C   0  0  0  0  0  0  0  0  0  0  0  0
   40.8300   32.6790   39.9560 C   0  0  0  0  0  0  0  0  0  0  0  0
   41.4160   32.1130   38.8560 C   0  0  0  0  0  0  0  0  0  0  0  0
   41.1710   30.8440   38.8070 O   0  0  0  0  0  0  0  0  0  0  0  0
   40.7850   34.0100   40.5090 C   0  0  0  0  0  0  0  0  0  0  0  0
   39.7090   34.6760   40.7170 O   0  0  0  0  0  0  0  0  0  0  0  0
   41.8460   34.8890   40.9500 N   0  0  0  0  0  0  0  0  0  0  0  0
   41.5490   36.3090   40.7930 C   0  0  0  0  0  0  0  0  0  0  0  0
   41.5250   37.0100   42.1350 C   0  0  0  0  0  0  0  0  0  0  0  0
   42.3250   36.2690   43.1130 N   0  0  0  0  0  0  0  0  0  0  0  0
   43.5110   35.8620   42.3840 C   0  0  0  0  0  0  0  0  0  0  0  0
   43.1430   34.6770   41.5290 C   0  0  0  0  0  0  0  0  0  0  0  0
   38.5210   27.4250   40.7770 C   0  0  0  0  0  0  0  0  0  0  0  0
   39.4300   26.3750   40.4310 C   0  0  0  0  0  0  0  0  0  0  0  0
   40.6230   26.8330   39.8930 C   0  0  0  0  0  0  0  0  0  0  0  0
   40.8950   28.1410   39.7170 N   0  0  0  0  0  0  0  0  0  0  0  0
   39.9710   29.0980   40.0730 C   0  0  0  0  0  0  0  0  0  0  0  0
   38.8250   28.7170   40.5870 N   0  0  0  0  0  0  0  0  0  0  0  0
   39.0720   25.0260   40.6480 N   0  0  0  0  0  0  0  0  0  0  0  0
   39.0380   24.4220   41.9280 C   0  0  0  0  0  0  0  0  0  0  0  0
   39.9920   24.7780   42.7710 N   0  0  0  0  0  0  0  0  0  0  0  0
   37.9680   23.4940   42.1580 N   0  0  0  0  0  0  0  0  0  0  0  0
   40.0570   24.3600   43.7040 H   0  0  0  0  0  0  0  0  0  0  0  0
   42.2160   32.9030   37.8870 C   0  0  0  0  0  0  0  0  0  0  0  0
   42.5080   32.1270   36.7710 F   0  0  0  0  0  0  0  0  0  0  0  0
   41.4950   34.0140   37.4960 F   0  0  0  0  0  0  0  0  0  0  0  0
   43.4390   33.2640   38.4240 F   0  0  0  0  0  0  0  0  0  0  0  0
   39.5995   31.6456   41.5033 H   0  0  0  0  0  0  0  0  0  0  0  0
   42.3214   36.7702   40.1600 H   0  0  0  0  0  0  0  0  0  0  0  0
   40.5578   36.4103   40.3269 H   0  0  0  0  0  0  0  0  0  0  0  0
   41.9381   38.0232   42.0220 H   0  0  0  0  0  0  0  0  0  0  0  0
   40.4856   37.0629   42.4912 H   0  0  0  0  0  0  0  0  0  0  0  0
   42.5768   36.8726   43.9087 H   0  0  0  0  0  0  0  0  0  0  0  0
   43.8608   36.6882   41.7476 H   0  0  0  0  0  0  0  0  0  0  0  0
   44.3183   35.5958   43.0821 H   0  0  0  0  0  0  0  0  0  0  0  0
   43.1236   33.7690   42.1496 H   0  0  0  0  0  0  0  0  0  0  0  0
   43.8872   34.5576   40.7278 H   0  0  0  0  0  0  0  0  0  0  0  0
   37.5446   27.1645   41.2114 H   0  0  0  0  0  0  0  0  0  0  0  0
   41.3824   26.0946   39.5962 H   0  0  0  0  0  0  0  0  0  0  0  0
   38.8222   24.4507   39.8310 H   0  0  0  0  0  0  0  0  0  0  0  0
   37.8849   23.0191   43.0682 H   0  0  0  0  0  0  0  0  0  0  0  0
   37.2831   23.3028   41.4129 H   0  0  0  0  0  0  0  0  0  0  0  0
  1 18  1  0
  1  2  2  0
  3  6  1  0
  3  2  1  0
  4  3  2  0
  5  4  1  0
  5  1  1  0
  6  7  2  0
  6  8  1  0
  8 13  1  0
  9  8  1  0
  9 10  1  0
 10 11  1  0
 12 11  1  0
 13 12  1  0
 15 20  1  0
 15 14  2  0
 16 15  1  0
 17 16  2  0
 17 18  1  0
 18 19  2  0
 19 14  1  0
 20 21  1  0
 21 23  1  0
 21 22  2  0
 22 24  1  0
 25 28  1  0
 25  4  1  0
 26 25  1  0
 27 25  1  0
  2 29  1  0
  9 30  1  0
  9 31  1  0
 10 32  1  0
 10 33  1  0
 11 34  1  0
 12 35  1  0
 12 36  1  0
 13 37  1  0
 13 38  1  0
 14 39  1  0
 16 40  1  0
 20 41  1  0
 23 42  1  0
 23 43  1  0
M  ISO  8  29  14  30  13  31  13  32  13  33  13  34   5  35  13  36  13
M  ISO  4  37  13  38  13  39  14  40  14
M  END
>  <minimizedAffinity>  (1) 
-5.31650686

>  <minimizedRMSD>  (1) 
3.09463573

$$$$
