
     RDKit          3D

 27 29  0  0  1  0  0  0  0  0999 V2000
   38.5250   32.3140   40.7850 C   0  0  0  0  0  0  0  0  0  0  0  0
   37.1830   32.1490   40.4470 C   0  0  0  0  0  0  0  0  0  0  0  0
   36.8640   30.8620   40.8380 C   0  0  0  0  0  0  0  0  0  0  0  0
   37.9700   30.3020   41.3800 N   0  0  0  0  0  0  0  0  0  0  0  0
   38.9660   31.1790   41.3450 N   0  0  0  0  0  0  0  0  0  0  0  0
   39.0710   35.8700   40.0380 C   0  0  0  0  0  0  0  0  0  0  0  0
   40.4730   35.9660   39.9990 C   0  0  0  0  0  0  0  0  0  0  0  0
   41.2120   34.8090   40.2300 C   0  0  0  0  0  0  0  0  0  0  0  0
   40.5700   33.6500   40.4780 N   0  0  0  0  0  0  0  0  0  0  0  0
   39.2090   33.5780   40.5120 C   0  0  0  0  0  0  0  0  0  0  0  0
   38.4840   34.7030   40.2880 N   0  0  0  0  0  0  0  0  0  0  0  0
   38.0230   28.9460   41.9090 C   0  0  2  0  0  0  0  0  0  0  0  0
   37.5830   27.8190   40.9510 C   0  0  0  0  0  0  0  0  0  0  0  0
   36.7750   28.2030   42.1710 C   0  0  1  0  0  0  0  0  0  0  0  0
   36.8170   27.2590   43.3590 C   0  0  0  0  0  0  0  0  0  0  0  0
   35.7060   27.4880   44.1310 F   0  0  0  0  0  0  0  0  0  0  0  0
   36.7420   25.9700   42.8610 F   0  0  0  0  0  0  0  0  0  0  0  0
   37.9970   27.3630   44.0630 F   0  0  0  0  0  0  0  0  0  0  0  0
   36.5193   32.8857   39.9707 H   0  0  0  0  0  0  0  0  0  0  0  0
   35.8825   30.3778   40.7277 H   0  0  0  0  0  0  0  0  0  0  0  0
   38.4562   36.7648   39.8608 H   0  0  0  0  0  0  0  0  0  0  0  0
   40.9704   36.9251   39.7925 H   0  0  0  0  0  0  0  0  0  0  0  0
   42.3114   34.8404   40.2103 H   0  0  0  0  0  0  0  0  0  0  0  0
   38.9080   29.1756   42.5206 H   0  0  0  0  0  0  0  0  0  0  0  0
   37.2152   28.0585   39.9424 H   0  0  0  0  0  0  0  0  0  0  0  0
   38.0317   26.8946   40.5585 H   0  0  0  0  0  0  0  0  0  0  0  0
   35.7216   28.4816   42.3217 H   0  0  0  0  0  0  0  0  0  0  0  0
  1  5  2  0
  2  1  1  0
  2  3  2  0
  3  4  1  0
  4 12  1  0
  5  4  1  0
  6 11  2  0
  7  6  1  0
  7  8  2  0
  8  9  1  0
  9 10  2  0
 10  1  1  0
 11 10  1  0
 12 14  1  0
 13 12  1  0
 13 14  1  0
 14 15  1  0
 15 18  1  0
 15 16  1  0
 17 15  1  0
  2 19  1  0
  3 20  1  0
  6 21  1  0
  7 22  1  0
  8 23  1  0
 12 24  1  1
 13 25  1  0
 13 26  1  0
 14 27  1  6
M  ISO  8  19  14  20  14  21  14  22  14  23  14  24  13  25  13  26  13
M  ISO  1  27  13
M  END
>  <minimizedAffinity>  (1) 
-5.86068344

>  <minimizedRMSD>  (1) 
5.29796791

$$$$
