
     RDKit          3D

 37 40  0  0  1  0  0  0  0  0999 V2000
   40.0310   26.3600   44.0680 C   0  0  2  0  0  0  0  0  0  0  0  0
   41.3830   26.2250   43.3180 C   0  0  0  0  0  0  0  0  0  0  0  0
   40.2960   25.1910   43.2290 C   0  0  2  0  0  0  0  0  0  0  0  0
   39.6460   24.8970   41.9870 N   0  0  0  0  0  0  0  0  0  0  0  0
   38.3470   24.5460   41.9150 C   0  0  0  0  0  0  0  0  0  0  0  0
   37.7250   24.2660   40.7310 C   0  0  0  0  0  0  0  0  0  0  0  0
   36.2690   23.8790   40.7280 C   0  0  0  0  0  0  0  0  0  0  0  0
   38.4230   24.3370   39.5480 C   0  0  0  0  0  0  0  0  0  0  0  0
   37.8770   24.0850   38.4530 O   0  0  0  0  0  0  0  0  0  0  0  0
   39.7170   24.6860   39.6120 N   0  0  0  0  0  0  0  0  0  0  0  0
   40.2790   24.9510   40.8020 C   0  0  0  0  0  0  0  0  0  0  0  0
   41.4900   25.2660   40.7390 O   0  0  0  0  0  0  0  0  0  0  0  0
   38.4180   29.1840   42.5610 C   0  0  0  0  0  0  0  0  0  0  0  0
   37.3370   28.6700   43.3170 C   0  0  0  0  0  0  0  0  0  0  0  0
   37.8500   27.5530   43.9570 C   0  0  0  0  0  0  0  0  0  0  0  0
   39.1470   27.4260   43.5950 N   0  0  0  0  0  0  0  0  0  0  0  0
   39.4870   28.4110   42.7530 N   0  0  0  0  0  0  0  0  0  0  0  0
   36.8330   31.6670   40.3600 C   0  0  0  0  0  0  0  0  0  0  0  0
   37.8220   32.6520   40.2530 C   0  0  0  0  0  0  0  0  0  0  0  0
   39.0170   32.4430   40.9390 C   0  0  0  0  0  0  0  0  0  0  0  0
   39.1910   31.3230   41.6740 N   0  0  0  0  0  0  0  0  0  0  0  0
   38.2080   30.3820   41.7600 C   0  0  0  0  0  0  0  0  0  0  0  0
   37.0470   30.5810   41.0940 N   0  0  0  0  0  0  0  0  0  0  0  0
   39.6932   26.4787   45.1081 H   0  0  0  0  0  0  0  0  0  0  0  0
   41.6099   26.8709   42.4570 H   0  0  0  0  0  0  0  0  0  0  0  0
   42.4480   26.2356   43.5932 H   0  0  0  0  0  0  0  0  0  0  0  0
   40.2216   24.1114   43.4265 H   0  0  0  0  0  0  0  0  0  0  0  0
   37.7645   24.4824   42.8459 H   0  0  0  0  0  0  0  0  0  0  0  0
   35.9126   23.7843   41.7644 H   0  0  0  0  0  0  0  0  0  0  0  0
   35.6849   24.6531   40.2087 H   0  0  0  0  0  0  0  0  0  0  0  0
   36.1463   22.9171   40.2087 H   0  0  0  0  0  0  0  0  0  0  0  0
   40.2777   24.7504   38.7504 H   0  0  0  0  0  0  0  0  0  0  0  0
   36.3142   29.0696   43.3821 H   0  0  0  0  0  0  0  0  0  0  0  0
   37.2999   26.8876   44.6386 H   0  0  0  0  0  0  0  0  0  0  0  0
   35.8751   31.7930   39.8342 H   0  0  0  0  0  0  0  0  0  0  0  0
   37.6618   33.5577   39.6496 H   0  0  0  0  0  0  0  0  0  0  0  0
   39.8206   33.1920   40.8818 H   0  0  0  0  0  0  0  0  0  0  0  0
  2  1  1  0
  3  2  1  0
  3  1  1  0
  4  3  1  0
  5  4  1  0
  6  5  2  0
  7  6  1  0
  8 10  1  0
  8  6  1  0
  9  8  2  0
 10 11  1  0
 11  4  1  0
 12 11  2  0
 13 17  2  0
 13 14  1  0
 14 15  2  0
 16 15  1  0
 16  1  1  0
 17 16  1  0
 18 23  2  0
 19 18  1  0
 19 20  2  0
 20 21  1  0
 21 22  2  0
 22 13  1  0
 23 22  1  0
  1 24  1  1
  2 25  1  0
  2 26  1  0
  3 27  1  1
  5 28  1  0
  7 29  1  0
  7 30  1  0
  7 31  1  0
 10 32  1  0
 14 33  1  0
 15 34  1  0
 18 35  1  0
 19 36  1  0
 20 37  1  0
M  ISO  8  24  13  25  13  26  13  27  13  28  14  29   8  30   8  31   8
M  ISO  6  32   9  33  14  34  14  35  14  36  14  37  14
M  END
>  <minimizedAffinity>  (1) 
-5.41997623

>  <minimizedRMSD>  (1) 
1.62533987

$$$$
