
     RDKit          3D

 32 35  0  0  1  0  0  0  0  0999 V2000
   38.4740   29.1780   42.5590 C   0  0  0  0  0  0  0  0  0  0  0  0
   37.3980   28.7350   43.3640 C   0  0  0  0  0  0  0  0  0  0  0  0
   37.8560   27.5560   43.9480 C   0  0  0  0  0  0  0  0  0  0  0  0
   39.1090   27.3360   43.5090 N   0  0  0  0  0  0  0  0  0  0  0  0
   39.4840   28.3110   42.6730 N   0  0  0  0  0  0  0  0  0  0  0  0
   37.0150   31.8000   40.4460 C   0  0  0  0  0  0  0  0  0  0  0  0
   38.0490   32.7440   40.3650 C   0  0  0  0  0  0  0  0  0  0  0  0
   39.2350   32.4610   41.0410 C   0  0  0  0  0  0  0  0  0  0  0  0
   39.3450   31.3070   41.7400 N   0  0  0  0  0  0  0  0  0  0  0  0
   38.3200   30.4080   41.7980 C   0  0  0  0  0  0  0  0  0  0  0  0
   37.1560   30.6760   41.1400 N   0  0  0  0  0  0  0  0  0  0  0  0
   39.9080   26.1800   43.9170 C   0  0  2  0  0  0  0  0  0  0  0  0
   41.0410   25.7720   42.9420 C   0  0  0  0  0  0  0  0  0  0  0  0
   39.8210   24.9150   43.1440 C   0  0  2  0  0  0  0  0  0  0  0  0
   38.8410   24.7730   42.0430 C   0  0  0  0  0  0  0  0  0  0  0  0
   37.5530   24.2610   42.2260 C   0  0  0  0  0  0  0  0  0  0  0  0
   36.7000   24.1620   41.1430 C   0  0  0  0  0  0  0  0  0  0  0  0
   37.0640   24.5480   39.8910 N   0  0  0  0  0  0  0  0  0  0  0  0
   38.3160   25.0360   39.7590 C   0  0  0  0  0  0  0  0  0  0  0  0
   39.1850   25.1500   40.7920 N   0  0  0  0  0  0  0  0  0  0  0  0
   36.4175   29.2150   43.4988 H   0  0  0  0  0  0  0  0  0  0  0  0
   37.2930   26.9177   44.6448 H   0  0  0  0  0  0  0  0  0  0  0  0
   36.0667   31.9945   39.9236 H   0  0  0  0  0  0  0  0  0  0  0  0
   37.9287   33.6735   39.7893 H   0  0  0  0  0  0  0  0  0  0  0  0
   40.0752   33.1702   41.0066 H   0  0  0  0  0  0  0  0  0  0  0  0
   39.8133   26.4232   44.9856 H   0  0  0  0  0  0  0  0  0  0  0  0
   42.0176   25.4477   43.3306 H   0  0  0  0  0  0  0  0  0  0  0  0
   41.5453   26.2353   42.0812 H   0  0  0  0  0  0  0  0  0  0  0  0
   39.6565   23.8648   43.4270 H   0  0  0  0  0  0  0  0  0  0  0  0
   37.2210   23.9394   43.2242 H   0  0  0  0  0  0  0  0  0  0  0  0
   35.6897   23.7561   41.2996 H   0  0  0  0  0  0  0  0  0  0  0  0
   38.6476   25.3577   38.7607 H   0  0  0  0  0  0  0  0  0  0  0  0
  1  5  2  0
  1  2  1  0
  2  3  2  0
  4 12  1  0
  4  3  1  0
  5  4  1  0
  6 11  2  0
  7  6  1  0
  7  8  2  0
  8  9  1  0
  9 10  2  0
 10  1  1  0
 11 10  1  0
 13 14  1  0
 13 12  1  0
 14 12  1  0
 15 16  2  0
 15 14  1  0
 17 16  1  0
 18 17  2  0
 19 18  1  0
 19 20  2  0
 20 15  1  0
  2 21  1  0
  3 22  1  0
  6 23  1  0
  7 24  1  0
  8 25  1  0
 12 26  1  1
 13 27  1  0
 13 28  1  0
 14 29  1  1
 16 30  1  0
 17 31  1  0
 19 32  1  0
M  ISO  8  21  14  22  14  23  14  24  14  25  14  26  13  27  13  28  13
M  ISO  4  29  13  30  14  31  14  32  14
M  END
>  <minimizedAffinity>  (1) 
-5.24137878

>  <minimizedRMSD>  (1) 
1.83807516

$$$$
