
     RDKit          3D

 31 34  0  0  1  0  0  0  0  0999 V2000
   38.4610   29.2520   42.5450 C   0  0  0  0  0  0  0  0  0  0  0  0
   37.3810   28.8150   43.3300 C   0  0  0  0  0  0  0  0  0  0  0  0
   37.8300   27.6270   43.9070 C   0  0  0  0  0  0  0  0  0  0  0  0
   39.0810   27.3930   43.4860 N   0  0  0  0  0  0  0  0  0  0  0  0
   39.4680   28.3720   42.6620 N   0  0  0  0  0  0  0  0  0  0  0  0
   37.0770   31.8760   40.3740 C   0  0  0  0  0  0  0  0  0  0  0  0
   38.1160   32.8130   40.3200 C   0  0  0  0  0  0  0  0  0  0  0  0
   39.3020   32.5400   41.0360 C   0  0  0  0  0  0  0  0  0  0  0  0
   39.3770   31.3870   41.7390 N   0  0  0  0  0  0  0  0  0  0  0  0
   38.3530   30.4990   41.7720 C   0  0  0  0  0  0  0  0  0  0  0  0
   37.2070   30.7540   41.0850 N   0  0  0  0  0  0  0  0  0  0  0  0
   39.8460   26.2300   43.9030 C   0  0  2  0  0  0  0  0  0  0  0  0
   41.0870   25.9020   43.0080 C   0  0  0  0  0  0  0  0  0  0  0  0
   39.8690   25.0190   43.0330 C   0  0  2  0  0  0  0  0  0  0  0  0
   38.9680   24.8920   41.8520 C   0  0  0  0  0  0  0  0  0  0  0  0
   37.5990   24.2370   42.1660 C   0  0  0  0  0  0  0  0  0  0  0  0
   38.5840   23.6220   41.2330 C   0  0  0  0  0  0  0  0  0  0  0  0
   36.4024   29.3001   43.4602 H   0  0  0  0  0  0  0  0  0  0  0  0
   37.2537   26.9887   44.5930 H   0  0  0  0  0  0  0  0  0  0  0  0
   36.1434   32.0667   39.8244 H   0  0  0  0  0  0  0  0  0  0  0  0
   38.0110   33.7384   39.7346 H   0  0  0  0  0  0  0  0  0  0  0  0
   40.1441   33.2476   41.0224 H   0  0  0  0  0  0  0  0  0  0  0  0
   39.6372   26.3938   44.9705 H   0  0  0  0  0  0  0  0  0  0  0  0
   42.0279   25.5631   43.4661 H   0  0  0  0  0  0  0  0  0  0  0  0
   41.6627   26.4300   42.2336 H   0  0  0  0  0  0  0  0  0  0  0  0
   39.7140   23.9457   43.2171 H   0  0  0  0  0  0  0  0  0  0  0  0
   39.3817   25.8128   41.4149 H   0  0  0  0  0  0  0  0  0  0  0  0
   37.4102   23.7872   43.1519 H   0  0  0  0  0  0  0  0  0  0  0  0
   36.5439   24.5437   42.1143 H   0  0  0  0  0  0  0  0  0  0  0  0
   38.3620   23.5907   40.1561 H   0  0  0  0  0  0  0  0  0  0  0  0
   39.0593   22.6315   41.1775 H   0  0  0  0  0  0  0  0  0  0  0  0
  1  5  2  0
  1  2  1  0
  2  3  2  0
  4 12  1  0
  4  3  1  0
  5  4  1  0
  6 11  2  0
  7  6  1  0
  7  8  2  0
  8  9  1  0
  9 10  2  0
 10  1  1  0
 11 10  1  0
 13 14  1  0
 13 12  1  0
 14 12  1  0
 15 16  1  0
 15 14  1  0
 17 15  1  0
 17 16  1  0
  2 18  1  0
  3 19  1  0
  6 20  1  0
  7 21  1  0
  8 22  1  0
 12 23  1  1
 13 24  1  0
 13 25  1  0
 14 26  1  1
 15 27  1  0
 16 28  1  0
 16 29  1  0
 17 30  1  0
 17 31  1  0
M  ISO  8  18  14  19  14  20  14  21  14  22  14  23  13  24  13  25  13
M  ISO  6  26  13  27  13  28  13  29  13  30  13  31  13
M  END
>  <minimizedAffinity>  (1) 
-4.78937769

>  <minimizedRMSD>  (1) 
1.58934045

$$$$
