
     RDKit          3D

 31 33  0  0  1  0  0  0  0  0999 V2000
   38.7000   28.8160   42.6360 C   0  0  0  0  0  0  0  0  0  0  0  0
   37.7940   28.1140   43.4540 C   0  0  0  0  0  0  0  0  0  0  0  0
   38.5390   27.0880   44.0180 C   0  0  0  0  0  0  0  0  0  0  0  0
   39.7930   27.1840   43.5600 N   0  0  0  0  0  0  0  0  0  0  0  0
   39.8870   28.2180   42.7340 N   0  0  0  0  0  0  0  0  0  0  0  0
   36.4970   31.1390   40.8290 C   0  0  0  0  0  0  0  0  0  0  0  0
   37.3780   32.1680   40.4610 C   0  0  0  0  0  0  0  0  0  0  0  0
   38.7170   32.0470   40.8400 C   0  0  0  0  0  0  0  0  0  0  0  0
   39.1190   30.9650   41.5350 N   0  0  0  0  0  0  0  0  0  0  0  0
   38.2430   29.9790   41.8800 C   0  0  0  0  0  0  0  0  0  0  0  0
   36.9400   30.0830   41.5200 N   0  0  0  0  0  0  0  0  0  0  0  0
   40.8510   26.2620   43.9510 C   0  0  2  0  0  0  0  0  0  0  0  0
   41.9660   26.8700   44.8620 C   0  0  0  0  0  0  0  0  0  0  0  0
   42.2390   26.4570   43.4540 C   0  0  1  0  0  0  0  0  0  0  0  0
   43.0850   25.3520   43.1420 N   0  0  0  0  0  0  0  0  0  0  0  0
   44.4730   25.3410   43.4400 C   0  0  0  0  0  0  0  0  0  0  0  0
   44.8440   25.9430   44.5240 N   0  0  0  0  0  0  0  0  0  0  0  0
   45.3800   24.6730   42.5400 N   0  0  0  0  0  0  0  0  0  0  0  0
   45.8800   25.9130   44.7120 H   0  0  0  0  0  0  0  0  0  0  0  0
   36.7273   28.3316   43.6117 H   0  0  0  0  0  0  0  0  0  0  0  0
   38.1642   26.3281   44.7194 H   0  0  0  0  0  0  0  0  0  0  0  0
   35.4355   31.2015   40.5473 H   0  0  0  0  0  0  0  0  0  0  0  0
   37.0254   33.0413   39.8926 H   0  0  0  0  0  0  0  0  0  0  0  0
   39.4400   32.8316   40.5722 H   0  0  0  0  0  0  0  0  0  0  0  0
   40.1648   25.4024   43.9657 H   0  0  0  0  0  0  0  0  0  0  0  0
   41.9414   27.9359   45.1328 H   0  0  0  0  0  0  0  0  0  0  0  0
   42.3922   26.6362   45.8488 H   0  0  0  0  0  0  0  0  0  0  0  0
   42.6690   26.9742   42.5836 H   0  0  0  0  0  0  0  0  0  0  0  0
   42.6721   24.5283   42.6817 H   0  0  0  0  0  0  0  0  0  0  0  0
   46.3895   24.6573   42.7440 H   0  0  0  0  0  0  0  0  0  0  0  0
   45.0185   24.2115   41.6931 H   0  0  0  0  0  0  0  0  0  0  0  0
  1  5  2  0
  1  2  1  0
  2  3  2  0
  4 12  1  0
  4  3  1  0
  5  4  1  0
  6 11  2  0
  7  6  1  0
  7  8  2  0
  8  9  1  0
  9 10  2  0
 10  1  1  0
 11 10  1  0
 12 13  1  0
 14 12  1  0
 14 13  1  0
 15 16  1  0
 15 14  1  0
 16 17  2  0
 17 19  1  0
 18 16  1  0
  2 20  1  0
  3 21  1  0
  6 22  1  0
  7 23  1  0
  8 24  1  0
 12 25  1  1
 13 26  1  0
 13 27  1  0
 14 28  1  6
 15 29  1  0
 18 30  1  0
 18 31  1  0
M  ISO  8  20  14  21  14  22  14  23  14  24  14  25  13  26  13  27  13
M  ISO  1  28  13
M  END
>  <minimizedAffinity>  (1) 
-4.76493931

>  <minimizedRMSD>  (1) 
0.987790644

$$$$
