
     RDKit          3D

 47 49  0  0  1  0  0  0  0  0999 V2000
   41.0030   32.1940   40.9080 C   0  0  0  0  0  0  0  0  0  0  0  0
   41.7370   33.0550   41.7230 C   0  0  0  0  0  0  0  0  0  0  0  0
   42.3110   34.0480   40.9080 C   0  0  0  0  0  0  0  0  0  0  0  0
   41.8750   33.7080   39.6600 C   0  0  0  0  0  0  0  0  0  0  0  0
   41.1370   32.6550   39.6930 O   0  0  0  0  0  0  0  0  0  0  0  0
   38.4910   29.4840   41.2650 C   0  0  0  0  0  0  0  0  0  0  0  0
   39.0520   28.6980   42.3300 C   0  0  0  0  0  0  0  0  0  0  0  0
   40.2550   29.1980   42.8160 C   0  0  0  0  0  0  0  0  0  0  0  0
   40.8300   30.3120   42.3270 N   0  0  0  0  0  0  0  0  0  0  0  0
   40.2370   31.0180   41.3040 C   0  0  0  0  0  0  0  0  0  0  0  0
   39.1000   30.5850   40.8120 N   0  0  0  0  0  0  0  0  0  0  0  0
   38.3870   27.5400   42.7880 N   0  0  0  0  0  0  0  0  0  0  0  0
   37.1300   27.5740   43.4440 C   0  0  0  0  0  0  0  0  0  0  0  0
   36.9400   28.5570   44.2930 N   0  0  0  0  0  0  0  0  0  0  0  0
   36.2060   26.5170   43.0970 N   0  0  0  0  0  0  0  0  0  0  0  0
   36.0670   28.6370   44.8240 H   0  0  0  0  0  0  0  0  0  0  0  0
   42.2440   34.4980   38.4700 C   0  0  0  0  0  0  0  0  0  0  0  0
   41.7130   33.8850   37.3140 F   0  0  0  0  0  0  0  0  0  0  0  0
   41.6630   35.7570   38.5460 F   0  0  0  0  0  0  0  0  0  0  0  0
   43.5890   34.5540   38.2720 F   0  0  0  0  0  0  0  0  0  0  0  0
   43.1620   35.0830   41.4740 C   0  0  0  0  0  0  0  0  0  0  0  0
   42.6660   36.1810   41.9890 O   0  0  0  0  0  0  0  0  0  0  0  0
   44.6440   35.1160   41.5980 C   0  0  0  0  0  0  0  0  0  0  0  0
   45.1820   33.7150   41.8890 C   0  0  0  0  0  0  0  0  0  0  0  0
   45.0900   33.3810   43.3670 C   0  0  0  0  0  0  0  0  0  0  0  0
   46.0190   34.2790   44.1810 C   0  0  0  0  0  0  0  0  0  0  0  0
   46.3960   35.5030   43.3370 C   0  0  0  0  0  0  0  0  0  0  0  0
   45.1140   36.0070   42.7580 C   0  0  0  0  0  0  0  0  0  0  0  0
   41.8481   32.9722   42.8142 H   0  0  0  0  0  0  0  0  0  0  0  0
   37.5383   29.1724   40.8120 H   0  0  0  0  0  0  0  0  0  0  0  0
   40.7574   28.6608   43.6339 H   0  0  0  0  0  0  0  0  0  0  0  0
   38.8368   26.6255   42.6384 H   0  0  0  0  0  0  0  0  0  0  0  0
   35.2752   26.4818   43.5365 H   0  0  0  0  0  0  0  0  0  0  0  0
   36.4788   25.7994   42.4103 H   0  0  0  0  0  0  0  0  0  0  0  0
   43.0901   34.6024   42.4609 H   0  0  0  0  0  0  0  0  0  0  0  0
   42.6921   36.1232   42.9770 H   0  0  0  0  0  0  0  0  0  0  0  0
   45.0188   35.5133   40.6432 H   0  0  0  0  0  0  0  0  0  0  0  0
   44.5940   32.9805   41.3191 H   0  0  0  0  0  0  0  0  0  0  0  0
   46.2408   33.6828   41.5926 H   0  0  0  0  0  0  0  0  0  0  0  0
   44.0545   33.5295   43.7072 H   0  0  0  0  0  0  0  0  0  0  0  0
   45.3926   32.3335   43.5129 H   0  0  0  0  0  0  0  0  0  0  0  0
   45.5059   34.6066   45.0972 H   0  0  0  0  0  0  0  0  0  0  0  0
   46.9274   33.7226   44.4554 H   0  0  0  0  0  0  0  0  0  0  0  0
   46.8614   36.2748   43.9676 H   0  0  0  0  0  0  0  0  0  0  0  0
   47.1222   35.2459   42.5517 H   0  0  0  0  0  0  0  0  0  0  0  0
   45.2657   37.0310   42.3860 H   0  0  0  0  0  0  0  0  0  0  0  0
   44.3451   35.9917   43.5445 H   0  0  0  0  0  0  0  0  0  0  0  0
  1 10  1  0
  1  2  2  0
  3 21  1  0
  3  2  1  0
  4  5  1  0
  4  3  2  0
  5  1  1  0
  6  7  2  0
  7 12  1  0
  7  8  1  0
  9  8  2  0
 10  9  1  0
 11  6  1  0
 11 10  2  0
 12 13  1  0
 13 14  2  0
 14 16  1  0
 15 13  1  0
 17 19  1  0
 17  4  1  0
 18 17  1  0
 20 17  1  0
 21 23  1  0
 21 22  1  0
 23 24  1  0
 23 28  1  0
 24 25  1  0
 25 26  1  0
 27 26  1  0
 28 27  1  0
  2 29  1  0
  6 30  1  0
  8 31  1  0
 12 32  1  0
 15 33  1  0
 15 34  1  0
 21 35  1  0
 22 36  1  0
 23 37  1  0
 24 38  1  0
 24 39  1  0
 25 40  1  0
 25 41  1  0
 26 42  1  0
 26 43  1  0
 27 44  1  0
 27 45  1  0
 28 46  1  0
 28 47  1  0
M  ISO  8  29  14  30  14  31  14  35   8  36   3  37  13  38  13  39  13
M  ISO  8  40  13  41  13  42  13  43  13  44  13  45  13  46  13  47  13
M  END
>  <minimizedAffinity>  (1) 
-5.2976594

>  <minimizedRMSD>  (1) 
2.51731992

$$$$
