
     RDKit          3D

 25 27  0  0  1  0  0  0  0  0999 V2000
   38.9340   28.6540   42.7080 C   0  0  0  0  0  0  0  0  0  0  0  0
   38.1480   27.6910   43.3570 C   0  0  0  0  0  0  0  0  0  0  0  0
   39.0790   26.8300   43.9390 C   0  0  0  0  0  0  0  0  0  0  0  0
   40.3120   27.2680   43.6450 N   0  0  0  0  0  0  0  0  0  0  0  0
   40.2210   28.3630   42.9050 N   0  0  0  0  0  0  0  0  0  0  0  0
   36.3310   30.7010   41.1160 C   0  0  0  0  0  0  0  0  0  0  0  0
   37.0640   31.7820   40.5910 C   0  0  0  0  0  0  0  0  0  0  0  0
   38.4410   31.7930   40.7910 C   0  0  0  0  0  0  0  0  0  0  0  0
   39.0190   30.7760   41.4760 N   0  0  0  0  0  0  0  0  0  0  0  0
   38.2910   29.7410   41.9730 C   0  0  0  0  0  0  0  0  0  0  0  0
   36.9360   29.7230   41.7800 N   0  0  0  0  0  0  0  0  0  0  0  0
   41.5220   26.5950   44.1010 C   0  0  2  0  0  0  0  0  0  0  0  0
   42.8610   27.2240   43.6320 C   0  0  0  0  0  0  0  0  0  0  0  0
   42.3840   25.8800   43.1360 C   0  0  1  0  0  0  0  0  0  0  0  0
   43.0510   24.7630   43.6020 O   0  0  0  0  0  0  0  0  0  0  0  0
   37.0505   27.6287   43.3979 H   0  0  0  0  0  0  0  0  0  0  0  0
   38.8411   25.9396   44.5394 H   0  0  0  0  0  0  0  0  0  0  0  0
   35.2408   30.6659   40.9741 H   0  0  0  0  0  0  0  0  0  0  0  0
   36.5641   32.5923   40.0401 H   0  0  0  0  0  0  0  0  0  0  0  0
   39.0536   32.6176   40.3977 H   0  0  0  0  0  0  0  0  0  0  0  0
   41.0582   26.3063   45.0558 H   0  0  0  0  0  0  0  0  0  0  0  0
   42.8612   28.0962   42.9617 H   0  0  0  0  0  0  0  0  0  0  0  0
   43.7674   27.6105   44.1209 H   0  0  0  0  0  0  0  0  0  0  0  0
   42.2206   25.4512   42.1363 H   0  0  0  0  0  0  0  0  0  0  0  0
   43.0489   24.7665   44.5920 H   0  0  0  0  0  0  0  0  0  0  0  0
  1  5  2  0
  1  2  1  0
  2  3  2  0
  4  3  1  0
  4 12  1  0
  5  4  1  0
  6 11  2  0
  7  8  2  0
  7  6  1  0
  8  9  1  0
  9 10  2  0
 10  1  1  0
 11 10  1  0
 13 12  1  0
 14 15  1  0
 14 13  1  0
 14 12  1  0
  2 16  1  0
  3 17  1  0
  6 18  1  0
  7 19  1  0
  8 20  1  0
 12 21  1  1
 13 22  1  0
 13 23  1  0
 14 24  1  6
 15 25  1  0
M  ISO  8  16  14  17  14  18  14  19  14  20  14  21  13  22  13  23  13
M  ISO  2  24  13  25   3
M  END
>  <minimizedAffinity>  (1) 
-4.68787575

>  <minimizedRMSD>  (1) 
0.350993603

$$$$
