
     RDKit          3D

 33 35  0  0  1  0  0  0  0  0999 V2000
   38.8380   29.3610   41.8550 C   0  0  0  0  0  0  0  0  0  0  0  0
   39.8870   29.8140   42.6610 C   0  0  0  0  0  0  0  0  0  0  0  0
   39.9950   31.1700   42.3650 C   0  0  0  0  0  0  0  0  0  0  0  0
   39.0700   31.4940   41.4460 N   0  0  0  0  0  0  0  0  0  0  0  0
   38.3730   30.3940   41.1400 N   0  0  0  0  0  0  0  0  0  0  0  0
   38.7330   25.8140   42.7740 C   0  0  0  0  0  0  0  0  0  0  0  0
   37.6670   25.3220   41.9750 C   0  0  0  0  0  0  0  0  0  0  0  0
   36.9910   26.2250   41.1230 C   0  0  0  0  0  0  0  0  0  0  0  0
   37.3930   27.5150   41.1100 N   0  0  0  0  0  0  0  0  0  0  0  0
   38.4130   27.9570   41.8810 C   0  0  0  0  0  0  0  0  0  0  0  0
   39.0850   27.1010   42.7170 N   0  0  0  0  0  0  0  0  0  0  0  0
   38.9370   32.8450   40.9350 C   0  0  2  0  0  0  0  0  0  0  0  0
   39.2450   32.9960   39.4160 C   0  0  0  0  0  0  0  0  0  0  0  0
   40.1700   33.5650   40.4790 C   0  0  1  0  0  0  0  0  0  0  0  0
   40.2370   35.0550   40.4800 C   0  0  0  0  0  0  0  0  0  0  0  0
   41.2320   35.4470   39.3810 C   0  0  0  0  0  0  0  0  0  0  0  0
   38.9240   35.7030   40.0690 C   0  0  0  0  0  0  0  0  0  0  0  0
   40.4916   29.2297   43.3702 H   0  0  0  0  0  0  0  0  0  0  0  0
   40.7213   31.8648   42.8119 H   0  0  0  0  0  0  0  0  0  0  0  0
   39.2729   25.1297   43.4450 H   0  0  0  0  0  0  0  0  0  0  0  0
   37.3741   24.2626   42.0181 H   0  0  0  0  0  0  0  0  0  0  0  0
   36.1596   25.8864   40.4873 H   0  0  0  0  0  0  0  0  0  0  0  0
   38.1164   33.1063   41.6193 H   0  0  0  0  0  0  0  0  0  0  0  0
   38.6384   33.6680   38.7912 H   0  0  0  0  0  0  0  0  0  0  0  0
   39.3534   32.3108   38.5623 H   0  0  0  0  0  0  0  0  0  0  0  0
   41.2227   33.4555   40.7786 H   0  0  0  0  0  0  0  0  0  0  0  0
   40.5039   35.3814   41.4960 H   0  0  0  0  0  0  0  0  0  0  0  0
   42.1614   35.8132   39.8415 H   0  0  0  0  0  0  0  0  0  0  0  0
   41.4534   34.5689   38.7566 H   0  0  0  0  0  0  0  0  0  0  0  0
   40.7949   36.2401   38.7566 H   0  0  0  0  0  0  0  0  0  0  0  0
   38.3561   35.9833   40.9684 H   0  0  0  0  0  0  0  0  0  0  0  0
   39.1306   36.6026   39.4707 H   0  0  0  0  0  0  0  0  0  0  0  0
   38.3356   34.9918   39.4707 H   0  0  0  0  0  0  0  0  0  0  0  0
  1 10  1  0
  1  2  1  0
  3  2  2  0
  4  3  1  0
  5  4  1  0
  5  1  2  0
  7  6  2  0
  8  7  1  0
  9  8  2  0
  9 10  1  0
 10 11  2  0
 11  6  1  0
 12  4  1  0
 13 14  1  0
 13 12  1  0
 14 15  1  0
 14 12  1  0
 16 15  1  0
 17 15  1  0
  2 18  1  0
  3 19  1  0
  6 20  1  0
  7 21  1  0
  8 22  1  0
 12 23  1  6
 13 24  1  0
 13 25  1  0
 14 26  1  1
 15 27  1  0
 16 28  1  0
 16 29  1  0
 16 30  1  0
 17 31  1  0
 17 32  1  0
 17 33  1  0
M  ISO  8  18  14  19  14  20  14  21  14  22  14  23  13  24  13  25  13
M  ISO  8  26  13  27   8  28   8  29   8  30   8  31   8  32   8  33   8
M  END
>  <minimizedAffinity>  (1) 
-4.32996702

>  <minimizedRMSD>  (1) 
7.04451895

$$$$
