
     RDKit          3D

 26 28  0  0  1  0  0  0  0  0999 V2000
   38.7920   28.7480   42.6900 C   0  0  0  0  0  0  0  0  0  0  0  0
   37.9710   27.8320   43.3590 C   0  0  0  0  0  0  0  0  0  0  0  0
   38.8520   26.9360   43.9600 C   0  0  0  0  0  0  0  0  0  0  0  0
   40.1060   27.2980   43.6670 N   0  0  0  0  0  0  0  0  0  0  0  0
   40.0630   28.3820   42.9060 N   0  0  0  0  0  0  0  0  0  0  0  0
   36.3320   30.8610   40.9900 C   0  0  0  0  0  0  0  0  0  0  0  0
   37.1250   31.9190   40.5010 C   0  0  0  0  0  0  0  0  0  0  0  0
   38.5080   31.8940   40.7630 C   0  0  0  0  0  0  0  0  0  0  0  0
   39.0230   30.8620   41.4700 N   0  0  0  0  0  0  0  0  0  0  0  0
   38.2240   29.8570   41.9270 C   0  0  0  0  0  0  0  0  0  0  0  0
   36.8750   29.8560   41.6860 N   0  0  0  0  0  0  0  0  0  0  0  0
   41.2530   26.5530   44.1530 C   0  0  2  0  0  0  0  0  0  0  0  0
   42.6200   26.9830   43.5290 C   0  0  0  0  0  0  0  0  0  0  0  0
   41.9890   25.6410   43.2220 C   0  0  2  0  0  0  0  0  0  0  0  0
   41.5350   25.5210   41.8470 N   0  0  0  0  0  0  0  0  0  0  0  0
   36.8718   27.8222   43.4008 H   0  0  0  0  0  0  0  0  0  0  0  0
   38.5634   26.0712   44.5756 H   0  0  0  0  0  0  0  0  0  0  0  0
   35.2492   30.8619   40.7961 H   0  0  0  0  0  0  0  0  0  0  0  0
   36.6744   32.7435   39.9290 H   0  0  0  0  0  0  0  0  0  0  0  0
   39.1600   32.7014   40.3983 H   0  0  0  0  0  0  0  0  0  0  0  0
   40.8260   26.4203   45.1580 H   0  0  0  0  0  0  0  0  0  0  0  0
   42.6563   27.7682   42.7595 H   0  0  0  0  0  0  0  0  0  0  0  0
   43.5899   27.3279   43.9167 H   0  0  0  0  0  0  0  0  0  0  0  0
   42.2790   24.5838   43.3130 H   0  0  0  0  0  0  0  0  0  0  0  0
   40.5393   25.2578   41.8359 H   0  0  0  0  0  0  0  0  0  0  0  0
   41.6570   26.4231   41.3652 H   0  0  0  0  0  0  0  0  0  0  0  0
  1  5  2  0
  1  2  1  0
  2  3  2  0
  4  3  1  0
  4 12  1  0
  5  4  1  0
  6 11  2  0
  7  8  2  0
  7  6  1  0
  8  9  1  0
  9 10  2  0
 10  1  1  0
 11 10  1  0
 13 12  1  0
 14 13  1  0
 14 12  1  0
 15 14  1  0
  2 16  1  0
  3 17  1  0
  6 18  1  0
  7 19  1  0
  8 20  1  0
 12 21  1  1
 13 22  1  0
 13 23  1  0
 14 24  1  1
 15 25  1  0
 15 26  1  0
M  ISO  8  16  14  17  14  18  14  19  14  20  14  21  13  22  13  23  13
M  ISO  3  24  13  25   5  26   5
M  END
>  <minimizedAffinity>  (1) 
-4.0911088

>  <minimizedRMSD>  (1) 
0.222962573

$$$$
