
     RDKit          3D

 46 51  0  0  1  0  0  0  0  0999 V2000
   40.0300   26.7160   43.9920 C   0  0  2  0  0  0  0  0  0  0  0  0
   41.2380   26.2680   43.1560 C   0  0  0  0  0  0  0  0  0  0  0  0
   40.0860   25.3510   43.3690 C   0  0  2  0  0  0  0  0  0  0  0  0
   39.1440   25.0140   42.2790 C   0  0  0  0  0  0  0  0  0  0  0  0
   38.4300   23.8280   42.3330 C   0  0  0  0  0  0  0  0  0  0  0  0
   37.6110   23.6300   41.2510 C   0  0  0  0  0  0  0  0  0  0  0  0
   37.4490   24.4460   40.1930 N   0  0  0  0  0  0  0  0  0  0  0  0
   38.1720   25.5860   40.1970 C   0  0  0  0  0  0  0  0  0  0  0  0
   38.9940   25.8490   41.2210 N   0  0  0  0  0  0  0  0  0  0  0  0
   38.1450   26.5780   39.1770 N   0  0  0  0  0  0  0  0  0  0  0  0
   39.0090   26.7240   38.1850 C   0  0  0  0  0  0  0  0  0  0  0  0
   38.7010   27.7620   37.3880 N   0  0  0  0  0  0  0  0  0  0  0  0
   37.5760   28.3330   37.8790 C   0  0  0  0  0  0  0  0  0  0  0  0
   36.7970   29.4060   37.5050 C   0  0  0  0  0  0  0  0  0  0  0  0
   37.2000   30.0090   36.4760 O   0  0  0  0  0  0  0  0  0  0  0  0
   35.6940   29.7500   38.2100 N   0  0  0  0  0  0  0  0  0  0  0  0
   35.3940   28.9910   39.3020 C   0  0  0  0  0  0  0  0  0  0  0  0
   34.2270   29.3890   40.0160 N   0  0  0  0  0  0  0  0  0  0  0  0
   36.1500   27.9390   39.6780 N   0  0  0  0  0  0  0  0  0  0  0  0
   37.2570   27.5730   38.9900 C   0  0  0  0  0  0  0  0  0  0  0  0
   38.4900   29.5190   42.3720 C   0  0  0  0  0  0  0  0  0  0  0  0
   37.3660   28.8840   42.9260 C   0  0  0  0  0  0  0  0  0  0  0  0
   37.8520   27.7660   43.5870 C   0  0  0  0  0  0  0  0  0  0  0  0
   39.1830   27.7480   43.4290 N   0  0  0  0  0  0  0  0  0  0  0  0
   39.5770   28.8000   42.6990 N   0  0  0  0  0  0  0  0  0  0  0  0
   37.0010   32.1230   40.2740 C   0  0  0  0  0  0  0  0  0  0  0  0
   38.0500   33.0530   40.1300 C   0  0  0  0  0  0  0  0  0  0  0  0
   39.2700   32.7650   40.7640 C   0  0  0  0  0  0  0  0  0  0  0  0
   39.3880   31.6170   41.4830 N   0  0  0  0  0  0  0  0  0  0  0  0
   38.3460   30.7430   41.5980 C   0  0  0  0  0  0  0  0  0  0  0  0
   37.1450   31.0020   40.9870 N   0  0  0  0  0  0  0  0  0  0  0  0
   39.8489   27.0857   45.0121 H   0  0  0  0  0  0  0  0  0  0  0  0
   42.2021   26.0649   43.6451 H   0  0  0  0  0  0  0  0  0  0  0  0
   41.7691   26.6632   42.2775 H   0  0  0  0  0  0  0  0  0  0  0  0
   40.0061   24.3182   43.7391 H   0  0  0  0  0  0  0  0  0  0  0  0
   38.5122   23.1130   43.1648 H   0  0  0  0  0  0  0  0  0  0  0  0
   37.0212   22.7015   41.2474 H   0  0  0  0  0  0  0  0  0  0  0  0
   39.8801   26.0703   38.0302 H   0  0  0  0  0  0  0  0  0  0  0  0
   35.1071   30.5500   37.9336 H   0  0  0  0  0  0  0  0  0  0  0  0
   33.9323   28.8665   40.8533 H   0  0  0  0  0  0  0  0  0  0  0  0
   33.6780   30.1992   39.6948 H   0  0  0  0  0  0  0  0  0  0  0  0
   36.3171   29.2069   42.8510 H   0  0  0  0  0  0  0  0  0  0  0  0
   37.2536   27.0276   44.1408 H   0  0  0  0  0  0  0  0  0  0  0  0
   36.0364   32.3256   39.7857 H   0  0  0  0  0  0  0  0  0  0  0  0
   37.9180   33.9728   39.5414 H   0  0  0  0  0  0  0  0  0  0  0  0
   40.1190   33.4593   40.6799 H   0  0  0  0  0  0  0  0  0  0  0  0
  2  3  1  0
  2  1  1  0
  3  1  1  0
  4  5  2  0
  4  3  1  0
  6  5  1  0
  7  8  1  0
  7  6  2  0
  8  9  2  0
  9  4  1  0
 10  8  1  0
 11 10  1  0
 12 13  1  0
 12 11  2  0
 13 20  2  0
 14 13  1  0
 14 16  1  0
 15 14  2  0
 16 17  1  0
 17 19  2  0
 17 18  1  0
 20 10  1  0
 20 19  1  0
 21 25  2  0
 21 22  1  0
 22 23  2  0
 24 23  1  0
 24  1  1  0
 25 24  1  0
 26 31  2  0
 27 26  1  0
 27 28  2  0
 28 29  1  0
 29 30  2  0
 30 21  1  0
 31 30  1  0
  1 32  1  1
  2 33  1  0
  2 34  1  0
  3 35  1  1
  5 36  1  0
  6 37  1  0
 11 38  1  0
 16 39  1  0
 18 40  1  0
 18 41  1  0
 22 42  1  0
 23 43  1  0
 26 44  1  0
 27 45  1  0
 28 46  1  0
M  ISO  8  32  13  33  13  34  13  35  13  36  14  37  14  38  14  39   9
M  ISO  5  42  14  43  14  44  14  45  14  46  14
M  END
>  <minimizedAffinity>  (1) 
-6.87610388

>  <minimizedRMSD>  (1) 
1.74620354

$$$$
