
     RDKit          3D

 46 51  0  0  1  0  0  0  0  0999 V2000
   39.8620   26.2010   43.7100 C   0  0  2  0  0  0  0  0  0  0  0  0
   40.9310   25.7550   42.7020 C   0  0  0  0  0  0  0  0  0  0  0  0
   39.7040   24.9410   42.9100 C   0  0  2  0  0  0  0  0  0  0  0  0
   38.6410   24.8630   41.8790 C   0  0  0  0  0  0  0  0  0  0  0  0
   37.5160   24.0920   42.1160 C   0  0  0  0  0  0  0  0  0  0  0  0
   36.6190   24.0830   41.0790 C   0  0  0  0  0  0  0  0  0  0  0  0
   36.7350   24.7280   39.9150 N   0  0  0  0  0  0  0  0  0  0  0  0
   37.8520   25.4670   39.7320 C   0  0  0  0  0  0  0  0  0  0  0  0
   38.7730   25.5220   40.7020 N   0  0  0  0  0  0  0  0  0  0  0  0
   38.0740   26.2150   38.4830 C   0  0  0  0  0  0  0  0  0  0  0  0
   38.9800   25.9270   37.4800 C   0  0  0  0  0  0  0  0  0  0  0  0
   38.8480   26.8710   36.5200 N   0  0  0  0  0  0  0  0  0  0  0  0
   37.8880   27.7350   36.8940 C   0  0  0  0  0  0  0  0  0  0  0  0
   37.3560   28.8710   36.2990 C   0  0  0  0  0  0  0  0  0  0  0  0
   36.3520   29.6120   36.8910 C   0  0  0  0  0  0  0  0  0  0  0  0
   35.8340   29.2440   38.1180 C   0  0  0  0  0  0  0  0  0  0  0  0
   36.3590   28.1160   38.7160 C   0  0  0  0  0  0  0  0  0  0  0  0
   37.3610   27.3650   38.1370 C   0  0  0  0  0  0  0  0  0  0  0  0
   38.4640   29.2730   42.5000 C   0  0  0  0  0  0  0  0  0  0  0  0
   37.4480   28.8470   43.3750 C   0  0  0  0  0  0  0  0  0  0  0  0
   37.8890   27.6470   43.9080 C   0  0  0  0  0  0  0  0  0  0  0  0
   39.0950   27.3860   43.3740 N   0  0  0  0  0  0  0  0  0  0  0  0
   39.4480   28.3520   42.5310 N   0  0  0  0  0  0  0  0  0  0  0  0
   37.0280   31.9260   40.4240 C   0  0  0  0  0  0  0  0  0  0  0  0
   38.0670   32.8680   40.3500 C   0  0  0  0  0  0  0  0  0  0  0  0
   39.2670   32.5750   41.0230 C   0  0  0  0  0  0  0  0  0  0  0  0
   39.3690   31.4100   41.7070 N   0  0  0  0  0  0  0  0  0  0  0  0
   38.3340   30.5180   41.7580 C   0  0  0  0  0  0  0  0  0  0  0  0
   37.1520   30.7760   41.1100 N   0  0  0  0  0  0  0  0  0  0  0  0
   39.8149   26.4376   44.7832 H   0  0  0  0  0  0  0  0  0  0  0  0
   41.9043   25.3860   43.0576 H   0  0  0  0  0  0  0  0  0  0  0  0
   41.4249   26.2147   41.8332 H   0  0  0  0  0  0  0  0  0  0  0  0
   39.5344   23.8810   43.1500 H   0  0  0  0  0  0  0  0  0  0  0  0
   37.3561   23.5366   43.0519 H   0  0  0  0  0  0  0  0  0  0  0  0
   35.7087   23.4818   41.2204 H   0  0  0  0  0  0  0  0  0  0  0  0
   39.6830   25.0811   37.4649 H   0  0  0  0  0  0  0  0  0  0  0  0
   39.3927   26.9198   35.6472 H   0  0  0  0  0  0  0  0  0  0  0  0
   37.7476   29.1919   35.3225 H   0  0  0  0  0  0  0  0  0  0  0  0
   35.9607   30.5043   36.3804 H   0  0  0  0  0  0  0  0  0  0  0  0
   35.0348   29.8269   38.5993 H   0  0  0  0  0  0  0  0  0  0  0  0
   35.9625   27.8034   39.6933 H   0  0  0  0  0  0  0  0  0  0  0  0
   36.4996   29.3606   43.5911 H   0  0  0  0  0  0  0  0  0  0  0  0
   37.3507   27.0216   44.6355 H   0  0  0  0  0  0  0  0  0  0  0  0
   36.0818   32.1357   39.9038 H   0  0  0  0  0  0  0  0  0  0  0  0
   37.9464   33.8038   39.7846 H   0  0  0  0  0  0  0  0  0  0  0  0
   40.1099   33.2812   40.9943 H   0  0  0  0  0  0  0  0  0  0  0  0
  2  3  1  0
  2  1  1  0
  3  1  1  0
  4  5  2  0
  4  3  1  0
  6  5  1  0
  7  6  2  0
  8  7  1  0
  8  9  2  0
  9  4  1  0
 10  8  1  0
 11 10  2  0
 12 13  1  0
 12 11  1  0
 13 18  2  0
 14 15  2  0
 14 13  1  0
 15 16  1  0
 16 17  2  0
 18 10  1  0
 18 17  1  0
 19 23  2  0
 19 20  1  0
 20 21  2  0
 22  1  1  0
 22 21  1  0
 23 22  1  0
 24 29  2  0
 25 24  1  0
 25 26  2  0
 26 27  1  0
 27 28  2  0
 28 19  1  0
 29 28  1  0
  1 30  1  1
  2 31  1  0
  2 32  1  0
  3 33  1  1
  5 34  1  0
  6 35  1  0
 11 36  1  0
 12 37  1  0
 14 38  1  0
 15 39  1  0
 16 40  1  0
 17 41  1  0
 20 42  1  0
 21 43  1  0
 24 44  1  0
 25 45  1  0
 26 46  1  0
M  ISO  8  30  13  31  13  32  13  33  13  34  14  35  14  36  14  37   9
M  ISO  8  38  14  39  14  40  14  41  14  42  14  43  14  44  14  45  14
M  ISO  1  46  14
M  END
>  <minimizedAffinity>  (1) 
-6.21612024

>  <minimizedRMSD>  (1) 
0.989970148

$$$$
