
     RDKit          3D

 42 46  0  0  1  0  0  0  0  0999 V2000
   39.8030   26.2530   43.8220 C   0  0  2  0  0  0  0  0  0  0  0  0
   40.9000   25.7820   42.8550 C   0  0  0  0  0  0  0  0  0  0  0  0
   39.6630   24.9790   43.0400 C   0  0  2  0  0  0  0  0  0  0  0  0
   38.6280   24.8870   41.9700 C   0  0  0  0  0  0  0  0  0  0  0  0
   37.5070   24.1070   42.1940 C   0  0  0  0  0  0  0  0  0  0  0  0
   36.6400   24.0890   41.1300 C   0  0  0  0  0  0  0  0  0  0  0  0
   36.7790   24.7290   39.9540 N   0  0  0  0  0  0  0  0  0  0  0  0
   37.8950   25.4740   39.7990 C   0  0  0  0  0  0  0  0  0  0  0  0
   38.7940   25.5410   40.7990 N   0  0  0  0  0  0  0  0  0  0  0  0
   38.0810   26.1830   38.5350 C   0  0  0  0  0  0  0  0  0  0  0  0
   38.7560   25.6220   37.4810 C   0  0  0  0  0  0  0  0  0  0  0  0
   38.8840   26.3630   36.3270 C   0  0  0  0  0  0  0  0  0  0  0  0
   38.3620   27.6440   36.1890 C   0  0  0  0  0  0  0  0  0  0  0  0
   37.6750   28.2130   37.2660 C   0  0  0  0  0  0  0  0  0  0  0  0
   37.5520   27.4520   38.4290 C   0  0  0  0  0  0  0  0  0  0  0  0
   38.4690   29.3160   42.5220 C   0  0  0  0  0  0  0  0  0  0  0  0
   37.4130   28.8990   43.3490 C   0  0  0  0  0  0  0  0  0  0  0  0
   37.8260   27.7040   43.9110 C   0  0  0  0  0  0  0  0  0  0  0  0
   39.0560   27.4360   43.4390 N   0  0  0  0  0  0  0  0  0  0  0  0
   39.4440   28.3970   42.6080 N   0  0  0  0  0  0  0  0  0  0  0  0
   37.1330   31.9580   40.3660 C   0  0  0  0  0  0  0  0  0  0  0  0
   38.1820   32.8950   40.3240 C   0  0  0  0  0  0  0  0  0  0  0  0
   39.3540   32.6020   41.0500 C   0  0  0  0  0  0  0  0  0  0  0  0
   39.4190   31.4400   41.7480 N   0  0  0  0  0  0  0  0  0  0  0  0
   38.3770   30.5550   41.7640 C   0  0  0  0  0  0  0  0  0  0  0  0
   37.2250   30.8170   41.0660 N   0  0  0  0  0  0  0  0  0  0  0  0
   39.7232   26.5091   44.8888 H   0  0  0  0  0  0  0  0  0  0  0  0
   41.8597   25.4143   43.2470 H   0  0  0  0  0  0  0  0  0  0  0  0
   41.4229   26.2228   41.9934 H   0  0  0  0  0  0  0  0  0  0  0  0
   39.4791   23.9249   43.2950 H   0  0  0  0  0  0  0  0  0  0  0  0
   37.3288   23.5571   43.1299 H   0  0  0  0  0  0  0  0  0  0  0  0
   35.7296   23.4838   41.2520 H   0  0  0  0  0  0  0  0  0  0  0  0
   39.1823   24.6107   37.5551 H   0  0  0  0  0  0  0  0  0  0  0  0
   39.4236   25.9212   35.4763 H   0  0  0  0  0  0  0  0  0  0  0  0
   38.4872   28.2007   35.2485 H   0  0  0  0  0  0  0  0  0  0  0  0
   37.2470   29.2241   37.1987 H   0  0  0  0  0  0  0  0  0  0  0  0
   37.0155   27.8783   39.2895 H   0  0  0  0  0  0  0  0  0  0  0  0
   36.4561   29.4154   43.5154 H   0  0  0  0  0  0  0  0  0  0  0  0
   37.2519   27.0852   44.6163 H   0  0  0  0  0  0  0  0  0  0  0  0
   36.2087   32.1675   39.8075 H   0  0  0  0  0  0  0  0  0  0  0  0
   38.0904   33.8251   39.7439 H   0  0  0  0  0  0  0  0  0  0  0  0
   40.2015   33.3032   41.0508 H   0  0  0  0  0  0  0  0  0  0  0  0
  2  3  1  0
  2  1  1  0
  3  1  1  0
  4  5  2  0
  4  3  1  0
  6  5  1  0
  7  6  2  0
  8  7  1  0
  8  9  2  0
  9  4  1  0
 10  8  1  0
 11 10  2  0
 12 11  1  0
 13 12  2  0
 13 14  1  0
 14 15  2  0
 15 10  1  0
 16 20  2  0
 16 17  1  0
 17 18  2  0
 19  1  1  0
 19 18  1  0
 20 19  1  0
 21 26  2  0
 22 21  1  0
 22 23  2  0
 23 24  1  0
 24 25  2  0
 25 16  1  0
 26 25  1  0
  1 27  1  1
  2 28  1  0
  2 29  1  0
  3 30  1  1
  5 31  1  0
  6 32  1  0
 11 33  1  0
 12 34  1  0
 13 35  1  0
 14 36  1  0
 15 37  1  0
 17 38  1  0
 18 39  1  0
 21 40  1  0
 22 41  1  0
 23 42  1  0
M  ISO  8  27  13  28  13  29  13  30  13  31  14  32  14  33  14  34  14
M  ISO  8  35  14  36  14  37  14  38  14  39  14  40  14  41  14  42  14
M  END
>  <minimizedAffinity>  (1) 
-5.66359854

>  <minimizedRMSD>  (1) 
0.64656651

$$$$
