
     RDKit          3D

 39 42  0  0  1  0  0  0  0  0999 V2000
   39.8800   26.1960   43.9310 C   0  0  2  0  0  0  0  0  0  0  0  0
   41.0590   25.8040   43.0310 C   0  0  0  0  0  0  0  0  0  0  0  0
   39.8600   24.9280   43.1250 C   0  0  2  0  0  0  0  0  0  0  0  0
   38.9010   24.7910   42.0100 C   0  0  0  0  0  0  0  0  0  0  0  0
   37.6470   24.2530   42.2430 C   0  0  0  0  0  0  0  0  0  0  0  0
   36.8680   24.1660   41.1150 C   0  0  0  0  0  0  0  0  0  0  0  0
   37.2040   24.5420   39.8630 N   0  0  0  0  0  0  0  0  0  0  0  0
   38.4400   25.0590   39.7010 C   0  0  0  0  0  0  0  0  0  0  0  0
   39.2530   25.1740   40.7570 N   0  0  0  0  0  0  0  0  0  0  0  0
   38.8660   25.4790   38.4100 N   0  0  0  0  0  0  0  0  0  0  0  0
   37.9730   26.2500   37.6020 C   0  0  0  0  0  0  0  0  0  0  0  0
   36.9890   26.8200   38.2130 N   0  0  0  0  0  0  0  0  0  0  0  0
   38.2610   26.3090   36.2150 N   0  0  0  0  0  0  0  0  0  0  0  0
   36.2840   27.4020   37.7210 H   0  0  0  0  0  0  0  0  0  0  0  0
   38.4420   29.1860   42.5760 C   0  0  0  0  0  0  0  0  0  0  0  0
   37.3800   28.7220   43.3680 C   0  0  0  0  0  0  0  0  0  0  0  0
   37.8320   27.5470   43.9500 C   0  0  0  0  0  0  0  0  0  0  0  0
   39.0850   27.3370   43.5240 N   0  0  0  0  0  0  0  0  0  0  0  0
   39.4610   28.3180   42.6970 N   0  0  0  0  0  0  0  0  0  0  0  0
   37.0150   31.7890   40.4420 C   0  0  0  0  0  0  0  0  0  0  0  0
   38.0560   32.7380   40.3490 C   0  0  0  0  0  0  0  0  0  0  0  0
   39.2540   32.4580   41.0360 C   0  0  0  0  0  0  0  0  0  0  0  0
   39.3520   31.3070   41.7450 N   0  0  0  0  0  0  0  0  0  0  0  0
   38.3180   30.4170   41.8070 C   0  0  0  0  0  0  0  0  0  0  0  0
   37.1400   30.6670   41.1460 N   0  0  0  0  0  0  0  0  0  0  0  0
   39.7236   26.4322   44.9939 H   0  0  0  0  0  0  0  0  0  0  0  0
   42.0115   25.4843   43.4787 H   0  0  0  0  0  0  0  0  0  0  0  0
   41.6089   26.2883   42.2106 H   0  0  0  0  0  0  0  0  0  0  0  0
   39.7246   23.8597   43.3496 H   0  0  0  0  0  0  0  0  0  0  0  0
   37.3068   23.9263   43.2367 H   0  0  0  0  0  0  0  0  0  0  0  0
   35.8607   23.7440   41.2463 H   0  0  0  0  0  0  0  0  0  0  0  0
   39.8035   25.2314   38.0627 H   0  0  0  0  0  0  0  0  0  0  0  0
   39.0794   25.8105   35.8373 H   0  0  0  0  0  0  0  0  0  0  0  0
   37.6518   26.8503   35.5851 H   0  0  0  0  0  0  0  0  0  0  0  0
   36.3944   29.1924   43.4997 H   0  0  0  0  0  0  0  0  0  0  0  0
   37.2640   26.9032   44.6377 H   0  0  0  0  0  0  0  0  0  0  0  0
   36.0693   31.9836   39.9150 H   0  0  0  0  0  0  0  0  0  0  0  0
   37.9365   33.6609   39.7625 H   0  0  0  0  0  0  0  0  0  0  0  0
   40.0973   33.1632   40.9975 H   0  0  0  0  0  0  0  0  0  0  0  0
  2  3  1  0
  2  1  1  0
  3  1  1  0
  4  5  2  0
  4  3  1  0
  6  5  1  0
  7  6  2  0
  8  7  1  0
  8  9  2  0
  9  4  1  0
 10  8  1  0
 11 12  2  0
 11 10  1  0
 13 11  1  0
 14 12  1  0
 15 19  2  0
 15 16  1  0
 16 17  2  0
 18  1  1  0
 18 17  1  0
 19 18  1  0
 20 25  2  0
 21 20  1  0
 21 22  2  0
 22 23  1  0
 23 24  2  0
 24 15  1  0
 25 24  1  0
  1 26  1  1
  2 27  1  0
  2 28  1  0
  3 29  1  1
  5 30  1  0
  6 31  1  0
 10 32  1  0
 13 33  1  0
 13 34  1  0
 16 35  1  0
 17 36  1  0
 20 37  1  0
 21 38  1  0
 22 39  1  0
M  ISO  8  26  13  27  13  28  13  29  13  30  14  31  14  35  14  36  14
M  ISO  3  37  14  38  14  39  14
M  END
>  <minimizedAffinity>  (1) 
-5.6154623

>  <minimizedRMSD>  (1) 
0.0928532928

$$$$
