
     RDKit          3D

 40 44  0  0  1  0  0  0  0  0999 V2000
   39.7970   26.2560   43.8510 C   0  0  2  0  0  0  0  0  0  0  0  0
   40.9040   25.7870   42.8940 C   0  0  0  0  0  0  0  0  0  0  0  0
   39.6660   24.9800   43.0680 C   0  0  2  0  0  0  0  0  0  0  0  0
   38.6500   24.8880   41.9900 C   0  0  0  0  0  0  0  0  0  0  0  0
   37.5250   24.1080   42.1880 C   0  0  0  0  0  0  0  0  0  0  0  0
   36.6690   24.0850   41.1110 C   0  0  0  0  0  0  0  0  0  0  0  0
   36.8360   24.7310   39.9390 N   0  0  0  0  0  0  0  0  0  0  0  0
   37.9530   25.4780   39.8020 C   0  0  0  0  0  0  0  0  0  0  0  0
   38.8240   25.5400   40.8150 N   0  0  0  0  0  0  0  0  0  0  0  0
   38.2400   26.2230   38.5760 C   0  0  0  0  0  0  0  0  0  0  0  0
   38.5280   25.5420   37.4020 C   0  0  0  0  0  0  0  0  0  0  0  0
   38.7930   26.2940   36.2740 C   0  0  0  0  0  0  0  0  0  0  0  0
   38.7680   27.6450   36.3230 N   0  0  0  0  0  0  0  0  0  0  0  0
   38.4870   28.3130   37.4680 C   0  0  0  0  0  0  0  0  0  0  0  0
   38.2330   27.5560   38.5510 N   0  0  0  0  0  0  0  0  0  0  0  0
   38.4620   29.3100   42.5320 C   0  0  0  0  0  0  0  0  0  0  0  0
   37.4070   28.9020   43.3580 C   0  0  0  0  0  0  0  0  0  0  0  0
   37.8190   27.7070   43.9290 C   0  0  0  0  0  0  0  0  0  0  0  0
   39.0480   27.4370   43.4600 N   0  0  0  0  0  0  0  0  0  0  0  0
   39.4410   28.3940   42.6210 N   0  0  0  0  0  0  0  0  0  0  0  0
   37.1290   31.9460   40.3650 C   0  0  0  0  0  0  0  0  0  0  0  0
   38.1810   32.8720   40.3060 C   0  0  0  0  0  0  0  0  0  0  0  0
   39.3560   32.5790   41.0220 C   0  0  0  0  0  0  0  0  0  0  0  0
   39.4230   31.4240   41.7330 N   0  0  0  0  0  0  0  0  0  0  0  0
   38.3730   30.5450   41.7650 C   0  0  0  0  0  0  0  0  0  0  0  0
   37.2160   30.8110   41.0730 N   0  0  0  0  0  0  0  0  0  0  0  0
   39.7084   26.5132   44.9168 H   0  0  0  0  0  0  0  0  0  0  0  0
   41.8610   25.4217   43.2949 H   0  0  0  0  0  0  0  0  0  0  0  0
   41.4336   26.2287   42.0370 H   0  0  0  0  0  0  0  0  0  0  0  0
   39.4801   23.9263   43.3234 H   0  0  0  0  0  0  0  0  0  0  0  0
   37.3325   23.5570   43.1204 H   0  0  0  0  0  0  0  0  0  0  0  0
   35.7571   23.4790   41.2165 H   0  0  0  0  0  0  0  0  0  0  0  0
   38.5447   24.4426   37.3706 H   0  0  0  0  0  0  0  0  0  0  0  0
   39.0269   25.7883   35.3256 H   0  0  0  0  0  0  0  0  0  0  0  0
   38.4676   29.4120   37.5097 H   0  0  0  0  0  0  0  0  0  0  0  0
   36.4509   29.4212   43.5201 H   0  0  0  0  0  0  0  0  0  0  0  0
   37.2438   27.0924   44.6371 H   0  0  0  0  0  0  0  0  0  0  0  0
   36.2021   32.1582   39.8121 H   0  0  0  0  0  0  0  0  0  0  0  0
   38.0901   33.7976   39.7187 H   0  0  0  0  0  0  0  0  0  0  0  0
   40.2076   33.2750   41.0061 H   0  0  0  0  0  0  0  0  0  0  0  0
  2  3  1  0
  2  1  1  0
  3  1  1  0
  4  5  2  0
  4  3  1  0
  6  5  1  0
  7  6  2  0
  8  7  1  0
  8  9  2  0
  9  4  1  0
 10  8  1  0
 11 10  2  0
 12 13  2  0
 12 11  1  0
 13 14  1  0
 14 15  2  0
 15 10  1  0
 16 20  2  0
 16 17  1  0
 17 18  2  0
 19  1  1  0
 19 18  1  0
 20 19  1  0
 21 26  2  0
 22 21  1  0
 22 23  2  0
 23 24  1  0
 24 25  2  0
 25 16  1  0
 26 25  1  0
  1 27  1  1
  2 28  1  0
  2 29  1  0
  3 30  1  1
  5 31  1  0
  6 32  1  0
 11 33  1  0
 12 34  1  0
 14 35  1  0
 17 36  1  0
 18 37  1  0
 21 38  1  0
 22 39  1  0
 23 40  1  0
M  ISO  8  27  13  28  13  29  13  30  13  31  14  32  14  33  14  34  14
M  ISO  6  35  14  36  14  37  14  38  14  39  14  40  14
M  END
>  <minimizedAffinity>  (1) 
-5.56801605

>  <minimizedRMSD>  (1) 
0.623349249

$$$$
