
     RDKit          3D

 39 43  0  0  1  0  0  0  0  0999 V2000
   39.8200   26.2380   43.8620 C   0  0  2  0  0  0  0  0  0  0  0  0
   40.9390   25.7870   42.9130 C   0  0  0  0  0  0  0  0  0  0  0  0
   39.7110   24.9640   43.0750 C   0  0  2  0  0  0  0  0  0  0  0  0
   38.6980   24.8600   41.9950 C   0  0  0  0  0  0  0  0  0  0  0  0
   37.5360   24.1420   42.2200 C   0  0  0  0  0  0  0  0  0  0  0  0
   36.6930   24.1040   41.1400 C   0  0  0  0  0  0  0  0  0  0  0  0
   36.8860   24.6750   39.9410 N   0  0  0  0  0  0  0  0  0  0  0  0
   38.0390   25.3620   39.7810 C   0  0  0  0  0  0  0  0  0  0  0  0
   38.9170   25.4470   40.7910 N   0  0  0  0  0  0  0  0  0  0  0  0
   38.4670   26.0630   38.5740 C   0  0  0  0  0  0  0  0  0  0  0  0
   39.1470   25.5340   37.4660 C   0  0  0  0  0  0  0  0  0  0  0  0
   39.4430   26.3860   36.4480 C   0  0  0  0  0  0  0  0  0  0  0  0
   39.0620   27.6950   36.5690 C   0  0  0  0  0  0  0  0  0  0  0  0
   38.2630   27.8590   38.0980 S   0  0  0  0  0  0  0  0  0  0  0  0
   38.4550   29.2780   42.5380 C   0  0  0  0  0  0  0  0  0  0  0  0
   37.4030   28.8590   43.3730 C   0  0  0  0  0  0  0  0  0  0  0  0
   37.8310   27.6710   43.9440 C   0  0  0  0  0  0  0  0  0  0  0  0
   39.0610   27.4110   43.4720 N   0  0  0  0  0  0  0  0  0  0  0  0
   39.4340   28.3690   42.6320 N   0  0  0  0  0  0  0  0  0  0  0  0
   37.0810   31.8890   40.3650 C   0  0  0  0  0  0  0  0  0  0  0  0
   38.1180   32.8310   40.3130 C   0  0  0  0  0  0  0  0  0  0  0  0
   39.2980   32.5580   41.0340 C   0  0  0  0  0  0  0  0  0  0  0  0
   39.3790   31.4030   41.7430 N   0  0  0  0  0  0  0  0  0  0  0  0
   38.3470   30.5090   41.7700 C   0  0  0  0  0  0  0  0  0  0  0  0
   37.1840   30.7480   41.0750 N   0  0  0  0  0  0  0  0  0  0  0  0
   39.7194   26.4900   44.9280 H   0  0  0  0  0  0  0  0  0  0  0  0
   41.8976   25.4328   43.3200 H   0  0  0  0  0  0  0  0  0  0  0  0
   41.4693   26.2383   42.0615 H   0  0  0  0  0  0  0  0  0  0  0  0
   39.5395   23.9062   43.3231 H   0  0  0  0  0  0  0  0  0  0  0  0
   37.3103   23.6480   43.1765 H   0  0  0  0  0  0  0  0  0  0  0  0
   35.7553   23.5440   41.2703 H   0  0  0  0  0  0  0  0  0  0  0  0
   39.4295   24.4718   37.4226 H   0  0  0  0  0  0  0  0  0  0  0  0
   39.9741   26.0327   35.5519 H   0  0  0  0  0  0  0  0  0  0  0  0
   39.2315   28.4944   35.8326 H   0  0  0  0  0  0  0  0  0  0  0  0
   36.4419   29.3679   43.5381 H   0  0  0  0  0  0  0  0  0  0  0  0
   37.2649   27.0523   44.6559 H   0  0  0  0  0  0  0  0  0  0  0  0
   36.1533   32.0875   39.8083 H   0  0  0  0  0  0  0  0  0  0  0  0
   38.0138   33.7559   39.7268 H   0  0  0  0  0  0  0  0  0  0  0  0
   40.1381   33.2680   41.0224 H   0  0  0  0  0  0  0  0  0  0  0  0
  2  3  1  0
  2  1  1  0
  3  1  1  0
  4  5  2  0
  4  3  1  0
  6  5  1  0
  7  6  2  0
  8  7  1  0
  8  9  2  0
  9  4  1  0
 10  8  1  0
 11 10  2  0
 12 13  2  0
 12 11  1  0
 13 14  1  0
 14 10  1  0
 15 19  2  0
 15 16  1  0
 16 17  2  0
 18  1  1  0
 18 17  1  0
 19 18  1  0
 20 25  2  0
 21 20  1  0
 21 22  2  0
 22 23  1  0
 23 24  2  0
 24 15  1  0
 25 24  1  0
  1 26  1  1
  2 27  1  0
  2 28  1  0
  3 29  1  1
  5 30  1  0
  6 31  1  0
 11 32  1  0
 12 33  1  0
 13 34  1  0
 16 35  1  0
 17 36  1  0
 20 37  1  0
 21 38  1  0
 22 39  1  0
M  ISO  8  26  13  27  13  28  13  29  13  30  14  31  14  32  14  33  14
M  ISO  6  34  14  35  14  36  14  37  14  38  14  39  14
M  END
>  <minimizedAffinity>  (1) 
-5.49196482

>  <minimizedRMSD>  (1) 
0.433164626

$$$$
