
     RDKit          3D

 34 37  0  0  1  0  0  0  0  0999 V2000
   39.8780   26.1950   43.9060 C   0  0  2  0  0  0  0  0  0  0  0  0
   41.0310   25.7830   42.9810 C   0  0  0  0  0  0  0  0  0  0  0  0
   39.8260   24.9210   43.1140 C   0  0  2  0  0  0  0  0  0  0  0  0
   38.8440   24.7920   41.9970 C   0  0  0  0  0  0  0  0  0  0  0  0
   37.6010   24.2480   42.2710 C   0  0  0  0  0  0  0  0  0  0  0  0
   36.7910   24.1630   41.1640 C   0  0  0  0  0  0  0  0  0  0  0  0
   37.0880   24.5390   39.9170 N   0  0  0  0  0  0  0  0  0  0  0  0
   38.3190   25.0630   39.7130 C   0  0  0  0  0  0  0  0  0  0  0  0
   39.1660   25.1790   40.7490 N   0  0  0  0  0  0  0  0  0  0  0  0
   38.6350   25.4620   38.3920 N   0  0  0  0  0  0  0  0  0  0  0  0
   38.4480   29.1970   42.5650 C   0  0  0  0  0  0  0  0  0  0  0  0
   37.3860   28.7390   43.3680 C   0  0  0  0  0  0  0  0  0  0  0  0
   37.8380   27.5600   43.9450 C   0  0  0  0  0  0  0  0  0  0  0  0
   39.0900   27.3450   43.5020 N   0  0  0  0  0  0  0  0  0  0  0  0
   39.4650   28.3220   42.6740 N   0  0  0  0  0  0  0  0  0  0  0  0
   37.0180   31.8070   40.4330 C   0  0  0  0  0  0  0  0  0  0  0  0
   38.0590   32.7560   40.3490 C   0  0  0  0  0  0  0  0  0  0  0  0
   39.2520   32.4760   41.0360 C   0  0  0  0  0  0  0  0  0  0  0  0
   39.3530   31.3200   41.7450 N   0  0  0  0  0  0  0  0  0  0  0  0
   38.3210   30.4290   41.8000 C   0  0  0  0  0  0  0  0  0  0  0  0
   37.1420   30.6740   41.1390 N   0  0  0  0  0  0  0  0  0  0  0  0
   39.7467   26.4404   44.9702 H   0  0  0  0  0  0  0  0  0  0  0  0
   41.9912   25.4580   43.4081 H   0  0  0  0  0  0  0  0  0  0  0  0
   41.5653   26.2536   42.1425 H   0  0  0  0  0  0  0  0  0  0  0  0
   39.6781   23.8590   43.3594 H   0  0  0  0  0  0  0  0  0  0  0  0
   37.2926   23.9171   43.2737 H   0  0  0  0  0  0  0  0  0  0  0  0
   35.7884   23.7390   41.3221 H   0  0  0  0  0  0  0  0  0  0  0  0
   39.5588   25.8668   38.1834 H   0  0  0  0  0  0  0  0  0  0  0  0
   37.9411   25.3475   37.6395 H   0  0  0  0  0  0  0  0  0  0  0  0
   36.4045   29.2153   43.5086 H   0  0  0  0  0  0  0  0  0  0  0  0
   37.2748   26.9182   44.6384 H   0  0  0  0  0  0  0  0  0  0  0  0
   36.0747   32.0031   39.9023 H   0  0  0  0  0  0  0  0  0  0  0  0
   37.9406   33.6816   39.7666 H   0  0  0  0  0  0  0  0  0  0  0  0
   40.0939   33.1830   41.0008 H   0  0  0  0  0  0  0  0  0  0  0  0
  2  3  1  0
  2  1  1  0
  3  1  1  0
  4  5  2  0
  4  3  1  0
  6  5  1  0
  7  6  2  0
  8  7  1  0
  8  9  2  0
  9  4  1  0
 10  8  1  0
 11 15  2  0
 11 12  1  0
 12 13  2  0
 14  1  1  0
 14 13  1  0
 15 14  1  0
 16 21  2  0
 17 16  1  0
 17 18  2  0
 18 19  1  0
 19 20  2  0
 20 11  1  0
 21 20  1  0
  1 22  1  1
  2 23  1  0
  2 24  1  0
  3 25  1  1
  5 26  1  0
  6 27  1  0
 10 28  1  0
 10 29  1  0
 12 30  1  0
 13 31  1  0
 16 32  1  0
 17 33  1  0
 18 34  1  0
M  ISO  8  22  13  23  13  24  13  25  13  26  14  27  14  30  14  31  14
M  ISO  3  32  14  33  14  34  14
M  END
>  <minimizedAffinity>  (1) 
-5.29174566

>  <minimizedRMSD>  (1) 
0.00879713148

$$$$
