
     RDKit          3D

 44 47  0  0  1  0  0  0  0  0999 V2000
   39.8510   26.2090   43.9150 C   0  0  2  0  0  0  0  0  0  0  0  0
   41.0020   25.7820   42.9920 C   0  0  0  0  0  0  0  0  0  0  0  0
   39.7920   24.9310   43.1300 C   0  0  2  0  0  0  0  0  0  0  0  0
   38.8040   24.7980   42.0320 C   0  0  0  0  0  0  0  0  0  0  0  0
   37.5560   24.2600   42.2930 C   0  0  0  0  0  0  0  0  0  0  0  0
   36.7490   24.1730   41.1870 C   0  0  0  0  0  0  0  0  0  0  0  0
   37.0440   24.5450   39.9380 N   0  0  0  0  0  0  0  0  0  0  0  0
   38.2860   25.0680   39.7390 C   0  0  0  0  0  0  0  0  0  0  0  0
   39.1280   25.1820   40.7740 N   0  0  0  0  0  0  0  0  0  0  0  0
   38.8360   25.5470   38.4420 C   0  0  0  0  0  0  0  0  0  0  0  0
   39.1450   27.0190   38.4630 C   0  0  0  0  0  0  0  0  0  0  0  0
   40.0980   24.7270   38.1410 C   0  0  0  0  0  0  0  0  0  0  0  0
   37.8350   25.1600   37.3730 C   0  0  0  0  0  0  0  0  0  0  0  0
   38.4440   29.2140   42.5580 C   0  0  0  0  0  0  0  0  0  0  0  0
   37.3790   28.7620   43.3570 C   0  0  0  0  0  0  0  0  0  0  0  0
   37.8200   27.5840   43.9390 C   0  0  0  0  0  0  0  0  0  0  0  0
   39.0690   27.3620   43.5050 N   0  0  0  0  0  0  0  0  0  0  0  0
   39.4520   28.3350   42.6760 N   0  0  0  0  0  0  0  0  0  0  0  0
   37.0500   31.8260   40.4000 C   0  0  0  0  0  0  0  0  0  0  0  0
   38.0910   32.7680   40.3280 C   0  0  0  0  0  0  0  0  0  0  0  0
   39.2760   32.4880   41.0330 C   0  0  0  0  0  0  0  0  0  0  0  0
   39.3640   31.3370   41.7430 N   0  0  0  0  0  0  0  0  0  0  0  0
   38.3300   30.4450   41.7880 C   0  0  0  0  0  0  0  0  0  0  0  0
   37.1630   30.6920   41.1100 N   0  0  0  0  0  0  0  0  0  0  0  0
   39.7213   26.4625   44.9775 H   0  0  0  0  0  0  0  0  0  0  0  0
   41.9596   25.4524   43.4213 H   0  0  0  0  0  0  0  0  0  0  0  0
   41.5400   26.2433   42.1507 H   0  0  0  0  0  0  0  0  0  0  0  0
   39.6428   23.8695   43.3768 H   0  0  0  0  0  0  0  0  0  0  0  0
   37.2403   23.9324   43.2945 H   0  0  0  0  0  0  0  0  0  0  0  0
   35.7464   23.7494   41.3463 H   0  0  0  0  0  0  0  0  0  0  0  0
   39.2173   27.3636   39.5051 H   0  0  0  0  0  0  0  0  0  0  0  0
   40.1008   27.2004   37.9496 H   0  0  0  0  0  0  0  0  0  0  0  0
   38.3428   27.5694   37.9496 H   0  0  0  0  0  0  0  0  0  0  0  0
   40.5700   24.4203   39.0860 H   0  0  0  0  0  0  0  0  0  0  0  0
   39.8249   23.8334   37.5606 H   0  0  0  0  0  0  0  0  0  0  0  0
   40.8036   25.3396   37.5606 H   0  0  0  0  0  0  0  0  0  0  0  0
   36.9100   24.8024   37.8490 H   0  0  0  0  0  0  0  0  0  0  0  0
   37.6101   26.0360   36.7468 H   0  0  0  0  0  0  0  0  0  0  0  0
   38.2579   24.3606   36.7468 H   0  0  0  0  0  0  0  0  0  0  0  0
   36.3992   29.2434   43.4921 H   0  0  0  0  0  0  0  0  0  0  0  0
   37.2493   26.9472   44.6309 H   0  0  0  0  0  0  0  0  0  0  0  0
   36.1137   32.0241   39.8578 H   0  0  0  0  0  0  0  0  0  0  0  0
   37.9829   33.6919   39.7409 H   0  0  0  0  0  0  0  0  0  0  0  0
   40.1195   33.1937   41.0082 H   0  0  0  0  0  0  0  0  0  0  0  0
  2  3  1  0
  2  1  1  0
  3  1  1  0
  4  5  2  0
  4  3  1  0
  6  5  1  0
  7  6  2  0
  8  7  1  0
  8  9  2  0
  9  4  1  0
 10 11  1  0
 10  8  1  0
 12 10  1  0
 13 10  1  0
 14 18  2  0
 14 15  1  0
 15 16  2  0
 17  1  1  0
 17 16  1  0
 18 17  1  0
 19 24  2  0
 20 19  1  0
 20 21  2  0
 21 22  1  0
 22 23  2  0
 23 14  1  0
 24 23  1  0
  1 25  1  1
  2 26  1  0
  2 27  1  0
  3 28  1  1
  5 29  1  0
  6 30  1  0
 11 31  1  0
 11 32  1  0
 11 33  1  0
 12 34  1  0
 12 35  1  0
 12 36  1  0
 13 37  1  0
 13 38  1  0
 13 39  1  0
 15 40  1  0
 16 41  1  0
 19 42  1  0
 20 43  1  0
 21 44  1  0
M  ISO  8  25  13  26  13  27  13  28  13  29  14  30  14  31   8  32   8
M  ISO  8  33   8  34   8  35   8  36   8  37   8  38   8  39   8  40  14
M  ISO  4  41  14  42  14  43  14  44  14
M  END
>  <minimizedAffinity>  (1) 
-5.25627995

>  <minimizedRMSD>  (1) 
0.0491420217

$$$$
