
     RDKit          3D

 38 41  0  0  1  0  0  0  0  0999 V2000
   39.8550   26.2000   43.9030 C   0  0  2  0  0  0  0  0  0  0  0  0
   40.9960   25.7750   42.9650 C   0  0  0  0  0  0  0  0  0  0  0  0
   39.7860   24.9240   43.1160 C   0  0  2  0  0  0  0  0  0  0  0  0
   38.7910   24.7930   42.0260 C   0  0  0  0  0  0  0  0  0  0  0  0
   37.5510   24.2400   42.2950 C   0  0  0  0  0  0  0  0  0  0  0  0
   36.7280   24.1560   41.1950 C   0  0  0  0  0  0  0  0  0  0  0  0
   37.0220   24.5510   39.9400 N   0  0  0  0  0  0  0  0  0  0  0  0
   38.2520   25.0860   39.7340 C   0  0  0  0  0  0  0  0  0  0  0  0
   39.0950   25.1930   40.7680 N   0  0  0  0  0  0  0  0  0  0  0  0
   38.5810   25.5240   38.3510 C   0  0  0  0  0  0  0  0  0  0  0  0
   37.6300   26.5630   37.8220 C   0  0  0  0  0  0  0  0  0  0  0  0
   38.4320   29.2070   42.5670 C   0  0  0  0  0  0  0  0  0  0  0  0
   37.3820   28.7590   43.3680 C   0  0  0  0  0  0  0  0  0  0  0  0
   37.8270   27.5790   43.9450 C   0  0  0  0  0  0  0  0  0  0  0  0
   39.0710   27.3540   43.5010 N   0  0  0  0  0  0  0  0  0  0  0  0
   39.4430   28.3290   42.6720 N   0  0  0  0  0  0  0  0  0  0  0  0
   37.0270   31.8230   40.4240 C   0  0  0  0  0  0  0  0  0  0  0  0
   38.0650   32.7600   40.3460 C   0  0  0  0  0  0  0  0  0  0  0  0
   39.2570   32.4860   41.0360 C   0  0  0  0  0  0  0  0  0  0  0  0
   39.3500   31.3280   41.7490 N   0  0  0  0  0  0  0  0  0  0  0  0
   38.3130   30.4400   41.8000 C   0  0  0  0  0  0  0  0  0  0  0  0
   37.1410   30.6960   41.1280 N   0  0  0  0  0  0  0  0  0  0  0  0
   39.7370   26.4503   44.9676 H   0  0  0  0  0  0  0  0  0  0  0  0
   41.9585   25.4440   43.3822 H   0  0  0  0  0  0  0  0  0  0  0  0
   41.5244   26.2379   42.1185 H   0  0  0  0  0  0  0  0  0  0  0  0
   39.6364   23.8630   43.3648 H   0  0  0  0  0  0  0  0  0  0  0  0
   37.2506   23.8987   43.2967 H   0  0  0  0  0  0  0  0  0  0  0  0
   35.7298   23.7229   41.3561 H   0  0  0  0  0  0  0  0  0  0  0  0
   39.5971   25.9453   38.3490 H   0  0  0  0  0  0  0  0  0  0  0  0
   38.5012   24.6420   37.6986 H   0  0  0  0  0  0  0  0  0  0  0  0
   37.1521   27.0852   38.6640 H   0  0  0  0  0  0  0  0  0  0  0  0
   38.1839   27.2881   37.2076 H   0  0  0  0  0  0  0  0  0  0  0  0
   36.8588   26.0753   37.2076 H   0  0  0  0  0  0  0  0  0  0  0  0
   36.4040   29.2414   43.5122 H   0  0  0  0  0  0  0  0  0  0  0  0
   37.2610   26.9428   44.6413 H   0  0  0  0  0  0  0  0  0  0  0  0
   36.0878   32.0230   39.8875 H   0  0  0  0  0  0  0  0  0  0  0  0
   37.9498   33.6843   39.7609 H   0  0  0  0  0  0  0  0  0  0  0  0
   40.0995   33.1924   41.0018 H   0  0  0  0  0  0  0  0  0  0  0  0
  2  3  1  0
  2  1  1  0
  3  1  1  0
  4  5  2  0
  4  3  1  0
  6  5  1  0
  7  6  2  0
  8  7  1  0
  8  9  2  0
  9  4  1  0
 10  8  1  0
 11 10  1  0
 12 16  2  0
 12 13  1  0
 13 14  2  0
 15  1  1  0
 15 14  1  0
 16 15  1  0
 17 22  2  0
 18 17  1  0
 18 19  2  0
 19 20  1  0
 20 21  2  0
 21 12  1  0
 22 21  1  0
  1 23  1  1
  2 24  1  0
  2 25  1  0
  3 26  1  1
  5 27  1  0
  6 28  1  0
 10 29  1  0
 10 30  1  0
 11 31  1  0
 11 32  1  0
 11 33  1  0
 13 34  1  0
 14 35  1  0
 17 36  1  0
 18 37  1  0
 19 38  1  0
M  ISO  8  23  13  24  13  25  13  26  13  27  14  28  14  29   8  30   8
M  ISO  8  31   8  32   8  33   8  34  14  35  14  36  14  37  14  38  14
M  END
>  <minimizedAffinity>  (1) 
-5.12965298

>  <minimizedRMSD>  (1) 
0.178019494

$$$$
