
     RDKit          3D

 32 34  0  0  0  0  0  0  0  0999 V2000
   37.3090   29.0140   41.1070 C   0  0  0  0  0  0  0  0  0  0  0  0
   36.1450   29.7300   40.8040 C   0  0  0  0  0  0  0  0  0  0  0  0
   36.2590   31.1180   40.7500 C   0  0  0  0  0  0  0  0  0  0  0  0
   37.4920   31.6960   40.9940 C   0  0  0  0  0  0  0  0  0  0  0  0
   38.6030   30.9700   41.2850 C   0  0  0  0  0  0  0  0  0  0  0  0
   38.4970   29.6250   41.3380 N   0  0  0  0  0  0  0  0  0  0  0  0
   39.9050   31.4820   41.5480 N   0  0  0  0  0  0  0  0  0  0  0  0
   40.6530   30.8600   42.4740 C   0  0  0  0  0  0  0  0  0  0  0  0
   41.9070   31.3800   42.7020 C   0  0  0  0  0  0  0  0  0  0  0  0
   42.7610   30.7280   43.7110 C   0  0  0  0  0  0  0  0  0  0  0  0
   42.2980   32.4740   41.9850 C   0  0  0  0  0  0  0  0  0  0  0  0
   43.4490   32.9350   42.2090 O   0  0  0  0  0  0  0  0  0  0  0  0
   41.5240   33.0730   41.0650 N   0  0  0  0  0  0  0  0  0  0  0  0
   40.2830   32.5710   40.8270 C   0  0  0  0  0  0  0  0  0  0  0  0
   39.4850   33.0730   39.9760 O   0  0  0  0  0  0  0  0  0  0  0  0
   37.4710   25.5880   42.4080 C   0  0  0  0  0  0  0  0  0  0  0  0
   37.0650   24.8080   41.3270 C   0  0  0  0  0  0  0  0  0  0  0  0
   36.7300   25.4720   40.1310 C   0  0  0  0  0  0  0  0  0  0  0  0
   36.8280   26.8230   40.1210 N   0  0  0  0  0  0  0  0  0  0  0  0
   37.2190   27.5470   41.1710 C   0  0  0  0  0  0  0  0  0  0  0  0
   37.5350   26.9150   42.2970 N   0  0  0  0  0  0  0  0  0  0  0  0
   35.1873   29.2221   40.6176 H   0  0  0  0  0  0  0  0  0  0  0  0
   35.3841   31.7429   40.5175 H   0  0  0  0  0  0  0  0  0  0  0  0
   37.5767   32.7919   40.9505 H   0  0  0  0  0  0  0  0  0  0  0  0
   40.2828   29.9808   43.0217 H   0  0  0  0  0  0  0  0  0  0  0  0
   42.4092   30.9966   44.7180 H   0  0  0  0  0  0  0  0  0  0  0  0
   42.7106   29.6365   43.5840 H   0  0  0  0  0  0  0  0  0  0  0  0
   43.8006   31.0643   43.5840 H   0  0  0  0  0  0  0  0  0  0  0  0
   41.8642   33.8972   40.5494 H   0  0  0  0  0  0  0  0  0  0  0  0
   37.7405   25.1056   43.3592 H   0  0  0  0  0  0  0  0  0  0  0  0
   37.0082   23.7122   41.4050 H   0  0  0  0  0  0  0  0  0  0  0  0
   36.4019   24.9157   39.2406 H   0  0  0  0  0  0  0  0  0  0  0  0
  1 20  1  0
  1  6  1  0
  2  1  2  0
  3  2  1  0
  3  4  2  0
  4  5  1  0
  5  6  2  0
  5  7  1  0
  7  8  1  0
  8  9  2  0
  9 10  1  0
 11 12  2  0
 11  9  1  0
 13 11  1  0
 14 13  1  0
 14  7  1  0
 15 14  2  0
 17 16  2  0
 18 17  1  0
 19 18  2  0
 19 20  1  0
 20 21  2  0
 21 16  1  0
  2 22  1  0
  3 23  1  0
  4 24  1  0
  8 25  1  0
 10 26  1  0
 10 27  1  0
 10 28  1  0
 13 29  1  0
 16 30  1  0
 17 31  1  0
 18 32  1  0
M  ISO  8  22  14  23  14  24  14  25  14  26   8  27   8  28   8  29   9
M  ISO  3  30  14  31  14  32  14
M  END
>  <minimizedAffinity>  (1) 
-5.33490133

>  <minimizedRMSD>  (1) 
5.59488392

$$$$
