
     RDKit          3D

 35 38  0  0  0  0  0  0  0  0999 V2000
   37.5500   29.9620   40.7400 C   0  0  0  0  0  0  0  0  0  0  0  0
   37.6750   31.3170   40.9490 C   0  0  0  0  0  0  0  0  0  0  0  0
   37.3460   32.1540   39.9000 C   0  0  0  0  0  0  0  0  0  0  0  0
   36.9150   31.6060   38.7090 C   0  0  0  0  0  0  0  0  0  0  0  0
   36.7930   30.2770   38.5070 C   0  0  0  0  0  0  0  0  0  0  0  0
   37.1240   29.5140   39.5500 N   0  0  0  0  0  0  0  0  0  0  0  0
   36.4290   29.5340   37.3230 C   0  0  0  0  0  0  0  0  0  0  0  0
   37.4560   29.1740   36.4360 C   0  0  0  0  0  0  0  0  0  0  0  0
   37.2850   28.4580   35.2740 C   0  0  0  0  0  0  0  0  0  0  0  0
   36.0270   28.0460   34.9230 C   0  0  0  0  0  0  0  0  0  0  0  0
   34.9740   28.3590   35.7440 C   0  0  0  0  0  0  0  0  0  0  0  0
   33.7050   27.9250   35.4320 C   0  0  0  0  0  0  0  0  0  0  0  0
   32.6000   28.1790   36.2480 C   0  0  0  0  0  0  0  0  0  0  0  0
   32.8730   28.9010   37.3980 C   0  0  0  0  0  0  0  0  0  0  0  0
   34.1470   29.3230   37.6890 C   0  0  0  0  0  0  0  0  0  0  0  0
   35.2200   29.0730   36.8840 C   0  0  0  0  0  0  0  0  0  0  0  0
   39.4900   27.9520   43.1050 C   0  0  0  0  0  0  0  0  0  0  0  0
   38.5130   27.3040   43.8550 C   0  0  0  0  0  0  0  0  0  0  0  0
   37.1660   27.5570   43.5470 C   0  0  0  0  0  0  0  0  0  0  0  0
   36.9080   28.4190   42.5350 N   0  0  0  0  0  0  0  0  0  0  0  0
   37.8840   29.0330   41.8270 C   0  0  0  0  0  0  0  0  0  0  0  0
   39.1570   28.7920   42.1200 N   0  0  0  0  0  0  0  0  0  0  0  0
   38.0229   31.7174   41.9127 H   0  0  0  0  0  0  0  0  0  0  0  0
   37.4267   33.2452   40.0130 H   0  0  0  0  0  0  0  0  0  0  0  0
   36.6582   32.2860   37.8834 H   0  0  0  0  0  0  0  0  0  0  0  0
   38.4786   29.4896   36.6905 H   0  0  0  0  0  0  0  0  0  0  0  0
   38.1478   28.2194   34.6348 H   0  0  0  0  0  0  0  0  0  0  0  0
   35.8639   27.4736   33.9980 H   0  0  0  0  0  0  0  0  0  0  0  0
   33.5554   27.3554   34.5029 H   0  0  0  0  0  0  0  0  0  0  0  0
   31.5874   27.8311   35.9957 H   0  0  0  0  0  0  0  0  0  0  0  0
   32.0536   29.1410   38.0915 H   0  0  0  0  0  0  0  0  0  0  0  0
   34.3106   29.8906   38.6169 H   0  0  0  0  0  0  0  0  0  0  0  0
   40.5521   27.7702   43.3261 H   0  0  0  0  0  0  0  0  0  0  0  0
   38.7878   26.6134   44.6659 H   0  0  0  0  0  0  0  0  0  0  0  0
   36.3518   27.0733   44.1066 H   0  0  0  0  0  0  0  0  0  0  0  0
  1  2  2  0
  1 21  1  0
  3  2  1  0
  4  3  2  0
  5  4  1  0
  5  6  2  0
  6  1  1  0
  7  5  1  0
  8  7  2  0
  9  8  1  0
 10  9  2  0
 10 11  1  0
 11 16  2  0
 12 11  1  0
 12 13  2  0
 13 14  1  0
 14 15  2  0
 16  7  1  0
 16 15  1  0
 17 18  2  0
 19 18  1  0
 20 19  2  0
 21 22  2  0
 21 20  1  0
 22 17  1  0
  2 23  1  0
  3 24  1  0
  4 25  1  0
  8 26  1  0
  9 27  1  0
 10 28  1  0
 12 29  1  0
 13 30  1  0
 14 31  1  0
 15 32  1  0
 17 33  1  0
 18 34  1  0
 19 35  1  0
M  ISO  8  23  14  24  14  25  14  26  14  27  14  28  14  29  14  30  14
M  ISO  5  31  14  32  14  33  14  34  14  35  14
M  END
>  <minimizedAffinity>  (1) 
-5.26675749

>  <minimizedRMSD>  (1) 
2.81199241

$$$$
