
     RDKit          3D

 30 33  0  0  0  0  0  0  0  0999 V2000
   37.2240   30.2720   40.3200 C   0  0  0  0  0  0  0  0  0  0  0  0
   37.3770   31.6350   40.4930 C   0  0  0  0  0  0  0  0  0  0  0  0
   37.4420   32.4280   39.3570 C   0  0  0  0  0  0  0  0  0  0  0  0
   37.3500   31.8320   38.1120 C   0  0  0  0  0  0  0  0  0  0  0  0
   37.1990   30.4910   37.9680 C   0  0  0  0  0  0  0  0  0  0  0  0
   37.1370   29.7180   39.0740 N   0  0  0  0  0  0  0  0  0  0  0  0
   37.0910   29.7420   36.7640 N   0  0  0  0  0  0  0  0  0  0  0  0
   37.2560   28.4060   36.7230 C   0  0  0  0  0  0  0  0  0  0  0  0
   37.1080   27.9130   35.4760 N   0  0  0  0  0  0  0  0  0  0  0  0
   36.8370   28.9790   34.6820 C   0  0  0  0  0  0  0  0  0  0  0  0
   36.5830   29.1800   33.3420 C   0  0  0  0  0  0  0  0  0  0  0  0
   36.3380   30.4270   32.8460 N   0  0  0  0  0  0  0  0  0  0  0  0
   36.3400   31.5100   33.6770 C   0  0  0  0  0  0  0  0  0  0  0  0
   36.5870   31.3410   35.0030 N   0  0  0  0  0  0  0  0  0  0  0  0
   36.8300   30.0950   35.4920 C   0  0  0  0  0  0  0  0  0  0  0  0
   37.9100   28.9090   43.6520 C   0  0  0  0  0  0  0  0  0  0  0  0
   37.0470   27.7990   43.7260 C   0  0  0  0  0  0  0  0  0  0  0  0
   36.2250   27.5210   42.6160 C   0  0  0  0  0  0  0  0  0  0  0  0
   36.3300   28.3550   41.5550 N   0  0  0  0  0  0  0  0  0  0  0  0
   37.1520   29.4030   41.5000 C   0  0  0  0  0  0  0  0  0  0  0  0
   37.9390   29.6680   42.5600 N   0  0  0  0  0  0  0  0  0  0  0  0
   37.4449   32.0760   41.4984 H   0  0  0  0  0  0  0  0  0  0  0  0
   37.5652   33.5175   39.4449 H   0  0  0  0  0  0  0  0  0  0  0  0
   37.4007   32.4633   37.2126 H   0  0  0  0  0  0  0  0  0  0  0  0
   37.4849   27.7885   37.6040 H   0  0  0  0  0  0  0  0  0  0  0  0
   36.5778   28.3177   32.6591 H   0  0  0  0  0  0  0  0  0  0  0  0
   36.1426   32.5149   33.2754 H   0  0  0  0  0  0  0  0  0  0  0  0
   38.5644   29.1501   44.5026 H   0  0  0  0  0  0  0  0  0  0  0  0
   37.0154   27.1665   44.6254 H   0  0  0  0  0  0  0  0  0  0  0  0
   35.5313   26.6673   42.6118 H   0  0  0  0  0  0  0  0  0  0  0  0
  1  2  2  0
  1 20  1  0
  3  2  1  0
  4  3  2  0
  5  4  1  0
  5  6  2  0
  6  1  1  0
  7  5  1  0
  8  7  1  0
  9  8  2  0
 10  9  1  0
 10 15  2  0
 11 10  1  0
 12 11  2  0
 12 13  1  0
 13 14  2  0
 14 15  1  0
 15  7  1  0
 16 17  2  0
 18 17  1  0
 19 18  2  0
 20 19  1  0
 20 21  2  0
 21 16  1  0
  2 22  1  0
  3 23  1  0
  4 24  1  0
  8 25  1  0
 11 26  1  0
 13 27  1  0
 16 28  1  0
 17 29  1  0
 18 30  1  0
M  ISO  8  22  14  23  14  24  14  25  14  26  14  27  14  28  14  29  14
M  ISO  1  30  14
M  END
>  <minimizedAffinity>  (1) 
-4.94908285

>  <minimizedRMSD>  (1) 
1.01736307

$$$$
