
     RDKit          3D

 33 35  0  0  0  0  0  0  0  0999 V2000
   37.1660   30.1130   40.3430 C   0  0  0  0  0  0  0  0  0  0  0  0
   37.0650   31.4920   40.4960 C   0  0  0  0  0  0  0  0  0  0  0  0
   37.0870   32.2680   39.3400 C   0  0  0  0  0  0  0  0  0  0  0  0
   37.2080   31.6340   38.1120 C   0  0  0  0  0  0  0  0  0  0  0  0
   37.3040   30.2870   38.0030 C   0  0  0  0  0  0  0  0  0  0  0  0
   37.2820   29.5570   39.1200 N   0  0  0  0  0  0  0  0  0  0  0  0
   37.4290   29.6000   36.7660 N   0  0  0  0  0  0  0  0  0  0  0  0
   36.6610   29.8530   35.5670 C   0  0  0  0  0  0  0  0  0  0  0  0
   35.9640   28.6160   35.0630 C   0  0  0  0  0  0  0  0  0  0  0  0
   36.7480   27.4280   35.1590 N   0  0  0  0  0  0  0  0  0  0  0  0
   37.5130   27.2810   36.3630 C   0  0  0  0  0  0  0  0  0  0  0  0
   38.3850   28.5250   36.5750 C   0  0  0  0  0  0  0  0  0  0  0  0
   37.9250   28.8530   43.7010 C   0  0  0  0  0  0  0  0  0  0  0  0
   37.1260   27.7160   43.8070 C   0  0  0  0  0  0  0  0  0  0  0  0
   36.3120   27.3740   42.7110 C   0  0  0  0  0  0  0  0  0  0  0  0
   36.3610   28.1800   41.6130 N   0  0  0  0  0  0  0  0  0  0  0  0
   37.1460   29.2710   41.5470 C   0  0  0  0  0  0  0  0  0  0  0  0
   37.9230   29.6030   42.5890 N   0  0  0  0  0  0  0  0  0  0  0  0
   36.9714   31.9514   41.4911 H   0  0  0  0  0  0  0  0  0  0  0  0
   37.0098   33.3637   39.3994 H   0  0  0  0  0  0  0  0  0  0  0  0
   37.2266   32.2447   37.1973 H   0  0  0  0  0  0  0  0  0  0  0  0
   35.9044   30.6206   35.7869 H   0  0  0  0  0  0  0  0  0  0  0  0
   37.3583   30.1886   34.7852 H   0  0  0  0  0  0  0  0  0  0  0  0
   35.7020   28.7730   34.0063 H   0  0  0  0  0  0  0  0  0  0  0  0
   35.0805   28.4665   35.7010 H   0  0  0  0  0  0  0  0  0  0  0  0
   36.1104   26.6221   35.0893 H   0  0  0  0  0  0  0  0  0  0  0  0
   36.8308   27.1624   37.2177 H   0  0  0  0  0  0  0  0  0  0  0  0
   38.1576   26.3935   36.2797 H   0  0  0  0  0  0  0  0  0  0  0  0
   39.0231   28.4077   37.4633 H   0  0  0  0  0  0  0  0  0  0  0  0
   39.0663   28.7113   35.7317 H   0  0  0  0  0  0  0  0  0  0  0  0
   38.5692   29.1406   44.5450 H   0  0  0  0  0  0  0  0  0  0  0  0
   37.1314   27.1037   44.7208 H   0  0  0  0  0  0  0  0  0  0  0  0
   35.6600   26.4885   42.7395 H   0  0  0  0  0  0  0  0  0  0  0  0
  1  2  2  0
  1 17  1  0
  3  2  1  0
  4  3  2  0
  5  4  1  0
  5  6  2  0
  6  1  1  0
  7  5  1  0
  8  7  1  0
  9 10  1  0
  9  8  1  0
 10 11  1  0
 11 12  1  0
 12  7  1  0
 13 14  2  0
 15 14  1  0
 16 15  2  0
 17 16  1  0
 17 18  2  0
 18 13  1  0
  2 19  1  0
  3 20  1  0
  4 21  1  0
  8 22  1  0
  8 23  1  0
  9 24  1  0
  9 25  1  0
 10 26  1  0
 11 27  1  0
 11 28  1  0
 12 29  1  0
 12 30  1  0
 13 31  1  0
 14 32  1  0
 15 33  1  0
M  ISO  8  19  14  20  14  21  14  22  13  23  13  24  13  25  13  26   5
M  ISO  7  27  13  28  13  29  13  30  13  31  14  32  14  33  14
M  END
>  <minimizedAffinity>  (1) 
-4.89857483

>  <minimizedRMSD>  (1) 
0.690226853

$$$$
