
     RDKit          3D

 29 31  0  0  0  0  0  0  0  0999 V2000
   37.6200   30.0220   40.6900 C   0  0  0  0  0  0  0  0  0  0  0  0
   37.9180   31.3750   40.8880 C   0  0  0  0  0  0  0  0  0  0  0  0
   37.6390   32.2550   39.8530 C   0  0  0  0  0  0  0  0  0  0  0  0
   37.0770   31.7330   38.6770 C   0  0  0  0  0  0  0  0  0  0  0  0
   36.7930   30.3980   38.5060 C   0  0  0  0  0  0  0  0  0  0  0  0
   37.0800   29.5920   39.5310 N   0  0  0  0  0  0  0  0  0  0  0  0
   39.4700   27.9820   43.1120 C   0  0  0  0  0  0  0  0  0  0  0  0
   38.4450   27.3230   43.8140 C   0  0  0  0  0  0  0  0  0  0  0  0
   37.0960   27.5850   43.4460 C   0  0  0  0  0  0  0  0  0  0  0  0
   36.9010   28.4650   42.4310 N   0  0  0  0  0  0  0  0  0  0  0  0
   37.9090   29.0840   41.7760 C   0  0  0  0  0  0  0  0  0  0  0  0
   39.1670   28.8350   42.1240 N   0  0  0  0  0  0  0  0  0  0  0  0
   36.2180   29.8860   37.2940 C   0  0  0  0  0  0  0  0  0  0  0  0
   36.7680   29.9960   36.0520 C   0  0  0  0  0  0  0  0  0  0  0  0
   36.2480   29.5190   34.8670 C   0  0  0  0  0  0  0  0  0  0  0  0
   35.0210   28.8530   34.9550 C   0  0  0  0  0  0  0  0  0  0  0  0
   34.4190   28.7130   36.1870 C   0  0  0  0  0  0  0  0  0  0  0  0
   35.0050   29.2190   37.3340 C   0  0  0  0  0  0  0  0  0  0  0  0
   38.3584   31.7283   41.8321 H   0  0  0  0  0  0  0  0  0  0  0  0
   37.8517   33.3298   39.9505 H   0  0  0  0  0  0  0  0  0  0  0  0
   36.8529   32.4254   37.8522 H   0  0  0  0  0  0  0  0  0  0  0  0
   40.5221   27.7969   43.3744 H   0  0  0  0  0  0  0  0  0  0  0  0
   38.6807   26.6218   44.6281 H   0  0  0  0  0  0  0  0  0  0  0  0
   36.2529   27.0987   43.9585 H   0  0  0  0  0  0  0  0  0  0  0  0
   37.7316   30.5226   35.9876 H   0  0  0  0  0  0  0  0  0  0  0  0
   36.7684   29.6545   33.9074 H   0  0  0  0  0  0  0  0  0  0  0  0
   34.5424   28.4460   34.0520 H   0  0  0  0  0  0  0  0  0  0  0  0
   33.4545   28.1891   36.2599 H   0  0  0  0  0  0  0  0  0  0  0  0
   34.4954   29.0884   38.3001 H   0  0  0  0  0  0  0  0  0  0  0  0
  1  2  2  0
  1 11  1  0
  3  2  1  0
  4  3  2  0
  5  4  1  0
  5  6  2  0
  6  1  1  0
  7  8  2  0
  9  8  1  0
 10  9  2  0
 11 12  2  0
 11 10  1  0
 12  7  1  0
 13 18  1  0
 13  5  1  0
 14 13  2  0
 15 16  2  0
 15 14  1  0
 16 17  1  0
 17 18  2  0
  2 19  1  0
  3 20  1  0
  4 21  1  0
  7 22  1  0
  8 23  1  0
  9 24  1  0
 14 25  1  0
 15 26  1  0
 16 27  1  0
 17 28  1  0
 18 29  1  0
M  ISO  8  19  14  20  14  21  14  22  14  23  14  24  14  25  14  26  14
M  ISO  3  27  14  28  14  29  14
M  END
>  <minimizedAffinity>  (1) 
-4.81421566

>  <minimizedRMSD>  (1) 
2.04051185

$$$$
