
     RDKit          3D

 27 29  0  0  0  0  0  0  0  0999 V2000
   38.0960   30.1840   40.6550 C   0  0  0  0  0  0  0  0  0  0  0  0
   38.5810   29.5500   41.7840 C   0  0  0  0  0  0  0  0  0  0  0  0
   39.4870   30.2470   42.5680 C   0  0  0  0  0  0  0  0  0  0  0  0
   39.8490   31.5300   42.1770 C   0  0  0  0  0  0  0  0  0  0  0  0
   39.3620   32.1470   41.0590 C   0  0  0  0  0  0  0  0  0  0  0  0
   38.4890   31.4340   40.3300 N   0  0  0  0  0  0  0  0  0  0  0  0
   36.0570   27.4880   39.2170 C   0  0  0  0  0  0  0  0  0  0  0  0
   35.3360   28.1290   38.2080 C   0  0  0  0  0  0  0  0  0  0  0  0
   35.5540   29.5080   38.0170 C   0  0  0  0  0  0  0  0  0  0  0  0
   36.4490   30.1230   38.8270 N   0  0  0  0  0  0  0  0  0  0  0  0
   37.1290   29.4710   39.7950 C   0  0  0  0  0  0  0  0  0  0  0  0
   36.9230   28.1640   39.9770 N   0  0  0  0  0  0  0  0  0  0  0  0
   39.7080   33.4750   40.6120 C   0  0  0  0  0  0  0  0  0  0  0  0
   38.7960   34.5050   40.5140 C   0  0  0  0  0  0  0  0  0  0  0  0
   39.1020   35.7810   40.0920 C   0  0  0  0  0  0  0  0  0  0  0  0
   40.3710   36.0500   39.7480 N   0  0  0  0  0  0  0  0  0  0  0  0
   41.2750   35.0500   39.8390 C   0  0  0  0  0  0  0  0  0  0  0  0
   40.9590   33.8110   40.2540 N   0  0  0  0  0  0  0  0  0  0  0  0
   38.2603   28.5319   42.0497 H   0  0  0  0  0  0  0  0  0  0  0  0
   39.9091   29.7952   43.4778 H   0  0  0  0  0  0  0  0  0  0  0  0
   40.5678   32.0800   42.8022 H   0  0  0  0  0  0  0  0  0  0  0  0
   35.9100   26.4115   39.3886 H   0  0  0  0  0  0  0  0  0  0  0  0
   34.6206   27.5754   37.5821 H   0  0  0  0  0  0  0  0  0  0  0  0
   35.0158   30.0661   37.2367 H   0  0  0  0  0  0  0  0  0  0  0  0
   37.7528   34.2937   40.7917 H   0  0  0  0  0  0  0  0  0  0  0  0
   38.3260   36.5588   40.0386 H   0  0  0  0  0  0  0  0  0  0  0  0
   42.3183   35.2595   39.5605 H   0  0  0  0  0  0  0  0  0  0  0  0
  1  2  2  0
  2  3  1  0
  4  3  2  0
  5  4  1  0
  6  1  1  0
  6  5  2  0
  7 12  2  0
  8  7  1  0
  9  8  2  0
  9 10  1  0
 10 11  2  0
 11 12  1  0
 11  1  1  0
 13  5  1  0
 14 13  2  0
 15 14  1  0
 16 17  1  0
 16 15  2  0
 17 18  2  0
 18 13  1  0
  2 19  1  0
  3 20  1  0
  4 21  1  0
  7 22  1  0
  8 23  1  0
  9 24  1  0
 14 25  1  0
 15 26  1  0
 17 27  1  0
M  ISO  8  19  14  20  14  21  14  22  14  23  14  24  14  25  14  26  14
M  ISO  1  27  14
M  END
>  <minimizedAffinity>  (1) 
-4.69430637

>  <minimizedRMSD>  (1) 
5.37027693

$$$$
