
     RDKit          3D

 24 26  0  0  0  0  0  0  0  0999 V2000
   37.2020   30.3520   40.3800 C   0  0  0  0  0  0  0  0  0  0  0  0
   37.2640   31.7150   40.5740 C   0  0  0  0  0  0  0  0  0  0  0  0
   37.2590   32.5350   39.4520 C   0  0  0  0  0  0  0  0  0  0  0  0
   37.1930   31.9400   38.2050 C   0  0  0  0  0  0  0  0  0  0  0  0
   37.1330   30.5940   38.0410 C   0  0  0  0  0  0  0  0  0  0  0  0
   37.1370   29.8000   39.1300 N   0  0  0  0  0  0  0  0  0  0  0  0
   38.0980   28.9130   43.6240 C   0  0  0  0  0  0  0  0  0  0  0  0
   37.2470   27.8180   43.7510 C   0  0  0  0  0  0  0  0  0  0  0  0
   36.3470   27.5640   42.7040 C   0  0  0  0  0  0  0  0  0  0  0  0
   36.3750   28.4100   41.6450 N   0  0  0  0  0  0  0  0  0  0  0  0
   37.2060   29.4560   41.5550 C   0  0  0  0  0  0  0  0  0  0  0  0
   38.0780   29.7150   42.5490 N   0  0  0  0  0  0  0  0  0  0  0  0
   37.0600   29.8900   36.7630 C   0  0  0  0  0  0  0  0  0  0  0  0
   36.5810   30.1290   35.5230 N   0  0  0  0  0  0  0  0  0  0  0  0
   36.8160   29.0910   34.7750 O   0  0  0  0  0  0  0  0  0  0  0  0
   37.4370   28.1520   35.4540 C   0  0  0  0  0  0  0  0  0  0  0  0
   37.6010   28.6390   36.7190 N   0  0  0  0  0  0  0  0  0  0  0  0
   37.3159   32.1412   41.5868 H   0  0  0  0  0  0  0  0  0  0  0  0
   37.3063   33.6293   39.5530 H   0  0  0  0  0  0  0  0  0  0  0  0
   37.1890   32.5823   37.3120 H   0  0  0  0  0  0  0  0  0  0  0  0
   38.8114   29.1277   44.4333 H   0  0  0  0  0  0  0  0  0  0  0  0
   37.2790   27.1736   44.6419 H   0  0  0  0  0  0  0  0  0  0  0  0
   35.6488   26.7148   42.7413 H   0  0  0  0  0  0  0  0  0  0  0  0
   37.7600   27.1700   35.0780 H   0  0  0  0  0  0  0  0  0  0  0  0
  1  2  2  0
  1 11  1  0
  3  2  1  0
  4  3  2  0
  5  4  1  0
  5  6  2  0
  6  1  1  0
  7  8  2  0
  9  8  1  0
 10  9  2  0
 11 10  1  0
 11 12  2  0
 12  7  1  0
 13  5  1  0
 14 13  2  0
 15 16  1  0
 15 14  1  0
 16 17  2  0
 17 13  1  0
  2 18  1  0
  3 19  1  0
  4 20  1  0
  7 21  1  0
  8 22  1  0
  9 23  1  0
 16 24  1  0
M  ISO  7  18  14  19  14  20  14  21  14  22  14  23  14  24  14
M  END
>  <minimizedAffinity>  (1) 
-4.57419205

>  <minimizedRMSD>  (1) 
0.97668159

$$$$
