
     RDKit          3D

 26 28  0  0  0  0  0  0  0  0999 V2000
   37.2080   30.3450   40.3000 C   0  0  0  0  0  0  0  0  0  0  0  0
   37.3420   31.7070   40.4820 C   0  0  0  0  0  0  0  0  0  0  0  0
   37.3340   32.5040   39.3430 C   0  0  0  0  0  0  0  0  0  0  0  0
   37.1910   31.8790   38.0950 C   0  0  0  0  0  0  0  0  0  0  0  0
   37.0590   30.5190   37.9510 C   0  0  0  0  0  0  0  0  0  0  0  0
   37.0730   29.7900   39.0720 N   0  0  0  0  0  0  0  0  0  0  0  0
   38.1060   28.9530   43.5800 C   0  0  0  0  0  0  0  0  0  0  0  0
   37.2550   27.8550   43.7140 C   0  0  0  0  0  0  0  0  0  0  0  0
   36.3510   27.5830   42.6550 C   0  0  0  0  0  0  0  0  0  0  0  0
   36.3890   28.4180   41.5970 N   0  0  0  0  0  0  0  0  0  0  0  0
   37.2130   29.4670   41.4840 C   0  0  0  0  0  0  0  0  0  0  0  0
   38.0610   29.7170   42.4860 N   0  0  0  0  0  0  0  0  0  0  0  0
   36.9130   29.8970   36.6400 C   0  0  0  0  0  0  0  0  0  0  0  0
   37.1480   28.5680   36.3610 C   0  0  0  0  0  0  0  0  0  0  0  0
   36.8830   28.4540   35.0250 C   0  0  0  0  0  0  0  0  0  0  0  0
   36.5010   29.6880   34.5350 C   0  0  0  0  0  0  0  0  0  0  0  0
   36.5320   30.5390   35.5480 O   0  0  0  0  0  0  0  0  0  0  0  0
   37.4505   32.1432   41.4860 H   0  0  0  0  0  0  0  0  0  0  0  0
   37.4371   33.5966   39.4182 H   0  0  0  0  0  0  0  0  0  0  0  0
   37.1843   32.5060   37.1912 H   0  0  0  0  0  0  0  0  0  0  0  0
   38.8198   29.1910   44.3824 H   0  0  0  0  0  0  0  0  0  0  0  0
   37.2843   27.2206   44.6122 H   0  0  0  0  0  0  0  0  0  0  0  0
   35.6537   26.7332   42.6950 H   0  0  0  0  0  0  0  0  0  0  0  0
   37.4743   27.7793   37.0549 H   0  0  0  0  0  0  0  0  0  0  0  0
   36.9613   27.5289   34.4350 H   0  0  0  0  0  0  0  0  0  0  0  0
   36.2229   29.9199   33.4963 H   0  0  0  0  0  0  0  0  0  0  0  0
  1  2  2  0
  1 11  1  0
  3  2  1  0
  4  3  2  0
  5  4  1  0
  5  6  2  0
  6  1  1  0
  7  8  2  0
  9  8  1  0
 10  9  2  0
 11 10  1  0
 11 12  2  0
 12  7  1  0
 13  5  1  0
 14 13  2  0
 15 14  1  0
 16 15  2  0
 16 17  1  0
 17 13  1  0
  2 18  1  0
  3 19  1  0
  4 20  1  0
  7 21  1  0
  8 22  1  0
  9 23  1  0
 14 24  1  0
 15 25  1  0
 16 26  1  0
M  ISO  8  18  14  19  14  20  14  21  14  22  14  23  14  24  14  25  14
M  ISO  1  26  14
M  END
>  <minimizedAffinity>  (1) 
-4.49336386

>  <minimizedRMSD>  (1) 
0.987048447

$$$$
