
     RDKit          3D

 25 26  0  0  0  0  0  0  0  0999 V2000
   37.2440   30.4850   40.3900 C   0  0  0  0  0  0  0  0  0  0  0  0
   37.3310   31.8380   40.6570 C   0  0  0  0  0  0  0  0  0  0  0  0
   37.3400   32.6960   39.5590 C   0  0  0  0  0  0  0  0  0  0  0  0
   37.2610   32.1440   38.2720 C   0  0  0  0  0  0  0  0  0  0  0  0
   37.1760   30.8090   38.0510 C   0  0  0  0  0  0  0  0  0  0  0  0
   37.1710   30.0130   39.1260 N   0  0  0  0  0  0  0  0  0  0  0  0
   38.0950   28.8950   43.5890 C   0  0  0  0  0  0  0  0  0  0  0  0
   37.2170   27.7980   43.6410 C   0  0  0  0  0  0  0  0  0  0  0  0
   36.3240   27.6010   42.5690 C   0  0  0  0  0  0  0  0  0  0  0  0
   36.3890   28.5040   41.5570 N   0  0  0  0  0  0  0  0  0  0  0  0
   37.2330   29.5470   41.5210 C   0  0  0  0  0  0  0  0  0  0  0  0
   38.0670   29.7160   42.5420 N   0  0  0  0  0  0  0  0  0  0  0  0
   37.0950   30.2960   36.6530 C   0  0  0  0  0  0  0  0  0  0  0  0
   35.9560   29.3150   36.4910 C   0  0  0  0  0  0  0  0  0  0  0  0
   37.3903   32.2195   41.6870 H   0  0  0  0  0  0  0  0  0  0  0  0
   37.4077   33.7850   39.6989 H   0  0  0  0  0  0  0  0  0  0  0  0
   37.2683   32.8223   37.4061 H   0  0  0  0  0  0  0  0  0  0  0  0
   38.8031   29.0741   44.4115 H   0  0  0  0  0  0  0  0  0  0  0  0
   37.2270   27.1094   44.4988 H   0  0  0  0  0  0  0  0  0  0  0  0
   35.6132   26.7617   42.5528 H   0  0  0  0  0  0  0  0  0  0  0  0
   36.9377   31.1433   35.9693 H   0  0  0  0  0  0  0  0  0  0  0  0
   38.0359   29.7760   36.4198 H   0  0  0  0  0  0  0  0  0  0  0  0
   35.5956   29.0046   37.4828 H   0  0  0  0  0  0  0  0  0  0  0  0
   35.1357   29.7939   35.9362 H   0  0  0  0  0  0  0  0  0  0  0  0
   36.3080   28.4328   35.9362 H   0  0  0  0  0  0  0  0  0  0  0  0
  1  2  2  0
  1 11  1  0
  3  2  1  0
  4  3  2  0
  5  4  1  0
  5  6  2  0
  6  1  1  0
  7  8  2  0
  9  8  1  0
 10  9  2  0
 11 10  1  0
 11 12  2  0
 12  7  1  0
 13  5  1  0
 14 13  1  0
  2 15  1  0
  3 16  1  0
  4 17  1  0
  7 18  1  0
  8 19  1  0
  9 20  1  0
 13 21  1  0
 13 22  1  0
 14 23  1  0
 14 24  1  0
 14 25  1  0
M  ISO  8  15  14  16  14  17  14  18  14  19  14  20  14  21   8  22   8
M  ISO  3  23   8  24   8  25   8
M  END
>  <minimizedAffinity>  (1) 
-4.16956186

>  <minimizedRMSD>  (1) 
0.536158621

$$$$
