
     RDKit          3D

 22 23  0  0  0  0  0  0  0  0999 V2000
   37.2460   30.5070   40.3970 C   0  0  0  0  0  0  0  0  0  0  0  0
   37.3420   31.8590   40.6650 C   0  0  0  0  0  0  0  0  0  0  0  0
   37.3590   32.7330   39.5950 C   0  0  0  0  0  0  0  0  0  0  0  0
   37.2800   32.2070   38.3190 C   0  0  0  0  0  0  0  0  0  0  0  0
   37.1850   30.8610   38.0670 C   0  0  0  0  0  0  0  0  0  0  0  0
   37.1690   30.0280   39.1300 N   0  0  0  0  0  0  0  0  0  0  0  0
   38.0860   28.8780   43.5830 C   0  0  0  0  0  0  0  0  0  0  0  0
   37.2080   27.7910   43.6230 C   0  0  0  0  0  0  0  0  0  0  0  0
   36.3170   27.6080   42.5540 C   0  0  0  0  0  0  0  0  0  0  0  0
   36.3800   28.5160   41.5470 N   0  0  0  0  0  0  0  0  0  0  0  0
   37.2240   29.5530   41.5200 C   0  0  0  0  0  0  0  0  0  0  0  0
   38.0810   29.7310   42.5450 N   0  0  0  0  0  0  0  0  0  0  0  0
   37.0960   30.2500   36.7170 C   0  0  0  0  0  0  0  0  0  0  0  0
   37.4031   32.2285   41.6993 H   0  0  0  0  0  0  0  0  0  0  0  0
   37.4334   33.8189   39.7543 H   0  0  0  0  0  0  0  0  0  0  0  0
   37.2939   32.9001   37.4649 H   0  0  0  0  0  0  0  0  0  0  0  0
   38.7906   29.0371   44.4126 H   0  0  0  0  0  0  0  0  0  0  0  0
   37.2152   27.0940   44.4740 H   0  0  0  0  0  0  0  0  0  0  0  0
   35.6036   26.7709   42.5333 H   0  0  0  0  0  0  0  0  0  0  0  0
   36.9381   29.1658   36.8149 H   0  0  0  0  0  0  0  0  0  0  0  0
   36.2532   30.6952   36.1679 H   0  0  0  0  0  0  0  0  0  0  0  0
   38.0308   30.4363   36.1679 H   0  0  0  0  0  0  0  0  0  0  0  0
  1  2  2  0
  1 11  1  0
  3  2  1  0
  4  3  2  0
  5  4  1  0
  5  6  2  0
  6  1  1  0
  7  8  2  0
  9  8  1  0
 10  9  2  0
 11 10  1  0
 11 12  2  0
 12  7  1  0
 13  5  1  0
  2 14  1  0
  3 15  1  0
  4 16  1  0
  7 17  1  0
  8 18  1  0
  9 19  1  0
 13 20  1  0
 13 21  1  0
 13 22  1  0
M  ISO  8  14  14  15  14  16  14  17  14  18  14  19  14  20   8  21   8
M  ISO  1  22   8
M  END
>  <minimizedAffinity>  (1) 
-4.16508293

>  <minimizedRMSD>  (1) 
0.448997378

$$$$
