
     RDKit          3D

 21 22  0  0  0  0  0  0  0  0999 V2000
   37.2260   30.4490   40.3630 C   0  0  0  0  0  0  0  0  0  0  0  0
   37.2960   31.8210   40.6320 C   0  0  0  0  0  0  0  0  0  0  0  0
   37.3090   32.6630   39.5200 C   0  0  0  0  0  0  0  0  0  0  0  0
   37.2520   32.1180   38.2490 C   0  0  0  0  0  0  0  0  0  0  0  0
   37.1850   30.7810   38.0290 C   0  0  0  0  0  0  0  0  0  0  0  0
   37.1720   29.9550   39.0930 N   0  0  0  0  0  0  0  0  0  0  0  0
   38.0780   28.8980   43.5780 C   0  0  0  0  0  0  0  0  0  0  0  0
   37.2160   27.8040   43.6450 C   0  0  0  0  0  0  0  0  0  0  0  0
   36.3340   27.5970   42.5730 C   0  0  0  0  0  0  0  0  0  0  0  0
   36.3820   28.4780   41.5490 N   0  0  0  0  0  0  0  0  0  0  0  0
   37.2100   29.5200   41.4980 C   0  0  0  0  0  0  0  0  0  0  0  0
   38.0570   29.7200   42.5230 N   0  0  0  0  0  0  0  0  0  0  0  0
   37.1270   30.2670   36.6660 C   0  0  0  0  0  0  0  0  0  0  0  0
   36.1460   29.5770   36.2830 O   0  0  0  0  0  0  0  0  0  0  0  0
   37.3382   32.2119   41.6593 H   0  0  0  0  0  0  0  0  0  0  0  0
   37.3642   33.7536   39.6524 H   0  0  0  0  0  0  0  0  0  0  0  0
   37.2614   32.7959   37.3828 H   0  0  0  0  0  0  0  0  0  0  0  0
   38.7826   29.0870   44.4013 H   0  0  0  0  0  0  0  0  0  0  0  0
   37.2269   27.1249   44.5103 H   0  0  0  0  0  0  0  0  0  0  0  0
   35.6311   26.7509   42.5664 H   0  0  0  0  0  0  0  0  0  0  0  0
   37.9474   30.4839   35.9661 H   0  0  0  0  0  0  0  0  0  0  0  0
  1  2  2  0
  1 11  1  0
  3  2  1  0
  4  3  2  0
  5  4  1  0
  5  6  2  0
  6  1  1  0
  7  8  2  0
  9  8  1  0
 10  9  2  0
 11 10  1  0
 11 12  2  0
 12  7  1  0
 13  5  1  0
 14 13  2  0
  2 15  1  0
  3 16  1  0
  4 17  1  0
  7 18  1  0
  8 19  1  0
  9 20  1  0
 13 21  1  0
M  ISO  7  15  14  16  14  17  14  18  14  19  14  20  14  21   6
M  END
>  <minimizedAffinity>  (1) 
-4.06241989

>  <minimizedRMSD>  (1) 
0.50930351

$$$$
