
     RDKit          3D

 20 21  0  0  0  0  0  0  0  0999 V2000
   37.1800   30.3480   40.3730 C   0  0  0  0  0  0  0  0  0  0  0  0
   37.3010   31.7090   40.5750 C   0  0  0  0  0  0  0  0  0  0  0  0
   37.3000   32.5280   39.4550 C   0  0  0  0  0  0  0  0  0  0  0  0
   37.1800   31.9490   38.2040 C   0  0  0  0  0  0  0  0  0  0  0  0
   37.0610   30.6000   38.0230 C   0  0  0  0  0  0  0  0  0  0  0  0
   37.0630   29.8150   39.1190 N   0  0  0  0  0  0  0  0  0  0  0  0
   38.0680   28.8980   43.6210 C   0  0  0  0  0  0  0  0  0  0  0  0
   37.2100   27.7790   43.7110 C   0  0  0  0  0  0  0  0  0  0  0  0
   36.3270   27.5280   42.6500 C   0  0  0  0  0  0  0  0  0  0  0  0
   36.3570   28.3860   41.5970 N   0  0  0  0  0  0  0  0  0  0  0  0
   37.1760   29.4410   41.5280 C   0  0  0  0  0  0  0  0  0  0  0  0
   38.0160   29.6770   42.5410 N   0  0  0  0  0  0  0  0  0  0  0  0
   36.9070   29.8870   36.3870 S   0  0  0  0  0  0  0  0  0  0  0  0
   37.3948   32.1286   41.5875 H   0  0  0  0  0  0  0  0  0  0  0  0
   37.3930   33.6190   39.5598 H   0  0  0  0  0  0  0  0  0  0  0  0
   37.1804   32.6018   37.3186 H   0  0  0  0  0  0  0  0  0  0  0  0
   38.7725   29.1241   44.4350 H   0  0  0  0  0  0  0  0  0  0  0  0
   37.2338   27.1205   44.5918 H   0  0  0  0  0  0  0  0  0  0  0  0
   35.6379   26.6708   42.6699 H   0  0  0  0  0  0  0  0  0  0  0  0
   36.6187   28.5521   36.4959 H   0  0  0  0  0  0  0  0  0  0  0  0
  1  2  2  0
  1 11  1  0
  3  2  1  0
  4  3  2  0
  5  4  1  0
  5  6  2  0
  6  1  1  0
  7  8  2  0
  9  8  1  0
 10  9  2  0
 11 10  1  0
 11 12  2  0
 12  7  1  0
 13  5  1  0
  2 14  1  0
  3 15  1  0
  4 16  1  0
  7 17  1  0
  8 18  1  0
  9 19  1  0
 13 20  1  0
M  ISO  7  14  14  15  14  16  14  17  14  18  14  19  14  20  11
M  END
>  <minimizedAffinity>  (1) 
-4.00461864

>  <minimizedRMSD>  (1) 
0.504240692

$$$$
