
     RDKit          3D

 30 32  0  0  0  0  0  0  0  0999 V2000
   36.9690   29.4520   39.9540 C   0  0  0  0  0  0  0  0  0  0  0  0
   37.5720   30.6430   39.6140 C   0  0  0  0  0  0  0  0  0  0  0  0
   37.4340   31.0910   38.3070 C   0  0  0  0  0  0  0  0  0  0  0  0
   36.7040   30.3190   37.4220 C   0  0  0  0  0  0  0  0  0  0  0  0
   36.1100   29.1320   37.7810 C   0  0  0  0  0  0  0  0  0  0  0  0
   36.2490   28.7070   39.0490 N   0  0  0  0  0  0  0  0  0  0  0  0
   38.1310   29.1230   43.4190 C   0  0  0  0  0  0  0  0  0  0  0  0
   37.3710   28.0480   43.9110 C   0  0  0  0  0  0  0  0  0  0  0  0
   36.4480   27.4320   43.0410 C   0  0  0  0  0  0  0  0  0  0  0  0
   36.3730   27.9340   41.7890 N   0  0  0  0  0  0  0  0  0  0  0  0
   37.0940   28.9480   41.3280 C   0  0  0  0  0  0  0  0  0  0  0  0
   37.9590   29.5200   42.1600 N   0  0  0  0  0  0  0  0  0  0  0  0
   35.1790   28.1730   36.6030 S   0  0  0  0  0  0  0  0  0  0  0  0
   33.6010   28.9890   36.3150 C   0  0  0  0  0  0  0  0  0  0  0  0
   33.3410   29.4380   35.0280 C   0  0  0  0  0  0  0  0  0  0  0  0
   32.1290   30.0720   34.7810 C   0  0  0  0  0  0  0  0  0  0  0  0
   31.2350   30.2300   35.8150 C   0  0  0  0  0  0  0  0  0  0  0  0
   31.4850   29.7850   37.1090 C   0  0  0  0  0  0  0  0  0  0  0  0
   32.6900   29.1590   37.3380 C   0  0  0  0  0  0  0  0  0  0  0  0
   38.1447   31.2208   40.3544 H   0  0  0  0  0  0  0  0  0  0  0  0
   37.8939   32.0365   37.9837 H   0  0  0  0  0  0  0  0  0  0  0  0
   36.5936   30.6699   36.3853 H   0  0  0  0  0  0  0  0  0  0  0  0
   38.8602   29.6309   44.0673 H   0  0  0  0  0  0  0  0  0  0  0  0
   37.4929   27.6968   44.9463 H   0  0  0  0  0  0  0  0  0  0  0  0
   35.8221   26.5873   43.3646 H   0  0  0  0  0  0  0  0  0  0  0  0
   34.0765   29.2956   34.2225 H   0  0  0  0  0  0  0  0  0  0  0  0
   31.8880   30.4421   33.7735 H   0  0  0  0  0  0  0  0  0  0  0  0
   30.2780   30.7316   35.6087 H   0  0  0  0  0  0  0  0  0  0  0  0
   30.7508   29.9272   37.9157 H   0  0  0  0  0  0  0  0  0  0  0  0
   32.9290   28.7906   38.3465 H   0  0  0  0  0  0  0  0  0  0  0  0
  1 11  1  0
  2  1  2  0
  3  2  1  0
  4  5  1  0
  4  3  2  0
  5  6  2  0
  6  1  1  0
  7  8  2  0
  9  8  1  0
 10  9  2  0
 11 10  1  0
 11 12  2  0
 12  7  1  0
 13  5  1  0
 14 13  1  0
 14 19  1  0
 15 14  2  0
 16 15  1  0
 16 17  2  0
 17 18  1  0
 18 19  2  0
  2 20  1  0
  3 21  1  0
  4 22  1  0
  7 23  1  0
  8 24  1  0
  9 25  1  0
 15 26  1  0
 16 27  1  0
 17 28  1  0
 18 29  1  0
 19 30  1  0
M  ISO  8  20  14  21  14  22  14  23  14  24  14  25  14  26  14  27  14
M  ISO  3  28  14  29  14  30  14
M  END
>  <minimizedAffinity>  (1) 
-4.81358004

>  <minimizedRMSD>  (1) 
3.40688562

$$$$
