
     RDKit          3D

 30 32  0  0  0  0  0  0  0  0999 V2000
   37.2080   30.2040   40.4830 C   0  0  0  0  0  0  0  0  0  0  0  0
   37.3110   31.5790   40.6360 C   0  0  0  0  0  0  0  0  0  0  0  0
   37.2770   32.3560   39.4870 C   0  0  0  0  0  0  0  0  0  0  0  0
   37.1400   31.7250   38.2540 C   0  0  0  0  0  0  0  0  0  0  0  0
   37.0390   30.3620   38.1250 C   0  0  0  0  0  0  0  0  0  0  0  0
   37.0750   29.6180   39.2480 N   0  0  0  0  0  0  0  0  0  0  0  0
   38.2160   28.8570   43.7280 C   0  0  0  0  0  0  0  0  0  0  0  0
   37.3570   27.7580   43.9060 C   0  0  0  0  0  0  0  0  0  0  0  0
   36.4160   27.4810   42.8890 C   0  0  0  0  0  0  0  0  0  0  0  0
   36.4080   28.2960   41.8090 N   0  0  0  0  0  0  0  0  0  0  0  0
   37.2390   29.3410   41.6610 C   0  0  0  0  0  0  0  0  0  0  0  0
   38.1350   29.6050   42.6310 N   0  0  0  0  0  0  0  0  0  0  0  0
   36.8660   29.5960   36.5250 S   0  0  0  0  0  0  0  0  0  0  0  0
   35.1230   29.3010   36.2200 C   0  0  0  0  0  0  0  0  0  0  0  0
   34.5480   29.2710   34.9660 C   0  0  0  0  0  0  0  0  0  0  0  0
   33.1720   29.0280   34.8800 C   0  0  0  0  0  0  0  0  0  0  0  0
   32.4700   28.8340   36.0490 C   0  0  0  0  0  0  0  0  0  0  0  0
   33.0320   28.8630   37.3100 C   0  0  0  0  0  0  0  0  0  0  0  0
   34.3900   29.1030   37.3760 C   0  0  0  0  0  0  0  0  0  0  0  0
   37.4157   32.0361   41.6310 H   0  0  0  0  0  0  0  0  0  0  0  0
   37.3569   33.4513   39.5494 H   0  0  0  0  0  0  0  0  0  0  0  0
   37.1115   32.3441   37.3452 H   0  0  0  0  0  0  0  0  0  0  0  0
   38.9599   29.0998   44.5011 H   0  0  0  0  0  0  0  0  0  0  0  0
   37.4158   27.1331   44.8093 H   0  0  0  0  0  0  0  0  0  0  0  0
   35.7171   26.6356   42.9721 H   0  0  0  0  0  0  0  0  0  0  0  0
   35.1525   29.4331   34.0614 H   0  0  0  0  0  0  0  0  0  0  0  0
   32.6648   28.9929   33.9045 H   0  0  0  0  0  0  0  0  0  0  0  0
   31.3893   28.6432   35.9730 H   0  0  0  0  0  0  0  0  0  0  0  0
   32.4285   28.7031   38.2157 H   0  0  0  0  0  0  0  0  0  0  0  0
   34.8921   29.1370   38.3541 H   0  0  0  0  0  0  0  0  0  0  0  0
  1  2  2  0
  1 11  1  0
  3  2  1  0
  4  3  2  0
  5  4  1  0
  5  6  2  0
  6  1  1  0
  7  8  2  0
  9  8  1  0
 10  9  2  0
 11 10  1  0
 11 12  2  0
 12  7  1  0
 13  5  1  0
 14 13  1  0
 14 19  1  0
 15 14  2  0
 16 15  1  0
 16 17  2  0
 17 18  1  0
 18 19  2  0
  2 20  1  0
  3 21  1  0
  4 22  1  0
  7 23  1  0
  8 24  1  0
  9 25  1  0
 15 26  1  0
 16 27  1  0
 17 28  1  0
 18 29  1  0
 19 30  1  0
M  ISO  8  20  14  21  14  22  14  23  14  24  14  25  14  26  14  27  14
M  ISO  3  28  14  29  14  30  14
M  END
>  <minimizedAffinity>  (1) 
-4.79925156

>  <minimizedRMSD>  (1) 
2.91509676

$$$$
