
     RDKit          3D

 28 30  0  0  0  0  0  0  0  0999 V2000
   37.1550   30.3280   40.3690 C   0  0  0  0  0  0  0  0  0  0  0  0
   37.2570   31.6980   40.5750 C   0  0  0  0  0  0  0  0  0  0  0  0
   37.2710   32.5190   39.4580 C   0  0  0  0  0  0  0  0  0  0  0  0
   37.1820   31.9330   38.2010 C   0  0  0  0  0  0  0  0  0  0  0  0
   37.0810   30.5910   38.0150 C   0  0  0  0  0  0  0  0  0  0  0  0
   37.0690   29.8040   39.1040 N   0  0  0  0  0  0  0  0  0  0  0  0
   37.9920   28.8840   43.6250 C   0  0  0  0  0  0  0  0  0  0  0  0
   37.1420   27.7470   43.6930 C   0  0  0  0  0  0  0  0  0  0  0  0
   36.2900   27.4920   42.6150 C   0  0  0  0  0  0  0  0  0  0  0  0
   36.3420   28.3600   41.5760 N   0  0  0  0  0  0  0  0  0  0  0  0
   37.1360   29.4220   41.5130 C   0  0  0  0  0  0  0  0  0  0  0  0
   37.9420   29.6560   42.5410 N   0  0  0  0  0  0  0  0  0  0  0  0
   36.9700   29.8980   36.3770 S   0  0  0  0  0  0  0  0  0  0  0  0
   37.9200   28.3760   36.3710 C   0  0  0  0  0  0  0  0  0  0  0  0
   37.1770   27.2860   35.9710 C   0  0  0  0  0  0  0  0  0  0  0  0
   37.6940   26.0060   35.8890 C   0  0  0  0  0  0  0  0  0  0  0  0
   39.0020   25.8400   36.2240 N   0  0  0  0  0  0  0  0  0  0  0  0
   39.6970   26.9350   36.6110 C   0  0  0  0  0  0  0  0  0  0  0  0
   39.2110   28.1840   36.6970 N   0  0  0  0  0  0  0  0  0  0  0  0
   37.3244   32.1171   41.5898 H   0  0  0  0  0  0  0  0  0  0  0  0
   37.3508   33.6109   39.5644 H   0  0  0  0  0  0  0  0  0  0  0  0
   37.1939   32.5859   37.3158 H   0  0  0  0  0  0  0  0  0  0  0  0
   38.6778   29.1217   44.4516 H   0  0  0  0  0  0  0  0  0  0  0  0
   37.1544   27.0849   44.5713 H   0  0  0  0  0  0  0  0  0  0  0  0
   35.6096   26.6277   42.6103 H   0  0  0  0  0  0  0  0  0  0  0  0
   36.1214   27.4419   35.7040 H   0  0  0  0  0  0  0  0  0  0  0  0
   37.0733   25.1572   35.5662 H   0  0  0  0  0  0  0  0  0  0  0  0
   40.7538   26.7889   36.8789 H   0  0  0  0  0  0  0  0  0  0  0  0
  1  2  2  0
  1 11  1  0
  3  2  1  0
  4  3  2  0
  5  4  1  0
  5  6  2  0
  6  1  1  0
  7  8  2  0
  9  8  1  0
 10  9  2  0
 11 10  1  0
 11 12  2  0
 12  7  1  0
 13  5  1  0
 14 13  1  0
 14 19  1  0
 15 14  2  0
 16 15  1  0
 16 17  2  0
 17 18  1  0
 18 19  2  0
  2 20  1  0
  3 21  1  0
  4 22  1  0
  7 23  1  0
  8 24  1  0
  9 25  1  0
 15 26  1  0
 16 27  1  0
 18 28  1  0
M  ISO  8  20  14  21  14  22  14  23  14  24  14  25  14  26  14  27  14
M  ISO  1  28  14
M  END
>  <minimizedAffinity>  (1) 
-4.54101515

>  <minimizedRMSD>  (1) 
1.54715383

$$$$
