
     RDKit          3D

 26 28  0  0  0  0  0  0  0  0999 V2000
   37.3990   26.7740   41.7820 C   0  0  0  0  0  0  0  0  0  0  0  0
   38.0470   26.8120   42.9910 C   0  0  0  0  0  0  0  0  0  0  0  0
   38.1770   28.0480   43.6050 C   0  0  0  0  0  0  0  0  0  0  0  0
   37.6550   29.1760   42.9810 C   0  0  0  0  0  0  0  0  0  0  0  0
   37.0110   29.1150   41.7700 C   0  0  0  0  0  0  0  0  0  0  0  0
   36.8920   27.9080   41.1860 N   0  0  0  0  0  0  0  0  0  0  0  0
   37.7460   23.2170   40.9770 C   0  0  0  0  0  0  0  0  0  0  0  0
   36.9480   23.0810   39.8080 C   0  0  0  0  0  0  0  0  0  0  0  0
   36.2910   24.2210   39.2990 C   0  0  0  0  0  0  0  0  0  0  0  0
   36.4830   25.3680   39.9860 N   0  0  0  0  0  0  0  0  0  0  0  0
   37.2280   25.4990   41.0780 C   0  0  0  0  0  0  0  0  0  0  0  0
   37.8550   24.4140   41.5630 N   0  0  0  0  0  0  0  0  0  0  0  0
   36.3580   30.5870   41.0060 S   0  0  0  0  0  0  0  0  0  0  0  0
   36.8660   30.5020   39.2700 C   0  0  0  0  0  0  0  0  0  0  0  0
   36.0650   29.9080   38.3390 C   0  0  0  0  0  0  0  0  0  0  0  0
   37.0660   30.1120   36.7910 S   0  0  0  0  0  0  0  0  0  0  0  0
   38.4320   31.0050   37.7680 C   0  0  0  0  0  0  0  0  0  0  0  0
   38.0090   30.9990   38.8310 N   0  0  0  0  0  0  0  0  0  0  0  0
   38.4473   25.8982   43.4544 H   0  0  0  0  0  0  0  0  0  0  0  0
   38.6876   28.1357   44.5754 H   0  0  0  0  0  0  0  0  0  0  0  0
   37.7620   30.1526   43.4757 H   0  0  0  0  0  0  0  0  0  0  0  0
   38.2693   22.3448   41.3958 H   0  0  0  0  0  0  0  0  0  0  0  0
   36.8449   22.1056   39.3101 H   0  0  0  0  0  0  0  0  0  0  0  0
   35.6612   24.1784   38.3982 H   0  0  0  0  0  0  0  0  0  0  0  0
   35.0821   29.4323   38.4718 H   0  0  0  0  0  0  0  0  0  0  0  0
   39.3836   31.4202   37.4046 H   0  0  0  0  0  0  0  0  0  0  0  0
  1  2  2  0
  2  3  1  0
  4  3  2  0
  5  4  1  0
  6  5  2  0
  6  1  1  0
  7 12  2  0
  8  7  1  0
  9  8  2  0
  9 10  1  0
 10 11  2  0
 11 12  1  0
 11  1  1  0
 13  5  1  0
 14 13  1  0
 15 14  2  0
 16 17  1  0
 16 15  1  0
 17 18  2  0
 18 14  1  0
  2 19  1  0
  3 20  1  0
  4 21  1  0
  7 22  1  0
  8 23  1  0
  9 24  1  0
 15 25  1  0
 17 26  1  0
M  ISO  8  19  14  20  14  21  14  22  14  23  14  24  14  25  14  26  14
M  END
>  <minimizedAffinity>  (1) 
-4.47892237

>  <minimizedRMSD>  (1) 
4.7552557

$$$$
