
     RDKit          3D

 27 29  0  0  0  0  0  0  0  0999 V2000
   37.1860   30.2500   40.4100 C   0  0  0  0  0  0  0  0  0  0  0  0
   37.4260   31.6050   40.5800 C   0  0  0  0  0  0  0  0  0  0  0  0
   37.4130   32.3950   39.4430 C   0  0  0  0  0  0  0  0  0  0  0  0
   37.1690   31.8240   38.2180 C   0  0  0  0  0  0  0  0  0  0  0  0
   36.9350   30.4960   38.0770 C   0  0  0  0  0  0  0  0  0  0  0  0
   36.9450   29.7130   39.1850 N   0  0  0  0  0  0  0  0  0  0  0  0
   38.0750   28.8730   43.6900 C   0  0  0  0  0  0  0  0  0  0  0  0
   37.2090   27.7480   43.7890 C   0  0  0  0  0  0  0  0  0  0  0  0
   36.3380   27.4770   42.7360 C   0  0  0  0  0  0  0  0  0  0  0  0
   36.3770   28.3200   41.6740 N   0  0  0  0  0  0  0  0  0  0  0  0
   37.1870   29.3770   41.5770 C   0  0  0  0  0  0  0  0  0  0  0  0
   38.0070   29.6140   42.5920 N   0  0  0  0  0  0  0  0  0  0  0  0
   36.6100   29.7450   36.4680 S   0  0  0  0  0  0  0  0  0  0  0  0
   35.1720   28.6860   36.7420 C   0  0  0  0  0  0  0  0  0  0  0  0
   35.0960   27.3260   36.5600 C   0  0  0  0  0  0  0  0  0  0  0  0
   33.8130   26.9040   36.8840 C   0  0  0  0  0  0  0  0  0  0  0  0
   33.1610   28.0290   37.2520 N   0  0  0  0  0  0  0  0  0  0  0  0
   33.9630   29.0750   37.1670 N   0  0  0  0  0  0  0  0  0  0  0  0
   37.6183   32.0336   41.5747 H   0  0  0  0  0  0  0  0  0  0  0  0
   37.5975   33.4766   39.5206 H   0  0  0  0  0  0  0  0  0  0  0  0
   37.1632   32.4640   37.3234 H   0  0  0  0  0  0  0  0  0  0  0  0
   38.7786   29.1202   44.4986 H   0  0  0  0  0  0  0  0  0  0  0  0
   37.2270   27.1042   44.6807 H   0  0  0  0  0  0  0  0  0  0  0  0
   35.6503   26.6189   42.7645 H   0  0  0  0  0  0  0  0  0  0  0  0
   35.9157   26.6787   36.2148 H   0  0  0  0  0  0  0  0  0  0  0  0
   33.4150   25.8791   36.8488 H   0  0  0  0  0  0  0  0  0  0  0  0
   32.1775   28.0656   37.5559 H   0  0  0  0  0  0  0  0  0  0  0  0
  1  2  2  0
  1 11  1  0
  3  2  1  0
  4  3  2  0
  5  4  1  0
  5  6  2  0
  6  1  1  0
  7  8  2  0
  9  8  1  0
 10  9  2  0
 11 10  1  0
 11 12  2  0
 12  7  1  0
 13 14  1  0
 13  5  1  0
 14 18  2  0
 15 14  1  0
 15 16  2  0
 16 17  1  0
 18 17  1  0
  2 19  1  0
  3 20  1  0
  4 21  1  0
  7 22  1  0
  8 23  1  0
  9 24  1  0
 15 25  1  0
 16 26  1  0
 17 27  1  0
M  ISO  8  19  14  20  14  21  14  22  14  23  14  24  14  25  14  26  14
M  ISO  1  27   9
M  END
>  <minimizedAffinity>  (1) 
-4.4744482

>  <minimizedRMSD>  (1) 
1.16028285

$$$$
