
     RDKit          3D

 23 24  0  0  0  0  0  0  0  0999 V2000
   37.1840   29.9750   40.2020 C   0  0  0  0  0  0  0  0  0  0  0  0
   37.0930   31.3450   40.2160 C   0  0  0  0  0  0  0  0  0  0  0  0
   37.1000   32.0030   38.9920 C   0  0  0  0  0  0  0  0  0  0  0  0
   37.1960   31.2600   37.8390 C   0  0  0  0  0  0  0  0  0  0  0  0
   37.2870   29.8890   37.8390 C   0  0  0  0  0  0  0  0  0  0  0  0
   37.2790   29.2620   39.0280 N   0  0  0  0  0  0  0  0  0  0  0  0
   38.0850   28.9860   43.6110 C   0  0  0  0  0  0  0  0  0  0  0  0
   37.2470   27.8730   43.8490 C   0  0  0  0  0  0  0  0  0  0  0  0
   36.3770   27.4700   42.8370 C   0  0  0  0  0  0  0  0  0  0  0  0
   36.3920   28.1760   41.6830 N   0  0  0  0  0  0  0  0  0  0  0  0
   37.1820   29.2190   41.4670 C   0  0  0  0  0  0  0  0  0  0  0  0
   38.0240   29.6150   42.4370 N   0  0  0  0  0  0  0  0  0  0  0  0
   37.4110   28.9450   36.3190 S   0  0  0  0  0  0  0  0  0  0  0  0
   36.3180   29.6260   35.0710 C   0  0  0  0  0  0  0  0  0  0  0  0
   35.0140   29.5730   35.5350 F   0  0  0  0  0  0  0  0  0  0  0  0
   36.6190   30.9240   34.7320 F   0  0  0  0  0  0  0  0  0  0  0  0
   36.3560   28.8430   33.9280 F   0  0  0  0  0  0  0  0  0  0  0  0
   37.0173   31.9015   41.1618 H   0  0  0  0  0  0  0  0  0  0  0  0
   37.0299   33.0998   38.9463 H   0  0  0  0  0  0  0  0  0  0  0  0
   37.2001   31.7868   36.8734 H   0  0  0  0  0  0  0  0  0  0  0  0
   38.7824   29.3307   44.3887 H   0  0  0  0  0  0  0  0  0  0  0  0
   37.2805   27.3378   44.8094 H   0  0  0  0  0  0  0  0  0  0  0  0
   35.7038   26.6105   42.9717 H   0  0  0  0  0  0  0  0  0  0  0  0
  1  2  2  0
  1 11  1  0
  3  2  1  0
  4  5  1  0
  4  3  2  0
  5  6  2  0
  6  1  1  0
  7  8  2  0
  9  8  1  0
 10  9  2  0
 11 10  1  0
 11 12  2  0
 12  7  1  0
 13  5  1  0
 14 15  1  0
 14 13  1  0
 16 14  1  0
 17 14  1  0
  2 18  1  0
  3 19  1  0
  4 20  1  0
  7 21  1  0
  8 22  1  0
  9 23  1  0
M  ISO  6  18  14  19  14  20  14  21  14  22  14  23  14
M  END
>  <minimizedAffinity>  (1) 
-4.31977415

>  <minimizedRMSD>  (1) 
1.08177459

$$$$
