
     RDKit          3D

 27 29  0  0  0  0  0  0  0  0999 V2000
   37.1690   30.3420   40.3680 C   0  0  0  0  0  0  0  0  0  0  0  0
   37.2950   31.7110   40.5660 C   0  0  0  0  0  0  0  0  0  0  0  0
   37.2900   32.5200   39.4350 C   0  0  0  0  0  0  0  0  0  0  0  0
   37.1630   31.9280   38.1980 C   0  0  0  0  0  0  0  0  0  0  0  0
   37.0390   30.5680   38.0210 C   0  0  0  0  0  0  0  0  0  0  0  0
   37.0430   29.7790   39.1160 N   0  0  0  0  0  0  0  0  0  0  0  0
   38.1070   28.9170   43.6120 C   0  0  0  0  0  0  0  0  0  0  0  0
   37.2360   27.7960   43.7100 C   0  0  0  0  0  0  0  0  0  0  0  0
   36.3420   27.5380   42.6740 C   0  0  0  0  0  0  0  0  0  0  0  0
   36.3500   28.3830   41.6110 N   0  0  0  0  0  0  0  0  0  0  0  0
   37.1750   29.4370   41.5310 C   0  0  0  0  0  0  0  0  0  0  0  0
   38.0340   29.6860   42.5220 N   0  0  0  0  0  0  0  0  0  0  0  0
   36.8780   29.8610   36.4020 S   0  0  0  0  0  0  0  0  0  0  0  0
   35.5190   28.6680   36.4350 C   0  0  0  0  0  0  0  0  0  0  0  0
   34.3560   29.0950   35.5470 C   0  0  0  0  0  0  0  0  0  0  0  0
   34.2070   28.9750   37.0200 C   0  0  0  0  0  0  0  0  0  0  0  0
   37.3946   32.1373   41.5751 H   0  0  0  0  0  0  0  0  0  0  0  0
   37.3857   33.6120   39.5266 H   0  0  0  0  0  0  0  0  0  0  0  0
   37.1605   32.5735   37.3073 H   0  0  0  0  0  0  0  0  0  0  0  0
   38.8236   29.1450   44.4148 H   0  0  0  0  0  0  0  0  0  0  0  0
   37.2685   27.1413   44.5933 H   0  0  0  0  0  0  0  0  0  0  0  0
   35.6541   26.6806   42.7152 H   0  0  0  0  0  0  0  0  0  0  0  0
   36.1932   27.8120   36.5859 H   0  0  0  0  0  0  0  0  0  0  0  0
   34.3582   30.0857   35.0689 H   0  0  0  0  0  0  0  0  0  0  0  0
   33.8431   28.6785   34.6675 H   0  0  0  0  0  0  0  0  0  0  0  0
   33.5955   28.1631   37.4406 H   0  0  0  0  0  0  0  0  0  0  0  0
   33.8630   29.6562   37.8123 H   0  0  0  0  0  0  0  0  0  0  0  0
  1  2  2  0
  1 11  1  0
  3  2  1  0
  4  3  2  0
  5  4  1  0
  5  6  2  0
  6  1  1  0
  7  8  2  0
  9  8  1  0
 10  9  2  0
 11 10  1  0
 11 12  2  0
 12  7  1  0
 13 14  1  0
 13  5  1  0
 14 16  1  0
 15 14  1  0
 15 16  1  0
  2 17  1  0
  3 18  1  0
  4 19  1  0
  7 20  1  0
  8 21  1  0
  9 22  1  0
 14 23  1  0
 15 24  1  0
 15 25  1  0
 16 26  1  0
 16 27  1  0
M  ISO  8  17  14  18  14  19  14  20  14  21  14  22  14  23  13  24  13
M  ISO  3  25  13  26  13  27  13
M  END
>  <minimizedAffinity>  (1) 
-4.23048353

>  <minimizedRMSD>  (1) 
1.2497139

$$$$
