
     RDKit          3D

 32 34  0  0  0  0  0  0  0  0999 V2000
   37.7120   28.5930   43.7620 C   0  0  0  0  0  0  0  0  0  0  0  0
   37.2250   27.2730   43.6700 C   0  0  0  0  0  0  0  0  0  0  0  0
   36.8220   26.8100   42.4190 C   0  0  0  0  0  0  0  0  0  0  0  0
   36.9190   27.6530   41.3570 N   0  0  0  0  0  0  0  0  0  0  0  0
   37.3890   28.9110   41.4680 C   0  0  0  0  0  0  0  0  0  0  0  0
   37.7850   29.3820   42.6680 N   0  0  0  0  0  0  0  0  0  0  0  0
   37.4490   29.7070   40.2980 N   0  0  0  0  0  0  0  0  0  0  0  0
   36.9680   29.2620   39.1210 C   0  0  0  0  0  0  0  0  0  0  0  0
   37.0960   30.1420   38.0760 C   0  0  0  0  0  0  0  0  0  0  0  0
   37.6640   31.3930   38.1680 C   0  0  0  0  0  0  0  0  0  0  0  0
   37.7710   32.1870   37.1910 O   0  0  0  0  0  0  0  0  0  0  0  0
   38.1310   31.7880   39.3730 N   0  0  0  0  0  0  0  0  0  0  0  0
   38.0150   30.9310   40.4270 C   0  0  0  0  0  0  0  0  0  0  0  0
   38.4670   31.3430   41.5420 O   0  0  0  0  0  0  0  0  0  0  0  0
   38.7410   33.0720   39.5800 C   0  0  0  0  0  0  0  0  0  0  0  0
   38.1240   34.2340   40.0160 C   0  0  0  0  0  0  0  0  0  0  0  0
   38.9300   35.3650   40.1400 C   0  0  0  0  0  0  0  0  0  0  0  0
   40.2710   35.2900   39.8360 C   0  0  0  0  0  0  0  0  0  0  0  0
   40.8700   34.1230   39.4020 C   0  0  0  0  0  0  0  0  0  0  0  0
   40.0500   33.0470   39.2940 N   0  0  0  0  0  0  0  0  0  0  0  0
   36.6070   29.7810   36.7210 C   0  0  0  0  0  0  0  0  0  0  0  0
   38.0366   28.9853   44.7371 H   0  0  0  0  0  0  0  0  0  0  0  0
   37.1650   26.6280   44.5591 H   0  0  0  0  0  0  0  0  0  0  0  0
   36.4351   25.7879   42.2940 H   0  0  0  0  0  0  0  0  0  0  0  0
   36.5080   28.2694   39.0064 H   0  0  0  0  0  0  0  0  0  0  0  0
   37.0502   34.2626   40.2528 H   0  0  0  0  0  0  0  0  0  0  0  0
   38.4951   36.3163   40.4804 H   0  0  0  0  0  0  0  0  0  0  0  0
   40.8889   36.1937   39.9428 H   0  0  0  0  0  0  0  0  0  0  0  0
   41.9417   34.0695   39.1598 H   0  0  0  0  0  0  0  0  0  0  0  0
   35.7250   29.1299   36.8109 H   0  0  0  0  0  0  0  0  0  0  0  0
   36.3335   30.6954   36.1742 H   0  0  0  0  0  0  0  0  0  0  0  0
   37.4003   29.2503   36.1742 H   0  0  0  0  0  0  0  0  0  0  0  0
  2  1  2  0
  3  2  1  0
  4  5  1  0
  4  3  2  0
  5  6  2  0
  6  1  1  0
  7 13  1  0
  7  5  1  0
  8  7  1  0
  9 10  1  0
  9  8  2  0
 10 12  1  0
 11 10  2  0
 12 15  1  0
 12 13  1  0
 13 14  2  0
 15 16  2  0
 16 17  1  0
 18 17  2  0
 19 18  1  0
 20 19  2  0
 20 15  1  0
 21  9  1  0
  1 22  1  0
  2 23  1  0
  3 24  1  0
  8 25  1  0
 16 26  1  0
 17 27  1  0
 18 28  1  0
 19 29  1  0
 21 30  1  0
 21 31  1  0
 21 32  1  0
M  ISO  8  22  14  23  14  24  14  25  14  26  14  27  14  28  14  29  14
M  ISO  3  30   8  31   8  32   8
M  END
>  <minimizedAffinity>  (1) 
-6.02129936

>  <minimizedRMSD>  (1) 
3.16502762

$$$$
