
     RDKit          3D

 46 49  0  0  1  0  0  0  0  0999 V2000
   34.5520   26.7470   37.5370 N   0  0  0  0  0  0  0  0  0  0  0  0
   34.1740   28.0550   38.0150 C   0  0  0  0  0  0  0  0  0  0  0  0
   34.7640   29.1700   37.1830 C   0  0  0  0  0  0  0  0  0  0  0  0
   36.0830   28.7660   36.5610 C   0  0  2  0  0  0  0  0  0  0  0  0
   36.8010   27.7240   37.3810 C   0  0  0  0  0  0  0  0  0  0  0  0
   35.9750   26.5020   37.5960 C   0  0  1  0  0  0  0  0  0  0  0  0
   36.3190   25.7300   38.7530 N   0  0  0  0  0  0  0  0  0  0  0  0
   37.1140   26.3520   39.6720 C   0  0  0  0  0  0  0  0  0  0  0  0
   37.5350   25.7510   40.8370 C   0  0  0  0  0  0  0  0  0  0  0  0
   37.1370   24.4620   41.0880 C   0  0  0  0  0  0  0  0  0  0  0  0
   37.5950   23.8840   42.2980 N   0  0  0  0  0  0  0  0  0  0  0  0
   36.3540   23.8560   40.1780 N   0  0  0  0  0  0  0  0  0  0  0  0
   35.9630   24.4780   39.0500 C   0  0  0  0  0  0  0  0  0  0  0  0
   35.2310   23.9090   38.2000 O   0  0  0  0  0  0  0  0  0  0  0  0
   37.1570   30.2260   36.5400 S   0  0  0  0  0  0  0  0  0  0  0  0
   37.8100   30.5830   40.4930 C   0  0  0  0  0  0  0  0  0  0  0  0
   37.7190   31.9320   40.7450 C   0  0  0  0  0  0  0  0  0  0  0  0
   37.4470   32.7820   39.6730 C   0  0  0  0  0  0  0  0  0  0  0  0
   37.2830   32.2280   38.4100 C   0  0  0  0  0  0  0  0  0  0  0  0
   37.3780   30.8720   38.1820 C   0  0  0  0  0  0  0  0  0  0  0  0
   37.6400   30.0840   39.2350 N   0  0  0  0  0  0  0  0  0  0  0  0
   39.6430   28.2680   42.6460 C   0  0  0  0  0  0  0  0  0  0  0  0
   38.6890   27.8900   43.6040 C   0  0  0  0  0  0  0  0  0  0  0  0
   37.4030   28.4460   43.4970 C   0  0  0  0  0  0  0  0  0  0  0  0
   37.1670   29.3030   42.4850 N   0  0  0  0  0  0  0  0  0  0  0  0
   38.0910   29.6520   41.5800 C   0  0  0  0  0  0  0  0  0  0  0  0
   39.3060   29.1230   41.6850 N   0  0  0  0  0  0  0  0  0  0  0  0
   34.2457   26.6564   36.5578 H   0  0  0  0  0  0  0  0  0  0  0  0
   33.0774   28.1370   37.9873 H   0  0  0  0  0  0  0  0  0  0  0  0
   34.5628   28.1611   39.0385 H   0  0  0  0  0  0  0  0  0  0  0  0
   34.0566   29.4296   36.3817 H   0  0  0  0  0  0  0  0  0  0  0  0
   34.9454   30.0313   37.8428 H   0  0  0  0  0  0  0  0  0  0  0  0
   35.8739   28.3612   35.5598 H   0  0  0  0  0  0  0  0  0  0  0  0
   37.7254   27.4380   36.8578 H   0  0  0  0  0  0  0  0  0  0  0  0
   37.0150   28.1620   38.3671 H   0  0  0  0  0  0  0  0  0  0  0  0
   36.2396   25.8759   36.7311 H   0  0  0  0  0  0  0  0  0  0  0  0
   37.4343   27.3851   39.4718 H   0  0  0  0  0  0  0  0  0  0  0  0
   38.1753   26.2914   41.5497 H   0  0  0  0  0  0  0  0  0  0  0  0
   37.3289   22.9191   42.5409 H   0  0  0  0  0  0  0  0  0  0  0  0
   38.1940   24.4288   42.9346 H   0  0  0  0  0  0  0  0  0  0  0  0
   37.8566   32.3288   41.7617 H   0  0  0  0  0  0  0  0  0  0  0  0
   37.3641   33.8683   39.8247 H   0  0  0  0  0  0  0  0  0  0  0  0
   37.0698   32.8950   37.5617 H   0  0  0  0  0  0  0  0  0  0  0  0
   40.6633   27.8593   42.6901 H   0  0  0  0  0  0  0  0  0  0  0  0
   38.9392   27.1839   44.4095 H   0  0  0  0  0  0  0  0  0  0  0  0
   36.6129   28.1891   44.2179 H   0  0  0  0  0  0  0  0  0  0  0  0
  1  6  1  0
  1  2  1  0
  3  2  1  0
  4  3  1  0
  4  5  1  0
  5  6  1  0
  6  7  1  0
  7 13  1  0
  7  8  1  0
  8  9  2  0
  9 10  1  0
 10 11  1  0
 12 10  2  0
 13 12  1  0
 14 13  2  0
 15  4  1  0
 15 20  1  0
 16 17  2  0
 16 26  1  0
 18 17  1  0
 19 18  2  0
 20 19  1  0
 20 21  2  0
 21 16  1  0
 22 23  2  0
 24 23  1  0
 25 24  2  0
 26 27  2  0
 26 25  1  0
 27 22  1  0
  1 28  1  0
  2 29  1  0
  2 30  1  0
  3 31  1  0
  3 32  1  0
  4 33  1  6
  5 34  1  0
  5 35  1  0
  6 36  1  6
  8 37  1  0
  9 38  1  0
 11 39  1  0
 11 40  1  0
 17 41  1  0
 18 42  1  0
 19 43  1  0
 22 44  1  0
 23 45  1  0
 24 46  1  0
M  ISO  8  28   5  29  13  30  13  31  13  32  13  33  13  34  13  35  13
M  ISO  8  36  13  37  14  38  14  41  14  42  14  43  14  44  14  45  14
M  ISO  1  46  14
M  END
>  <minimizedAffinity>  (1) 
-5.49949741

>  <minimizedRMSD>  (1) 
1.94467902

$$$$
