
     RDKit          3D

 39 41  0  0  0  0  0  0  0  0999 V2000
   37.7040   28.7720   43.7890 C   0  0  0  0  0  0  0  0  0  0  0  0
   37.0910   27.5000   43.7550 C   0  0  0  0  0  0  0  0  0  0  0  0
   36.6060   27.0130   42.5420 C   0  0  0  0  0  0  0  0  0  0  0  0
   36.7560   27.8060   41.4450 N   0  0  0  0  0  0  0  0  0  0  0  0
   37.3460   29.0210   41.5040 C   0  0  0  0  0  0  0  0  0  0  0  0
   37.8190   29.5060   42.6630 N   0  0  0  0  0  0  0  0  0  0  0  0
   37.4440   29.7580   40.2870 N   0  0  0  0  0  0  0  0  0  0  0  0
   36.9260   29.3010   39.1370 C   0  0  0  0  0  0  0  0  0  0  0  0
   37.1080   30.1340   38.0650 C   0  0  0  0  0  0  0  0  0  0  0  0
   37.7530   31.3400   38.0910 C   0  0  0  0  0  0  0  0  0  0  0  0
   37.8980   32.0690   37.0910 O   0  0  0  0  0  0  0  0  0  0  0  0
   38.2530   31.7450   39.2780 N   0  0  0  0  0  0  0  0  0  0  0  0
   38.0980   30.9550   40.3740 C   0  0  0  0  0  0  0  0  0  0  0  0
   38.5830   31.3740   41.4670 O   0  0  0  0  0  0  0  0  0  0  0  0
   38.9410   32.9890   39.4060 C   0  0  0  0  0  0  0  0  0  0  0  0
   40.4330   32.8670   39.6110 C   0  0  0  0  0  0  0  0  0  0  0  0
   41.0340   34.1850   39.1230 C   0  0  0  0  0  0  0  0  0  0  0  0
   40.4860   35.2840   39.9800 C   0  0  0  0  0  0  0  0  0  0  0  0
   38.9810   35.3070   40.0680 C   0  0  0  0  0  0  0  0  0  0  0  0
   38.4280   33.9220   40.4310 C   0  0  0  0  0  0  0  0  0  0  0  0
   36.5770   29.7350   36.7320 C   0  0  0  0  0  0  0  0  0  0  0  0
   38.0903   29.1669   44.7402 H   0  0  0  0  0  0  0  0  0  0  0  0
   36.9975   26.9016   44.6733 H   0  0  0  0  0  0  0  0  0  0  0  0
   36.1216   26.0278   42.4737 H   0  0  0  0  0  0  0  0  0  0  0  0
   36.3994   28.3382   39.0613 H   0  0  0  0  0  0  0  0  0  0  0  0
   38.7290   33.4188   38.4159 H   0  0  0  0  0  0  0  0  0  0  0  0
   40.6613   32.7139   40.6761 H   0  0  0  0  0  0  0  0  0  0  0  0
   40.8464   32.0079   39.0623 H   0  0  0  0  0  0  0  0  0  0  0  0
   42.1299   34.1521   39.2123 H   0  0  0  0  0  0  0  0  0  0  0  0
   40.7767   34.3567   38.0674 H   0  0  0  0  0  0  0  0  0  0  0  0
   40.8892   35.1627   40.9962 H   0  0  0  0  0  0  0  0  0  0  0  0
   40.7898   36.2317   39.5114 H   0  0  0  0  0  0  0  0  0  0  0  0
   38.6772   36.0290   40.8403 H   0  0  0  0  0  0  0  0  0  0  0  0
   38.5778   35.5982   39.0869 H   0  0  0  0  0  0  0  0  0  0  0  0
   37.3282   33.9355   40.4175 H   0  0  0  0  0  0  0  0  0  0  0  0
   38.7414   33.6184   41.4408 H   0  0  0  0  0  0  0  0  0  0  0  0
   35.7042   29.0792   36.8663 H   0  0  0  0  0  0  0  0  0  0  0  0
   36.2778   30.6336   36.1726 H   0  0  0  0  0  0  0  0  0  0  0  0
   37.3568   29.1975   36.1726 H   0  0  0  0  0  0  0  0  0  0  0  0
  2  1  2  0
  3  2  1  0
  4  5  1  0
  4  3  2  0
  5  6  2  0
  6  1  1  0
  7 13  1  0
  7  5  1  0
  8  7  1  0
  9 10  1  0
  9  8  2  0
 10 12  1  0
 11 10  2  0
 12 15  1  0
 12 13  1  0
 13 14  2  0
 15 16  1  0
 15 20  1  0
 17 16  1  0
 17 18  1  0
 18 19  1  0
 19 20  1  0
 21  9  1  0
  1 22  1  0
  2 23  1  0
  3 24  1  0
  8 25  1  0
 15 26  1  0
 16 27  1  0
 16 28  1  0
 17 29  1  0
 17 30  1  0
 18 31  1  0
 18 32  1  0
 19 33  1  0
 19 34  1  0
 20 35  1  0
 20 36  1  0
 21 37  1  0
 21 38  1  0
 21 39  1  0
M  ISO  8  22  14  23  14  24  14  25  14  26  13  27  13  28  13  29  13
M  ISO  8  30  13  31  13  32  13  33  13  34  13  35  13  36  13  37   8
M  ISO  2  38   8  39   8
M  END
>  <minimizedAffinity>  (1) 
-5.99670839

>  <minimizedRMSD>  (1) 
3.12710857

$$$$
