
     RDKit          3D

 51 55  0  0  1  0  0  0  0  0999 V2000
   33.1560   27.0480   36.8620 N   0  0  0  0  0  0  0  0  0  0  0  0
   33.2210   28.4590   37.0040 C   0  0  0  0  0  0  0  0  0  0  0  0
   34.4070   29.0940   36.3090 C   0  0  0  0  0  0  0  0  0  0  0  0
   35.5610   28.1280   36.1790 C   0  0  2  0  0  0  0  0  0  0  0  0
   35.5600   27.1090   37.2930 C   0  0  0  0  0  0  0  0  0  0  0  0
   34.2760   26.3240   37.3760 C   0  0  2  0  0  0  0  0  0  0  0  0
   34.4030   25.0530   36.6340 C   0  0  0  0  0  0  0  0  0  0  0  0
   34.1670   25.0050   35.2680 C   0  0  0  0  0  0  0  0  0  0  0  0
   34.2690   23.8370   34.5230 C   0  0  0  0  0  0  0  0  0  0  0  0
   34.6200   22.6490   35.1340 C   0  0  0  0  0  0  0  0  0  0  0  0
   34.8630   22.6570   36.4930 C   0  0  0  0  0  0  0  0  0  0  0  0
   35.2160   21.4720   37.1040 C   0  0  0  0  0  0  0  0  0  0  0  0
   35.4710   21.4410   38.4730 C   0  0  0  0  0  0  0  0  0  0  0  0
   35.3630   22.6290   39.2030 C   0  0  0  0  0  0  0  0  0  0  0  0
   35.0060   23.7730   38.5250 C   0  0  0  0  0  0  0  0  0  0  0  0
   34.7440   23.8480   37.1750 C   0  0  0  0  0  0  0  0  0  0  0  0
   37.1030   29.0650   36.3620 S   0  0  0  0  0  0  0  0  0  0  0  0
   37.1560   30.0250   40.2660 C   0  0  0  0  0  0  0  0  0  0  0  0
   37.1490   31.3930   40.2960 C   0  0  0  0  0  0  0  0  0  0  0  0
   37.1280   32.0750   39.0980 C   0  0  0  0  0  0  0  0  0  0  0  0
   37.1140   31.3320   37.9150 C   0  0  0  0  0  0  0  0  0  0  0  0
   37.1210   29.9530   37.9060 C   0  0  0  0  0  0  0  0  0  0  0  0
   37.1420   29.3290   39.0890 N   0  0  0  0  0  0  0  0  0  0  0  0
   38.1250   28.9820   43.6370 C   0  0  0  0  0  0  0  0  0  0  0  0
   37.2870   27.8660   43.8890 C   0  0  0  0  0  0  0  0  0  0  0  0
   36.3860   27.4840   42.8770 C   0  0  0  0  0  0  0  0  0  0  0  0
   36.3850   28.2140   41.7310 N   0  0  0  0  0  0  0  0  0  0  0  0
   37.1810   29.2560   41.5200 C   0  0  0  0  0  0  0  0  0  0  0  0
   38.0330   29.6190   42.4750 N   0  0  0  0  0  0  0  0  0  0  0  0
   32.3129   26.7184   37.3534 H   0  0  0  0  0  0  0  0  0  0  0  0
   32.3013   28.8917   36.5834 H   0  0  0  0  0  0  0  0  0  0  0  0
   33.3336   28.6658   38.0785 H   0  0  0  0  0  0  0  0  0  0  0  0
   34.0993   29.4191   35.3042 H   0  0  0  0  0  0  0  0  0  0  0  0
   34.7420   29.9491   36.9145 H   0  0  0  0  0  0  0  0  0  0  0  0
   35.4710   27.6220   35.2065 H   0  0  0  0  0  0  0  0  0  0  0  0
   36.3895   26.4063   37.1253 H   0  0  0  0  0  0  0  0  0  0  0  0
   35.6700   27.6583   38.2397 H   0  0  0  0  0  0  0  0  0  0  0  0
   34.0964   26.1296   38.4437 H   0  0  0  0  0  0  0  0  0  0  0  0
   33.8862   25.9344   34.7510 H   0  0  0  0  0  0  0  0  0  0  0  0
   34.0693   23.8583   33.4415 H   0  0  0  0  0  0  0  0  0  0  0  0
   34.7039   21.7193   34.5520 H   0  0  0  0  0  0  0  0  0  0  0  0
   35.2963   20.5501   36.5094 H   0  0  0  0  0  0  0  0  0  0  0  0
   35.7518   20.5008   38.9701 H   0  0  0  0  0  0  0  0  0  0  0  0
   35.5573   22.6489   40.2855 H   0  0  0  0  0  0  0  0  0  0  0  0
   34.9234   24.7018   39.1086 H   0  0  0  0  0  0  0  0  0  0  0  0
   37.1599   31.9355   41.2529 H   0  0  0  0  0  0  0  0  0  0  0  0
   37.1224   33.1747   39.0743 H   0  0  0  0  0  0  0  0  0  0  0  0
   37.0967   31.8673   36.9542 H   0  0  0  0  0  0  0  0  0  0  0  0
   38.8454   29.3174   44.3976 H   0  0  0  0  0  0  0  0  0  0  0  0
   37.3392   27.3182   44.8415 H   0  0  0  0  0  0  0  0  0  0  0  0
   35.7087   26.6273   43.0090 H   0  0  0  0  0  0  0  0  0  0  0  0
  1  2  1  0
  1  6  1  0
  3  2  1  0
  4  3  1  0
  4 17  1  0
  4  5  1  0
  5  6  1  0
  7 16  1  0
  7  6  1  0
  8  7  2  0
  9 10  2  0
  9  8  1  0
 10 11  1  0
 11 12  1  0
 11 16  2  0
 12 13  2  0
 13 14  1  0
 15 14  2  0
 16 15  1  0
 17 22  1  0
 18 19  2  0
 18 28  1  0
 20 19  1  0
 21 20  2  0
 22 21  1  0
 22 23  2  0
 23 18  1  0
 24 25  2  0
 26 25  1  0
 27 26  2  0
 28 27  1  0
 28 29  2  0
 29 24  1  0
  1 30  1  0
  2 31  1  0
  2 32  1  0
  3 33  1  0
  3 34  1  0
  4 35  1  6
  5 36  1  0
  5 37  1  0
  6 38  1  1
  8 39  1  0
  9 40  1  0
 10 41  1  0
 12 42  1  0
 13 43  1  0
 14 44  1  0
 15 45  1  0
 19 46  1  0
 20 47  1  0
 21 48  1  0
 24 49  1  0
 25 50  1  0
 26 51  1  0
M  ISO  8  30   5  31  13  32  13  33  13  34  13  35  13  36  13  37  13
M  ISO  8  38  13  39  14  40  14  41  14  42  14  43  14  44  14  45  14
M  ISO  6  46  14  47  14  48  14  49  14  50  14  51  14
M  END
>  <minimizedAffinity>  (1) 
-5.2927494

>  <minimizedRMSD>  (1) 
0.741259515

$$$$
