
     RDKit          3D

 31 33  0  0  0  0  0  0  0  0999 V2000
   37.6510   28.7060   43.8730 C   0  0  0  0  0  0  0  0  0  0  0  0
   37.0410   27.4320   43.8590 C   0  0  0  0  0  0  0  0  0  0  0  0
   36.5380   26.9680   42.6460 C   0  0  0  0  0  0  0  0  0  0  0  0
   36.6580   27.7620   41.5450 N   0  0  0  0  0  0  0  0  0  0  0  0
   37.2530   28.9870   41.5950 C   0  0  0  0  0  0  0  0  0  0  0  0
   37.7420   29.4470   42.7560 N   0  0  0  0  0  0  0  0  0  0  0  0
   37.3250   29.7300   40.3910 N   0  0  0  0  0  0  0  0  0  0  0  0
   36.7610   29.3030   39.2530 C   0  0  0  0  0  0  0  0  0  0  0  0
   36.9240   30.1420   38.1780 C   0  0  0  0  0  0  0  0  0  0  0  0
   37.5950   31.3320   38.2010 C   0  0  0  0  0  0  0  0  0  0  0  0
   37.7270   32.0800   37.1950 O   0  0  0  0  0  0  0  0  0  0  0  0
   38.1440   31.7130   39.3730 N   0  0  0  0  0  0  0  0  0  0  0  0
   38.0080   30.9110   40.4680 C   0  0  0  0  0  0  0  0  0  0  0  0
   38.5400   31.3130   41.5480 O   0  0  0  0  0  0  0  0  0  0  0  0
   38.8750   32.9480   39.5160 C   0  0  0  0  0  0  0  0  0  0  0  0
   38.1350   34.0080   39.9960 C   0  0  0  0  0  0  0  0  0  0  0  0
   38.8430   35.2050   40.1360 C   0  0  0  0  0  0  0  0  0  0  0  0
   40.1330   35.2990   39.8250 N   0  0  0  0  0  0  0  0  0  0  0  0
   40.8330   34.2370   39.3540 C   0  0  0  0  0  0  0  0  0  0  0  0
   40.1770   33.0610   39.2070 N   0  0  0  0  0  0  0  0  0  0  0  0
   36.3390   29.7650   36.8720 C   0  0  0  0  0  0  0  0  0  0  0  0
   38.0591   29.0987   44.8160 H   0  0  0  0  0  0  0  0  0  0  0  0
   36.9658   26.8272   44.7747 H   0  0  0  0  0  0  0  0  0  0  0  0
   36.0545   25.9823   42.5782 H   0  0  0  0  0  0  0  0  0  0  0  0
   36.2098   28.3535   39.1850 H   0  0  0  0  0  0  0  0  0  0  0  0
   37.0684   33.9183   40.2495 H   0  0  0  0  0  0  0  0  0  0  0  0
   38.3184   36.0948   40.5142 H   0  0  0  0  0  0  0  0  0  0  0  0
   41.8993   34.3278   39.0995 H   0  0  0  0  0  0  0  0  0  0  0  0
   35.4247   29.1758   37.0361 H   0  0  0  0  0  0  0  0  0  0  0  0
   36.0922   30.6744   36.3045 H   0  0  0  0  0  0  0  0  0  0  0  0
   37.0652   29.1645   36.3045 H   0  0  0  0  0  0  0  0  0  0  0  0
  2  1  2  0
  3  2  1  0
  4  5  1  0
  4  3  2  0
  5  6  2  0
  6  1  1  0
  7 13  1  0
  7  5  1  0
  8  7  1  0
  9 10  1  0
  9  8  2  0
 10 12  1  0
 11 10  2  0
 12 15  1  0
 12 13  1  0
 13 14  2  0
 15 16  2  0
 16 17  1  0
 18 17  2  0
 19 18  1  0
 20 19  2  0
 20 15  1  0
 21  9  1  0
  1 22  1  0
  2 23  1  0
  3 24  1  0
  8 25  1  0
 16 26  1  0
 17 27  1  0
 19 28  1  0
 21 29  1  0
 21 30  1  0
 21 31  1  0
M  ISO  8  22  14  23  14  24  14  25  14  26  14  27  14  28  14  29   8
M  ISO  2  30   8  31   8
M  END
>  <minimizedAffinity>  (1) 
-5.97681236

>  <minimizedRMSD>  (1) 
3.23150611

$$$$
