
     RDKit          3D

 42 44  0  0  1  0  0  0  0  0999 V2000
   34.1580   26.6900   37.0940 N   0  0  0  0  0  0  0  0  0  0  0  0
   33.9280   27.9770   37.7190 C   0  0  0  0  0  0  0  0  0  0  0  0
   34.6280   29.1030   36.9990 C   0  0  0  0  0  0  0  0  0  0  0  0
   35.8710   28.6420   36.2850 C   0  0  2  0  0  0  0  0  0  0  0  0
   36.4840   27.4310   36.9670 C   0  0  0  0  0  0  0  0  0  0  0  0
   35.5370   26.2860   37.1150 C   0  0  1  0  0  0  0  0  0  0  0  0
   35.7780   25.6740   38.4180 N   0  0  0  0  0  0  0  0  0  0  0  0
   35.9100   24.2620   38.5320 C   0  0  0  0  0  0  0  0  0  0  0  0
   36.4000   23.5970   37.5400 N   0  0  0  0  0  0  0  0  0  0  0  0
   35.4920   23.6400   39.7400 N   0  0  0  0  0  0  0  0  0  0  0  0
   36.4820   22.5640   37.6580 H   0  0  0  0  0  0  0  0  0  0  0  0
   37.1210   29.9520   36.3820 S   0  0  0  0  0  0  0  0  0  0  0  0
   37.2110   30.3990   40.3840 C   0  0  0  0  0  0  0  0  0  0  0  0
   37.2500   31.7610   40.5930 C   0  0  0  0  0  0  0  0  0  0  0  0
   37.2490   32.5840   39.4790 C   0  0  0  0  0  0  0  0  0  0  0  0
   37.2090   31.9950   38.2120 C   0  0  0  0  0  0  0  0  0  0  0  0
   37.1710   30.6410   38.0350 C   0  0  0  0  0  0  0  0  0  0  0  0
   37.1730   29.8760   39.1280 N   0  0  0  0  0  0  0  0  0  0  0  0
   38.1340   28.9270   43.6040 C   0  0  0  0  0  0  0  0  0  0  0  0
   37.2640   27.8160   43.7050 C   0  0  0  0  0  0  0  0  0  0  0  0
   36.3630   27.5880   42.6540 C   0  0  0  0  0  0  0  0  0  0  0  0
   36.3850   28.4440   41.6080 N   0  0  0  0  0  0  0  0  0  0  0  0
   37.2110   29.4810   41.5360 C   0  0  0  0  0  0  0  0  0  0  0  0
   38.0610   29.6940   42.5320 N   0  0  0  0  0  0  0  0  0  0  0  0
   33.8477   26.7428   36.1133 H   0  0  0  0  0  0  0  0  0  0  0  0
   32.8467   28.1790   37.7227 H   0  0  0  0  0  0  0  0  0  0  0  0
   34.3344   27.9298   38.7401 H   0  0  0  0  0  0  0  0  0  0  0  0
   33.9360   29.5347   36.2609 H   0  0  0  0  0  0  0  0  0  0  0  0
   34.9294   29.8466   37.7515 H   0  0  0  0  0  0  0  0  0  0  0  0
   35.5878   28.3970   35.2507 H   0  0  0  0  0  0  0  0  0  0  0  0
   37.3455   27.0952   36.3712 H   0  0  0  0  0  0  0  0  0  0  0  0
   36.7736   27.7437   37.9811 H   0  0  0  0  0  0  0  0  0  0  0  0
   35.7109   25.6039   36.2697 H   0  0  0  0  0  0  0  0  0  0  0  0
   35.8527   26.2661   39.2575 H   0  0  0  0  0  0  0  0  0  0  0  0
   35.5762   22.6193   39.8496 H   0  0  0  0  0  0  0  0  0  0  0  0
   35.1049   24.2100   40.5056 H   0  0  0  0  0  0  0  0  0  0  0  0
   37.2809   32.1799   41.6097 H   0  0  0  0  0  0  0  0  0  0  0  0
   37.2791   33.6781   39.5890 H   0  0  0  0  0  0  0  0  0  0  0  0
   37.2081   32.6456   37.3250 H   0  0  0  0  0  0  0  0  0  0  0  0
   38.8571   29.1474   44.4031 H   0  0  0  0  0  0  0  0  0  0  0  0
   37.2931   27.1512   44.5809 H   0  0  0  0  0  0  0  0  0  0  0  0
   35.6619   26.7408   42.6803 H   0  0  0  0  0  0  0  0  0  0  0  0
  1  6  1  0
  1  2  1  0
  3  2  1  0
  4 12  1  0
  4  5  1  0
  4  3  1  0
  5  6  1  0
  6  7  1  0
  7  8  1  0
  8 10  1  0
  9 11  1  0
  9  8  2  0
 12 17  1  0
 13 14  2  0
 13 23  1  0
 15 14  1  0
 16 15  2  0
 17 16  1  0
 17 18  2  0
 18 13  1  0
 19 20  2  0
 21 20  1  0
 22 21  2  0
 23 22  1  0
 23 24  2  0
 24 19  1  0
  1 25  1  0
  2 26  1  0
  2 27  1  0
  3 28  1  0
  3 29  1  0
  4 30  1  6
  5 31  1  0
  5 32  1  0
  6 33  1  6
  7 34  1  0
 10 35  1  0
 10 36  1  0
 14 37  1  0
 15 38  1  0
 16 39  1  0
 19 40  1  0
 20 41  1  0
 21 42  1  0
M  ISO  8  25   5  26  13  27  13  28  13  29  13  30  13  31  13  32  13
M  ISO  7  33  13  37  14  38  14  39  14  40  14  41  14  42  14
M  END
>  <minimizedAffinity>  (1) 
-4.73480463

>  <minimizedRMSD>  (1) 
0.886416495

$$$$
