
     RDKit          3D

 33 35  0  0  0  0  0  0  0  0999 V2000
   37.6060   28.6130   43.9260 C   0  0  0  0  0  0  0  0  0  0  0  0
   36.9950   27.3490   43.8550 C   0  0  0  0  0  0  0  0  0  0  0  0
   36.5130   26.9230   42.6170 C   0  0  0  0  0  0  0  0  0  0  0  0
   36.6630   27.7570   41.5520 N   0  0  0  0  0  0  0  0  0  0  0  0
   37.2550   28.9680   41.6510 C   0  0  0  0  0  0  0  0  0  0  0  0
   37.7220   29.3930   42.8260 N   0  0  0  0  0  0  0  0  0  0  0  0
   37.3520   29.7500   40.4660 N   0  0  0  0  0  0  0  0  0  0  0  0
   36.8330   29.3380   39.2940 C   0  0  0  0  0  0  0  0  0  0  0  0
   37.0160   30.2100   38.2540 C   0  0  0  0  0  0  0  0  0  0  0  0
   37.6620   31.4170   38.3310 C   0  0  0  0  0  0  0  0  0  0  0  0
   37.8040   32.1800   37.3510 O   0  0  0  0  0  0  0  0  0  0  0  0
   38.1610   31.7710   39.5380 N   0  0  0  0  0  0  0  0  0  0  0  0
   38.0000   30.9330   40.5940 C   0  0  0  0  0  0  0  0  0  0  0  0
   38.4830   31.3110   41.6930 O   0  0  0  0  0  0  0  0  0  0  0  0
   38.8390   33.0200   39.6470 C   0  0  0  0  0  0  0  0  0  0  0  0
   38.1660   34.1470   40.0550 C   0  0  0  0  0  0  0  0  0  0  0  0
   38.9170   35.2960   40.1260 C   0  0  0  0  0  0  0  0  0  0  0  0
   40.2530   35.3240   39.8110 C   0  0  0  0  0  0  0  0  0  0  0  0
   40.9020   34.1740   39.4040 C   0  0  0  0  0  0  0  0  0  0  0  0
   40.1910   32.9720   39.3120 C   0  0  0  0  0  0  0  0  0  0  0  0
   36.4830   29.8550   36.9180 C   0  0  0  0  0  0  0  0  0  0  0  0
   37.9955   28.9734   44.8895 H   0  0  0  0  0  0  0  0  0  0  0  0
   36.8998   26.7148   44.7487 H   0  0  0  0  0  0  0  0  0  0  0  0
   36.0265   25.9428   42.5051 H   0  0  0  0  0  0  0  0  0  0  0  0
   36.3052   28.3795   39.1811 H   0  0  0  0  0  0  0  0  0  0  0  0
   37.0957   34.1304   40.3083 H   0  0  0  0  0  0  0  0  0  0  0  0
   38.4293   36.2281   40.4473 H   0  0  0  0  0  0  0  0  0  0  0  0
   40.8111   36.2692   39.8832 H   0  0  0  0  0  0  0  0  0  0  0  0
   41.9727   34.2031   39.1534 H   0  0  0  0  0  0  0  0  0  0  0  0
   40.6745   32.0373   38.9917 H   0  0  0  0  0  0  0  0  0  0  0  0
   35.5727   29.2487   37.0356 H   0  0  0  0  0  0  0  0  0  0  0  0
   36.2424   30.7739   36.3632 H   0  0  0  0  0  0  0  0  0  0  0  0
   37.2381   29.2788   36.3632 H   0  0  0  0  0  0  0  0  0  0  0  0
  2  1  2  0
  3  2  1  0
  4  5  1  0
  4  3  2  0
  5  6  2  0
  6  1  1  0
  7 13  1  0
  7  5  1  0
  8  7  1  0
  9 10  1  0
  9  8  2  0
 10 12  1  0
 11 10  2  0
 12 15  1  0
 12 13  1  0
 13 14  2  0
 15 16  2  0
 16 17  1  0
 18 17  2  0
 19 18  1  0
 20 19  2  0
 20 15  1  0
 21  9  1  0
  1 22  1  0
  2 23  1  0
  3 24  1  0
  8 25  1  0
 16 26  1  0
 17 27  1  0
 18 28  1  0
 19 29  1  0
 20 30  1  0
 21 31  1  0
 21 32  1  0
 21 33  1  0
M  ISO  8  22  14  23  14  24  14  25  14  26  14  27  14  28  14  29  14
M  ISO  4  30  14  31   8  32   8  33   8
M  END
>  <minimizedAffinity>  (1) 
-5.97508717

>  <minimizedRMSD>  (1) 
3.06165099

$$$$
