
     RDKit          3D

 38 40  0  0  1  0  0  0  0  0999 V2000
   37.1810   30.3640   40.4050 C   0  0  0  0  0  0  0  0  0  0  0  0
   37.1970   31.7120   40.5970 C   0  0  0  0  0  0  0  0  0  0  0  0
   37.2020   32.5330   39.4790 C   0  0  0  0  0  0  0  0  0  0  0  0
   37.1910   31.9450   38.2250 C   0  0  0  0  0  0  0  0  0  0  0  0
   37.1740   30.5820   38.0430 C   0  0  0  0  0  0  0  0  0  0  0  0
   37.1700   29.8210   39.1490 N   0  0  0  0  0  0  0  0  0  0  0  0
   38.1130   28.8840   43.6170 C   0  0  0  0  0  0  0  0  0  0  0  0
   37.2510   27.7660   43.7140 C   0  0  0  0  0  0  0  0  0  0  0  0
   36.3520   27.5310   42.6680 C   0  0  0  0  0  0  0  0  0  0  0  0
   36.3610   28.3880   41.6250 N   0  0  0  0  0  0  0  0  0  0  0  0
   37.1740   29.4310   41.5460 C   0  0  0  0  0  0  0  0  0  0  0  0
   38.0370   29.6630   42.5440 N   0  0  0  0  0  0  0  0  0  0  0  0
   37.1610   29.8760   36.4000 S   0  0  0  0  0  0  0  0  0  0  0  0
   33.8780   26.8960   36.8580 N   0  0  0  0  0  0  0  0  0  0  0  0
   33.8420   28.0940   37.6640 C   0  0  0  0  0  0  0  0  0  0  0  0
   34.6290   29.2320   37.0700 C   0  0  0  0  0  0  0  0  0  0  0  0
   35.7650   28.7430   36.2120 C   0  0  2  0  0  0  0  0  0  0  0  0
   36.2840   27.3850   36.6530 C   0  0  0  0  0  0  0  0  0  0  0  0
   35.1960   26.3460   36.7050 C   0  0  1  0  0  0  0  0  0  0  0  0
   35.4450   25.5240   37.9730 C   0  0  0  0  0  0  0  0  0  0  0  0
   37.2057   32.1382   41.6110 H   0  0  0  0  0  0  0  0  0  0  0  0
   37.2144   33.6277   39.5860 H   0  0  0  0  0  0  0  0  0  0  0  0
   37.1961   32.5953   37.3378 H   0  0  0  0  0  0  0  0  0  0  0  0
   38.8345   29.1044   44.4175 H   0  0  0  0  0  0  0  0  0  0  0  0
   37.2868   27.0995   44.5884 H   0  0  0  0  0  0  0  0  0  0  0  0
   35.6605   26.6759   42.6946 H   0  0  0  0  0  0  0  0  0  0  0  0
   33.2784   26.1862   37.3025 H   0  0  0  0  0  0  0  0  0  0  0  0
   32.7944   28.4119   37.7714 H   0  0  0  0  0  0  0  0  0  0  0  0
   34.3010   27.8499   38.6334 H   0  0  0  0  0  0  0  0  0  0  0  0
   33.9561   29.8454   36.4529 H   0  0  0  0  0  0  0  0  0  0  0  0
   35.0553   29.8191   37.8968 H   0  0  0  0  0  0  0  0  0  0  0  0
   35.3816   28.6814   35.1828 H   0  0  0  0  0  0  0  0  0  0  0  0
   37.0557   27.0537   35.9425 H   0  0  0  0  0  0  0  0  0  0  0  0
   36.6927   27.4949   37.6683 H   0  0  0  0  0  0  0  0  0  0  0  0
   35.2299   25.7831   35.7606 H   0  0  0  0  0  0  0  0  0  0  0  0
   35.2557   26.1490   38.8582 H   0  0  0  0  0  0  0  0  0  0  0  0
   34.7695   24.6559   37.9858 H   0  0  0  0  0  0  0  0  0  0  0  0
   36.4887   25.1767   37.9858 H   0  0  0  0  0  0  0  0  0  0  0  0
  1  2  2  0
  1 11  1  0
  3  2  1  0
  4  3  2  0
  5  4  1  0
  5  6  2  0
  6  1  1  0
  7  8  2  0
  9  8  1  0
 10  9  2  0
 11 10  1  0
 11 12  2  0
 12  7  1  0
 13  5  1  0
 14 15  1  0
 16 15  1  0
 17 13  1  0
 17 18  1  0
 17 16  1  0
 18 19  1  0
 19 14  1  0
 19 20  1  0
  2 21  1  0
  3 22  1  0
  4 23  1  0
  7 24  1  0
  8 25  1  0
  9 26  1  0
 14 27  1  0
 15 28  1  0
 15 29  1  0
 16 30  1  0
 16 31  1  0
 17 32  1  6
 18 33  1  0
 18 34  1  0
 19 35  1  6
 20 36  1  0
 20 37  1  0
 20 38  1  0
M  ISO  8  21  14  22  14  23  14  24  14  25  14  26  14  27   5  28  13
M  ISO  8  29  13  30  13  31  13  32  13  33  13  34  13  35  13  36   8
M  ISO  2  37   8  38   8
M  END
>  <minimizedAffinity>  (1) 
-4.59357214

>  <minimizedRMSD>  (1) 
0.652339041

$$$$
