
     RDKit          3D

 40 43  0  0  1  0  0  0  0  0999 V2000
   33.0770   27.0020   36.7860 N   0  0  0  0  0  0  0  0  0  0  0  0
   33.2350   28.4160   37.0540 C   0  0  0  0  0  0  0  0  0  0  0  0
   34.3980   29.0380   36.3260 C   0  0  0  0  0  0  0  0  0  0  0  0
   35.4970   28.0340   36.0560 C   0  0  2  0  0  0  0  0  0  0  0  0
   35.5220   26.9330   37.0810 C   0  0  0  0  0  0  0  0  0  0  0  0
   34.2030   26.2170   37.2080 C   0  0  2  0  0  0  0  0  0  0  0  0
   34.2090   24.9050   36.5080 C   0  0  0  0  0  0  0  0  0  0  0  0
   35.4280   24.3160   36.3410 N   0  0  0  0  0  0  0  0  0  0  0  0
   35.2600   23.1820   35.7150 O   0  0  0  0  0  0  0  0  0  0  0  0
   33.9930   22.9910   35.4600 C   0  0  0  0  0  0  0  0  0  0  0  0
   33.3270   24.0560   35.9490 N   0  0  0  0  0  0  0  0  0  0  0  0
   37.1000   28.8720   36.1980 S   0  0  0  0  0  0  0  0  0  0  0  0
   37.2400   29.9990   40.0560 C   0  0  0  0  0  0  0  0  0  0  0  0
   37.2840   31.3750   40.0270 C   0  0  0  0  0  0  0  0  0  0  0  0
   37.2710   31.9970   38.7800 C   0  0  0  0  0  0  0  0  0  0  0  0
   37.2140   31.2060   37.6330 C   0  0  0  0  0  0  0  0  0  0  0  0
   37.1710   29.8320   37.6870 C   0  0  0  0  0  0  0  0  0  0  0  0
   37.1850   29.2560   38.9110 N   0  0  0  0  0  0  0  0  0  0  0  0
   38.1750   29.1030   43.4780 C   0  0  0  0  0  0  0  0  0  0  0  0
   37.3200   28.0190   43.7660 C   0  0  0  0  0  0  0  0  0  0  0  0
   36.4270   27.6080   42.7680 C   0  0  0  0  0  0  0  0  0  0  0  0
   36.4350   28.2730   41.5930 N   0  0  0  0  0  0  0  0  0  0  0  0
   37.2520   29.2980   41.3360 C   0  0  0  0  0  0  0  0  0  0  0  0
   38.1020   29.6890   42.2850 N   0  0  0  0  0  0  0  0  0  0  0  0
   32.2394   26.6663   37.2825 H   0  0  0  0  0  0  0  0  0  0  0  0
   32.3144   28.9338   36.7468 H   0  0  0  0  0  0  0  0  0  0  0  0
   33.4327   28.5217   38.1309 H   0  0  0  0  0  0  0  0  0  0  0  0
   34.0421   29.4421   35.3668 H   0  0  0  0  0  0  0  0  0  0  0  0
   34.8122   29.8338   36.9625 H   0  0  0  0  0  0  0  0  0  0  0  0
   35.3119   27.6144   35.0562 H   0  0  0  0  0  0  0  0  0  0  0  0
   36.2912   26.2019   36.7914 H   0  0  0  0  0  0  0  0  0  0  0  0
   35.7406   27.3951   38.0550 H   0  0  0  0  0  0  0  0  0  0  0  0
   34.0814   26.0394   38.2867 H   0  0  0  0  0  0  0  0  0  0  0  0
   33.5530   22.1250   34.9439 H   0  0  0  0  0  0  0  0  0  0  0  0
   37.3279   31.9628   40.9558 H   0  0  0  0  0  0  0  0  0  0  0  0
   37.3051   33.0937   38.7018 H   0  0  0  0  0  0  0  0  0  0  0  0
   37.2030   31.6985   36.6495 H   0  0  0  0  0  0  0  0  0  0  0  0
   38.8937   29.4600   44.2303 H   0  0  0  0  0  0  0  0  0  0  0  0
   37.3533   27.5129   44.7421 H   0  0  0  0  0  0  0  0  0  0  0  0
   35.7385   26.7669   42.9369 H   0  0  0  0  0  0  0  0  0  0  0  0
  1  2  1  0
  1  6  1  0
  3  2  1  0
  4 12  1  0
  4  3  1  0
  4  5  1  0
  5  6  1  0
  7  6  1  0
  8  7  2  0
  9  8  1  0
 10  9  1  0
 10 11  2  0
 11  7  1  0
 12 17  1  0
 13 23  1  0
 14 13  2  0
 15 14  1  0
 16 17  1  0
 16 15  2  0
 17 18  2  0
 18 13  1  0
 19 20  2  0
 21 20  1  0
 22 21  2  0
 23 22  1  0
 23 24  2  0
 24 19  1  0
  1 25  1  0
  2 26  1  0
  2 27  1  0
  3 28  1  0
  3 29  1  0
  4 30  1  6
  5 31  1  0
  5 32  1  0
  6 33  1  1
 10 34  1  0
 14 35  1  0
 15 36  1  0
 16 37  1  0
 19 38  1  0
 20 39  1  0
 21 40  1  0
M  ISO  8  25   5  26  13  27  13  28  13  29  13  30  13  31  13  32  13
M  ISO  8  33  13  34  14  35  14  36  14  37  14  38  14  39  14  40  14
M  END
>  <minimizedAffinity>  (1) 
-4.5847764

>  <minimizedRMSD>  (1) 
0.49747467

$$$$
