
     RDKit          3D

 19 20  0  0  0  0  0  0  0  0999 V2000
   37.8460   28.7830   43.4250 C   0  0  0  0  0  0  0  0  0  0  0  0
   37.3610   27.4980   43.0920 C   0  0  0  0  0  0  0  0  0  0  0  0
   36.8550   27.3100   41.8110 C   0  0  0  0  0  0  0  0  0  0  0  0
   36.8570   28.3650   40.9600 N   0  0  0  0  0  0  0  0  0  0  0  0
   37.3200   29.5730   41.2920 C   0  0  0  0  0  0  0  0  0  0  0  0
   37.8150   29.7740   42.5330 N   0  0  0  0  0  0  0  0  0  0  0  0
   37.3460   30.7120   40.4440 N   0  0  0  0  0  0  0  0  0  0  0  0
   37.9700   31.7870   40.8920 N   0  0  0  0  0  0  0  0  0  0  0  0
   37.8840   32.7630   39.9380 C   0  0  0  0  0  0  0  0  0  0  0  0
   37.1640   32.1950   38.8860 C   0  0  0  0  0  0  0  0  0  0  0  0
   36.8240   30.8960   39.2090 C   0  0  0  0  0  0  0  0  0  0  0  0
   36.0840   29.9090   38.4480 C   0  0  0  0  0  0  0  0  0  0  0  0
   36.3000   29.8540   37.2150 O   0  0  0  0  0  0  0  0  0  0  0  0
   38.2532   28.9677   44.4300 H   0  0  0  0  0  0  0  0  0  0  0  0
   37.3832   26.6749   43.8214 H   0  0  0  0  0  0  0  0  0  0  0  0
   36.4635   26.3314   41.4964 H   0  0  0  0  0  0  0  0  0  0  0  0
   38.2958   33.7817   39.9891 H   0  0  0  0  0  0  0  0  0  0  0  0
   36.9070   32.7034   37.9450 H   0  0  0  0  0  0  0  0  0  0  0  0
   35.3621   29.2356   38.9332 H   0  0  0  0  0  0  0  0  0  0  0  0
  2  1  2  0
  3  2  1  0
  4  5  1  0
  4  3  2  0
  5  6  2  0
  6  1  1  0
  7  8  1  0
  7  5  1  0
  9  8  2  0
 10 11  2  0
 10  9  1  0
 11  7  1  0
 12 11  1  0
 13 12  2  0
  1 14  1  0
  2 15  1  0
  3 16  1  0
  9 17  1  0
 10 18  1  0
 12 19  1  0
M  ISO  6  14  14  15  14  16  14  17  14  18  14  19   6
M  END
>  <minimizedAffinity>  (1) 
-3.82699013

>  <minimizedRMSD>  (1) 
1.22268975

$$$$
