
     RDKit          3D

 29 30  0  0  0  0  0  0  0  0999 V2000
   36.8750   27.4840   41.7660 C   0  0  0  0  0  0  0  0  0  0  0  0
   38.0110   26.9580   41.1450 C   0  0  0  0  0  0  0  0  0  0  0  0
   38.1580   27.2580   39.7710 C   0  0  0  0  0  0  0  0  0  0  0  0
   37.2240   28.0160   39.1440 N   0  0  0  0  0  0  0  0  0  0  0  0
   36.1520   28.4940   39.7920 C   0  0  0  0  0  0  0  0  0  0  0  0
   35.9880   28.2250   41.0940 N   0  0  0  0  0  0  0  0  0  0  0  0
   38.9720   26.1750   41.7720 N   0  0  0  0  0  0  0  0  0  0  0  0
   39.0480   24.7220   41.7920 C   0  0  0  0  0  0  0  0  0  0  0  0
   39.6710   24.4030   43.1340 C   0  0  0  0  0  0  0  0  0  0  0  0
   40.0780   25.7310   43.7130 C   0  0  0  0  0  0  0  0  0  0  0  0
   40.0990   26.6220   42.5210 C   0  0  0  0  0  0  0  0  0  0  0  0
   36.6160   27.2710   43.1300 N   0  0  0  0  0  0  0  0  0  0  0  0
   36.8280   28.3180   44.1000 C   0  0  0  0  0  0  0  0  0  0  0  0
   37.5370   29.3500   43.7060 N   0  0  0  0  0  0  0  0  0  0  0  0
   36.3190   28.3060   45.4450 N   0  0  0  0  0  0  0  0  0  0  0  0
   37.7080   30.1220   44.3820 H   0  0  0  0  0  0  0  0  0  0  0  0
   39.0264   26.8782   39.2128 H   0  0  0  0  0  0  0  0  0  0  0  0
   35.4101   29.1047   39.2566 H   0  0  0  0  0  0  0  0  0  0  0  0
   38.0451   24.2774   41.7116 H   0  0  0  0  0  0  0  0  0  0  0  0
   39.6295   24.3182   40.9501 H   0  0  0  0  0  0  0  0  0  0  0  0
   38.9403   23.9056   43.7888 H   0  0  0  0  0  0  0  0  0  0  0  0
   40.5281   23.7207   43.0347 H   0  0  0  0  0  0  0  0  0  0  0  0
   39.3451   26.0803   44.4552 H   0  0  0  0  0  0  0  0  0  0  0  0
   41.0398   25.6959   44.2456 H   0  0  0  0  0  0  0  0  0  0  0  0
   41.0300   26.4963   41.9488 H   0  0  0  0  0  0  0  0  0  0  0  0
   40.0558   27.6912   42.7760 H   0  0  0  0  0  0  0  0  0  0  0  0
   36.2693   26.3529   43.4427 H   0  0  0  0  0  0  0  0  0  0  0  0
   36.5157   29.0951   46.0771 H   0  0  0  0  0  0  0  0  0  0  0  0
   35.7577   27.5084   45.7761 H   0  0  0  0  0  0  0  0  0  0  0  0
  1 12  1  0
  2  1  2  0
  2  7  1  0
  3  2  1  0
  4  3  2  0
  4  5  1  0
  5  6  2  0
  6  1  1  0
  7  8  1  0
  7 11  1  0
  8  9  1  0
  9 10  1  0
 11 10  1  0
 12 13  1  0
 13 15  1  0
 14 13  2  0
 14 16  1  0
  3 17  1  0
  5 18  1  0
  8 19  1  0
  8 20  1  0
  9 21  1  0
  9 22  1  0
 10 23  1  0
 10 24  1  0
 11 25  1  0
 11 26  1  0
 12 27  1  0
 15 28  1  0
 15 29  1  0
M  ISO  8  17  14  18  14  19  13  20  13  21  13  22  13  23  13  24  13
M  ISO  2  25  13  26  13
M  END
>  <minimizedAffinity>  (1) 
-4.68348789

>  <minimizedRMSD>  (1) 
2.74369383

$$$$
