
     RDKit          3D

 33 35  0  0  0  0  0  0  0  0999 V2000
   38.1680   29.1570   41.1210 C   0  0  0  0  0  0  0  0  0  0  0  0
   38.3100   27.7750   40.9430 C   0  0  0  0  0  0  0  0  0  0  0  0
   38.0330   26.9520   42.0560 C   0  0  0  0  0  0  0  0  0  0  0  0
   37.6470   27.5550   43.2160 N   0  0  0  0  0  0  0  0  0  0  0  0
   37.5230   28.8900   43.3410 C   0  0  0  0  0  0  0  0  0  0  0  0
   37.7860   29.6990   42.2820 N   0  0  0  0  0  0  0  0  0  0  0  0
   38.4300   30.0810   40.0780 N   0  0  0  0  0  0  0  0  0  0  0  0
   39.2520   29.5080   39.1560 C   0  0  0  0  0  0  0  0  0  0  0  0
   39.6720   30.2140   38.0240 C   0  0  0  0  0  0  0  0  0  0  0  0
   39.2120   31.5180   37.8920 C   0  0  0  0  0  0  0  0  0  0  0  0
   39.5510   32.3700   36.7950 N   0  0  0  0  0  0  0  0  0  0  0  0
   38.4150   32.0410   38.8100 N   0  0  0  0  0  0  0  0  0  0  0  0
   38.0180   31.3540   39.8900 C   0  0  0  0  0  0  0  0  0  0  0  0
   37.2670   31.7240   40.8370 O   0  0  0  0  0  0  0  0  0  0  0  0
   38.6940   27.1740   39.7450 N   0  0  0  0  0  0  0  0  0  0  0  0
   40.0310   26.8220   39.3150 C   0  0  0  0  0  0  0  0  0  0  0  0
   40.0040   27.0230   37.8050 C   0  0  0  0  0  0  0  0  0  0  0  0
   38.5560   27.2470   37.4540 C   0  0  0  0  0  0  0  0  0  0  0  0
   37.8290   26.7620   38.6680 C   0  0  0  0  0  0  0  0  0  0  0  0
   38.1258   25.8580   41.9893 H   0  0  0  0  0  0  0  0  0  0  0  0
   37.2086   29.3255   44.3009 H   0  0  0  0  0  0  0  0  0  0  0  0
   39.5915   28.4722   39.3040 H   0  0  0  0  0  0  0  0  0  0  0  0
   40.3351   29.7583   37.2739 H   0  0  0  0  0  0  0  0  0  0  0  0
   39.1777   33.3291   36.7533 H   0  0  0  0  0  0  0  0  0  0  0  0
   40.1686   32.0247   36.0465 H   0  0  0  0  0  0  0  0  0  0  0  0
   40.7773   27.4809   39.7828 H   0  0  0  0  0  0  0  0  0  0  0  0
   40.3078   25.7958   39.5982 H   0  0  0  0  0  0  0  0  0  0  0  0
   40.6077   27.8982   37.5229 H   0  0  0  0  0  0  0  0  0  0  0  0
   40.4241   26.1580   37.2708 H   0  0  0  0  0  0  0  0  0  0  0  0
   38.3546   28.3133   37.2737 H   0  0  0  0  0  0  0  0  0  0  0  0
   38.2508   26.7280   36.5334 H   0  0  0  0  0  0  0  0  0  0  0  0
   36.8392   27.2345   38.7521 H   0  0  0  0  0  0  0  0  0  0  0  0
   37.6350   25.6793   38.6555 H   0  0  0  0  0  0  0  0  0  0  0  0
  1  6  2  0
  2  1  1  0
  2  3  2  0
  3  4  1  0
  4  5  2  0
  6  5  1  0
  7  1  1  0
  8  7  1  0
  9  8  2  0
 10  9  1  0
 10 12  2  0
 11 10  1  0
 12 13  1  0
 13  7  1  0
 13 14  2  0
 15  2  1  0
 16 15  1  0
 17 16  1  0
 18 17  1  0
 18 19  1  0
 19 15  1  0
  3 20  1  0
  5 21  1  0
  8 22  1  0
  9 23  1  0
 11 24  1  0
 11 25  1  0
 16 26  1  0
 16 27  1  0
 17 28  1  0
 17 29  1  0
 18 30  1  0
 18 31  1  0
 19 32  1  0
 19 33  1  0
M  ISO  8  20  14  21  14  22  14  23  14  26  13  27  13  28  13  29  13
M  ISO  4  30  13  31  13  32  13  33  13
M  END
>  <minimizedAffinity>  (1) 
-4.59739065

>  <minimizedRMSD>  (1) 
4.41652441

$$$$
