
     RDKit          3D

 29 31  0  0  0  0  0  0  0  0999 V2000
   38.2130   28.1360   42.3160 C   0  0  0  0  0  0  0  0  0  0  0  0
   37.4290   27.3600   41.4550 C   0  0  0  0  0  0  0  0  0  0  0  0
   36.3990   28.0370   40.7560 C   0  0  0  0  0  0  0  0  0  0  0  0
   36.2370   29.3750   40.9600 N   0  0  0  0  0  0  0  0  0  0  0  0
   37.0340   30.0770   41.8110 C   0  0  0  0  0  0  0  0  0  0  0  0
   38.0290   29.4360   42.4900 N   0  0  0  0  0  0  0  0  0  0  0  0
   37.6060   25.9990   41.2270 N   0  0  0  0  0  0  0  0  0  0  0  0
   36.9860   24.8900   41.9240 C   0  0  0  0  0  0  0  0  0  0  0  0
   38.0400   23.8030   41.8670 C   0  0  0  0  0  0  0  0  0  0  0  0
   39.1090   24.3010   40.9330 C   0  0  0  0  0  0  0  0  0  0  0  0
   38.4610   25.4210   40.2020 C   0  0  0  0  0  0  0  0  0  0  0  0
   39.3000   27.5820   43.1070 C   0  0  0  0  0  0  0  0  0  0  0  0
   40.6090   28.0630   42.9630 C   0  0  0  0  0  0  0  0  0  0  0  0
   41.5030   27.4190   43.8190 C   0  0  0  0  0  0  0  0  0  0  0  0
   40.7050   26.5540   44.4670 N   0  0  0  0  0  0  0  0  0  0  0  0
   39.4760   26.6560   44.0600 N   0  0  0  0  0  0  0  0  0  0  0  0
   35.7422   27.4928   40.0615 H   0  0  0  0  0  0  0  0  0  0  0  0
   36.8767   31.1567   41.9509 H   0  0  0  0  0  0  0  0  0  0  0  0
   36.7551   25.1596   42.9651 H   0  0  0  0  0  0  0  0  0  0  0  0
   36.0294   24.5832   41.4759 H   0  0  0  0  0  0  0  0  0  0  0  0
   38.4605   23.6271   42.8681 H   0  0  0  0  0  0  0  0  0  0  0  0
   37.6144   22.8510   41.5168 H   0  0  0  0  0  0  0  0  0  0  0  0
   39.9842   24.6572   41.4961 H   0  0  0  0  0  0  0  0  0  0  0  0
   39.4786   23.5150   40.2580 H   0  0  0  0  0  0  0  0  0  0  0  0
   39.2049   26.1487   39.8455 H   0  0  0  0  0  0  0  0  0  0  0  0
   37.9181   25.1051   39.2990 H   0  0  0  0  0  0  0  0  0  0  0  0
   40.8976   28.8559   42.2573 H   0  0  0  0  0  0  0  0  0  0  0  0
   42.5852   27.5788   43.9340 H   0  0  0  0  0  0  0  0  0  0  0  0
   41.0259   25.8961   45.1917 H   0  0  0  0  0  0  0  0  0  0  0  0
  1  6  1  0
  1 12  1  0
  2  1  2  0
  3  4  2  0
  3  2  1  0
  4  5  1  0
  5  6  2  0
  7  2  1  0
  7  8  1  0
  9  8  1  0
 10  9  1  0
 11 10  1  0
 11  7  1  0
 12 16  2  0
 13 12  1  0
 13 14  2  0
 14 15  1  0
 16 15  1  0
  3 17  1  0
  5 18  1  0
  8 19  1  0
  8 20  1  0
  9 21  1  0
  9 22  1  0
 10 23  1  0
 10 24  1  0
 11 25  1  0
 11 26  1  0
 13 27  1  0
 14 28  1  0
 15 29  1  0
M  ISO  8  17  14  18  14  19  13  20  13  21  13  22  13  23  13  24  13
M  ISO  5  25  13  26  13  27  14  28  14  29   9
M  END
>  <minimizedAffinity>  (1) 
-4.40838194

>  <minimizedRMSD>  (1) 
3.18394375

$$$$
