
     RDKit          3D

 30 32  0  0  0  0  0  0  0  0999 V2000
   38.6240   27.8070   43.3950 C   0  0  0  0  0  0  0  0  0  0  0  0
   37.3460   27.2570   43.1890 C   0  0  0  0  0  0  0  0  0  0  0  0
   36.4630   27.9600   42.3750 C   0  0  0  0  0  0  0  0  0  0  0  0
   36.8830   29.1320   41.8280 N   0  0  0  0  0  0  0  0  0  0  0  0
   38.1120   29.6370   42.0410 C   0  0  0  0  0  0  0  0  0  0  0  0
   38.9900   28.9800   42.8250 N   0  0  0  0  0  0  0  0  0  0  0  0
   38.4480   30.8650   41.4240 N   0  0  0  0  0  0  0  0  0  0  0  0
   37.5640   31.5670   40.7090 C   0  0  0  0  0  0  0  0  0  0  0  0
   38.0290   32.7430   40.1660 C   0  0  0  0  0  0  0  0  0  0  0  0
   39.3130   33.2170   40.3170 C   0  0  0  0  0  0  0  0  0  0  0  0
   39.7140   34.2930   39.8130 O   0  0  0  0  0  0  0  0  0  0  0  0
   40.1630   32.4670   41.0510 N   0  0  0  0  0  0  0  0  0  0  0  0
   39.7310   31.3030   41.5970 C   0  0  0  0  0  0  0  0  0  0  0  0
   40.5680   30.6340   42.2780 O   0  0  0  0  0  0  0  0  0  0  0  0
   41.5120   32.8740   41.2630 C   0  0  0  0  0  0  0  0  0  0  0  0
   42.6790   32.3960   41.8230 C   0  0  0  0  0  0  0  0  0  0  0  0
   43.6140   33.4120   41.6390 C   0  0  0  0  0  0  0  0  0  0  0  0
   43.0300   34.4410   41.0020 N   0  0  0  0  0  0  0  0  0  0  0  0
   41.7480   34.1170   40.7720 N   0  0  0  0  0  0  0  0  0  0  0  0
   37.1280   33.5970   39.3540 C   0  0  0  0  0  0  0  0  0  0  0  0
   39.3427   27.2724   44.0335 H   0  0  0  0  0  0  0  0  0  0  0  0
   37.0546   26.3042   43.6552 H   0  0  0  0  0  0  0  0  0  0  0  0
   35.4506   27.5772   42.1789 H   0  0  0  0  0  0  0  0  0  0  0  0
   36.5284   31.2260   40.5634 H   0  0  0  0  0  0  0  0  0  0  0  0
   42.8369   31.4223   42.3099 H   0  0  0  0  0  0  0  0  0  0  0  0
   44.6644   33.3774   41.9638 H   0  0  0  0  0  0  0  0  0  0  0  0
   43.4869   35.3250   40.7363 H   0  0  0  0  0  0  0  0  0  0  0  0
   36.4933   34.1986   40.0212 H   0  0  0  0  0  0  0  0  0  0  0  0
   37.7292   34.2647   38.7193 H   0  0  0  0  0  0  0  0  0  0  0  0
   36.4934   32.9610   38.7193 H   0  0  0  0  0  0  0  0  0  0  0  0
  2  1  2  0
  3  2  1  0
  4  5  1  0
  4  3  2  0
  5  6  2  0
  6  1  1  0
  7 13  1  0
  7  5  1  0
  8  7  1  0
  9 10  1  0
  9  8  2  0
 10 12  1  0
 11 10  2  0
 12 15  1  0
 12 13  1  0
 13 14  2  0
 15 16  1  0
 17 16  2  0
 18 17  1  0
 19 18  1  0
 19 15  2  0
 20  9  1  0
  1 21  1  0
  2 22  1  0
  3 23  1  0
  8 24  1  0
 16 25  1  0
 17 26  1  0
 18 27  1  0
 20 28  1  0
 20 29  1  0
 20 30  1  0
M  ISO  8  21  14  22  14  23  14  24  14  25  14  26  14  27   9  28   8
M  ISO  2  29   8  30   8
M  END
>  <minimizedAffinity>  (1) 
-5.81577682

>  <minimizedRMSD>  (1) 
0.519933939

$$$$
