
     RDKit          3D

 27 29  0  0  0  0  0  0  0  0999 V2000
   36.1650   28.0690   40.9190 C   0  0  0  0  0  0  0  0  0  0  0  0
   36.5510   26.9790   40.1260 C   0  0  0  0  0  0  0  0  0  0  0  0
   36.1180   26.9780   38.7760 C   0  0  0  0  0  0  0  0  0  0  0  0
   35.3650   28.0110   38.3290 N   0  0  0  0  0  0  0  0  0  0  0  0
   35.0160   29.0340   39.1210 C   0  0  0  0  0  0  0  0  0  0  0  0
   35.4180   29.0640   40.4230 N   0  0  0  0  0  0  0  0  0  0  0  0
   37.3260   25.9030   40.5770 N   0  0  0  0  0  0  0  0  0  0  0  0
   36.8510   24.6320   41.0850 C   0  0  0  0  0  0  0  0  0  0  0  0
   37.8990   24.2310   42.1080 C   0  0  0  0  0  0  0  0  0  0  0  0
   38.9870   25.2650   42.0130 C   0  0  0  0  0  0  0  0  0  0  0  0
   38.7540   25.8200   40.6340 C   0  0  0  0  0  0  0  0  0  0  0  0
   36.5940   28.0980   42.3130 C   0  0  0  0  0  0  0  0  0  0  0  0
   37.5390   29.0450   42.5820 N   0  0  0  0  0  0  0  0  0  0  0  0
   37.8360   28.9680   43.8490 O   0  0  0  0  0  0  0  0  0  0  0  0
   37.1260   28.0140   44.4050 C   0  0  0  0  0  0  0  0  0  0  0  0
   36.3270   27.4400   43.4590 N   0  0  0  0  0  0  0  0  0  0  0  0
   36.3893   26.1516   38.1026 H   0  0  0  0  0  0  0  0  0  0  0  0
   34.4022   29.8533   38.7185 H   0  0  0  0  0  0  0  0  0  0  0  0
   35.8647   24.7442   41.5589 H   0  0  0  0  0  0  0  0  0  0  0  0
   36.7234   23.8801   40.2923 H   0  0  0  0  0  0  0  0  0  0  0  0
   37.4643   24.2251   43.1185 H   0  0  0  0  0  0  0  0  0  0  0  0
   38.2858   23.2197   41.9138 H   0  0  0  0  0  0  0  0  0  0  0  0
   38.8716   26.0416   42.7835 H   0  0  0  0  0  0  0  0  0  0  0  0
   39.9999   24.8659   42.1705 H   0  0  0  0  0  0  0  0  0  0  0  0
   39.1451   25.1427   39.8605 H   0  0  0  0  0  0  0  0  0  0  0  0
   39.2590   26.7805   40.4542 H   0  0  0  0  0  0  0  0  0  0  0  0
   37.1683   27.7234   45.4651 H   0  0  0  0  0  0  0  0  0  0  0  0
  1 12  1  0
  2  7  1  0
  2  1  1  0
  3  2  2  0
  4  3  1  0
  4  5  2  0
  5  6  1  0
  6  1  2  0
  7 11  1  0
  7  8  1  0
  8  9  1  0
 10  9  1  0
 11 10  1  0
 12 13  2  0
 12 16  1  0
 13 14  1  0
 14 15  1  0
 16 15  2  0
  3 17  1  0
  5 18  1  0
  8 19  1  0
  8 20  1  0
  9 21  1  0
  9 22  1  0
 10 23  1  0
 10 24  1  0
 11 25  1  0
 11 26  1  0
 15 27  1  0
M  ISO  8  17  14  18  14  19  13  20  13  21  13  22  13  23  13  24  13
M  ISO  3  25  13  26  13  27  14
M  END
>  <minimizedAffinity>  (1) 
-4.27845621

>  <minimizedRMSD>  (1) 
3.02095366

$$$$
