
     RDKit          3D

 28 30  0  0  0  0  0  0  0  0999 V2000
   38.1850   28.6370   41.1270 C   0  0  0  0  0  0  0  0  0  0  0  0
   38.3790   27.5400   40.2750 C   0  0  0  0  0  0  0  0  0  0  0  0
   38.9000   27.8030   38.9860 C   0  0  0  0  0  0  0  0  0  0  0  0
   39.1740   29.1050   38.6720 N   0  0  0  0  0  0  0  0  0  0  0  0
   38.9730   30.1210   39.5210 C   0  0  0  0  0  0  0  0  0  0  0  0
   38.4760   29.8810   40.7510 N   0  0  0  0  0  0  0  0  0  0  0  0
   37.6590   28.4080   42.4270 N   0  0  0  0  0  0  0  0  0  0  0  0
   36.7450   27.3970   42.4510 C   0  0  0  0  0  0  0  0  0  0  0  0
   36.2860   27.2340   43.7110 N   0  0  0  0  0  0  0  0  0  0  0  0
   36.9210   28.1490   44.4710 C   0  0  0  0  0  0  0  0  0  0  0  0
   37.7460   28.8480   43.6690 N   0  0  0  0  0  0  0  0  0  0  0  0
   38.1060   26.2080   40.6060 N   0  0  0  0  0  0  0  0  0  0  0  0
   36.8840   25.4590   40.4290 C   0  0  0  0  0  0  0  0  0  0  0  0
   36.8610   24.5130   41.6290 C   0  0  0  0  0  0  0  0  0  0  0  0
   38.2090   24.6490   42.2880 C   0  0  0  0  0  0  0  0  0  0  0  0
   39.0460   25.2810   41.2120 C   0  0  0  0  0  0  0  0  0  0  0  0
   39.0776   26.9916   38.2648 H   0  0  0  0  0  0  0  0  0  0  0  0
   39.2131   31.1500   39.2152 H   0  0  0  0  0  0  0  0  0  0  0  0
   36.4298   26.8052   41.5790 H   0  0  0  0  0  0  0  0  0  0  0  0
   36.7886   28.2977   45.5528 H   0  0  0  0  0  0  0  0  0  0  0  0
   36.0099   26.1267   40.4392 H   0  0  0  0  0  0  0  0  0  0  0  0
   36.8458   24.9274   39.4667 H   0  0  0  0  0  0  0  0  0  0  0  0
   36.0624   24.8014   42.3283 H   0  0  0  0  0  0  0  0  0  0  0  0
   36.6647   23.4753   41.3214 H   0  0  0  0  0  0  0  0  0  0  0  0
   38.1520   25.2955   43.1761 H   0  0  0  0  0  0  0  0  0  0  0  0
   38.6149   23.6923   42.6487 H   0  0  0  0  0  0  0  0  0  0  0  0
   39.3947   24.5326   40.4851 H   0  0  0  0  0  0  0  0  0  0  0  0
   39.9631   25.7594   41.5861 H   0  0  0  0  0  0  0  0  0  0  0  0
  1  7  1  0
  2 12  1  0
  2  1  1  0
  3  2  2  0
  4  3  1  0
  4  5  2  0
  5  6  1  0
  6  1  2  0
  7  8  1  0
  7 11  1  0
  8  9  2  0
  9 10  1  0
 11 10  2  0
 12 16  1  0
 13 12  1  0
 13 14  1  0
 14 15  1  0
 16 15  1  0
  3 17  1  0
  5 18  1  0
  8 19  1  0
 10 20  1  0
 13 21  1  0
 13 22  1  0
 14 23  1  0
 14 24  1  0
 15 25  1  0
 15 26  1  0
 16 27  1  0
 16 28  1  0
M  ISO  8  17  14  18  14  19  14  20  14  21  13  22  13  23  13  24  13
M  ISO  4  25  13  26  13  27  13  28  13
M  END
>  <minimizedAffinity>  (1) 
-4.24785805

>  <minimizedRMSD>  (1) 
3.32105994

$$$$
