
     RDKit          3D

 25 26  0  0  0  0  0  0  0  0999 V2000
   38.5260   25.8260   41.6120 N   0  0  0  0  0  0  0  0  0  0  0  0
   38.2650   24.6080   42.3590 C   0  0  0  0  0  0  0  0  0  0  0  0
   39.5960   24.2810   43.0070 C   0  0  0  0  0  0  0  0  0  0  0  0
   40.5810   25.2890   42.4650 C   0  0  0  0  0  0  0  0  0  0  0  0
   39.8920   25.6970   41.1970 C   0  0  0  0  0  0  0  0  0  0  0  0
   37.5060   28.0220   42.1060 C   0  0  0  0  0  0  0  0  0  0  0  0
   37.6430   26.8710   41.3340 C   0  0  0  0  0  0  0  0  0  0  0  0
   36.8430   26.7560   40.1650 C   0  0  0  0  0  0  0  0  0  0  0  0
   35.9880   27.7510   39.8400 N   0  0  0  0  0  0  0  0  0  0  0  0
   35.8860   28.8610   40.6220 C   0  0  0  0  0  0  0  0  0  0  0  0
   36.6340   28.9770   41.7250 N   0  0  0  0  0  0  0  0  0  0  0  0
   38.2560   28.2460   43.3580 C   0  0  0  0  0  0  0  0  0  0  0  0
   37.8660   27.3650   44.3570 F   0  0  0  0  0  0  0  0  0  0  0  0
   39.6090   28.3830   43.2250 F   0  0  0  0  0  0  0  0  0  0  0  0
   37.8710   29.5050   43.8960 F   0  0  0  0  0  0  0  0  0  0  0  0
   37.4900   24.7757   43.1214 H   0  0  0  0  0  0  0  0  0  0  0  0
   37.8936   23.7923   41.7213 H   0  0  0  0  0  0  0  0  0  0  0  0
   39.5208   24.3700   44.1008 H   0  0  0  0  0  0  0  0  0  0  0  0
   39.9102   23.2505   42.7847 H   0  0  0  0  0  0  0  0  0  0  0  0
   40.7075   26.1406   43.1496 H   0  0  0  0  0  0  0  0  0  0  0  0
   41.6010   24.9014   42.3260 H   0  0  0  0  0  0  0  0  0  0  0  0
   40.0000   24.9256   40.4203 H   0  0  0  0  0  0  0  0  0  0  0  0
   40.3028   26.6149   40.7513 H   0  0  0  0  0  0  0  0  0  0  0  0
   36.9192   25.8622   39.5283 H   0  0  0  0  0  0  0  0  0  0  0  0
   35.1869   29.6642   40.3461 H   0  0  0  0  0  0  0  0  0  0  0  0
  1  2  1  0
  2  3  1  0
  4  3  1  0
  5  1  1  0
  5  4  1  0
  6 12  1  0
  7  1  1  0
  7  6  2  0
  8  7  1  0
  9  8  2  0
  9 10  1  0
 10 11  2  0
 11  6  1  0
 12 15  1  0
 12 13  1  0
 14 12  1  0
  2 16  1  0
  2 17  1  0
  3 18  1  0
  3 19  1  0
  4 20  1  0
  4 21  1  0
  5 22  1  0
  5 23  1  0
  8 24  1  0
 10 25  1  0
M  ISO  8  16  13  17  13  18  13  19  13  20  13  21  13  22  13  23  13
M  ISO  2  24  14  25  14
M  END
>  <minimizedAffinity>  (1) 
-4.12582302

>  <minimizedRMSD>  (1) 
2.11143446

$$$$
