
     RDKit          3D

 25 26  0  0  0  0  0  0  0  0999 V2000
   38.2120   27.5120   42.4830 N   0  0  0  0  0  0  0  0  0  0  0  0
   38.3400   27.1580   43.8790 C   0  0  0  0  0  0  0  0  0  0  0  0
   39.7700   26.6320   43.9710 C   0  0  0  0  0  0  0  0  0  0  0  0
   40.2350   26.4430   42.5620 C   0  0  0  0  0  0  0  0  0  0  0  0
   38.9900   26.5330   41.7480 C   0  0  0  0  0  0  0  0  0  0  0  0
   37.9250   29.9060   41.8810 C   0  0  0  0  0  0  0  0  0  0  0  0
   37.4940   28.5750   41.9100 C   0  0  0  0  0  0  0  0  0  0  0  0
   36.2460   28.2920   41.3190 C   0  0  0  0  0  0  0  0  0  0  0  0
   35.5250   29.2910   40.7580 N   0  0  0  0  0  0  0  0  0  0  0  0
   35.9820   30.5720   40.7510 C   0  0  0  0  0  0  0  0  0  0  0  0
   37.1850   30.8680   41.3170 N   0  0  0  0  0  0  0  0  0  0  0  0
   39.2180   30.2260   42.4880 C   0  0  0  0  0  0  0  0  0  0  0  0
   38.2003   28.0378   44.5243 H   0  0  0  0  0  0  0  0  0  0  0  0
   37.5876   26.4277   44.2114 H   0  0  0  0  0  0  0  0  0  0  0  0
   40.4114   27.3593   44.4902 H   0  0  0  0  0  0  0  0  0  0  0  0
   39.8158   25.6908   44.5385 H   0  0  0  0  0  0  0  0  0  0  0  0
   40.9450   27.2332   42.2767 H   0  0  0  0  0  0  0  0  0  0  0  0
   40.7630   25.4888   42.4182 H   0  0  0  0  0  0  0  0  0  0  0  0
   38.4717   25.5638   41.7038 H   0  0  0  0  0  0  0  0  0  0  0  0
   39.1683   26.8093   40.6983 H   0  0  0  0  0  0  0  0  0  0  0  0
   35.8591   27.2623   41.3137 H   0  0  0  0  0  0  0  0  0  0  0  0
   35.3805   31.3684   40.2886 H   0  0  0  0  0  0  0  0  0  0  0  0
   39.1244   30.2028   43.5838 H   0  0  0  0  0  0  0  0  0  0  0  0
   39.9664   29.4860   42.1682 H   0  0  0  0  0  0  0  0  0  0  0  0
   39.5348   31.2297   42.1682 H   0  0  0  0  0  0  0  0  0  0  0  0
  1  2  1  0
  2  3  1  0
  4  3  1  0
  5  1  1  0
  5  4  1  0
  6  7  2  0
  6 12  1  0
  7  1  1  0
  8  7  1  0
  9  8  2  0
 10  9  1  0
 10 11  2  0
 11  6  1  0
  2 13  1  0
  2 14  1  0
  3 15  1  0
  3 16  1  0
  4 17  1  0
  4 18  1  0
  5 19  1  0
  5 20  1  0
  8 21  1  0
 10 22  1  0
 12 23  1  0
 12 24  1  0
 12 25  1  0
M  ISO  8  13  13  14  13  15  13  16  13  17  13  18  13  19  13  20  13
M  ISO  5  21  14  22  14  23   8  24   8  25   8
M  END
>  <minimizedAffinity>  (1) 
-3.60772228

>  <minimizedRMSD>  (1) 
0.923844099

$$$$
