
     RDKit          3D

 34 36  0  0  0  0  0  0  0  0999 V2000
   37.9760   30.2260   40.7440 C   0  0  0  0  0  0  0  0  0  0  0  0
   38.5420   29.8110   41.9510 C   0  0  0  0  0  0  0  0  0  0  0  0
   39.5230   30.6470   42.5300 C   0  0  0  0  0  0  0  0  0  0  0  0
   39.8710   31.7950   41.9040 N   0  0  0  0  0  0  0  0  0  0  0  0
   39.2930   32.1610   40.7260 C   0  0  0  0  0  0  0  0  0  0  0  0
   38.3520   31.3790   40.1510 N   0  0  0  0  0  0  0  0  0  0  0  0
   36.9600   29.5950   39.9840 N   0  0  0  0  0  0  0  0  0  0  0  0
   36.1170   28.4150   40.0090 C   0  0  0  0  0  0  0  0  0  0  0  0
   34.9270   28.7640   39.1280 C   0  0  0  0  0  0  0  0  0  0  0  0
   35.5840   29.5800   38.0300 C   0  0  0  0  0  0  0  0  0  0  0  0
   36.6230   30.3490   38.7700 C   0  0  0  0  0  0  0  0  0  0  0  0
   38.1860   28.6360   42.6020 N   0  0  0  0  0  0  0  0  0  0  0  0
   38.5760   27.2760   42.2640 C   0  0  0  0  0  0  0  0  0  0  0  0
   37.4260   26.4240   42.7300 C   0  0  0  0  0  0  0  0  0  0  0  0
   36.4620   27.3640   43.4100 C   0  0  0  0  0  0  0  0  0  0  0  0
   37.3660   28.5040   43.7750 C   0  0  0  0  0  0  0  0  0  0  0  0
   39.9995   30.3671   43.4811 H   0  0  0  0  0  0  0  0  0  0  0  0
   39.5943   33.1001   40.2389 H   0  0  0  0  0  0  0  0  0  0  0  0
   36.6562   27.5458   39.6043 H   0  0  0  0  0  0  0  0  0  0  0  0
   35.8106   28.1471   41.0309 H   0  0  0  0  0  0  0  0  0  0  0  0
   34.4489   27.8596   38.7237 H   0  0  0  0  0  0  0  0  0  0  0  0
   34.1212   29.2945   39.6565 H   0  0  0  0  0  0  0  0  0  0  0  0
   34.8595   30.2536   37.5490 H   0  0  0  0  0  0  0  0  0  0  0  0
   35.9939   28.9651   37.2152 H   0  0  0  0  0  0  0  0  0  0  0  0
   37.5186   30.4675   38.1425 H   0  0  0  0  0  0  0  0  0  0  0  0
   36.2474   31.3494   39.0310 H   0  0  0  0  0  0  0  0  0  0  0  0
   38.7213   27.1721   41.1786 H   0  0  0  0  0  0  0  0  0  0  0  0
   39.5272   26.9859   42.7341 H   0  0  0  0  0  0  0  0  0  0  0  0
   36.9415   25.9337   41.8728 H   0  0  0  0  0  0  0  0  0  0  0  0
   37.7632   25.6295   43.4119 H   0  0  0  0  0  0  0  0  0  0  0  0
   35.6643   27.6868   42.7249 H   0  0  0  0  0  0  0  0  0  0  0  0
   35.9302   26.9210   44.2649 H   0  0  0  0  0  0  0  0  0  0  0  0
   37.9733   28.2627   44.6599 H   0  0  0  0  0  0  0  0  0  0  0  0
   36.8263   29.4252   44.0397 H   0  0  0  0  0  0  0  0  0  0  0  0
  1  2  1  0
  2  3  2  0
  2 12  1  0
  4  3  1  0
  5  4  2  0
  6  5  1  0
  6  1  2  0
  7  8  1  0
  7  1  1  0
  9  8  1  0
 10 11  1  0
 10  9  1  0
 11  7  1  0
 12 16  1  0
 13 12  1  0
 13 14  1  0
 14 15  1  0
 15 16  1  0
  3 17  1  0
  5 18  1  0
  8 19  1  0
  8 20  1  0
  9 21  1  0
  9 22  1  0
 10 23  1  0
 10 24  1  0
 11 25  1  0
 11 26  1  0
 13 27  1  0
 13 28  1  0
 14 29  1  0
 14 30  1  0
 15 31  1  0
 15 32  1  0
 16 33  1  0
 16 34  1  0
M  ISO  8  17  14  18  14  19  13  20  13  21  13  22  13  23  13  24  13
M  ISO  8  25  13  26  13  27  13  28  13  29  13  30  13  31  13  32  13
M  ISO  2  33  13  34  13
M  END
>  <minimizedAffinity>  (1) 
-4.63580084

>  <minimizedRMSD>  (1) 
4.17943192

$$$$
