
     RDKit          3D

 37 39  0  0  1  0  0  0  0  0999 V2000
   37.5680   27.4830   40.1470 C   0  0  0  0  0  0  0  0  0  0  0  0
   38.4320   28.2800   40.8910 C   0  0  0  0  0  0  0  0  0  0  0  0
   38.5820   29.6270   40.5030 C   0  0  0  0  0  0  0  0  0  0  0  0
   37.8860   30.0890   39.4370 N   0  0  0  0  0  0  0  0  0  0  0  0
   37.0480   29.2790   38.7310 C   0  0  0  0  0  0  0  0  0  0  0  0
   36.8820   27.9720   39.0800 N   0  0  0  0  0  0  0  0  0  0  0  0
   37.2300   26.1260   40.3240 N   0  0  0  0  0  0  0  0  0  0  0  0
   37.4280   25.0690   41.2880 C   0  0  0  0  0  0  0  0  0  0  0  0
   36.5040   23.9670   40.9400 C   0  0  0  0  0  0  0  0  0  0  0  0
   36.1360   24.1650   39.5140 C   0  0  0  0  0  0  0  0  0  0  0  0
   36.4100   25.5860   39.2310 C   0  0  0  0  0  0  0  0  0  0  0  0
   39.1350   27.8080   41.9800 N   0  0  0  0  0  0  0  0  0  0  0  0
   40.4040   27.1190   42.0020 C   0  0  0  0  0  0  0  0  0  0  0  0
   40.3700   26.2130   43.1940 C   0  0  0  0  0  0  0  0  0  0  0  0
   39.0840   26.5450   43.8990 C   0  0  0  0  0  0  0  0  0  0  0  0
   38.7720   27.8860   43.3660 C   0  0  2  0  0  0  0  0  0  0  0  0
   37.3860   28.3330   43.6570 C   0  0  0  0  0  0  0  0  0  0  0  0
   36.4890   27.3640   43.1870 F   0  0  0  0  0  0  0  0  0  0  0  0
   37.0150   29.5150   43.0520 F   0  0  0  0  0  0  0  0  0  0  0  0
   37.1100   28.4690   44.9900 F   0  0  0  0  0  0  0  0  0  0  0  0
   39.2562   30.2947   41.0594 H   0  0  0  0  0  0  0  0  0  0  0  0
   36.4987   29.6850   37.8688 H   0  0  0  0  0  0  0  0  0  0  0  0
   38.4682   24.7135   41.2465 H   0  0  0  0  0  0  0  0  0  0  0  0
   37.2287   25.4330   42.3067 H   0  0  0  0  0  0  0  0  0  0  0  0
   37.0026   22.9956   41.0732 H   0  0  0  0  0  0  0  0  0  0  0  0
   35.6142   23.9724   41.5867 H   0  0  0  0  0  0  0  0  0  0  0  0
   36.7466   23.5191   38.8660 H   0  0  0  0  0  0  0  0  0  0  0  0
   35.0839   23.9061   39.3239 H   0  0  0  0  0  0  0  0  0  0  0  0
   36.9532   25.6773   38.2788 H   0  0  0  0  0  0  0  0  0  0  0  0
   35.4659   26.1453   39.1544 H   0  0  0  0  0  0  0  0  0  0  0  0
   40.5346   26.5319   41.0810 H   0  0  0  0  0  0  0  0  0  0  0  0
   41.2428   27.8280   42.0626 H   0  0  0  0  0  0  0  0  0  0  0  0
   40.3772   25.1591   42.8789 H   0  0  0  0  0  0  0  0  0  0  0  0
   41.2458   26.3533   43.8446 H   0  0  0  0  0  0  0  0  0  0  0  0
   38.2936   25.8224   43.6478 H   0  0  0  0  0  0  0  0  0  0  0  0
   39.1613   26.5133   44.9958 H   0  0  0  0  0  0  0  0  0  0  0  0
   39.3399   28.6873   43.8613 H   0  0  0  0  0  0  0  0  0  0  0  0
  1  7  1  0
  1  2  1  0
  2 12  1  0
  3  2  2  0
  4  3  1  0
  5  6  1  0
  5  4  2  0
  6  1  2  0
  7  8  1  0
  9  8  1  0
 10  9  1  0
 11 10  1  0
 11  7  1  0
 12 13  1  0
 12 16  1  0
 13 14  1  0
 14 15  1  0
 16 17  1  0
 16 15  1  0
 17 20  1  0
 18 17  1  0
 19 17  1  0
  3 21  1  0
  5 22  1  0
  8 23  1  0
  8 24  1  0
  9 25  1  0
  9 26  1  0
 10 27  1  0
 10 28  1  0
 11 29  1  0
 11 30  1  0
 13 31  1  0
 13 32  1  0
 14 33  1  0
 14 34  1  0
 15 35  1  0
 15 36  1  0
 16 37  1  1
M  ISO  8  21  14  22  14  23  13  24  13  25  13  26  13  27  13  28  13
M  ISO  8  29  13  30  13  31  13  32  13  33  13  34  13  35  13  36  13
M  ISO  1  37  13
M  END
>  <minimizedAffinity>  (1) 
-5.16097927

>  <minimizedRMSD>  (1) 
3.29383349

$$$$
