
     RDKit          3D

 40 42  0  0  1  0  0  0  0  0999 V2000
   37.6830   30.0880   40.3400 C   0  0  0  0  0  0  0  0  0  0  0  0
   38.3460   29.6660   41.4890 C   0  0  0  0  0  0  0  0  0  0  0  0
   39.1770   30.5850   42.1460 C   0  0  0  0  0  0  0  0  0  0  0  0
   39.3030   31.8380   41.6410 N   0  0  0  0  0  0  0  0  0  0  0  0
   38.6380   32.2200   40.5090 C   0  0  0  0  0  0  0  0  0  0  0  0
   37.8310   31.3420   39.8650 N   0  0  0  0  0  0  0  0  0  0  0  0
   36.7860   29.3790   39.5170 N   0  0  0  0  0  0  0  0  0  0  0  0
   36.0940   28.1170   39.4980 C   0  0  0  0  0  0  0  0  0  0  0  0
   35.2150   28.0760   38.3210 C   0  0  0  0  0  0  0  0  0  0  0  0
   35.3670   29.3580   37.5990 C   0  0  0  0  0  0  0  0  0  0  0  0
   36.3870   30.1260   38.3200 C   0  0  0  0  0  0  0  0  0  0  0  0
   38.2140   28.3730   42.0090 N   0  0  0  0  0  0  0  0  0  0  0  0
   39.1030   27.2360   41.7670 C   0  0  0  0  0  0  0  0  0  0  0  0
   38.2380   26.0340   41.8960 C   0  0  0  0  0  0  0  0  0  0  0  0
   36.8890   26.5480   42.2980 C   0  0  0  0  0  0  0  0  0  0  0  0
   37.1910   27.8840   42.8730 C   0  0  1  0  0  0  0  0  0  0  0  0
   37.4550   28.0100   44.3030 C   0  0  0  0  0  0  0  0  0  0  0  0
   36.3420   28.1440   45.2660 C   0  0  0  0  0  0  0  0  0  0  0  0
   39.7190   30.2941   43.0579 H   0  0  0  0  0  0  0  0  0  0  0  0
   38.7582   33.2420   40.1202 H   0  0  0  0  0  0  0  0  0  0  0  0
   36.8240   27.2960   39.4429 H   0  0  0  0  0  0  0  0  0  0  0  0
   35.4963   28.0049   40.4146 H   0  0  0  0  0  0  0  0  0  0  0  0
   35.5049   27.2410   37.6662 H   0  0  0  0  0  0  0  0  0  0  0  0
   34.1688   27.9290   38.6274 H   0  0  0  0  0  0  0  0  0  0  0  0
   34.4131   29.9057   37.5930 H   0  0  0  0  0  0  0  0  0  0  0  0
   35.6617   29.1915   36.5524 H   0  0  0  0  0  0  0  0  0  0  0  0
   37.2620   30.2782   37.6710 H   0  0  0  0  0  0  0  0  0  0  0  0
   35.9798   31.1057   38.6105 H   0  0  0  0  0  0  0  0  0  0  0  0
   39.9112   27.2121   42.5128 H   0  0  0  0  0  0  0  0  0  0  0  0
   39.5854   27.2927   40.7801 H   0  0  0  0  0  0  0  0  0  0  0  0
   38.1752   25.5015   40.9355 H   0  0  0  0  0  0  0  0  0  0  0  0
   38.6382   25.3224   42.6333 H   0  0  0  0  0  0  0  0  0  0  0  0
   36.2244   26.6353   41.4258 H   0  0  0  0  0  0  0  0  0  0  0  0
   36.3671   25.8836   43.0025 H   0  0  0  0  0  0  0  0  0  0  0  0
   36.2798   28.5000   42.8906 H   0  0  0  0  0  0  0  0  0  0  0  0
   38.0202   27.1137   44.5985 H   0  0  0  0  0  0  0  0  0  0  0  0
   37.9603   28.9845   44.3745 H   0  0  0  0  0  0  0  0  0  0  0  0
   36.7368   28.0965   46.2916 H   0  0  0  0  0  0  0  0  0  0  0  0
   35.8377   29.1093   45.1116 H   0  0  0  0  0  0  0  0  0  0  0  0
   35.6230   27.3259   45.1116 H   0  0  0  0  0  0  0  0  0  0  0  0
  1  2  1  0
  2 12  1  0
  2  3  2  0
  4  3  1  0
  5  4  2  0
  6  1  2  0
  6  5  1  0
  7  1  1  0
  8  7  1  0
  9  8  1  0
 10 11  1  0
 10  9  1  0
 11  7  1  0
 12 16  1  0
 13 14  1  0
 13 12  1  0
 14 15  1  0
 15 16  1  0
 16 17  1  0
 17 18  1  0
  3 19  1  0
  5 20  1  0
  8 21  1  0
  8 22  1  0
  9 23  1  0
  9 24  1  0
 10 25  1  0
 10 26  1  0
 11 27  1  0
 11 28  1  0
 13 29  1  0
 13 30  1  0
 14 31  1  0
 14 32  1  0
 15 33  1  0
 15 34  1  0
 16 35  1  1
 17 36  1  0
 17 37  1  0
 18 38  1  0
 18 39  1  0
 18 40  1  0
M  ISO  8  19  14  20  14  21  13  22  13  23  13  24  13  25  13  26  13
M  ISO  8  27  13  28  13  29  13  30  13  31  13  32  13  33  13  34  13
M  ISO  6  35  13  36   8  37   8  38   8  39   8  40   8
M  END
>  <minimizedAffinity>  (1) 
-4.9703927

>  <minimizedRMSD>  (1) 
0.860808253

$$$$
