
     RDKit          3D

 30 32  0  0  0  0  0  0  0  0999 V2000
   38.8500   27.8240   43.3010 C   0  0  0  0  0  0  0  0  0  0  0  0
   37.5080   27.3590   43.1860 C   0  0  0  0  0  0  0  0  0  0  0  0
   36.5910   28.1320   42.4640 C   0  0  0  0  0  0  0  0  0  0  0  0
   37.0290   29.2900   41.9080 N   0  0  0  0  0  0  0  0  0  0  0  0
   38.3160   29.7100   42.0350 C   0  0  0  0  0  0  0  0  0  0  0  0
   39.2130   28.9840   42.7230 N   0  0  0  0  0  0  0  0  0  0  0  0
   38.6550   30.9450   41.4050 N   0  0  0  0  0  0  0  0  0  0  0  0
   37.7420   31.7070   40.7980 C   0  0  0  0  0  0  0  0  0  0  0  0
   38.2370   32.8600   40.2440 C   0  0  0  0  0  0  0  0  0  0  0  0
   39.5460   33.2530   40.2780 C   0  0  0  0  0  0  0  0  0  0  0  0
   39.9800   34.3180   39.7630 O   0  0  0  0  0  0  0  0  0  0  0  0
   40.4310   32.4350   40.9120 N   0  0  0  0  0  0  0  0  0  0  0  0
   39.9690   31.2800   41.4730 C   0  0  0  0  0  0  0  0  0  0  0  0
   40.8250   30.5610   42.0450 O   0  0  0  0  0  0  0  0  0  0  0  0
   41.8250   32.7570   41.0030 C   0  0  0  0  0  0  0  0  0  0  0  0
   42.8940   32.8480   40.1150 C   0  0  0  0  0  0  0  0  0  0  0  0
   43.9700   33.2040   40.8500 N   0  0  0  0  0  0  0  0  0  0  0  0
   43.5860   33.3300   42.1530 C   0  0  0  0  0  0  0  0  0  0  0  0
   42.2610   33.0520   42.2440 N   0  0  0  0  0  0  0  0  0  0  0  0
   37.3360   33.7980   39.5400 C   0  0  0  0  0  0  0  0  0  0  0  0
   39.5898   27.2345   43.8625 H   0  0  0  0  0  0  0  0  0  0  0  0
   37.1992   26.4129   43.6545 H   0  0  0  0  0  0  0  0  0  0  0  0
   35.5453   27.8100   42.3506 H   0  0  0  0  0  0  0  0  0  0  0  0
   36.6781   31.4322   40.7463 H   0  0  0  0  0  0  0  0  0  0  0  0
   42.8674   32.6661   39.0305 H   0  0  0  0  0  0  0  0  0  0  0  0
   44.2416   33.6104   42.9906 H   0  0  0  0  0  0  0  0  0  0  0  0
   41.6929   33.0641   43.1031 H   0  0  0  0  0  0  0  0  0  0  0  0
   36.7706   34.3866   40.2775 H   0  0  0  0  0  0  0  0  0  0  0  0
   37.9313   34.4747   38.9094 H   0  0  0  0  0  0  0  0  0  0  0  0
   36.6359   33.2304   38.9094 H   0  0  0  0  0  0  0  0  0  0  0  0
  2  1  2  0
  3  2  1  0
  4  5  1  0
  4  3  2  0
  5  6  2  0
  6  1  1  0
  7 13  1  0
  7  5  1  0
  8  7  1  0
  9 10  1  0
  9  8  2  0
 10 12  1  0
 11 10  2  0
 12 15  1  0
 12 13  1  0
 13 14  2  0
 15 19  1  0
 16 17  1  0
 16 15  2  0
 17 18  2  0
 18 19  1  0
 20  9  1  0
  1 21  1  0
  2 22  1  0
  3 23  1  0
  8 24  1  0
 16 25  1  0
 18 26  1  0
 19 27  1  0
 20 28  1  0
 20 29  1  0
 20 30  1  0
M  ISO  8  21  14  22  14  23  14  24  14  25  14  26  14  27   9  28   8
M  ISO  2  29   8  30   8
M  END
>  <minimizedAffinity>  (1) 
-5.59485388

>  <minimizedRMSD>  (1) 
0.890180469

$$$$
