
     RDKit          3D

 37 39  0  0  1  0  0  0  0  0999 V2000
   38.4400   28.8690   39.5120 C   0  0  0  0  0  0  0  0  0  0  0  0
   39.1750   28.2500   40.5130 C   0  0  0  0  0  0  0  0  0  0  0  0
   40.5640   28.4910   40.5410 C   0  0  0  0  0  0  0  0  0  0  0  0
   41.1200   29.2970   39.6150 N   0  0  0  0  0  0  0  0  0  0  0  0
   40.3620   29.8860   38.6480 C   0  0  0  0  0  0  0  0  0  0  0  0
   39.0280   29.6750   38.5930 N   0  0  0  0  0  0  0  0  0  0  0  0
   37.0500   28.7990   39.2600 N   0  0  0  0  0  0  0  0  0  0  0  0
   35.8490   28.1630   39.7670 C   0  0  0  0  0  0  0  0  0  0  0  0
   34.6950   28.9350   39.1730 C   0  0  0  0  0  0  0  0  0  0  0  0
   35.2130   29.3780   37.8460 C   0  0  0  0  0  0  0  0  0  0  0  0
   36.6440   29.6280   38.1180 C   0  0  0  0  0  0  0  0  0  0  0  0
   38.6020   27.4160   41.4690 N   0  0  0  0  0  0  0  0  0  0  0  0
   38.3310   25.9830   41.3540 C   0  0  0  0  0  0  0  0  0  0  0  0
   37.1050   25.7710   42.1970 C   0  0  0  0  0  0  0  0  0  0  0  0
   36.8880   27.0390   42.9140 C   0  0  0  0  0  0  0  0  0  0  0  0
   38.1560   27.7920   42.7720 C   0  0  2  0  0  0  0  0  0  0  0  0
   37.9970   29.2630   42.9070 C   0  0  0  0  0  0  0  0  0  0  0  0
   38.9140   30.0810   43.2090 O   0  0  0  0  0  0  0  0  0  0  0  0
   36.7180   29.7790   42.6810 O   0  0  0  0  0  0  0  0  0  0  0  0
   41.1906   28.0235   41.3148 H   0  0  0  0  0  0  0  0  0  0  0  0
   40.8407   30.5401   37.9043 H   0  0  0  0  0  0  0  0  0  0  0  0
   35.8096   27.1104   39.4502 H   0  0  0  0  0  0  0  0  0  0  0  0
   35.8191   28.1708   40.8666 H   0  0  0  0  0  0  0  0  0  0  0  0
   33.8115   28.2906   39.0542 H   0  0  0  0  0  0  0  0  0  0  0  0
   34.3718   29.7741   39.8066 H   0  0  0  0  0  0  0  0  0  0  0  0
   34.7077   30.2955   37.5099 H   0  0  0  0  0  0  0  0  0  0  0  0
   35.0446   28.6422   37.0458 H   0  0  0  0  0  0  0  0  0  0  0  0
   37.2423   29.3617   37.2342 H   0  0  0  0  0  0  0  0  0  0  0  0
   36.8052   30.6918   38.3467 H   0  0  0  0  0  0  0  0  0  0  0  0
   38.1376   25.7053   40.3074 H   0  0  0  0  0  0  0  0  0  0  0  0
   39.1802   25.3658   41.6826 H   0  0  0  0  0  0  0  0  0  0  0  0
   36.2384   25.5372   41.5611 H   0  0  0  0  0  0  0  0  0  0  0  0
   37.2324   24.9286   42.8929 H   0  0  0  0  0  0  0  0  0  0  0  0
   36.0553   27.5987   42.4631 H   0  0  0  0  0  0  0  0  0  0  0  0
   36.6263   26.8730   43.9694 H   0  0  0  0  0  0  0  0  0  0  0  0
   38.8723   27.5514   43.5714 H   0  0  0  0  0  0  0  0  0  0  0  0
   36.5564   30.7527   42.7578 H   0  0  0  0  0  0  0  0  0  0  0  0
  1  2  1  0
  2  3  2  0
  2 12  1  0
  4  3  1  0
  5  4  2  0
  6  5  1  0
  6  1  2  0
  7  1  1  0
  7  8  1  0
  9  8  1  0
 10 11  1  0
 10  9  1  0
 11  7  1  0
 12 16  1  0
 13 12  1  0
 13 14  1  0
 14 15  1  0
 16 17  1  0
 16 15  1  0
 17 18  2  0
 19 17  1  0
  3 20  1  0
  5 21  1  0
  8 22  1  0
  8 23  1  0
  9 24  1  0
  9 25  1  0
 10 26  1  0
 10 27  1  0
 11 28  1  0
 11 29  1  0
 13 30  1  0
 13 31  1  0
 14 32  1  0
 14 33  1  0
 15 34  1  0
 15 35  1  0
 16 36  1  1
 19 37  1  0
M  ISO  8  20  14  21  14  22  13  23  13  24  13  25  13  26  13  27  13
M  ISO  8  28  13  29  13  30  13  31  13  32  13  33  13  34  13  35  13
M  ISO  2  36  13  37   3
M  END
>  <minimizedAffinity>  (1) 
-4.82345152

>  <minimizedRMSD>  (1) 
2.01519179

$$$$
