
     RDKit          3D

 46 48  0  0  1  0  0  0  0  0999 V2000
   38.8270   27.7000   39.5370 C   0  0  0  0  0  0  0  0  0  0  0  0
   39.3320   27.3400   40.7770 C   0  0  0  0  0  0  0  0  0  0  0  0
   40.4640   28.0500   41.2480 C   0  0  0  0  0  0  0  0  0  0  0  0
   41.0010   29.0250   40.4950 N   0  0  0  0  0  0  0  0  0  0  0  0
   40.4710   29.3450   39.2780 C   0  0  0  0  0  0  0  0  0  0  0  0
   39.3910   28.6830   38.8070 N   0  0  0  0  0  0  0  0  0  0  0  0
   37.7180   27.1580   38.8600 N   0  0  0  0  0  0  0  0  0  0  0  0
   36.6590   26.1810   39.0510 C   0  0  0  0  0  0  0  0  0  0  0  0
   35.6100   26.4990   38.0330 C   0  0  0  0  0  0  0  0  0  0  0  0
   36.3710   27.0810   36.8810 C   0  0  0  0  0  0  0  0  0  0  0  0
   37.5250   27.7420   37.5290 C   0  0  0  0  0  0  0  0  0  0  0  0
   38.7960   26.3470   41.5830 N   0  0  0  0  0  0  0  0  0  0  0  0
   39.0720   24.9250   41.5120 C   0  0  0  0  0  0  0  0  0  0  0  0
   37.8060   24.2480   41.9350 C   0  0  0  0  0  0  0  0  0  0  0  0
   36.9350   25.3530   42.4300 C   0  0  0  0  0  0  0  0  0  0  0  0
   37.8740   26.4720   42.6560 C   0  0  2  0  0  0  0  0  0  0  0  0
   37.1710   27.7200   42.9190 C   0  0  0  0  0  0  0  0  0  0  0  0
   36.2230   27.3970   44.0940 C   0  0  0  0  0  0  0  0  0  0  0  0
   38.0070   28.8610   43.4130 C   0  0  0  0  0  0  0  0  0  0  0  0
   36.2550   28.2480   41.8740 C   0  0  0  0  0  0  0  0  0  0  0  0
   40.9018   27.8040   42.2267 H   0  0  0  0  0  0  0  0  0  0  0  0
   40.9258   30.1464   38.6773 H   0  0  0  0  0  0  0  0  0  0  0  0
   37.0462   25.1633   38.8946 H   0  0  0  0  0  0  0  0  0  0  0  0
   36.2529   26.2242   40.0724 H   0  0  0  0  0  0  0  0  0  0  0  0
   35.0767   25.5872   37.7260 H   0  0  0  0  0  0  0  0  0  0  0  0
   34.8455   27.1883   38.4208 H   0  0  0  0  0  0  0  0  0  0  0  0
   35.7570   27.8104   36.3324 H   0  0  0  0  0  0  0  0  0  0  0  0
   36.6704   26.3256   36.1396 H   0  0  0  0  0  0  0  0  0  0  0  0
   38.4291   27.5859   36.9222 H   0  0  0  0  0  0  0  0  0  0  0  0
   37.3352   28.8218   37.6186 H   0  0  0  0  0  0  0  0  0  0  0  0
   39.3371   24.6361   40.4843 H   0  0  0  0  0  0  0  0  0  0  0  0
   39.9192   24.6421   42.1541 H   0  0  0  0  0  0  0  0  0  0  0  0
   37.3362   23.7356   41.0825 H   0  0  0  0  0  0  0  0  0  0  0  0
   37.9806   23.4792   42.7021 H   0  0  0  0  0  0  0  0  0  0  0  0
   36.1790   25.6224   41.6777 H   0  0  0  0  0  0  0  0  0  0  0  0
   36.3760   25.0787   43.3368 H   0  0  0  0  0  0  0  0  0  0  0  0
   38.4696   26.4569   43.5807 H   0  0  0  0  0  0  0  0  0  0  0  0
   36.7450   27.5748   45.0458 H   0  0  0  0  0  0  0  0  0  0  0  0
   35.3346   28.0432   44.0367 H   0  0  0  0  0  0  0  0  0  0  0  0
   35.9140   26.3429   44.0367 H   0  0  0  0  0  0  0  0  0  0  0  0
   38.0095   28.8644   44.5130 H   0  0  0  0  0  0  0  0  0  0  0  0
   39.0371   28.7473   43.0443 H   0  0  0  0  0  0  0  0  0  0  0  0
   37.5882   29.8090   43.0443 H   0  0  0  0  0  0  0  0  0  0  0  0
   35.3974   28.7423   42.3539 H   0  0  0  0  0  0  0  0  0  0  0  0
   36.7934   28.9743   41.2474 H   0  0  0  0  0  0  0  0  0  0  0  0
   35.8963   27.4181   41.2474 H   0  0  0  0  0  0  0  0  0  0  0  0
  1  2  1  0
  2  3  2  0
  2 12  1  0
  4  3  1  0
  5  4  2  0
  6  5  1  0
  6  1  2  0
  7  8  1  0
  7  1  1  0
  9  8  1  0
 10 11  1  0
 10  9  1  0
 11  7  1  0
 12 16  1  0
 13 12  1  0
 13 14  1  0
 14 15  1  0
 15 16  1  0
 16 17  1  0
 17 19  1  0
 17 18  1  0
 20 17  1  0
  3 21  1  0
  5 22  1  0
  8 23  1  0
  8 24  1  0
  9 25  1  0
  9 26  1  0
 10 27  1  0
 10 28  1  0
 11 29  1  0
 11 30  1  0
 13 31  1  0
 13 32  1  0
 14 33  1  0
 14 34  1  0
 15 35  1  0
 15 36  1  0
 16 37  1  1
 18 38  1  0
 18 39  1  0
 18 40  1  0
 19 41  1  0
 19 42  1  0
 19 43  1  0
 20 44  1  0
 20 45  1  0
 20 46  1  0
M  ISO  8  21  14  22  14  23  13  24  13  25  13  26  13  27  13  28  13
M  ISO  8  29  13  30  13  31  13  32  13  33  13  34  13  35  13  36  13
M  ISO  8  37  13  38   8  39   8  40   8  41   8  42   8  43   8  44   8
M  ISO  2  45   8  46   8
M  END
>  <minimizedAffinity>  (1) 
-4.6512599

>  <minimizedRMSD>  (1) 
2.7416594

$$$$
