
     RDKit          3D

 43 46  0  0  1  0  0  0  0  0999 V2000
   38.8430   29.4080   39.7570 C   0  0  0  0  0  0  0  0  0  0  0  0
   38.4180   29.5440   41.0930 C   0  0  0  0  0  0  0  0  0  0  0  0
   38.5030   30.8360   41.6800 C   0  0  0  0  0  0  0  0  0  0  0  0
   38.9800   31.8650   40.9480 N   0  0  0  0  0  0  0  0  0  0  0  0
   39.3800   31.6880   39.6580 C   0  0  0  0  0  0  0  0  0  0  0  0
   39.3080   30.4690   39.0800 N   0  0  0  0  0  0  0  0  0  0  0  0
   38.8500   28.2420   38.9720 N   0  0  0  0  0  0  0  0  0  0  0  0
   38.4870   26.8430   39.0150 C   0  0  0  0  0  0  0  0  0  0  0  0
   38.3860   26.4000   37.5800 C   0  0  0  0  0  0  0  0  0  0  0  0
   39.4340   27.2190   36.8910 C   0  0  0  0  0  0  0  0  0  0  0  0
   39.4090   28.5000   37.6500 C   0  0  0  0  0  0  0  0  0  0  0  0
   37.9330   28.4950   41.8530 N   0  0  0  0  0  0  0  0  0  0  0  0
   36.5480   28.0270   41.9730 C   0  0  0  0  0  0  0  0  0  0  0  0
   36.4440   27.5370   43.4070 C   0  0  0  0  0  0  0  0  0  0  0  0
   37.8390   27.4720   43.8820 C   0  0  0  0  0  0  0  0  0  0  0  0
   38.6830   27.6360   42.6880 C   0  0  2  0  0  0  0  0  0  0  0  0
   40.0040   28.1460   43.0100 N   0  0  0  0  0  0  0  0  0  0  0  0
   41.1150   27.4150   43.4680 C   0  0  0  0  0  0  0  0  0  0  0  0
   41.1510   26.1230   42.9430 C   0  0  0  0  0  0  0  0  0  0  0  0
   42.2800   25.4750   43.4520 C   0  0  0  0  0  0  0  0  0  0  0  0
   42.8790   26.3970   44.2620 N   0  0  0  0  0  0  0  0  0  0  0  0
   42.1920   27.5550   44.2750 N   0  0  0  0  0  0  0  0  0  0  0  0
   38.1833   30.9956   42.7203 H   0  0  0  0  0  0  0  0  0  0  0  0
   39.7643   32.5434   39.0830 H   0  0  0  0  0  0  0  0  0  0  0  0
   39.2595   26.2630   39.5412 H   0  0  0  0  0  0  0  0  0  0  0  0
   37.5408   26.6871   39.5539 H   0  0  0  0  0  0  0  0  0  0  0  0
   38.5995   25.3252   37.4836 H   0  0  0  0  0  0  0  0  0  0  0  0
   37.3811   26.5422   37.1557 H   0  0  0  0  0  0  0  0  0  0  0  0
   40.4207   26.7377   36.9597 H   0  0  0  0  0  0  0  0  0  0  0  0
   39.2457   27.3484   35.8150 H   0  0  0  0  0  0  0  0  0  0  0  0
   40.4317   28.8927   37.7495 H   0  0  0  0  0  0  0  0  0  0  0  0
   38.7947   29.2418   37.1186 H   0  0  0  0  0  0  0  0  0  0  0  0
   35.8409   28.8494   41.7893 H   0  0  0  0  0  0  0  0  0  0  0  0
   36.3028   27.2435   41.2409 H   0  0  0  0  0  0  0  0  0  0  0  0
   35.8591   28.2416   44.0164 H   0  0  0  0  0  0  0  0  0  0  0  0
   35.9339   26.5651   43.4790 H   0  0  0  0  0  0  0  0  0  0  0  0
   38.0353   28.2797   44.6025 H   0  0  0  0  0  0  0  0  0  0  0  0
   38.0461   26.5205   44.3937 H   0  0  0  0  0  0  0  0  0  0  0  0
   38.9024   26.6805   42.1892 H   0  0  0  0  0  0  0  0  0  0  0  0
   40.1434   29.1593   42.8891 H   0  0  0  0  0  0  0  0  0  0  0  0
   40.4171   25.6889   42.2480 H   0  0  0  0  0  0  0  0  0  0  0  0
   42.6131   24.4472   43.2454 H   0  0  0  0  0  0  0  0  0  0  0  0
   43.7445   26.2284   44.7943 H   0  0  0  0  0  0  0  0  0  0  0  0
  1  2  1  0
  2  3  2  0
  2 12  1  0
  4  3  1  0
  5  4  2  0
  6  5  1  0
  6  1  2  0
  7  8  1  0
  7  1  1  0
  9  8  1  0
 10  9  1  0
 10 11  1  0
 11  7  1  0
 12 13  1  0
 12 16  1  0
 13 14  1  0
 14 15  1  0
 16 17  1  0
 16 15  1  0
 17 18  1  0
 18 22  2  0
 19 20  2  0
 19 18  1  0
 20 21  1  0
 21 22  1  0
  3 23  1  0
  5 24  1  0
  8 25  1  0
  8 26  1  0
  9 27  1  0
  9 28  1  0
 10 29  1  0
 10 30  1  0
 11 31  1  0
 11 32  1  0
 13 33  1  0
 13 34  1  0
 14 35  1  0
 14 36  1  0
 15 37  1  0
 15 38  1  0
 16 39  1  6
 17 40  1  0
 19 41  1  0
 20 42  1  0
 21 43  1  0
M  ISO  8  23  14  24  14  25  13  26  13  27  13  28  13  29  13  30  13
M  ISO  8  31  13  32  13  33  13  34  13  35  13  36  13  37  13  38  13
M  ISO  4  39  13  41  14  42  14  43   9
M  END
>  <minimizedAffinity>  (1) 
-4.80770922

>  <minimizedRMSD>  (1) 
4.20496607

$$$$
