
     RDKit          3D

 18 19  0  0  0  0  0  0  0  0999 V2000
   39.4550   27.7980   43.3370 C   0  0  0  0  0  0  0  0  0  0  0  0
   38.6920   26.6080   43.3270 C   0  0  0  0  0  0  0  0  0  0  0  0
   37.5040   26.6140   42.5730 C   0  0  0  0  0  0  0  0  0  0  0  0
   37.1790   27.7560   41.9160 N   0  0  0  0  0  0  0  0  0  0  0  0
   37.9280   28.8670   41.9500 C   0  0  0  0  0  0  0  0  0  0  0  0
   39.0750   28.8940   42.6630 N   0  0  0  0  0  0  0  0  0  0  0  0
   37.5940   30.0570   41.2680 N   0  0  0  0  0  0  0  0  0  0  0  0
   38.4730   31.0440   41.3310 N   0  0  0  0  0  0  0  0  0  0  0  0
   38.0330   32.1160   40.6410 C   0  0  0  0  0  0  0  0  0  0  0  0
   36.8120   31.7180   40.1440 C   0  0  0  0  0  0  0  0  0  0  0  0
   36.5090   30.4090   40.5290 C   0  0  0  0  0  0  0  0  0  0  0  0
   35.1460   29.3350   40.2380 S   0  0  0  0  0  0  0  0  0  0  0  0
   40.3900   27.8262   43.9158 H   0  0  0  0  0  0  0  0  0  0  0  0
   39.0131   25.7158   43.8846 H   0  0  0  0  0  0  0  0  0  0  0  0
   36.8607   25.7234   42.5180 H   0  0  0  0  0  0  0  0  0  0  0  0
   38.5344   33.0857   40.5062 H   0  0  0  0  0  0  0  0  0  0  0  0
   36.1589   32.3493   39.5236 H   0  0  0  0  0  0  0  0  0  0  0  0
   34.6245   28.9240   41.4363 H   0  0  0  0  0  0  0  0  0  0  0  0
  2  1  2  0
  3  2  1  0
  4  5  1  0
  4  3  2  0
  5  6  2  0
  6  1  1  0
  7  8  1  0
  7  5  1  0
  9  8  2  0
 10 11  2  0
 10  9  1  0
 11  7  1  0
 12 11  1  0
  1 13  1  0
  2 14  1  0
  3 15  1  0
  9 16  1  0
 10 17  1  0
 12 18  1  0
M  ISO  6  13  14  14  14  15  14  16  14  17  14  18  11
M  END
>  <minimizedAffinity>  (1) 
-3.74828792

>  <minimizedRMSD>  (1) 
1.45610881

$$$$
