
     RDKit          3D

 43 46  0  0  1  0  0  0  0  0999 V2000
   40.6320   25.8500   41.6360 C   0  0  0  0  0  0  0  0  0  0  0  0
   41.3380   26.9350   41.1380 C   0  0  0  0  0  0  0  0  0  0  0  0
   42.6150   27.1840   41.7010 C   0  0  0  0  0  0  0  0  0  0  0  0
   43.0880   26.3830   42.6710 N   0  0  0  0  0  0  0  0  0  0  0  0
   42.3510   25.3220   43.1290 C   0  0  0  0  0  0  0  0  0  0  0  0
   41.1330   25.0660   42.6080 N   0  0  0  0  0  0  0  0  0  0  0  0
   39.3400   25.3910   41.2410 N   0  0  0  0  0  0  0  0  0  0  0  0
   38.2960   25.6710   40.2910 C   0  0  0  0  0  0  0  0  0  0  0  0
   37.4830   24.4010   40.2000 C   0  0  0  0  0  0  0  0  0  0  0  0
   37.5520   23.8580   41.5900 C   0  0  0  0  0  0  0  0  0  0  0  0
   38.9050   24.2610   42.0450 C   0  0  0  0  0  0  0  0  0  0  0  0
   40.8670   27.7770   40.1340 N   0  0  0  0  0  0  0  0  0  0  0  0
   41.2850   27.8190   38.7450 C   0  0  0  0  0  0  0  0  0  0  0  0
   41.1780   29.2690   38.3610 C   0  0  0  0  0  0  0  0  0  0  0  0
   40.3950   29.8850   39.4570 C   0  0  0  0  0  0  0  0  0  0  0  0
   39.8620   28.7830   40.2700 C   0  0  2  0  0  0  0  0  0  0  0  0
   39.5720   29.1260   41.6390 N   0  0  0  0  0  0  0  0  0  0  0  0
   36.3760   28.4180   43.0030 N   0  0  0  0  0  0  0  0  0  0  0  0
   37.1450   28.9470   42.0780 N   0  0  0  0  0  0  0  0  0  0  0  0
   38.4510   28.7080   42.3950 C   0  0  0  0  0  0  0  0  0  0  0  0
   38.4100   28.0000   43.5770 C   0  0  0  0  0  0  0  0  0  0  0  0
   37.0870   27.8040   43.9810 C   0  0  0  0  0  0  0  0  0  0  0  0
   43.2181   28.0319   41.3443 H   0  0  0  0  0  0  0  0  0  0  0  0
   42.7538   24.6771   43.9239 H   0  0  0  0  0  0  0  0  0  0  0  0
   37.6697   26.5042   40.6423 H   0  0  0  0  0  0  0  0  0  0  0  0
   38.7026   25.9666   39.3126 H   0  0  0  0  0  0  0  0  0  0  0  0
   36.4438   24.6166   39.9108 H   0  0  0  0  0  0  0  0  0  0  0  0
   37.8588   23.6990   39.4411 H   0  0  0  0  0  0  0  0  0  0  0  0
   36.7730   24.3032   42.2264 H   0  0  0  0  0  0  0  0  0  0  0  0
   37.3871   22.7715   41.6372 H   0  0  0  0  0  0  0  0  0  0  0  0
   39.6053   23.4224   41.9174 H   0  0  0  0  0  0  0  0  0  0  0  0
   38.8791   24.5407   43.1085 H   0  0  0  0  0  0  0  0  0  0  0  0
   42.3212   27.4649   38.6403 H   0  0  0  0  0  0  0  0  0  0  0  0
   40.6693   27.1709   38.1040 H   0  0  0  0  0  0  0  0  0  0  0  0
   42.1755   29.7273   38.2903 H   0  0  0  0  0  0  0  0  0  0  0  0
   40.7038   29.4080   37.3783 H   0  0  0  0  0  0  0  0  0  0  0  0
   41.0431   30.5286   40.0700 H   0  0  0  0  0  0  0  0  0  0  0  0
   39.5823   30.5100   39.0583 H   0  0  0  0  0  0  0  0  0  0  0  0
   38.8699   28.4576   39.9239 H   0  0  0  0  0  0  0  0  0  0  0  0
   40.2496   29.7377   42.1161 H   0  0  0  0  0  0  0  0  0  0  0  0
   35.3472   28.4646   42.9870 H   0  0  0  0  0  0  0  0  0  0  0  0
   39.2936   27.6403   44.1245 H   0  0  0  0  0  0  0  0  0  0  0  0
   36.7137   27.2802   44.8734 H   0  0  0  0  0  0  0  0  0  0  0  0
  1  6  2  0
  2  1  1  0
  2  3  2  0
  3  4  1  0
  4  5  2  0
  6  5  1  0
  7  1  1  0
  7 11  1  0
  8  7  1  0
  9  8  1  0
  9 10  1  0
 10 11  1  0
 12 16  1  0
 12  2  1  0
 13 12  1  0
 14 13  1  0
 14 15  1  0
 15 16  1  0
 16 17  1  0
 17 20  1  0
 18 22  1  0
 19 20  2  0
 19 18  1  0
 20 21  1  0
 21 22  2  0
  3 23  1  0
  5 24  1  0
  8 25  1  0
  8 26  1  0
  9 27  1  0
  9 28  1  0
 10 29  1  0
 10 30  1  0
 11 31  1  0
 11 32  1  0
 13 33  1  0
 13 34  1  0
 14 35  1  0
 14 36  1  0
 15 37  1  0
 15 38  1  0
 16 39  1  6
 17 40  1  0
 18 41  1  0
 21 42  1  0
 22 43  1  0
M  ISO  8  23  14  24  14  25  13  26  13  27  13  28  13  29  13  30  13
M  ISO  8  31  13  32  13  33  13  34  13  35  13  36  13  37  13  38  13
M  ISO  4  39  13  41   9  42  14  43  14
M  END
>  <minimizedAffinity>  (1) 
-4.60337687

>  <minimizedRMSD>  (1) 
5.12486029

$$$$
