
     RDKit          3D

 35 37  0  0  1  0  0  0  0  0999 V2000
   39.1630   28.1410   43.1870 C   0  0  0  0  0  0  0  0  0  0  0  0
   37.8460   27.6260   43.1320 C   0  0  0  0  0  0  0  0  0  0  0  0
   36.8790   28.3690   42.4580 C   0  0  0  0  0  0  0  0  0  0  0  0
   37.2520   29.5530   41.8860 N   0  0  0  0  0  0  0  0  0  0  0  0
   38.5280   30.0120   41.9610 C   0  0  0  0  0  0  0  0  0  0  0  0
   39.4780   29.3150   42.6050 N   0  0  0  0  0  0  0  0  0  0  0  0
   38.8050   31.2560   41.3300 N   0  0  0  0  0  0  0  0  0  0  0  0
   37.8320   31.9880   40.7390 C   0  0  0  0  0  0  0  0  0  0  0  0
   38.2830   33.1690   40.1770 C   0  0  0  0  0  0  0  0  0  0  0  0
   39.5910   33.6100   40.1850 C   0  0  0  0  0  0  0  0  0  0  0  0
   39.9290   34.6930   39.6550 O   0  0  0  0  0  0  0  0  0  0  0  0
   40.5060   32.8240   40.7950 N   0  0  0  0  0  0  0  0  0  0  0  0
   40.0940   31.6650   41.3530 C   0  0  0  0  0  0  0  0  0  0  0  0
   41.0030   30.9670   41.9110 O   0  0  0  0  0  0  0  0  0  0  0  0
   42.3880   33.3470   42.1970 N   0  0  0  0  0  0  0  0  0  0  0  0
   43.6880   32.7280   42.2700 C   0  0  0  0  0  0  0  0  0  0  0  0
   44.1250   32.4970   40.8380 C   0  0  0  0  0  0  0  0  0  0  0  0
   42.7940   32.1900   40.1810 C   0  0  0  0  0  0  0  0  0  0  0  0
   41.9000   33.2160   40.8470 C   0  0  1  0  0  0  0  0  0  0  0  0
   37.2910   34.0500   39.5010 C   0  0  0  0  0  0  0  0  0  0  0  0
   39.9436   27.5729   43.7142 H   0  0  0  0  0  0  0  0  0  0  0  0
   37.5931   26.6669   43.6076 H   0  0  0  0  0  0  0  0  0  0  0  0
   35.8411   28.0115   42.3880 H   0  0  0  0  0  0  0  0  0  0  0  0
   36.7786   31.6727   40.7083 H   0  0  0  0  0  0  0  0  0  0  0  0
   41.7419   32.8783   42.8480 H   0  0  0  0  0  0  0  0  0  0  0  0
   44.3987   33.3923   42.7835 H   0  0  0  0  0  0  0  0  0  0  0  0
   43.6529   31.7856   42.8362 H   0  0  0  0  0  0  0  0  0  0  0  0
   44.5915   33.3952   40.4072 H   0  0  0  0  0  0  0  0  0  0  0  0
   44.8855   31.7119   40.7149 H   0  0  0  0  0  0  0  0  0  0  0  0
   42.8373   32.3381   39.0919 H   0  0  0  0  0  0  0  0  0  0  0  0
   42.4581   31.1494   40.3011 H   0  0  0  0  0  0  0  0  0  0  0  0
   41.9378   34.1841   40.3261 H   0  0  0  0  0  0  0  0  0  0  0  0
   36.6947   34.5796   40.2586 H   0  0  0  0  0  0  0  0  0  0  0  0
   37.8191   34.7822   38.8725 H   0  0  0  0  0  0  0  0  0  0  0  0
   36.6263   33.4391   38.8725 H   0  0  0  0  0  0  0  0  0  0  0  0
  2  1  2  0
  3  2  1  0
  4  5  1  0
  4  3  2  0
  5  6  2  0
  6  1  1  0
  7 13  1  0
  7  5  1  0
  8  7  1  0
  9 10  1  0
  9  8  2  0
 10 12  1  0
 11 10  2  0
 12 19  1  0
 12 13  1  0
 13 14  2  0
 15 16  1  0
 17 16  1  0
 18 17  1  0
 19 18  1  0
 19 15  1  0
 20  9  1  0
  1 21  1  0
  2 22  1  0
  3 23  1  0
  8 24  1  0
 15 25  1  0
 16 26  1  0
 16 27  1  0
 17 28  1  0
 17 29  1  0
 18 30  1  0
 18 31  1  0
 19 32  1  6
 20 33  1  0
 20 34  1  0
 20 35  1  0
M  ISO  8  21  14  22  14  23  14  24  14  25   5  26  13  27  13  28  13
M  ISO  7  29  13  30  13  31  13  32  13  33   8  34   8  35   8
M  END
>  <minimizedAffinity>  (1) 
-5.46310949

>  <minimizedRMSD>  (1) 
0.9359622

$$$$
