
     RDKit          3D

 31 33  0  0  0  0  0  0  0  0999 V2000
   38.8180   30.8230   41.6670 C   0  0  0  0  0  0  0  0  0  0  0  0
   37.9260   31.5220   40.9600 N   0  0  0  0  0  0  0  0  0  0  0  0
   36.6810   31.1480   40.7110 C   0  0  0  0  0  0  0  0  0  0  0  0
   36.2160   30.0060   41.1630 N   0  0  0  0  0  0  0  0  0  0  0  0
   37.0100   29.1980   41.8930 C   0  0  0  0  0  0  0  0  0  0  0  0
   36.5290   27.9940   42.3750 C   0  0  0  0  0  0  0  0  0  0  0  0
   37.3240   27.1630   43.1180 C   0  0  0  0  0  0  0  0  0  0  0  0
   38.6330   27.5670   43.3750 C   0  0  0  0  0  0  0  0  0  0  0  0
   39.0490   28.7810   42.8650 C   0  0  0  0  0  0  0  0  0  0  0  0
   38.2990   29.6340   42.1260 C   0  0  0  0  0  0  0  0  0  0  0  0
   41.8480   32.6500   41.0150 C   0  0  0  0  0  0  0  0  0  0  0  0
   42.7550   32.3690   42.0250 C   0  0  0  0  0  0  0  0  0  0  0  0
   42.3150   31.4950   43.0060 C   0  0  0  0  0  0  0  0  0  0  0  0
   41.0650   31.0080   42.8860 N   0  0  0  0  0  0  0  0  0  0  0  0
   40.1780   31.2670   41.9220 C   0  0  0  0  0  0  0  0  0  0  0  0
   40.6390   32.1000   41.0150 N   0  0  0  0  0  0  0  0  0  0  0  0
   43.0040   31.0510   44.1060 O   0  0  0  0  0  0  0  0  0  0  0  0
   43.5700   29.8020   44.3210 C   0  0  0  0  0  0  0  0  0  0  0  0
   44.0280   29.5670   45.7480 C   0  0  0  0  0  0  0  0  0  0  0  0
   36.0266   31.8030   40.1171 H   0  0  0  0  0  0  0  0  0  0  0  0
   35.4916   27.6996   42.1580 H   0  0  0  0  0  0  0  0  0  0  0  0
   36.9412   26.2054   43.5006 H   0  0  0  0  0  0  0  0  0  0  0  0
   39.3143   26.9376   43.9664 H   0  0  0  0  0  0  0  0  0  0  0  0
   40.0848   29.0835   43.0783 H   0  0  0  0  0  0  0  0  0  0  0  0
   42.1329   33.3365   40.2041 H   0  0  0  0  0  0  0  0  0  0  0  0
   43.7615   32.8123   42.0463 H   0  0  0  0  0  0  0  0  0  0  0  0
   42.8226   29.0358   44.0674 H   0  0  0  0  0  0  0  0  0  0  0  0
   44.4670   29.7468   43.6867 H   0  0  0  0  0  0  0  0  0  0  0  0
   43.2707   29.9556   46.4448 H   0  0  0  0  0  0  0  0  0  0  0  0
   44.1627   28.4884   45.9170 H   0  0  0  0  0  0  0  0  0  0  0  0
   44.9827   30.0866   45.9170 H   0  0  0  0  0  0  0  0  0  0  0  0
  1 15  1  0
  1 10  1  0
  2  1  2  0
  3  2  1  0
  3  4  2  0
  4  5  1  0
  5 10  2  0
  5  6  1  0
  6  7  2  0
  7  8  1  0
  9  8  2  0
 10  9  1  0
 11 12  2  0
 12 13  1  0
 13 17  1  0
 14 13  2  0
 15 14  1  0
 16 11  1  0
 16 15  2  0
 17 18  1  0
 18 19  1  0
  3 20  1  0
  6 21  1  0
  7 22  1  0
  8 23  1  0
  9 24  1  0
 11 25  1  0
 12 26  1  0
 18 27  1  0
 18 28  1  0
 19 29  1  0
 19 30  1  0
 19 31  1  0
M  ISO  8  20  14  21  14  22  14  23  14  24  14  25  14  26  14  27   8
M  ISO  4  28   8  29   8  30   8  31   8
M  END
>  <minimizedAffinity>  (1) 
-4.98485279

>  <minimizedRMSD>  (1) 
5.60366392

$$$$
