
     RDKit          3D

 28 30  0  0  0  0  0  0  0  0999 V2000
   39.3300   31.5620   41.0400 C   0  0  0  0  0  0  0  0  0  0  0  0
   39.2880   30.8660   42.2020 N   0  0  0  0  0  0  0  0  0  0  0  0
   38.4690   29.8760   42.4730 C   0  0  0  0  0  0  0  0  0  0  0  0
   37.5770   29.4660   41.5870 N   0  0  0  0  0  0  0  0  0  0  0  0
   37.5090   30.0710   40.3890 C   0  0  0  0  0  0  0  0  0  0  0  0
   36.5860   29.6490   39.4660 C   0  0  0  0  0  0  0  0  0  0  0  0
   36.4940   30.2500   38.2290 C   0  0  0  0  0  0  0  0  0  0  0  0
   37.3760   31.3090   37.9450 C   0  0  0  0  0  0  0  0  0  0  0  0
   38.2770   31.6840   38.9130 C   0  0  0  0  0  0  0  0  0  0  0  0
   38.3900   31.1100   40.1400 C   0  0  0  0  0  0  0  0  0  0  0  0
   42.5230   33.1910   40.9970 C   0  0  0  0  0  0  0  0  0  0  0  0
   42.3660   34.4660   40.4660 C   0  0  0  0  0  0  0  0  0  0  0  0
   41.0740   34.7930   40.0950 C   0  0  0  0  0  0  0  0  0  0  0  0
   40.1270   33.8680   40.2820 N   0  0  0  0  0  0  0  0  0  0  0  0
   40.2590   32.6510   40.7850 C   0  0  0  0  0  0  0  0  0  0  0  0
   41.4960   32.3680   41.1290 N   0  0  0  0  0  0  0  0  0  0  0  0
   40.6450   35.9770   39.5510 O   0  0  0  0  0  0  0  0  0  0  0  0
   39.7630   36.8780   40.1160 C   0  0  0  0  0  0  0  0  0  0  0  0
   38.5258   29.3796   43.4530 H   0  0  0  0  0  0  0  0  0  0  0  0
   35.9094   28.8188   39.7168 H   0  0  0  0  0  0  0  0  0  0  0  0
   35.7548   29.9126   37.4876 H   0  0  0  0  0  0  0  0  0  0  0  0
   37.3452   31.8236   36.9733 H   0  0  0  0  0  0  0  0  0  0  0  0
   38.9598   32.5133   38.6763 H   0  0  0  0  0  0  0  0  0  0  0  0
   43.5227   32.8594   41.3142 H   0  0  0  0  0  0  0  0  0  0  0  0
   43.2079   35.1642   40.3493 H   0  0  0  0  0  0  0  0  0  0  0  0
   39.8256   36.8140   41.2124 H   0  0  0  0  0  0  0  0  0  0  0  0
   40.0224   37.8969   39.7927 H   0  0  0  0  0  0  0  0  0  0  0  0
   38.7388   36.6404   39.7927 H   0  0  0  0  0  0  0  0  0  0  0  0
  1  2  2  0
  2  3  1  0
  4  3  2  0
  5  4  1  0
  6  5  2  0
  7  6  1  0
  8  7  2  0
  8  9  1  0
  9 10  2  0
 10  5  1  0
 10  1  1  0
 11 16  2  0
 12 11  1  0
 13 14  1  0
 13 12  2  0
 14 15  2  0
 15  1  1  0
 15 16  1  0
 17 13  1  0
 17 18  1  0
  3 19  1  0
  6 20  1  0
  7 21  1  0
  8 22  1  0
  9 23  1  0
 11 24  1  0
 12 25  1  0
 18 26  1  0
 18 27  1  0
 18 28  1  0
M  ISO  8  19  14  20  14  21  14  22  14  23  14  24  14  25  14  26   8
M  ISO  2  27   8  28   8
M  END
>  <minimizedAffinity>  (1) 
-4.69950771

>  <minimizedRMSD>  (1) 
5.61220932

$$$$
