
     RDKit          3D

 35 36  0  0  0  0  0  0  0  0999 V2000
   38.6900   27.7440   43.3560 C   0  0  0  0  0  0  0  0  0  0  0  0
   37.3700   27.2560   43.2110 C   0  0  0  0  0  0  0  0  0  0  0  0
   36.4650   27.9980   42.4340 C   0  0  0  0  0  0  0  0  0  0  0  0
   36.9160   29.1500   41.8620 N   0  0  0  0  0  0  0  0  0  0  0  0
   38.1960   29.5900   42.0220 C   0  0  0  0  0  0  0  0  0  0  0  0
   39.0640   28.9000   42.7550 N   0  0  0  0  0  0  0  0  0  0  0  0
   38.5470   30.8070   41.3750 N   0  0  0  0  0  0  0  0  0  0  0  0
   37.6310   31.5670   40.7530 C   0  0  0  0  0  0  0  0  0  0  0  0
   38.1410   32.7120   40.1790 C   0  0  0  0  0  0  0  0  0  0  0  0
   39.4510   33.0960   40.2050 C   0  0  0  0  0  0  0  0  0  0  0  0
   39.8410   34.1500   39.6610 O   0  0  0  0  0  0  0  0  0  0  0  0
   40.3350   32.2850   40.8500 N   0  0  0  0  0  0  0  0  0  0  0  0
   39.8660   31.1570   41.4230 C   0  0  0  0  0  0  0  0  0  0  0  0
   40.7000   30.4250   42.0130 O   0  0  0  0  0  0  0  0  0  0  0  0
   37.2140   33.6170   39.4700 C   0  0  0  0  0  0  0  0  0  0  0  0
   41.7450   32.6030   40.9340 C   0  0  0  0  0  0  0  0  0  0  0  0
   42.3610   32.0470   42.2160 C   0  0  0  0  0  0  0  0  0  0  0  0
   42.0210   34.0720   40.9260 C   0  0  0  0  0  0  0  0  0  0  0  0
   42.5250   31.9960   39.7770 C   0  0  0  0  0  0  0  0  0  0  0  0
   39.4173   27.1819   43.9602 H   0  0  0  0  0  0  0  0  0  0  0  0
   37.0598   26.3182   43.6950 H   0  0  0  0  0  0  0  0  0  0  0  0
   35.4276   27.6608   42.2920 H   0  0  0  0  0  0  0  0  0  0  0  0
   36.5652   31.2989   40.7056 H   0  0  0  0  0  0  0  0  0  0  0  0
   36.6276   34.1895   40.2037 H   0  0  0  0  0  0  0  0  0  0  0  0
   37.7894   34.3105   38.8391 H   0  0  0  0  0  0  0  0  0  0  0  0
   36.5346   33.0251   38.8391 H   0  0  0  0  0  0  0  0  0  0  0  0
   41.8626   32.4968   43.0873 H   0  0  0  0  0  0  0  0  0  0  0  0
   42.2303   30.9551   42.2420 H   0  0  0  0  0  0  0  0  0  0  0  0
   43.4338   32.2886   42.2420 H   0  0  0  0  0  0  0  0  0  0  0  0
   42.0897   34.4378   41.9611 H   0  0  0  0  0  0  0  0  0  0  0  0
   42.9709   34.2638   40.4055 H   0  0  0  0  0  0  0  0  0  0  0  0
   41.2055   34.5955   40.4055 H   0  0  0  0  0  0  0  0  0  0  0  0
   43.3353   31.3655   40.1718 H   0  0  0  0  0  0  0  0  0  0  0  0
   41.8502   31.3831   39.1614 H   0  0  0  0  0  0  0  0  0  0  0  0
   42.9534   32.8007   39.1614 H   0  0  0  0  0  0  0  0  0  0  0  0
  2  1  2  0
  3  2  1  0
  4  5  1  0
  4  3  2  0
  5  6  2  0
  6  1  1  0
  7 13  1  0
  7  5  1  0
  8  7  1  0
  9 10  1  0
  9  8  2  0
 10 12  1  0
 11 10  2  0
 12 16  1  0
 12 13  1  0
 13 14  2  0
 15  9  1  0
 16 17  1  0
 18 16  1  0
 19 16  1  0
  1 20  1  0
  2 21  1  0
  3 22  1  0
  8 23  1  0
 15 24  1  0
 15 25  1  0
 15 26  1  0
 17 27  1  0
 17 28  1  0
 17 29  1  0
 18 30  1  0
 18 31  1  0
 18 32  1  0
 19 33  1  0
 19 34  1  0
 19 35  1  0
M  ISO  8  20  14  21  14  22  14  23  14  24   8  25   8  26   8  27   8
M  ISO  8  28   8  29   8  30   8  31   8  32   8  33   8  34   8  35   8
M  END
>  <minimizedAffinity>  (1) 
-5.1550045

>  <minimizedRMSD>  (1) 
0.724176705

$$$$
