
     RDKit          3D

 47 51  0  0  1  0  0  0  0  0999 V2000
   39.0070   35.6470   40.0460 C   0  0  0  0  0  0  0  0  0  0  0  0
   40.2880   36.1150   40.3520 C   0  0  0  0  0  0  0  0  0  0  0  0
   41.2110   35.1530   40.7830 C   0  0  0  0  0  0  0  0  0  0  0  0
   40.7660   33.9020   40.8550 N   0  0  0  0  0  0  0  0  0  0  0  0
   39.5640   33.4280   40.5740 C   0  0  0  0  0  0  0  0  0  0  0  0
   38.7140   34.3610   40.1690 N   0  0  0  0  0  0  0  0  0  0  0  0
   38.9710   32.1040   40.6150 C   0  0  0  0  0  0  0  0  0  0  0  0
   38.9450   31.3300   41.7100 N   0  0  0  0  0  0  0  0  0  0  0  0
   38.4150   30.1210   41.7860 C   0  0  0  0  0  0  0  0  0  0  0  0
   37.8490   29.5660   40.7400 N   0  0  0  0  0  0  0  0  0  0  0  0
   37.8060   30.2360   39.5740 C   0  0  0  0  0  0  0  0  0  0  0  0
   37.2040   29.6530   38.4630 C   0  0  0  0  0  0  0  0  0  0  0  0
   37.1460   30.3100   37.2750 C   0  0  0  0  0  0  0  0  0  0  0  0
   37.7120   31.6040   37.1900 C   0  0  0  0  0  0  0  0  0  0  0  0
   38.2920   32.1190   38.3350 C   0  0  0  0  0  0  0  0  0  0  0  0
   38.3680   31.4870   39.5420 C   0  0  0  0  0  0  0  0  0  0  0  0
   42.4690   35.4270   41.1130 O   0  0  0  0  0  0  0  0  0  0  0  0
   42.9370   35.6370   42.4370 C   0  0  2  0  0  0  0  0  0  0  0  0
   42.3850   37.0120   42.8970 C   0  0  0  0  0  0  0  0  0  0  0  0
   44.4410   35.6790   42.4480 C   0  0  0  0  0  0  0  0  0  0  0  0
   44.9950   35.2450   43.7140 N   0  0  0  0  0  0  0  0  0  0  0  0
   44.6640   35.5540   44.9810 C   0  0  0  0  0  0  0  0  0  0  0  0
   45.5020   34.8720   45.8120 N   0  0  0  0  0  0  0  0  0  0  0  0
   46.3400   34.1490   45.0560 C   0  0  0  0  0  0  0  0  0  0  0  0
   47.3590   33.3040   45.4870 C   0  0  0  0  0  0  0  0  0  0  0  0
   48.0650   32.6880   44.4940 N   0  0  0  0  0  0  0  0  0  0  0  0
   47.7480   32.9230   43.2090 C   0  0  0  0  0  0  0  0  0  0  0  0
   46.7710   33.7310   42.7760 N   0  0  0  0  0  0  0  0  0  0  0  0
   46.0350   34.3730   43.7290 C   0  0  0  0  0  0  0  0  0  0  0  0
   47.6490   33.0950   46.8630 N   0  0  0  0  0  0  0  0  0  0  0  0
   38.2364   36.3518   39.7005 H   0  0  0  0  0  0  0  0  0  0  0  0
   40.5562   37.1778   40.2597 H   0  0  0  0  0  0  0  0  0  0  0  0
   38.4489   29.5728   42.7391 H   0  0  0  0  0  0  0  0  0  0  0  0
   36.7690   28.6462   38.5477 H   0  0  0  0  0  0  0  0  0  0  0  0
   36.6696   29.8461   36.3987 H   0  0  0  0  0  0  0  0  0  0  0  0
   37.6915   32.1771   36.2513 H   0  0  0  0  0  0  0  0  0  0  0  0
   38.7302   33.1257   38.2668 H   0  0  0  0  0  0  0  0  0  0  0  0
   42.6046   34.8263   43.1021 H   0  0  0  0  0  0  0  0  0  0  0  0
   42.3691   37.0516   43.9962 H   0  0  0  0  0  0  0  0  0  0  0  0
   43.0307   37.8143   42.5105 H   0  0  0  0  0  0  0  0  0  0  0  0
   41.3638   37.1450   42.5105 H   0  0  0  0  0  0  0  0  0  0  0  0
   44.8189   35.0201   41.6523 H   0  0  0  0  0  0  0  0  0  0  0  0
   44.7491   36.7225   42.2865 H   0  0  0  0  0  0  0  0  0  0  0  0
   43.8592   36.2365   45.2914 H   0  0  0  0  0  0  0  0  0  0  0  0
   48.3448   32.4050   42.4438 H   0  0  0  0  0  0  0  0  0  0  0  0
   48.4125   32.4606   47.1378 H   0  0  0  0  0  0  0  0  0  0  0  0
   47.0956   33.5779   47.5851 H   0  0  0  0  0  0  0  0  0  0  0  0
  1  6  2  0
  1  2  1  0
  2  3  2  0
  3  4  1  0
  3 17  1  0
  5  7  1  0
  5  4  2  0
  6  5  1  0
  7  8  2  0
  8  9  1  0
 10  9  2  0
 11 10  1  0
 12 11  2  0
 13 12  1  0
 14 13  2  0
 14 15  1  0
 15 16  2  0
 16 11  1  0
 16  7  1  0
 17 18  1  0
 18 20  1  0
 18 19  1  0
 20 21  1  0
 21 29  1  0
 21 22  1  0
 22 23  2  0
 24 25  2  0
 24 23  1  0
 25 30  1  0
 26 25  1  0
 27 26  2  0
 28 27  1  0
 28 29  2  0
 29 24  1  0
  1 31  1  0
  2 32  1  0
  9 33  1  0
 12 34  1  0
 13 35  1  0
 14 36  1  0
 15 37  1  0
 18 38  1  1
 19 39  1  0
 19 40  1  0
 19 41  1  0
 20 42  1  0
 20 43  1  0
 22 44  1  0
 27 45  1  0
 30 46  1  0
 30 47  1  0
M  ISO  8  31  14  32  14  33  14  34  14  35  14  36  14  37  14  38   8
M  ISO  7  39   8  40   8  41   8  42   8  43   8  44  14  45  14
M  END
>  <minimizedAffinity>  (1) 
-7.06332016

>  <minimizedRMSD>  (1) 
2.36114836

$$$$
