
     RDKit          3D

 48 51  0  0  1  0  0  0  0  0999 V2000
   38.7440   35.6370   39.9700 C   0  0  0  0  0  0  0  0  0  0  0  0
   40.1430   35.6920   39.9380 C   0  0  0  0  0  0  0  0  0  0  0  0
   40.8100   34.4590   39.9270 C   0  0  0  0  0  0  0  0  0  0  0  0
   40.0440   33.3710   39.9490 N   0  0  0  0  0  0  0  0  0  0  0  0
   38.7230   33.2990   39.9800 C   0  0  0  0  0  0  0  0  0  0  0  0
   38.1180   34.4750   39.9890 N   0  0  0  0  0  0  0  0  0  0  0  0
   37.7880   32.1760   40.0100 C   0  0  0  0  0  0  0  0  0  0  0  0
   37.2060   31.7170   41.1280 N   0  0  0  0  0  0  0  0  0  0  0  0
   36.3520   30.7030   41.1940 C   0  0  0  0  0  0  0  0  0  0  0  0
   36.0030   30.0500   40.1180 N   0  0  0  0  0  0  0  0  0  0  0  0
   36.5110   30.4020   38.9170 C   0  0  0  0  0  0  0  0  0  0  0  0
   36.1530   29.7240   37.7720 C   0  0  0  0  0  0  0  0  0  0  0  0
   36.6560   30.0680   36.5600 C   0  0  0  0  0  0  0  0  0  0  0  0
   37.5600   31.1380   36.4870 C   0  0  0  0  0  0  0  0  0  0  0  0
   37.8780   31.7780   37.6710 C   0  0  0  0  0  0  0  0  0  0  0  0
   37.3990   31.4670   38.8980 C   0  0  0  0  0  0  0  0  0  0  0  0
   42.1320   34.3310   39.8970 O   0  0  0  0  0  0  0  0  0  0  0  0
   42.9890   34.4030   41.0270 C   0  0  2  0  0  0  0  0  0  0  0  0
   42.8940   33.0260   41.7430 C   0  0  0  0  0  0  0  0  0  0  0  0
   42.5060   35.4730   41.9690 C   0  0  0  0  0  0  0  0  0  0  0  0
   43.5560   36.1990   42.6030 N   0  0  0  0  0  0  0  0  0  0  0  0
   44.8480   35.6330   42.5190 C   0  0  0  0  0  0  0  0  0  0  0  0
   45.3800   35.0580   43.7870 C   0  0  0  0  0  0  0  0  0  0  0  0
   44.6970   35.4920   44.9620 N   0  0  0  0  0  0  0  0  0  0  0  0
   44.1560   36.8140   44.9070 C   0  0  0  0  0  0  0  0  0  0  0  0
   43.2230   36.9630   43.7430 C   0  0  0  0  0  0  0  0  0  0  0  0
   38.1617   36.5702   39.9794 H   0  0  0  0  0  0  0  0  0  0  0  0
   40.6872   36.6478   39.9224 H   0  0  0  0  0  0  0  0  0  0  0  0
   35.9328   30.4088   42.1675 H   0  0  0  0  0  0  0  0  0  0  0  0
   35.4441   28.8858   37.8423 H   0  0  0  0  0  0  0  0  0  0  0  0
   36.3611   29.5193   35.6534 H   0  0  0  0  0  0  0  0  0  0  0  0
   37.9974   31.4546   35.5287 H   0  0  0  0  0  0  0  0  0  0  0  0
   38.5859   32.6177   37.6098 H   0  0  0  0  0  0  0  0  0  0  0  0
   44.0196   34.6387   40.7231 H   0  0  0  0  0  0  0  0  0  0  0  0
   42.9045   33.1777   42.8324 H   0  0  0  0  0  0  0  0  0  0  0  0
   41.9591   32.5249   41.4515 H   0  0  0  0  0  0  0  0  0  0  0  0
   43.7512   32.4013   41.4515 H   0  0  0  0  0  0  0  0  0  0  0  0
   41.8883   36.1831   41.3996 H   0  0  0  0  0  0  0  0  0  0  0  0
   41.9406   34.9669   42.7654 H   0  0  0  0  0  0  0  0  0  0  0  0
   44.8178   34.8291   41.7687 H   0  0  0  0  0  0  0  0  0  0  0  0
   45.5236   36.4601   42.2555 H   0  0  0  0  0  0  0  0  0  0  0  0
   45.3012   33.9624   43.7279 H   0  0  0  0  0  0  0  0  0  0  0  0
   46.4186   35.4083   43.8796 H   0  0  0  0  0  0  0  0  0  0  0  0
   43.9204   34.8385   45.1372 H   0  0  0  0  0  0  0  0  0  0  0  0
   43.6058   37.0168   45.8377 H   0  0  0  0  0  0  0  0  0  0  0  0
   44.9844   37.5277   44.7866 H   0  0  0  0  0  0  0  0  0  0  0  0
   43.2109   38.0233   43.4503 H   0  0  0  0  0  0  0  0  0  0  0  0
   42.2464   36.5901   44.0853 H   0  0  0  0  0  0  0  0  0  0  0  0
  1  6  2  0
  2  1  1  0
  3  2  2  0
  3  4  1  0
  4  5  2  0
  5  6  1  0
  5  7  1  0
  7  8  2  0
  8  9  1  0
 10  9  2  0
 11 10  1  0
 12 11  2  0
 13 12  1  0
 14 13  2  0
 14 15  1  0
 15 16  2  0
 16 11  1  0
 16  7  1  0
 17  3  1  0
 17 18  1  0
 18 19  1  0
 18 20  1  0
 20 21  1  0
 21 26  1  0
 22 21  1  0
 22 23  1  0
 23 24  1  0
 25 24  1  0
 26 25  1  0
  1 27  1  0
  2 28  1  0
  9 29  1  0
 12 30  1  0
 13 31  1  0
 14 32  1  0
 15 33  1  0
 18 34  1  6
 19 35  1  0
 19 36  1  0
 19 37  1  0
 20 38  1  0
 20 39  1  0
 22 40  1  0
 22 41  1  0
 23 42  1  0
 23 43  1  0
 24 44  1  0
 25 45  1  0
 25 46  1  0
 26 47  1  0
 26 48  1  0
M  ISO  8  27  14  28  14  29  14  30  14  31  14  32  14  33  14  34   8
M  ISO  8  35   8  36   8  37   8  38   8  39   8  40  13  41  13  42  13
M  ISO  6  43  13  44   5  45  13  46  13  47  13  48  13
M  END
>  <minimizedAffinity>  (1) 
-6.66405916

>  <minimizedRMSD>  (1) 
3.33217716

$$$$
