
     RDKit          3D

 47 50  0  0  1  0  0  0  0  0999 V2000
   38.7410   35.6560   40.0020 C   0  0  0  0  0  0  0  0  0  0  0  0
   40.0240   36.1400   40.2560 C   0  0  0  0  0  0  0  0  0  0  0  0
   40.9810   35.1980   40.6490 C   0  0  0  0  0  0  0  0  0  0  0  0
   40.5610   33.9400   40.7380 N   0  0  0  0  0  0  0  0  0  0  0  0
   39.3530   33.4520   40.5030 C   0  0  0  0  0  0  0  0  0  0  0  0
   38.4750   34.3640   40.1350 N   0  0  0  0  0  0  0  0  0  0  0  0
   38.7880   32.1120   40.5680 C   0  0  0  0  0  0  0  0  0  0  0  0
   38.7530   31.3680   41.6820 N   0  0  0  0  0  0  0  0  0  0  0  0
   38.2470   30.1440   41.7770 C   0  0  0  0  0  0  0  0  0  0  0  0
   37.7220   29.5560   40.7370 N   0  0  0  0  0  0  0  0  0  0  0  0
   37.6850   30.1840   39.5400 C   0  0  0  0  0  0  0  0  0  0  0  0
   37.1290   29.5680   38.4380 C   0  0  0  0  0  0  0  0  0  0  0  0
   37.0830   30.1860   37.2340 C   0  0  0  0  0  0  0  0  0  0  0  0
   37.6230   31.4910   37.1290 C   0  0  0  0  0  0  0  0  0  0  0  0
   38.1620   32.0460   38.2710 C   0  0  0  0  0  0  0  0  0  0  0  0
   38.2240   31.4550   39.4920 C   0  0  0  0  0  0  0  0  0  0  0  0
   42.2480   35.4910   40.9300 O   0  0  0  0  0  0  0  0  0  0  0  0
   42.8010   35.5220   42.2360 C   0  0  2  0  0  0  0  0  0  0  0  0
   42.4120   36.8800   42.8650 C   0  0  0  0  0  0  0  0  0  0  0  0
   44.3030   35.4210   42.1590 C   0  0  0  0  0  0  0  0  0  0  0  0
   45.4970   32.6860   45.2180 C   0  0  0  0  0  0  0  0  0  0  0  0
   45.7240   34.0620   45.3130 C   0  0  0  0  0  0  0  0  0  0  0  0
   45.3200   34.9050   44.3020 C   0  0  0  0  0  0  0  0  0  0  0  0
   44.6890   34.3870   43.1870 C   0  0  0  0  0  0  0  0  0  0  0  0
   44.4520   33.0330   43.0650 C   0  0  0  0  0  0  0  0  0  0  0  0
   44.8590   32.1900   44.0860 C   0  0  0  0  0  0  0  0  0  0  0  0
   46.0200   31.6380   46.5200 S   0  0  0  0  0  0  0  0  0  0  0  0
   46.9840   32.3900   47.3980 O   0  0  0  0  0  0  0  0  0  0  0  0
   44.8460   31.2460   47.3990 O   0  0  0  0  0  0  0  0  0  0  0  0
   37.9461   36.3493   39.6899 H   0  0  0  0  0  0  0  0  0  0  0  0
   40.2708   37.2070   40.1527 H   0  0  0  0  0  0  0  0  0  0  0  0
   38.2706   29.6196   42.7436 H   0  0  0  0  0  0  0  0  0  0  0  0
   36.7146   28.5541   38.5394 H   0  0  0  0  0  0  0  0  0  0  0  0
   36.6378   29.6874   36.3603 H   0  0  0  0  0  0  0  0  0  0  0  0
   37.6130   32.0396   36.1756 H   0  0  0  0  0  0  0  0  0  0  0  0
   38.5798   33.0599   38.1847 H   0  0  0  0  0  0  0  0  0  0  0  0
   42.4231   34.6819   42.8372 H   0  0  0  0  0  0  0  0  0  0  0  0
   42.4359   36.7965   43.9616 H   0  0  0  0  0  0  0  0  0  0  0  0
   43.1251   37.6521   42.5404 H   0  0  0  0  0  0  0  0  0  0  0  0
   41.3983   37.1575   42.5404 H   0  0  0  0  0  0  0  0  0  0  0  0
   44.6160   35.1003   41.1544 H   0  0  0  0  0  0  0  0  0  0  0  0
   44.7881   36.3894   42.3512 H   0  0  0  0  0  0  0  0  0  0  0  0
   46.2280   34.4735   46.2000 H   0  0  0  0  0  0  0  0  0  0  0  0
   45.4990   35.9874   44.3816 H   0  0  0  0  0  0  0  0  0  0  0  0
   43.9491   32.6305   42.1733 H   0  0  0  0  0  0  0  0  0  0  0  0
   44.6743   31.1090   44.0000 H   0  0  0  0  0  0  0  0  0  0  0  0
   46.5924   30.5242   45.9644 H   0  0  0  0  0  0  0  0  0  0  0  0
  1  6  2  0
  1  2  1  0
  2  3  2  0
  3  4  1  0
  3 17  1  0
  5  7  1  0
  5  4  2  0
  6  5  1  0
  7  8  2  0
  8  9  1  0
 10  9  2  0
 11 10  1  0
 12 11  2  0
 13 12  1  0
 14 13  2  0
 14 15  1  0
 15 16  2  0
 16 11  1  0
 16  7  1  0
 17 18  1  0
 18 19  1  0
 20 18  1  0
 20 24  1  0
 21 22  2  0
 21 27  1  0
 23 22  1  0
 24 23  2  0
 25 24  1  0
 25 26  2  0
 26 21  1  0
 27 28  2  0
 27 29  2  0
  1 30  1  0
  2 31  1  0
  9 32  1  0
 12 33  1  0
 13 34  1  0
 14 35  1  0
 15 36  1  0
 18 37  1  1
 19 38  1  0
 19 39  1  0
 19 40  1  0
 20 41  1  0
 20 42  1  0
 22 43  1  0
 23 44  1  0
 25 45  1  0
 26 46  1  0
 27 47  1  0
M  ISO  8  30  14  31  14  32  14  33  14  34  14  35  14  36  14  37   8
M  ISO  8  38   8  39   8  40   8  41   8  42   8  43  14  44  14  45  14
M  ISO  2  46  14  47  11
M  END
>  <minimizedAffinity>  (1) 
-6.60998344

>  <minimizedRMSD>  (1) 
1.65068328

$$$$
