
     RDKit          3D

 42 45  0  0  1  0  0  0  0  0999 V2000
   38.7710   35.6450   39.9890 C   0  0  0  0  0  0  0  0  0  0  0  0
   40.0570   36.1250   40.2570 C   0  0  0  0  0  0  0  0  0  0  0  0
   40.9980   35.1690   40.6650 C   0  0  0  0  0  0  0  0  0  0  0  0
   40.5650   33.9150   40.7510 N   0  0  0  0  0  0  0  0  0  0  0  0
   39.3660   33.4270   40.5070 C   0  0  0  0  0  0  0  0  0  0  0  0
   38.4940   34.3560   40.1220 N   0  0  0  0  0  0  0  0  0  0  0  0
   38.7810   32.1030   40.5640 C   0  0  0  0  0  0  0  0  0  0  0  0
   38.7260   31.3610   41.6780 N   0  0  0  0  0  0  0  0  0  0  0  0
   38.1980   30.1440   41.7670 C   0  0  0  0  0  0  0  0  0  0  0  0
   37.6660   29.5610   40.7100 N   0  0  0  0  0  0  0  0  0  0  0  0
   37.6570   30.2020   39.5260 C   0  0  0  0  0  0  0  0  0  0  0  0
   37.1000   29.5970   38.4160 C   0  0  0  0  0  0  0  0  0  0  0  0
   37.0750   30.2140   37.2140 C   0  0  0  0  0  0  0  0  0  0  0  0
   37.6350   31.5070   37.1170 C   0  0  0  0  0  0  0  0  0  0  0  0
   38.1720   32.0490   38.2630 C   0  0  0  0  0  0  0  0  0  0  0  0
   38.2130   31.4560   39.4840 C   0  0  0  0  0  0  0  0  0  0  0  0
   42.2670   35.4510   40.9610 O   0  0  0  0  0  0  0  0  0  0  0  0
   42.7810   35.5610   42.2760 C   0  0  2  0  0  0  0  0  0  0  0  0
   42.3450   36.9270   42.8390 C   0  0  0  0  0  0  0  0  0  0  0  0
   44.2850   35.4770   42.2570 C   0  0  0  0  0  0  0  0  0  0  0  0
   44.7570   34.9510   43.5600 C   0  0  0  0  0  0  0  0  0  0  0  0
   45.0350   33.5820   43.4800 C   0  0  0  0  0  0  0  0  0  0  0  0
   45.4890   32.8640   44.5670 C   0  0  0  0  0  0  0  0  0  0  0  0
   45.6810   33.4760   45.7590 N   0  0  0  0  0  0  0  0  0  0  0  0
   45.4100   34.7930   45.8200 C   0  0  0  0  0  0  0  0  0  0  0  0
   44.9750   35.4740   44.7760 N   0  0  0  0  0  0  0  0  0  0  0  0
   37.9841   36.3423   39.6656 H   0  0  0  0  0  0  0  0  0  0  0  0
   40.3149   37.1894   40.1538 H   0  0  0  0  0  0  0  0  0  0  0  0
   38.2049   29.6174   42.7328 H   0  0  0  0  0  0  0  0  0  0  0  0
   36.6671   28.5904   38.5127 H   0  0  0  0  0  0  0  0  0  0  0  0
   36.6309   29.7229   36.3356 H   0  0  0  0  0  0  0  0  0  0  0  0
   37.6418   32.0582   36.1651 H   0  0  0  0  0  0  0  0  0  0  0  0
   38.6082   33.0556   38.1821 H   0  0  0  0  0  0  0  0  0  0  0  0
   42.3978   34.7418   42.9021 H   0  0  0  0  0  0  0  0  0  0  0  0
   42.3565   36.8911   43.9384 H   0  0  0  0  0  0  0  0  0  0  0  0
   43.0392   37.7058   42.4903 H   0  0  0  0  0  0  0  0  0  0  0  0
   41.3280   37.1596   42.4903 H   0  0  0  0  0  0  0  0  0  0  0  0
   44.6063   34.8029   41.4493 H   0  0  0  0  0  0  0  0  0  0  0  0
   44.7102   36.4767   42.0845 H   0  0  0  0  0  0  0  0  0  0  0  0
   44.8871   33.0627   42.5216 H   0  0  0  0  0  0  0  0  0  0  0  0
   45.6961   31.7885   44.4645 H   0  0  0  0  0  0  0  0  0  0  0  0
   45.5562   35.3208   46.7739 H   0  0  0  0  0  0  0  0  0  0  0  0
  1  6  2  0
  1  2  1  0
  2  3  2  0
  3  4  1  0
  3 17  1  0
  5  7  1  0
  5  4  2  0
  6  5  1  0
  7  8  2  0
  8  9  1  0
 10  9  2  0
 11 10  1  0
 12 11  2  0
 13 12  1  0
 14 13  2  0
 14 15  1  0
 15 16  2  0
 16 11  1  0
 16  7  1  0
 17 18  1  0
 18 19  1  0
 20 18  1  0
 20 21  1  0
 21 26  1  0
 22 21  2  0
 22 23  1  0
 23 24  2  0
 24 25  1  0
 26 25  2  0
  1 27  1  0
  2 28  1  0
  9 29  1  0
 12 30  1  0
 13 31  1  0
 14 32  1  0
 15 33  1  0
 18 34  1  1
 19 35  1  0
 19 36  1  0
 19 37  1  0
 20 38  1  0
 20 39  1  0
 22 40  1  0
 23 41  1  0
 25 42  1  0
M  ISO  8  27  14  28  14  29  14  30  14  31  14  32  14  33  14  34   8
M  ISO  8  35   8  36   8  37   8  38   8  39   8  40  14  41  14  42  14
M  END
>  <minimizedAffinity>  (1) 
-6.26494503

>  <minimizedRMSD>  (1) 
1.76262629

$$$$
