
     RDKit          3D

 26 27  0  0  0  0  0  0  0  0999 V2000
   38.6740   27.7570   43.3640 C   0  0  0  0  0  0  0  0  0  0  0  0
   37.3730   27.2520   43.1940 C   0  0  0  0  0  0  0  0  0  0  0  0
   36.4760   27.9850   42.4120 C   0  0  0  0  0  0  0  0  0  0  0  0
   36.9220   29.1420   41.8640 N   0  0  0  0  0  0  0  0  0  0  0  0
   38.1760   29.6080   42.0400 C   0  0  0  0  0  0  0  0  0  0  0  0
   39.0420   28.9170   42.7850 N   0  0  0  0  0  0  0  0  0  0  0  0
   38.5090   30.8320   41.4100 N   0  0  0  0  0  0  0  0  0  0  0  0
   37.6130   31.5630   40.7470 C   0  0  0  0  0  0  0  0  0  0  0  0
   38.1030   32.7270   40.1930 C   0  0  0  0  0  0  0  0  0  0  0  0
   39.4020   33.1490   40.2860 C   0  0  0  0  0  0  0  0  0  0  0  0
   39.8140   34.2220   39.7640 O   0  0  0  0  0  0  0  0  0  0  0  0
   40.2750   32.3640   40.9730 N   0  0  0  0  0  0  0  0  0  0  0  0
   39.8160   31.2150   41.5270 C   0  0  0  0  0  0  0  0  0  0  0  0
   40.6600   30.5200   42.1550 O   0  0  0  0  0  0  0  0  0  0  0  0
   37.1850   33.6210   39.4290 C   0  0  0  0  0  0  0  0  0  0  0  0
   41.6680   32.7390   41.1180 C   0  0  0  0  0  0  0  0  0  0  0  0
   39.3988   27.1998   43.9757 H   0  0  0  0  0  0  0  0  0  0  0  0
   37.0691   26.3050   43.6640 H   0  0  0  0  0  0  0  0  0  0  0  0
   35.4460   27.6359   42.2472 H   0  0  0  0  0  0  0  0  0  0  0  0
   36.5601   31.2601   40.6490 H   0  0  0  0  0  0  0  0  0  0  0  0
   36.5789   34.2113   40.1320 H   0  0  0  0  0  0  0  0  0  0  0  0
   37.7762   34.2989   38.7958 H   0  0  0  0  0  0  0  0  0  0  0  0
   36.5230   33.0120   38.7958 H   0  0  0  0  0  0  0  0  0  0  0  0
   41.9201   32.8069   42.1866 H   0  0  0  0  0  0  0  0  0  0  0  0
   42.3038   31.9800   40.6387 H   0  0  0  0  0  0  0  0  0  0  0  0
   41.8369   33.7146   40.6387 H   0  0  0  0  0  0  0  0  0  0  0  0
  2  1  2  0
  3  2  1  0
  4  5  1  0
  4  3  2  0
  5  6  2  0
  6  1  1  0
  7 13  1  0
  7  5  1  0
  8  7  1  0
  9 10  1  0
  9  8  2  0
 10 12  1  0
 11 10  2  0
 12 16  1  0
 12 13  1  0
 13 14  2  0
 15  9  1  0
  1 17  1  0
  2 18  1  0
  3 19  1  0
  8 20  1  0
 15 21  1  0
 15 22  1  0
 15 23  1  0
 16 24  1  0
 16 25  1  0
 16 26  1  0
M  ISO  8  17  14  18  14  19  14  20  14  21   8  22   8  23   8  24   8
M  ISO  2  25   8  26   8
M  END
>  <minimizedAffinity>  (1) 
-4.90924311

>  <minimizedRMSD>  (1) 
0.436892033

$$$$
