
     RDKit          3D

 36 38  0  0  1  0  0  0  0  0999 V2000
   38.6050   35.5340   39.9750 C   0  0  0  0  0  0  0  0  0  0  0  0
   40.0010   35.6010   40.0120 C   0  0  0  0  0  0  0  0  0  0  0  0
   40.6760   34.3730   40.0600 C   0  0  0  0  0  0  0  0  0  0  0  0
   39.9150   33.2830   40.0650 N   0  0  0  0  0  0  0  0  0  0  0  0
   38.5940   33.1950   40.0300 C   0  0  0  0  0  0  0  0  0  0  0  0
   37.9860   34.3580   39.9860 N   0  0  0  0  0  0  0  0  0  0  0  0
   37.6700   32.0710   40.0320 C   0  0  0  0  0  0  0  0  0  0  0  0
   37.0740   31.5980   41.1350 N   0  0  0  0  0  0  0  0  0  0  0  0
   36.2230   30.5690   41.1740 C   0  0  0  0  0  0  0  0  0  0  0  0
   35.9000   29.9210   40.0700 N   0  0  0  0  0  0  0  0  0  0  0  0
   36.4320   30.2970   38.8930 C   0  0  0  0  0  0  0  0  0  0  0  0
   36.0980   29.6260   37.7350 C   0  0  0  0  0  0  0  0  0  0  0  0
   36.6160   29.9840   36.5420 C   0  0  0  0  0  0  0  0  0  0  0  0
   37.5070   31.0620   36.4940 C   0  0  0  0  0  0  0  0  0  0  0  0
   37.8040   31.6970   37.6880 C   0  0  0  0  0  0  0  0  0  0  0  0
   37.3020   31.3630   38.9050 C   0  0  0  0  0  0  0  0  0  0  0  0
   41.9990   34.2580   40.1000 O   0  0  0  0  0  0  0  0  0  0  0  0
   42.7480   33.8750   41.2440 C   0  0  2  0  0  0  0  0  0  0  0  0
   43.1980   35.1780   41.9530 C   0  0  0  0  0  0  0  0  0  0  0  0
   43.9620   33.0940   40.8210 C   0  0  0  0  0  0  0  0  0  0  0  0
   43.5030   32.0430   39.9330 N   0  0  0  0  0  0  0  0  0  0  0  0
   38.0147   36.4614   39.9365 H   0  0  0  0  0  0  0  0  0  0  0  0
   40.5383   36.5608   40.0039 H   0  0  0  0  0  0  0  0  0  0  0  0
   35.7872   30.2586   42.1351 H   0  0  0  0  0  0  0  0  0  0  0  0
   35.3948   28.7816   37.7854 H   0  0  0  0  0  0  0  0  0  0  0  0
   36.3436   29.4397   35.6257 H   0  0  0  0  0  0  0  0  0  0  0  0
   37.9540   31.3920   35.5447 H   0  0  0  0  0  0  0  0  0  0  0  0
   38.5056   32.5432   37.6475 H   0  0  0  0  0  0  0  0  0  0  0  0
   42.1421   33.2466   41.9133 H   0  0  0  0  0  0  0  0  0  0  0  0
   43.1496   35.0378   43.0430 H   0  0  0  0  0  0  0  0  0  0  0  0
   44.2308   35.4172   41.6596 H   0  0  0  0  0  0  0  0  0  0  0  0
   42.5329   36.0036   41.6596 H   0  0  0  0  0  0  0  0  0  0  0  0
   44.6692   33.7514   40.2941 H   0  0  0  0  0  0  0  0  0  0  0  0
   44.4801   32.6711   41.6943 H   0  0  0  0  0  0  0  0  0  0  0  0
   43.1564   31.2494   40.4906 H   0  0  0  0  0  0  0  0  0  0  0  0
   42.7426   32.4032   39.3389 H   0  0  0  0  0  0  0  0  0  0  0  0
  1  6  2  0
  1  2  1  0
  2  3  2  0
  3  4  1  0
  3 17  1  0
  5  7  1  0
  5  4  2  0
  6  5  1  0
  7  8  2  0
  8  9  1  0
 10  9  2  0
 11 16  2  0
 11 10  1  0
 12 11  1  0
 13 12  2  0
 14 13  1  0
 14 15  2  0
 15 16  1  0
 16  7  1  0
 17 18  1  0
 18 19  1  0
 20 18  1  0
 21 20  1  0
  1 22  1  0
  2 23  1  0
  9 24  1  0
 12 25  1  0
 13 26  1  0
 14 27  1  0
 15 28  1  0
 18 29  1  1
 19 30  1  0
 19 31  1  0
 19 32  1  0
 20 33  1  0
 20 34  1  0
 21 35  1  0
 21 36  1  0
M  ISO  8  22  14  23  14  24  14  25  14  26  14  27  14  28  14  29   8
M  ISO  7  30   8  31   8  32   8  33   8  34   8  35   5  36   5
M  END
>  <minimizedAffinity>  (1) 
-5.02280712

>  <minimizedRMSD>  (1) 
0.073851414

$$$$
