
     RDKit          3D

 43 46  0  0  1  0  0  0  0  0999 V2000
   38.8850   35.4560   40.2060 C   0  0  0  0  0  0  0  0  0  0  0  0
   40.2460   35.7870   40.3330 C   0  0  0  0  0  0  0  0  0  0  0  0
   41.1330   34.7070   40.5420 C   0  0  0  0  0  0  0  0  0  0  0  0
   40.5890   33.5050   40.5930 N   0  0  0  0  0  0  0  0  0  0  0  0
   39.3250   33.1580   40.4790 C   0  0  0  0  0  0  0  0  0  0  0  0
   38.5060   34.1840   40.2840 N   0  0  0  0  0  0  0  0  0  0  0  0
   38.6240   31.8880   40.5230 C   0  0  0  0  0  0  0  0  0  0  0  0
   38.4610   31.1600   41.6490 N   0  0  0  0  0  0  0  0  0  0  0  0
   37.8300   30.0020   41.7230 C   0  0  0  0  0  0  0  0  0  0  0  0
   37.2910   29.4520   40.6530 N   0  0  0  0  0  0  0  0  0  0  0  0
   37.3840   30.0800   39.4610 C   0  0  0  0  0  0  0  0  0  0  0  0
   36.8200   29.5100   38.3260 C   0  0  0  0  0  0  0  0  0  0  0  0
   36.8970   30.1180   37.1180 C   0  0  0  0  0  0  0  0  0  0  0  0
   37.5750   31.3650   37.0340 C   0  0  0  0  0  0  0  0  0  0  0  0
   38.1080   31.8650   38.1980 C   0  0  0  0  0  0  0  0  0  0  0  0
   38.0490   31.2850   39.4220 C   0  0  0  0  0  0  0  0  0  0  0  0
   42.4280   34.9060   40.6780 O   0  0  0  0  0  0  0  0  0  0  0  0
   43.1620   34.7450   41.8780 C   0  0  2  0  0  0  0  0  0  0  0  0
   43.0770   36.1640   42.5670 C   0  0  0  0  0  0  0  0  0  0  0  0
   44.5900   34.4280   41.6320 C   0  0  0  0  0  0  0  0  0  0  0  0
   45.1860   34.0700   42.9130 N   0  0  0  0  0  0  0  0  0  0  0  0
   46.4250   34.4560   43.3150 C   0  0  0  0  0  0  0  0  0  0  0  0
   46.6840   33.9660   44.5410 N   0  0  0  0  0  0  0  0  0  0  0  0
   45.5710   33.2570   44.9020 C   0  0  0  0  0  0  0  0  0  0  0  0
   44.6740   33.3420   43.8810 N   0  0  0  0  0  0  0  0  0  0  0  0
   45.2250   32.4960   46.0970 C   0  0  0  0  0  0  0  0  0  0  0  0
   45.7710   31.4370   46.5070 O   0  0  0  0  0  0  0  0  0  0  0  0
   44.2000   32.8770   46.9550 O   0  0  0  0  0  0  0  0  0  0  0  0
   38.1373   36.2461   40.0428 H   0  0  0  0  0  0  0  0  0  0  0  0
   40.5997   36.8269   40.2731 H   0  0  0  0  0  0  0  0  0  0  0  0
   37.7530   29.4884   42.6927 H   0  0  0  0  0  0  0  0  0  0  0  0
   36.2999   28.5444   38.4104 H   0  0  0  0  0  0  0  0  0  0  0  0
   36.4468   29.6591   36.2254 H   0  0  0  0  0  0  0  0  0  0  0  0
   37.6687   31.9052   36.0804 H   0  0  0  0  0  0  0  0  0  0  0  0
   38.6333   32.8291   38.1299 H   0  0  0  0  0  0  0  0  0  0  0  0
   42.7566   33.9164   42.4772 H   0  0  0  0  0  0  0  0  0  0  0  0
   43.0843   36.0418   43.6602 H   0  0  0  0  0  0  0  0  0  0  0  0
   43.9403   36.7728   42.2603 H   0  0  0  0  0  0  0  0  0  0  0  0
   42.1472   36.6654   42.2603 H   0  0  0  0  0  0  0  0  0  0  0  0
   44.6721   33.5845   40.9307 H   0  0  0  0  0  0  0  0  0  0  0  0
   45.1085   35.2923   41.1914 H   0  0  0  0  0  0  0  0  0  0  0  0
   47.1148   35.0775   42.7251 H   0  0  0  0  0  0  0  0  0  0  0  0
   43.9970   32.3322   47.7563 H   0  0  0  0  0  0  0  0  0  0  0  0
  1  6  2  0
  1  2  1  0
  2  3  2  0
  3  4  1  0
  3 17  1  0
  5  7  1  0
  5  4  2  0
  6  5  1  0
  7  8  2  0
  8  9  1  0
 10  9  2  0
 11 10  1  0
 12 11  2  0
 13 12  1  0
 14 13  2  0
 14 15  1  0
 15 16  2  0
 16 11  1  0
 16  7  1  0
 17 18  1  0
 18 19  1  0
 20 18  1  0
 20 21  1  0
 21 22  1  0
 21 25  1  0
 22 23  2  0
 23 24  1  0
 24 26  1  0
 25 24  2  0
 26 27  2  0
 26 28  1  0
  1 29  1  0
  2 30  1  0
  9 31  1  0
 12 32  1  0
 13 33  1  0
 14 34  1  0
 15 35  1  0
 18 36  1  1
 19 37  1  0
 19 38  1  0
 19 39  1  0
 20 40  1  0
 20 41  1  0
 22 42  1  0
 28 43  1  0
M  ISO  8  29  14  30  14  31  14  32  14  33  14  34  14  35  14  36   8
M  ISO  7  37   8  38   8  39   8  40   8  41   8  42  14  43   3
M  END
>  <minimizedAffinity>  (1) 
-6.42572165

>  <minimizedRMSD>  (1) 
0.35554266

$$$$
