
     RDKit          3D

 46 49  0  0  1  0  0  0  0  0999 V2000
   38.8640   35.5290   40.1590 C   0  0  0  0  0  0  0  0  0  0  0  0
   40.2010   35.9090   40.2970 C   0  0  0  0  0  0  0  0  0  0  0  0
   41.1310   34.8720   40.5370 C   0  0  0  0  0  0  0  0  0  0  0  0
   40.6310   33.6530   40.6030 N   0  0  0  0  0  0  0  0  0  0  0  0
   39.3930   33.2470   40.4810 C   0  0  0  0  0  0  0  0  0  0  0  0
   38.5300   34.2450   40.2550 N   0  0  0  0  0  0  0  0  0  0  0  0
   38.7390   31.9560   40.5390 C   0  0  0  0  0  0  0  0  0  0  0  0
   38.6390   31.2200   41.6680 N   0  0  0  0  0  0  0  0  0  0  0  0
   38.0490   30.0390   41.7590 C   0  0  0  0  0  0  0  0  0  0  0  0
   37.4940   29.4750   40.7060 N   0  0  0  0  0  0  0  0  0  0  0  0
   37.5250   30.1100   39.5080 C   0  0  0  0  0  0  0  0  0  0  0  0
   36.9440   29.5270   38.3960 C   0  0  0  0  0  0  0  0  0  0  0  0
   36.9600   30.1410   37.1890 C   0  0  0  0  0  0  0  0  0  0  0  0
   37.5880   31.4000   37.0880 C   0  0  0  0  0  0  0  0  0  0  0  0
   38.1440   31.9200   38.2350 C   0  0  0  0  0  0  0  0  0  0  0  0
   38.1480   31.3370   39.4570 C   0  0  0  0  0  0  0  0  0  0  0  0
   42.4170   35.1240   40.6850 O   0  0  0  0  0  0  0  0  0  0  0  0
   43.1500   34.9580   41.8850 C   0  0  2  0  0  0  0  0  0  0  0  0
   42.9200   36.3160   42.6590 C   0  0  0  0  0  0  0  0  0  0  0  0
   44.6030   34.7860   41.6440 C   0  0  0  0  0  0  0  0  0  0  0  0
   45.1880   34.2390   42.8580 N   0  0  0  0  0  0  0  0  0  0  0  0
   46.4020   34.5970   43.3640 C   0  0  0  0  0  0  0  0  0  0  0  0
   46.6470   33.9040   44.4980 N   0  0  0  0  0  0  0  0  0  0  0  0
   45.5560   33.1070   44.6840 C   0  0  0  0  0  0  0  0  0  0  0  0
   44.6870   33.3330   43.6700 N   0  0  0  0  0  0  0  0  0  0  0  0
   45.2990   32.1360   45.7840 C   0  0  0  0  0  0  0  0  0  0  0  0
   44.1520   31.2550   45.3360 C   0  0  0  0  0  0  0  0  0  0  0  0
   38.0905   36.2884   39.9717 H   0  0  0  0  0  0  0  0  0  0  0  0
   40.5140   36.9609   40.2227 H   0  0  0  0  0  0  0  0  0  0  0  0
   38.0216   29.5204   42.7287 H   0  0  0  0  0  0  0  0  0  0  0  0
   36.4591   28.5446   38.4942 H   0  0  0  0  0  0  0  0  0  0  0  0
   36.4953   29.6701   36.3102 H   0  0  0  0  0  0  0  0  0  0  0  0
   37.6316   31.9436   36.1327 H   0  0  0  0  0  0  0  0  0  0  0  0
   38.6313   32.9025   38.1507 H   0  0  0  0  0  0  0  0  0  0  0  0
   42.8197   34.0600   42.4276 H   0  0  0  0  0  0  0  0  0  0  0  0
   42.9515   36.1302   43.7427 H   0  0  0  0  0  0  0  0  0  0  0  0
   43.7097   37.0316   42.3866 H   0  0  0  0  0  0  0  0  0  0  0  0
   41.9387   36.7317   42.3866 H   0  0  0  0  0  0  0  0  0  0  0  0
   44.7647   34.0936   40.8047 H   0  0  0  0  0  0  0  0  0  0  0  0
   45.0694   35.7494   41.3903 H   0  0  0  0  0  0  0  0  0  0  0  0
   47.0803   35.3385   42.9166 H   0  0  0  0  0  0  0  0  0  0  0  0
   46.1956   31.5255   45.9664 H   0  0  0  0  0  0  0  0  0  0  0  0
   45.0511   32.6586   46.7197 H   0  0  0  0  0  0  0  0  0  0  0  0
   43.6309   30.8547   46.2182 H   0  0  0  0  0  0  0  0  0  0  0  0
   43.4488   31.8474   44.7322 H   0  0  0  0  0  0  0  0  0  0  0  0
   44.5430   30.4228   44.7322 H   0  0  0  0  0  0  0  0  0  0  0  0
  1  6  2  0
  1  2  1  0
  2  3  2  0
  3  4  1  0
  3 17  1  0
  5  7  1  0
  5  4  2  0
  6  5  1  0
  7  8  2  0
  8  9  1  0
 10  9  2  0
 11 10  1  0
 12 11  2  0
 13 12  1  0
 14 13  2  0
 14 15  1  0
 15 16  2  0
 16 11  1  0
 16  7  1  0
 17 18  1  0
 18 19  1  0
 20 18  1  0
 20 21  1  0
 21 22  1  0
 21 25  1  0
 22 23  2  0
 23 24  1  0
 24 26  1  0
 25 24  2  0
 27 26  1  0
  1 28  1  0
  2 29  1  0
  9 30  1  0
 12 31  1  0
 13 32  1  0
 14 33  1  0
 15 34  1  0
 18 35  1  1
 19 36  1  0
 19 37  1  0
 19 38  1  0
 20 39  1  0
 20 40  1  0
 22 41  1  0
 26 42  1  0
 26 43  1  0
 27 44  1  0
 27 45  1  0
 27 46  1  0
M  ISO  8  28  14  29  14  30  14  31  14  32  14  33  14  34  14  35   8
M  ISO  8  36   8  37   8  38   8  39   8  40   8  41  14  42   8  43   8
M  ISO  3  44   8  45   8  46   8
M  END
>  <minimizedAffinity>  (1) 
-6.03484535

>  <minimizedRMSD>  (1) 
0.279018641

$$$$
