
     RDKit          3D

 42 45  0  0  1  0  0  0  0  0999 V2000
   38.7750   35.5180   40.1310 C   0  0  0  0  0  0  0  0  0  0  0  0
   40.1230   35.8820   40.2680 C   0  0  0  0  0  0  0  0  0  0  0  0
   41.0410   34.8340   40.5010 C   0  0  0  0  0  0  0  0  0  0  0  0
   40.5270   33.6220   40.5620 N   0  0  0  0  0  0  0  0  0  0  0  0
   39.2830   33.2310   40.4410 C   0  0  0  0  0  0  0  0  0  0  0  0
   38.4310   34.2370   40.2220 N   0  0  0  0  0  0  0  0  0  0  0  0
   38.6190   31.9420   40.4950 C   0  0  0  0  0  0  0  0  0  0  0  0
   38.4860   31.2180   41.6280 N   0  0  0  0  0  0  0  0  0  0  0  0
   37.8870   30.0400   41.7140 C   0  0  0  0  0  0  0  0  0  0  0  0
   37.3550   29.4710   40.6510 N   0  0  0  0  0  0  0  0  0  0  0  0
   37.4200   30.0950   39.4480 C   0  0  0  0  0  0  0  0  0  0  0  0
   36.8650   29.5070   38.3270 C   0  0  0  0  0  0  0  0  0  0  0  0
   36.9160   30.1100   37.1160 C   0  0  0  0  0  0  0  0  0  0  0  0
   37.5540   31.3650   37.0210 C   0  0  0  0  0  0  0  0  0  0  0  0
   38.0830   31.8900   38.1770 C   0  0  0  0  0  0  0  0  0  0  0  0
   38.0520   31.3180   39.4030 C   0  0  0  0  0  0  0  0  0  0  0  0
   42.3270   35.0780   40.6460 O   0  0  0  0  0  0  0  0  0  0  0  0
   43.0650   34.9040   41.8390 C   0  0  2  0  0  0  0  0  0  0  0  0
   42.8840   36.2800   42.5980 C   0  0  0  0  0  0  0  0  0  0  0  0
   44.5110   34.6880   41.5930 C   0  0  0  0  0  0  0  0  0  0  0  0
   45.0960   34.2020   42.8380 N   0  0  0  0  0  0  0  0  0  0  0  0
   46.2490   34.6770   43.3800 C   0  0  0  0  0  0  0  0  0  0  0  0
   46.5170   34.0240   44.5260 N   0  0  0  0  0  0  0  0  0  0  0  0
   45.5020   33.1250   44.6930 C   0  0  0  0  0  0  0  0  0  0  0  0
   44.6510   33.2580   43.6470 N   0  0  0  0  0  0  0  0  0  0  0  0
   45.3690   32.2120   45.7790 N   0  0  0  0  0  0  0  0  0  0  0  0
   38.0089   36.2863   39.9498 H   0  0  0  0  0  0  0  0  0  0  0  0
   40.4485   36.9304   40.1975 H   0  0  0  0  0  0  0  0  0  0  0  0
   37.8327   29.5292   42.6867 H   0  0  0  0  0  0  0  0  0  0  0  0
   36.3714   28.5284   38.4208 H   0  0  0  0  0  0  0  0  0  0  0  0
   36.4717   29.6341   36.2293 H   0  0  0  0  0  0  0  0  0  0  0  0
   37.6253   31.9008   36.0630 H   0  0  0  0  0  0  0  0  0  0  0  0
   38.5788   32.8687   38.0973 H   0  0  0  0  0  0  0  0  0  0  0  0
   42.7118   34.0208   42.3915 H   0  0  0  0  0  0  0  0  0  0  0  0
   42.9069   36.1056   43.6838 H   0  0  0  0  0  0  0  0  0  0  0  0
   43.7001   36.9628   42.3190 H   0  0  0  0  0  0  0  0  0  0  0  0
   41.9191   36.7285   42.3190 H   0  0  0  0  0  0  0  0  0  0  0  0
   44.6499   33.9427   40.7959 H   0  0  0  0  0  0  0  0  0  0  0  0
   44.9953   35.6229   41.2745 H   0  0  0  0  0  0  0  0  0  0  0  0
   46.8697   35.4752   42.9468 H   0  0  0  0  0  0  0  0  0  0  0  0
   44.5643   31.5701   45.8166 H   0  0  0  0  0  0  0  0  0  0  0  0
   46.0775   32.1940   46.5264 H   0  0  0  0  0  0  0  0  0  0  0  0
  1  6  2  0
  1  2  1  0
  2  3  2  0
  3  4  1  0
  3 17  1  0
  5  7  1  0
  5  4  2  0
  6  5  1  0
  7  8  2  0
  8  9  1  0
 10  9  2  0
 11 10  1  0
 12 11  2  0
 13 12  1  0
 14 13  2  0
 14 15  1  0
 15 16  2  0
 16 11  1  0
 16  7  1  0
 17 18  1  0
 18 19  1  0
 20 18  1  0
 20 21  1  0
 21 22  1  0
 21 25  1  0
 22 23  2  0
 23 24  1  0
 24 26  1  0
 25 24  2  0
  1 27  1  0
  2 28  1  0
  9 29  1  0
 12 30  1  0
 13 31  1  0
 14 32  1  0
 15 33  1  0
 18 34  1  1
 19 35  1  0
 19 36  1  0
 19 37  1  0
 20 38  1  0
 20 39  1  0
 22 40  1  0
 26 41  1  0
 26 42  1  0
M  ISO  8  27  14  28  14  29  14  30  14  31  14  32  14  33  14  34   8
M  ISO  6  35   8  36   8  37   8  38   8  39   8  40  14
M  END
>  <minimizedAffinity>  (1) 
-5.99529076

>  <minimizedRMSD>  (1) 
0.0115615865

$$$$
