
     RDKit          3D

 23 25  0  0  0  0  0  0  0  0999 V2000
   39.7460   26.1870   43.8990 C   0  0  0  0  0  0  0  0  0  0  0  0
   40.0510   25.2680   42.8850 C   0  0  0  0  0  0  0  0  0  0  0  0
   39.7270   25.6170   41.5700 C   0  0  0  0  0  0  0  0  0  0  0  0
   39.1360   26.8240   41.3570 N   0  0  0  0  0  0  0  0  0  0  0  0
   38.8540   27.6920   42.3650 C   0  0  0  0  0  0  0  0  0  0  0  0
   39.1640   27.3640   43.6390 N   0  0  0  0  0  0  0  0  0  0  0  0
   38.2380   28.8810   41.8810 N   0  0  0  0  0  0  0  0  0  0  0  0
   36.8810   28.9910   41.8200 C   0  0  0  0  0  0  0  0  0  0  0  0
   36.5400   30.1990   41.3330 N   0  0  0  0  0  0  0  0  0  0  0  0
   37.6740   30.8650   41.0800 C   0  0  0  0  0  0  0  0  0  0  0  0
   37.9840   32.1280   40.5790 C   0  0  0  0  0  0  0  0  0  0  0  0
   39.2840   32.4870   40.4510 N   0  0  0  0  0  0  0  0  0  0  0  0
   40.2820   31.6560   40.7970 C   0  0  0  0  0  0  0  0  0  0  0  0
   40.0060   30.4130   41.2910 N   0  0  0  0  0  0  0  0  0  0  0  0
   38.7170   30.0310   41.4280 C   0  0  0  0  0  0  0  0  0  0  0  0
   36.8550   32.9150   40.2490 N   0  0  0  0  0  0  0  0  0  0  0  0
   39.9926   25.9329   44.9404 H   0  0  0  0  0  0  0  0  0  0  0  0
   40.5292   24.3047   43.1160 H   0  0  0  0  0  0  0  0  0  0  0  0
   39.9434   24.9364   40.7333 H   0  0  0  0  0  0  0  0  0  0  0  0
   36.1697   28.2088   42.1236 H   0  0  0  0  0  0  0  0  0  0  0  0
   41.3272   31.9789   40.6816 H   0  0  0  0  0  0  0  0  0  0  0  0
   36.9819   33.8646   39.8709 H   0  0  0  0  0  0  0  0  0  0  0  0
   35.9064   32.5381   40.3870 H   0  0  0  0  0  0  0  0  0  0  0  0
  2  1  2  0
  3  2  1  0
  4  3  2  0
  4  5  1  0
  5  6  2  0
  6  1  1  0
  7  5  1  0
  8  7  1  0
  9  8  2  0
 10  9  1  0
 10 15  2  0
 11 10  1  0
 12 11  2  0
 12 13  1  0
 13 14  2  0
 14 15  1  0
 15  7  1  0
 16 11  1  0
  1 17  1  0
  2 18  1  0
  3 19  1  0
  8 20  1  0
 13 21  1  0
 16 22  1  0
 16 23  1  0
M  ISO  5  17  14  18  14  19  14  20  14  21  14
M  END
>  <minimizedAffinity>  (1) 
-4.83605146

>  <minimizedRMSD>  (1) 
3.86061692

$$$$
