
     RDKit          3D

 39 43  0  0  0  0  0  0  0  0999 V2000
   39.0190   27.0020   43.7950 C   0  0  0  0  0  0  0  0  0  0  0  0
   39.4240   26.0590   42.8360 C   0  0  0  0  0  0  0  0  0  0  0  0
   39.2780   26.3960   41.4770 C   0  0  0  0  0  0  0  0  0  0  0  0
   38.7520   27.6180   41.1750 N   0  0  0  0  0  0  0  0  0  0  0  0
   38.3720   28.5020   42.1250 C   0  0  0  0  0  0  0  0  0  0  0  0
   38.5060   28.1920   43.4430 N   0  0  0  0  0  0  0  0  0  0  0  0
   37.8490   29.7040   41.5610 N   0  0  0  0  0  0  0  0  0  0  0  0
   36.5240   29.8580   41.3400 C   0  0  0  0  0  0  0  0  0  0  0  0
   36.2850   31.0720   40.8030 N   0  0  0  0  0  0  0  0  0  0  0  0
   37.4720   31.7010   40.6810 C   0  0  0  0  0  0  0  0  0  0  0  0
   37.8840   32.9390   40.2110 C   0  0  0  0  0  0  0  0  0  0  0  0
   39.1890   33.2390   40.2400 N   0  0  0  0  0  0  0  0  0  0  0  0
   40.1240   32.3890   40.7060 C   0  0  0  0  0  0  0  0  0  0  0  0
   39.7250   31.1680   41.1700 N   0  0  0  0  0  0  0  0  0  0  0  0
   38.4180   30.8320   41.1570 C   0  0  0  0  0  0  0  0  0  0  0  0
   36.8570   33.7680   39.7380 N   0  0  0  0  0  0  0  0  0  0  0  0
   41.5640   32.5820   40.7980 C   0  0  0  0  0  0  0  0  0  0  0  0
   42.2490   32.4200   42.0110 C   0  0  0  0  0  0  0  0  0  0  0  0
   43.5990   32.5890   42.1600 C   0  0  0  0  0  0  0  0  0  0  0  0
   44.3790   32.9360   41.1010 C   0  0  0  0  0  0  0  0  0  0  0  0
   43.7610   33.1090   39.8850 C   0  0  0  0  0  0  0  0  0  0  0  0
   44.5590   33.4600   38.8200 C   0  0  0  0  0  0  0  0  0  0  0  0
   44.0270   33.6510   37.5850 C   0  0  0  0  0  0  0  0  0  0  0  0
   42.6540   33.4770   37.4480 C   0  0  0  0  0  0  0  0  0  0  0  0
   41.8990   33.1260   38.5420 C   0  0  0  0  0  0  0  0  0  0  0  0
   42.4040   32.9260   39.7910 C   0  0  0  0  0  0  0  0  0  0  0  0
   39.1249   26.7593   44.8626 H   0  0  0  0  0  0  0  0  0  0  0  0
   39.8423   25.0873   43.1375 H   0  0  0  0  0  0  0  0  0  0  0  0
   39.5786   25.6960   40.6835 H   0  0  0  0  0  0  0  0  0  0  0  0
   35.7547   29.1046   41.5649 H   0  0  0  0  0  0  0  0  0  0  0  0
   35.8804   33.4414   39.7595 H   0  0  0  0  0  0  0  0  0  0  0  0
   37.0791   34.7036   39.3691 H   0  0  0  0  0  0  0  0  0  0  0  0
   41.6640   32.1392   42.8992 H   0  0  0  0  0  0  0  0  0  0  0  0
   44.0589   32.4424   43.1484 H   0  0  0  0  0  0  0  0  0  0  0  0
   45.4646   33.0732   41.2134 H   0  0  0  0  0  0  0  0  0  0  0  0
   45.6411   33.5874   38.9709 H   0  0  0  0  0  0  0  0  0  0  0  0
   44.6566   33.9319   36.7279 H   0  0  0  0  0  0  0  0  0  0  0  0
   42.1742   33.6196   36.4685 H   0  0  0  0  0  0  0  0  0  0  0  0
   40.8158   32.9983   38.3992 H   0  0  0  0  0  0  0  0  0  0  0  0
  2  1  2  0
  3  2  1  0
  4  3  2  0
  4  5  1  0
  5  6  2  0
  6  1  1  0
  7  5  1  0
  8  7  1  0
  9  8  2  0
 10  9  1  0
 10 15  2  0
 11 12  2  0
 11 10  1  0
 12 13  1  0
 13 17  1  0
 13 14  2  0
 15 14  1  0
 15  7  1  0
 16 11  1  0
 17 18  2  0
 18 19  1  0
 20 19  2  0
 21 20  1  0
 22 21  2  0
 23 22  1  0
 24 23  2  0
 24 25  1  0
 25 26  2  0
 26 21  1  0
 26 17  1  0
  1 27  1  0
  2 28  1  0
  3 29  1  0
  8 30  1  0
 16 31  1  0
 16 32  1  0
 18 33  1  0
 19 34  1  0
 20 35  1  0
 22 36  1  0
 23 37  1  0
 24 38  1  0
 25 39  1  0
M  ISO  8  27  14  28  14  29  14  30  14  33  14  34  14  35  14  36  14
M  ISO  3  37  14  38  14  39  14
M  END
>  <minimizedAffinity>  (1) 
-6.6144824

>  <minimizedRMSD>  (1) 
0.911833823

$$$$
