
     RDKit          3D

 39 42  0  0  0  0  0  0  0  0999 V2000
   39.0850   27.0620   43.7370 C   0  0  0  0  0  0  0  0  0  0  0  0
   39.4210   26.0960   42.7880 C   0  0  0  0  0  0  0  0  0  0  0  0
   39.2220   26.4160   41.4330 C   0  0  0  0  0  0  0  0  0  0  0  0
   38.7150   27.6430   41.1310 N   0  0  0  0  0  0  0  0  0  0  0  0
   38.3990   28.5570   42.0860 C   0  0  0  0  0  0  0  0  0  0  0  0
   38.5910   28.2520   43.3940 N   0  0  0  0  0  0  0  0  0  0  0  0
   37.8880   29.7590   41.5280 N   0  0  0  0  0  0  0  0  0  0  0  0
   36.5510   29.9290   41.3640 C   0  0  0  0  0  0  0  0  0  0  0  0
   36.3050   31.1400   40.8210 N   0  0  0  0  0  0  0  0  0  0  0  0
   37.4980   31.7430   40.6390 C   0  0  0  0  0  0  0  0  0  0  0  0
   37.9060   32.9750   40.1300 C   0  0  0  0  0  0  0  0  0  0  0  0
   39.2310   33.2590   40.0960 N   0  0  0  0  0  0  0  0  0  0  0  0
   40.1520   32.3980   40.5330 C   0  0  0  0  0  0  0  0  0  0  0  0
   39.7790   31.1830   41.0360 N   0  0  0  0  0  0  0  0  0  0  0  0
   38.4630   30.8630   41.0870 C   0  0  0  0  0  0  0  0  0  0  0  0
   36.8560   33.8080   39.6980 N   0  0  0  0  0  0  0  0  0  0  0  0
   41.5820   32.8030   40.4530 C   0  0  0  0  0  0  0  0  0  0  0  0
   41.6280   34.2630   40.0970 C   0  0  0  0  0  0  0  0  0  0  0  0
   42.2550   35.1040   41.1850 C   0  0  0  0  0  0  0  0  0  0  0  0
   43.6150   34.5440   41.4480 C   0  0  0  0  0  0  0  0  0  0  0  0
   43.4800   33.1960   42.0630 C   0  0  0  0  0  0  0  0  0  0  0  0
   42.2060   32.4720   41.7660 C   0  0  0  0  0  0  0  0  0  0  0  0
   39.2325   26.8344   44.8030 H   0  0  0  0  0  0  0  0  0  0  0  0
   39.8271   25.1190   43.0889 H   0  0  0  0  0  0  0  0  0  0  0  0
   39.4690   25.6953   40.6396 H   0  0  0  0  0  0  0  0  0  0  0  0
   35.7824   29.1897   41.6336 H   0  0  0  0  0  0  0  0  0  0  0  0
   37.0639   34.7380   39.3071 H   0  0  0  0  0  0  0  0  0  0  0  0
   35.8801   33.4873   39.7729 H   0  0  0  0  0  0  0  0  0  0  0  0
   42.1517   32.2719   39.6762 H   0  0  0  0  0  0  0  0  0  0  0  0
   42.2160   34.3831   39.1752 H   0  0  0  0  0  0  0  0  0  0  0  0
   40.5919   34.6074   39.9632 H   0  0  0  0  0  0  0  0  0  0  0  0
   42.3357   36.1498   40.8536 H   0  0  0  0  0  0  0  0  0  0  0  0
   41.6410   35.0830   42.0974 H   0  0  0  0  0  0  0  0  0  0  0  0
   44.1684   34.4622   40.5009 H   0  0  0  0  0  0  0  0  0  0  0  0
   44.1617   35.2089   42.1328 H   0  0  0  0  0  0  0  0  0  0  0  0
   44.3134   32.5751   41.7025 H   0  0  0  0  0  0  0  0  0  0  0  0
   43.4843   33.3610   43.1505 H   0  0  0  0  0  0  0  0  0  0  0  0
   41.4828   32.7158   42.5582 H   0  0  0  0  0  0  0  0  0  0  0  0
   42.4638   31.4035   41.7221 H   0  0  0  0  0  0  0  0  0  0  0  0
  2  1  2  0
  3  2  1  0
  4  3  2  0
  4  5  1  0
  5  6  2  0
  6  1  1  0
  7  5  1  0
  8  7  1  0
  9  8  2  0
 10  9  1  0
 10 15  2  0
 11 10  1  0
 12 11  2  0
 12 13  1  0
 13 14  2  0
 14 15  1  0
 15  7  1  0
 16 11  1  0
 17 13  1  0
 17 22  1  0
 18 17  1  0
 18 19  1  0
 19 20  1  0
 20 21  1  0
 22 21  1  0
  1 23  1  0
  2 24  1  0
  3 25  1  0
  8 26  1  0
 16 27  1  0
 16 28  1  0
 17 29  1  0
 18 30  1  0
 18 31  1  0
 19 32  1  0
 19 33  1  0
 20 34  1  0
 20 35  1  0
 21 36  1  0
 21 37  1  0
 22 38  1  0
 22 39  1  0
M  ISO  8  23  14  24  14  25  14  26  14  29  13  30  13  31  13  32  13
M  ISO  7  33  13  34  13  35  13  36  13  37  13  38  13  39  13
M  END
>  <minimizedAffinity>  (1) 
-6.20488834

>  <minimizedRMSD>  (1) 
1.01075566

$$$$
