
     RDKit          3D

 29 32  0  0  0  0  0  0  0  0999 V2000
   38.6990   27.3330   43.8170 C   0  0  0  0  0  0  0  0  0  0  0  0
   39.1640   26.3700   42.8940 C   0  0  0  0  0  0  0  0  0  0  0  0
   39.1270   26.6850   41.5330 C   0  0  0  0  0  0  0  0  0  0  0  0
   38.6410   27.9120   41.1840 N   0  0  0  0  0  0  0  0  0  0  0  0
   38.2000   28.8190   42.1060 C   0  0  0  0  0  0  0  0  0  0  0  0
   38.2290   28.5300   43.4140 N   0  0  0  0  0  0  0  0  0  0  0  0
   37.7470   30.0120   41.4720 N   0  0  0  0  0  0  0  0  0  0  0  0
   36.4430   30.1760   41.1220 C   0  0  0  0  0  0  0  0  0  0  0  0
   36.2690   31.3790   40.5430 N   0  0  0  0  0  0  0  0  0  0  0  0
   37.4670   31.9980   40.5160 C   0  0  0  0  0  0  0  0  0  0  0  0
   37.9210   33.2260   40.0570 C   0  0  0  0  0  0  0  0  0  0  0  0
   39.2440   33.5260   40.2010 N   0  0  0  0  0  0  0  0  0  0  0  0
   40.1020   32.6730   40.7670 C   0  0  0  0  0  0  0  0  0  0  0  0
   39.6790   31.4570   41.2270 N   0  0  0  0  0  0  0  0  0  0  0  0
   38.3670   31.1290   41.0990 C   0  0  0  0  0  0  0  0  0  0  0  0
   36.9270   34.0370   39.4820 N   0  0  0  0  0  0  0  0  0  0  0  0
   41.4750   33.0290   40.8960 N   0  0  0  0  0  0  0  0  0  0  0  0
   41.9070   34.2990   40.6720 C   0  0  0  0  0  0  0  0  0  0  0  0
   43.2480   34.4010   40.8530 N   0  0  0  0  0  0  0  0  0  0  0  0
   43.6400   33.1430   41.2020 C   0  0  0  0  0  0  0  0  0  0  0  0
   42.5490   32.3260   41.2210 N   0  0  0  0  0  0  0  0  0  0  0  0
   38.7211   27.1000   44.8918 H   0  0  0  0  0  0  0  0  0  0  0  0
   39.5454   25.3972   43.2377 H   0  0  0  0  0  0  0  0  0  0  0  0
   39.4761   25.9715   40.7720 H   0  0  0  0  0  0  0  0  0  0  0  0
   35.6474   29.4347   41.2876 H   0  0  0  0  0  0  0  0  0  0  0  0
   35.9550   33.7005   39.4285 H   0  0  0  0  0  0  0  0  0  0  0  0
   37.1707   34.9677   39.1142 H   0  0  0  0  0  0  0  0  0  0  0  0
   41.2539   35.1352   40.3817 H   0  0  0  0  0  0  0  0  0  0  0  0
   44.6712   32.8363   41.4315 H   0  0  0  0  0  0  0  0  0  0  0  0
  2  1  2  0
  3  2  1  0
  4  3  2  0
  4  5  1  0
  5  6  2  0
  6  1  1  0
  7  5  1  0
  8  7  1  0
  9  8  2  0
 10  9  1  0
 10 15  2  0
 11 12  2  0
 11 10  1  0
 12 13  1  0
 13 17  1  0
 13 14  2  0
 15 14  1  0
 15  7  1  0
 16 11  1  0
 17 21  1  0
 18 19  2  0
 18 17  1  0
 19 20  1  0
 20 21  2  0
  1 22  1  0
  2 23  1  0
  3 24  1  0
  8 25  1  0
 16 26  1  0
 16 27  1  0
 18 28  1  0
 20 29  1  0
M  ISO  6  22  14  23  14  24  14  25  14  28  14  29  14
M  END
>  <minimizedAffinity>  (1) 
-6.20377731

>  <minimizedRMSD>  (1) 
1.24470592

$$$$
