
     RDKit          3D

 32 35  0  0  0  0  0  0  0  0999 V2000
   38.5960   27.2980   43.8420 C   0  0  0  0  0  0  0  0  0  0  0  0
   39.0660   26.3340   42.9490 C   0  0  0  0  0  0  0  0  0  0  0  0
   39.0620   26.6540   41.5920 C   0  0  0  0  0  0  0  0  0  0  0  0
   38.6020   27.8790   41.2150 N   0  0  0  0  0  0  0  0  0  0  0  0
   38.1520   28.7950   42.1090 C   0  0  0  0  0  0  0  0  0  0  0  0
   38.1510   28.4960   43.4310 N   0  0  0  0  0  0  0  0  0  0  0  0
   37.7270   29.9930   41.4800 N   0  0  0  0  0  0  0  0  0  0  0  0
   36.4320   30.1830   41.1220 C   0  0  0  0  0  0  0  0  0  0  0  0
   36.2830   31.3940   40.5470 N   0  0  0  0  0  0  0  0  0  0  0  0
   37.4780   31.9810   40.5340 C   0  0  0  0  0  0  0  0  0  0  0  0
   37.9740   33.2050   40.0890 C   0  0  0  0  0  0  0  0  0  0  0  0
   39.2960   33.4850   40.2410 N   0  0  0  0  0  0  0  0  0  0  0  0
   40.1270   32.6100   40.8100 C   0  0  0  0  0  0  0  0  0  0  0  0
   39.6740   31.4100   41.2530 N   0  0  0  0  0  0  0  0  0  0  0  0
   38.3590   31.1000   41.1160 C   0  0  0  0  0  0  0  0  0  0  0  0
   36.9990   34.0480   39.5030 N   0  0  0  0  0  0  0  0  0  0  0  0
   41.5420   32.9290   40.9630 C   0  0  0  0  0  0  0  0  0  0  0  0
   42.1640   33.8110   40.1040 C   0  0  0  0  0  0  0  0  0  0  0  0
   43.4790   34.1560   40.1860 C   0  0  0  0  0  0  0  0  0  0  0  0
   44.2300   33.5830   41.1990 C   0  0  0  0  0  0  0  0  0  0  0  0
   43.5880   32.6980   42.0560 C   0  0  0  0  0  0  0  0  0  0  0  0
   42.2660   32.3770   41.9400 N   0  0  0  0  0  0  0  0  0  0  0  0
   38.5900   27.0687   44.9178 H   0  0  0  0  0  0  0  0  0  0  0  0
   39.4266   25.3569   43.3030 H   0  0  0  0  0  0  0  0  0  0  0  0
   39.4222   25.9334   40.8430 H   0  0  0  0  0  0  0  0  0  0  0  0
   35.6218   29.4555   41.2780 H   0  0  0  0  0  0  0  0  0  0  0  0
   36.0198   33.7352   39.4380 H   0  0  0  0  0  0  0  0  0  0  0  0
   37.2689   34.9740   39.1417 H   0  0  0  0  0  0  0  0  0  0  0  0
   41.5607   34.2637   39.3033 H   0  0  0  0  0  0  0  0  0  0  0  0
   43.9282   34.8638   39.4738 H   0  0  0  0  0  0  0  0  0  0  0  0
   45.2972   33.8204   41.3206 H   0  0  0  0  0  0  0  0  0  0  0  0
   44.1715   32.2346   42.8652 H   0  0  0  0  0  0  0  0  0  0  0  0
  2  1  2  0
  3  2  1  0
  4  3  2  0
  4  5  1  0
  5  6  2  0
  6  1  1  0
  7  5  1  0
  8  7  1  0
  9  8  2  0
 10  9  1  0
 10 15  2  0
 11 12  2  0
 11 10  1  0
 12 13  1  0
 13 17  1  0
 13 14  2  0
 15 14  1  0
 15  7  1  0
 16 11  1  0
 17 22  2  0
 18 19  2  0
 18 17  1  0
 19 20  1  0
 20 21  2  0
 22 21  1  0
  1 23  1  0
  2 24  1  0
  3 25  1  0
  8 26  1  0
 16 27  1  0
 16 28  1  0
 18 29  1  0
 19 30  1  0
 20 31  1  0
 21 32  1  0
M  ISO  8  23  14  24  14  25  14  26  14  29  14  30  14  31  14  32  14
M  END
>  <minimizedAffinity>  (1) 
-6.00091648

>  <minimizedRMSD>  (1) 
1.2860074

$$$$
