
     RDKit          3D

 35 37  0  0  0  0  0  0  0  0999 V2000
   38.7120   27.3110   43.7690 C   0  0  0  0  0  0  0  0  0  0  0  0
   39.0770   26.3250   42.8560 C   0  0  0  0  0  0  0  0  0  0  0  0
   38.9700   26.6390   41.4900 C   0  0  0  0  0  0  0  0  0  0  0  0
   38.5180   27.8770   41.1540 N   0  0  0  0  0  0  0  0  0  0  0  0
   38.1700   28.8150   42.0880 C   0  0  0  0  0  0  0  0  0  0  0  0
   38.2700   28.5210   43.4000 N   0  0  0  0  0  0  0  0  0  0  0  0
   37.7330   30.0190   41.4730 N   0  0  0  0  0  0  0  0  0  0  0  0
   36.4270   30.2430   41.2010 C   0  0  0  0  0  0  0  0  0  0  0  0
   36.2710   31.4460   40.6240 N   0  0  0  0  0  0  0  0  0  0  0  0
   37.4780   32.0020   40.5200 C   0  0  0  0  0  0  0  0  0  0  0  0
   37.9810   33.2130   40.0230 C   0  0  0  0  0  0  0  0  0  0  0  0
   39.3080   33.4530   40.0830 N   0  0  0  0  0  0  0  0  0  0  0  0
   40.1560   32.5640   40.6040 C   0  0  0  0  0  0  0  0  0  0  0  0
   39.7190   31.3790   41.0980 N   0  0  0  0  0  0  0  0  0  0  0  0
   38.3870   31.1040   41.0540 C   0  0  0  0  0  0  0  0  0  0  0  0
   36.9890   34.0710   39.4980 N   0  0  0  0  0  0  0  0  0  0  0  0
   41.6070   32.8160   40.6740 C   0  0  0  0  0  0  0  0  0  0  0  0
   41.9500   34.2680   40.7210 C   0  0  0  0  0  0  0  0  0  0  0  0
   42.1500   32.0620   41.8890 C   0  0  0  0  0  0  0  0  0  0  0  0
   42.2140   32.1180   39.4590 C   0  0  0  0  0  0  0  0  0  0  0  0
   38.7901   27.0862   44.8429 H   0  0  0  0  0  0  0  0  0  0  0  0
   39.4347   25.3400   43.1903 H   0  0  0  0  0  0  0  0  0  0  0  0
   39.2434   25.9061   40.7167 H   0  0  0  0  0  0  0  0  0  0  0  0
   35.6096   29.5405   41.4209 H   0  0  0  0  0  0  0  0  0  0  0  0
   36.0008   33.7807   39.5050 H   0  0  0  0  0  0  0  0  0  0  0  0
   37.2540   34.9869   39.1083 H   0  0  0  0  0  0  0  0  0  0  0  0
   42.0267   34.5929   41.7691 H   0  0  0  0  0  0  0  0  0  0  0  0
   42.9121   34.4341   40.2143 H   0  0  0  0  0  0  0  0  0  0  0  0
   41.1639   34.8470   40.2143 H   0  0  0  0  0  0  0  0  0  0  0  0
   41.7987   32.5497   42.8103 H   0  0  0  0  0  0  0  0  0  0  0  0
   41.7921   31.0221   41.8653 H   0  0  0  0  0  0  0  0  0  0  0  0
   43.2497   32.0719   41.8653 H   0  0  0  0  0  0  0  0  0  0  0  0
   42.9012   31.3277   39.7955 H   0  0  0  0  0  0  0  0  0  0  0  0
   41.4113   31.6724   38.8531 H   0  0  0  0  0  0  0  0  0  0  0  0
   42.7667   32.8511   38.8531 H   0  0  0  0  0  0  0  0  0  0  0  0
  2  1  2  0
  3  2  1  0
  4  3  2  0
  4  5  1  0
  5  6  2  0
  6  1  1  0
  7  5  1  0
  8  7  1  0
  9  8  2  0
 10  9  1  0
 10 15  2  0
 11 12  2  0
 11 10  1  0
 12 13  1  0
 13 17  1  0
 13 14  2  0
 15 14  1  0
 15  7  1  0
 16 11  1  0
 17 18  1  0
 17 19  1  0
 20 17  1  0
  1 21  1  0
  2 22  1  0
  3 23  1  0
  8 24  1  0
 16 25  1  0
 16 26  1  0
 18 27  1  0
 18 28  1  0
 18 29  1  0
 19 30  1  0
 19 31  1  0
 19 32  1  0
 20 33  1  0
 20 34  1  0
 20 35  1  0
M  ISO  8  21  14  22  14  23  14  24  14  27   8  28   8  29   8  30   8
M  ISO  5  31   8  32   8  33   8  34   8  35   8
M  END
>  <minimizedAffinity>  (1) 
-5.65339136

>  <minimizedRMSD>  (1) 
1.26235414

$$$$
