
     RDKit          3D

 32 34  0  0  0  0  0  0  0  0999 V2000
   38.8620   27.0680   43.8260 C   0  0  0  0  0  0  0  0  0  0  0  0
   39.2530   26.1070   42.8670 C   0  0  0  0  0  0  0  0  0  0  0  0
   39.1330   26.4300   41.5220 C   0  0  0  0  0  0  0  0  0  0  0  0
   38.6420   27.6620   41.2150 N   0  0  0  0  0  0  0  0  0  0  0  0
   38.2700   28.5730   42.1380 C   0  0  0  0  0  0  0  0  0  0  0  0
   38.3830   28.2690   43.4600 N   0  0  0  0  0  0  0  0  0  0  0  0
   37.7960   29.7790   41.5550 N   0  0  0  0  0  0  0  0  0  0  0  0
   36.4780   29.9660   41.3140 C   0  0  0  0  0  0  0  0  0  0  0  0
   36.2900   31.1850   40.7640 N   0  0  0  0  0  0  0  0  0  0  0  0
   37.4900   31.7720   40.6560 C   0  0  0  0  0  0  0  0  0  0  0  0
   37.9390   33.0030   40.1780 C   0  0  0  0  0  0  0  0  0  0  0  0
   39.2750   33.2730   40.2230 N   0  0  0  0  0  0  0  0  0  0  0  0
   40.1610   32.3920   40.7140 C   0  0  0  0  0  0  0  0  0  0  0  0
   39.7320   31.1820   41.1840 N   0  0  0  0  0  0  0  0  0  0  0  0
   38.4080   30.8840   41.1520 C   0  0  0  0  0  0  0  0  0  0  0  0
   36.9230   33.8500   39.6880 N   0  0  0  0  0  0  0  0  0  0  0  0
   41.6050   32.7450   40.7360 C   0  0  0  0  0  0  0  0  0  0  0  0
   41.8620   34.2140   40.6710 C   0  0  0  0  0  0  0  0  0  0  0  0
   42.2250   32.0770   41.9560 C   0  0  0  0  0  0  0  0  0  0  0  0
   38.9516   26.8278   44.8957 H   0  0  0  0  0  0  0  0  0  0  0  0
   39.6430   25.1267   43.1784 H   0  0  0  0  0  0  0  0  0  0  0  0
   39.4233   25.7182   40.7352 H   0  0  0  0  0  0  0  0  0  0  0  0
   35.6828   29.2380   41.5322 H   0  0  0  0  0  0  0  0  0  0  0  0
   35.9412   33.5390   39.7037 H   0  0  0  0  0  0  0  0  0  0  0  0
   37.1629   34.7794   39.3145 H   0  0  0  0  0  0  0  0  0  0  0  0
   42.0870   32.3663   39.8226 H   0  0  0  0  0  0  0  0  0  0  0  0
   41.9329   34.6193   41.6911 H   0  0  0  0  0  0  0  0  0  0  0  0
   42.8059   34.3978   40.1370 H   0  0  0  0  0  0  0  0  0  0  0  0
   41.0365   34.7074   40.1370 H   0  0  0  0  0  0  0  0  0  0  0  0
   41.8091   32.5251   42.8704 H   0  0  0  0  0  0  0  0  0  0  0  0
   41.9986   31.0007   41.9394 H   0  0  0  0  0  0  0  0  0  0  0  0
   43.3152   32.2227   41.9394 H   0  0  0  0  0  0  0  0  0  0  0  0
  2  1  2  0
  3  2  1  0
  4  3  2  0
  4  5  1  0
  5  6  2  0
  6  1  1  0
  7  5  1  0
  8  7  1  0
  9  8  2  0
 10  9  1  0
 10 15  2  0
 11 12  2  0
 11 10  1  0
 12 13  1  0
 13 17  1  0
 13 14  2  0
 15 14  1  0
 15  7  1  0
 16 11  1  0
 17 19  1  0
 18 17  1  0
  1 20  1  0
  2 21  1  0
  3 22  1  0
  8 23  1  0
 16 24  1  0
 16 25  1  0
 17 26  1  0
 18 27  1  0
 18 28  1  0
 18 29  1  0
 19 30  1  0
 19 31  1  0
 19 32  1  0
M  ISO  8  20  14  21  14  22  14  23  14  26   8  27   8  28   8  29   8
M  ISO  3  30   8  31   8  32   8
M  END
>  <minimizedAffinity>  (1) 
-5.44943762

>  <minimizedRMSD>  (1) 
1.0027616

$$$$
