
     RDKit          3D

 30 33  0  0  0  0  0  0  0  0999 V2000
   38.9820   26.9980   43.7130 C   0  0  0  0  0  0  0  0  0  0  0  0
   39.1660   25.9970   42.7460 C   0  0  0  0  0  0  0  0  0  0  0  0
   38.8850   26.3200   41.4150 C   0  0  0  0  0  0  0  0  0  0  0  0
   38.4520   27.5800   41.1420 N   0  0  0  0  0  0  0  0  0  0  0  0
   38.2820   28.5330   42.1040 C   0  0  0  0  0  0  0  0  0  0  0  0
   38.5550   28.2140   43.3790 N   0  0  0  0  0  0  0  0  0  0  0  0
   37.8250   29.7510   41.5520 N   0  0  0  0  0  0  0  0  0  0  0  0
   36.4870   30.0240   41.4650 C   0  0  0  0  0  0  0  0  0  0  0  0
   36.3000   31.2340   40.9080 N   0  0  0  0  0  0  0  0  0  0  0  0
   37.5010   31.7420   40.6360 C   0  0  0  0  0  0  0  0  0  0  0  0
   37.9730   32.9260   40.0720 C   0  0  0  0  0  0  0  0  0  0  0  0
   39.2980   33.1200   39.9420 N   0  0  0  0  0  0  0  0  0  0  0  0
   40.1850   32.1910   40.3470 C   0  0  0  0  0  0  0  0  0  0  0  0
   39.7760   31.0230   40.9020 N   0  0  0  0  0  0  0  0  0  0  0  0
   38.4380   30.8100   41.0410 C   0  0  0  0  0  0  0  0  0  0  0  0
   36.9530   33.8230   39.6850 N   0  0  0  0  0  0  0  0  0  0  0  0
   41.6480   32.4110   40.2020 C   0  0  0  0  0  0  0  0  0  0  0  0
   42.0970   33.8680   40.0920 C   0  0  0  0  0  0  0  0  0  0  0  0
   42.3570   33.1430   41.3580 C   0  0  0  0  0  0  0  0  0  0  0  0
   39.1950   26.7730   44.7685 H   0  0  0  0  0  0  0  0  0  0  0  0
   39.5190   24.9934   43.0258 H   0  0  0  0  0  0  0  0  0  0  0  0
   39.0103   25.5776   40.6130 H   0  0  0  0  0  0  0  0  0  0  0  0
   35.6828   29.3529   41.8010 H   0  0  0  0  0  0  0  0  0  0  0  0
   37.1976   34.7276   39.2575 H   0  0  0  0  0  0  0  0  0  0  0  0
   35.9645   33.5726   39.8303 H   0  0  0  0  0  0  0  0  0  0  0  0
   41.8153   31.4812   39.6386 H   0  0  0  0  0  0  0  0  0  0  0  0
   42.9365   34.1319   39.4320 H   0  0  0  0  0  0  0  0  0  0  0  0
   41.5914   34.8108   39.8362 H   0  0  0  0  0  0  0  0  0  0  0  0
   41.7951   33.4070   42.2660 H   0  0  0  0  0  0  0  0  0  0  0  0
   43.2519   32.9445   41.9661 H   0  0  0  0  0  0  0  0  0  0  0  0
  2  1  2  0
  3  2  1  0
  4  3  2  0
  4  5  1  0
  5  6  2  0
  6  1  1  0
  7  5  1  0
  8  7  1  0
  9  8  2  0
 10  9  1  0
 10 15  2  0
 11 10  1  0
 12 11  2  0
 12 13  1  0
 13 14  2  0
 14 15  1  0
 15  7  1  0
 16 11  1  0
 17 13  1  0
 17 19  1  0
 18 17  1  0
 18 19  1  0
  1 20  1  0
  2 21  1  0
  3 22  1  0
  8 23  1  0
 16 24  1  0
 16 25  1  0
 17 26  1  0
 18 27  1  0
 18 28  1  0
 19 29  1  0
 19 30  1  0
M  ISO  8  20  14  21  14  22  14  23  14  26  13  27  13  28  13  29  13
M  ISO  1  30  13
M  END
>  <minimizedAffinity>  (1) 
-5.40287638

>  <minimizedRMSD>  (1) 
1.1310842

$$$$
