
     RDKit          3D

 25 27  0  0  0  0  0  0  0  0999 V2000
   38.8040   27.0530   43.7930 C   0  0  0  0  0  0  0  0  0  0  0  0
   39.1070   26.0650   42.8390 C   0  0  0  0  0  0  0  0  0  0  0  0
   38.9430   26.3900   41.4850 C   0  0  0  0  0  0  0  0  0  0  0  0
   38.5040   27.6360   41.1850 N   0  0  0  0  0  0  0  0  0  0  0  0
   38.2210   28.5630   42.1270 C   0  0  0  0  0  0  0  0  0  0  0  0
   38.3760   28.2580   43.4290 N   0  0  0  0  0  0  0  0  0  0  0  0
   37.7790   29.7860   41.5570 N   0  0  0  0  0  0  0  0  0  0  0  0
   36.4490   30.0340   41.3680 C   0  0  0  0  0  0  0  0  0  0  0  0
   36.2740   31.2490   40.8180 N   0  0  0  0  0  0  0  0  0  0  0  0
   37.4900   31.7870   40.6530 C   0  0  0  0  0  0  0  0  0  0  0  0
   37.9610   32.9950   40.1450 C   0  0  0  0  0  0  0  0  0  0  0  0
   39.2920   33.2200   40.1250 N   0  0  0  0  0  0  0  0  0  0  0  0
   40.1730   32.3060   40.5840 C   0  0  0  0  0  0  0  0  0  0  0  0
   39.7310   31.1200   41.0830 N   0  0  0  0  0  0  0  0  0  0  0  0
   38.4100   30.8750   41.1130 C   0  0  0  0  0  0  0  0  0  0  0  0
   36.9680   33.8820   39.6920 N   0  0  0  0  0  0  0  0  0  0  0  0
   41.5940   32.5300   40.5700 C   0  0  0  0  0  0  0  0  0  0  0  0
   42.2570   32.8330   41.6130 O   0  0  0  0  0  0  0  0  0  0  0  0
   38.9236   26.8241   44.8623 H   0  0  0  0  0  0  0  0  0  0  0  0
   39.4612   25.0696   43.1452 H   0  0  0  0  0  0  0  0  0  0  0  0
   39.1632   25.6584   40.6936 H   0  0  0  0  0  0  0  0  0  0  0  0
   35.6370   29.3392   41.6284 H   0  0  0  0  0  0  0  0  0  0  0  0
   37.2342   34.7973   39.3017 H   0  0  0  0  0  0  0  0  0  0  0  0
   35.9746   33.6163   39.7506 H   0  0  0  0  0  0  0  0  0  0  0  0
   42.1315   32.4351   39.6149 H   0  0  0  0  0  0  0  0  0  0  0  0
  2  1  2  0
  3  2  1  0
  4  3  2  0
  4  5  1  0
  5  6  2  0
  6  1  1  0
  7  5  1  0
  8  7  1  0
  9  8  2  0
 10  9  1  0
 10 15  2  0
 11 10  1  0
 12 11  2  0
 12 13  1  0
 13 14  2  0
 14 15  1  0
 15  7  1  0
 16 11  1  0
 17 13  1  0
 17 18  2  0
  1 19  1  0
  2 20  1  0
  3 21  1  0
  8 22  1  0
 16 23  1  0
 16 24  1  0
 17 25  1  0
M  ISO  5  19  14  20  14  21  14  22  14  25   6
M  END
>  <minimizedAffinity>  (1) 
-5.2253499

>  <minimizedRMSD>  (1) 
1.04177487

$$$$
