
     RDKit          3D

 25 27  0  0  0  0  0  0  0  0999 V2000
   39.7610   26.2120   43.9080 C   0  0  0  0  0  0  0  0  0  0  0  0
   40.1260   25.3240   42.8910 C   0  0  0  0  0  0  0  0  0  0  0  0
   39.8440   25.6940   41.5810 C   0  0  0  0  0  0  0  0  0  0  0  0
   39.2320   26.8890   41.3560 N   0  0  0  0  0  0  0  0  0  0  0  0
   38.8900   27.7330   42.3810 C   0  0  0  0  0  0  0  0  0  0  0  0
   39.1620   27.3780   43.6430 N   0  0  0  0  0  0  0  0  0  0  0  0
   38.2650   28.9160   41.8870 N   0  0  0  0  0  0  0  0  0  0  0  0
   36.9030   28.9870   41.7750 C   0  0  0  0  0  0  0  0  0  0  0  0
   36.5610   30.1980   41.2880 N   0  0  0  0  0  0  0  0  0  0  0  0
   37.6950   30.8880   41.0900 C   0  0  0  0  0  0  0  0  0  0  0  0
   37.9930   32.1640   40.6170 C   0  0  0  0  0  0  0  0  0  0  0  0
   39.2750   32.5600   40.5430 N   0  0  0  0  0  0  0  0  0  0  0  0
   40.2830   31.7470   40.9180 C   0  0  0  0  0  0  0  0  0  0  0  0
   40.0150   30.4920   41.3860 N   0  0  0  0  0  0  0  0  0  0  0  0
   38.7380   30.0810   41.4660 C   0  0  0  0  0  0  0  0  0  0  0  0
   36.8510   32.9340   40.2530 N   0  0  0  0  0  0  0  0  0  0  0  0
   41.6300   32.1940   40.8280 N   0  0  0  0  0  0  0  0  0  0  0  0
   39.9723   25.9442   44.9538 H   0  0  0  0  0  0  0  0  0  0  0  0
   40.6185   24.3673   43.1195 H   0  0  0  0  0  0  0  0  0  0  0  0
   40.1103   25.0339   40.7424 H   0  0  0  0  0  0  0  0  0  0  0  0
   36.1989   28.1844   42.0399 H   0  0  0  0  0  0  0  0  0  0  0  0
   36.9692   33.8913   39.8919 H   0  0  0  0  0  0  0  0  0  0  0  0
   35.9072   32.5334   40.3510 H   0  0  0  0  0  0  0  0  0  0  0  0
   42.3993   31.5720   41.1148 H   0  0  0  0  0  0  0  0  0  0  0  0
   41.8363   33.1397   40.4760 H   0  0  0  0  0  0  0  0  0  0  0  0
  2  1  2  0
  3  2  1  0
  4  3  2  0
  4  5  1  0
  5  6  2  0
  6  1  1  0
  7  5  1  0
  8  7  1  0
  9  8  2  0
 10  9  1  0
 10 15  2  0
 11 10  1  0
 12 11  2  0
 12 13  1  0
 13 14  2  0
 14 15  1  0
 15  7  1  0
 16 11  1  0
 17 13  1  0
  1 18  1  0
  2 19  1  0
  3 20  1  0
  8 21  1  0
 16 22  1  0
 16 23  1  0
 17 24  1  0
 17 25  1  0
M  ISO  4  18  14  19  14  20  14  21  14
M  END
>  <minimizedAffinity>  (1) 
-5.04342127

>  <minimizedRMSD>  (1) 
0.0970788002

$$$$
