
     RDKit          3D

 21 22  0  0  0  0  0  0  0  0999 V2000
   38.6510   28.7970   43.1690 C   0  0  0  0  0  0  0  0  0  0  0  0
   38.1390   27.5000   43.3630 C   0  0  0  0  0  0  0  0  0  0  0  0
   36.9200   27.1790   42.7530 C   0  0  0  0  0  0  0  0  0  0  0  0
   36.3040   28.1350   42.0120 N   0  0  0  0  0  0  0  0  0  0  0  0
   36.8220   29.3730   41.8440 C   0  0  0  0  0  0  0  0  0  0  0  0
   37.9980   29.7060   42.4230 N   0  0  0  0  0  0  0  0  0  0  0  0
   35.9830   30.1270   41.0460 O   0  0  0  0  0  0  0  0  0  0  0  0
   36.5170   30.7230   39.9250 C   0  0  0  0  0  0  0  0  0  0  0  0
   37.0160   32.0090   39.8530 C   0  0  0  0  0  0  0  0  0  0  0  0
   37.5230   32.4740   38.6530 C   0  0  0  0  0  0  0  0  0  0  0  0
   37.5620   31.7120   37.4990 C   0  0  0  0  0  0  0  0  0  0  0  0
   37.0500   30.4120   37.6010 C   0  0  0  0  0  0  0  0  0  0  0  0
   36.5360   29.9160   38.7830 C   0  0  0  0  0  0  0  0  0  0  0  0
   39.6068   29.0733   43.6382 H   0  0  0  0  0  0  0  0  0  0  0  0
   38.6793   26.7622   43.9743 H   0  0  0  0  0  0  0  0  0  0  0  0
   36.4743   26.1803   42.8710 H   0  0  0  0  0  0  0  0  0  0  0  0
   37.0102   32.6573   40.7417 H   0  0  0  0  0  0  0  0  0  0  0  0
   37.9148   33.5011   38.6143 H   0  0  0  0  0  0  0  0  0  0  0  0
   37.9712   32.1041   36.5562 H   0  0  0  0  0  0  0  0  0  0  0  0
   37.0576   29.7655   36.7111 H   0  0  0  0  0  0  0  0  0  0  0  0
   36.1428   28.8896   38.8261 H   0  0  0  0  0  0  0  0  0  0  0  0
  1  2  2  0
  3  2  1  0
  4  3  2  0
  5  4  1  0
  5  6  2  0
  6  1  1  0
  7  5  1  0
  8  7  1  0
  9  8  2  0
 10  9  1  0
 11 12  1  0
 11 10  2  0
 12 13  2  0
 13  8  1  0
  1 14  1  0
  2 15  1  0
  3 16  1  0
  9 17  1  0
 10 18  1  0
 11 19  1  0
 12 20  1  0
 13 21  1  0
M  ISO  8  14  14  15  14  16  14  17  14  18  14  19  14  20  14  21  14
M  END
>  <minimizedAffinity>  (1) 
-4.25603104

>  <minimizedRMSD>  (1) 
1.34630895

$$$$
