
     RDKit          3D

 26 27  0  0  0  0  0  0  0  0999 V2000
   39.3090   27.6700   43.2580 C   0  0  0  0  0  0  0  0  0  0  0  0
   38.2320   26.7350   43.2180 C   0  0  0  0  0  0  0  0  0  0  0  0
   37.0040   27.1860   42.7020 C   0  0  0  0  0  0  0  0  0  0  0  0
   36.9260   28.4790   42.2750 N   0  0  0  0  0  0  0  0  0  0  0  0
   37.9660   29.3220   42.3320 C   0  0  0  0  0  0  0  0  0  0  0  0
   39.1590   28.9340   42.8180 N   0  0  0  0  0  0  0  0  0  0  0  0
   37.6040   30.5570   41.8360 O   0  0  0  0  0  0  0  0  0  0  0  0
   38.0650   33.8860   39.6450 N   0  0  0  0  0  0  0  0  0  0  0  0
   38.7790   33.5160   40.8250 C   0  0  0  0  0  0  0  0  0  0  0  0
   39.1890   32.0590   40.7710 C   0  0  0  0  0  0  0  0  0  0  0  0
   38.0450   31.1170   40.6210 C   0  0  0  0  0  0  0  0  0  0  0  0
   36.8480   31.7680   39.9880 C   0  0  0  0  0  0  0  0  0  0  0  0
   37.2510   32.8720   39.0610 C   0  0  0  0  0  0  0  0  0  0  0  0
   40.2833   27.3514   43.6570 H   0  0  0  0  0  0  0  0  0  0  0  0
   38.3572   25.7026   43.5765 H   0  0  0  0  0  0  0  0  0  0  0  0
   36.1331   26.5165   42.6445 H   0  0  0  0  0  0  0  0  0  0  0  0
   37.4551   34.6813   39.8826 H   0  0  0  0  0  0  0  0  0  0  0  0
   39.6799   34.1411   40.9123 H   0  0  0  0  0  0  0  0  0  0  0  0
   38.1232   33.6657   41.6954 H   0  0  0  0  0  0  0  0  0  0  0  0
   39.8663   31.9209   39.9153 H   0  0  0  0  0  0  0  0  0  0  0  0
   39.6712   31.8264   41.7319 H   0  0  0  0  0  0  0  0  0  0  0  0
   38.4511   30.3230   39.9770 H   0  0  0  0  0  0  0  0  0  0  0  0
   36.2877   31.0107   39.4200 H   0  0  0  0  0  0  0  0  0  0  0  0
   36.2256   32.1976   40.7868 H   0  0  0  0  0  0  0  0  0  0  0  0
   36.3355   33.3478   38.6796 H   0  0  0  0  0  0  0  0  0  0  0  0
   37.8620   32.4040   38.2751 H   0  0  0  0  0  0  0  0  0  0  0  0
  2  1  2  0
  3  2  1  0
  4  5  1  0
  4  3  2  0
  5  6  2  0
  6  1  1  0
  7  5  1  0
  8  9  1  0
 10  9  1  0
 11 10  1  0
 11  7  1  0
 12 11  1  0
 13  8  1  0
 13 12  1  0
  1 14  1  0
  2 15  1  0
  3 16  1  0
  8 17  1  0
  9 18  1  0
  9 19  1  0
 10 20  1  0
 10 21  1  0
 11 22  1  0
 12 23  1  0
 12 24  1  0
 13 25  1  0
 13 26  1  0
M  ISO  8  14  14  15  14  16  14  17   5  18  13  19  13  20  13  21  13
M  ISO  5  22  13  23  13  24  13  25  13  26  13
M  END
>  <minimizedAffinity>  (1) 
-3.93908596

>  <minimizedRMSD>  (1) 
2.4885571

$$$$
