
     RDKit          3D

 19 20  0  0  0  0  0  0  0  0999 V2000
   38.5490   28.8160   43.2790 C   0  0  0  0  0  0  0  0  0  0  0  0
   37.9990   27.5400   43.5540 C   0  0  0  0  0  0  0  0  0  0  0  0
   36.8090   27.1850   42.8950 C   0  0  0  0  0  0  0  0  0  0  0  0
   36.2640   28.0830   42.0420 N   0  0  0  0  0  0  0  0  0  0  0  0
   36.8130   29.2840   41.8070 C   0  0  0  0  0  0  0  0  0  0  0  0
   37.9510   29.6530   42.4220 N   0  0  0  0  0  0  0  0  0  0  0  0
   36.0560   29.9960   40.9010 O   0  0  0  0  0  0  0  0  0  0  0  0
   36.5570   30.7070   39.8190 C   0  0  0  0  0  0  0  0  0  0  0  0
   36.6510   29.9560   38.6470 C   0  0  0  0  0  0  0  0  0  0  0  0
   37.1480   30.6040   37.5100 C   0  0  0  0  0  0  0  0  0  0  0  0
   37.5160   31.9110   37.5700 N   0  0  0  0  0  0  0  0  0  0  0  0
   37.4100   32.6090   38.7250 C   0  0  0  0  0  0  0  0  0  0  0  0
   36.9330   32.0030   39.8370 N   0  0  0  0  0  0  0  0  0  0  0  0
   39.4806   29.1236   43.7765 H   0  0  0  0  0  0  0  0  0  0  0  0
   38.4863   26.8505   44.2590 H   0  0  0  0  0  0  0  0  0  0  0  0
   36.3355   26.2072   43.0675 H   0  0  0  0  0  0  0  0  0  0  0  0
   36.3474   28.8991   38.6176 H   0  0  0  0  0  0  0  0  0  0  0  0
   37.2412   30.0524   36.5629 H   0  0  0  0  0  0  0  0  0  0  0  0
   37.7109   33.6665   38.7596 H   0  0  0  0  0  0  0  0  0  0  0  0
  1  2  2  0
  3  2  1  0
  4  3  2  0
  5  4  1  0
  5  6  2  0
  6  1  1  0
  7  5  1  0
  8 13  1  0
  8  7  1  0
  9  8  2  0
 10 11  2  0
 10  9  1  0
 11 12  1  0
 12 13  2  0
  1 14  1  0
  2 15  1  0
  3 16  1  0
  9 17  1  0
 10 18  1  0
 12 19  1  0
M  ISO  6  14  14  15  14  16  14  17  14  18  14  19  14
M  END
>  <minimizedAffinity>  (1) 
-3.8677423

>  <minimizedRMSD>  (1) 
1.48953652

$$$$
