
     RDKit          3D

 24 25  0  0  0  0  0  0  0  0999 V2000
   38.9730   27.3790   42.0420 C   0  0  0  0  0  0  0  0  0  0  0  0
   38.7550   27.3430   43.4410 C   0  0  0  0  0  0  0  0  0  0  0  0
   37.4980   27.7480   43.9220 C   0  0  0  0  0  0  0  0  0  0  0  0
   36.5750   28.1470   43.0130 N   0  0  0  0  0  0  0  0  0  0  0  0
   36.8010   28.1730   41.6930 C   0  0  0  0  0  0  0  0  0  0  0  0
   37.9970   27.7910   41.2010 N   0  0  0  0  0  0  0  0  0  0  0  0
   35.6810   28.6230   41.0230 O   0  0  0  0  0  0  0  0  0  0  0  0
   35.6490   29.8570   40.3650 C   0  0  0  0  0  0  0  0  0  0  0  0
   36.5540   30.8850   41.0020 C   0  0  0  0  0  0  0  0  0  0  0  0
   36.8480   31.8000   39.8160 C   0  0  0  0  0  0  0  0  0  0  0  0
   37.2570   30.7320   38.7930 C   0  0  0  0  0  0  0  0  0  0  0  0
   36.0770   29.7650   38.9250 C   0  0  0  0  0  0  0  0  0  0  0  0
   39.9466   27.0685   41.6350 H   0  0  0  0  0  0  0  0  0  0  0  0
   39.5449   27.0085   44.1296 H   0  0  0  0  0  0  0  0  0  0  0  0
   37.2712   27.7414   44.9983 H   0  0  0  0  0  0  0  0  0  0  0  0
   34.5950   30.1625   40.4402 H   0  0  0  0  0  0  0  0  0  0  0  0
   36.0418   31.4264   41.8111 H   0  0  0  0  0  0  0  0  0  0  0  0
   37.4510   30.4624   41.4783 H   0  0  0  0  0  0  0  0  0  0  0  0
   35.9574   32.3603   39.4952 H   0  0  0  0  0  0  0  0  0  0  0  0
   37.5892   32.5920   39.9987 H   0  0  0  0  0  0  0  0  0  0  0  0
   38.2092   30.2522   39.0634 H   0  0  0  0  0  0  0  0  0  0  0  0
   37.4318   31.1107   37.7752 H   0  0  0  0  0  0  0  0  0  0  0  0
   35.2553   30.0662   38.2586 H   0  0  0  0  0  0  0  0  0  0  0  0
   36.3540   28.7383   38.6438 H   0  0  0  0  0  0  0  0  0  0  0  0
  1  2  2  0
  2  3  1  0
  4  3  2  0
  5  4  1  0
  6  5  2  0
  6  1  1  0
  7  5  1  0
  8  9  1  0
  8  7  1  0
 10  9  1  0
 11 12  1  0
 11 10  1  0
 12  8  1  0
  1 13  1  0
  2 14  1  0
  3 15  1  0
  8 16  1  0
  9 17  1  0
  9 18  1  0
 10 19  1  0
 10 20  1  0
 11 21  1  0
 11 22  1  0
 12 23  1  0
 12 24  1  0
M  ISO  8  13  14  14  14  15  14  16  13  17  13  18  13  19  13  20  13
M  ISO  4  21  13  22  13  23  13  24  13
M  END
>  <minimizedAffinity>  (1) 
-3.73169017

>  <minimizedRMSD>  (1) 
1.47659922

$$$$
