
     RDKit          3D

 16 17  0  0  0  0  0  0  0  0999 V2000
   38.6950   28.8170   43.1210 C   0  0  0  0  0  0  0  0  0  0  0  0
   38.1840   27.5130   43.2820 C   0  0  0  0  0  0  0  0  0  0  0  0
   36.9370   27.2230   42.6780 C   0  0  0  0  0  0  0  0  0  0  0  0
   36.3100   28.2180   41.9820 N   0  0  0  0  0  0  0  0  0  0  0  0
   36.8440   29.4400   41.8610 C   0  0  0  0  0  0  0  0  0  0  0  0
   38.0300   29.7470   42.4250 N   0  0  0  0  0  0  0  0  0  0  0  0
   36.0110   30.2440   41.1150 O   0  0  0  0  0  0  0  0  0  0  0  0
   36.5390   31.0040   40.0730 C   0  0  0  0  0  0  0  0  0  0  0  0
   36.6710   30.6970   38.7520 N   0  0  0  0  0  0  0  0  0  0  0  0
   37.2260   31.7200   38.1360 O   0  0  0  0  0  0  0  0  0  0  0  0
   37.4410   32.6470   39.0380 C   0  0  0  0  0  0  0  0  0  0  0  0
   37.0290   32.2450   40.2560 N   0  0  0  0  0  0  0  0  0  0  0  0
   39.6617   29.0759   43.5775 H   0  0  0  0  0  0  0  0  0  0  0  0
   38.7328   26.7507   43.8545 H   0  0  0  0  0  0  0  0  0  0  0  0
   36.4850   26.2240   42.7665 H   0  0  0  0  0  0  0  0  0  0  0  0
   37.8981   33.6252   38.8277 H   0  0  0  0  0  0  0  0  0  0  0  0
  1  2  2  0
  3  2  1  0
  4  3  2  0
  5  4  1  0
  5  6  2  0
  6  1  1  0
  7  5  1  0
  8 12  1  0
  8  7  1  0
  9  8  2  0
 10  9  1  0
 10 11  1  0
 11 12  2  0
  1 13  1  0
  2 14  1  0
  3 15  1  0
 11 16  1  0
M  ISO  4  13  14  14  14  15  14  16  14
M  END
>  <minimizedAffinity>  (1) 
-3.6910336

>  <minimizedRMSD>  (1) 
0.663476944

$$$$
