
     RDKit          3D

 23 23  0  0  0  0  0  0  0  0999 V2000
   38.1740   29.1250   43.3600 C   0  0  0  0  0  0  0  0  0  0  0  0
   37.6380   27.8690   43.7160 C   0  0  0  0  0  0  0  0  0  0  0  0
   36.6220   27.3570   42.8970 C   0  0  0  0  0  0  0  0  0  0  0  0
   36.2250   28.1010   41.8260 N   0  0  0  0  0  0  0  0  0  0  0  0
   36.7620   29.2870   41.5260 C   0  0  0  0  0  0  0  0  0  0  0  0
   37.7440   29.8090   42.2950 N   0  0  0  0  0  0  0  0  0  0  0  0
   36.1720   29.8110   40.3950 O   0  0  0  0  0  0  0  0  0  0  0  0
   36.7730   30.1390   39.1910 C   0  0  0  0  0  0  0  0  0  0  0  0
   37.0280   31.6490   39.1870 C   0  0  0  0  0  0  0  0  0  0  0  0
   38.1130   29.4020   39.1300 C   0  0  0  0  0  0  0  0  0  0  0  0
   36.0050   29.8140   37.9520 C   0  0  0  0  0  0  0  0  0  0  0  0
   38.9734   29.5562   43.9805 H   0  0  0  0  0  0  0  0  0  0  0  0
   38.0008   27.3171   44.5957 H   0  0  0  0  0  0  0  0  0  0  0  0
   36.1585   26.3830   43.1124 H   0  0  0  0  0  0  0  0  0  0  0  0
   37.0895   32.0132   40.2231 H   0  0  0  0  0  0  0  0  0  0  0  0
   37.9744   31.8597   38.6675 H   0  0  0  0  0  0  0  0  0  0  0  0
   36.2032   32.1588   38.6675 H   0  0  0  0  0  0  0  0  0  0  0  0
   38.4702   29.2055   40.1517 H   0  0  0  0  0  0  0  0  0  0  0  0
   37.9831   28.4484   38.5973 H   0  0  0  0  0  0  0  0  0  0  0  0
   38.8487   30.0224   38.5973 H   0  0  0  0  0  0  0  0  0  0  0  0
   35.0241   29.3989   38.2269 H   0  0  0  0  0  0  0  0  0  0  0  0
   35.8626   30.7290   37.3583 H   0  0  0  0  0  0  0  0  0  0  0  0
   36.5626   29.0747   37.3583 H   0  0  0  0  0  0  0  0  0  0  0  0
  1  2  2  0
  3  2  1  0
  4  3  2  0
  5  4  1  0
  5  6  2  0
  6  1  1  0
  7  5  1  0
  8  7  1  0
  9  8  1  0
 10  8  1  0
 11  8  1  0
  1 12  1  0
  2 13  1  0
  3 14  1  0
  9 15  1  0
  9 16  1  0
  9 17  1  0
 10 18  1  0
 10 19  1  0
 10 20  1  0
 11 21  1  0
 11 22  1  0
 11 23  1  0
M  ISO  8  12  14  13  14  14  14  15   8  16   8  17   8  18   8  19   8
M  ISO  4  20   8  21   8  22   8  23   8
M  END
>  <minimizedAffinity>  (1) 
-3.3738265

>  <minimizedRMSD>  (1) 
1.14607

$$$$
