
     RDKit          3D

 13 13  0  0  0  0  0  0  0  0999 V2000
   38.8410   28.6110   43.1420 C   0  0  0  0  0  0  0  0  0  0  0  0
   38.2870   27.3370   43.4550 C   0  0  0  0  0  0  0  0  0  0  0  0
   37.0140   27.0770   42.9370 C   0  0  0  0  0  0  0  0  0  0  0  0
   36.3950   28.0250   42.1860 N   0  0  0  0  0  0  0  0  0  0  0  0
   36.9580   29.2140   41.9180 C   0  0  0  0  0  0  0  0  0  0  0  0
   38.1890   29.5120   42.3970 N   0  0  0  0  0  0  0  0  0  0  0  0
   36.1310   29.9960   41.1390 O   0  0  0  0  0  0  0  0  0  0  0  0
   36.5880   31.2560   40.7610 C   0  0  0  0  0  0  0  0  0  0  0  0
   36.7150   31.5780   39.5440 O   0  0  0  0  0  0  0  0  0  0  0  0
   39.8403   28.8637   43.5261 H   0  0  0  0  0  0  0  0  0  0  0  0
   38.8281   26.6010   44.0678 H   0  0  0  0  0  0  0  0  0  0  0  0
   36.5191   26.1149   43.1356 H   0  0  0  0  0  0  0  0  0  0  0  0
   36.8449   31.9893   41.5396 H   0  0  0  0  0  0  0  0  0  0  0  0
  1  2  2  0
  3  2  1  0
  4  3  2  0
  5  4  1  0
  5  6  2  0
  6  1  1  0
  7  5  1  0
  8  7  1  0
  9  8  2  0
  1 10  1  0
  2 11  1  0
  3 12  1  0
  8 13  1  0
M  ISO  4  10  14  11  14  12  14  13   6
M  END
>  <minimizedAffinity>  (1) 
-2.89601111

>  <minimizedRMSD>  (1) 
1.0852114

$$$$
