
     RDKit          3D

 29 31  0  0  0  0  0  0  0  0999 V2000
   37.0010   31.4900   40.4850 C   0  0  0  0  0  0  0  0  0  0  0  0
   36.9280   31.5760   39.1300 N   0  0  0  0  0  0  0  0  0  0  0  0
   37.7440   32.5180   38.7120 O   0  0  0  0  0  0  0  0  0  0  0  0
   38.3230   33.0200   39.7900 C   0  0  0  0  0  0  0  0  0  0  0  0
   37.8860   32.4070   40.8970 N   0  0  0  0  0  0  0  0  0  0  0  0
   39.2830   34.0720   39.7670 N   0  0  0  0  0  0  0  0  0  0  0  0
   38.9380   35.4110   40.1680 C   0  0  0  0  0  0  0  0  0  0  0  0
   40.0670   36.2650   40.5720 C   0  0  0  0  0  0  0  0  0  0  0  0
   41.3310   35.8510   40.2420 O   0  0  0  0  0  0  0  0  0  0  0  0
   41.5280   34.5000   40.3900 C   0  0  0  0  0  0  0  0  0  0  0  0
   40.6480   33.8370   39.3360 C   0  0  0  0  0  0  0  0  0  0  0  0
   36.3190   30.6380   41.3570 O   0  0  0  0  0  0  0  0  0  0  0  0
   38.6210   28.4950   43.2060 C   0  0  0  0  0  0  0  0  0  0  0  0
   38.0450   27.2410   42.9090 C   0  0  0  0  0  0  0  0  0  0  0  0
   36.8950   27.2410   42.0830 C   0  0  0  0  0  0  0  0  0  0  0  0
   36.4130   28.4360   41.6280 N   0  0  0  0  0  0  0  0  0  0  0  0
   37.0080   29.5910   41.9470 C   0  0  0  0  0  0  0  0  0  0  0  0
   38.1040   29.6300   42.7310 N   0  0  0  0  0  0  0  0  0  0  0  0
   38.4314   35.8978   39.3216 H   0  0  0  0  0  0  0  0  0  0  0  0
   38.3067   35.3039   41.0624 H   0  0  0  0  0  0  0  0  0  0  0  0
   39.9138   37.2516   40.1103 H   0  0  0  0  0  0  0  0  0  0  0  0
   40.0480   36.2477   41.6717 H   0  0  0  0  0  0  0  0  0  0  0  0
   42.5850   34.2459   40.2222 H   0  0  0  0  0  0  0  0  0  0  0  0
   41.2717   34.1610   41.4046 H   0  0  0  0  0  0  0  0  0  0  0  0
   40.8549   32.7578   39.2860 H   0  0  0  0  0  0  0  0  0  0  0  0
   40.8351   34.2461   38.3322 H   0  0  0  0  0  0  0  0  0  0  0  0
   39.5164   28.5377   43.8435 H   0  0  0  0  0  0  0  0  0  0  0  0
   38.4705   26.3057   43.3017 H   0  0  0  0  0  0  0  0  0  0  0  0
   36.3990   26.2971   41.8127 H   0  0  0  0  0  0  0  0  0  0  0  0
  1  5  1  0
  1 12  1  0
  2  1  2  0
  3  2  1  0
  3  4  1  0
  4  5  2  0
  6  4  1  0
  6  7  1  0
  7  8  1  0
  9 10  1  0
  9  8  1  0
 11  6  1  0
 11 10  1  0
 12 17  1  0
 14 13  2  0
 15 14  1  0
 16 17  1  0
 16 15  2  0
 17 18  2  0
 18 13  1  0
  7 19  1  0
  7 20  1  0
  8 21  1  0
  8 22  1  0
 10 23  1  0
 10 24  1  0
 11 25  1  0
 11 26  1  0
 13 27  1  0
 14 28  1  0
 15 29  1  0
M  ISO  8  19  13  20  13  21  13  22  13  23  13  24  13  25  13  26  13
M  ISO  3  27  14  28  14  29  14
M  END
>  <minimizedAffinity>  (1) 
-5.33738232

>  <minimizedRMSD>  (1) 
1.35853922

$$$$
