
     RDKit          3D

 23 25  0  0  0  0  0  0  0  0999 V2000
   36.6630   31.1190   40.2610 C   0  0  0  0  0  0  0  0  0  0  0  0
   36.7470   31.2670   38.9150 N   0  0  0  0  0  0  0  0  0  0  0  0
   37.5160   32.2960   38.6440 O   0  0  0  0  0  0  0  0  0  0  0  0
   37.9130   32.7930   39.8010 C   0  0  0  0  0  0  0  0  0  0  0  0
   37.4080   32.0940   40.8230 N   0  0  0  0  0  0  0  0  0  0  0  0
   38.7870   33.9490   39.9850 C   0  0  0  0  0  0  0  0  0  0  0  0
   40.1120   34.0060   40.3700 C   0  0  0  0  0  0  0  0  0  0  0  0
   40.4670   35.3080   40.3930 N   0  0  0  0  0  0  0  0  0  0  0  0
   39.4230   36.0860   40.0380 C   0  0  0  0  0  0  0  0  0  0  0  0
   38.4200   35.2270   39.7980 N   0  0  0  0  0  0  0  0  0  0  0  0
   35.9750   30.1850   41.0220 O   0  0  0  0  0  0  0  0  0  0  0  0
   37.9980   28.1800   43.2760 C   0  0  0  0  0  0  0  0  0  0  0  0
   37.8700   26.9300   42.6540 C   0  0  0  0  0  0  0  0  0  0  0  0
   37.0870   26.8630   41.4880 C   0  0  0  0  0  0  0  0  0  0  0  0
   36.5040   28.0210   41.0400 N   0  0  0  0  0  0  0  0  0  0  0  0
   36.6550   29.1880   41.6670 C   0  0  0  0  0  0  0  0  0  0  0  0
   37.4010   29.2730   42.7850 N   0  0  0  0  0  0  0  0  0  0  0  0
   40.7580   33.1495   40.6128 H   0  0  0  0  0  0  0  0  0  0  0  0
   39.3993   37.1831   39.9620 H   0  0  0  0  0  0  0  0  0  0  0  0
   37.4760   35.5154   39.5038 H   0  0  0  0  0  0  0  0  0  0  0  0
   38.6040   28.2647   44.1901 H   0  0  0  0  0  0  0  0  0  0  0  0
   38.3633   26.0358   43.0626 H   0  0  0  0  0  0  0  0  0  0  0  0
   36.9465   25.9126   40.9523 H   0  0  0  0  0  0  0  0  0  0  0  0
  1  5  1  0
  1 11  1  0
  2  1  2  0
  3  2  1  0
  3  4  1  0
  4  6  1  0
  4  5  2  0
  6  7  2  0
  7  8  1  0
  9  8  2  0
 10  6  1  0
 10  9  1  0
 11 16  1  0
 13 12  2  0
 14 13  1  0
 15 14  2  0
 15 16  1  0
 16 17  2  0
 17 12  1  0
  7 18  1  0
  9 19  1  0
 10 20  1  0
 12 21  1  0
 13 22  1  0
 14 23  1  0
M  ISO  6  18  14  19  14  20   9  21  14  22  14  23  14
M  END
>  <minimizedAffinity>  (1) 
-5.05273771

>  <minimizedRMSD>  (1) 
1.20856059

$$$$
