
     RDKit          3D

 29 31  0  0  0  0  0  0  0  0999 V2000
   36.9310   31.0990   41.0800 O   0  0  0  0  0  0  0  0  0  0  0  0
   38.6010   28.6410   43.1970 C   0  0  0  0  0  0  0  0  0  0  0  0
   37.7120   27.5660   43.0320 C   0  0  0  0  0  0  0  0  0  0  0  0
   36.5950   27.7670   42.1970 C   0  0  0  0  0  0  0  0  0  0  0  0
   36.4340   28.9900   41.5960 N   0  0  0  0  0  0  0  0  0  0  0  0
   37.3110   29.9780   41.7880 C   0  0  0  0  0  0  0  0  0  0  0  0
   38.3820   29.8090   42.5790 N   0  0  0  0  0  0  0  0  0  0  0  0
   37.8810   31.8030   40.3490 C   0  0  0  0  0  0  0  0  0  0  0  0
   38.5160   31.4630   39.1810 N   0  0  0  0  0  0  0  0  0  0  0  0
   39.3400   32.4350   38.8480 O   0  0  0  0  0  0  0  0  0  0  0  0
   39.2290   33.3620   39.7780 C   0  0  0  0  0  0  0  0  0  0  0  0
   38.3430   33.0100   40.7160 N   0  0  0  0  0  0  0  0  0  0  0  0
   40.0340   34.6170   39.7100 C   0  0  0  0  0  0  0  0  0  0  0  0
   39.1950   35.8320   40.1310 C   0  0  0  0  0  0  0  0  0  0  0  0
   40.2040   36.8730   40.5370 C   0  0  0  0  0  0  0  0  0  0  0  0
   41.3870   36.1020   41.0270 C   0  0  0  0  0  0  0  0  0  0  0  0
   41.1450   34.6430   40.7230 C   0  0  0  0  0  0  0  0  0  0  0  0
   39.4856   28.5225   43.8400 H   0  0  0  0  0  0  0  0  0  0  0  0
   37.8816   26.6030   43.5359 H   0  0  0  0  0  0  0  0  0  0  0  0
   35.8667   26.9597   42.0303 H   0  0  0  0  0  0  0  0  0  0  0  0
   40.3965   34.6507   38.6720 H   0  0  0  0  0  0  0  0  0  0  0  0
   38.5842   36.1915   39.2898 H   0  0  0  0  0  0  0  0  0  0  0  0
   38.4952   35.5918   40.9450 H   0  0  0  0  0  0  0  0  0  0  0  0
   40.4810   37.4983   39.6755 H   0  0  0  0  0  0  0  0  0  0  0  0
   39.8078   37.5514   41.3069 H   0  0  0  0  0  0  0  0  0  0  0  0
   42.2967   36.4455   40.5128 H   0  0  0  0  0  0  0  0  0  0  0  0
   41.5224   36.2519   42.1083 H   0  0  0  0  0  0  0  0  0  0  0  0
   40.8451   34.1059   41.6349 H   0  0  0  0  0  0  0  0  0  0  0  0
   42.0527   34.1517   40.3426 H   0  0  0  0  0  0  0  0  0  0  0  0
  1  6  1  0
  3  2  2  0
  4  3  1  0
  5  6  1  0
  5  4  2  0
  6  7  2  0
  7  2  1  0
  8 12  1  0
  8  1  1  0
  9  8  2  0
 10  9  1  0
 10 11  1  0
 11 12  2  0
 13 11  1  0
 13 14  1  0
 13 17  1  0
 14 15  1  0
 15 16  1  0
 17 16  1  0
  2 18  1  0
  3 19  1  0
  4 20  1  0
 13 21  1  0
 14 22  1  0
 14 23  1  0
 15 24  1  0
 15 25  1  0
 16 26  1  0
 16 27  1  0
 17 28  1  0
 17 29  1  0
M  ISO  8  18  14  19  14  20  14  21  13  22  13  23  13  24  13  25  13
M  ISO  4  26  13  27  13  28  13  29  13
M  END
>  <minimizedAffinity>  (1) 
-4.99983168

>  <minimizedRMSD>  (1) 
1.81683266

$$$$
