
     RDKit          3D

 28 30  0  0  0  0  0  0  0  0999 V2000
   37.0450   31.6600   40.5190 C   0  0  0  0  0  0  0  0  0  0  0  0
   36.8890   31.8170   39.1670 N   0  0  0  0  0  0  0  0  0  0  0  0
   37.7170   32.7620   38.7700 O   0  0  0  0  0  0  0  0  0  0  0  0
   38.3650   33.1840   39.8190 C   0  0  0  0  0  0  0  0  0  0  0  0
   37.9930   32.5390   40.9300 N   0  0  0  0  0  0  0  0  0  0  0  0
   39.3520   34.2110   39.7750 N   0  0  0  0  0  0  0  0  0  0  0  0
   39.1540   35.6430   39.9340 C   0  0  0  0  0  0  0  0  0  0  0  0
   40.1290   35.8810   41.0910 C   0  0  0  0  0  0  0  0  0  0  0  0
   41.3180   35.0460   40.6420 C   0  0  0  0  0  0  0  0  0  0  0  0
   40.7860   34.0950   39.5650 C   0  0  0  0  0  0  0  0  0  0  0  0
   36.3980   30.7890   41.3890 O   0  0  0  0  0  0  0  0  0  0  0  0
   38.7550   28.5630   43.0620 C   0  0  0  0  0  0  0  0  0  0  0  0
   38.1230   27.3420   42.7800 C   0  0  0  0  0  0  0  0  0  0  0  0
   36.9170   27.3620   42.0270 C   0  0  0  0  0  0  0  0  0  0  0  0
   36.4550   28.5750   41.6280 N   0  0  0  0  0  0  0  0  0  0  0  0
   37.0820   29.7170   41.9140 C   0  0  0  0  0  0  0  0  0  0  0  0
   38.2250   29.7190   42.6260 N   0  0  0  0  0  0  0  0  0  0  0  0
   39.4380   36.2033   39.0310 H   0  0  0  0  0  0  0  0  0  0  0  0
   38.1169   35.9648   40.1099 H   0  0  0  0  0  0  0  0  0  0  0  0
   40.3940   36.9445   41.1842 H   0  0  0  0  0  0  0  0  0  0  0  0
   39.7331   35.6120   42.0814 H   0  0  0  0  0  0  0  0  0  0  0  0
   42.1038   35.6934   40.2255 H   0  0  0  0  0  0  0  0  0  0  0  0
   41.7617   34.4931   41.4831 H   0  0  0  0  0  0  0  0  0  0  0  0
   41.1359   33.0648   39.7274 H   0  0  0  0  0  0  0  0  0  0  0  0
   41.1154   34.3372   38.5438 H   0  0  0  0  0  0  0  0  0  0  0  0
   39.6890   28.5742   43.6429 H   0  0  0  0  0  0  0  0  0  0  0  0
   38.5505   26.3920   43.1332 H   0  0  0  0  0  0  0  0  0  0  0  0
   36.3810   26.4342   41.7782 H   0  0  0  0  0  0  0  0  0  0  0  0
  1  5  1  0
  1 11  1  0
  2  1  2  0
  3  2  1  0
  3  4  1  0
  4  5  2  0
  6  4  1  0
  6  7  1  0
  7  8  1  0
  9  8  1  0
 10  6  1  0
 10  9  1  0
 11 16  1  0
 13 12  2  0
 14 13  1  0
 15 16  1  0
 15 14  2  0
 16 17  2  0
 17 12  1  0
  7 18  1  0
  7 19  1  0
  8 20  1  0
  8 21  1  0
  9 22  1  0
  9 23  1  0
 10 24  1  0
 10 25  1  0
 12 26  1  0
 13 27  1  0
 14 28  1  0
M  ISO  8  18  13  19  13  20  13  21  13  22  13  23  13  24  13  25  13
M  ISO  3  26  14  27  14  28  14
M  END
>  <minimizedAffinity>  (1) 
-4.99511337

>  <minimizedRMSD>  (1) 
1.41100514

$$$$
