
     RDKit          3D

 23 25  0  0  0  0  0  0  0  0999 V2000
   38.6620   28.7930   43.1400 C   0  0  0  0  0  0  0  0  0  0  0  0
   38.1300   27.5120   43.4390 C   0  0  0  0  0  0  0  0  0  0  0  0
   36.9030   27.1860   42.8340 C   0  0  0  0  0  0  0  0  0  0  0  0
   36.3020   28.0910   42.0150 N   0  0  0  0  0  0  0  0  0  0  0  0
   36.8520   29.2900   41.7660 C   0  0  0  0  0  0  0  0  0  0  0  0
   38.0300   29.6390   42.3290 N   0  0  0  0  0  0  0  0  0  0  0  0
   36.0500   30.0080   40.9140 O   0  0  0  0  0  0  0  0  0  0  0  0
   36.6060   31.0180   40.1410 C   0  0  0  0  0  0  0  0  0  0  0  0
   36.7770   31.0760   38.7850 N   0  0  0  0  0  0  0  0  0  0  0  0
   37.3480   32.2230   38.4820 O   0  0  0  0  0  0  0  0  0  0  0  0
   37.5360   32.8800   39.6090 C   0  0  0  0  0  0  0  0  0  0  0  0
   37.0870   32.1630   40.6570 N   0  0  0  0  0  0  0  0  0  0  0  0
   38.1600   34.2410   39.7470 C   0  0  0  0  0  0  0  0  0  0  0  0
   39.6960   34.2630   39.8100 C   0  0  0  0  0  0  0  0  0  0  0  0
   38.8480   34.6010   41.0030 C   0  0  0  0  0  0  0  0  0  0  0  0
   39.6198   29.0945   43.5891 H   0  0  0  0  0  0  0  0  0  0  0  0
   38.6498   26.8110   44.1086 H   0  0  0  0  0  0  0  0  0  0  0  0
   36.4338   26.2089   43.0211 H   0  0  0  0  0  0  0  0  0  0  0  0
   37.3743   34.7252   39.1485 H   0  0  0  0  0  0  0  0  0  0  0  0
   40.2663   33.3228   39.7827 H   0  0  0  0  0  0  0  0  0  0  0  0
   40.5014   34.7593   39.2487 H   0  0  0  0  0  0  0  0  0  0  0  0
   38.8092   35.6385   41.3664 H   0  0  0  0  0  0  0  0  0  0  0  0
   38.7982   34.2279   42.0366 H   0  0  0  0  0  0  0  0  0  0  0  0
  1  2  2  0
  3  2  1  0
  4  3  2  0
  5  4  1  0
  5  6  2  0
  6  1  1  0
  7  5  1  0
  8 12  1  0
  8  7  1  0
  9  8  2  0
 10  9  1  0
 10 11  1  0
 11 13  1  0
 11 12  2  0
 13 14  1  0
 13 15  1  0
 14 15  1  0
  1 16  1  0
  2 17  1  0
  3 18  1  0
 13 19  1  0
 14 20  1  0
 14 21  1  0
 15 22  1  0
 15 23  1  0
M  ISO  8  16  14  17  14  18  14  19  13  20  13  21  13  22  13  23  13
M  END
>  <minimizedAffinity>  (1) 
-4.32996988

>  <minimizedRMSD>  (1) 
0.626659334

$$$$
