
     RDKit          3D

 17 18  0  0  0  0  0  0  0  0999 V2000
   38.6880   28.8320   43.1200 C   0  0  0  0  0  0  0  0  0  0  0  0
   38.1910   27.5210   43.3430 C   0  0  0  0  0  0  0  0  0  0  0  0
   36.9480   27.1980   42.7370 C   0  0  0  0  0  0  0  0  0  0  0  0
   36.3110   28.1510   41.9870 N   0  0  0  0  0  0  0  0  0  0  0  0
   36.8440   29.3680   41.8210 C   0  0  0  0  0  0  0  0  0  0  0  0
   38.0230   29.7150   42.3790 N   0  0  0  0  0  0  0  0  0  0  0  0
   36.0160   30.1300   41.0330 O   0  0  0  0  0  0  0  0  0  0  0  0
   36.5540   31.0270   40.1250 C   0  0  0  0  0  0  0  0  0  0  0  0
   36.7280   30.8900   38.7850 N   0  0  0  0  0  0  0  0  0  0  0  0
   37.2770   31.9900   38.3110 O   0  0  0  0  0  0  0  0  0  0  0  0
   37.4450   32.7980   39.3220 C   0  0  0  0  0  0  0  0  0  0  0  0
   37.0100   32.2460   40.4800 N   0  0  0  0  0  0  0  0  0  0  0  0
   38.0050   34.0770   39.2290 O   0  0  0  0  0  0  0  0  0  0  0  0
   39.6473   29.1254   43.5713 H   0  0  0  0  0  0  0  0  0  0  0  0
   38.7416   26.7914   43.9550 H   0  0  0  0  0  0  0  0  0  0  0  0
   36.5044   26.1999   42.8676 H   0  0  0  0  0  0  0  0  0  0  0  0
   38.1014   34.6354   40.0408 H   0  0  0  0  0  0  0  0  0  0  0  0
  1  2  2  0
  3  2  1  0
  4  3  2  0
  5  4  1  0
  5  6  2  0
  6  1  1  0
  7  5  1  0
  8 12  1  0
  8  7  1  0
  9  8  2  0
 10  9  1  0
 10 11  1  0
 11 12  2  0
 13 11  1  0
  1 14  1  0
  2 15  1  0
  3 16  1  0
 13 17  1  0
M  ISO  4  14  14  15  14  16  14  17   3
M  END
>  <minimizedAffinity>  (1) 
-4.13051224

>  <minimizedRMSD>  (1) 
0.214239821

$$$$
