
     RDKit          3D

 18 19  0  0  0  0  0  0  0  0999 V2000
   38.6450   28.7950   43.1410 C   0  0  0  0  0  0  0  0  0  0  0  0
   38.1020   27.5500   43.4830 C   0  0  0  0  0  0  0  0  0  0  0  0
   36.8720   27.2180   42.8810 C   0  0  0  0  0  0  0  0  0  0  0  0
   36.2800   28.0930   42.0210 N   0  0  0  0  0  0  0  0  0  0  0  0
   36.8600   29.2780   41.7380 C   0  0  0  0  0  0  0  0  0  0  0  0
   38.0330   29.6310   42.2920 N   0  0  0  0  0  0  0  0  0  0  0  0
   36.0860   29.9860   40.8540 O   0  0  0  0  0  0  0  0  0  0  0  0
   36.6420   31.0390   40.1320 C   0  0  0  0  0  0  0  0  0  0  0  0
   36.8240   31.1890   38.7960 N   0  0  0  0  0  0  0  0  0  0  0  0
   37.3890   32.3530   38.5820 O   0  0  0  0  0  0  0  0  0  0  0  0
   37.5630   32.9230   39.7390 C   0  0  0  0  0  0  0  0  0  0  0  0
   37.1080   32.1360   40.7370 N   0  0  0  0  0  0  0  0  0  0  0  0
   38.1710   34.2430   39.8910 C   0  0  0  0  0  0  0  0  0  0  0  0
   38.8290   34.4620   40.9640 O   0  0  0  0  0  0  0  0  0  0  0  0
   39.6057   29.0961   43.5842 H   0  0  0  0  0  0  0  0  0  0  0  0
   38.6079   26.8689   44.1831 H   0  0  0  0  0  0  0  0  0  0  0  0
   36.3909   26.2545   43.1050 H   0  0  0  0  0  0  0  0  0  0  0  0
   38.0666   35.0152   39.1146 H   0  0  0  0  0  0  0  0  0  0  0  0
  1  2  2  0
  3  2  1  0
  4  3  2  0
  5  4  1  0
  5  6  2  0
  6  1  1  0
  7  5  1  0
  8 12  1  0
  8  7  1  0
  9  8  2  0
 10  9  1  0
 10 11  1  0
 11 13  1  0
 11 12  2  0
 13 14  2  0
  1 15  1  0
  2 16  1  0
  3 17  1  0
 13 18  1  0
M  ISO  4  15  14  16  14  17  14  18   6
M  END
>  <minimizedAffinity>  (1) 
-4.06448317

>  <minimizedRMSD>  (1) 
0.64218688

$$$$
