
     RDKit          3D

 39 43  0  0  0  0  0  0  0  0999 V2000
   38.6990   28.4830   43.2290 C   0  0  0  0  0  0  0  0  0  0  0  0
   38.4210   27.2710   42.5670 C   0  0  0  0  0  0  0  0  0  0  0  0
   37.4800   27.2820   41.5310 C   0  0  0  0  0  0  0  0  0  0  0  0
   36.9170   28.4800   41.2670 N   0  0  0  0  0  0  0  0  0  0  0  0
   37.1860   29.6090   41.8970 C   0  0  0  0  0  0  0  0  0  0  0  0
   38.0800   29.6070   42.8780 N   0  0  0  0  0  0  0  0  0  0  0  0
   37.0280   26.1130   40.8110 C   0  0  0  0  0  0  0  0  0  0  0  0
   37.1970   24.9190   41.5220 C   0  0  0  0  0  0  0  0  0  0  0  0
   36.8310   23.6890   41.0450 C   0  0  0  0  0  0  0  0  0  0  0  0
   36.2600   23.5530   39.8000 C   0  0  0  0  0  0  0  0  0  0  0  0
   36.0750   24.7050   39.0720 C   0  0  0  0  0  0  0  0  0  0  0  0
   35.4790   24.6880   37.8290 C   0  0  0  0  0  0  0  0  0  0  0  0
   35.2330   25.8330   37.0620 C   0  0  0  0  0  0  0  0  0  0  0  0
   35.6340   27.0460   37.6340 C   0  0  0  0  0  0  0  0  0  0  0  0
   36.2270   27.0520   38.8720 C   0  0  0  0  0  0  0  0  0  0  0  0
   36.4560   25.9130   39.5930 C   0  0  0  0  0  0  0  0  0  0  0  0
   36.4570   30.6700   41.4110 O   0  0  0  0  0  0  0  0  0  0  0  0
   37.0250   31.5670   40.5310 C   0  0  0  0  0  0  0  0  0  0  0  0
   36.8280   31.7740   39.2100 N   0  0  0  0  0  0  0  0  0  0  0  0
   37.6070   32.7500   38.8060 O   0  0  0  0  0  0  0  0  0  0  0  0
   38.2910   33.1600   39.8520 C   0  0  0  0  0  0  0  0  0  0  0  0
   37.9570   32.4520   40.9330 N   0  0  0  0  0  0  0  0  0  0  0  0
   39.2720   34.2420   39.8020 C   0  0  0  0  0  0  0  0  0  0  0  0
   39.0620   35.5510   40.1990 C   0  0  0  0  0  0  0  0  0  0  0  0
   40.2110   36.2880   40.0090 C   0  0  0  0  0  0  0  0  0  0  0  0
   41.1060   35.3670   39.4860 C   0  0  0  0  0  0  0  0  0  0  0  0
   40.4990   34.2230   39.3980 O   0  0  0  0  0  0  0  0  0  0  0  0
   39.4362   28.5002   44.0453 H   0  0  0  0  0  0  0  0  0  0  0  0
   38.9303   26.3401   42.8568 H   0  0  0  0  0  0  0  0  0  0  0  0
   37.6505   24.9722   42.5227 H   0  0  0  0  0  0  0  0  0  0  0  0
   36.9957   22.7961   41.6660 H   0  0  0  0  0  0  0  0  0  0  0  0
   35.9655   22.5692   39.4059 H   0  0  0  0  0  0  0  0  0  0  0  0
   35.1782   23.7146   37.4142 H   0  0  0  0  0  0  0  0  0  0  0  0
   34.7549   25.7826   36.0726 H   0  0  0  0  0  0  0  0  0  0  0  0
   35.4746   27.9907   37.0936 H   0  0  0  0  0  0  0  0  0  0  0  0
   36.5318   28.0168   39.3036 H   0  0  0  0  0  0  0  0  0  0  0  0
   38.1187   35.9445   40.6056 H   0  0  0  0  0  0  0  0  0  0  0  0
   40.3784   37.3542   40.2218 H   0  0  0  0  0  0  0  0  0  0  0  0
   42.1476   35.5702   39.1965 H   0  0  0  0  0  0  0  0  0  0  0  0
  2  1  2  0
  3  2  1  0
  4  3  2  0
  4  5  1  0
  5  6  2  0
  6  1  1  0
  7  8  2  0
  7  3  1  0
  9  8  1  0
 10  9  2  0
 11 16  2  0
 11 10  1  0
 12 11  1  0
 13 14  1  0
 13 12  2  0
 14 15  2  0
 15 16  1  0
 16  7  1  0
 17  5  1  0
 18 22  1  0
 18 17  1  0
 19 18  2  0
 20 19  1  0
 20 21  1  0
 21 22  2  0
 23 21  1  0
 23 24  2  0
 25 24  1  0
 26 25  2  0
 27 26  1  0
 27 23  1  0
  1 28  1  0
  2 29  1  0
  8 30  1  0
  9 31  1  0
 10 32  1  0
 12 33  1  0
 13 34  1  0
 14 35  1  0
 15 36  1  0
 24 37  1  0
 25 38  1  0
 26 39  1  0
M  ISO  8  28  14  29  14  30  14  31  14  32  14  33  14  34  14  35  14
M  ISO  4  36  14  37  14  38  14  39  14
M  END
>  <minimizedAffinity>  (1) 
-6.8875308

>  <minimizedRMSD>  (1) 
1.34593904

$$$$
