
     RDKit          3D

 38 41  0  0  0  0  0  0  0  0999 V2000
   38.8070   28.5180   43.2300 C   0  0  0  0  0  0  0  0  0  0  0  0
   38.4510   27.2410   42.7140 C   0  0  0  0  0  0  0  0  0  0  0  0
   37.4190   27.1810   41.7680 C   0  0  0  0  0  0  0  0  0  0  0  0
   36.8190   28.3330   41.3970 N   0  0  0  0  0  0  0  0  0  0  0  0
   37.1780   29.5160   41.9020 C   0  0  0  0  0  0  0  0  0  0  0  0
   38.1650   29.6210   42.8150 N   0  0  0  0  0  0  0  0  0  0  0  0
   36.9940   25.9520   41.1960 N   0  0  0  0  0  0  0  0  0  0  0  0
   36.7100   25.6980   39.8080 C   0  0  0  0  0  0  0  0  0  0  0  0
   37.5810   24.6260   39.2190 C   0  0  0  0  0  0  0  0  0  0  0  0
   38.0760   23.6110   40.1860 C   0  0  0  0  0  0  0  0  0  0  0  0
   37.9010   23.8440   41.6260 C   0  0  0  0  0  0  0  0  0  0  0  0
   36.8090   24.7870   42.0430 C   0  0  0  0  0  0  0  0  0  0  0  0
   36.4360   30.5400   41.3830 O   0  0  0  0  0  0  0  0  0  0  0  0
   36.9980   31.4540   40.5040 C   0  0  0  0  0  0  0  0  0  0  0  0
   36.8070   31.6700   39.1730 N   0  0  0  0  0  0  0  0  0  0  0  0
   37.5770   32.6560   38.7930 O   0  0  0  0  0  0  0  0  0  0  0  0
   38.2500   33.0660   39.8530 C   0  0  0  0  0  0  0  0  0  0  0  0
   37.9170   32.3470   40.9240 N   0  0  0  0  0  0  0  0  0  0  0  0
   39.2130   34.1580   39.8160 C   0  0  0  0  0  0  0  0  0  0  0  0
   38.9820   35.4760   40.1880 C   0  0  0  0  0  0  0  0  0  0  0  0
   40.1330   36.2040   40.0110 C   0  0  0  0  0  0  0  0  0  0  0  0
   41.0510   35.2910   39.5270 C   0  0  0  0  0  0  0  0  0  0  0  0
   40.4590   34.1310   39.4380 O   0  0  0  0  0  0  0  0  0  0  0  0
   39.6133   28.6018   43.9736 H   0  0  0  0  0  0  0  0  0  0  0  0
   38.9693   26.3297   43.0470 H   0  0  0  0  0  0  0  0  0  0  0  0
   35.6592   25.3859   39.7163 H   0  0  0  0  0  0  0  0  0  0  0  0
   36.9114   26.6273   39.2549 H   0  0  0  0  0  0  0  0  0  0  0  0
   37.0008   24.1035   38.4442 H   0  0  0  0  0  0  0  0  0  0  0  0
   38.4735   25.1374   38.8292 H   0  0  0  0  0  0  0  0  0  0  0  0
   37.5647   22.6663   39.9494 H   0  0  0  0  0  0  0  0  0  0  0  0
   39.1673   23.6319   40.0496 H   0  0  0  0  0  0  0  0  0  0  0  0
   37.6946   22.8709   42.0956 H   0  0  0  0  0  0  0  0  0  0  0  0
   38.8332   24.3306   41.9489 H   0  0  0  0  0  0  0  0  0  0  0  0
   36.9124   25.0571   43.1043 H   0  0  0  0  0  0  0  0  0  0  0  0
   35.8082   24.3439   41.9334 H   0  0  0  0  0  0  0  0  0  0  0  0
   38.0282   35.8738   40.5648 H   0  0  0  0  0  0  0  0  0  0  0  0
   40.2894   37.2745   40.2100 H   0  0  0  0  0  0  0  0  0  0  0  0
   42.0973   35.5045   39.2630 H   0  0  0  0  0  0  0  0  0  0  0  0
  2  1  2  0
  3  2  1  0
  4  3  2  0
  4  5  1  0
  5  6  2  0
  6  1  1  0
  7  3  1  0
  7 12  1  0
  8  7  1  0
  9  8  1  0
  9 10  1  0
 10 11  1  0
 11 12  1  0
 13  5  1  0
 14 18  1  0
 14 13  1  0
 15 14  2  0
 16 15  1  0
 16 17  1  0
 17 18  2  0
 19 17  1  0
 19 20  2  0
 21 20  1  0
 22 21  2  0
 23 22  1  0
 23 19  1  0
  1 24  1  0
  2 25  1  0
  8 26  1  0
  8 27  1  0
  9 28  1  0
  9 29  1  0
 10 30  1  0
 10 31  1  0
 11 32  1  0
 11 33  1  0
 12 34  1  0
 12 35  1  0
 20 36  1  0
 21 37  1  0
 22 38  1  0
M  ISO  8  24  14  25  14  26  13  27  13  28  13  29  13  30  13  31  13
M  ISO  7  32  13  33  13  34  13  35  13  36  14  37  14  38  14
M  END
>  <minimizedAffinity>  (1) 
-6.29928684

>  <minimizedRMSD>  (1) 
0.648975134

$$$$
