
     RDKit          3D

 34 38  0  0  0  0  0  0  0  0999 V2000
   39.8340   28.5720   43.0170 C   0  0  0  0  0  0  0  0  0  0  0  0
   39.4970   27.2450   42.6640 C   0  0  0  0  0  0  0  0  0  0  0  0
   38.2750   27.0390   41.9940 C   0  0  0  0  0  0  0  0  0  0  0  0
   37.5000   28.1350   41.7300 N   0  0  0  0  0  0  0  0  0  0  0  0
   37.8550   29.3630   42.0800 C   0  0  0  0  0  0  0  0  0  0  0  0
   39.0100   29.5850   42.7180 N   0  0  0  0  0  0  0  0  0  0  0  0
   37.8740   25.7070   41.6060 N   0  0  0  0  0  0  0  0  0  0  0  0
   36.8690   24.8950   41.9230 C   0  0  0  0  0  0  0  0  0  0  0  0
   37.0400   23.7490   41.2130 N   0  0  0  0  0  0  0  0  0  0  0  0
   38.1570   23.8560   40.4540 C   0  0  0  0  0  0  0  0  0  0  0  0
   38.6950   22.9240   39.5880 C   0  0  0  0  0  0  0  0  0  0  0  0
   39.8310   23.2750   38.9390 N   0  0  0  0  0  0  0  0  0  0  0  0
   40.3680   24.4900   39.1690 C   0  0  0  0  0  0  0  0  0  0  0  0
   39.8140   25.3510   40.0110 N   0  0  0  0  0  0  0  0  0  0  0  0
   38.6810   25.0990   40.7070 C   0  0  0  0  0  0  0  0  0  0  0  0
   36.9090   30.2890   41.7050 O   0  0  0  0  0  0  0  0  0  0  0  0
   37.2470   31.3070   40.8190 C   0  0  0  0  0  0  0  0  0  0  0  0
   36.7440   31.6550   39.5920 N   0  0  0  0  0  0  0  0  0  0  0  0
   37.4020   32.6950   39.1550 O   0  0  0  0  0  0  0  0  0  0  0  0
   38.3060   33.0170   40.0670 C   0  0  0  0  0  0  0  0  0  0  0  0
   38.2340   32.1790   41.1050 N   0  0  0  0  0  0  0  0  0  0  0  0
   39.2330   34.1370   39.9220 C   0  0  0  0  0  0  0  0  0  0  0  0
   38.9440   35.4730   40.2330 C   0  0  0  0  0  0  0  0  0  0  0  0
   40.0750   36.2300   39.9600 C   0  0  0  0  0  0  0  0  0  0  0  0
   41.0070   35.3070   39.4920 C   0  0  0  0  0  0  0  0  0  0  0  0
   40.4520   34.1390   39.5010 O   0  0  0  0  0  0  0  0  0  0  0  0
   40.7798   28.7741   43.5410 H   0  0  0  0  0  0  0  0  0  0  0  0
   40.1646   26.4042   42.9037 H   0  0  0  0  0  0  0  0  0  0  0  0
   36.0525   25.1108   42.6278 H   0  0  0  0  0  0  0  0  0  0  0  0
   38.2230   21.9426   39.4327 H   0  0  0  0  0  0  0  0  0  0  0  0
   41.2914   24.7748   38.6434 H   0  0  0  0  0  0  0  0  0  0  0  0
   37.9893   35.8542   40.6244 H   0  0  0  0  0  0  0  0  0  0  0  0
   40.2058   37.3150   40.0852 H   0  0  0  0  0  0  0  0  0  0  0  0
   42.0348   35.5320   39.1710 H   0  0  0  0  0  0  0  0  0  0  0  0
  2  1  2  0
  3  2  1  0
  4  3  2  0
  4  5  1  0
  5  6  2  0
  6  1  1  0
  7  8  1  0
  7  3  1  0
  9  8  2  0
 10 15  2  0
 10  9  1  0
 11 10  1  0
 12 13  1  0
 12 11  2  0
 13 14  2  0
 14 15  1  0
 15  7  1  0
 16  5  1  0
 17 21  1  0
 17 16  1  0
 18 17  2  0
 19 18  1  0
 19 20  1  0
 20 21  2  0
 22 20  1  0
 22 23  2  0
 24 23  1  0
 25 26  1  0
 25 24  2  0
 26 22  1  0
  1 27  1  0
  2 28  1  0
  8 29  1  0
 11 30  1  0
 13 31  1  0
 23 32  1  0
 24 33  1  0
 25 34  1  0
M  ISO  8  27  14  28  14  29  14  30  14  31  14  32  14  33  14  34  14
M  END
>  <minimizedAffinity>  (1) 
-6.26107025

>  <minimizedRMSD>  (1) 
1.27727818

$$$$
