
     RDKit          3D

 35 38  0  0  0  0  0  0  0  0999 V2000
   36.3380   30.5670   41.3510 O   0  0  0  0  0  0  0  0  0  0  0  0
   38.4960   28.3840   43.2830 C   0  0  0  0  0  0  0  0  0  0  0  0
   38.1810   27.1460   42.6490 C   0  0  0  0  0  0  0  0  0  0  0  0
   37.2440   27.1780   41.6030 C   0  0  0  0  0  0  0  0  0  0  0  0
   36.6930   28.3650   41.2530 N   0  0  0  0  0  0  0  0  0  0  0  0
   37.0190   29.5050   41.8760 C   0  0  0  0  0  0  0  0  0  0  0  0
   37.9140   29.5200   42.8850 N   0  0  0  0  0  0  0  0  0  0  0  0
   36.9370   25.9380   40.9780 N   0  0  0  0  0  0  0  0  0  0  0  0
   36.5490   25.8240   39.6080 C   0  0  0  0  0  0  0  0  0  0  0  0
   36.1030   24.3870   39.4660 C   0  0  0  0  0  0  0  0  0  0  0  0
   36.8360   23.6220   40.5460 C   0  0  0  0  0  0  0  0  0  0  0  0
   36.9800   24.6370   41.6530 C   0  0  0  0  0  0  0  0  0  0  0  0
   36.9690   31.4430   40.4750 C   0  0  0  0  0  0  0  0  0  0  0  0
   36.8670   31.6050   39.1340 N   0  0  0  0  0  0  0  0  0  0  0  0
   37.6650   32.5650   38.7530 O   0  0  0  0  0  0  0  0  0  0  0  0
   38.2760   33.0180   39.8370 C   0  0  0  0  0  0  0  0  0  0  0  0
   37.8630   32.3440   40.9050 N   0  0  0  0  0  0  0  0  0  0  0  0
   39.2510   34.1010   39.8160 C   0  0  0  0  0  0  0  0  0  0  0  0
   39.0290   35.4120   40.2190 C   0  0  0  0  0  0  0  0  0  0  0  0
   40.1890   36.1380   40.0510 C   0  0  0  0  0  0  0  0  0  0  0  0
   41.0950   35.2200   39.5410 C   0  0  0  0  0  0  0  0  0  0  0  0
   40.4990   34.0730   39.4300 O   0  0  0  0  0  0  0  0  0  0  0  0
   39.2244   28.4045   44.1070 H   0  0  0  0  0  0  0  0  0  0  0  0
   38.6527   26.2042   42.9662 H   0  0  0  0  0  0  0  0  0  0  0  0
   35.7230   26.5131   39.3780 H   0  0  0  0  0  0  0  0  0  0  0  0
   37.3649   26.0817   38.9167 H   0  0  0  0  0  0  0  0  0  0  0  0
   35.0154   24.3070   39.6102 H   0  0  0  0  0  0  0  0  0  0  0  0
   36.3260   23.9898   38.4647 H   0  0  0  0  0  0  0  0  0  0  0  0
   36.2495   22.7538   40.8812 H   0  0  0  0  0  0  0  0  0  0  0  0
   37.8001   23.2152   40.2067 H   0  0  0  0  0  0  0  0  0  0  0  0
   37.9376   24.5045   42.1778 H   0  0  0  0  0  0  0  0  0  0  0  0
   36.1903   24.5374   42.4122 H   0  0  0  0  0  0  0  0  0  0  0  0
   38.0797   35.8074   40.6096 H   0  0  0  0  0  0  0  0  0  0  0  0
   40.3575   37.2025   40.2712 H   0  0  0  0  0  0  0  0  0  0  0  0
   42.1418   35.4291   39.2755 H   0  0  0  0  0  0  0  0  0  0  0  0
  1  6  1  0
  3  2  2  0
  4  3  1  0
  5  4  2  0
  5  6  1  0
  6  7  2  0
  7  2  1  0
  8  4  1  0
  8 12  1  0
  9  8  1  0
 10  9  1  0
 10 11  1  0
 11 12  1  0
 13 17  1  0
 13  1  1  0
 14 13  2  0
 15 14  1  0
 15 16  1  0
 16 17  2  0
 18 16  1  0
 18 19  2  0
 20 19  1  0
 21 20  2  0
 22 21  1  0
 22 18  1  0
  2 23  1  0
  3 24  1  0
  9 25  1  0
  9 26  1  0
 10 27  1  0
 10 28  1  0
 11 29  1  0
 11 30  1  0
 12 31  1  0
 12 32  1  0
 19 33  1  0
 20 34  1  0
 21 35  1  0
M  ISO  8  23  14  24  14  25  13  26  13  27  13  28  13  29  13  30  13
M  ISO  5  31  13  32  13  33  14  34  14  35  14
M  END
>  <minimizedAffinity>  (1) 
-6.19320869

>  <minimizedRMSD>  (1) 
0.714485943

$$$$
