
     RDKit          3D

 36 39  0  0  0  0  0  0  0  0999 V2000
   36.3480   30.4000   41.3970 O   0  0  0  0  0  0  0  0  0  0  0  0
   38.6210   28.3500   43.3340 C   0  0  0  0  0  0  0  0  0  0  0  0
   38.3380   27.0840   42.7430 C   0  0  0  0  0  0  0  0  0  0  0  0
   37.3780   27.0550   41.7190 C   0  0  0  0  0  0  0  0  0  0  0  0
   36.7750   28.2060   41.3460 N   0  0  0  0  0  0  0  0  0  0  0  0
   37.0760   29.3770   41.9340 C   0  0  0  0  0  0  0  0  0  0  0  0
   37.9810   29.4560   42.9100 N   0  0  0  0  0  0  0  0  0  0  0  0
   37.0800   25.8070   41.1140 N   0  0  0  0  0  0  0  0  0  0  0  0
   36.9290   25.6390   39.7020 C   0  0  0  0  0  0  0  0  0  0  0  0
   36.1170   24.3760   39.4500 C   0  0  0  0  0  0  0  0  0  0  0  0
   36.7540   23.2510   39.9190 O   0  0  0  0  0  0  0  0  0  0  0  0
   37.5170   23.4430   41.0570 C   0  0  0  0  0  0  0  0  0  0  0  0
   36.9010   24.5780   41.8570 C   0  0  0  0  0  0  0  0  0  0  0  0
   36.9320   31.3100   40.5240 C   0  0  0  0  0  0  0  0  0  0  0  0
   36.7640   31.5100   39.1920 N   0  0  0  0  0  0  0  0  0  0  0  0
   37.5370   32.4880   38.8100 O   0  0  0  0  0  0  0  0  0  0  0  0
   38.1900   32.9120   39.8700 C   0  0  0  0  0  0  0  0  0  0  0  0
   37.8390   32.2050   40.9430 N   0  0  0  0  0  0  0  0  0  0  0  0
   39.1560   34.0030   39.8420 C   0  0  0  0  0  0  0  0  0  0  0  0
   38.9080   35.3210   40.2370 C   0  0  0  0  0  0  0  0  0  0  0  0
   40.0730   36.0530   40.0630 C   0  0  0  0  0  0  0  0  0  0  0  0
   40.9890   35.1440   39.5660 C   0  0  0  0  0  0  0  0  0  0  0  0
   40.4020   33.9900   39.4630 O   0  0  0  0  0  0  0  0  0  0  0  0
   39.3657   28.4236   44.1402 H   0  0  0  0  0  0  0  0  0  0  0  0
   38.8500   26.1688   43.0751 H   0  0  0  0  0  0  0  0  0  0  0  0
   36.4041   26.5082   39.2789 H   0  0  0  0  0  0  0  0  0  0  0  0
   37.9164   25.5538   39.2248 H   0  0  0  0  0  0  0  0  0  0  0  0
   35.1456   24.4714   39.9572 H   0  0  0  0  0  0  0  0  0  0  0  0
   35.9896   24.2656   38.3630 H   0  0  0  0  0  0  0  0  0  0  0  0
   37.5235   22.5232   41.6603 H   0  0  0  0  0  0  0  0  0  0  0  0
   38.5528   23.6911   40.7820 H   0  0  0  0  0  0  0  0  0  0  0  0
   37.4000   24.6580   42.8340 H   0  0  0  0  0  0  0  0  0  0  0  0
   35.8303   24.3876   42.0224 H   0  0  0  0  0  0  0  0  0  0  0  0
   37.9531   35.7104   40.6199 H   0  0  0  0  0  0  0  0  0  0  0  0
   40.2330   37.1207   40.2737 H   0  0  0  0  0  0  0  0  0  0  0  0
   42.0349   35.3610   39.3031 H   0  0  0  0  0  0  0  0  0  0  0  0
  1  6  1  0
  3  2  2  0
  4  3  1  0
  5  4  2  0
  5  6  1  0
  6  7  2  0
  7  2  1  0
  8  4  1  0
  8 13  1  0
  9  8  1  0
 10  9  1  0
 10 11  1  0
 11 12  1  0
 12 13  1  0
 14 18  1  0
 14  1  1  0
 15 14  2  0
 16 15  1  0
 16 17  1  0
 17 18  2  0
 19 17  1  0
 19 20  2  0
 21 20  1  0
 22 21  2  0
 23 22  1  0
 23 19  1  0
  2 24  1  0
  3 25  1  0
  9 26  1  0
  9 27  1  0
 10 28  1  0
 10 29  1  0
 12 30  1  0
 12 31  1  0
 13 32  1  0
 13 33  1  0
 20 34  1  0
 21 35  1  0
 22 36  1  0
M  ISO  8  24  14  25  14  26  13  27  13  28  13  29  13  30  13  31  13
M  ISO  5  32  13  33  13  34  14  35  14  36  14
M  END
>  <minimizedAffinity>  (1) 
-6.18836832

>  <minimizedRMSD>  (1) 
0.795768559

$$$$
