
     RDKit          3D

 36 39  0  0  0  0  0  0  0  0999 V2000
   36.3750   30.5690   41.3480 O   0  0  0  0  0  0  0  0  0  0  0  0
   38.6120   28.4450   43.2690 C   0  0  0  0  0  0  0  0  0  0  0  0
   38.2860   27.1930   42.6810 C   0  0  0  0  0  0  0  0  0  0  0  0
   37.3030   27.1770   41.6490 C   0  0  0  0  0  0  0  0  0  0  0  0
   36.7390   28.3710   41.2940 N   0  0  0  0  0  0  0  0  0  0  0  0
   37.0820   29.5140   41.8790 C   0  0  0  0  0  0  0  0  0  0  0  0
   38.0020   29.5580   42.8510 N   0  0  0  0  0  0  0  0  0  0  0  0
   36.9400   25.8760   41.0120 C   0  0  0  0  0  0  0  0  0  0  0  0
   37.8780   25.4530   39.9320 C   0  0  0  0  0  0  0  0  0  0  0  0
   38.7110   24.3180   40.4780 C   0  0  0  0  0  0  0  0  0  0  0  0
   38.2100   24.0020   41.8620 C   0  0  0  0  0  0  0  0  0  0  0  0
   36.9270   24.7580   42.0500 C   0  0  0  0  0  0  0  0  0  0  0  0
   36.9940   31.4710   40.4990 C   0  0  0  0  0  0  0  0  0  0  0  0
   36.8390   31.6630   39.1610 N   0  0  0  0  0  0  0  0  0  0  0  0
   37.6320   32.6330   38.7740 O   0  0  0  0  0  0  0  0  0  0  0  0
   38.2810   33.0480   39.8510 C   0  0  0  0  0  0  0  0  0  0  0  0
   37.9110   32.3560   40.9230 N   0  0  0  0  0  0  0  0  0  0  0  0
   39.2620   34.1260   39.8190 C   0  0  0  0  0  0  0  0  0  0  0  0
   39.0410   35.4430   40.2120 C   0  0  0  0  0  0  0  0  0  0  0  0
   40.2040   36.1610   40.0360 C   0  0  0  0  0  0  0  0  0  0  0  0
   41.1100   35.2320   39.5320 C   0  0  0  0  0  0  0  0  0  0  0  0
   40.5020   34.0840   39.4320 O   0  0  0  0  0  0  0  0  0  0  0  0
   39.3662   28.4979   44.0680 H   0  0  0  0  0  0  0  0  0  0  0  0
   38.7767   26.2657   43.0118 H   0  0  0  0  0  0  0  0  0  0  0  0
   35.9461   26.0431   40.5712 H   0  0  0  0  0  0  0  0  0  0  0  0
   38.5279   26.2937   39.6476 H   0  0  0  0  0  0  0  0  0  0  0  0
   37.3228   25.1328   39.0380 H   0  0  0  0  0  0  0  0  0  0  0  0
   38.6076   23.4338   39.8319 H   0  0  0  0  0  0  0  0  0  0  0  0
   39.7731   24.6025   40.5101 H   0  0  0  0  0  0  0  0  0  0  0  0
   38.0292   22.9214   41.9603 H   0  0  0  0  0  0  0  0  0  0  0  0
   38.9504   24.2919   42.6222 H   0  0  0  0  0  0  0  0  0  0  0  0
   36.8772   25.1795   43.0648 H   0  0  0  0  0  0  0  0  0  0  0  0
   36.0521   24.1031   41.9250 H   0  0  0  0  0  0  0  0  0  0  0  0
   38.0932   35.8448   40.5996 H   0  0  0  0  0  0  0  0  0  0  0  0
   40.3772   37.2268   40.2462 H   0  0  0  0  0  0  0  0  0  0  0  0
   42.1580   35.4325   39.2644 H   0  0  0  0  0  0  0  0  0  0  0  0
  1  6  1  0
  3  2  2  0
  4  3  1  0
  5  4  2  0
  5  6  1  0
  6  7  2  0
  7  2  1  0
  8  4  1  0
  8 12  1  0
  9 10  1  0
  9  8  1  0
 10 11  1  0
 11 12  1  0
 13 17  1  0
 13  1  1  0
 14 13  2  0
 15 14  1  0
 15 16  1  0
 16 17  2  0
 18 16  1  0
 18 19  2  0
 20 19  1  0
 21 20  2  0
 22 21  1  0
 22 18  1  0
  2 23  1  0
  3 24  1  0
  8 25  1  0
  9 26  1  0
  9 27  1  0
 10 28  1  0
 10 29  1  0
 11 30  1  0
 11 31  1  0
 12 32  1  0
 12 33  1  0
 19 34  1  0
 20 35  1  0
 21 36  1  0
M  ISO  8  23  14  24  14  25  13  26  13  27  13  28  13  29  13  30  13
M  ISO  6  31  13  32  13  33  13  34  14  35  14  36  14
M  END
>  <minimizedAffinity>  (1) 
-6.09862471

>  <minimizedRMSD>  (1) 
0.854582489

$$$$
