
     RDKit          3D

 30 32  0  0  0  0  0  0  0  0999 V2000
   38.1000   28.3160   43.5410 C   0  0  0  0  0  0  0  0  0  0  0  0
   38.0340   26.9840   43.0950 C   0  0  0  0  0  0  0  0  0  0  0  0
   37.2580   26.7080   41.9320 C   0  0  0  0  0  0  0  0  0  0  0  0
   36.6400   27.7650   41.3460 N   0  0  0  0  0  0  0  0  0  0  0  0
   36.7290   29.0140   41.8010 C   0  0  0  0  0  0  0  0  0  0  0  0
   37.4500   29.2870   42.8840 N   0  0  0  0  0  0  0  0  0  0  0  0
   37.1360   25.3780   41.4090 N   0  0  0  0  0  0  0  0  0  0  0  0
   38.0110   24.3330   41.8140 C   0  0  0  0  0  0  0  0  0  0  0  0
   38.9120   24.5600   42.6860 N   0  0  0  0  0  0  0  0  0  0  0  0
   37.8120   23.0500   41.1910 N   0  0  0  0  0  0  0  0  0  0  0  0
   39.5840   23.8260   43.0220 H   0  0  0  0  0  0  0  0  0  0  0  0
   36.0160   29.8950   41.0340 O   0  0  0  0  0  0  0  0  0  0  0  0
   36.6670   30.8140   40.2240 C   0  0  0  0  0  0  0  0  0  0  0  0
   36.6730   30.9890   38.8810 N   0  0  0  0  0  0  0  0  0  0  0  0
   37.4490   32.0010   38.5900 O   0  0  0  0  0  0  0  0  0  0  0  0
   37.9320   32.4650   39.7150 C   0  0  0  0  0  0  0  0  0  0  0  0
   37.4750   31.7620   40.7510 N   0  0  0  0  0  0  0  0  0  0  0  0
   38.8470   33.6050   39.7960 C   0  0  0  0  0  0  0  0  0  0  0  0
   38.5340   34.8800   40.2480 C   0  0  0  0  0  0  0  0  0  0  0  0
   39.6530   35.6800   40.1760 C   0  0  0  0  0  0  0  0  0  0  0  0
   40.6340   34.8280   39.6640 C   0  0  0  0  0  0  0  0  0  0  0  0
   40.1000   33.6720   39.4750 O   0  0  0  0  0  0  0  0  0  0  0  0
   38.6897   28.5631   44.4361 H   0  0  0  0  0  0  0  0  0  0  0  0
   38.5645   26.1805   43.6270 H   0  0  0  0  0  0  0  0  0  0  0  0
   36.3956   25.1747   40.7225 H   0  0  0  0  0  0  0  0  0  0  0  0
   38.4158   22.2551   41.4447 H   0  0  0  0  0  0  0  0  0  0  0  0
   37.0658   22.9273   40.4917 H   0  0  0  0  0  0  0  0  0  0  0  0
   37.5455   35.2015   40.6079 H   0  0  0  0  0  0  0  0  0  0  0  0
   39.7508   36.7394   40.4556 H   0  0  0  0  0  0  0  0  0  0  0  0
   41.6804   35.0977   39.4581 H   0  0  0  0  0  0  0  0  0  0  0  0
  2  1  2  0
  3  2  1  0
  4  5  1  0
  4  3  2  0
  5  6  2  0
  6  1  1  0
  7  8  1  0
  7  3  1  0
  8  9  2  0
  9 11  1  0
 10  8  1  0
 12  5  1  0
 13 17  1  0
 13 12  1  0
 14 13  2  0
 15 14  1  0
 15 16  1  0
 16 18  1  0
 16 17  2  0
 18 19  2  0
 20 19  1  0
 21 20  2  0
 22 21  1  0
 22 18  1  0
  1 23  1  0
  2 24  1  0
  7 25  1  0
 10 26  1  0
 10 27  1  0
 19 28  1  0
 20 29  1  0
 21 30  1  0
M  ISO  5  23  14  24  14  28  14  29  14  30  14
M  END
>  <minimizedAffinity>  (1) 
-6.00573826

>  <minimizedRMSD>  (1) 
0.858979344

$$$$
