
     RDKit          3D

 31 34  0  0  0  0  0  0  0  0999 V2000
   38.4930   28.3670   43.2510 C   0  0  0  0  0  0  0  0  0  0  0  0
   38.1670   27.1540   42.5790 C   0  0  0  0  0  0  0  0  0  0  0  0
   37.2350   27.2260   41.5310 C   0  0  0  0  0  0  0  0  0  0  0  0
   36.7060   28.4350   41.2240 N   0  0  0  0  0  0  0  0  0  0  0  0
   37.0460   29.5480   41.8890 C   0  0  0  0  0  0  0  0  0  0  0  0
   37.9280   29.5130   42.8890 N   0  0  0  0  0  0  0  0  0  0  0  0
   36.8950   25.9870   40.8350 C   0  0  0  0  0  0  0  0  0  0  0  0
   37.0020   24.7670   41.4680 C   0  0  0  0  0  0  0  0  0  0  0  0
   36.6440   23.6850   40.6770 C   0  0  0  0  0  0  0  0  0  0  0  0
   36.2270   23.8010   39.4050 N   0  0  0  0  0  0  0  0  0  0  0  0
   36.1360   25.0040   38.8280 C   0  0  0  0  0  0  0  0  0  0  0  0
   36.4770   26.1010   39.5630 N   0  0  0  0  0  0  0  0  0  0  0  0
   36.3680   30.6330   41.3810 O   0  0  0  0  0  0  0  0  0  0  0  0
   36.9970   31.5060   40.5210 C   0  0  0  0  0  0  0  0  0  0  0  0
   36.8630   31.6610   39.1800 N   0  0  0  0  0  0  0  0  0  0  0  0
   37.6640   32.6210   38.7780 O   0  0  0  0  0  0  0  0  0  0  0  0
   38.2900   33.0640   39.8380 C   0  0  0  0  0  0  0  0  0  0  0  0
   37.9020   32.4000   40.9280 N   0  0  0  0  0  0  0  0  0  0  0  0
   39.2780   34.1440   39.8060 C   0  0  0  0  0  0  0  0  0  0  0  0
   39.0730   35.4590   40.2070 C   0  0  0  0  0  0  0  0  0  0  0  0
   40.2280   36.1710   40.0290 C   0  0  0  0  0  0  0  0  0  0  0  0
   41.1270   35.2560   39.5150 C   0  0  0  0  0  0  0  0  0  0  0  0
   40.5160   34.1050   39.4100 O   0  0  0  0  0  0  0  0  0  0  0  0
   39.2192   28.3543   44.0771 H   0  0  0  0  0  0  0  0  0  0  0  0
   38.6274   26.1982   42.8697 H   0  0  0  0  0  0  0  0  0  0  0  0
   37.3414   24.6608   42.5089 H   0  0  0  0  0  0  0  0  0  0  0  0
   36.7048   22.6777   41.1148 H   0  0  0  0  0  0  0  0  0  0  0  0
   35.7948   25.1061   37.7872 H   0  0  0  0  0  0  0  0  0  0  0  0
   38.1307   35.8636   40.6048 H   0  0  0  0  0  0  0  0  0  0  0  0
   40.4021   37.2351   40.2467 H   0  0  0  0  0  0  0  0  0  0  0  0
   42.1729   35.4602   39.2422 H   0  0  0  0  0  0  0  0  0  0  0  0
  2  1  2  0
  3  2  1  0
  4  3  2  0
  4  5  1  0
  5  6  2  0
  6  1  1  0
  7  8  2  0
  7  3  1  0
  9  8  1  0
 10  9  2  0
 11 10  1  0
 11 12  2  0
 12  7  1  0
 13  5  1  0
 14 18  1  0
 14 13  1  0
 15 14  2  0
 16 15  1  0
 16 17  1  0
 17 18  2  0
 19 17  1  0
 19 20  2  0
 21 20  1  0
 22 21  2  0
 23 22  1  0
 23 19  1  0
  1 24  1  0
  2 25  1  0
  8 26  1  0
  9 27  1  0
 11 28  1  0
 20 29  1  0
 21 30  1  0
 22 31  1  0
M  ISO  8  24  14  25  14  26  14  27  14  28  14  29  14  30  14  31  14
M  END
>  <minimizedAffinity>  (1) 
-5.93715

>  <minimizedRMSD>  (1) 
0.848701417

$$$$
