
     RDKit          3D

 30 33  0  0  0  0  0  0  0  0999 V2000
   37.0570   31.2650   40.6520 C   0  0  0  0  0  0  0  0  0  0  0  0
   36.8200   31.4620   39.3210 N   0  0  0  0  0  0  0  0  0  0  0  0
   37.5490   32.4670   38.9110 O   0  0  0  0  0  0  0  0  0  0  0  0
   38.2350   32.9080   39.9350 C   0  0  0  0  0  0  0  0  0  0  0  0
   37.9540   32.1880   41.0250 N   0  0  0  0  0  0  0  0  0  0  0  0
   39.1680   34.0300   39.8710 C   0  0  0  0  0  0  0  0  0  0  0  0
   38.8890   35.3410   40.2400 C   0  0  0  0  0  0  0  0  0  0  0  0
   40.0080   36.1210   40.0440 C   0  0  0  0  0  0  0  0  0  0  0  0
   40.9550   35.2180   39.5450 C   0  0  0  0  0  0  0  0  0  0  0  0
   40.3980   34.0500   39.4770 O   0  0  0  0  0  0  0  0  0  0  0  0
   36.5320   30.3270   41.5440 O   0  0  0  0  0  0  0  0  0  0  0  0
   39.2050   28.4560   43.1150 C   0  0  0  0  0  0  0  0  0  0  0  0
   38.6570   27.1470   43.0320 C   0  0  0  0  0  0  0  0  0  0  0  0
   37.3920   27.0340   42.4280 C   0  0  0  0  0  0  0  0  0  0  0  0
   36.7810   28.1520   41.9720 N   0  0  0  0  0  0  0  0  0  0  0  0
   37.3370   29.3590   42.0740 C   0  0  0  0  0  0  0  0  0  0  0  0
   38.5500   29.5170   42.6440 N   0  0  0  0  0  0  0  0  0  0  0  0
   36.7810   25.6610   42.3240 C   0  0  0  0  0  0  0  0  0  0  0  0
   37.6110   24.4670   42.1390 C   0  0  0  0  0  0  0  0  0  0  0  0
   36.9850   25.0610   40.9350 C   0  0  0  0  0  0  0  0  0  0  0  0
   37.9245   35.7001   40.6283 H   0  0  0  0  0  0  0  0  0  0  0  0
   40.1288   37.1977   40.2344 H   0  0  0  0  0  0  0  0  0  0  0  0
   41.9901   35.4581   39.2606 H   0  0  0  0  0  0  0  0  0  0  0  0
   40.1925   28.5966   43.5787 H   0  0  0  0  0  0  0  0  0  0  0  0
   39.1940   26.2688   43.4197 H   0  0  0  0  0  0  0  0  0  0  0  0
   35.9694   25.8784   43.0339 H   0  0  0  0  0  0  0  0  0  0  0  0
   38.7003   24.5362   42.2751 H   0  0  0  0  0  0  0  0  0  0  0  0
   37.6098   23.4602   42.5822 H   0  0  0  0  0  0  0  0  0  0  0  0
   37.6022   25.5844   40.1899 H   0  0  0  0  0  0  0  0  0  0  0  0
   36.3293   24.7002   40.1288 H   0  0  0  0  0  0  0  0  0  0  0  0
  1  5  1  0
  1 11  1  0
  2  1  2  0
  3  2  1  0
  3  4  1  0
  4  5  2  0
  6  4  1  0
  6  7  2  0
  8  7  1  0
  9  8  2  0
 10  9  1  0
 10  6  1  0
 11 16  1  0
 13 12  2  0
 14 13  1  0
 15 16  1  0
 15 14  2  0
 16 17  2  0
 17 12  1  0
 18 14  1  0
 19 18  1  0
 20 19  1  0
 20 18  1  0
  7 21  1  0
  8 22  1  0
  9 23  1  0
 12 24  1  0
 13 25  1  0
 18 26  1  0
 19 27  1  0
 19 28  1  0
 20 29  1  0
 20 30  1  0
M  ISO  8  21  14  22  14  23  14  24  14  25  14  26  13  27  13  28  13
M  ISO  2  29  13  30  13
M  END
>  <minimizedAffinity>  (1) 
-5.72009563

>  <minimizedRMSD>  (1) 
0.790313303

$$$$
