
     RDKit          3D

 48 53  0  0  0  0  0  0  0  0999 V2000
   37.3490   28.4210   43.7700 C   0  0  0  0  0  0  0  0  0  0  0  0
   37.4410   27.0160   43.7190 C   0  0  0  0  0  0  0  0  0  0  0  0
   37.8650   26.4330   42.5290 C   0  0  0  0  0  0  0  0  0  0  0  0
   38.1650   27.2510   41.4820 N   0  0  0  0  0  0  0  0  0  0  0  0
   38.0660   28.5920   41.5600 C   0  0  0  0  0  0  0  0  0  0  0  0
   37.6600   29.1840   42.6970 N   0  0  0  0  0  0  0  0  0  0  0  0
   38.4070   29.3360   40.3970 N   0  0  0  0  0  0  0  0  0  0  0  0
   38.8350   28.7480   39.2700 C   0  0  0  0  0  0  0  0  0  0  0  0
   39.1220   29.6160   38.2370 C   0  0  0  0  0  0  0  0  0  0  0  0
   38.9940   30.9810   38.3120 C   0  0  0  0  0  0  0  0  0  0  0  0
   39.2590   31.7540   37.3590 O   0  0  0  0  0  0  0  0  0  0  0  0
   38.5600   31.5200   39.4670 N   0  0  0  0  0  0  0  0  0  0  0  0
   38.2640   30.6870   40.5190 C   0  0  0  0  0  0  0  0  0  0  0  0
   37.8600   31.2420   41.5830 O   0  0  0  0  0  0  0  0  0  0  0  0
   38.3950   32.9350   39.6380 C   0  0  0  0  0  0  0  0  0  0  0  0
   37.3510   33.8170   39.5000 C   0  0  0  0  0  0  0  0  0  0  0  0
   37.7980   35.0620   39.8030 N   0  0  0  0  0  0  0  0  0  0  0  0
   39.1050   34.9900   40.1300 C   0  0  0  0  0  0  0  0  0  0  0  0
   39.9860   35.9800   40.5070 C   0  0  0  0  0  0  0  0  0  0  0  0
   41.3180   35.6940   40.8090 C   0  0  0  0  0  0  0  0  0  0  0  0
   41.7180   34.3920   40.7170 C   0  0  0  0  0  0  0  0  0  0  0  0
   40.8230   33.4190   40.3390 C   0  0  0  0  0  0  0  0  0  0  0  0
   39.5070   33.6750   40.0370 C   0  0  0  0  0  0  0  0  0  0  0  0
   39.6030   29.0890   36.9470 C   0  0  0  0  0  0  0  0  0  0  0  0
   40.9310   28.5540   36.9630 N   0  0  0  0  0  0  0  0  0  0  0  0
   41.3560   27.2770   37.1550 C   0  0  0  0  0  0  0  0  0  0  0  0
   42.6790   27.2080   37.1000 N   0  0  0  0  0  0  0  0  0  0  0  0
   43.2100   28.4150   36.8700 C   0  0  0  0  0  0  0  0  0  0  0  0
   44.4760   28.9780   36.7100 C   0  0  0  0  0  0  0  0  0  0  0  0
   44.5510   30.2940   36.4840 N   0  0  0  0  0  0  0  0  0  0  0  0
   43.4640   31.0820   36.4080 C   0  0  0  0  0  0  0  0  0  0  0  0
   42.2210   30.5580   36.5600 N   0  0  0  0  0  0  0  0  0  0  0  0
   42.0890   29.2210   36.7920 C   0  0  0  0  0  0  0  0  0  0  0  0
   37.0181   28.9067   44.6998 H   0  0  0  0  0  0  0  0  0  0  0  0
   37.1855   26.3990   44.5931 H   0  0  0  0  0  0  0  0  0  0  0  0
   37.9555   25.3407   42.4362 H   0  0  0  0  0  0  0  0  0  0  0  0
   38.9484   27.6578   39.1767 H   0  0  0  0  0  0  0  0  0  0  0  0
   36.3262   33.5580   39.1955 H   0  0  0  0  0  0  0  0  0  0  0  0
   37.2316   35.9221   39.7861 H   0  0  0  0  0  0  0  0  0  0  0  0
   39.6314   37.0193   40.5714 H   0  0  0  0  0  0  0  0  0  0  0  0
   42.0186   36.4870   41.1096 H   0  0  0  0  0  0  0  0  0  0  0  0
   42.7591   34.1206   40.9459 H   0  0  0  0  0  0  0  0  0  0  0  0
   41.1794   32.3803   40.2749 H   0  0  0  0  0  0  0  0  0  0  0  0
   39.5751   29.9081   36.2133 H   0  0  0  0  0  0  0  0  0  0  0  0
   38.9391   28.2492   36.6942 H   0  0  0  0  0  0  0  0  0  0  0  0
   40.6924   26.4177   37.3319 H   0  0  0  0  0  0  0  0  0  0  0  0
   45.3837   28.3594   36.7678 H   0  0  0  0  0  0  0  0  0  0  0  0
   43.5830   32.1595   36.2212 H   0  0  0  0  0  0  0  0  0  0  0  0
  2  1  2  0
  3  2  1  0
  4  5  1  0
  4  3  2  0
  5  6  2  0
  6  1  1  0
  7 13  1  0
  7  5  1  0
  8  7  1  0
  9 10  1  0
  9  8  2  0
 10 12  1  0
 11 10  2  0
 12 15  1  0
 12 13  1  0
 13 14  2  0
 15 23  1  0
 16 15  2  0
 16 17  1  0
 17 18  1  0
 18 19  2  0
 19 20  1  0
 21 20  2  0
 22 21  1  0
 23 18  1  0
 23 22  2  0
 24 25  1  0
 24  9  1  0
 25 26  1  0
 27 26  2  0
 28 27  1  0
 29 28  2  0
 30 29  1  0
 31 30  2  0
 31 32  1  0
 32 33  2  0
 33 28  1  0
 33 25  1  0
  1 34  1  0
  2 35  1  0
  3 36  1  0
  8 37  1  0
 16 38  1  0
 17 39  1  0
 19 40  1  0
 20 41  1  0
 21 42  1  0
 22 43  1  0
 24 44  1  0
 24 45  1  0
 26 46  1  0
 29 47  1  0
 31 48  1  0
M  ISO  8  34  14  35  14  36  14  37  14  38  14  39   9  40  14  41  14
M  ISO  7  42  14  43  14  44   8  45   8  46  14  47  14  48  14
M  END
>  <minimizedAffinity>  (1) 
-6.78046608

>  <minimizedRMSD>  (1) 
2.18770075

$$$$
