
     RDKit          3D

 38 41  0  0  0  0  0  0  0  0999 V2000
   38.3590   28.2790   43.2320 C   0  0  0  0  0  0  0  0  0  0  0  0
   38.0870   27.1220   42.4580 C   0  0  0  0  0  0  0  0  0  0  0  0
   37.2330   27.2600   41.3640 C   0  0  0  0  0  0  0  0  0  0  0  0
   36.7170   28.4790   41.1100 N   0  0  0  0  0  0  0  0  0  0  0  0
   36.9830   29.5500   41.8470 C   0  0  0  0  0  0  0  0  0  0  0  0
   37.8130   29.4500   42.9180 N   0  0  0  0  0  0  0  0  0  0  0  0
   37.0060   26.0290   40.6270 C   0  0  0  0  0  0  0  0  0  0  0  0
   37.0150   24.7850   41.4560 C   0  0  0  0  0  0  0  0  0  0  0  0
   36.8330   23.5950   40.5860 C   0  0  0  0  0  0  0  0  0  0  0  0
   35.7680   23.3580   39.7510 C   0  0  0  0  0  0  0  0  0  0  0  0
   35.6970   22.2200   38.9840 C   0  0  0  0  0  0  0  0  0  0  0  0
   36.7420   21.3050   39.0790 C   0  0  0  0  0  0  0  0  0  0  0  0
   37.8040   21.5740   39.9300 C   0  0  0  0  0  0  0  0  0  0  0  0
   37.8440   22.6970   40.6680 N   0  0  0  0  0  0  0  0  0  0  0  0
   36.3400   30.6650   41.3840 O   0  0  0  0  0  0  0  0  0  0  0  0
   36.9830   31.5300   40.5060 C   0  0  0  0  0  0  0  0  0  0  0  0
   36.8720   31.6630   39.1470 N   0  0  0  0  0  0  0  0  0  0  0  0
   37.6870   32.6210   38.7610 O   0  0  0  0  0  0  0  0  0  0  0  0
   38.2900   33.0760   39.8380 C   0  0  0  0  0  0  0  0  0  0  0  0
   37.8780   32.4250   40.9190 N   0  0  0  0  0  0  0  0  0  0  0  0
   39.2750   34.1530   39.8070 C   0  0  0  0  0  0  0  0  0  0  0  0
   39.0790   35.4680   40.2080 C   0  0  0  0  0  0  0  0  0  0  0  0
   40.2430   36.1680   40.0240 C   0  0  0  0  0  0  0  0  0  0  0  0
   41.1350   35.2530   39.5090 C   0  0  0  0  0  0  0  0  0  0  0  0
   40.5210   34.1170   39.4080 O   0  0  0  0  0  0  0  0  0  0  0  0
   39.0289   28.2068   44.1015 H   0  0  0  0  0  0  0  0  0  0  0  0
   38.5341   26.1495   42.7118 H   0  0  0  0  0  0  0  0  0  0  0  0
   36.0258   26.1028   40.1332 H   0  0  0  0  0  0  0  0  0  0  0  0
   37.8447   25.9342   39.9216 H   0  0  0  0  0  0  0  0  0  0  0  0
   37.9763   24.7063   41.9848 H   0  0  0  0  0  0  0  0  0  0  0  0
   36.1919   24.8298   42.1843 H   0  0  0  0  0  0  0  0  0  0  0  0
   34.9539   24.0957   39.6952 H   0  0  0  0  0  0  0  0  0  0  0  0
   34.8419   22.0378   38.3164 H   0  0  0  0  0  0  0  0  0  0  0  0
   36.7257   20.3788   38.4857 H   0  0  0  0  0  0  0  0  0  0  0  0
   38.6314   20.8528   40.0025 H   0  0  0  0  0  0  0  0  0  0  0  0
   38.1414   35.8810   40.6085 H   0  0  0  0  0  0  0  0  0  0  0  0
   40.4255   37.2309   40.2407 H   0  0  0  0  0  0  0  0  0  0  0  0
   42.1811   35.4516   39.2330 H   0  0  0  0  0  0  0  0  0  0  0  0
  2  1  2  0
  3  2  1  0
  4  3  2  0
  4  5  1  0
  5  6  2  0
  6  1  1  0
  7  3  1  0
  7  8  1  0
  9 14  1  0
  9  8  1  0
 10  9  2  0
 11 12  2  0
 11 10  1  0
 12 13  1  0
 13 14  2  0
 15  5  1  0
 16 20  1  0
 16 15  1  0
 17 16  2  0
 18 17  1  0
 18 19  1  0
 19 20  2  0
 21 19  1  0
 21 22  2  0
 23 22  1  0
 24 23  2  0
 25 24  1  0
 25 21  1  0
  1 26  1  0
  2 27  1  0
  7 28  1  0
  7 29  1  0
  8 30  1  0
  8 31  1  0
 10 32  1  0
 11 33  1  0
 12 34  1  0
 13 35  1  0
 22 36  1  0
 23 37  1  0
 24 38  1  0
M  ISO  8  26  14  27  14  28   8  29   8  30   8  31   8  32  14  33  14
M  ISO  5  34  14  35  14  36  14  37  14  38  14
M  END
>  <minimizedAffinity>  (1) 
-5.95757818

>  <minimizedRMSD>  (1) 
0.454918176

$$$$
