
     RDKit          3D

 42 45  0  0  0  0  0  0  0  0999 V2000
   38.4060   28.3400   43.2510 C   0  0  0  0  0  0  0  0  0  0  0  0
   38.1470   27.1590   42.5200 C   0  0  0  0  0  0  0  0  0  0  0  0
   37.2660   27.2650   41.4280 C   0  0  0  0  0  0  0  0  0  0  0  0
   36.7440   28.4710   41.1620 N   0  0  0  0  0  0  0  0  0  0  0  0
   37.0030   29.5640   41.8590 C   0  0  0  0  0  0  0  0  0  0  0  0
   37.8500   29.4900   42.9220 N   0  0  0  0  0  0  0  0  0  0  0  0
   37.0500   26.0120   40.7240 C   0  0  0  0  0  0  0  0  0  0  0  0
   37.0230   24.8000   41.5940 C   0  0  0  0  0  0  0  0  0  0  0  0
   36.8090   23.5820   40.8860 N   0  0  0  0  0  0  0  0  0  0  0  0
   35.7930   23.5440   39.9130 C   0  0  0  0  0  0  0  0  0  0  0  0
   36.1520   22.4740   38.8770 C   0  0  0  0  0  0  0  0  0  0  0  0
   37.3570   22.9280   38.3140 O   0  0  0  0  0  0  0  0  0  0  0  0
   38.3570   22.6320   39.2150 C   0  0  0  0  0  0  0  0  0  0  0  0
   37.9850   22.8120   40.6400 C   0  0  0  0  0  0  0  0  0  0  0  0
   36.3450   30.6530   41.3770 O   0  0  0  0  0  0  0  0  0  0  0  0
   36.9880   31.5320   40.5110 C   0  0  0  0  0  0  0  0  0  0  0  0
   36.8570   31.6920   39.1700 N   0  0  0  0  0  0  0  0  0  0  0  0
   37.6680   32.6460   38.7750 O   0  0  0  0  0  0  0  0  0  0  0  0
   38.3050   33.0840   39.8510 C   0  0  0  0  0  0  0  0  0  0  0  0
   37.9020   32.4140   40.9190 N   0  0  0  0  0  0  0  0  0  0  0  0
   39.2950   34.1490   39.8100 C   0  0  0  0  0  0  0  0  0  0  0  0
   39.0820   35.4760   40.2050 C   0  0  0  0  0  0  0  0  0  0  0  0
   40.2300   36.1840   40.0250 C   0  0  0  0  0  0  0  0  0  0  0  0
   41.1350   35.2610   39.5170 C   0  0  0  0  0  0  0  0  0  0  0  0
   40.5300   34.1050   39.4170 O   0  0  0  0  0  0  0  0  0  0  0  0
   39.0868   28.2995   44.1141 H   0  0  0  0  0  0  0  0  0  0  0  0
   38.6128   26.2004   42.7921 H   0  0  0  0  0  0  0  0  0  0  0  0
   36.0859   26.0770   40.1983 H   0  0  0  0  0  0  0  0  0  0  0  0
   37.9074   25.8867   40.0463 H   0  0  0  0  0  0  0  0  0  0  0  0
   37.9870   24.7298   42.1192 H   0  0  0  0  0  0  0  0  0  0  0  0
   36.1732   24.9213   42.2819 H   0  0  0  0  0  0  0  0  0  0  0  0
   34.8332   23.2931   40.3883 H   0  0  0  0  0  0  0  0  0  0  0  0
   35.7016   24.5256   39.4250 H   0  0  0  0  0  0  0  0  0  0  0  0
   36.2914   21.4954   39.3595 H   0  0  0  0  0  0  0  0  0  0  0  0
   35.3619   22.3351   38.1244 H   0  0  0  0  0  0  0  0  0  0  0  0
   38.6500   21.5820   39.0680 H   0  0  0  0  0  0  0  0  0  0  0  0
   39.1727   23.3427   39.0162 H   0  0  0  0  0  0  0  0  0  0  0  0
   37.8316   21.8141   41.0766 H   0  0  0  0  0  0  0  0  0  0  0  0
   38.8115   23.3789   41.0934 H   0  0  0  0  0  0  0  0  0  0  0  0
   38.1377   35.8809   40.5979 H   0  0  0  0  0  0  0  0  0  0  0  0
   40.4028   37.2499   40.2350 H   0  0  0  0  0  0  0  0  0  0  0  0
   42.1809   35.4665   39.2453 H   0  0  0  0  0  0  0  0  0  0  0  0
  2  1  2  0
  3  2  1  0
  4  3  2  0
  4  5  1  0
  5  6  2  0
  6  1  1  0
  7  3  1  0
  7  8  1  0
  9  8  1  0
 10  9  1  0
 11 10  1  0
 12 11  1  0
 12 13  1  0
 13 14  1  0
 14  9  1  0
 15  5  1  0
 16 20  1  0
 16 15  1  0
 17 16  2  0
 18 17  1  0
 18 19  1  0
 19 20  2  0
 21 19  1  0
 21 22  2  0
 23 22  1  0
 24 23  2  0
 25 24  1  0
 25 21  1  0
  1 26  1  0
  2 27  1  0
  7 28  1  0
  7 29  1  0
  8 30  1  0
  8 31  1  0
 10 32  1  0
 10 33  1  0
 11 34  1  0
 11 35  1  0
 13 36  1  0
 13 37  1  0
 14 38  1  0
 14 39  1  0
 22 40  1  0
 23 41  1  0
 24 42  1  0
M  ISO  8  26  14  27  14  28   8  29   8  30   8  31   8  32  13  33  13
M  ISO  8  34  13  35  13  36  13  37  13  38  13  39  13  40  14  41  14
M  ISO  1  42  14
M  END
>  <minimizedAffinity>  (1) 
-5.6591959

>  <minimizedRMSD>  (1) 
0.423850149

$$$$
