
     RDKit          3D

 42 45  0  0  0  0  0  0  0  0999 V2000
   36.6400   31.1550   40.1440 C   0  0  0  0  0  0  0  0  0  0  0  0
   36.8490   31.3710   38.7970 N   0  0  0  0  0  0  0  0  0  0  0  0
   37.6310   32.4180   38.6660 O   0  0  0  0  0  0  0  0  0  0  0  0
   37.9110   32.8510   39.8630 C   0  0  0  0  0  0  0  0  0  0  0  0
   37.3190   32.1000   40.7980 N   0  0  0  0  0  0  0  0  0  0  0  0
   38.7610   34.0070   40.1330 C   0  0  0  0  0  0  0  0  0  0  0  0
   38.4810   35.3380   39.8740 C   0  0  0  0  0  0  0  0  0  0  0  0
   39.5390   36.1230   40.2760 C   0  0  0  0  0  0  0  0  0  0  0  0
   40.4550   35.2190   40.7790 C   0  0  0  0  0  0  0  0  0  0  0  0
   39.9630   34.0370   40.6720 O   0  0  0  0  0  0  0  0  0  0  0  0
   41.7160   35.6100   41.3110 N   0  0  0  0  0  0  0  0  0  0  0  0
   42.0190   36.7780   42.1040 C   0  0  0  0  0  0  0  0  0  0  0  0
   43.1250   36.3720   43.0540 C   0  0  0  0  0  0  0  0  0  0  0  0
   43.6470   35.0400   42.5570 C   0  0  0  0  0  0  0  0  0  0  0  0
   43.0010   34.9470   41.1940 C   0  0  0  0  0  0  0  0  0  0  0  0
   35.8850   30.1710   40.8000 O   0  0  0  0  0  0  0  0  0  0  0  0
   37.7980   28.0660   43.0750 C   0  0  0  0  0  0  0  0  0  0  0  0
   37.6740   26.8400   42.3510 C   0  0  0  0  0  0  0  0  0  0  0  0
   36.9570   26.8470   41.1720 C   0  0  0  0  0  0  0  0  0  0  0  0
   36.4170   28.0140   40.7700 N   0  0  0  0  0  0  0  0  0  0  0  0
   36.5290   29.1500   41.4340 C   0  0  0  0  0  0  0  0  0  0  0  0
   37.2220   29.1920   42.6000 N   0  0  0  0  0  0  0  0  0  0  0  0
   36.9070   25.5430   40.5490 C   0  0  0  0  0  0  0  0  0  0  0  0
   37.0160   24.3780   41.4400 C   0  0  0  0  0  0  0  0  0  0  0  0
   37.9160   22.9970   40.6440 S   0  0  0  0  0  0  0  0  0  0  0  0
   37.5534   35.7121   39.4162 H   0  0  0  0  0  0  0  0  0  0  0  0
   39.6330   37.2171   40.2115 H   0  0  0  0  0  0  0  0  0  0  0  0
   42.3562   37.6008   41.4565 H   0  0  0  0  0  0  0  0  0  0  0  0
   41.1321   37.1308   42.6508 H   0  0  0  0  0  0  0  0  0  0  0  0
   43.9288   37.1229   43.0454 H   0  0  0  0  0  0  0  0  0  0  0  0
   42.7555   36.2954   44.0873 H   0  0  0  0  0  0  0  0  0  0  0  0
   44.7444   35.0424   42.4813 H   0  0  0  0  0  0  0  0  0  0  0  0
   43.4143   34.1937   43.2201 H   0  0  0  0  0  0  0  0  0  0  0  0
   42.8624   33.8938   40.9084 H   0  0  0  0  0  0  0  0  0  0  0  0
   43.6262   35.4167   40.4204 H   0  0  0  0  0  0  0  0  0  0  0  0
   38.3623   28.0928   44.0188 H   0  0  0  0  0  0  0  0  0  0  0  0
   38.1380   25.9150   42.7239 H   0  0  0  0  0  0  0  0  0  0  0  0
   35.9481   25.4655   40.0156 H   0  0  0  0  0  0  0  0  0  0  0  0
   37.7976   25.4973   39.9050 H   0  0  0  0  0  0  0  0  0  0  0  0
   37.5547   24.6759   42.3516 H   0  0  0  0  0  0  0  0  0  0  0  0
   35.9991   24.0323   41.6775 H   0  0  0  0  0  0  0  0  0  0  0  0
   38.4472   22.1819   41.6086 H   0  0  0  0  0  0  0  0  0  0  0  0
  1  5  1  0
  1 16  1  0
  2  1  2  0
  3  2  1  0
  3  4  1  0
  4  6  1  0
  4  5  2  0
  6 10  1  0
  7  6  2  0
  7  8  1  0
  8  9  2  0
  9 11  1  0
 10  9  1  0
 11 12  1  0
 12 13  1  0
 14 13  1  0
 15 11  1  0
 15 14  1  0
 16 21  1  0
 18 17  2  0
 19 18  1  0
 20 19  2  0
 20 21  1  0
 21 22  2  0
 22 17  1  0
 23 19  1  0
 23 24  1  0
 25 24  1  0
  7 26  1  0
  8 27  1  0
 12 28  1  0
 12 29  1  0
 13 30  1  0
 13 31  1  0
 14 32  1  0
 14 33  1  0
 15 34  1  0
 15 35  1  0
 17 36  1  0
 18 37  1  0
 23 38  1  0
 23 39  1  0
 24 40  1  0
 24 41  1  0
 25 42  1  0
M  ISO  8  26  14  27  14  28  13  29  13  30  13  31  13  32  13  33  13
M  ISO  8  34  13  35  13  36  14  37  14  38   8  39   8  40   8  41   8
M  ISO  1  42  11
M  END
>  <minimizedAffinity>  (1) 
-6.18812418

>  <minimizedRMSD>  (1) 
1.46166253

$$$$
