
     RDKit          3D

 51 55  0  0  0  0  0  0  0  0999 V2000
   37.5020   28.6070   43.8360 C   0  0  0  0  0  0  0  0  0  0  0  0
   37.1420   27.2380   43.7640 C   0  0  0  0  0  0  0  0  0  0  0  0
   36.9410   26.6900   42.5050 C   0  0  0  0  0  0  0  0  0  0  0  0
   37.1000   27.4900   41.4150 N   0  0  0  0  0  0  0  0  0  0  0  0
   37.4420   28.7800   41.5120 C   0  0  0  0  0  0  0  0  0  0  0  0
   37.6420   29.3420   42.7170 N   0  0  0  0  0  0  0  0  0  0  0  0
   37.5800   29.5190   40.2950 N   0  0  0  0  0  0  0  0  0  0  0  0
   37.3910   28.9550   39.1060 C   0  0  0  0  0  0  0  0  0  0  0  0
   37.5590   29.7810   38.0250 C   0  0  0  0  0  0  0  0  0  0  0  0
   37.8990   31.1160   38.1180 C   0  0  0  0  0  0  0  0  0  0  0  0
   38.0540   31.8790   37.1320 O   0  0  0  0  0  0  0  0  0  0  0  0
   38.0780   31.6400   39.3550 N   0  0  0  0  0  0  0  0  0  0  0  0
   37.9170   30.8330   40.4480 C   0  0  0  0  0  0  0  0  0  0  0  0
   38.0930   31.3580   41.5840 O   0  0  0  0  0  0  0  0  0  0  0  0
   38.4340   33.0140   39.5690 C   0  0  0  0  0  0  0  0  0  0  0  0
   37.7410   34.1880   39.7060 C   0  0  0  0  0  0  0  0  0  0  0  0
   38.6110   35.1980   39.8910 N   0  0  0  0  0  0  0  0  0  0  0  0
   39.8770   34.6860   39.8770 C   0  0  0  0  0  0  0  0  0  0  0  0
   41.0960   35.3140   40.0240 C   0  0  0  0  0  0  0  0  0  0  0  0
   42.2840   34.6080   39.9790 C   0  0  0  0  0  0  0  0  0  0  0  0
   42.2060   33.2540   39.7800 C   0  0  0  0  0  0  0  0  0  0  0  0
   40.9860   32.6450   39.6350 C   0  0  0  0  0  0  0  0  0  0  0  0
   39.7870   33.3260   39.6770 C   0  0  0  0  0  0  0  0  0  0  0  0
   37.3850   29.3070   36.6420 C   0  0  0  0  0  0  0  0  0  0  0  0
   36.1020   29.5870   36.0890 N   0  0  0  0  0  0  0  0  0  0  0  0
   35.0260   28.9190   36.7570 C   0  0  0  0  0  0  0  0  0  0  0  0
   33.7320   28.9740   35.9880 C   0  0  0  0  0  0  0  0  0  0  0  0
   33.8650   28.4210   34.6580 N   0  0  0  0  0  0  0  0  0  0  0  0
   35.2490   28.0720   34.4080 C   0  0  0  0  0  0  0  0  0  0  0  0
   36.0980   29.2870   34.6740 C   0  0  0  0  0  0  0  0  0  0  0  0
   37.6689   29.0743   44.8177 H   0  0  0  0  0  0  0  0  0  0  0  0
   37.0260   26.6312   44.6741 H   0  0  0  0  0  0  0  0  0  0  0  0
   36.6595   25.6328   42.3903 H   0  0  0  0  0  0  0  0  0  0  0  0
   37.1177   27.8951   38.9969 H   0  0  0  0  0  0  0  0  0  0  0  0
   36.6462   34.2891   39.6704 H   0  0  0  0  0  0  0  0  0  0  0  0
   38.3638   36.1894   40.0211 H   0  0  0  0  0  0  0  0  0  0  0  0
   41.1238   36.4024   40.1808 H   0  0  0  0  0  0  0  0  0  0  0  0
   43.2538   35.1132   40.0982 H   0  0  0  0  0  0  0  0  0  0  0  0
   43.1264   32.6532   39.7364 H   0  0  0  0  0  0  0  0  0  0  0  0
   40.9621   31.5567   39.4769 H   0  0  0  0  0  0  0  0  0  0  0  0
   38.1459   29.7913   36.0124 H   0  0  0  0  0  0  0  0  0  0  0  0
   37.4884   28.2121   36.6662 H   0  0  0  0  0  0  0  0  0  0  0  0
   35.3036   27.8644   36.9012 H   0  0  0  0  0  0  0  0  0  0  0  0
   34.8621   29.4348   37.7146 H   0  0  0  0  0  0  0  0  0  0  0  0
   32.9694   28.4009   36.5357 H   0  0  0  0  0  0  0  0  0  0  0  0
   33.4423   30.0304   35.8880 H   0  0  0  0  0  0  0  0  0  0  0  0
   33.2798   27.5772   34.5784 H   0  0  0  0  0  0  0  0  0  0  0  0
   35.5526   27.2525   35.0761 H   0  0  0  0  0  0  0  0  0  0  0  0
   35.3747   27.7423   33.3661 H   0  0  0  0  0  0  0  0  0  0  0  0
   37.1278   29.0922   34.3399 H   0  0  0  0  0  0  0  0  0  0  0  0
   35.6836   30.1448   34.1240 H   0  0  0  0  0  0  0  0  0  0  0  0
  2  1  2  0
  3  2  1  0
  4  5  1  0
  4  3  2  0
  5  6  2  0
  6  1  1  0
  7 13  1  0
  7  5  1  0
  8  7  1  0
  9 10  1  0
  9  8  2  0
 10 12  1  0
 11 10  2  0
 12 15  1  0
 12 13  1  0
 13 14  2  0
 15 23  1  0
 15 16  2  0
 16 17  1  0
 18 17  1  0
 18 19  2  0
 20 19  1  0
 21 20  2  0
 22 23  2  0
 22 21  1  0
 23 18  1  0
 24  9  1  0
 25 24  1  0
 25 26  1  0
 27 26  1  0
 28 27  1  0
 29 28  1  0
 29 30  1  0
 30 25  1  0
  1 31  1  0
  2 32  1  0
  3 33  1  0
  8 34  1  0
 16 35  1  0
 17 36  1  0
 19 37  1  0
 20 38  1  0
 21 39  1  0
 22 40  1  0
 24 41  1  0
 24 42  1  0
 26 43  1  0
 26 44  1  0
 27 45  1  0
 27 46  1  0
 28 47  1  0
 29 48  1  0
 29 49  1  0
 30 50  1  0
 30 51  1  0
M  ISO  8  31  14  32  14  33  14  34  14  35  14  36   9  37  14  38  14
M  ISO  8  39  14  40  14  41   8  42   8  43  13  44  13  45  13  46  13
M  ISO  5  47   5  48  13  49  13  50  13  51  13
M  END
>  <minimizedAffinity>  (1) 
-6.62512255

>  <minimizedRMSD>  (1) 
0.572453558

$$$$
