
     RDKit          3D

 37 40  0  0  0  0  0  0  0  0999 V2000
   35.9960   30.3430   40.8520 O   0  0  0  0  0  0  0  0  0  0  0  0
   37.7670   28.1730   43.1750 C   0  0  0  0  0  0  0  0  0  0  0  0
   37.6470   26.9530   42.4400 C   0  0  0  0  0  0  0  0  0  0  0  0
   36.9770   26.9880   41.2320 C   0  0  0  0  0  0  0  0  0  0  0  0
   36.4770   28.1690   40.8170 N   0  0  0  0  0  0  0  0  0  0  0  0
   36.5910   29.2930   41.5010 C   0  0  0  0  0  0  0  0  0  0  0  0
   37.2370   29.3160   42.6880 N   0  0  0  0  0  0  0  0  0  0  0  0
   36.9260   25.6880   40.5980 C   0  0  0  0  0  0  0  0  0  0  0  0
   36.9530   24.5180   41.4890 C   0  0  0  0  0  0  0  0  0  0  0  0
   37.8440   23.1160   40.7230 S   0  0  0  0  0  0  0  0  0  0  0  0
   36.8010   31.3070   40.2210 C   0  0  0  0  0  0  0  0  0  0  0  0
   36.8990   31.6400   38.8960 N   0  0  0  0  0  0  0  0  0  0  0  0
   37.7910   32.6070   38.7810 O   0  0  0  0  0  0  0  0  0  0  0  0
   38.2390   32.8730   39.9940 C   0  0  0  0  0  0  0  0  0  0  0  0
   37.6530   32.0940   40.8950 N   0  0  0  0  0  0  0  0  0  0  0  0
   39.2440   33.8910   40.2620 C   0  0  0  0  0  0  0  0  0  0  0  0
   39.1190   35.2530   40.0900 C   0  0  0  0  0  0  0  0  0  0  0  0
   40.2690   35.8970   40.4460 C   0  0  0  0  0  0  0  0  0  0  0  0
   41.0890   34.8700   40.8360 C   0  0  0  0  0  0  0  0  0  0  0  0
   40.4560   33.7490   40.7110 O   0  0  0  0  0  0  0  0  0  0  0  0
   42.4780   35.0640   41.3180 C   0  0  0  0  0  0  0  0  0  0  0  0
   42.8910   35.8970   42.2640 C   0  0  0  0  0  0  0  0  0  0  0  0
   44.2090   35.9740   42.6120 C   0  0  0  0  0  0  0  0  0  0  0  0
   45.0760   35.0510   41.8310 C   0  0  0  0  0  0  0  0  0  0  0  0
   43.8250   34.2000   40.6940 S   0  0  0  0  0  0  0  0  0  0  0  0
   38.2930   28.1811   44.1410 H   0  0  0  0  0  0  0  0  0  0  0  0
   38.0748   26.0152   42.8241 H   0  0  0  0  0  0  0  0  0  0  0  0
   35.9967   25.6392   40.0115 H   0  0  0  0  0  0  0  0  0  0  0  0
   37.8485   25.6199   40.0027 H   0  0  0  0  0  0  0  0  0  0  0  0
   37.4581   24.7937   42.4265 H   0  0  0  0  0  0  0  0  0  0  0  0
   35.9160   24.2055   41.6815 H   0  0  0  0  0  0  0  0  0  0  0  0
   38.3565   22.3095   41.7047 H   0  0  0  0  0  0  0  0  0  0  0  0
   38.2139   35.7539   39.7160 H   0  0  0  0  0  0  0  0  0  0  0  0
   40.4847   36.9754   40.4250 H   0  0  0  0  0  0  0  0  0  0  0  0
   42.1585   36.5373   42.7774 H   0  0  0  0  0  0  0  0  0  0  0  0
   44.5912   36.6501   43.3910 H   0  0  0  0  0  0  0  0  0  0  0  0
   46.1638   34.9017   41.8973 H   0  0  0  0  0  0  0  0  0  0  0  0
  1  6  1  0
  3  2  2  0
  4  3  1  0
  5  4  2  0
  5  6  1  0
  6  7  2  0
  7  2  1  0
  8  4  1  0
  8  9  1  0
 10  9  1  0
 11  1  1  0
 11 15  1  0
 12 11  2  0
 13 12  1  0
 13 14  1  0
 14 16  1  0
 14 15  2  0
 16 20  1  0
 17 16  2  0
 17 18  1  0
 18 19  2  0
 19 21  1  0
 20 19  1  0
 21 22  2  0
 22 23  1  0
 24 23  2  0
 25 21  1  0
 25 24  1  0
  2 26  1  0
  3 27  1  0
  8 28  1  0
  8 29  1  0
  9 30  1  0
  9 31  1  0
 10 32  1  0
 17 33  1  0
 18 34  1  0
 22 35  1  0
 23 36  1  0
 24 37  1  0
M  ISO  8  26  14  27  14  28   8  29   8  30   8  31   8  32  11  33  14
M  ISO  4  34  14  35  14  36  14  37  14
M  END
>  <minimizedAffinity>  (1) 
-6.043396

>  <minimizedRMSD>  (1) 
1.37156451

$$$$
