
     RDKit          3D

 36 39  0  0  0  0  0  0  0  0999 V2000
   36.2150   30.4340   41.4060 O   0  0  0  0  0  0  0  0  0  0  0  0
   38.1810   28.0900   43.3810 C   0  0  0  0  0  0  0  0  0  0  0  0
   37.9350   26.9210   42.5960 C   0  0  0  0  0  0  0  0  0  0  0  0
   37.1290   27.0410   41.4800 C   0  0  0  0  0  0  0  0  0  0  0  0
   36.6240   28.2590   41.1980 N   0  0  0  0  0  0  0  0  0  0  0  0
   36.8490   29.3410   41.9210 C   0  0  0  0  0  0  0  0  0  0  0  0
   37.6330   29.2720   43.0250 N   0  0  0  0  0  0  0  0  0  0  0  0
   36.9640   25.7850   40.7870 C   0  0  0  0  0  0  0  0  0  0  0  0
   36.9850   24.5670   41.6090 C   0  0  0  0  0  0  0  0  0  0  0  0
   37.8190   23.1850   40.7500 S   0  0  0  0  0  0  0  0  0  0  0  0
   36.9190   31.2960   40.5540 C   0  0  0  0  0  0  0  0  0  0  0  0
   36.7190   31.5700   39.2150 N   0  0  0  0  0  0  0  0  0  0  0  0
   37.6260   32.4440   38.8350 O   0  0  0  0  0  0  0  0  0  0  0  0
   38.3650   32.7170   39.8730 C   0  0  0  0  0  0  0  0  0  0  0  0
   37.9610   32.0280   40.9540 N   0  0  0  0  0  0  0  0  0  0  0  0
   39.4820   33.6490   39.8510 C   0  0  0  0  0  0  0  0  0  0  0  0
   39.4620   35.0040   40.1010 C   0  0  0  0  0  0  0  0  0  0  0  0
   40.7220   35.5370   39.9810 C   0  0  0  0  0  0  0  0  0  0  0  0
   41.5070   34.4360   39.6470 C   0  0  0  0  0  0  0  0  0  0  0  0
   40.7520   33.4030   39.5890 O   0  0  0  0  0  0  0  0  0  0  0  0
   42.8990   34.2990   39.3830 N   0  0  0  0  0  0  0  0  0  0  0  0
   43.6560   34.2060   38.2630 C   0  0  0  0  0  0  0  0  0  0  0  0
   44.9520   34.0900   38.6060 N   0  0  0  0  0  0  0  0  0  0  0  0
   45.0040   34.1100   39.9470 C   0  0  0  0  0  0  0  0  0  0  0  0
   43.7330   34.2400   40.4120 N   0  0  0  0  0  0  0  0  0  0  0  0
   38.8173   28.0268   44.2760 H   0  0  0  0  0  0  0  0  0  0  0  0
   38.3755   25.9518   42.8729 H   0  0  0  0  0  0  0  0  0  0  0  0
   35.9963   25.8176   40.2650 H   0  0  0  0  0  0  0  0  0  0  0  0
   37.8408   25.7026   40.1278 H   0  0  0  0  0  0  0  0  0  0  0  0
   37.5202   24.7788   42.5464 H   0  0  0  0  0  0  0  0  0  0  0  0
   35.9448   24.2694   41.8073 H   0  0  0  0  0  0  0  0  0  0  0  0
   38.3408   22.3203   41.6757 H   0  0  0  0  0  0  0  0  0  0  0  0
   38.5612   35.5793   40.3608 H   0  0  0  0  0  0  0  0  0  0  0  0
   41.0359   36.5825   40.1162 H   0  0  0  0  0  0  0  0  0  0  0  0
   43.2707   34.2227   37.2328 H   0  0  0  0  0  0  0  0  0  0  0  0
   45.9136   34.0346   40.5610 H   0  0  0  0  0  0  0  0  0  0  0  0
  1  6  1  0
  3  2  2  0
  4  3  1  0
  5  4  2  0
  5  6  1  0
  6  7  2  0
  7  2  1  0
  8  4  1  0
  8  9  1  0
 10  9  1  0
 11 15  1  0
 11  1  1  0
 12 11  2  0
 13 12  1  0
 13 14  1  0
 14 15  2  0
 16 14  1  0
 16 17  2  0
 18 17  1  0
 19 18  2  0
 20 19  1  0
 20 16  1  0
 21 19  1  0
 21 25  1  0
 22 23  2  0
 22 21  1  0
 23 24  1  0
 24 25  2  0
  2 26  1  0
  3 27  1  0
  8 28  1  0
  8 29  1  0
  9 30  1  0
  9 31  1  0
 10 32  1  0
 17 33  1  0
 18 34  1  0
 22 35  1  0
 24 36  1  0
M  ISO  8  26  14  27  14  28   8  29   8  30   8  31   8  32  11  33  14
M  ISO  3  34  14  35  14  36  14
M  END
>  <minimizedAffinity>  (1) 
-5.65701389

>  <minimizedRMSD>  (1) 
0.683596075

$$$$
