
     RDKit          3D

 31 33  0  0  0  0  0  0  0  0999 V2000
   38.0750   28.1640   43.2850 C   0  0  0  0  0  0  0  0  0  0  0  0
   37.8700   26.9580   42.5420 C   0  0  0  0  0  0  0  0  0  0  0  0
   37.0760   27.0150   41.4140 C   0  0  0  0  0  0  0  0  0  0  0  0
   36.5430   28.2090   41.0790 N   0  0  0  0  0  0  0  0  0  0  0  0
   36.7300   29.3250   41.7630 C   0  0  0  0  0  0  0  0  0  0  0  0
   37.5010   29.3180   42.8790 N   0  0  0  0  0  0  0  0  0  0  0  0
   36.9540   25.7330   40.7640 C   0  0  0  0  0  0  0  0  0  0  0  0
   37.0360   24.5440   41.6270 C   0  0  0  0  0  0  0  0  0  0  0  0
   37.8230   23.1410   40.7590 S   0  0  0  0  0  0  0  0  0  0  0  0
   36.0750   30.3820   41.2020 O   0  0  0  0  0  0  0  0  0  0  0  0
   36.7840   31.2640   40.3690 C   0  0  0  0  0  0  0  0  0  0  0  0
   36.7880   31.3760   38.9910 N   0  0  0  0  0  0  0  0  0  0  0  0
   37.6060   32.3450   38.6620 O   0  0  0  0  0  0  0  0  0  0  0  0
   38.1030   32.8330   39.7640 C   0  0  0  0  0  0  0  0  0  0  0  0
   37.6170   32.1890   40.8390 N   0  0  0  0  0  0  0  0  0  0  0  0
   39.0580   33.9320   39.8110 C   0  0  0  0  0  0  0  0  0  0  0  0
   38.8790   35.1960   40.3240 C   0  0  0  0  0  0  0  0  0  0  0  0
   40.0110   35.9460   40.1850 C   0  0  0  0  0  0  0  0  0  0  0  0
   40.8940   35.0820   39.5620 C   0  0  0  0  0  0  0  0  0  0  0  0
   40.3040   33.9600   39.3750 O   0  0  0  0  0  0  0  0  0  0  0  0
   42.2080   35.4060   39.2060 O   0  0  0  0  0  0  0  0  0  0  0  0
   38.7015   28.1515   44.1890 H   0  0  0  0  0  0  0  0  0  0  0  0
   38.3322   26.0121   42.8608 H   0  0  0  0  0  0  0  0  0  0  0  0
   35.9792   25.7088   40.2550 H   0  0  0  0  0  0  0  0  0  0  0  0
   37.8239   25.6646   40.0942 H   0  0  0  0  0  0  0  0  0  0  0  0
   37.6293   24.7904   42.5199 H   0  0  0  0  0  0  0  0  0  0  0  0
   36.0139   24.2483   41.9061 H   0  0  0  0  0  0  0  0  0  0  0  0
   38.3197   22.2555   41.6789 H   0  0  0  0  0  0  0  0  0  0  0  0
   37.9470   35.5547   40.7851 H   0  0  0  0  0  0  0  0  0  0  0  0
   40.1806   36.9879   40.4943 H   0  0  0  0  0  0  0  0  0  0  0  0
   42.7809   34.7320   38.7615 H   0  0  0  0  0  0  0  0  0  0  0  0
  2  1  2  0
  3  2  1  0
  4  3  2  0
  4  5  1  0
  5  6  2  0
  6  1  1  0
  7  3  1  0
  7  8  1  0
  9  8  1  0
 10  5  1  0
 11 15  1  0
 11 10  1  0
 12 11  2  0
 13 12  1  0
 13 14  1  0
 14 16  1  0
 14 15  2  0
 16 17  2  0
 18 17  1  0
 19 18  2  0
 20 19  1  0
 20 16  1  0
 21 19  1  0
  1 22  1  0
  2 23  1  0
  7 24  1  0
  7 25  1  0
  8 26  1  0
  8 27  1  0
  9 28  1  0
 17 29  1  0
 18 30  1  0
 21 31  1  0
M  ISO  8  22  14  23  14  24   8  25   8  26   8  27   8  28  11  29  14
M  ISO  2  30  14  31   3
M  END
>  <minimizedAffinity>  (1) 
-5.6117878

>  <minimizedRMSD>  (1) 
0.0936643779

$$$$
