
     RDKit          3D

 37 40  0  0  0  0  0  0  0  0999 V2000
   37.0420   31.3790   40.5650 C   0  0  0  0  0  0  0  0  0  0  0  0
   36.8280   31.7460   39.2500 N   0  0  0  0  0  0  0  0  0  0  0  0
   37.7860   32.5770   38.8930 O   0  0  0  0  0  0  0  0  0  0  0  0
   38.5690   32.7320   39.9230 C   0  0  0  0  0  0  0  0  0  0  0  0
   38.1410   32.0110   40.9680 N   0  0  0  0  0  0  0  0  0  0  0  0
   39.7520   33.5860   39.9180 C   0  0  0  0  0  0  0  0  0  0  0  0
   39.7890   34.9650   40.0110 C   0  0  0  0  0  0  0  0  0  0  0  0
   41.0980   35.4010   39.9710 C   0  0  0  0  0  0  0  0  0  0  0  0
   41.8350   34.2360   39.8520 C   0  0  0  0  0  0  0  0  0  0  0  0
   41.0190   33.2390   39.8270 O   0  0  0  0  0  0  0  0  0  0  0  0
   43.2570   34.2190   39.7750 N   0  0  0  0  0  0  0  0  0  0  0  0
   43.8760   34.1310   38.6010 N   0  0  0  0  0  0  0  0  0  0  0  0
   45.2230   34.1350   38.8160 C   0  0  0  0  0  0  0  0  0  0  0  0
   45.4200   34.2300   40.1940 C   0  0  0  0  0  0  0  0  0  0  0  0
   44.1630   34.2820   40.7860 C   0  0  0  0  0  0  0  0  0  0  0  0
   36.3010   30.5210   41.3850 O   0  0  0  0  0  0  0  0  0  0  0  0
   38.1940   28.1390   43.3870 C   0  0  0  0  0  0  0  0  0  0  0  0
   37.9330   26.9730   42.6030 C   0  0  0  0  0  0  0  0  0  0  0  0
   37.1430   27.1040   41.4780 C   0  0  0  0  0  0  0  0  0  0  0  0
   36.6670   28.3360   41.1880 N   0  0  0  0  0  0  0  0  0  0  0  0
   36.9050   29.4170   41.9090 C   0  0  0  0  0  0  0  0  0  0  0  0
   37.6740   29.3320   43.0220 N   0  0  0  0  0  0  0  0  0  0  0  0
   36.9580   25.8570   40.7780 C   0  0  0  0  0  0  0  0  0  0  0  0
   36.9630   24.6330   41.5960 C   0  0  0  0  0  0  0  0  0  0  0  0
   37.8350   23.2600   40.7550 S   0  0  0  0  0  0  0  0  0  0  0  0
   38.9077   35.6167   40.1030 H   0  0  0  0  0  0  0  0  0  0  0  0
   41.4693   36.4352   40.0219 H   0  0  0  0  0  0  0  0  0  0  0  0
   46.0072   34.0746   38.0469 H   0  0  0  0  0  0  0  0  0  0  0  0
   46.3886   34.2584   40.7146 H   0  0  0  0  0  0  0  0  0  0  0  0
   43.9447   34.3590   41.8614 H   0  0  0  0  0  0  0  0  0  0  0  0
   38.8192   28.0654   44.2891 H   0  0  0  0  0  0  0  0  0  0  0  0
   38.3507   25.9962   42.8884 H   0  0  0  0  0  0  0  0  0  0  0  0
   35.9897   25.9068   40.2584 H   0  0  0  0  0  0  0  0  0  0  0  0
   37.8308   25.7653   40.1148 H   0  0  0  0  0  0  0  0  0  0  0  0
   37.4674   24.8442   42.5504 H   0  0  0  0  0  0  0  0  0  0  0  0
   35.9195   24.3265   41.7610 H   0  0  0  0  0  0  0  0  0  0  0  0
   38.3705   22.4168   41.6926 H   0  0  0  0  0  0  0  0  0  0  0  0
  1  5  1  0
  1 16  1  0
  2  1  2  0
  3  2  1  0
  3  4  1  0
  4  5  2  0
  6  4  1  0
  6  7  2  0
  8  7  1  0
  9  8  2  0
 10  9  1  0
 10  6  1  0
 11  9  1  0
 11 15  1  0
 12 13  2  0
 12 11  1  0
 13 14  1  0
 14 15  2  0
 16 21  1  0
 18 17  2  0
 19 18  1  0
 20 19  2  0
 20 21  1  0
 21 22  2  0
 22 17  1  0
 23 19  1  0
 23 24  1  0
 25 24  1  0
  7 26  1  0
  8 27  1  0
 13 28  1  0
 14 29  1  0
 15 30  1  0
 17 31  1  0
 18 32  1  0
 23 33  1  0
 23 34  1  0
 24 35  1  0
 24 36  1  0
 25 37  1  0
M  ISO  8  26  14  27  14  28  14  29  14  30  14  31  14  32  14  33   8
M  ISO  4  34   8  35   8  36   8  37  11
M  END
>  <minimizedAffinity>  (1) 
-5.60048723

>  <minimizedRMSD>  (1) 
0.994890571

$$$$
