
     RDKit          3D

 35 38  0  0  0  0  0  0  0  0999 V2000
   36.9410   31.2780   40.5370 C   0  0  0  0  0  0  0  0  0  0  0  0
   36.7400   31.5920   39.2070 N   0  0  0  0  0  0  0  0  0  0  0  0
   37.6830   32.4220   38.8420 O   0  0  0  0  0  0  0  0  0  0  0  0
   38.4600   32.6370   39.8920 C   0  0  0  0  0  0  0  0  0  0  0  0
   38.0290   31.9490   40.9430 N   0  0  0  0  0  0  0  0  0  0  0  0
   39.6130   33.5120   39.8470 C   0  0  0  0  0  0  0  0  0  0  0  0
   39.6350   34.8790   40.0150 C   0  0  0  0  0  0  0  0  0  0  0  0
   40.9170   35.3460   39.9020 C   0  0  0  0  0  0  0  0  0  0  0  0
   41.6710   34.2220   39.6610 C   0  0  0  0  0  0  0  0  0  0  0  0
   40.8760   33.1900   39.6390 O   0  0  0  0  0  0  0  0  0  0  0  0
   43.1210   34.2100   39.4660 C   0  0  0  0  0  0  0  0  0  0  0  0
   43.8160   34.2300   38.3130 N   0  0  0  0  0  0  0  0  0  0  0  0
   45.0990   34.2090   38.5270 O   0  0  0  0  0  0  0  0  0  0  0  0
   45.2620   34.1740   39.8170 C   0  0  0  0  0  0  0  0  0  0  0  0
   44.0670   34.1730   40.4430 N   0  0  0  0  0  0  0  0  0  0  0  0
   36.2160   30.4370   41.4000 O   0  0  0  0  0  0  0  0  0  0  0  0
   38.0970   28.0820   43.4330 C   0  0  0  0  0  0  0  0  0  0  0  0
   37.8790   26.9090   42.6410 C   0  0  0  0  0  0  0  0  0  0  0  0
   37.1150   27.0340   41.4970 C   0  0  0  0  0  0  0  0  0  0  0  0
   36.6180   28.2540   41.1910 N   0  0  0  0  0  0  0  0  0  0  0  0
   36.8250   29.3340   41.9270 C   0  0  0  0  0  0  0  0  0  0  0  0
   37.5660   29.2670   43.0590 N   0  0  0  0  0  0  0  0  0  0  0  0
   36.9700   25.7850   40.7880 C   0  0  0  0  0  0  0  0  0  0  0  0
   36.9860   24.5600   41.6080 C   0  0  0  0  0  0  0  0  0  0  0  0
   37.8150   23.1770   40.7450 S   0  0  0  0  0  0  0  0  0  0  0  0
   38.7515   35.5042   40.2113 H   0  0  0  0  0  0  0  0  0  0  0  0
   41.2652   36.3861   39.9853 H   0  0  0  0  0  0  0  0  0  0  0  0
   46.2369   34.1488   40.3258 H   0  0  0  0  0  0  0  0  0  0  0  0
   38.7000   28.0181   44.3508 H   0  0  0  0  0  0  0  0  0  0  0  0
   38.3065   25.9389   42.9344 H   0  0  0  0  0  0  0  0  0  0  0  0
   36.0111   25.8150   40.2499 H   0  0  0  0  0  0  0  0  0  0  0  0
   37.8548   25.7133   40.1385 H   0  0  0  0  0  0  0  0  0  0  0  0
   37.5215   24.7665   42.5464 H   0  0  0  0  0  0  0  0  0  0  0  0
   35.9444   24.2658   41.8042 H   0  0  0  0  0  0  0  0  0  0  0  0
   38.3354   22.3089   41.6683 H   0  0  0  0  0  0  0  0  0  0  0  0
  1  5  1  0
  1 16  1  0
  2  1  2  0
  3  2  1  0
  3  4  1  0
  4  5  2  0
  6  4  1  0
  6  7  2  0
  8  7  1  0
  9  8  2  0
 10  9  1  0
 10  6  1  0
 11  9  1  0
 11 15  1  0
 12 13  1  0
 12 11  2  0
 13 14  1  0
 14 15  2  0
 16 21  1  0
 18 17  2  0
 19 18  1  0
 20 19  2  0
 20 21  1  0
 21 22  2  0
 22 17  1  0
 23 19  1  0
 23 24  1  0
 25 24  1  0
  7 26  1  0
  8 27  1  0
 14 28  1  0
 17 29  1  0
 18 30  1  0
 23 31  1  0
 23 32  1  0
 24 33  1  0
 24 34  1  0
 25 35  1  0
M  ISO  8  26  14  27  14  28  14  29  14  30  14  31   8  32   8  33   8
M  ISO  2  34   8  35  11
M  END
>  <minimizedAffinity>  (1) 
-5.5507679

>  <minimizedRMSD>  (1) 
0.901374638

$$$$
