
     RDKit          3D

 31 33  0  0  0  0  0  0  0  0999 V2000
   38.2620   28.0270   43.4480 C   0  0  0  0  0  0  0  0  0  0  0  0
   37.9840   26.8770   42.6540 C   0  0  0  0  0  0  0  0  0  0  0  0
   37.1650   27.0240   41.5520 C   0  0  0  0  0  0  0  0  0  0  0  0
   36.6770   28.2610   41.2960 N   0  0  0  0  0  0  0  0  0  0  0  0
   36.9370   29.3250   42.0340 C   0  0  0  0  0  0  0  0  0  0  0  0
   37.7300   29.2240   43.1180 N   0  0  0  0  0  0  0  0  0  0  0  0
   36.9590   25.7880   40.8350 C   0  0  0  0  0  0  0  0  0  0  0  0
   36.9900   24.5550   41.6370 C   0  0  0  0  0  0  0  0  0  0  0  0
   37.8200   23.1830   40.7560 S   0  0  0  0  0  0  0  0  0  0  0  0
   36.3170   30.4400   41.5460 O   0  0  0  0  0  0  0  0  0  0  0  0
   36.9660   31.2190   40.5730 C   0  0  0  0  0  0  0  0  0  0  0  0
   36.7120   31.3600   39.2240 N   0  0  0  0  0  0  0  0  0  0  0  0
   37.5900   32.1990   38.7300 O   0  0  0  0  0  0  0  0  0  0  0  0
   38.3680   32.5790   39.7040 C   0  0  0  0  0  0  0  0  0  0  0  0
   38.0110   31.9930   40.8510 N   0  0  0  0  0  0  0  0  0  0  0  0
   39.4740   33.5160   39.5480 C   0  0  0  0  0  0  0  0  0  0  0  0
   39.6190   34.7550   40.1200 C   0  0  0  0  0  0  0  0  0  0  0  0
   40.8000   35.3360   39.7330 C   0  0  0  0  0  0  0  0  0  0  0  0
   41.3660   34.3930   38.8980 C   0  0  0  0  0  0  0  0  0  0  0  0
   40.5730   33.3800   38.8280 O   0  0  0  0  0  0  0  0  0  0  0  0
   42.8990   34.3620   37.9770 S   0  0  0  0  0  0  0  0  0  0  0  0
   38.9113   27.9399   44.3317 H   0  0  0  0  0  0  0  0  0  0  0  0
   38.4111   25.8968   42.9124 H   0  0  0  0  0  0  0  0  0  0  0  0
   35.9755   25.8446   40.3456 H   0  0  0  0  0  0  0  0  0  0  0  0
   37.8084   25.7072   40.1408 H   0  0  0  0  0  0  0  0  0  0  0  0
   37.5314   24.7544   42.5736 H   0  0  0  0  0  0  0  0  0  0  0  0
   35.9510   24.2523   41.8339 H   0  0  0  0  0  0  0  0  0  0  0  0
   38.3491   22.3084   41.6681 H   0  0  0  0  0  0  0  0  0  0  0  0
   38.8872   35.2195   40.7973 H   0  0  0  0  0  0  0  0  0  0  0  0
   41.2008   36.3194   40.0197 H   0  0  0  0  0  0  0  0  0  0  0  0
   43.9553   34.3406   38.8491 H   0  0  0  0  0  0  0  0  0  0  0  0
  2  1  2  0
  3  2  1  0
  4  3  2  0
  4  5  1  0
  5  6  2  0
  6  1  1  0
  7  3  1  0
  7  8  1  0
  9  8  1  0
 10  5  1  0
 11 15  1  0
 11 10  1  0
 12 11  2  0
 13 12  1  0
 13 14  1  0
 14 15  2  0
 16 14  1  0
 16 17  2  0
 18 17  1  0
 19 18  2  0
 20 19  1  0
 20 16  1  0
 21 19  1  0
  1 22  1  0
  2 23  1  0
  7 24  1  0
  7 25  1  0
  8 26  1  0
  8 27  1  0
  9 28  1  0
 17 29  1  0
 18 30  1  0
 21 31  1  0
M  ISO  8  22  14  23  14  24   8  25   8  26   8  27   8  28  11  29  14
M  ISO  2  30  14  31  11
M  END
>  <minimizedAffinity>  (1) 
-5.2428093

>  <minimizedRMSD>  (1) 
0.611243963

$$$$
