
     RDKit          3D

 44 48  0  0  0  0  0  0  0  0999 V2000
   37.3020   28.4660   43.8130 C   0  0  0  0  0  0  0  0  0  0  0  0
   37.0650   27.0870   43.7410 C   0  0  0  0  0  0  0  0  0  0  0  0
   37.0480   26.4930   42.4800 C   0  0  0  0  0  0  0  0  0  0  0  0
   37.2620   27.2860   41.3930 N   0  0  0  0  0  0  0  0  0  0  0  0
   37.4870   28.6000   41.4920 C   0  0  0  0  0  0  0  0  0  0  0  0
   37.5080   29.2000   42.6950 N   0  0  0  0  0  0  0  0  0  0  0  0
   37.6980   29.3320   40.2840 N   0  0  0  0  0  0  0  0  0  0  0  0
   37.6970   28.7310   39.0890 C   0  0  0  0  0  0  0  0  0  0  0  0
   37.9120   29.5490   38.0250 C   0  0  0  0  0  0  0  0  0  0  0  0
   38.1190   30.9120   38.1170 C   0  0  0  0  0  0  0  0  0  0  0  0
   38.3180   31.6800   37.1290 O   0  0  0  0  0  0  0  0  0  0  0  0
   38.1080   31.4720   39.3490 N   0  0  0  0  0  0  0  0  0  0  0  0
   37.8970   30.6740   40.4420 C   0  0  0  0  0  0  0  0  0  0  0  0
   37.8950   31.2330   41.5720 O   0  0  0  0  0  0  0  0  0  0  0  0
   38.3130   32.8770   39.5610 C   0  0  0  0  0  0  0  0  0  0  0  0
   37.4990   33.9830   39.5960 C   0  0  0  0  0  0  0  0  0  0  0  0
   38.2570   35.0720   39.8430 N   0  0  0  0  0  0  0  0  0  0  0  0
   39.5480   34.6830   39.9680 C   0  0  0  0  0  0  0  0  0  0  0  0
   40.6810   35.4290   40.2200 C   0  0  0  0  0  0  0  0  0  0  0  0
   41.9280   34.8400   40.3130 C   0  0  0  0  0  0  0  0  0  0  0  0
   41.9990   33.4810   40.1430 C   0  0  0  0  0  0  0  0  0  0  0  0
   40.8610   32.7560   39.8920 C   0  0  0  0  0  0  0  0  0  0  0  0
   39.5980   33.3230   39.7950 C   0  0  0  0  0  0  0  0  0  0  0  0
   37.9440   29.0460   36.6370 C   0  0  0  0  0  0  0  0  0  0  0  0
   36.6140   28.8950   36.0180 C   0  0  0  0  0  0  0  0  0  0  0  0
   35.3330   29.2050   36.4250 C   0  0  0  0  0  0  0  0  0  0  0  0
   34.4850   28.8230   35.4020 C   0  0  0  0  0  0  0  0  0  0  0  0
   35.2980   28.2890   34.4020 C   0  0  0  0  0  0  0  0  0  0  0  0
   36.5220   28.3560   34.8110 O   0  0  0  0  0  0  0  0  0  0  0  0
   37.3209   28.9606   44.7954 H   0  0  0  0  0  0  0  0  0  0  0  0
   36.8976   26.4918   44.6508 H   0  0  0  0  0  0  0  0  0  0  0  0
   36.8668   25.4141   42.3658 H   0  0  0  0  0  0  0  0  0  0  0  0
   37.5334   27.6492   38.9752 H   0  0  0  0  0  0  0  0  0  0  0  0
   36.4091   33.9813   39.4472 H   0  0  0  0  0  0  0  0  0  0  0  0
   37.9109   36.0388   39.9231 H   0  0  0  0  0  0  0  0  0  0  0  0
   40.5898   36.5175   40.3499 H   0  0  0  0  0  0  0  0  0  0  0  0
   42.8286   35.4382   40.5155 H   0  0  0  0  0  0  0  0  0  0  0  0
   42.9711   32.9704   40.2080 H   0  0  0  0  0  0  0  0  0  0  0  0
   40.9550   31.6679   39.7608 H   0  0  0  0  0  0  0  0  0  0  0  0
   38.5299   29.7504   36.0282 H   0  0  0  0  0  0  0  0  0  0  0  0
   38.3909   28.0416   36.6750 H   0  0  0  0  0  0  0  0  0  0  0  0
   35.0421   29.6672   37.3798 H   0  0  0  0  0  0  0  0  0  0  0  0
   33.3895   28.9205   35.3809 H   0  0  0  0  0  0  0  0  0  0  0  0
   34.9580   27.8834   33.4377 H   0  0  0  0  0  0  0  0  0  0  0  0
  2  1  2  0
  3  2  1  0
  4  5  1  0
  4  3  2  0
  5  6  2  0
  6  1  1  0
  7 13  1  0
  7  5  1  0
  8  7  1  0
  9 10  1  0
  9  8  2  0
 10 12  1  0
 11 10  2  0
 12 15  1  0
 12 13  1  0
 13 14  2  0
 15 16  2  0
 15 23  1  0
 16 17  1  0
 17 18  1  0
 18 19  2  0
 19 20  1  0
 21 20  2  0
 22 21  1  0
 23 22  2  0
 23 18  1  0
 24  9  1  0
 25 26  2  0
 25 24  1  0
 27 26  1  0
 28 29  1  0
 28 27  2  0
 29 25  1  0
  1 30  1  0
  2 31  1  0
  3 32  1  0
  8 33  1  0
 16 34  1  0
 17 35  1  0
 19 36  1  0
 20 37  1  0
 21 38  1  0
 22 39  1  0
 24 40  1  0
 24 41  1  0
 26 42  1  0
 27 43  1  0
 28 44  1  0
M  ISO  8  30  14  31  14  32  14  33  14  34  14  35   9  36  14  37  14
M  ISO  7  38  14  39  14  40   8  41   8  42  14  43  14  44  14
M  END
>  <minimizedAffinity>  (1) 
-6.4860754

>  <minimizedRMSD>  (1) 
1.1508106

$$$$
