
     RDKit          3D

 33 35  0  0  1  0  0  0  0  0999 V2000
   38.2900   26.8430   42.8960 C   0  0  2  0  0  0  0  0  0  0  0  0
   39.5250   27.0600   43.7140 C   0  0  0  0  0  0  0  0  0  0  0  0
   40.1010   25.6540   43.8370 C   0  0  0  0  0  0  0  0  0  0  0  0
   39.3690   24.8210   42.8280 C   0  0  0  0  0  0  0  0  0  0  0  0
   38.7870   25.8730   41.8550 C   0  0  1  0  0  0  0  0  0  0  0  0
   38.4440   29.2870   42.0600 C   0  0  0  0  0  0  0  0  0  0  0  0
   37.7500   28.0690   42.2990 C   0  0  0  0  0  0  0  0  0  0  0  0
   36.4090   27.9920   41.9200 C   0  0  0  0  0  0  0  0  0  0  0  0
   35.8330   29.0700   41.3470 N   0  0  0  0  0  0  0  0  0  0  0  0
   36.5170   30.2380   41.1240 C   0  0  0  0  0  0  0  0  0  0  0  0
   37.8340   30.3230   41.4930 N   0  0  0  0  0  0  0  0  0  0  0  0
   37.8330   25.2640   40.9540 C   0  0  0  0  0  0  0  0  0  0  0  0
   37.9440   25.5900   39.5950 C   0  0  0  0  0  0  0  0  0  0  0  0
   37.0710   24.9940   38.6950 C   0  0  0  0  0  0  0  0  0  0  0  0
   36.1110   24.0970   39.1160 C   0  0  0  0  0  0  0  0  0  0  0  0
   36.0430   23.8080   40.4720 C   0  0  0  0  0  0  0  0  0  0  0  0
   36.8760   24.3590   41.4340 C   0  0  0  0  0  0  0  0  0  0  0  0
   37.4402   26.4786   43.4918 H   0  0  0  0  0  0  0  0  0  0  0  0
   40.2276   27.7323   43.1998 H   0  0  0  0  0  0  0  0  0  0  0  0
   39.3254   27.5350   44.6858 H   0  0  0  0  0  0  0  0  0  0  0  0
   41.1789   25.6614   43.6176 H   0  0  0  0  0  0  0  0  0  0  0  0
   39.9795   25.2551   44.8549 H   0  0  0  0  0  0  0  0  0  0  0  0
   40.0566   24.1392   42.3062 H   0  0  0  0  0  0  0  0  0  0  0  0
   38.5987   24.1773   43.2778 H   0  0  0  0  0  0  0  0  0  0  0  0
   39.4385   26.3594   41.1141 H   0  0  0  0  0  0  0  0  0  0  0  0
   39.5019   29.3731   42.3488 H   0  0  0  0  0  0  0  0  0  0  0  0
   35.8322   27.0700   42.0851 H   0  0  0  0  0  0  0  0  0  0  0  0
   36.0142   31.0963   40.6545 H   0  0  0  0  0  0  0  0  0  0  0  0
   38.7068   26.3031   39.2491 H   0  0  0  0  0  0  0  0  0  0  0  0
   37.1461   25.2417   37.6259 H   0  0  0  0  0  0  0  0  0  0  0  0
   35.4215   23.6259   38.4000 H   0  0  0  0  0  0  0  0  0  0  0  0
   35.2763   23.0934   40.8061 H   0  0  0  0  0  0  0  0  0  0  0  0
   36.7916   24.1035   42.5006 H   0  0  0  0  0  0  0  0  0  0  0  0
  1  2  1  0
  2  3  1  0
  4  3  1  0
  5  4  1  0
  5  1  1  0
  6  7  2  0
  7  1  1  0
  8  7  1  0
  9  8  2  0
 10  9  1  0
 10 11  2  0
 11  6  1  0
 12 17  1  0
 12  5  1  0
 13 12  2  0
 14 15  2  0
 14 13  1  0
 15 16  1  0
 16 17  2  0
  1 18  1  1
  2 19  1  0
  2 20  1  0
  3 21  1  0
  3 22  1  0
  4 23  1  0
  4 24  1  0
  5 25  1  6
  6 26  1  0
  8 27  1  0
 10 28  1  0
 13 29  1  0
 14 30  1  0
 15 31  1  0
 16 32  1  0
 17 33  1  0
M  ISO  8  18  13  19  13  20  13  21  13  22  13  23  13  24  13  25  13
M  ISO  8  26  14  27  14  28  14  29  14  30  14  31  14  32  14  33  14
M  END
>  <minimizedAffinity>  (1) 
-4.88307142

>  <minimizedRMSD>  (1) 
1.20749438

$$$$
