
     RDKit          3D

 36 38  0  0  1  0  0  0  0  0999 V2000
   38.3050   26.8710   42.7830 C   0  0  2  0  0  0  0  0  0  0  0  0
   39.4460   27.0240   43.7490 C   0  0  0  0  0  0  0  0  0  0  0  0
   40.0740   25.6440   43.7740 C   0  0  0  0  0  0  0  0  0  0  0  0
   39.5530   24.9210   42.5720 C   0  0  0  0  0  0  0  0  0  0  0  0
   38.8790   25.9930   41.7380 C   0  0  1  0  0  0  0  0  0  0  0  0
   37.9900   25.3580   40.7880 N   0  0  0  0  0  0  0  0  0  0  0  0
   38.2840   25.4980   39.4540 C   0  0  0  0  0  0  0  0  0  0  0  0
   37.4920   24.8930   38.5180 C   0  0  0  0  0  0  0  0  0  0  0  0
   37.8150   25.0470   37.0570 C   0  0  0  0  0  0  0  0  0  0  0  0
   36.3960   24.1400   38.9040 C   0  0  0  0  0  0  0  0  0  0  0  0
   35.6470   23.5690   38.0520 O   0  0  0  0  0  0  0  0  0  0  0  0
   36.1430   24.0290   40.2240 N   0  0  0  0  0  0  0  0  0  0  0  0
   36.9100   24.6160   41.1670 C   0  0  0  0  0  0  0  0  0  0  0  0
   36.6200   24.4750   42.3820 O   0  0  0  0  0  0  0  0  0  0  0  0
   38.5870   29.3410   42.0550 C   0  0  0  0  0  0  0  0  0  0  0  0
   37.8250   28.1540   42.2420 C   0  0  0  0  0  0  0  0  0  0  0  0
   36.4820   28.1850   41.8690 C   0  0  0  0  0  0  0  0  0  0  0  0
   35.9650   29.3220   41.3520 N   0  0  0  0  0  0  0  0  0  0  0  0
   36.7230   30.4500   41.1830 C   0  0  0  0  0  0  0  0  0  0  0  0
   38.0430   30.4340   41.5450 N   0  0  0  0  0  0  0  0  0  0  0  0
   37.4035   26.4538   43.2555 H   0  0  0  0  0  0  0  0  0  0  0  0
   40.1646   27.7769   43.3930 H   0  0  0  0  0  0  0  0  0  0  0  0
   39.1234   27.3667   44.7432 H   0  0  0  0  0  0  0  0  0  0  0  0
   41.1700   25.7238   43.7245 H   0  0  0  0  0  0  0  0  0  0  0  0
   39.8230   25.1084   44.7014 H   0  0  0  0  0  0  0  0  0  0  0  0
   40.3775   24.4555   42.0121 H   0  0  0  0  0  0  0  0  0  0  0  0
   38.8617   24.1093   42.8427 H   0  0  0  0  0  0  0  0  0  0  0  0
   39.4996   26.6085   41.0702 H   0  0  0  0  0  0  0  0  0  0  0  0
   39.1532   26.0945   39.1397 H   0  0  0  0  0  0  0  0  0  0  0  0
   38.8030   25.5181   36.9476 H   0  0  0  0  0  0  0  0  0  0  0  0
   37.8256   24.0571   36.5775 H   0  0  0  0  0  0  0  0  0  0  0  0
   37.0526   25.6785   36.5775 H   0  0  0  0  0  0  0  0  0  0  0  0
   35.3301   23.4728   40.5253 H   0  0  0  0  0  0  0  0  0  0  0  0
   39.6494   29.3502   42.3401 H   0  0  0  0  0  0  0  0  0  0  0  0
   35.8497   27.2936   41.9941 H   0  0  0  0  0  0  0  0  0  0  0  0
   36.2749   31.3612   40.7599 H   0  0  0  0  0  0  0  0  0  0  0  0
  1  2  1  0
  2  3  1  0
  4  3  1  0
  5  4  1  0
  5  1  1  0
  6 13  1  0
  6  5  1  0
  7  6  1  0
  8 10  1  0
  8  7  2  0
  9  8  1  0
 10 12  1  0
 11 10  2  0
 12 13  1  0
 13 14  2  0
 15 16  2  0
 16  1  1  0
 17 16  1  0
 18 17  2  0
 19 18  1  0
 19 20  2  0
 20 15  1  0
  1 21  1  1
  2 22  1  0
  2 23  1  0
  3 24  1  0
  3 25  1  0
  4 26  1  0
  4 27  1  0
  5 28  1  6
  7 29  1  0
  9 30  1  0
  9 31  1  0
  9 32  1  0
 12 33  1  0
 15 34  1  0
 17 35  1  0
 19 36  1  0
M  ISO  8  21  13  22  13  23  13  24  13  25  13  26  13  27  13  28  13
M  ISO  8  29  14  30   8  31   8  32   8  33   9  34  14  35  14  36  14
M  END
>  <minimizedAffinity>  (1) 
-4.79169321

>  <minimizedRMSD>  (1) 
1.90713942

$$$$
