
     RDKit          3D

 31 33  0  0  1  0  0  0  0  0999 V2000
   39.6780   30.8720   42.1840 C   0  0  2  0  0  0  0  0  0  0  0  0
   41.1060   31.2950   42.1810 C   0  0  0  0  0  0  0  0  0  0  0  0
   41.8380   30.1260   42.8010 C   0  0  0  0  0  0  0  0  0  0  0  0
   40.8940   28.9750   42.7640 C   0  0  0  0  0  0  0  0  0  0  0  0
   39.7320   29.4240   41.8630 C   0  0  1  0  0  0  0  0  0  0  0  0
   37.6450   31.1710   40.6740 C   0  0  0  0  0  0  0  0  0  0  0  0
   38.8230   31.6340   41.2800 C   0  0  0  0  0  0  0  0  0  0  0  0
   39.2320   32.9370   41.0030 C   0  0  0  0  0  0  0  0  0  0  0  0
   38.4660   33.6980   40.1570 N   0  0  0  0  0  0  0  0  0  0  0  0
   37.3210   33.2180   39.5820 C   0  0  0  0  0  0  0  0  0  0  0  0
   36.9300   31.9360   39.8610 N   0  0  0  0  0  0  0  0  0  0  0  0
   38.6060   28.6020   42.3830 C   0  0  0  0  0  0  0  0  0  0  0  0
   38.0690   27.5070   41.7020 C   0  0  0  0  0  0  0  0  0  0  0  0
   37.0160   26.7620   42.1930 C   0  0  0  0  0  0  0  0  0  0  0  0
   36.5110   27.1380   43.3850 N   0  0  0  0  0  0  0  0  0  0  0  0
   37.0450   28.2050   44.0360 C   0  0  0  0  0  0  0  0  0  0  0  0
   38.0680   28.9540   43.5890 N   0  0  0  0  0  0  0  0  0  0  0  0
   39.2030   31.0686   43.1565 H   0  0  0  0  0  0  0  0  0  0  0  0
   41.4576   31.4759   41.1545 H   0  0  0  0  0  0  0  0  0  0  0  0
   41.2693   32.2344   42.7295 H   0  0  0  0  0  0  0  0  0  0  0  0
   42.7444   29.8940   42.2225 H   0  0  0  0  0  0  0  0  0  0  0  0
   42.1530   30.3519   43.8304 H   0  0  0  0  0  0  0  0  0  0  0  0
   41.3870   28.0872   42.3413 H   0  0  0  0  0  0  0  0  0  0  0  0
   40.5465   28.7004   43.7709 H   0  0  0  0  0  0  0  0  0  0  0  0
   39.7674   29.2996   40.7706 H   0  0  0  0  0  0  0  0  0  0  0  0
   37.3055   30.1450   40.8792 H   0  0  0  0  0  0  0  0  0  0  0  0
   40.1487   33.3462   41.4527 H   0  0  0  0  0  0  0  0  0  0  0  0
   36.7253   33.8508   38.9077 H   0  0  0  0  0  0  0  0  0  0  0  0
   38.5045   27.2261   40.7317 H   0  0  0  0  0  0  0  0  0  0  0  0
   36.6088   25.9035   41.6388 H   0  0  0  0  0  0  0  0  0  0  0  0
   36.6048   28.4776   45.0065 H   0  0  0  0  0  0  0  0  0  0  0  0
  2  1  1  0
  2  3  1  0
  4  3  1  0
  5  1  1  0
  5 12  1  0
  5  4  1  0
  6  7  2  0
  7  1  1  0
  8  7  1  0
  9  8  2  0
 10 11  2  0
 10  9  1  0
 11  6  1  0
 12 17  2  0
 13 14  2  0
 13 12  1  0
 14 15  1  0
 15 16  2  0
 17 16  1  0
  1 18  1  1
  2 19  1  0
  2 20  1  0
  3 21  1  0
  3 22  1  0
  4 23  1  0
  4 24  1  0
  5 25  1  6
  6 26  1  0
  8 27  1  0
 10 28  1  0
 13 29  1  0
 14 30  1  0
 16 31  1  0
M  ISO  8  18  13  19  13  20  13  21  13  22  13  23  13  24  13  25  13
M  ISO  6  26  14  27  14  28  14  29  14  30  14  31  14
M  END
>  <minimizedAffinity>  (1) 
-4.64511776

>  <minimizedRMSD>  (1) 
4.12874699

$$$$
