
     RDKit          3D

 29 31  0  0  1  0  0  0  0  0999 V2000
   37.1120   30.1090   39.7520 C   0  0  2  0  0  0  0  0  0  0  0  0
   36.2530   30.2730   38.5530 C   0  0  0  0  0  0  0  0  0  0  0  0
   35.1770   29.2240   38.7220 C   0  0  0  0  0  0  0  0  0  0  0  0
   35.1410   28.9120   40.1820 C   0  0  0  0  0  0  0  0  0  0  0  0
   36.1450   29.8270   40.8490 C   0  0  1  0  0  0  0  0  0  0  0  0
   39.3450   31.1610   40.3620 C   0  0  0  0  0  0  0  0  0  0  0  0
   37.9840   31.2490   40.0480 C   0  0  0  0  0  0  0  0  0  0  0  0
   37.4020   32.5180   40.0070 C   0  0  0  0  0  0  0  0  0  0  0  0
   38.1920   33.6050   40.2760 N   0  0  0  0  0  0  0  0  0  0  0  0
   39.5170   33.4850   40.5810 C   0  0  0  0  0  0  0  0  0  0  0  0
   40.0820   32.2400   40.6180 N   0  0  0  0  0  0  0  0  0  0  0  0
   36.7530   28.9300   41.8550 N   0  0  0  0  0  0  0  0  0  0  0  0
   36.7120   27.5640   41.8760 C   0  0  0  0  0  0  0  0  0  0  0  0
   37.4100   27.1690   42.9720 N   0  0  0  0  0  0  0  0  0  0  0  0
   37.8630   28.2560   43.5990 C   0  0  0  0  0  0  0  0  0  0  0  0
   37.4600   29.3630   42.9140 N   0  0  0  0  0  0  0  0  0  0  0  0
   37.8434   29.3014   39.6011 H   0  0  0  0  0  0  0  0  0  0  0  0
   36.8293   30.0961   37.6329 H   0  0  0  0  0  0  0  0  0  0  0  0
   35.8410   31.2892   38.4653 H   0  0  0  0  0  0  0  0  0  0  0  0
   34.2043   29.6156   38.3896 H   0  0  0  0  0  0  0  0  0  0  0  0
   35.3870   28.3271   38.1207 H   0  0  0  0  0  0  0  0  0  0  0  0
   34.1341   29.0972   40.5842 H   0  0  0  0  0  0  0  0  0  0  0  0
   35.3861   27.8556   40.3662 H   0  0  0  0  0  0  0  0  0  0  0  0
   35.7822   30.7609   41.3031 H   0  0  0  0  0  0  0  0  0  0  0  0
   39.8206   30.1698   40.3984 H   0  0  0  0  0  0  0  0  0  0  0  0
   36.3362   32.6418   39.7648 H   0  0  0  0  0  0  0  0  0  0  0  0
   40.1226   34.3781   40.7943 H   0  0  0  0  0  0  0  0  0  0  0  0
   36.2107   26.9110   41.1464 H   0  0  0  0  0  0  0  0  0  0  0  0
   38.4645   28.2583   44.5200 H   0  0  0  0  0  0  0  0  0  0  0  0
  1  7  1  0
  1  5  1  0
  2  3  1  0
  2  1  1  0
  3  4  1  0
  4  5  1  0
  5 12  1  0
  6 11  2  0
  7  6  1  0
  8  7  2  0
  8  9  1  0
  9 10  2  0
 10 11  1  0
 12 13  1  0
 12 16  1  0
 13 14  2  0
 14 15  1  0
 16 15  2  0
  1 17  1  6
  2 18  1  0
  2 19  1  0
  3 20  1  0
  3 21  1  0
  4 22  1  0
  4 23  1  0
  5 24  1  1
  6 25  1  0
  8 26  1  0
 10 27  1  0
 13 28  1  0
 15 29  1  0
M  ISO  8  17  13  18  13  19  13  20  13  21  13  22  13  23  13  24  13
M  ISO  5  25  14  26  14  27  14  28  14  29  14
M  END
>  <minimizedAffinity>  (1) 
-4.54595184

>  <minimizedRMSD>  (1) 
5.12305927

$$$$
