
     RDKit          3D

 26 27  0  0  1  0  0  0  0  0999 V2000
   38.5250   27.0670   43.2220 C   0  0  2  0  0  0  0  0  0  0  0  0
   39.9090   27.3880   43.6020 C   0  0  0  0  0  0  0  0  0  0  0  0
   40.5650   26.0260   43.8220 C   0  0  0  0  0  0  0  0  0  0  0  0
   39.5650   25.0100   43.3420 C   0  0  0  0  0  0  0  0  0  0  0  0
   38.6950   25.8200   42.3660 C   0  0  2  0  0  0  0  0  0  0  0  0
   38.2390   29.4260   42.3280 C   0  0  0  0  0  0  0  0  0  0  0  0
   37.7910   28.1110   42.4950 C   0  0  0  0  0  0  0  0  0  0  0  0
   36.5600   27.7440   41.9360 C   0  0  0  0  0  0  0  0  0  0  0  0
   35.8620   28.6850   41.2570 N   0  0  0  0  0  0  0  0  0  0  0  0
   36.3070   29.9680   41.0990 C   0  0  0  0  0  0  0  0  0  0  0  0
   37.5120   30.3210   41.6480 N   0  0  0  0  0  0  0  0  0  0  0  0
   39.3940   26.0500   41.0730 C   0  0  0  0  0  0  0  0  0  0  0  0
   39.9140   27.3320   41.0550 F   0  0  0  0  0  0  0  0  0  0  0  0
   40.3550   25.1320   40.7490 F   0  0  0  0  0  0  0  0  0  0  0  0
   38.4200   25.9670   40.0640 F   0  0  0  0  0  0  0  0  0  0  0  0
   37.9029   26.9435   44.1208 H   0  0  0  0  0  0  0  0  0  0  0  0
   40.4164   27.9395   42.7967 H   0  0  0  0  0  0  0  0  0  0  0  0
   39.9621   28.0293   44.4941 H   0  0  0  0  0  0  0  0  0  0  0  0
   41.4966   25.9509   43.2419 H   0  0  0  0  0  0  0  0  0  0  0  0
   40.8287   25.8684   44.8782 H   0  0  0  0  0  0  0  0  0  0  0  0
   40.0642   24.1753   42.8281 H   0  0  0  0  0  0  0  0  0  0  0  0
   38.9889   24.5482   44.1574 H   0  0  0  0  0  0  0  0  0  0  0  0
   37.7519   25.3634   42.0313 H   0  0  0  0  0  0  0  0  0  0  0  0
   39.2033   29.7289   42.7621 H   0  0  0  0  0  0  0  0  0  0  0  0
   36.1715   26.7207   42.0455 H   0  0  0  0  0  0  0  0  0  0  0  0
   35.7087   30.7036   40.5413 H   0  0  0  0  0  0  0  0  0  0  0  0
  1  2  1  0
  2  3  1  0
  4  3  1  0
  5  1  1  0
  5  4  1  0
  6  7  2  0
  7  1  1  0
  8  7  1  0
  9  8  2  0
 10  9  1  0
 10 11  2  0
 11  6  1  0
 12  5  1  0
 13 12  1  0
 14 12  1  0
 15 12  1  0
  1 16  1  1
  2 17  1  0
  2 18  1  0
  3 19  1  0
  3 20  1  0
  4 21  1  0
  4 22  1  0
  5 23  1  6
  6 24  1  0
  8 25  1  0
 10 26  1  0
M  ISO  8  16  13  17  13  18  13  19  13  20  13  21  13  22  13  23  13
M  ISO  3  24  14  25  14  26  14
M  END
>  <minimizedAffinity>  (1) 
-4.12409496

>  <minimizedRMSD>  (1) 
0.210872978

$$$$
