
     RDKit          3D

 30 32  0  0  1  0  0  0  0  0999 V2000
   38.7440   27.3080   43.2480 C   0  0  2  0  0  0  0  0  0  0  0  0
   40.1640   27.6560   43.4520 C   0  0  0  0  0  0  0  0  0  0  0  0
   40.7050   26.3640   44.0550 C   0  0  0  0  0  0  0  0  0  0  0  0
   39.8400   25.2680   43.4850 C   0  0  0  0  0  0  0  0  0  0  0  0
   38.8220   25.9480   42.5960 C   0  0  2  0  0  0  0  0  0  0  0  0
   38.3740   29.5010   42.0650 C   0  0  0  0  0  0  0  0  0  0  0  0
   37.9330   28.2340   42.4910 C   0  0  0  0  0  0  0  0  0  0  0  0
   36.6310   27.8530   42.1600 C   0  0  0  0  0  0  0  0  0  0  0  0
   35.8500   28.7200   41.4450 N   0  0  0  0  0  0  0  0  0  0  0  0
   36.3050   29.9430   41.0460 C   0  0  0  0  0  0  0  0  0  0  0  0
   37.5830   30.3240   41.3670 N   0  0  0  0  0  0  0  0  0  0  0  0
   39.1750   25.9660   41.2180 N   0  0  0  0  0  0  0  0  0  0  0  0
   40.1890   26.5090   40.5970 N   0  0  0  0  0  0  0  0  0  0  0  0
   40.1540   26.2930   39.2740 C   0  0  0  0  0  0  0  0  0  0  0  0
   39.0390   25.5590   39.0130 C   0  0  0  0  0  0  0  0  0  0  0  0
   38.4400   25.3640   40.2410 C   0  0  0  0  0  0  0  0  0  0  0  0
   38.2115   27.3362   44.2101 H   0  0  0  0  0  0  0  0  0  0  0  0
   40.6607   27.8950   42.5001 H   0  0  0  0  0  0  0  0  0  0  0  0
   40.3240   28.5465   44.0776 H   0  0  0  0  0  0  0  0  0  0  0  0
   41.7561   26.2147   43.7672 H   0  0  0  0  0  0  0  0  0  0  0  0
   40.6761   26.3802   45.1545 H   0  0  0  0  0  0  0  0  0  0  0  0
   40.4513   24.5675   42.8971 H   0  0  0  0  0  0  0  0  0  0  0  0
   39.3507   24.6898   44.2827 H   0  0  0  0  0  0  0  0  0  0  0  0
   37.8527   25.4310   42.5395 H   0  0  0  0  0  0  0  0  0  0  0  0
   39.3962   29.8231   42.3125 H   0  0  0  0  0  0  0  0  0  0  0  0
   36.2397   26.8724   42.4688 H   0  0  0  0  0  0  0  0  0  0  0  0
   35.6526   30.6175   40.4720 H   0  0  0  0  0  0  0  0  0  0  0  0
   40.8906   26.6443   38.5364 H   0  0  0  0  0  0  0  0  0  0  0  0
   38.6899   25.1985   38.0341 H   0  0  0  0  0  0  0  0  0  0  0  0
   37.5071   24.8052   40.4067 H   0  0  0  0  0  0  0  0  0  0  0  0
  1  2  1  0
  2  3  1  0
  4  3  1  0
  5  1  1  0
  5  4  1  0
  6  7  2  0
  7  1  1  0
  8  7  1  0
  9  8  2  0
 10 11  2  0
 10  9  1  0
 11  6  1  0
 12  5  1  0
 13 12  1  0
 14 13  2  0
 15 14  1  0
 15 16  2  0
 16 12  1  0
  1 17  1  1
  2 18  1  0
  2 19  1  0
  3 20  1  0
  3 21  1  0
  4 22  1  0
  4 23  1  0
  5 24  1  6
  6 25  1  0
  8 26  1  0
 10 27  1  0
 14 28  1  0
 15 29  1  0
 16 30  1  0
M  ISO  8  17  13  18  13  19  13  20  13  21  13  22  13  23  13  24  13
M  ISO  6  25  14  26  14  27  14  28  14  29  14  30  14
M  END
>  <minimizedAffinity>  (1) 
-4.0942626

>  <minimizedRMSD>  (1) 
0.350491762

$$$$
