
     RDKit          3D

 29 31  0  0  1  0  0  0  0  0999 V2000
   38.7390   27.1400   43.2130 C   0  0  2  0  0  0  0  0  0  0  0  0
   40.1480   27.4420   43.5130 C   0  0  0  0  0  0  0  0  0  0  0  0
   40.6900   26.0810   43.9490 C   0  0  0  0  0  0  0  0  0  0  0  0
   39.7570   25.0520   43.3860 C   0  0  0  0  0  0  0  0  0  0  0  0
   38.8520   25.8230   42.4460 C   0  0  2  0  0  0  0  0  0  0  0  0
   38.4430   29.3850   42.1510 C   0  0  0  0  0  0  0  0  0  0  0  0
   37.9510   28.1000   42.4880 C   0  0  0  0  0  0  0  0  0  0  0  0
   36.6490   27.7690   42.1180 C   0  0  0  0  0  0  0  0  0  0  0  0
   35.9070   28.7020   41.4510 N   0  0  0  0  0  0  0  0  0  0  0  0
   36.4030   29.9360   41.1380 C   0  0  0  0  0  0  0  0  0  0  0  0
   37.6840   30.2730   41.4950 N   0  0  0  0  0  0  0  0  0  0  0  0
   39.3760   25.9710   41.0880 C   0  0  0  0  0  0  0  0  0  0  0  0
   38.5620   25.5660   39.9210 C   0  0  0  0  0  0  0  0  0  0  0  0
   39.7210   25.9780   38.5330 S   0  0  0  0  0  0  0  0  0  0  0  0
   41.0560   26.6060   39.7650 C   0  0  0  0  0  0  0  0  0  0  0  0
   40.5720   26.4600   40.8200 N   0  0  0  0  0  0  0  0  0  0  0  0
   38.1714   27.1271   44.1552 H   0  0  0  0  0  0  0  0  0  0  0  0
   40.6742   27.8126   42.6209 H   0  0  0  0  0  0  0  0  0  0  0  0
   40.2770   28.2294   44.2702 H   0  0  0  0  0  0  0  0  0  0  0  0
   41.7051   25.9313   43.5525 H   0  0  0  0  0  0  0  0  0  0  0  0
   40.7483   26.0083   45.0450 H   0  0  0  0  0  0  0  0  0  0  0  0
   40.3169   24.2796   42.8383 H   0  0  0  0  0  0  0  0  0  0  0  0
   39.1914   24.5300   44.1719 H   0  0  0  0  0  0  0  0  0  0  0  0
   37.8924   25.3284   42.2349 H   0  0  0  0  0  0  0  0  0  0  0  0
   39.4699   29.6595   42.4339 H   0  0  0  0  0  0  0  0  0  0  0  0
   36.2291   26.7808   42.3571 H   0  0  0  0  0  0  0  0  0  0  0  0
   35.7744   30.6602   40.5991 H   0  0  0  0  0  0  0  0  0  0  0  0
   37.5491   25.1385   39.8861 H   0  0  0  0  0  0  0  0  0  0  0  0
   42.0513   27.0115   39.5307 H   0  0  0  0  0  0  0  0  0  0  0  0
  1  2  1  0
  2  3  1  0
  4  3  1  0
  5  1  1  0
  5  4  1  0
  6  7  2  0
  7  1  1  0
  8  7  1  0
  9  8  2  0
 10  9  1  0
 10 11  2  0
 11  6  1  0
 12  5  1  0
 13 12  2  0
 14 15  1  0
 14 13  1  0
 15 16  2  0
 16 12  1  0
  1 17  1  1
  2 18  1  0
  2 19  1  0
  3 20  1  0
  3 21  1  0
  4 22  1  0
  4 23  1  0
  5 24  1  6
  6 25  1  0
  8 26  1  0
 10 27  1  0
 13 28  1  0
 15 29  1  0
M  ISO  8  17  13  18  13  19  13  20  13  21  13  22  13  23  13  24  13
M  ISO  5  25  14  26  14  27  14  28  14  29  14
M  END
>  <minimizedAffinity>  (1) 
-4.0709548

>  <minimizedRMSD>  (1) 
0.179834321

$$$$
