
     RDKit          3D

 24 25  0  0  1  0  0  0  0  0999 V2000
   38.7010   27.2540   43.2040 C   0  0  2  0  0  0  0  0  0  0  0  0
   40.1150   27.6360   43.4470 C   0  0  0  0  0  0  0  0  0  0  0  0
   40.6970   26.3130   43.9840 C   0  0  0  0  0  0  0  0  0  0  0  0
   39.8250   25.2220   43.3970 C   0  0  0  0  0  0  0  0  0  0  0  0
   38.9180   25.9580   42.4060 C   0  0  2  0  0  0  0  0  0  0  0  0
   38.2590   29.5020   42.2460 C   0  0  0  0  0  0  0  0  0  0  0  0
   37.8630   28.1580   42.4700 C   0  0  0  0  0  0  0  0  0  0  0  0
   36.6250   27.7430   41.9800 C   0  0  0  0  0  0  0  0  0  0  0  0
   35.8640   28.6600   41.3110 N   0  0  0  0  0  0  0  0  0  0  0  0
   36.2690   29.9470   41.1100 C   0  0  0  0  0  0  0  0  0  0  0  0
   37.4830   30.3630   41.5880 N   0  0  0  0  0  0  0  0  0  0  0  0
   39.7090   26.2390   40.8320 S   0  0  0  0  0  0  0  0  0  0  0  0
   38.1443   27.2055   44.1515 H   0  0  0  0  0  0  0  0  0  0  0  0
   40.6136   27.9473   42.5172 H   0  0  0  0  0  0  0  0  0  0  0  0
   40.2401   28.4920   44.1264 H   0  0  0  0  0  0  0  0  0  0  0  0
   41.7398   26.1902   43.6562 H   0  0  0  0  0  0  0  0  0  0  0  0
   40.7023   26.2850   45.0836 H   0  0  0  0  0  0  0  0  0  0  0  0
   40.4377   24.4689   42.8799 H   0  0  0  0  0  0  0  0  0  0  0  0
   39.2557   24.6785   44.1655 H   0  0  0  0  0  0  0  0  0  0  0  0
   38.0009   25.4248   42.1151 H   0  0  0  0  0  0  0  0  0  0  0  0
   39.2334   29.8428   42.6259 H   0  0  0  0  0  0  0  0  0  0  0  0
   36.2726   26.7114   42.1272 H   0  0  0  0  0  0  0  0  0  0  0  0
   35.6215   30.6495   40.5648 H   0  0  0  0  0  0  0  0  0  0  0  0
   40.9854   26.6925   41.0369 H   0  0  0  0  0  0  0  0  0  0  0  0
  1  2  1  0
  2  3  1  0
  4  3  1  0
  5  1  1  0
  5  4  1  0
  6  7  2  0
  7  1  1  0
  8  7  1  0
  9  8  2  0
 10  9  1  0
 10 11  2  0
 11  6  1  0
 12  5  1  0
  1 13  1  1
  2 14  1  0
  2 15  1  0
  3 16  1  0
  3 17  1  0
  4 18  1  0
  4 19  1  0
  5 20  1  6
  6 21  1  0
  8 22  1  0
 10 23  1  0
 12 24  1  0
M  ISO  8  13  13  14  13  15  13  16  13  17  13  18  13  19  13  20  13
M  ISO  4  21  14  22  14  23  14  24  11
M  END
>  <minimizedAffinity>  (1) 
-3.85432434

>  <minimizedRMSD>  (1) 
0.193694875

$$$$
