
     RDKit          3D

 25 26  0  0  1  0  0  0  0  0999 V2000
   38.7070   27.4510   43.2240 C   0  0  2  0  0  0  0  0  0  0  0  0
   40.1440   27.7970   43.3670 C   0  0  0  0  0  0  0  0  0  0  0  0
   40.7390   26.5090   43.9530 C   0  0  0  0  0  0  0  0  0  0  0  0
   39.7690   25.4140   43.6140 C   0  0  0  0  0  0  0  0  0  0  0  0
   38.8210   26.0590   42.6010 C   0  0  2  0  0  0  0  0  0  0  0  0
   38.2610   29.6240   42.0960 C   0  0  0  0  0  0  0  0  0  0  0  0
   37.8630   28.3030   42.4460 C   0  0  0  0  0  0  0  0  0  0  0  0
   36.6080   27.8400   42.0500 C   0  0  0  0  0  0  0  0  0  0  0  0
   35.8220   28.7080   41.3370 N   0  0  0  0  0  0  0  0  0  0  0  0
   36.2270   29.9730   41.0140 C   0  0  0  0  0  0  0  0  0  0  0  0
   37.4600   30.4310   41.4000 N   0  0  0  0  0  0  0  0  0  0  0  0
   39.4310   26.0640   41.2650 C   0  0  0  0  0  0  0  0  0  0  0  0
   38.8670   25.5940   40.2710 O   0  0  0  0  0  0  0  0  0  0  0  0
   38.1950   27.5430   44.1932 H   0  0  0  0  0  0  0  0  0  0  0  0
   40.5944   28.0353   42.3922 H   0  0  0  0  0  0  0  0  0  0  0  0
   40.3212   28.6854   43.9910 H   0  0  0  0  0  0  0  0  0  0  0  0
   41.7213   26.3024   43.5030 H   0  0  0  0  0  0  0  0  0  0  0  0
   40.8893   26.5923   45.0395 H   0  0  0  0  0  0  0  0  0  0  0  0
   40.2905   24.5539   43.1687 H   0  0  0  0  0  0  0  0  0  0  0  0
   39.2427   25.0261   44.4986 H   0  0  0  0  0  0  0  0  0  0  0  0
   37.8526   25.5628   42.4399 H   0  0  0  0  0  0  0  0  0  0  0  0
   39.2517   29.9872   42.4068 H   0  0  0  0  0  0  0  0  0  0  0  0
   36.2648   26.8249   42.2985 H   0  0  0  0  0  0  0  0  0  0  0  0
   35.5573   30.6295   40.4390 H   0  0  0  0  0  0  0  0  0  0  0  0
   40.4317   26.5045   41.1442 H   0  0  0  0  0  0  0  0  0  0  0  0
  1  2  1  0
  2  3  1  0
  4  3  1  0
  5  1  1  0
  5  4  1  0
  6  7  2  0
  7  1  1  0
  8  7  1  0
  9  8  2  0
 10  9  1  0
 10 11  2  0
 11  6  1  0
 12  5  1  0
 13 12  2  0
  1 14  1  1
  2 15  1  0
  2 16  1  0
  3 17  1  0
  3 18  1  0
  4 19  1  0
  4 20  1  0
  5 21  1  6
  6 22  1  0
  8 23  1  0
 10 24  1  0
 12 25  1  0
M  ISO  8  14  13  15  13  16  13  17  13  18  13  19  13  20  13  21  13
M  ISO  4  22  14  23  14  24  14  25   6
M  END
>  <minimizedAffinity>  (1) 
-3.84851289

>  <minimizedRMSD>  (1) 
0.61695075

$$$$
