
     RDKit          3D

 24 25  0  0  1  0  0  0  0  0999 V2000
   38.5690   27.1120   43.1630 C   0  0  2  0  0  0  0  0  0  0  0  0
   39.9720   27.4550   43.5080 C   0  0  0  0  0  0  0  0  0  0  0  0
   40.5270   26.0790   43.9340 C   0  0  0  0  0  0  0  0  0  0  0  0
   39.6560   25.0560   43.2650 C   0  0  0  0  0  0  0  0  0  0  0  0
   38.7880   25.8620   42.2890 C   0  0  2  0  0  0  0  0  0  0  0  0
   38.2340   29.4250   42.2850 C   0  0  0  0  0  0  0  0  0  0  0  0
   37.7930   28.0890   42.4460 C   0  0  0  0  0  0  0  0  0  0  0  0
   36.5580   27.7360   41.9030 C   0  0  0  0  0  0  0  0  0  0  0  0
   35.8440   28.6980   41.2500 N   0  0  0  0  0  0  0  0  0  0  0  0
   36.2870   29.9790   41.1090 C   0  0  0  0  0  0  0  0  0  0  0  0
   37.4990   30.3380   41.6370 N   0  0  0  0  0  0  0  0  0  0  0  0
   39.4400   26.1580   41.1240 O   0  0  0  0  0  0  0  0  0  0  0  0
   37.9677   27.0036   44.0777 H   0  0  0  0  0  0  0  0  0  0  0  0
   40.5136   27.8554   42.6383 H   0  0  0  0  0  0  0  0  0  0  0  0
   40.0676   28.2357   44.2770 H   0  0  0  0  0  0  0  0  0  0  0  0
   41.5700   25.9684   43.6025 H   0  0  0  0  0  0  0  0  0  0  0  0
   40.5181   25.9622   45.0277 H   0  0  0  0  0  0  0  0  0  0  0  0
   40.2681   24.3201   42.7230 H   0  0  0  0  0  0  0  0  0  0  0  0
   39.0519   24.4873   43.9872 H   0  0  0  0  0  0  0  0  0  0  0  0
   37.8788   25.3545   41.9343 H   0  0  0  0  0  0  0  0  0  0  0  0
   39.2071   29.7211   42.7037 H   0  0  0  0  0  0  0  0  0  0  0  0
   36.1704   26.7110   41.9984 H   0  0  0  0  0  0  0  0  0  0  0  0
   35.6750   30.7204   40.5744 H   0  0  0  0  0  0  0  0  0  0  0  0
   40.3214   26.5581   41.3316 H   0  0  0  0  0  0  0  0  0  0  0  0
  1  2  1  0
  2  3  1  0
  4  3  1  0
  5  1  1  0
  5  4  1  0
  6  7  2  0
  7  1  1  0
  8  7  1  0
  9  8  2  0
 10  9  1  0
 10 11  2  0
 11  6  1  0
 12  5  1  0
  1 13  1  1
  2 14  1  0
  2 15  1  0
  3 16  1  0
  3 17  1  0
  4 18  1  0
  4 19  1  0
  5 20  1  6
  6 21  1  0
  8 22  1  0
 10 23  1  0
 12 24  1  0
M  ISO  8  13  13  14  13  15  13  16  13  17  13  18  13  19  13  20  13
M  ISO  4  21  14  22  14  23  14  24   3
M  END
>  <minimizedAffinity>  (1) 
-3.84027457

>  <minimizedRMSD>  (1) 
0.0897730738

$$$$
