
     RDKit          3D

 44 48  0  0  0  0  0  0  0  0999 V2000
   37.4830   28.6290   43.8270 C   0  0  0  0  0  0  0  0  0  0  0  0
   37.0550   27.2990   43.7550 C   0  0  0  0  0  0  0  0  0  0  0  0
   36.7420   26.7720   42.5160 C   0  0  0  0  0  0  0  0  0  0  0  0
   36.8630   27.5690   41.4150 N   0  0  0  0  0  0  0  0  0  0  0  0
   37.2780   28.8530   41.5120 C   0  0  0  0  0  0  0  0  0  0  0  0
   37.5870   29.3830   42.6990 N   0  0  0  0  0  0  0  0  0  0  0  0
   37.3660   29.5900   40.2900 N   0  0  0  0  0  0  0  0  0  0  0  0
   37.0770   29.0540   39.1100 C   0  0  0  0  0  0  0  0  0  0  0  0
   37.2190   29.9140   38.0470 C   0  0  0  0  0  0  0  0  0  0  0  0
   37.6200   31.2250   38.1200 C   0  0  0  0  0  0  0  0  0  0  0  0
   37.7420   31.9910   37.1400 O   0  0  0  0  0  0  0  0  0  0  0  0
   37.9040   31.7210   39.3610 N   0  0  0  0  0  0  0  0  0  0  0  0
   37.7730   30.8930   40.4410 C   0  0  0  0  0  0  0  0  0  0  0  0
   38.0470   31.3920   41.5750 O   0  0  0  0  0  0  0  0  0  0  0  0
   38.3290   33.0700   39.5660 C   0  0  0  0  0  0  0  0  0  0  0  0
   37.6870   34.2800   39.7240 C   0  0  0  0  0  0  0  0  0  0  0  0
   38.6310   35.2380   39.8880 N   0  0  0  0  0  0  0  0  0  0  0  0
   39.8540   34.6700   39.8370 C   0  0  0  0  0  0  0  0  0  0  0  0
   41.1060   35.2370   39.9510 C   0  0  0  0  0  0  0  0  0  0  0  0
   42.2620   34.4630   39.8670 C   0  0  0  0  0  0  0  0  0  0  0  0
   42.1090   33.1190   39.6690 C   0  0  0  0  0  0  0  0  0  0  0  0
   40.8530   32.5760   39.5590 C   0  0  0  0  0  0  0  0  0  0  0  0
   39.6880   33.3230   39.6380 C   0  0  0  0  0  0  0  0  0  0  0  0
   36.9380   29.4400   36.6680 C   0  0  0  0  0  0  0  0  0  0  0  0
   37.4710   28.1040   36.4010 C   0  0  0  0  0  0  0  0  0  0  0  0
   36.6170   27.0920   35.9340 C   0  0  0  0  0  0  0  0  0  0  0  0
   37.3470   25.9750   35.7690 N   0  0  0  0  0  0  0  0  0  0  0  0
   38.6280   26.1960   36.1030 C   0  0  0  0  0  0  0  0  0  0  0  0
   38.6580   27.4840   36.4760 N   0  0  0  0  0  0  0  0  0  0  0  0
   37.7374   29.0685   44.8028 H   0  0  0  0  0  0  0  0  0  0  0  0
   36.9694   26.6861   44.6644 H   0  0  0  0  0  0  0  0  0  0  0  0
   36.4020   25.7303   42.4195 H   0  0  0  0  0  0  0  0  0  0  0  0
   36.7514   28.0098   38.9930 H   0  0  0  0  0  0  0  0  0  0  0  0
   36.5987   34.4396   39.7180 H   0  0  0  0  0  0  0  0  0  0  0  0
   38.4446   36.2411   40.0293 H   0  0  0  0  0  0  0  0  0  0  0  0
   41.1940   36.3217   40.1114 H   0  0  0  0  0  0  0  0  0  0  0  0
   43.2601   34.9166   39.9567 H   0  0  0  0  0  0  0  0  0  0  0  0
   42.9949   32.4708   39.5976 H   0  0  0  0  0  0  0  0  0  0  0  0
   40.7665   31.4910   39.3998 H   0  0  0  0  0  0  0  0  0  0  0  0
   35.8482   29.4181   36.5205 H   0  0  0  0  0  0  0  0  0  0  0  0
   37.4334   30.1356   35.9746 H   0  0  0  0  0  0  0  0  0  0  0  0
   35.5396   27.1950   35.7376 H   0  0  0  0  0  0  0  0  0  0  0  0
   39.4644   25.4820   36.0768 H   0  0  0  0  0  0  0  0  0  0  0  0
   39.5173   27.9557   36.7923 H   0  0  0  0  0  0  0  0  0  0  0  0
  2  1  2  0
  3  2  1  0
  4  5  1  0
  4  3  2  0
  5  6  2  0
  6  1  1  0
  7 13  1  0
  7  5  1  0
  8  7  1  0
  9 10  1  0
  9  8  2  0
 10 12  1  0
 11 10  2  0
 12 15  1  0
 12 13  1  0
 13 14  2  0
 15 23  1  0
 15 16  2  0
 16 17  1  0
 18 17  1  0
 18 19  2  0
 20 19  1  0
 21 20  2  0
 22 23  2  0
 22 21  1  0
 23 18  1  0
 24  9  1  0
 25 29  1  0
 25 24  1  0
 26 25  2  0
 27 26  1  0
 27 28  2  0
 28 29  1  0
  1 30  1  0
  2 31  1  0
  3 32  1  0
  8 33  1  0
 16 34  1  0
 17 35  1  0
 19 36  1  0
 20 37  1  0
 21 38  1  0
 22 39  1  0
 24 40  1  0
 24 41  1  0
 26 42  1  0
 28 43  1  0
 29 44  1  0
M  ISO  8  30  14  31  14  32  14  33  14  34  14  35   9  36  14  37  14
M  ISO  7  38  14  39  14  40   8  41   8  42  14  43  14  44   9
M  END
>  <minimizedAffinity>  (1) 
-6.42495632

>  <minimizedRMSD>  (1) 
1.07141876

$$$$
