
     RDKit          3D

 38 41  0  0  0  0  0  0  0  0999 V2000
   37.5930   28.5980   43.8030 C   0  0  0  0  0  0  0  0  0  0  0  0
   37.1240   27.2660   43.7340 C   0  0  0  0  0  0  0  0  0  0  0  0
   36.7490   26.7650   42.4960 C   0  0  0  0  0  0  0  0  0  0  0  0
   36.8570   27.5930   41.4190 N   0  0  0  0  0  0  0  0  0  0  0  0
   37.3040   28.8540   41.5070 C   0  0  0  0  0  0  0  0  0  0  0  0
   37.6760   29.3730   42.6850 N   0  0  0  0  0  0  0  0  0  0  0  0
   37.3650   29.6060   40.2970 N   0  0  0  0  0  0  0  0  0  0  0  0
   37.0130   29.0820   39.1100 C   0  0  0  0  0  0  0  0  0  0  0  0
   37.1300   29.9410   38.0540 C   0  0  0  0  0  0  0  0  0  0  0  0
   37.5620   31.2430   38.1230 C   0  0  0  0  0  0  0  0  0  0  0  0
   37.6640   32.0200   37.1470 O   0  0  0  0  0  0  0  0  0  0  0  0
   37.9060   31.7290   39.3480 N   0  0  0  0  0  0  0  0  0  0  0  0
   37.7990   30.8830   40.4300 C   0  0  0  0  0  0  0  0  0  0  0  0
   38.1300   31.3760   41.5520 O   0  0  0  0  0  0  0  0  0  0  0  0
   38.3720   33.0610   39.5530 C   0  0  0  0  0  0  0  0  0  0  0  0
   37.7760   34.2840   39.7730 C   0  0  0  0  0  0  0  0  0  0  0  0
   38.7370   35.2210   39.8940 N   0  0  0  0  0  0  0  0  0  0  0  0
   39.9500   34.6260   39.7540 C   0  0  0  0  0  0  0  0  0  0  0  0
   41.2140   35.1640   39.7980 C   0  0  0  0  0  0  0  0  0  0  0  0
   42.3510   34.3650   39.6260 C   0  0  0  0  0  0  0  0  0  0  0  0
   42.1570   33.0290   39.4140 C   0  0  0  0  0  0  0  0  0  0  0  0
   40.8830   32.5170   39.3760 C   0  0  0  0  0  0  0  0  0  0  0  0
   39.7390   33.2720   39.5400 C   0  0  0  0  0  0  0  0  0  0  0  0
   36.7790   29.5040   36.6790 C   0  0  0  0  0  0  0  0  0  0  0  0
   37.9010   29.2730   35.8840 O   0  0  0  0  0  0  0  0  0  0  0  0
   37.8958   29.0155   44.7746 H   0  0  0  0  0  0  0  0  0  0  0  0
   37.0582   26.6433   44.6384 H   0  0  0  0  0  0  0  0  0  0  0  0
   36.3774   25.7354   42.3874 H   0  0  0  0  0  0  0  0  0  0  0  0
   36.6597   28.0463   38.9981 H   0  0  0  0  0  0  0  0  0  0  0  0
   36.6931   34.4656   39.8390 H   0  0  0  0  0  0  0  0  0  0  0  0
   38.5777   36.2242   40.0647 H   0  0  0  0  0  0  0  0  0  0  0  0
   41.3348   36.2435   39.9717 H   0  0  0  0  0  0  0  0  0  0  0  0
   43.3623   34.7965   39.6602 H   0  0  0  0  0  0  0  0  0  0  0  0
   43.0214   32.3634   39.2737 H   0  0  0  0  0  0  0  0  0  0  0  0
   40.7669   31.4368   39.2040 H   0  0  0  0  0  0  0  0  0  0  0  0
   36.1961   28.5734   36.7437 H   0  0  0  0  0  0  0  0  0  0  0  0
   36.2015   30.3145   36.2105 H   0  0  0  0  0  0  0  0  0  0  0  0
   38.6878   29.1110   36.4627 H   0  0  0  0  0  0  0  0  0  0  0  0
  2  1  2  0
  3  2  1  0
  4  5  1  0
  4  3  2  0
  5  6  2  0
  6  1  1  0
  7 13  1  0
  7  5  1  0
  8  7  1  0
  9 10  1  0
  9  8  2  0
 10 12  1  0
 11 10  2  0
 12 15  1  0
 12 13  1  0
 13 14  2  0
 15 16  2  0
 16 17  1  0
 18 19  2  0
 18 17  1  0
 20 19  1  0
 21 20  2  0
 22 21  1  0
 22 23  2  0
 23 15  1  0
 23 18  1  0
 24  9  1  0
 25 24  1  0
  1 26  1  0
  2 27  1  0
  3 28  1  0
  8 29  1  0
 16 30  1  0
 17 31  1  0
 19 32  1  0
 20 33  1  0
 21 34  1  0
 22 35  1  0
 24 36  1  0
 24 37  1  0
 25 38  1  0
M  ISO  8  26  14  27  14  28  14  29  14  30  14  31   9  32  14  33  14
M  ISO  5  34  14  35  14  36   8  37   8  38   3
M  END
>  <minimizedAffinity>  (1) 
-6.42479801

>  <minimizedRMSD>  (1) 
0.0327132009

$$$$
