
     RDKit          3D

 43 46  0  0  1  0  0  0  0  0999 V2000
   37.9930   27.3630   42.7460 C   0  0  2  0  0  0  0  0  0  0  0  0
   39.0900   27.6480   43.6820 C   0  0  0  0  0  0  0  0  0  0  0  0
   39.8110   26.3260   43.8390 C   0  0  0  0  0  0  0  0  0  0  0  0
   39.3140   25.4370   42.7540 C   0  0  0  0  0  0  0  0  0  0  0  0
   38.5720   26.3580   41.7750 C   0  0  1  0  0  0  0  0  0  0  0  0
   37.5450   25.4180   41.2130 C   0  0  0  0  0  0  0  0  0  0  0  0
   36.9790   24.4430   41.9180 N   0  0  0  0  0  0  0  0  0  0  0  0
   36.1520   23.8250   41.1080 O   0  0  0  0  0  0  0  0  0  0  0  0
   36.2040   24.4090   39.9230 C   0  0  0  0  0  0  0  0  0  0  0  0
   37.0690   25.4150   39.9430 N   0  0  0  0  0  0  0  0  0  0  0  0
   35.3870   23.9100   38.8720 N   0  0  0  0  0  0  0  0  0  0  0  0
   35.3580   24.4270   37.5160 C   0  0  0  0  0  0  0  0  0  0  0  0
   33.9340   24.8780   37.2770 C   0  0  0  0  0  0  0  0  0  0  0  0
   32.9080   23.8140   37.4930 C   0  0  0  0  0  0  0  0  0  0  0  0
   33.1110   22.9480   38.6860 C   0  0  0  0  0  0  0  0  0  0  0  0
   34.5160   22.7920   39.1300 C   0  0  0  0  0  0  0  0  0  0  0  0
   38.0850   29.7500   41.8700 C   0  0  0  0  0  0  0  0  0  0  0  0
   37.4260   28.5140   42.0710 C   0  0  0  0  0  0  0  0  0  0  0  0
   36.1380   28.3800   41.5660 C   0  0  0  0  0  0  0  0  0  0  0  0
   35.5740   29.4510   40.9050 N   0  0  0  0  0  0  0  0  0  0  0  0
   36.2500   30.6380   40.7320 C   0  0  0  0  0  0  0  0  0  0  0  0
   37.5230   30.7730   41.2280 N   0  0  0  0  0  0  0  0  0  0  0  0
   37.1231   26.9818   43.3009 H   0  0  0  0  0  0  0  0  0  0  0  0
   39.7650   28.4117   43.2683 H   0  0  0  0  0  0  0  0  0  0  0  0
   38.7270   28.0419   44.6427 H   0  0  0  0  0  0  0  0  0  0  0  0
   40.8969   26.4724   43.7417 H   0  0  0  0  0  0  0  0  0  0  0  0
   39.6208   25.8865   44.8293 H   0  0  0  0  0  0  0  0  0  0  0  0
   40.1552   24.9386   42.2501 H   0  0  0  0  0  0  0  0  0  0  0  0
   38.6586   24.6445   43.1445 H   0  0  0  0  0  0  0  0  0  0  0  0
   39.1005   26.8666   40.9552 H   0  0  0  0  0  0  0  0  0  0  0  0
   36.0506   25.2755   37.4147 H   0  0  0  0  0  0  0  0  0  0  0  0
   35.6694   23.6656   36.7858 H   0  0  0  0  0  0  0  0  0  0  0  0
   33.8534   25.2284   36.2374 H   0  0  0  0  0  0  0  0  0  0  0  0
   33.7266   25.6696   38.0121 H   0  0  0  0  0  0  0  0  0  0  0  0
   31.9293   24.3055   37.5959 H   0  0  0  0  0  0  0  0  0  0  0  0
   32.9850   23.1452   36.6231 H   0  0  0  0  0  0  0  0  0  0  0  0
   32.5382   23.3802   39.5198 H   0  0  0  0  0  0  0  0  0  0  0  0
   32.7747   21.9433   38.3903 H   0  0  0  0  0  0  0  0  0  0  0  0
   34.9353   21.9134   38.6180 H   0  0  0  0  0  0  0  0  0  0  0  0
   34.4724   22.6962   40.2250 H   0  0  0  0  0  0  0  0  0  0  0  0
   39.1060   29.8714   42.2610 H   0  0  0  0  0  0  0  0  0  0  0  0
   35.5805   27.4400   41.6909 H   0  0  0  0  0  0  0  0  0  0  0  0
   35.7726   31.4736   40.1992 H   0  0  0  0  0  0  0  0  0  0  0  0
  1  2  1  0
  2  3  1  0
  4  3  1  0
  5  1  1  0
  5  4  1  0
  6  5  1  0
  6  7  2  0
  8  7  1  0
  9 10  2  0
  9  8  1  0
 10  6  1  0
 11 16  1  0
 11  9  1  0
 12 11  1  0
 13 14  1  0
 13 12  1  0
 14 15  1  0
 15 16  1  0
 17 18  2  0
 18  1  1  0
 19 18  1  0
 20 19  2  0
 21 20  1  0
 21 22  2  0
 22 17  1  0
  1 23  1  1
  2 24  1  0
  2 25  1  0
  3 26  1  0
  3 27  1  0
  4 28  1  0
  4 29  1  0
  5 30  1  6
 12 31  1  0
 12 32  1  0
 13 33  1  0
 13 34  1  0
 14 35  1  0
 14 36  1  0
 15 37  1  0
 15 38  1  0
 16 39  1  0
 16 40  1  0
 17 41  1  0
 19 42  1  0
 21 43  1  0
M  ISO  8  23  13  24  13  25  13  26  13  27  13  28  13  29  13  30  13
M  ISO  8  31  13  32  13  33  13  34  13  35  13  36  13  37  13  38  13
M  ISO  5  39  13  40  13  41  14  42  14  43  14
M  END
>  <minimizedAffinity>  (1) 
-5.44409847

>  <minimizedRMSD>  (1) 
0.682343483

$$$$
