
     RDKit          3D

 39 42  0  0  1  0  0  0  0  0999 V2000
   37.9320   27.3410   42.7460 C   0  0  2  0  0  0  0  0  0  0  0  0
   38.9700   27.6000   43.7450 C   0  0  0  0  0  0  0  0  0  0  0  0
   39.7350   26.2950   43.8700 C   0  0  0  0  0  0  0  0  0  0  0  0
   39.2720   25.4270   42.7460 C   0  0  0  0  0  0  0  0  0  0  0  0
   38.5640   26.3690   41.7710 C   0  0  1  0  0  0  0  0  0  0  0  0
   37.5860   25.4460   41.1260 C   0  0  0  0  0  0  0  0  0  0  0  0
   36.9470   24.4750   41.8090 N   0  0  0  0  0  0  0  0  0  0  0  0
   36.1680   23.8530   40.9510 O   0  0  0  0  0  0  0  0  0  0  0  0
   36.3120   24.4140   39.7660 C   0  0  0  0  0  0  0  0  0  0  0  0
   37.1870   25.4120   39.8330 N   0  0  0  0  0  0  0  0  0  0  0  0
   35.6940   24.1140   38.5050 N   0  0  0  0  0  0  0  0  0  0  0  0
   36.1480   24.5680   37.3210 C   0  0  0  0  0  0  0  0  0  0  0  0
   35.4440   24.1910   36.1930 C   0  0  0  0  0  0  0  0  0  0  0  0
   34.3380   23.3890   36.3280 C   0  0  0  0  0  0  0  0  0  0  0  0
   33.6610   23.0410   35.1220 N   0  0  0  0  0  0  0  0  0  0  0  0
   33.8980   22.9440   37.5330 N   0  0  0  0  0  0  0  0  0  0  0  0
   34.6010   23.3240   38.6090 C   0  0  0  0  0  0  0  0  0  0  0  0
   34.1650   22.8910   39.7190 O   0  0  0  0  0  0  0  0  0  0  0  0
   38.0350   29.7540   41.9490 C   0  0  0  0  0  0  0  0  0  0  0  0
   37.3760   28.5000   42.0800 C   0  0  0  0  0  0  0  0  0  0  0  0
   36.1030   28.3630   41.5220 C   0  0  0  0  0  0  0  0  0  0  0  0
   35.5520   29.4490   40.8710 N   0  0  0  0  0  0  0  0  0  0  0  0
   36.2210   30.6430   40.7650 C   0  0  0  0  0  0  0  0  0  0  0  0
   37.4710   30.7810   41.3130 N   0  0  0  0  0  0  0  0  0  0  0  0
   37.0417   26.9382   43.2511 H   0  0  0  0  0  0  0  0  0  0  0  0
   39.6368   28.4075   43.4083 H   0  0  0  0  0  0  0  0  0  0  0  0
   38.5443   27.9213   44.7071 H   0  0  0  0  0  0  0  0  0  0  0  0
   40.8165   26.4785   43.7887 H   0  0  0  0  0  0  0  0  0  0  0  0
   39.5536   25.8175   44.8442 H   0  0  0  0  0  0  0  0  0  0  0  0
   40.1289   24.9403   42.2573 H   0  0  0  0  0  0  0  0  0  0  0  0
   38.6061   24.6245   43.0962 H   0  0  0  0  0  0  0  0  0  0  0  0
   39.1224   26.9119   40.9942 H   0  0  0  0  0  0  0  0  0  0  0  0
   37.0389   25.2099   37.2548 H   0  0  0  0  0  0  0  0  0  0  0  0
   35.7665   24.5300   35.1975 H   0  0  0  0  0  0  0  0  0  0  0  0
   32.8240   22.4417   35.1558 H   0  0  0  0  0  0  0  0  0  0  0  0
   34.0090   23.3890   34.2172 H   0  0  0  0  0  0  0  0  0  0  0  0
   39.0373   29.8796   42.3844 H   0  0  0  0  0  0  0  0  0  0  0  0
   35.5530   27.4135   41.5992 H   0  0  0  0  0  0  0  0  0  0  0  0
   35.7544   31.4897   40.2403 H   0  0  0  0  0  0  0  0  0  0  0  0
  1  2  1  0
  2  3  1  0
  4  3  1  0
  5  1  1  0
  5  4  1  0
  6  5  1  0
  6  7  2  0
  8  7  1  0
  9 10  2  0
  9  8  1  0
 10  6  1  0
 11 17  1  0
 11  9  1  0
 12 11  1  0
 13 14  1  0
 13 12  2  0
 14 16  2  0
 15 14  1  0
 16 17  1  0
 17 18  2  0
 19 20  2  0
 20  1  1  0
 21 20  1  0
 22 21  2  0
 23 22  1  0
 23 24  2  0
 24 19  1  0
  1 25  1  1
  2 26  1  0
  2 27  1  0
  3 28  1  0
  3 29  1  0
  4 30  1  0
  4 31  1  0
  5 32  1  6
 12 33  1  0
 13 34  1  0
 15 35  1  0
 15 36  1  0
 19 37  1  0
 21 38  1  0
 23 39  1  0
M  ISO  8  25  13  26  13  27  13  28  13  29  13  30  13  31  13  32  13
M  ISO  5  33  14  34  14  37  14  38  14  39  14
M  END
>  <minimizedAffinity>  (1) 
-5.32927847

>  <minimizedRMSD>  (1) 
0.550744057

$$$$
