
     RDKit          3D

 44 48  0  0  0  0  0  0  0  0999 V2000
   37.2380   28.5280   43.8970 C   0  0  0  0  0  0  0  0  0  0  0  0
   37.0270   27.1350   43.8470 C   0  0  0  0  0  0  0  0  0  0  0  0
   37.0650   26.5070   42.5990 C   0  0  0  0  0  0  0  0  0  0  0  0
   37.3030   27.2820   41.5030 N   0  0  0  0  0  0  0  0  0  0  0  0
   37.4990   28.6100   41.5820 C   0  0  0  0  0  0  0  0  0  0  0  0
   37.4670   29.2320   42.7680 N   0  0  0  0  0  0  0  0  0  0  0  0
   37.7360   29.3030   40.3630 N   0  0  0  0  0  0  0  0  0  0  0  0
   37.7860   28.6800   39.1790 C   0  0  0  0  0  0  0  0  0  0  0  0
   38.0220   29.5020   38.1000 C   0  0  0  0  0  0  0  0  0  0  0  0
   38.2000   30.8560   38.1710 C   0  0  0  0  0  0  0  0  0  0  0  0
   38.4140   31.5930   37.1840 O   0  0  0  0  0  0  0  0  0  0  0  0
   38.1400   31.4360   39.3960 N   0  0  0  0  0  0  0  0  0  0  0  0
   37.9070   30.6510   40.4900 C   0  0  0  0  0  0  0  0  0  0  0  0
   37.8610   31.2430   41.6120 O   0  0  0  0  0  0  0  0  0  0  0  0
   38.3140   32.8520   39.5820 C   0  0  0  0  0  0  0  0  0  0  0  0
   37.4620   33.9450   39.5580 C   0  0  0  0  0  0  0  0  0  0  0  0
   38.1980   35.0520   39.8050 N   0  0  0  0  0  0  0  0  0  0  0  0
   39.4980   34.6960   39.9880 C   0  0  0  0  0  0  0  0  0  0  0  0
   40.6110   35.4610   40.2620 C   0  0  0  0  0  0  0  0  0  0  0  0
   41.8700   34.8870   40.4130 C   0  0  0  0  0  0  0  0  0  0  0  0
   41.9670   33.5240   40.2790 C   0  0  0  0  0  0  0  0  0  0  0  0
   40.8450   32.7790   40.0050 C   0  0  0  0  0  0  0  0  0  0  0  0
   39.5900   33.3230   39.8520 C   0  0  0  0  0  0  0  0  0  0  0  0
   38.0920   28.9310   36.7410 C   0  0  0  0  0  0  0  0  0  0  0  0
   39.2300   27.9810   36.6640 C   0  0  0  0  0  0  0  0  0  0  0  0
   39.3150   26.6210   36.4850 C   0  0  0  0  0  0  0  0  0  0  0  0
   40.6320   26.2040   36.4930 C   0  0  0  0  0  0  0  0  0  0  0  0
   41.3430   27.3380   36.6800 N   0  0  0  0  0  0  0  0  0  0  0  0
   40.5300   28.3620   36.7780 N   0  0  0  0  0  0  0  0  0  0  0  0
   37.2158   29.0470   44.8666 H   0  0  0  0  0  0  0  0  0  0  0  0
   36.8378   26.5585   44.7645 H   0  0  0  0  0  0  0  0  0  0  0  0
   36.9079   25.4224   42.5042 H   0  0  0  0  0  0  0  0  0  0  0  0
   37.6489   27.5934   39.0761 H   0  0  0  0  0  0  0  0  0  0  0  0
   36.3784   33.9168   39.3710 H   0  0  0  0  0  0  0  0  0  0  0  0
   37.8318   36.0138   39.8479 H   0  0  0  0  0  0  0  0  0  0  0  0
   40.5019   36.5508   40.3638 H   0  0  0  0  0  0  0  0  0  0  0  0
   42.7549   35.5028   40.6317 H   0  0  0  0  0  0  0  0  0  0  0  0
   42.9426   33.0283   40.3909 H   0  0  0  0  0  0  0  0  0  0  0  0
   40.9560   31.6894   39.9025 H   0  0  0  0  0  0  0  0  0  0  0  0
   37.1549   28.4002   36.5171 H   0  0  0  0  0  0  0  0  0  0  0  0
   38.2379   29.7395   36.0095 H   0  0  0  0  0  0  0  0  0  0  0  0
   38.4503   25.9540   36.3531 H   0  0  0  0  0  0  0  0  0  0  0  0
   41.0155   25.1799   36.3740 H   0  0  0  0  0  0  0  0  0  0  0  0
   42.3701   27.3901   36.7370 H   0  0  0  0  0  0  0  0  0  0  0  0
  2  1  2  0
  3  2  1  0
  4  5  1  0
  4  3  2  0
  5  6  2  0
  6  1  1  0
  7 13  1  0
  7  5  1  0
  8  7  1  0
  9 10  1  0
  9  8  2  0
 10 12  1  0
 11 10  2  0
 12 15  1  0
 12 13  1  0
 13 14  2  0
 15 23  1  0
 16 15  2  0
 16 17  1  0
 17 18  1  0
 18 19  2  0
 19 20  1  0
 21 20  2  0
 22 21  1  0
 23 18  1  0
 23 22  2  0
 24  9  1  0
 25 24  1  0
 25 29  2  0
 26 27  2  0
 26 25  1  0
 27 28  1  0
 28 29  1  0
  1 30  1  0
  2 31  1  0
  3 32  1  0
  8 33  1  0
 16 34  1  0
 17 35  1  0
 19 36  1  0
 20 37  1  0
 21 38  1  0
 22 39  1  0
 24 40  1  0
 24 41  1  0
 26 42  1  0
 27 43  1  0
 28 44  1  0
M  ISO  8  30  14  31  14  32  14  33  14  34  14  35   9  36  14  37  14
M  ISO  7  38  14  39  14  40   8  41   8  42  14  43  14  44   9
M  END
>  <minimizedAffinity>  (1) 
-6.39723825

>  <minimizedRMSD>  (1) 
2.97902822

$$$$
