
     RDKit          3D

 35 38  0  0  1  0  0  0  0  0999 V2000
   37.9390   27.3700   42.7370 C   0  0  2  0  0  0  0  0  0  0  0  0
   39.0230   27.6640   43.6820 C   0  0  0  0  0  0  0  0  0  0  0  0
   39.7480   26.3470   43.8710 C   0  0  0  0  0  0  0  0  0  0  0  0
   39.2940   25.4620   42.7570 C   0  0  0  0  0  0  0  0  0  0  0  0
   38.5590   26.3760   41.7740 C   0  0  1  0  0  0  0  0  0  0  0  0
   37.5790   25.4350   41.1650 C   0  0  0  0  0  0  0  0  0  0  0  0
   36.8710   24.5540   41.8950 N   0  0  0  0  0  0  0  0  0  0  0  0
   36.1100   23.8770   41.0650 O   0  0  0  0  0  0  0  0  0  0  0  0
   36.3330   24.3240   39.8380 C   0  0  0  0  0  0  0  0  0  0  0  0
   37.2410   25.2950   39.8620 N   0  0  0  0  0  0  0  0  0  0  0  0
   35.6630   23.8030   38.6800 N   0  0  0  0  0  0  0  0  0  0  0  0
   35.8090   22.5200   38.3760 N   0  0  0  0  0  0  0  0  0  0  0  0
   35.0750   22.3330   37.2600 C   0  0  0  0  0  0  0  0  0  0  0  0
   34.4650   23.5060   36.8610 C   0  0  0  0  0  0  0  0  0  0  0  0
   34.8600   24.4420   37.7940 C   0  0  0  0  0  0  0  0  0  0  0  0
   37.9870   29.7770   41.9260 C   0  0  0  0  0  0  0  0  0  0  0  0
   37.3510   28.5110   42.0530 C   0  0  0  0  0  0  0  0  0  0  0  0
   36.0980   28.3280   41.4890 C   0  0  0  0  0  0  0  0  0  0  0  0
   35.5220   29.3910   40.8250 N   0  0  0  0  0  0  0  0  0  0  0  0
   36.1620   30.6070   40.7180 C   0  0  0  0  0  0  0  0  0  0  0  0
   37.3980   30.7810   41.2770 N   0  0  0  0  0  0  0  0  0  0  0  0
   37.0645   26.9824   43.2801 H   0  0  0  0  0  0  0  0  0  0  0  0
   39.7024   28.4230   43.2668 H   0  0  0  0  0  0  0  0  0  0  0  0
   38.6437   28.0665   44.6329 H   0  0  0  0  0  0  0  0  0  0  0  0
   40.8362   26.4991   43.8187 H   0  0  0  0  0  0  0  0  0  0  0  0
   39.5269   25.9033   44.8530 H   0  0  0  0  0  0  0  0  0  0  0  0
   40.1576   24.9882   42.2675 H   0  0  0  0  0  0  0  0  0  0  0  0
   38.6446   24.6523   43.1212 H   0  0  0  0  0  0  0  0  0  0  0  0
   39.0992   26.9043   40.9746 H   0  0  0  0  0  0  0  0  0  0  0  0
   34.9752   21.3711   36.7357 H   0  0  0  0  0  0  0  0  0  0  0  0
   33.8091   23.6599   35.9914 H   0  0  0  0  0  0  0  0  0  0  0  0
   34.5772   25.5048   37.8152 H   0  0  0  0  0  0  0  0  0  0  0  0
   38.9814   29.9299   42.3708 H   0  0  0  0  0  0  0  0  0  0  0  0
   35.5776   27.3621   41.5687 H   0  0  0  0  0  0  0  0  0  0  0  0
   35.6786   31.4377   40.1829 H   0  0  0  0  0  0  0  0  0  0  0  0
  1  2  1  0
  2  3  1  0
  4  3  1  0
  5  1  1  0
  5  4  1  0
  6  5  1  0
  6  7  2  0
  8  7  1  0
  9 10  2  0
  9  8  1  0
 10  6  1  0
 11  9  1  0
 12 11  1  0
 13 12  2  0
 14 13  1  0
 14 15  2  0
 15 11  1  0
 16 17  2  0
 17  1  1  0
 18 17  1  0
 19 18  2  0
 20 19  1  0
 20 21  2  0
 21 16  1  0
  1 22  1  1
  2 23  1  0
  2 24  1  0
  3 25  1  0
  3 26  1  0
  4 27  1  0
  4 28  1  0
  5 29  1  6
 13 30  1  0
 14 31  1  0
 15 32  1  0
 16 33  1  0
 18 34  1  0
 20 35  1  0
M  ISO  8  22  13  23  13  24  13  25  13  26  13  27  13  28  13  29  13
M  ISO  6  30  14  31  14  32  14  33  14  34  14  35  14
M  END
>  <minimizedAffinity>  (1) 
-5.05490017

>  <minimizedRMSD>  (1) 
0.539231181

$$$$
