
     RDKit          3D

 35 38  0  0  1  0  0  0  0  0999 V2000
   37.9330   27.3690   42.7370 C   0  0  2  0  0  0  0  0  0  0  0  0
   39.0020   27.6700   43.6960 C   0  0  0  0  0  0  0  0  0  0  0  0
   39.7540   26.3670   43.8700 C   0  0  0  0  0  0  0  0  0  0  0  0
   39.2820   25.4650   42.7740 C   0  0  0  0  0  0  0  0  0  0  0  0
   38.5560   26.3730   41.7780 C   0  0  1  0  0  0  0  0  0  0  0  0
   37.9670   29.7740   41.9160 C   0  0  0  0  0  0  0  0  0  0  0  0
   37.3400   28.5040   42.0480 C   0  0  0  0  0  0  0  0  0  0  0  0
   36.0910   28.3160   41.4840 C   0  0  0  0  0  0  0  0  0  0  0  0
   35.5150   29.3790   40.8180 N   0  0  0  0  0  0  0  0  0  0  0  0
   36.1390   30.5930   40.7040 C   0  0  0  0  0  0  0  0  0  0  0  0
   37.3810   30.7780   41.2660 N   0  0  0  0  0  0  0  0  0  0  0  0
   37.5750   25.4250   41.1770 C   0  0  0  0  0  0  0  0  0  0  0  0
   36.8660   24.5520   41.9160 N   0  0  0  0  0  0  0  0  0  0  0  0
   36.1050   23.8710   41.0860 O   0  0  0  0  0  0  0  0  0  0  0  0
   36.3280   24.3030   39.8600 C   0  0  0  0  0  0  0  0  0  0  0  0
   37.2410   25.2740   39.8750 N   0  0  0  0  0  0  0  0  0  0  0  0
   35.6360   23.7450   38.7040 C   0  0  0  0  0  0  0  0  0  0  0  0
   34.3920   23.1090   38.7870 C   0  0  0  0  0  0  0  0  0  0  0  0
   34.0290   22.7010   37.4980 C   0  0  0  0  0  0  0  0  0  0  0  0
   35.0950   23.1230   36.6950 C   0  0  0  0  0  0  0  0  0  0  0  0
   35.9880   23.7160   37.4440 O   0  0  0  0  0  0  0  0  0  0  0  0
   37.0592   26.9762   43.2776 H   0  0  0  0  0  0  0  0  0  0  0  0
   39.6681   28.4504   43.2994 H   0  0  0  0  0  0  0  0  0  0  0  0
   38.6056   28.0478   44.6500 H   0  0  0  0  0  0  0  0  0  0  0  0
   40.8373   26.5372   43.7842 H   0  0  0  0  0  0  0  0  0  0  0  0
   39.5691   25.9259   44.8606 H   0  0  0  0  0  0  0  0  0  0  0  0
   40.1364   24.9695   42.2897 H   0  0  0  0  0  0  0  0  0  0  0  0
   38.6236   24.6707   43.1556 H   0  0  0  0  0  0  0  0  0  0  0  0
   39.0982   26.8949   40.9757 H   0  0  0  0  0  0  0  0  0  0  0  0
   38.9603   29.9308   42.3618 H   0  0  0  0  0  0  0  0  0  0  0  0
   35.5727   27.3490   41.5638 H   0  0  0  0  0  0  0  0  0  0  0  0
   35.6488   31.4171   40.1650 H   0  0  0  0  0  0  0  0  0  0  0  0
   33.8033   22.9566   39.7036 H   0  0  0  0  0  0  0  0  0  0  0  0
   33.1164   22.1710   37.1877 H   0  0  0  0  0  0  0  0  0  0  0  0
   35.1697   22.9788   35.6071 H   0  0  0  0  0  0  0  0  0  0  0  0
  1  2  1  0
  2  3  1  0
  4  3  1  0
  5  1  1  0
  5  4  1  0
  6  7  2  0
  7  1  1  0
  8  7  1  0
  9  8  2  0
 10  9  1  0
 10 11  2  0
 11  6  1  0
 12  5  1  0
 12 13  2  0
 14 13  1  0
 15 16  2  0
 15 14  1  0
 16 12  1  0
 17 18  2  0
 17 15  1  0
 19 18  1  0
 20 21  1  0
 20 19  2  0
 21 17  1  0
  1 22  1  1
  2 23  1  0
  2 24  1  0
  3 25  1  0
  3 26  1  0
  4 27  1  0
  4 28  1  0
  5 29  1  6
  6 30  1  0
  8 31  1  0
 10 32  1  0
 18 33  1  0
 19 34  1  0
 20 35  1  0
M  ISO  8  22  13  23  13  24  13  25  13  26  13  27  13  28  13  29  13
M  ISO  6  30  14  31  14  32  14  33  14  34  14  35  14
M  END
>  <minimizedAffinity>  (1) 
-4.90502071

>  <minimizedRMSD>  (1) 
0.631652892

$$$$
