
     RDKit          3D

 35 38  0  0  1  0  0  0  0  0999 V2000
   37.9620   27.3700   42.7390 C   0  0  2  0  0  0  0  0  0  0  0  0
   39.0490   27.6570   43.6820 C   0  0  0  0  0  0  0  0  0  0  0  0
   39.7750   26.3360   43.8570 C   0  0  0  0  0  0  0  0  0  0  0  0
   39.3070   25.4580   42.7400 C   0  0  0  0  0  0  0  0  0  0  0  0
   38.5630   26.3730   41.7670 C   0  0  1  0  0  0  0  0  0  0  0  0
   38.0140   29.7770   41.9230 C   0  0  0  0  0  0  0  0  0  0  0  0
   37.3760   28.5160   42.0610 C   0  0  0  0  0  0  0  0  0  0  0  0
   36.1180   28.3510   41.5120 C   0  0  0  0  0  0  0  0  0  0  0  0
   35.5420   29.4110   40.8570 N   0  0  0  0  0  0  0  0  0  0  0  0
   36.1810   30.6250   40.7370 C   0  0  0  0  0  0  0  0  0  0  0  0
   37.4370   30.7930   41.2850 N   0  0  0  0  0  0  0  0  0  0  0  0
   37.5610   25.4370   41.1800 C   0  0  0  0  0  0  0  0  0  0  0  0
   36.8850   24.5330   41.9240 N   0  0  0  0  0  0  0  0  0  0  0  0
   36.0980   23.8740   41.0990 O   0  0  0  0  0  0  0  0  0  0  0  0
   36.2740   24.3490   39.8870 C   0  0  0  0  0  0  0  0  0  0  0  0
   37.1730   25.3220   39.8870 N   0  0  0  0  0  0  0  0  0  0  0  0
   35.5350   23.8190   38.7300 C   0  0  0  0  0  0  0  0  0  0  0  0
   34.3190   23.0710   38.7790 C   0  0  0  0  0  0  0  0  0  0  0  0
   33.7990   22.6740   37.5820 C   0  0  0  0  0  0  0  0  0  0  0  0
   34.4770   23.0160   36.3640 C   0  0  0  0  0  0  0  0  0  0  0  0
   35.9550   23.9720   37.0430 S   0  0  0  0  0  0  0  0  0  0  0  0
   37.0915   26.9836   43.2895 H   0  0  0  0  0  0  0  0  0  0  0  0
   39.7269   28.4193   43.2704 H   0  0  0  0  0  0  0  0  0  0  0  0
   38.6739   28.0525   44.6375 H   0  0  0  0  0  0  0  0  0  0  0  0
   40.8629   26.4865   43.7949 H   0  0  0  0  0  0  0  0  0  0  0  0
   39.5637   25.8868   44.8386 H   0  0  0  0  0  0  0  0  0  0  0  0
   40.1654   24.9858   42.2399 H   0  0  0  0  0  0  0  0  0  0  0  0
   38.6584   24.6495   43.1082 H   0  0  0  0  0  0  0  0  0  0  0  0
   39.0955   26.8938   40.9576 H   0  0  0  0  0  0  0  0  0  0  0  0
   39.0151   29.9186   42.3563 H   0  0  0  0  0  0  0  0  0  0  0  0
   35.5895   27.3901   41.5983 H   0  0  0  0  0  0  0  0  0  0  0  0
   35.6932   31.4565   40.2073 H   0  0  0  0  0  0  0  0  0  0  0  0
   33.8274   22.8278   39.7325 H   0  0  0  0  0  0  0  0  0  0  0  0
   32.8645   22.0945   37.5504 H   0  0  0  0  0  0  0  0  0  0  0  0
   34.2090   22.7847   35.3225 H   0  0  0  0  0  0  0  0  0  0  0  0
  1  2  1  0
  2  3  1  0
  4  3  1  0
  5  1  1  0
  5  4  1  0
  6  7  2  0
  7  1  1  0
  8  7  1  0
  9  8  2  0
 10  9  1  0
 10 11  2  0
 11  6  1  0
 12  5  1  0
 12 13  2  0
 14 13  1  0
 15 14  1  0
 16 15  2  0
 16 12  1  0
 17 18  2  0
 17 15  1  0
 19 18  1  0
 20 21  1  0
 20 19  2  0
 21 17  1  0
  1 22  1  1
  2 23  1  0
  2 24  1  0
  3 25  1  0
  3 26  1  0
  4 27  1  0
  4 28  1  0
  5 29  1  6
  6 30  1  0
  8 31  1  0
 10 32  1  0
 18 33  1  0
 19 34  1  0
 20 35  1  0
M  ISO  8  22  13  23  13  24  13  25  13  26  13  27  13  28  13  29  13
M  ISO  6  30  14  31  14  32  14  33  14  34  14  35  14
M  END
>  <minimizedAffinity>  (1) 
-4.88084412

>  <minimizedRMSD>  (1) 
0.584192038

$$$$
