
     RDKit          3D

 35 38  0  0  1  0  0  0  0  0999 V2000
   37.9390   27.3770   42.7330 C   0  0  2  0  0  0  0  0  0  0  0  0
   39.0280   27.6950   43.6660 C   0  0  0  0  0  0  0  0  0  0  0  0
   39.7590   26.3790   43.8690 C   0  0  0  0  0  0  0  0  0  0  0  0
   39.3130   25.4880   42.7640 C   0  0  0  0  0  0  0  0  0  0  0  0
   38.5580   26.3770   41.7790 C   0  0  1  0  0  0  0  0  0  0  0  0
   37.9520   29.7800   41.8970 C   0  0  0  0  0  0  0  0  0  0  0  0
   37.3420   28.5100   42.0370 C   0  0  0  0  0  0  0  0  0  0  0  0
   36.0910   28.3090   41.4740 C   0  0  0  0  0  0  0  0  0  0  0  0
   35.4950   29.3560   40.8020 N   0  0  0  0  0  0  0  0  0  0  0  0
   36.1120   30.5830   40.6820 C   0  0  0  0  0  0  0  0  0  0  0  0
   37.3600   30.7790   41.2440 N   0  0  0  0  0  0  0  0  0  0  0  0
   37.5750   25.4160   41.1980 C   0  0  0  0  0  0  0  0  0  0  0  0
   36.8640   24.5590   41.9440 N   0  0  0  0  0  0  0  0  0  0  0  0
   36.0940   23.8720   41.1320 O   0  0  0  0  0  0  0  0  0  0  0  0
   36.3270   24.3040   39.8850 C   0  0  0  0  0  0  0  0  0  0  0  0
   37.2420   25.2640   39.8810 N   0  0  0  0  0  0  0  0  0  0  0  0
   35.6260   23.7410   38.7290 C   0  0  0  0  0  0  0  0  0  0  0  0
   34.3940   23.1160   38.7500 C   0  0  0  0  0  0  0  0  0  0  0  0
   34.1670   22.7670   37.4320 C   0  0  0  0  0  0  0  0  0  0  0  0
   35.1930   23.1560   36.6620 N   0  0  0  0  0  0  0  0  0  0  0  0
   36.0720   23.7460   37.4580 N   0  0  0  0  0  0  0  0  0  0  0  0
   37.0719   26.9866   43.2860 H   0  0  0  0  0  0  0  0  0  0  0  0
   39.7012   28.4499   43.2336 H   0  0  0  0  0  0  0  0  0  0  0  0
   38.6559   28.1145   44.6123 H   0  0  0  0  0  0  0  0  0  0  0  0
   40.8468   26.5343   43.8194 H   0  0  0  0  0  0  0  0  0  0  0  0
   39.5367   25.9421   44.8538 H   0  0  0  0  0  0  0  0  0  0  0  0
   40.1818   25.0261   42.2723 H   0  0  0  0  0  0  0  0  0  0  0  0
   38.6760   24.6730   43.1383 H   0  0  0  0  0  0  0  0  0  0  0  0
   39.0844   26.8970   40.9650 H   0  0  0  0  0  0  0  0  0  0  0  0
   38.9446   29.9469   42.3407 H   0  0  0  0  0  0  0  0  0  0  0  0
   35.5850   27.3362   41.5612 H   0  0  0  0  0  0  0  0  0  0  0  0
   35.6140   31.4018   40.1420 H   0  0  0  0  0  0  0  0  0  0  0  0
   33.7423   22.9369   39.6179 H   0  0  0  0  0  0  0  0  0  0  0  0
   33.2710   22.2439   37.0666 H   0  0  0  0  0  0  0  0  0  0  0  0
   35.2811   23.0216   35.6446 H   0  0  0  0  0  0  0  0  0  0  0  0
  1  2  1  0
  2  3  1  0
  4  3  1  0
  5  1  1  0
  5  4  1  0
  6  7  2  0
  7  1  1  0
  8  7  1  0
  9  8  2  0
 10  9  1  0
 10 11  2  0
 11  6  1  0
 12  5  1  0
 12 13  2  0
 14 13  1  0
 15 14  1  0
 16 15  2  0
 16 12  1  0
 17 18  1  0
 17 15  1  0
 19 18  2  0
 20 19  1  0
 20 21  1  0
 21 17  2  0
  1 22  1  1
  2 23  1  0
  2 24  1  0
  3 25  1  0
  3 26  1  0
  4 27  1  0
  4 28  1  0
  5 29  1  6
  6 30  1  0
  8 31  1  0
 10 32  1  0
 18 33  1  0
 19 34  1  0
 20 35  1  0
M  ISO  8  22  13  23  13  24  13  25  13  26  13  27  13  28  13  29  13
M  ISO  6  30  14  31  14  32  14  33  14  34  14  35   9
M  END
>  <minimizedAffinity>  (1) 
-4.86812973

>  <minimizedRMSD>  (1) 
0.577172935

$$$$
