
     RDKit          3D

 33 36  0  0  1  0  0  0  0  0999 V2000
   37.9190   27.3610   42.7280 C   0  0  2  0  0  0  0  0  0  0  0  0
   38.9900   27.6580   43.6890 C   0  0  0  0  0  0  0  0  0  0  0  0
   39.7360   26.3460   43.8610 C   0  0  0  0  0  0  0  0  0  0  0  0
   39.2790   25.4590   42.7510 C   0  0  0  0  0  0  0  0  0  0  0  0
   38.5420   26.3680   41.7680 C   0  0  1  0  0  0  0  0  0  0  0  0
   37.9680   29.7690   41.9140 C   0  0  0  0  0  0  0  0  0  0  0  0
   37.3340   28.5030   42.0420 C   0  0  0  0  0  0  0  0  0  0  0  0
   36.0820   28.3220   41.4740 C   0  0  0  0  0  0  0  0  0  0  0  0
   35.5060   29.3810   40.8110 N   0  0  0  0  0  0  0  0  0  0  0  0
   36.1360   30.6010   40.6980 C   0  0  0  0  0  0  0  0  0  0  0  0
   37.3810   30.7750   41.2640 N   0  0  0  0  0  0  0  0  0  0  0  0
   37.5610   25.4250   41.1620 C   0  0  0  0  0  0  0  0  0  0  0  0
   36.8590   24.5370   41.9010 N   0  0  0  0  0  0  0  0  0  0  0  0
   36.0930   23.8680   41.0630 O   0  0  0  0  0  0  0  0  0  0  0  0
   36.3070   24.3200   39.8430 C   0  0  0  0  0  0  0  0  0  0  0  0
   37.2140   25.2910   39.8540 N   0  0  0  0  0  0  0  0  0  0  0  0
   35.6690   23.8620   38.6110 C   0  0  0  0  0  0  0  0  0  0  0  0
   34.3880   23.7710   38.2070 N   0  0  0  0  0  0  0  0  0  0  0  0
   34.3330   23.2900   37.0000 O   0  0  0  0  0  0  0  0  0  0  0  0
   35.5610   23.0600   36.5960 C   0  0  0  0  0  0  0  0  0  0  0  0
   36.4340   23.4040   37.5750 N   0  0  0  0  0  0  0  0  0  0  0  0
   37.0426   26.9672   43.2636 H   0  0  0  0  0  0  0  0  0  0  0  0
   39.6603   28.4353   43.2934 H   0  0  0  0  0  0  0  0  0  0  0  0
   38.5964   28.0386   44.6430 H   0  0  0  0  0  0  0  0  0  0  0  0
   40.8212   26.5127   43.7938 H   0  0  0  0  0  0  0  0  0  0  0  0
   39.5334   25.8953   44.8438 H   0  0  0  0  0  0  0  0  0  0  0  0
   40.1414   24.9839   42.2606 H   0  0  0  0  0  0  0  0  0  0  0  0
   38.6301   24.6509   43.1196 H   0  0  0  0  0  0  0  0  0  0  0  0
   39.0825   26.8946   40.9677 H   0  0  0  0  0  0  0  0  0  0  0  0
   38.9620   29.9219   42.3597 H   0  0  0  0  0  0  0  0  0  0  0  0
   35.5622   27.3556   41.5516 H   0  0  0  0  0  0  0  0  0  0  0  0
   35.6500   31.4289   40.1610 H   0  0  0  0  0  0  0  0  0  0  0  0
   35.8391   22.6508   35.6135 H   0  0  0  0  0  0  0  0  0  0  0  0
  1  2  1  0
  2  3  1  0
  4  3  1  0
  5  1  1  0
  5  4  1  0
  6  7  2  0
  7  1  1  0
  8  7  1  0
  9  8  2  0
 10  9  1  0
 10 11  2  0
 11  6  1  0
 12  5  1  0
 12 13  2  0
 14 13  1  0
 15 16  2  0
 15 14  1  0
 16 12  1  0
 17 15  1  0
 18 17  2  0
 19 18  1  0
 20 19  1  0
 20 21  2  0
 21 17  1  0
  1 22  1  1
  2 23  1  0
  2 24  1  0
  3 25  1  0
  3 26  1  0
  4 27  1  0
  4 28  1  0
  5 29  1  6
  6 30  1  0
  8 31  1  0
 10 32  1  0
 20 33  1  0
M  ISO  8  22  13  23  13  24  13  25  13  26  13  27  13  28  13  29  13
M  ISO  4  30  14  31  14  32  14  33  14
M  END
>  <minimizedAffinity>  (1) 
-4.78694296

>  <minimizedRMSD>  (1) 
0.574838579

$$$$
