
     RDKit          3D

 31 33  0  0  1  0  0  0  0  0999 V2000
   38.1490   26.9970   42.7780 C   0  0  2  0  0  0  0  0  0  0  0  0
   39.2780   27.1250   43.7080 C   0  0  0  0  0  0  0  0  0  0  0  0
   39.8800   25.7350   43.7840 C   0  0  0  0  0  0  0  0  0  0  0  0
   39.3270   24.9870   42.6150 C   0  0  0  0  0  0  0  0  0  0  0  0
   38.6600   26.0370   41.7240 C   0  0  1  0  0  0  0  0  0  0  0  0
   38.3930   29.4320   42.1110 C   0  0  0  0  0  0  0  0  0  0  0  0
   37.6420   28.2320   42.2070 C   0  0  0  0  0  0  0  0  0  0  0  0
   36.3460   28.2200   41.7220 C   0  0  0  0  0  0  0  0  0  0  0  0
   35.8480   29.3810   41.1680 N   0  0  0  0  0  0  0  0  0  0  0  0
   36.5980   30.5290   41.0890 C   0  0  0  0  0  0  0  0  0  0  0  0
   37.8900   30.5410   41.5730 N   0  0  0  0  0  0  0  0  0  0  0  0
   37.5890   25.2360   41.0660 C   0  0  0  0  0  0  0  0  0  0  0  0
   36.8240   24.3600   41.7410 N   0  0  0  0  0  0  0  0  0  0  0  0
   35.9920   23.8210   40.8770 O   0  0  0  0  0  0  0  0  0  0  0  0
   36.2310   24.3470   39.6860 C   0  0  0  0  0  0  0  0  0  0  0  0
   37.2190   25.2330   39.7650 N   0  0  0  0  0  0  0  0  0  0  0  0
   35.4620   23.9530   38.4830 C   0  0  0  0  0  0  0  0  0  0  0  0
   37.2578   26.6394   43.3145 H   0  0  0  0  0  0  0  0  0  0  0  0
   40.0154   27.8457   43.3248 H   0  0  0  0  0  0  0  0  0  0  0  0
   38.9620   27.4941   44.6949 H   0  0  0  0  0  0  0  0  0  0  0  0
   40.9768   25.7887   43.7202 H   0  0  0  0  0  0  0  0  0  0  0  0
   39.6344   25.2391   44.7347 H   0  0  0  0  0  0  0  0  0  0  0  0
   40.1352   24.4789   42.0686 H   0  0  0  0  0  0  0  0  0  0  0  0
   38.6126   24.2128   42.9317 H   0  0  0  0  0  0  0  0  0  0  0  0
   39.2299   26.5790   40.9549 H   0  0  0  0  0  0  0  0  0  0  0  0
   39.4243   29.4465   42.4935 H   0  0  0  0  0  0  0  0  0  0  0  0
   35.7302   27.3102   41.7767 H   0  0  0  0  0  0  0  0  0  0  0  0
   36.1693   31.4374   40.6406 H   0  0  0  0  0  0  0  0  0  0  0  0
   34.5220   23.4714   38.7902 H   0  0  0  0  0  0  0  0  0  0  0  0
   35.2369   24.8468   37.8827 H   0  0  0  0  0  0  0  0  0  0  0  0
   36.0560   23.2482   37.8827 H   0  0  0  0  0  0  0  0  0  0  0  0
  1  2  1  0
  2  3  1  0
  4  3  1  0
  5  4  1  0
  5  1  1  0
  6  7  2  0
  7  1  1  0
  8  7  1  0
  9  8  2  0
 10  9  1  0
 10 11  2  0
 11  6  1  0
 12  5  1  0
 12 13  2  0
 14 13  1  0
 15 16  2  0
 15 14  1  0
 16 12  1  0
 17 15  1  0
  1 18  1  1
  2 19  1  0
  2 20  1  0
  3 21  1  0
  3 22  1  0
  4 23  1  0
  4 24  1  0
  5 25  1  6
  6 26  1  0
  8 27  1  0
 10 28  1  0
 17 29  1  0
 17 30  1  0
 17 31  1  0
M  ISO  8  18  13  19  13  20  13  21  13  22  13  23  13  24  13  25  13
M  ISO  6  26  14  27  14  28  14  29   8  30   8  31   8
M  END
>  <minimizedAffinity>  (1) 
-4.66175413

>  <minimizedRMSD>  (1) 
0.21428284

$$$$
