
     RDKit          3D

 31 33  0  0  1  0  0  0  0  0999 V2000
   37.9080   27.3510   42.7230 C   0  0  2  0  0  0  0  0  0  0  0  0
   38.9710   27.6490   43.6900 C   0  0  0  0  0  0  0  0  0  0  0  0
   39.7160   26.3370   43.8690 C   0  0  0  0  0  0  0  0  0  0  0  0
   39.2830   25.4580   42.7430 C   0  0  0  0  0  0  0  0  0  0  0  0
   38.5400   26.3690   41.7600 C   0  0  1  0  0  0  0  0  0  0  0  0
   37.9410   29.7610   41.9150 C   0  0  0  0  0  0  0  0  0  0  0  0
   37.3180   28.4880   42.0370 C   0  0  0  0  0  0  0  0  0  0  0  0
   36.0730   28.3070   41.4640 C   0  0  0  0  0  0  0  0  0  0  0  0
   35.4970   29.3700   40.8020 N   0  0  0  0  0  0  0  0  0  0  0  0
   36.1240   30.5890   40.7010 C   0  0  0  0  0  0  0  0  0  0  0  0
   37.3690   30.7750   41.2720 N   0  0  0  0  0  0  0  0  0  0  0  0
   37.5700   25.4230   41.1450 C   0  0  0  0  0  0  0  0  0  0  0  0
   36.8520   24.5440   41.8680 N   0  0  0  0  0  0  0  0  0  0  0  0
   36.1060   23.8640   41.0240 O   0  0  0  0  0  0  0  0  0  0  0  0
   36.3440   24.2990   39.8030 C   0  0  0  0  0  0  0  0  0  0  0  0
   37.2600   25.2800   39.8350 N   0  0  0  0  0  0  0  0  0  0  0  0
   35.6790   23.7560   38.6210 C   0  0  0  0  0  0  0  0  0  0  0  0
   34.8400   24.4650   38.0060 O   0  0  0  0  0  0  0  0  0  0  0  0
   35.9560   22.4750   38.1640 O   0  0  0  0  0  0  0  0  0  0  0  0
   37.0336   26.9508   43.2571 H   0  0  0  0  0  0  0  0  0  0  0  0
   39.6440   28.4258   43.2981 H   0  0  0  0  0  0  0  0  0  0  0  0
   38.5707   28.0308   44.6408 H   0  0  0  0  0  0  0  0  0  0  0  0
   40.8021   26.5058   43.8256 H   0  0  0  0  0  0  0  0  0  0  0  0
   39.4946   25.8790   44.8443 H   0  0  0  0  0  0  0  0  0  0  0  0
   40.1574   25.0019   42.2557 H   0  0  0  0  0  0  0  0  0  0  0  0
   38.6418   24.6367   43.0957 H   0  0  0  0  0  0  0  0  0  0  0  0
   39.0783   26.9045   40.9641 H   0  0  0  0  0  0  0  0  0  0  0  0
   38.9315   29.9122   42.3688 H   0  0  0  0  0  0  0  0  0  0  0  0
   35.5551   27.3391   41.5346 H   0  0  0  0  0  0  0  0  0  0  0  0
   35.6351   31.4164   40.1659 H   0  0  0  0  0  0  0  0  0  0  0  0
   35.4946   22.1254   37.3609 H   0  0  0  0  0  0  0  0  0  0  0  0
  1  2  1  0
  2  3  1  0
  4  3  1  0
  5  1  1  0
  5  4  1  0
  6  7  2  0
  7  1  1  0
  8  7  1  0
  9  8  2  0
 10  9  1  0
 10 11  2  0
 11  6  1  0
 12  5  1  0
 12 13  2  0
 14 13  1  0
 15 16  2  0
 15 14  1  0
 16 12  1  0
 17 15  1  0
 18 17  2  0
 19 17  1  0
  1 20  1  1
  2 21  1  0
  2 22  1  0
  3 23  1  0
  3 24  1  0
  4 25  1  0
  4 26  1  0
  5 27  1  6
  6 28  1  0
  8 29  1  0
 10 30  1  0
 19 31  1  0
M  ISO  8  20  13  21  13  22  13  23  13  24  13  25  13  26  13  27  13
M  ISO  4  28  14  29  14  30  14  31   3
M  END
>  <minimizedAffinity>  (1) 
-4.65613604

>  <minimizedRMSD>  (1) 
0.565381348

$$$$
