
     RDKit          3D

 29 31  0  0  1  0  0  0  0  0999 V2000
   37.8980   27.3440   42.7190 C   0  0  2  0  0  0  0  0  0  0  0  0
   38.9550   27.6530   43.6890 C   0  0  0  0  0  0  0  0  0  0  0  0
   39.6980   26.3470   43.8890 C   0  0  0  0  0  0  0  0  0  0  0  0
   39.2940   25.4650   42.7500 C   0  0  0  0  0  0  0  0  0  0  0  0
   38.5590   26.3720   41.7620 C   0  0  1  0  0  0  0  0  0  0  0  0
   37.9170   29.7540   41.9140 C   0  0  0  0  0  0  0  0  0  0  0  0
   37.3020   28.4780   42.0300 C   0  0  0  0  0  0  0  0  0  0  0  0
   36.0620   28.2810   41.4490 C   0  0  0  0  0  0  0  0  0  0  0  0
   35.4830   29.3410   40.7830 N   0  0  0  0  0  0  0  0  0  0  0  0
   36.0990   30.5610   40.6850 C   0  0  0  0  0  0  0  0  0  0  0  0
   37.3370   30.7610   41.2640 N   0  0  0  0  0  0  0  0  0  0  0  0
   37.6100   25.4170   41.1240 C   0  0  0  0  0  0  0  0  0  0  0  0
   36.8530   24.5650   41.8370 N   0  0  0  0  0  0  0  0  0  0  0  0
   36.1390   23.8690   40.9770 O   0  0  0  0  0  0  0  0  0  0  0  0
   36.4380   24.2720   39.7580 C   0  0  0  0  0  0  0  0  0  0  0  0
   37.3520   25.2370   39.8080 N   0  0  0  0  0  0  0  0  0  0  0  0
   35.7460   23.6120   38.7400 O   0  0  0  0  0  0  0  0  0  0  0  0
   37.0207   26.9340   43.2408 H   0  0  0  0  0  0  0  0  0  0  0  0
   39.6304   28.4252   43.2920 H   0  0  0  0  0  0  0  0  0  0  0  0
   38.5480   28.0455   44.6326 H   0  0  0  0  0  0  0  0  0  0  0  0
   40.7844   26.5188   43.8729 H   0  0  0  0  0  0  0  0  0  0  0  0
   39.4550   25.8893   44.8593 H   0  0  0  0  0  0  0  0  0  0  0  0
   40.1816   25.0213   42.2754 H   0  0  0  0  0  0  0  0  0  0  0  0
   38.6576   24.6336   43.0873 H   0  0  0  0  0  0  0  0  0  0  0  0
   39.1052   26.9185   40.9791 H   0  0  0  0  0  0  0  0  0  0  0  0
   38.9025   29.9147   42.3754 H   0  0  0  0  0  0  0  0  0  0  0  0
   35.5531   27.3081   41.5162 H   0  0  0  0  0  0  0  0  0  0  0  0
   35.6067   31.3827   40.1442 H   0  0  0  0  0  0  0  0  0  0  0  0
   35.0924   22.9032   38.9647 H   0  0  0  0  0  0  0  0  0  0  0  0
  1  2  1  0
  2  3  1  0
  4  3  1  0
  5  1  1  0
  5  4  1  0
  6  7  2  0
  7  1  1  0
  8  7  1  0
  9  8  2  0
 10  9  1  0
 10 11  2  0
 11  6  1  0
 12  5  1  0
 12 13  2  0
 14 13  1  0
 15 16  2  0
 15 14  1  0
 16 12  1  0
 17 15  1  0
  1 18  1  1
  2 19  1  0
  2 20  1  0
  3 21  1  0
  3 22  1  0
  4 23  1  0
  4 24  1  0
  5 25  1  6
  6 26  1  0
  8 27  1  0
 10 28  1  0
 17 29  1  0
M  ISO  8  18  13  19  13  20  13  21  13  22  13  23  13  24  13  25  13
M  ISO  4  26  14  27  14  28  14  29   3
M  END
>  <minimizedAffinity>  (1) 
-4.65142584

>  <minimizedRMSD>  (1) 
0.578752875

$$$$
