
     RDKit          3D

 34 36  0  0  1  0  0  0  0  0999 V2000
   38.8710   27.2510   42.7630 C   0  0  2  0  0  0  0  0  0  0  0  0
   40.0390   27.4220   43.6120 C   0  0  0  0  0  0  0  0  0  0  0  0
   40.5400   26.0080   43.8870 C   0  0  0  0  0  0  0  0  0  0  0  0
   39.8630   25.1240   42.8740 C   0  0  0  0  0  0  0  0  0  0  0  0
   39.2250   26.0580   41.8640 C   0  0  1  0  0  0  0  0  0  0  0  0
   39.1330   28.8700   40.8200 C   0  0  0  0  0  0  0  0  0  0  0  0
   38.4480   28.4010   41.9870 C   0  0  0  0  0  0  0  0  0  0  0  0
   37.3000   29.0640   42.4090 C   0  0  0  0  0  0  0  0  0  0  0  0
   36.8810   30.1490   41.6700 N   0  0  0  0  0  0  0  0  0  0  0  0
   37.5570   30.5780   40.5540 C   0  0  0  0  0  0  0  0  0  0  0  0
   38.7000   29.9230   40.1290 N   0  0  0  0  0  0  0  0  0  0  0  0
   37.0770   31.7330   39.8030 C   0  0  0  0  0  0  0  0  0  0  0  0
   36.9110   31.6490   38.5580 O   0  0  0  0  0  0  0  0  0  0  0  0
   36.8140   32.9010   40.4620 O   0  0  0  0  0  0  0  0  0  0  0  0
   38.0330   25.2740   41.4250 C   0  0  0  0  0  0  0  0  0  0  0  0
   37.2000   24.6770   42.3130 N   0  0  0  0  0  0  0  0  0  0  0  0
   36.2590   24.0750   41.6190 O   0  0  0  0  0  0  0  0  0  0  0  0
   36.4870   24.2820   40.3380 C   0  0  0  0  0  0  0  0  0  0  0  0
   37.5860   25.0260   40.1830 N   0  0  0  0  0  0  0  0  0  0  0  0
   35.5780   23.7170   39.2890 C   0  0  0  0  0  0  0  0  0  0  0  0
   34.4810   23.1410   39.9000 F   0  0  0  0  0  0  0  0  0  0  0  0
   35.1490   24.7310   38.4380 F   0  0  0  0  0  0  0  0  0  0  0  0
   36.2360   22.7620   38.5460 F   0  0  0  0  0  0  0  0  0  0  0  0
   37.9890   27.0925   43.4009 H   0  0  0  0  0  0  0  0  0  0  0  0
   40.8101   28.0111   43.0940 H   0  0  0  0  0  0  0  0  0  0  0  0
   39.7990   27.9622   44.5397 H   0  0  0  0  0  0  0  0  0  0  0  0
   41.6324   25.9595   43.7673 H   0  0  0  0  0  0  0  0  0  0  0  0
   40.3104   25.6919   44.9153 H   0  0  0  0  0  0  0  0  0  0  0  0
   40.6004   24.4738   42.3807 H   0  0  0  0  0  0  0  0  0  0  0  0
   39.1153   24.4697   43.3461 H   0  0  0  0  0  0  0  0  0  0  0  0
   39.7867   26.3941   40.9800 H   0  0  0  0  0  0  0  0  0  0  0  0
   40.0409   28.3466   40.4855 H   0  0  0  0  0  0  0  0  0  0  0  0
   36.7467   28.7340   43.3006 H   0  0  0  0  0  0  0  0  0  0  0  0
   36.4880   33.6898   39.9604 H   0  0  0  0  0  0  0  0  0  0  0  0
  1  2  1  0
  2  3  1  0
  4  3  1  0
  5  1  1  0
  5  4  1  0
  6  7  2  0
  7  8  1  0
  7  1  1  0
  9  8  2  0
 10  9  1  0
 11 10  2  0
 11  6  1  0
 12 14  1  0
 12 10  1  0
 13 12  2  0
 15  5  1  0
 15 16  2  0
 17 16  1  0
 18 17  1  0
 19 18  2  0
 19 15  1  0
 20 21  1  0
 20 18  1  0
 22 20  1  0
 23 20  1  0
  1 24  1  1
  2 25  1  0
  2 26  1  0
  3 27  1  0
  3 28  1  0
  4 29  1  0
  4 30  1  0
  5 31  1  6
  6 32  1  0
  8 33  1  0
 14 34  1  0
M  ISO  8  24  13  25  13  26  13  27  13  28  13  29  13  30  13  31  13
M  ISO  3  32  14  33  14  34   3
M  END
>  <minimizedAffinity>  (1) 
-5.59806252

>  <minimizedRMSD>  (1) 
1.15946114

$$$$
