
     RDKit          3D

 40 42  0  0  1  0  0  0  0  0999 V2000
   38.9670   27.1930   42.8450 C   0  0  2  0  0  0  0  0  0  0  0  0
   40.1080   27.3050   43.7340 C   0  0  0  0  0  0  0  0  0  0  0  0
   40.5840   25.8750   43.9600 C   0  0  0  0  0  0  0  0  0  0  0  0
   39.8840   25.0330   42.9300 C   0  0  0  0  0  0  0  0  0  0  0  0
   39.2990   26.0080   41.9270 C   0  0  1  0  0  0  0  0  0  0  0  0
   39.3740   28.9030   41.0140 C   0  0  0  0  0  0  0  0  0  0  0  0
   38.5850   28.3750   42.0870 C   0  0  0  0  0  0  0  0  0  0  0  0
   37.3930   28.9890   42.4250 C   0  0  0  0  0  0  0  0  0  0  0  0
   37.0200   30.1000   41.6970 N   0  0  0  0  0  0  0  0  0  0  0  0
   37.7880   30.5920   40.6740 C   0  0  0  0  0  0  0  0  0  0  0  0
   38.9810   29.9790   40.3340 N   0  0  0  0  0  0  0  0  0  0  0  0
   37.1860   31.7940   40.0350 C   0  0  0  0  0  0  0  0  0  0  0  0
   37.9950   33.0140   40.4210 C   0  0  0  0  0  0  0  0  0  0  0  0
   37.0310   31.6260   38.5520 C   0  0  0  0  0  0  0  0  0  0  0  0
   38.0930   25.2710   41.4520 C   0  0  0  0  0  0  0  0  0  0  0  0
   37.2280   24.6710   42.3070 N   0  0  0  0  0  0  0  0  0  0  0  0
   36.2840   24.1180   41.5770 O   0  0  0  0  0  0  0  0  0  0  0  0
   36.5370   24.3570   40.3110 C   0  0  0  0  0  0  0  0  0  0  0  0
   37.6600   25.0740   40.1910 N   0  0  0  0  0  0  0  0  0  0  0  0
   35.6310   23.8530   39.2250 C   0  0  0  0  0  0  0  0  0  0  0  0
   34.5340   23.2410   39.8030 F   0  0  0  0  0  0  0  0  0  0  0  0
   35.2000   24.9120   38.4320 F   0  0  0  0  0  0  0  0  0  0  0  0
   36.2910   22.9360   38.4350 F   0  0  0  0  0  0  0  0  0  0  0  0
   38.0666   27.0499   43.4605 H   0  0  0  0  0  0  0  0  0  0  0  0
   40.9023   27.9062   43.2675 H   0  0  0  0  0  0  0  0  0  0  0  0
   39.8445   27.8035   44.6785 H   0  0  0  0  0  0  0  0  0  0  0  0
   41.6742   25.8106   43.8285 H   0  0  0  0  0  0  0  0  0  0  0  0
   40.3559   25.5328   44.9802 H   0  0  0  0  0  0  0  0  0  0  0  0
   40.5992   24.3587   42.4363 H   0  0  0  0  0  0  0  0  0  0  0  0
   39.1048   24.4031   43.3839 H   0  0  0  0  0  0  0  0  0  0  0  0
   39.8875   26.3445   41.0608 H   0  0  0  0  0  0  0  0  0  0  0  0
   40.3210   28.4112   40.7470 H   0  0  0  0  0  0  0  0  0  0  0  0
   36.7658   28.6060   43.2435 H   0  0  0  0  0  0  0  0  0  0  0  0
   36.1607   31.9335   40.4081 H   0  0  0  0  0  0  0  0  0  0  0  0
   38.0448   33.0891   41.5173 H   0  0  0  0  0  0  0  0  0  0  0  0
   39.0125   32.9233   40.0131 H   0  0  0  0  0  0  0  0  0  0  0  0
   37.5155   33.9160   40.0131 H   0  0  0  0  0  0  0  0  0  0  0  0
   36.2981   30.8316   38.3476 H   0  0  0  0  0  0  0  0  0  0  0  0
   36.6805   32.5706   38.1106 H   0  0  0  0  0  0  0  0  0  0  0  0
   38.0008   31.3526   38.1106 H   0  0  0  0  0  0  0  0  0  0  0  0
  1  2  1  0
  2  3  1  0
  4  3  1  0
  5  1  1  0
  5  4  1  0
  6  7  2  0
  7  8  1  0
  7  1  1  0
  9  8  2  0
 10  9  1  0
 11 10  2  0
 11  6  1  0
 12 13  1  0
 12 10  1  0
 14 12  1  0
 15  5  1  0
 15 16  2  0
 17 16  1  0
 18 17  1  0
 19 18  2  0
 19 15  1  0
 20 21  1  0
 20 18  1  0
 22 20  1  0
 23 20  1  0
  1 24  1  1
  2 25  1  0
  2 26  1  0
  3 27  1  0
  3 28  1  0
  4 29  1  0
  4 30  1  0
  5 31  1  6
  6 32  1  0
  8 33  1  0
 12 34  1  0
 13 35  1  0
 13 36  1  0
 13 37  1  0
 14 38  1  0
 14 39  1  0
 14 40  1  0
M  ISO  8  24  13  25  13  26  13  27  13  28  13  29  13  30  13  31  13
M  ISO  8  32  14  33  14  34   8  35   8  36   8  37   8  38   8  39   8
M  ISO  1  40   8
M  END
>  <minimizedAffinity>  (1) 
-5.35724401

>  <minimizedRMSD>  (1) 
1.24245679

$$$$
