
     RDKit          3D

 34 36  0  0  1  0  0  0  0  0999 V2000
   38.9740   27.1950   42.7520 C   0  0  2  0  0  0  0  0  0  0  0  0
   40.0950   27.3220   43.6630 C   0  0  0  0  0  0  0  0  0  0  0  0
   40.5590   25.8960   43.9370 C   0  0  0  0  0  0  0  0  0  0  0  0
   39.8340   25.0190   42.9590 C   0  0  0  0  0  0  0  0  0  0  0  0
   39.2900   25.9600   41.8990 C   0  0  1  0  0  0  0  0  0  0  0  0
   39.3120   28.6660   40.7180 C   0  0  0  0  0  0  0  0  0  0  0  0
   38.6220   28.3440   41.9310 C   0  0  0  0  0  0  0  0  0  0  0  0
   37.5740   29.1320   42.3490 C   0  0  0  0  0  0  0  0  0  0  0  0
   37.2330   30.2120   41.5650 N   0  0  0  0  0  0  0  0  0  0  0  0
   37.9050   30.5130   40.3980 C   0  0  0  0  0  0  0  0  0  0  0  0
   38.9570   29.7170   39.9840 N   0  0  0  0  0  0  0  0  0  0  0  0
   37.4790   31.6910   39.6120 C   0  0  0  0  0  0  0  0  0  0  0  0
   36.9370   32.6180   40.4700 F   0  0  0  0  0  0  0  0  0  0  0  0
   36.5300   31.3650   38.6670 F   0  0  0  0  0  0  0  0  0  0  0  0
   38.5870   32.2470   38.9710 F   0  0  0  0  0  0  0  0  0  0  0  0
   38.0760   25.2240   41.4410 C   0  0  0  0  0  0  0  0  0  0  0  0
   37.2060   24.6510   42.3070 N   0  0  0  0  0  0  0  0  0  0  0  0
   36.2560   24.0920   41.5870 O   0  0  0  0  0  0  0  0  0  0  0  0
   36.5120   24.3020   40.3200 C   0  0  0  0  0  0  0  0  0  0  0  0
   37.6420   25.0070   40.1850 N   0  0  0  0  0  0  0  0  0  0  0  0
   35.6050   23.7840   39.2420 C   0  0  0  0  0  0  0  0  0  0  0  0
   34.5050   23.1990   39.8190 F   0  0  0  0  0  0  0  0  0  0  0  0
   35.2110   24.8200   38.4080 F   0  0  0  0  0  0  0  0  0  0  0  0
   36.2730   22.8220   38.4820 F   0  0  0  0  0  0  0  0  0  0  0  0
   38.0620   27.1061   43.3606 H   0  0  0  0  0  0  0  0  0  0  0  0
   40.9030   27.9071   43.1995 H   0  0  0  0  0  0  0  0  0  0  0  0
   39.8121   27.8446   44.5887 H   0  0  0  0  0  0  0  0  0  0  0  0
   41.6458   25.8144   43.7881 H   0  0  0  0  0  0  0  0  0  0  0  0
   40.3440   25.5992   44.9741 H   0  0  0  0  0  0  0  0  0  0  0  0
   40.5252   24.2910   42.5091 H   0  0  0  0  0  0  0  0  0  0  0  0
   39.0326   24.4418   43.4434 H   0  0  0  0  0  0  0  0  0  0  0  0
   39.8986   26.2434   41.0276 H   0  0  0  0  0  0  0  0  0  0  0  0
   40.1494   28.0337   40.3879 H   0  0  0  0  0  0  0  0  0  0  0  0
   37.0277   28.9072   43.2769 H   0  0  0  0  0  0  0  0  0  0  0  0
  1  2  1  0
  2  3  1  0
  4  3  1  0
  5  1  1  0
  5  4  1  0
  6  7  2  0
  7  8  1  0
  7  1  1  0
  9  8  2  0
 10  9  1  0
 11 10  2  0
 11  6  1  0
 12 10  1  0
 12 13  1  0
 14 12  1  0
 15 12  1  0
 16  5  1  0
 16 17  2  0
 18 17  1  0
 19 18  1  0
 20 19  2  0
 20 16  1  0
 21 22  1  0
 21 19  1  0
 23 21  1  0
 24 21  1  0
  1 25  1  1
  2 26  1  0
  2 27  1  0
  3 28  1  0
  3 29  1  0
  4 30  1  0
  4 31  1  0
  5 32  1  6
  6 33  1  0
  8 34  1  0
M  ISO  8  25  13  26  13  27  13  28  13  29  13  30  13  31  13  32  13
M  ISO  2  33  14  34  14
M  END
>  <minimizedAffinity>  (1) 
-5.34246731

>  <minimizedRMSD>  (1) 
1.45713556

$$$$
