
     RDKit          3D

 32 34  0  0  1  0  0  0  0  0999 V2000
   38.3440   26.9140   42.8490 C   0  0  2  0  0  0  0  0  0  0  0  0
   39.4470   26.9680   43.7930 C   0  0  0  0  0  0  0  0  0  0  0  0
   40.0520   25.5670   43.7790 C   0  0  0  0  0  0  0  0  0  0  0  0
   39.4850   24.8790   42.5670 C   0  0  0  0  0  0  0  0  0  0  0  0
   38.8210   25.9660   41.7440 C   0  0  1  0  0  0  0  0  0  0  0  0
   38.6880   29.3320   42.1600 C   0  0  0  0  0  0  0  0  0  0  0  0
   37.8610   28.1730   42.3090 C   0  0  0  0  0  0  0  0  0  0  0  0
   36.5330   28.2260   41.9150 C   0  0  0  0  0  0  0  0  0  0  0  0
   36.0740   29.4180   41.3890 N   0  0  0  0  0  0  0  0  0  0  0  0
   36.8890   30.5250   41.2540 C   0  0  0  0  0  0  0  0  0  0  0  0
   38.2140   30.4660   41.6500 N   0  0  0  0  0  0  0  0  0  0  0  0
   36.2290   31.6160   40.7060 O   0  0  0  0  0  0  0  0  0  0  0  0
   37.7120   25.2150   41.0830 C   0  0  0  0  0  0  0  0  0  0  0  0
   36.9800   24.2820   41.7390 N   0  0  0  0  0  0  0  0  0  0  0  0
   36.0920   23.8170   40.8860 O   0  0  0  0  0  0  0  0  0  0  0  0
   36.2540   24.4290   39.7390 C   0  0  0  0  0  0  0  0  0  0  0  0
   37.2560   25.3090   39.8220 N   0  0  0  0  0  0  0  0  0  0  0  0
   35.3860   24.1150   38.5540 C   0  0  0  0  0  0  0  0  0  0  0  0
   34.2970   23.3860   38.9740 F   0  0  0  0  0  0  0  0  0  0  0  0
   34.9720   25.2830   37.9380 F   0  0  0  0  0  0  0  0  0  0  0  0
   36.0990   23.3570   37.6310 F   0  0  0  0  0  0  0  0  0  0  0  0
   37.4488   26.5681   43.3866 H   0  0  0  0  0  0  0  0  0  0  0  0
   40.1912   27.7131   43.4751 H   0  0  0  0  0  0  0  0  0  0  0  0
   39.1141   27.2629   44.7991 H   0  0  0  0  0  0  0  0  0  0  0  0
   41.1481   25.6253   43.7069 H   0  0  0  0  0  0  0  0  0  0  0  0
   39.8132   25.0172   44.7013 H   0  0  0  0  0  0  0  0  0  0  0  0
   40.2882   24.3985   41.9891 H   0  0  0  0  0  0  0  0  0  0  0  0
   38.7701   24.0914   42.8474 H   0  0  0  0  0  0  0  0  0  0  0  0
   39.3906   26.5216   40.9845 H   0  0  0  0  0  0  0  0  0  0  0  0
   39.7409   29.2840   42.4748 H   0  0  0  0  0  0  0  0  0  0  0  0
   35.8710   27.3535   42.0172 H   0  0  0  0  0  0  0  0  0  0  0  0
   36.7141   32.4669   40.5621 H   0  0  0  0  0  0  0  0  0  0  0  0
  1  2  1  0
  3  2  1  0
  4  3  1  0
  5  4  1  0
  5  1  1  0
  6  7  2  0
  7  1  1  0
  8  7  1  0
  9  8  2  0
 10  9  1  0
 10 11  2  0
 11  6  1  0
 12 10  1  0
 13 14  2  0
 13  5  1  0
 15 14  1  0
 16 17  2  0
 16 15  1  0
 17 13  1  0
 18 19  1  0
 18 16  1  0
 20 18  1  0
 21 18  1  0
  1 22  1  1
  2 23  1  0
  2 24  1  0
  3 25  1  0
  3 26  1  0
  4 27  1  0
  4 28  1  0
  5 29  1  6
  6 30  1  0
  8 31  1  0
 12 32  1  0
M  ISO  8  22  13  23  13  24  13  25  13  26  13  27  13  28  13  29  13
M  ISO  3  30  14  31  14  32   3
M  END
>  <minimizedAffinity>  (1) 
-5.33847332

>  <minimizedRMSD>  (1) 
0.613617063

$$$$
