
     RDKit          3D

 45 47  0  0  1  0  0  0  0  0999 V2000
   38.6840   28.0500   43.0800 C   0  0  2  0  0  0  0  0  0  0  0  0
   37.7720   27.6830   44.1390 C   0  0  0  0  0  0  0  0  0  0  0  0
   36.4060   27.4710   43.4640 C   0  0  0  0  0  0  0  0  0  0  0  0
   36.7000   27.3230   41.9940 C   0  0  0  0  0  0  0  0  0  0  0  0
   38.1930   27.1660   41.8630 C   0  0  1  0  0  0  0  0  0  0  0  0
   40.5950   26.5950   43.9950 C   0  0  0  0  0  0  0  0  0  0  0  0
   40.1100   27.7830   43.3090 C   0  0  0  0  0  0  0  0  0  0  0  0
   40.9680   28.7610   42.8050 C   0  0  0  0  0  0  0  0  0  0  0  0
   42.2890   28.5040   42.9890 N   0  0  0  0  0  0  0  0  0  0  0  0
   42.7710   27.3370   43.6590 C   0  0  0  0  0  0  0  0  0  0  0  0
   41.8890   26.3520   44.1840 N   0  0  0  0  0  0  0  0  0  0  0  0
   44.1900   27.1610   43.8230 N   0  0  0  0  0  0  0  0  0  0  0  0
   40.8820   30.0460   42.0950 C   0  0  0  0  0  0  0  0  0  0  0  0
   39.7140   30.9490   42.4410 C   0  0  0  0  0  0  0  0  0  0  0  0
   41.9300   30.9970   43.0470 C   0  0  0  0  0  0  0  0  0  0  0  0
   41.5880   30.3330   40.8740 C   0  0  0  0  0  0  0  0  0  0  0  0
   38.4700   27.8180   40.5560 C   0  0  0  0  0  0  0  0  0  0  0  0
   37.7700   28.9120   40.1400 N   0  0  0  0  0  0  0  0  0  0  0  0
   38.2420   29.2510   38.9720 O   0  0  0  0  0  0  0  0  0  0  0  0
   39.2030   28.4220   38.6380 C   0  0  0  0  0  0  0  0  0  0  0  0
   39.3600   27.5270   39.6060 N   0  0  0  0  0  0  0  0  0  0  0  0
   39.9330   28.5750   37.3500 C   0  0  0  0  0  0  0  0  0  0  0  0
   40.4510   29.8580   37.2490 F   0  0  0  0  0  0  0  0  0  0  0  0
   41.0050   27.6830   37.3000 F   0  0  0  0  0  0  0  0  0  0  0  0
   39.0900   28.3560   36.2870 F   0  0  0  0  0  0  0  0  0  0  0  0
   38.6517   29.1417   42.9486 H   0  0  0  0  0  0  0  0  0  0  0  0
   38.1057   26.7554   44.6271 H   0  0  0  0  0  0  0  0  0  0  0  0
   37.7222   28.4595   44.9165 H   0  0  0  0  0  0  0  0  0  0  0  0
   35.9225   26.5625   43.8524 H   0  0  0  0  0  0  0  0  0  0  0  0
   35.7204   28.3086   43.6600 H   0  0  0  0  0  0  0  0  0  0  0  0
   36.1891   26.4352   41.5930 H   0  0  0  0  0  0  0  0  0  0  0  0
   36.3438   28.1976   41.4299 H   0  0  0  0  0  0  0  0  0  0  0  0
   38.6432   26.1625   41.8840 H   0  0  0  0  0  0  0  0  0  0  0  0
   39.8612   25.8678   44.3729 H   0  0  0  0  0  0  0  0  0  0  0  0
   44.5532   26.3255   44.3035 H   0  0  0  0  0  0  0  0  0  0  0  0
   44.8423   27.8706   43.4598 H   0  0  0  0  0  0  0  0  0  0  0  0
   39.6188   31.0226   43.5344 H   0  0  0  0  0  0  0  0  0  0  0  0
   39.8873   31.9503   42.0198 H   0  0  0  0  0  0  0  0  0  0  0  0
   38.7886   30.5292   42.0198 H   0  0  0  0  0  0  0  0  0  0  0  0
   41.7266   30.8124   44.1122 H   0  0  0  0  0  0  0  0  0  0  0  0
   42.9732   30.7308   42.8214 H   0  0  0  0  0  0  0  0  0  0  0  0
   41.7661   32.0611   42.8214 H   0  0  0  0  0  0  0  0  0  0  0  0
   42.5829   30.7374   41.1121 H   0  0  0  0  0  0  0  0  0  0  0  0
   41.6986   29.4084   40.2884 H   0  0  0  0  0  0  0  0  0  0  0  0
   41.0221   31.0725   40.2884 H   0  0  0  0  0  0  0  0  0  0  0  0
  1  7  1  0
  1  2  1  0
  3  2  1  0
  4  3  1  0
  5  4  1  0
  5  1  1  0
  6 11  2  0
  7  6  1  0
  8  9  1  0
  8  7  2  0
  9 10  2  0
 10 12  1  0
 10 11  1  0
 13 14  1  0
 13  8  1  0
 13 15  1  0
 16 13  1  0
 17  5  1  0
 18 17  2  0
 19 18  1  0
 20 19  1  0
 20 21  2  0
 21 17  1  0
 22 20  1  0
 23 22  1  0
 24 22  1  0
 25 22  1  0
  1 26  1  6
  2 27  1  0
  2 28  1  0
  3 29  1  0
  3 30  1  0
  4 31  1  0
  4 32  1  0
  5 33  1  6
  6 34  1  0
 12 35  1  0
 12 36  1  0
 14 37  1  0
 14 38  1  0
 14 39  1  0
 15 40  1  0
 15 41  1  0
 15 42  1  0
 16 43  1  0
 16 44  1  0
 16 45  1  0
M  ISO  8  26  13  27  13  28  13  29  13  30  13  31  13  32  13  33  13
M  ISO  8  34  14  37   8  38   8  39   8  40   8  41   8  42   8  43   8
M  ISO  2  44   8  45   8
M  END
>  <minimizedAffinity>  (1) 
-5.09893084

>  <minimizedRMSD>  (1) 
5.69423771

$$$$
