
     RDKit          3D

 31 34  0  0  0  0  0  0  0  0999 V2000
   37.0720   28.2810   41.8760 C   0  0  0  0  0  0  0  0  0  0  0  0
   37.5780   27.1780   41.1990 C   0  0  0  0  0  0  0  0  0  0  0  0
   37.2150   26.0990   41.9520 C   0  0  0  0  0  0  0  0  0  0  0  0
   36.5360   26.5070   43.0130 N   0  0  0  0  0  0  0  0  0  0  0  0
   36.4490   27.8300   42.9680 N   0  0  0  0  0  0  0  0  0  0  0  0
   37.5870   24.7580   41.5250 C   0  0  0  0  0  0  0  0  0  0  0  0
   38.7050   24.0230   41.9390 C   0  0  0  0  0  0  0  0  0  0  0  0
   38.7750   22.8190   41.3650 N   0  0  0  0  0  0  0  0  0  0  0  0
   37.7190   22.6870   40.5470 C   0  0  0  0  0  0  0  0  0  0  0  0
   37.3330   21.6540   39.7370 C   0  0  0  0  0  0  0  0  0  0  0  0
   36.1720   21.7500   38.9620 C   0  0  0  0  0  0  0  0  0  0  0  0
   35.4570   22.9300   39.0640 C   0  0  0  0  0  0  0  0  0  0  0  0
   35.8920   23.9260   39.8890 C   0  0  0  0  0  0  0  0  0  0  0  0
   37.0110   23.8660   40.6540 C   0  0  0  0  0  0  0  0  0  0  0  0
   38.4890   30.2990   41.4910 C   0  0  0  0  0  0  0  0  0  0  0  0
   37.2480   29.6520   41.4020 C   0  0  0  0  0  0  0  0  0  0  0  0
   36.1730   30.3270   40.8600 C   0  0  0  0  0  0  0  0  0  0  0  0
   36.3790   31.6130   40.4280 N   0  0  0  0  0  0  0  0  0  0  0  0
   37.6070   32.2150   40.5310 C   0  0  0  0  0  0  0  0  0  0  0  0
   38.6730   31.5470   41.0680 N   0  0  0  0  0  0  0  0  0  0  0  0
   38.1484   27.1751   40.2585 H   0  0  0  0  0  0  0  0  0  0  0  0
   36.1428   25.9011   43.7473 H   0  0  0  0  0  0  0  0  0  0  0  0
   39.4465   24.3974   42.6601 H   0  0  0  0  0  0  0  0  0  0  0  0
   39.5104   22.1152   41.5225 H   0  0  0  0  0  0  0  0  0  0  0  0
   37.9416   20.7387   39.6947 H   0  0  0  0  0  0  0  0  0  0  0  0
   35.8448   20.9300   38.3058 H   0  0  0  0  0  0  0  0  0  0  0  0
   34.5356   23.0656   38.4786 H   0  0  0  0  0  0  0  0  0  0  0  0
   35.2908   24.8459   39.9375 H   0  0  0  0  0  0  0  0  0  0  0  0
   39.3406   29.7554   41.9260 H   0  0  0  0  0  0  0  0  0  0  0  0
   35.1851   29.8504   40.7772 H   0  0  0  0  0  0  0  0  0  0  0  0
   37.7363   33.2485   40.1772 H   0  0  0  0  0  0  0  0  0  0  0  0
  1  5  2  0
  2  1  1  0
  2  3  2  0
  3  4  1  0
  5  4  1  0
  6  7  2  0
  6  3  1  0
  8  7  1  0
  9 14  2  0
  9  8  1  0
 10  9  1  0
 11 12  1  0
 11 10  2  0
 12 13  2  0
 13 14  1  0
 14  6  1  0
 16 15  2  0
 16  1  1  0
 17 16  1  0
 18 19  1  0
 18 17  2  0
 19 20  2  0
 20 15  1  0
  2 21  1  0
  4 22  1  0
  7 23  1  0
  8 24  1  0
 10 25  1  0
 11 26  1  0
 12 27  1  0
 13 28  1  0
 15 29  1  0
 17 30  1  0
 19 31  1  0
M  ISO  8  21  14  22   9  23  14  24   9  25  14  26  14  27  14  28  14
M  ISO  3  29  14  30  14  31  14
M  END
>  <minimizedAffinity>  (1) 
-5.08004951

>  <minimizedRMSD>  (1) 
2.12912154

$$$$
