
     RDKit          3D

 43 46  0  0  1  0  0  0  0  0999 V2000
   38.4870   28.5200   42.9500 C   0  0  2  0  0  0  0  0  0  0  0  0
   38.0190   27.5830   43.9340 C   0  0  0  0  0  0  0  0  0  0  0  0
   36.5090   27.4400   43.6750 C   0  0  0  0  0  0  0  0  0  0  0  0
   36.2930   27.9360   42.2580 C   0  0  0  0  0  0  0  0  0  0  0  0
   37.6500   28.1160   41.6690 C   0  0  1  0  0  0  0  0  0  0  0  0
   40.6340   27.2590   42.4400 C   0  0  0  0  0  0  0  0  0  0  0  0
   39.9100   28.5050   42.6380 C   0  0  0  0  0  0  0  0  0  0  0  0
   40.5670   29.6950   42.5440 C   0  0  0  0  0  0  0  0  0  0  0  0
   41.9110   29.6370   42.2590 N   0  0  0  0  0  0  0  0  0  0  0  0
   42.6010   28.4580   42.0710 C   0  0  0  0  0  0  0  0  0  0  0  0
   41.9400   27.2500   42.1640 N   0  0  0  0  0  0  0  0  0  0  0  0
   43.9970   28.4980   41.7810 N   0  0  0  0  0  0  0  0  0  0  0  0
   40.0620   31.0230   42.7060 C   0  0  0  0  0  0  0  0  0  0  0  0
   40.0620   31.8870   41.4930 C   0  0  0  0  0  0  0  0  0  0  0  0
   40.7030   32.0250   40.2800 C   0  0  0  0  0  0  0  0  0  0  0  0
   40.1990   33.0540   39.6160 N   0  0  0  0  0  0  0  0  0  0  0  0
   39.2260   33.6080   40.3670 C   0  0  0  0  0  0  0  0  0  0  0  0
   39.1460   32.9040   41.4970 N   0  0  0  0  0  0  0  0  0  0  0  0
   37.4560   29.2660   40.7370 C   0  0  0  0  0  0  0  0  0  0  0  0
   36.8290   30.4170   41.1460 N   0  0  0  0  0  0  0  0  0  0  0  0
   36.8190   31.2360   40.1130 O   0  0  0  0  0  0  0  0  0  0  0  0
   37.4060   30.6370   39.1090 C   0  0  0  0  0  0  0  0  0  0  0  0
   37.8140   29.4100   39.4620 N   0  0  0  0  0  0  0  0  0  0  0  0
   37.5520   31.3220   37.7780 C   0  0  0  0  0  0  0  0  0  0  0  0
   37.1460   32.6250   37.8930 F   0  0  0  0  0  0  0  0  0  0  0  0
   38.8670   31.2940   37.3630 F   0  0  0  0  0  0  0  0  0  0  0  0
   36.7480   30.7080   36.8330 F   0  0  0  0  0  0  0  0  0  0  0  0
   38.3506   29.5439   43.3281 H   0  0  0  0  0  0  0  0  0  0  0  0
   38.5239   26.6133   43.8130 H   0  0  0  0  0  0  0  0  0  0  0  0
   38.2281   27.9260   44.9580 H   0  0  0  0  0  0  0  0  0  0  0  0
   36.2013   26.3878   43.7652 H   0  0  0  0  0  0  0  0  0  0  0  0
   35.9139   28.0111   44.4028 H   0  0  0  0  0  0  0  0  0  0  0  0
   35.7207   27.1968   41.6783 H   0  0  0  0  0  0  0  0  0  0  0  0
   35.7225   28.8764   42.2451 H   0  0  0  0  0  0  0  0  0  0  0  0
   38.1228   27.2800   41.1328 H   0  0  0  0  0  0  0  0  0  0  0  0
   40.0939   26.3040   42.5194 H   0  0  0  0  0  0  0  0  0  0  0  0
   44.4832   29.4035   41.7132 H   0  0  0  0  0  0  0  0  0  0  0  0
   44.5189   27.6214   41.6394 H   0  0  0  0  0  0  0  0  0  0  0  0
   39.0236   30.9447   43.0604 H   0  0  0  0  0  0  0  0  0  0  0  0
   40.7501   31.5119   43.4113 H   0  0  0  0  0  0  0  0  0  0  0  0
   41.5136   31.3759   39.9173 H   0  0  0  0  0  0  0  0  0  0  0  0
   38.6115   34.4797   40.0975 H   0  0  0  0  0  0  0  0  0  0  0  0
   38.4875   33.0983   42.2648 H   0  0  0  0  0  0  0  0  0  0  0  0
  1  2  1  0
  3  2  1  0
  4  3  1  0
  5  4  1  0
  5  1  1  0
  6  7  2  0
  7  1  1  0
  8  7  1  0
  8 13  1  0
  9  8  2  0
 10 11  2  0
 10  9  1  0
 11  6  1  0
 12 10  1  0
 14 18  1  0
 14 13  1  0
 15 14  2  0
 16 15  1  0
 16 17  2  0
 17 18  1  0
 19 20  2  0
 19  5  1  0
 21 20  1  0
 22 23  2  0
 22 21  1  0
 23 19  1  0
 24 25  1  0
 24 22  1  0
 26 24  1  0
 27 24  1  0
  1 28  1  1
  2 29  1  0
  2 30  1  0
  3 31  1  0
  3 32  1  0
  4 33  1  0
  4 34  1  0
  5 35  1  6
  6 36  1  0
 12 37  1  0
 12 38  1  0
 13 39  1  0
 13 40  1  0
 15 41  1  0
 17 42  1  0
 18 43  1  0
M  ISO  8  28  13  29  13  30  13  31  13  32  13  33  13  34  13  35  13
M  ISO  6  36  14  39   8  40   8  41  14  42  14  43   9
M  END
>  <minimizedAffinity>  (1) 
-5.87470341

>  <minimizedRMSD>  (1) 
6.37815762

$$$$
