
     RDKit          3D

 46 49  0  0  1  0  0  0  0  0999 V2000
   39.6750   27.4110   41.9220 C   0  0  2  0  0  0  0  0  0  0  0  0
   40.6430   27.8400   42.8810 C   0  0  0  0  0  0  0  0  0  0  0  0
   40.4800   26.8840   44.0710 C   0  0  0  0  0  0  0  0  0  0  0  0
   39.7980   25.6490   43.5010 C   0  0  0  0  0  0  0  0  0  0  0  0
   39.7560   25.8350   42.0250 C   0  0  1  0  0  0  0  0  0  0  0  0
   40.9170   27.2470   39.7080 C   0  0  0  0  0  0  0  0  0  0  0  0
   39.8800   27.8210   40.5300 C   0  0  0  0  0  0  0  0  0  0  0  0
   39.0650   28.7890   40.0210 C   0  0  0  0  0  0  0  0  0  0  0  0
   39.2930   29.1650   38.7130 N   0  0  0  0  0  0  0  0  0  0  0  0
   40.2860   28.6140   37.9280 C   0  0  0  0  0  0  0  0  0  0  0  0
   41.1100   27.6330   38.4480 N   0  0  0  0  0  0  0  0  0  0  0  0
   40.4410   29.0800   36.5850 N   0  0  0  0  0  0  0  0  0  0  0  0
   37.9880   29.5090   40.6480 C   0  0  0  0  0  0  0  0  0  0  0  0
   37.9010   30.9590   40.3490 C   0  0  0  0  0  0  0  0  0  0  0  0
   38.8820   31.6530   41.0780 C   0  0  0  0  0  0  0  0  0  0  0  0
   39.0080   33.0380   40.9570 C   0  0  0  0  0  0  0  0  0  0  0  0
   38.1910   33.7770   40.1310 C   0  0  0  0  0  0  0  0  0  0  0  0
   37.2100   33.0920   39.4000 C   0  0  0  0  0  0  0  0  0  0  0  0
   37.1070   31.7300   39.5370 C   0  0  0  0  0  0  0  0  0  0  0  0
   38.4800   25.1680   41.6380 C   0  0  0  0  0  0  0  0  0  0  0  0
   37.4250   25.0870   42.5130 N   0  0  0  0  0  0  0  0  0  0  0  0
   36.4520   24.4580   41.8890 O   0  0  0  0  0  0  0  0  0  0  0  0
   36.8670   24.1580   40.6840 C   0  0  0  0  0  0  0  0  0  0  0  0
   38.1220   24.5850   40.4980 N   0  0  0  0  0  0  0  0  0  0  0  0
   35.9750   23.4300   39.7170 C   0  0  0  0  0  0  0  0  0  0  0  0
   34.7330   23.2810   40.2760 F   0  0  0  0  0  0  0  0  0  0  0  0
   35.8600   24.1330   38.5380 F   0  0  0  0  0  0  0  0  0  0  0  0
   36.4790   22.1650   39.4600 F   0  0  0  0  0  0  0  0  0  0  0  0
   38.7066   27.8753   42.1599 H   0  0  0  0  0  0  0  0  0  0  0  0
   41.6582   27.7672   42.4637 H   0  0  0  0  0  0  0  0  0  0  0  0
   40.4953   28.8901   43.1734 H   0  0  0  0  0  0  0  0  0  0  0  0
   41.4617   26.6224   44.4927 H   0  0  0  0  0  0  0  0  0  0  0  0
   39.8954   27.3373   44.8851 H   0  0  0  0  0  0  0  0  0  0  0  0
   40.3729   24.7460   43.7543 H   0  0  0  0  0  0  0  0  0  0  0  0
   38.7869   25.5248   43.9160 H   0  0  0  0  0  0  0  0  0  0  0  0
   40.5738   25.4402   41.4043 H   0  0  0  0  0  0  0  0  0  0  0  0
   41.5669   26.4684   40.1339 H   0  0  0  0  0  0  0  0  0  0  0  0
   39.8157   29.8118   36.2184 H   0  0  0  0  0  0  0  0  0  0  0  0
   41.1779   28.6839   35.9842 H   0  0  0  0  0  0  0  0  0  0  0  0
   37.0438   29.0442   40.3278 H   0  0  0  0  0  0  0  0  0  0  0  0
   38.1843   29.4451   41.7285 H   0  0  0  0  0  0  0  0  0  0  0  0
   39.5558   31.1004   41.7492 H   0  0  0  0  0  0  0  0  0  0  0  0
   39.7844   33.5552   41.5399 H   0  0  0  0  0  0  0  0  0  0  0  0
   38.3041   34.8680   40.0474 H   0  0  0  0  0  0  0  0  0  0  0  0
   36.5329   33.6380   38.7266 H   0  0  0  0  0  0  0  0  0  0  0  0
   36.3292   31.2176   38.9517 H   0  0  0  0  0  0  0  0  0  0  0  0
  1  5  1  0
  1  2  1  0
  2  3  1  0
  4  3  1  0
  5  4  1  0
  6  7  2  0
  7  1  1  0
  8  7  1  0
  8 13  1  0
  9  8  2  0
 10 11  2  0
 10  9  1  0
 11  6  1  0
 12 10  1  0
 14 13  1  0
 14 15  2  0
 16 15  1  0
 17 16  2  0
 18 19  2  0
 18 17  1  0
 19 14  1  0
 20  5  1  0
 20 21  2  0
 22 21  1  0
 23 22  1  0
 24 23  2  0
 24 20  1  0
 25 26  1  0
 25 23  1  0
 27 25  1  0
 28 25  1  0
  1 29  1  1
  2 30  1  0
  2 31  1  0
  3 32  1  0
  3 33  1  0
  4 34  1  0
  4 35  1  0
  5 36  1  6
  6 37  1  0
 12 38  1  0
 12 39  1  0
 13 40  1  0
 13 41  1  0
 15 42  1  0
 16 43  1  0
 17 44  1  0
 18 45  1  0
 19 46  1  0
M  ISO  8  29  13  30  13  31  13  32  13  33  13  34  13  35  13  36  13
M  ISO  8  37  14  40   8  41   8  42  14  43  14  44  14  45  14  46  14
M  END
>  <minimizedAffinity>  (1) 
-5.60794449

>  <minimizedRMSD>  (1) 
4.36940002

$$$$
