
     RDKit          3D

 43 45  0  0  1  0  0  0  0  0999 V2000
   40.3630   29.7980   42.1240 C   0  0  2  0  0  0  0  0  0  0  0  0
   41.4510   30.2790   42.9250 C   0  0  0  0  0  0  0  0  0  0  0  0
   42.4620   29.1270   42.9790 C   0  0  0  0  0  0  0  0  0  0  0  0
   42.1050   28.2180   41.8110 C   0  0  0  0  0  0  0  0  0  0  0  0
   41.1010   28.9650   41.0020 C   0  0  1  0  0  0  0  0  0  0  0  0
   39.9980   32.0880   41.0800 C   0  0  0  0  0  0  0  0  0  0  0  0
   39.4960   30.7990   41.5100 C   0  0  0  0  0  0  0  0  0  0  0  0
   38.1680   30.4920   41.3550 C   0  0  0  0  0  0  0  0  0  0  0  0
   37.3780   31.4600   40.7860 N   0  0  0  0  0  0  0  0  0  0  0  0
   37.8580   32.6910   40.3760 C   0  0  0  0  0  0  0  0  0  0  0  0
   39.1990   33.0030   40.5310 N   0  0  0  0  0  0  0  0  0  0  0  0
   36.9410   33.6230   39.7950 N   0  0  0  0  0  0  0  0  0  0  0  0
   37.4700   29.3010   41.7120 C   0  0  0  0  0  0  0  0  0  0  0  0
   36.7950   29.3010   42.9660 N   0  0  0  0  0  0  0  0  0  0  0  0
   37.1940   28.2900   43.9140 C   0  0  0  0  0  0  0  0  0  0  0  0
   38.0410   27.3610   43.6160 N   0  0  0  0  0  0  0  0  0  0  0  0
   36.5850   28.3800   45.2180 N   0  0  0  0  0  0  0  0  0  0  0  0
   38.2680   26.6720   44.3670 H   0  0  0  0  0  0  0  0  0  0  0  0
   40.2440   27.8790   40.4430 C   0  0  0  0  0  0  0  0  0  0  0  0
   39.9540   26.7560   41.1810 N   0  0  0  0  0  0  0  0  0  0  0  0
   39.1820   25.9950   40.4340 O   0  0  0  0  0  0  0  0  0  0  0  0
   38.9930   26.6000   39.2900 C   0  0  0  0  0  0  0  0  0  0  0  0
   39.6420   27.7730   39.2640 N   0  0  0  0  0  0  0  0  0  0  0  0
   38.1480   25.9800   38.2120 C   0  0  0  0  0  0  0  0  0  0  0  0
   36.8220   26.1280   38.5400 F   0  0  0  0  0  0  0  0  0  0  0  0
   38.3790   26.5960   36.9990 F   0  0  0  0  0  0  0  0  0  0  0  0
   38.4100   24.6270   38.1140 F   0  0  0  0  0  0  0  0  0  0  0  0
   39.6576   29.2463   42.7628 H   0  0  0  0  0  0  0  0  0  0  0  0
   41.9053   31.1676   42.4623 H   0  0  0  0  0  0  0  0  0  0  0  0
   41.1171   30.5758   43.9302 H   0  0  0  0  0  0  0  0  0  0  0  0
   43.4874   29.5098   42.8689 H   0  0  0  0  0  0  0  0  0  0  0  0
   42.4211   28.5926   43.9396 H   0  0  0  0  0  0  0  0  0  0  0  0
   42.9988   28.0026   41.2071 H   0  0  0  0  0  0  0  0  0  0  0  0
   41.7061   27.2534   42.1581 H   0  0  0  0  0  0  0  0  0  0  0  0
   41.4428   29.6178   40.1853 H   0  0  0  0  0  0  0  0  0  0  0  0
   41.0659   32.3177   41.2098 H   0  0  0  0  0  0  0  0  0  0  0  0
   35.9480   33.3706   39.6891 H   0  0  0  0  0  0  0  0  0  0  0  0
   37.2738   34.5463   39.4826 H   0  0  0  0  0  0  0  0  0  0  0  0
   36.7198   29.1087   40.9308 H   0  0  0  0  0  0  0  0  0  0  0  0
   38.2485   28.5295   41.8054 H   0  0  0  0  0  0  0  0  0  0  0  0
   36.0594   29.9880   43.1848 H   0  0  0  0  0  0  0  0  0  0  0  0
   36.8228   27.6913   45.9461 H   0  0  0  0  0  0  0  0  0  0  0  0
   35.9122   29.1329   45.4213 H   0  0  0  0  0  0  0  0  0  0  0  0
  1  2  1  0
  2  3  1  0
  4  3  1  0
  5  4  1  0
  5  1  1  0
  6  7  2  0
  7  1  1  0
  8  7  1  0
  8 13  1  0
  9  8  2  0
 10 11  2  0
 10  9  1  0
 11  6  1  0
 12 10  1  0
 13 14  1  0
 14 15  1  0
 15 17  1  0
 16 15  2  0
 16 18  1  0
 19  5  1  0
 19 20  2  0
 21 20  1  0
 22 21  1  0
 23 22  2  0
 23 19  1  0
 24 25  1  0
 24 22  1  0
 26 24  1  0
 27 24  1  0
  1 28  1  1
  2 29  1  0
  2 30  1  0
  3 31  1  0
  3 32  1  0
  4 33  1  0
  4 34  1  0
  5 35  1  6
  6 36  1  0
 12 37  1  0
 12 38  1  0
 13 39  1  0
 13 40  1  0
 14 41  1  0
 17 42  1  0
 17 43  1  0
M  ISO  8  28  13  29  13  30  13  31  13  32  13  33  13  34  13  35  13
M  ISO  3  36  14  39   8  40   8
M  END
>  <minimizedAffinity>  (1) 
-5.5496645

>  <minimizedRMSD>  (1) 
3.15108371

$$$$
