
     RDKit          3D

 35 39  0  0  0  0  0  0  0  0999 V2000
   39.7540   30.7680   41.5710 C   0  0  0  0  0  0  0  0  0  0  0  0
   41.0800   31.2100   41.6110 C   0  0  0  0  0  0  0  0  0  0  0  0
   41.1010   32.4160   41.0610 N   0  0  0  0  0  0  0  0  0  0  0  0
   39.8780   32.8090   40.6570 C   0  0  0  0  0  0  0  0  0  0  0  0
   39.4700   33.9800   40.0440 C   0  0  0  0  0  0  0  0  0  0  0  0
   38.1160   34.1090   39.7370 C   0  0  0  0  0  0  0  0  0  0  0  0
   37.2280   33.0940   40.0400 C   0  0  0  0  0  0  0  0  0  0  0  0
   37.6430   31.9240   40.6540 C   0  0  0  0  0  0  0  0  0  0  0  0
   39.0040   31.7740   40.9720 C   0  0  0  0  0  0  0  0  0  0  0  0
   44.4090   34.4470   38.4930 N   0  0  0  0  0  0  0  0  0  0  0  0
   43.4810   33.8900   37.7160 C   0  0  0  0  0  0  0  0  0  0  0  0
   42.5460   33.3150   38.5260 N   0  0  0  0  0  0  0  0  0  0  0  0
   42.9330   33.5400   39.7730 C   0  0  0  0  0  0  0  0  0  0  0  0
   42.3150   33.1540   40.9440 C   0  0  0  0  0  0  0  0  0  0  0  0
   42.9100   33.5060   42.1190 N   0  0  0  0  0  0  0  0  0  0  0  0
   44.0580   34.2030   42.1340 C   0  0  0  0  0  0  0  0  0  0  0  0
   44.6810   34.5900   40.9840 N   0  0  0  0  0  0  0  0  0  0  0  0
   44.1090   34.2540   39.7920 C   0  0  0  0  0  0  0  0  0  0  0  0
   39.1300   27.1840   41.8590 C   0  0  0  0  0  0  0  0  0  0  0  0
   38.2410   27.0890   42.9640 C   0  0  0  0  0  0  0  0  0  0  0  0
   37.8780   28.2800   43.5860 C   0  0  0  0  0  0  0  0  0  0  0  0
   38.3850   29.4340   43.1090 N   0  0  0  0  0  0  0  0  0  0  0  0
   39.2280   29.5000   42.0570 C   0  0  0  0  0  0  0  0  0  0  0  0
   39.6010   28.3690   41.4300 N   0  0  0  0  0  0  0  0  0  0  0  0
   41.9412   30.6617   42.0206 H   0  0  0  0  0  0  0  0  0  0  0  0
   40.1872   34.7798   39.8075 H   0  0  0  0  0  0  0  0  0  0  0  0
   37.7517   35.0256   39.2499 H   0  0  0  0  0  0  0  0  0  0  0  0
   36.1648   33.2187   39.7871 H   0  0  0  0  0  0  0  0  0  0  0  0
   36.9215   31.1274   40.8883 H   0  0  0  0  0  0  0  0  0  0  0  0
   45.2377   34.9531   38.1494 H   0  0  0  0  0  0  0  0  0  0  0  0
   43.4706   33.8932   36.6161 H   0  0  0  0  0  0  0  0  0  0  0  0
   44.5087   34.4694   43.1014 H   0  0  0  0  0  0  0  0  0  0  0  0
   39.4410   26.2647   41.3411 H   0  0  0  0  0  0  0  0  0  0  0  0
   37.8574   26.1185   43.3117 H   0  0  0  0  0  0  0  0  0  0  0  0
   37.1932   28.2794   44.4469 H   0  0  0  0  0  0  0  0  0  0  0  0
  1  2  2  0
  1 23  1  0
  3  2  1  0
  4  9  2  0
  4  3  1  0
  5  4  1  0
  6  7  1  0
  6  5  2  0
  7  8  2  0
  8  9  1  0
  9  1  1  0
 10 18  1  0
 11 10  1  0
 11 12  2  0
 12 13  1  0
 13 18  2  0
 13 14  1  0
 14  3  1  0
 14 15  2  0
 15 16  1  0
 17 16  2  0
 18 17  1  0
 19 20  2  0
 20 21  1  0
 22 21  2  0
 23 22  1  0
 24 19  1  0
 24 23  2  0
  2 25  1  0
  5 26  1  0
  6 27  1  0
  7 28  1  0
  8 29  1  0
 10 30  1  0
 11 31  1  0
 16 32  1  0
 19 33  1  0
 20 34  1  0
 21 35  1  0
M  ISO  8  25  14  26  14  27  14  28  14  29  14  30   9  31  14  32  14
M  ISO  3  33  14  34  14  35  14
M  END
>  <minimizedAffinity>  (1) 
-5.86388254

>  <minimizedRMSD>  (1) 
8.20424843

$$$$
