
     RDKit          3D

 31 34  0  0  0  0  0  0  0  0999 V2000
   38.5650   30.5050   41.0960 C   0  0  0  0  0  0  0  0  0  0  0  0
   39.0900   31.7870   41.2790 C   0  0  0  0  0  0  0  0  0  0  0  0
   38.8920   32.4410   40.1440 N   0  0  0  0  0  0  0  0  0  0  0  0
   38.2740   31.6850   39.2210 C   0  0  0  0  0  0  0  0  0  0  0  0
   37.8920   31.9890   37.9270 C   0  0  0  0  0  0  0  0  0  0  0  0
   37.2620   30.9930   37.1950 C   0  0  0  0  0  0  0  0  0  0  0  0
   37.0330   29.7580   37.7490 C   0  0  0  0  0  0  0  0  0  0  0  0
   37.4150   29.4460   39.0490 C   0  0  0  0  0  0  0  0  0  0  0  0
   38.0540   30.4410   39.8040 C   0  0  0  0  0  0  0  0  0  0  0  0
   37.3810   28.2310   43.6890 C   0  0  0  0  0  0  0  0  0  0  0  0
   38.4860   27.3620   43.9020 C   0  0  0  0  0  0  0  0  0  0  0  0
   39.6320   27.5850   43.1340 C   0  0  0  0  0  0  0  0  0  0  0  0
   39.6170   28.6030   42.2460 N   0  0  0  0  0  0  0  0  0  0  0  0
   38.5470   29.4140   42.0650 C   0  0  0  0  0  0  0  0  0  0  0  0
   37.4260   29.2230   42.7940 N   0  0  0  0  0  0  0  0  0  0  0  0
   39.3350   33.7960   40.0450 C   0  0  0  0  0  0  0  0  0  0  0  0
   38.7870   35.0500   40.3210 C   0  0  0  0  0  0  0  0  0  0  0  0
   39.7110   35.9830   40.0150 N   0  0  0  0  0  0  0  0  0  0  0  0
   40.7940   35.3250   39.5660 C   0  0  0  0  0  0  0  0  0  0  0  0
   40.5790   33.9950   39.5780 N   0  0  0  0  0  0  0  0  0  0  0  0
   39.5729   32.1767   42.1872 H   0  0  0  0  0  0  0  0  0  0  0  0
   38.0805   32.9827   37.4946 H   0  0  0  0  0  0  0  0  0  0  0  0
   36.9432   31.1946   36.1617 H   0  0  0  0  0  0  0  0  0  0  0  0
   36.5302   28.9892   37.1439 H   0  0  0  0  0  0  0  0  0  0  0  0
   37.2221   28.4493   39.4726 H   0  0  0  0  0  0  0  0  0  0  0  0
   36.4633   28.0829   44.2772 H   0  0  0  0  0  0  0  0  0  0  0  0
   38.4407   26.5481   44.6406 H   0  0  0  0  0  0  0  0  0  0  0  0
   40.5220   26.9490   43.2494 H   0  0  0  0  0  0  0  0  0  0  0  0
   37.7794   35.2428   40.7180 H   0  0  0  0  0  0  0  0  0  0  0  0
   41.7263   35.8058   39.2348 H   0  0  0  0  0  0  0  0  0  0  0  0
   41.2447   33.2661   39.2838 H   0  0  0  0  0  0  0  0  0  0  0  0
  1  2  2  0
  1 14  1  0
  3  2  1  0
  4  9  2  0
  4  3  1  0
  5  4  1  0
  6  7  1  0
  6  5  2  0
  7  8  2  0
  8  9  1  0
  9  1  1  0
 10 11  2  0
 12 11  1  0
 13 12  2  0
 14 13  1  0
 14 15  2  0
 15 10  1  0
 16  3  1  0
 16 17  2  0
 18 17  1  0
 19 20  1  0
 19 18  2  0
 20 16  1  0
  2 21  1  0
  5 22  1  0
  6 23  1  0
  7 24  1  0
  8 25  1  0
 10 26  1  0
 11 27  1  0
 12 28  1  0
 17 29  1  0
 19 30  1  0
 20 31  1  0
M  ISO  8  21  14  22  14  23  14  24  14  25  14  26  14  27  14  28  14
M  ISO  3  29  14  30  14  31   9
M  END
>  <minimizedAffinity>  (1) 
-5.65566015

>  <minimizedRMSD>  (1) 
5.49294662

$$$$
