
     RDKit          3D

 32 35  0  0  0  0  0  0  0  0999 V2000
   39.2790   30.0790   42.0450 C   0  0  0  0  0  0  0  0  0  0  0  0
   38.9450   31.2700   41.3980 C   0  0  0  0  0  0  0  0  0  0  0  0
   40.0340   32.0220   41.4070 N   0  0  0  0  0  0  0  0  0  0  0  0
   41.0740   31.4240   42.0130 C   0  0  0  0  0  0  0  0  0  0  0  0
   42.3590   31.8780   42.2200 C   0  0  0  0  0  0  0  0  0  0  0  0
   43.2290   31.0120   42.8930 C   0  0  0  0  0  0  0  0  0  0  0  0
   42.7970   29.7640   43.3200 C   0  0  0  0  0  0  0  0  0  0  0  0
   41.5100   29.3270   43.1040 C   0  0  0  0  0  0  0  0  0  0  0  0
   40.6210   30.1770   42.4320 C   0  0  0  0  0  0  0  0  0  0  0  0
   37.5170   26.9270   41.5180 C   0  0  0  0  0  0  0  0  0  0  0  0
   36.7840   26.7510   42.7360 C   0  0  0  0  0  0  0  0  0  0  0  0
   36.9260   27.7370   43.7070 C   0  0  0  0  0  0  0  0  0  0  0  0
   37.7340   28.7890   43.4510 N   0  0  0  0  0  0  0  0  0  0  0  0
   38.4130   28.9280   42.2890 C   0  0  0  0  0  0  0  0  0  0  0  0
   38.3020   27.9910   41.3210 N   0  0  0  0  0  0  0  0  0  0  0  0
   40.0130   33.3180   40.8130 C   0  0  0  0  0  0  0  0  0  0  0  0
   38.9530   34.1960   40.8880 C   0  0  0  0  0  0  0  0  0  0  0  0
   39.0640   35.4340   40.2590 C   0  0  0  0  0  0  0  0  0  0  0  0
   40.1630   35.7800   39.5950 N   0  0  0  0  0  0  0  0  0  0  0  0
   41.1870   34.9100   39.5320 C   0  0  0  0  0  0  0  0  0  0  0  0
   41.1370   33.6830   40.1280 N   0  0  0  0  0  0  0  0  0  0  0  0
   37.9682   31.5321   40.9655 H   0  0  0  0  0  0  0  0  0  0  0  0
   42.6842   32.8702   41.8740 H   0  0  0  0  0  0  0  0  0  0  0  0
   44.2661   31.3240   43.0855 H   0  0  0  0  0  0  0  0  0  0  0  0
   43.5036   29.1053   43.8462 H   0  0  0  0  0  0  0  0  0  0  0  0
   41.1867   28.3343   43.4505 H   0  0  0  0  0  0  0  0  0  0  0  0
   37.4319   26.1686   40.7258 H   0  0  0  0  0  0  0  0  0  0  0  0
   36.1378   25.8754   42.8964 H   0  0  0  0  0  0  0  0  0  0  0  0
   36.3906   27.6615   44.6649 H   0  0  0  0  0  0  0  0  0  0  0  0
   38.0374   33.9244   41.4338 H   0  0  0  0  0  0  0  0  0  0  0  0
   38.2234   36.1415   40.3128 H   0  0  0  0  0  0  0  0  0  0  0  0
   42.0952   35.1970   38.9817 H   0  0  0  0  0  0  0  0  0  0  0  0
  1 14  1  0
  1  9  1  0
  2  3  1  0
  2  1  2  0
  3  4  1  0
  4  5  1  0
  4  9  2  0
  5  6  2  0
  6  7  1  0
  8  7  2  0
  9  8  1  0
 10 11  2  0
 11 12  1  0
 13 12  2  0
 14 13  1  0
 15 10  1  0
 15 14  2  0
 16 17  2  0
 16  3  1  0
 18 17  1  0
 19 18  2  0
 20 19  1  0
 20 21  2  0
 21 16  1  0
  2 22  1  0
  5 23  1  0
  6 24  1  0
  7 25  1  0
  8 26  1  0
 10 27  1  0
 11 28  1  0
 12 29  1  0
 17 30  1  0
 18 31  1  0
 20 32  1  0
M  ISO  8  22  14  23  14  24  14  25  14  26  14  27  14  28  14  29  14
M  ISO  3  30  14  31  14  32  14
M  END
>  <minimizedAffinity>  (1) 
-5.41967201

>  <minimizedRMSD>  (1) 
6.16520166

$$$$
