
     RDKit          3D

 31 34  0  0  0  0  0  0  0  0999 V2000
   37.0990   28.7440   40.2540 C   0  0  0  0  0  0  0  0  0  0  0  0
   35.9310   28.3930   39.5740 C   0  0  0  0  0  0  0  0  0  0  0  0
   35.8630   29.1500   38.4900 N   0  0  0  0  0  0  0  0  0  0  0  0
   36.9110   29.9850   38.4010 C   0  0  0  0  0  0  0  0  0  0  0  0
   37.2270   30.9360   37.4330 C   0  0  0  0  0  0  0  0  0  0  0  0
   38.3980   31.6650   37.6070 C   0  0  0  0  0  0  0  0  0  0  0  0
   39.1990   31.4390   38.6980 C   0  0  0  0  0  0  0  0  0  0  0  0
   38.8910   30.4970   39.6600 C   0  0  0  0  0  0  0  0  0  0  0  0
   37.7280   29.7540   39.5150 C   0  0  0  0  0  0  0  0  0  0  0  0
   34.7950   29.0820   37.5320 C   0  0  0  0  0  0  0  0  0  0  0  0
   33.4400   28.9360   37.8050 C   0  0  0  0  0  0  0  0  0  0  0  0
   32.7900   28.9180   36.5960 C   0  0  0  0  0  0  0  0  0  0  0  0
   33.7050   29.0470   35.6150 N   0  0  0  0  0  0  0  0  0  0  0  0
   34.9150   29.1460   36.1790 N   0  0  0  0  0  0  0  0  0  0  0  0
   37.5520   28.1400   43.8330 C   0  0  0  0  0  0  0  0  0  0  0  0
   38.5810   27.1440   43.8610 C   0  0  0  0  0  0  0  0  0  0  0  0
   39.0920   26.7070   42.6230 C   0  0  0  0  0  0  0  0  0  0  0  0
   38.5820   27.2520   41.5010 N   0  0  0  0  0  0  0  0  0  0  0  0
   37.6150   28.1870   41.5090 C   0  0  0  0  0  0  0  0  0  0  0  0
   37.1040   28.6280   42.6670 N   0  0  0  0  0  0  0  0  0  0  0  0
   35.2022   27.6288   39.8820 H   0  0  0  0  0  0  0  0  0  0  0  0
   36.5744   31.1038   36.5636 H   0  0  0  0  0  0  0  0  0  0  0  0
   38.6838   32.4266   36.8665 H   0  0  0  0  0  0  0  0  0  0  0  0
   40.1201   32.0297   38.8105 H   0  0  0  0  0  0  0  0  0  0  0  0
   39.5540   30.3390   40.5234 H   0  0  0  0  0  0  0  0  0  0  0  0
   32.9772   28.8511   38.7993 H   0  0  0  0  0  0  0  0  0  0  0  0
   31.7043   28.8155   36.4521 H   0  0  0  0  0  0  0  0  0  0  0  0
   33.5072   29.0661   34.6044 H   0  0  0  0  0  0  0  0  0  0  0  0
   37.1249   28.5083   44.7774 H   0  0  0  0  0  0  0  0  0  0  0  0
   38.9572   26.7367   44.8110 H   0  0  0  0  0  0  0  0  0  0  0  0
   39.8831   25.9443   42.5737 H   0  0  0  0  0  0  0  0  0  0  0  0
  1 19  1  0
  2  1  2  0
  3  2  1  0
  4  3  1  0
  4  9  2  0
  5  6  2  0
  5  4  1  0
  6  7  1  0
  7  8  2  0
  9  8  1  0
  9  1  1  0
 10 11  1  0
 10  3  1  0
 12 11  2  0
 13 14  1  0
 13 12  1  0
 14 10  2  0
 15 16  2  0
 17 16  1  0
 18 19  1  0
 18 17  2  0
 19 20  2  0
 20 15  1  0
  2 21  1  0
  5 22  1  0
  6 23  1  0
  7 24  1  0
  8 25  1  0
 11 26  1  0
 12 27  1  0
 13 28  1  0
 15 29  1  0
 16 30  1  0
 17 31  1  0
M  ISO  8  21  14  22  14  23  14  24  14  25  14  26  14  27  14  28   9
M  ISO  3  29  14  30  14  31  14
M  END
>  <minimizedAffinity>  (1) 
-4.94249439

>  <minimizedRMSD>  (1) 
3.27716851

$$$$
