
     RDKit          3D

 27 29  0  0  0  0  0  0  0  0999 V2000
   37.6420   28.2100   41.5150 C   0  0  0  0  0  0  0  0  0  0  0  0
   36.3630   27.9650   41.0200 C   0  0  0  0  0  0  0  0  0  0  0  0
   35.9120   29.1150   40.5200 N   0  0  0  0  0  0  0  0  0  0  0  0
   36.8150   30.1020   40.6560 C   0  0  0  0  0  0  0  0  0  0  0  0
   36.7450   31.4380   40.2740 C   0  0  0  0  0  0  0  0  0  0  0  0
   37.8400   32.2430   40.5430 C   0  0  0  0  0  0  0  0  0  0  0  0
   38.9470   31.7220   41.1650 C   0  0  0  0  0  0  0  0  0  0  0  0
   39.0190   30.3950   41.5450 C   0  0  0  0  0  0  0  0  0  0  0  0
   37.9390   29.5680   41.2890 C   0  0  0  0  0  0  0  0  0  0  0  0
   39.6960   26.5990   44.0700 C   0  0  0  0  0  0  0  0  0  0  0  0
   40.2530   25.4950   43.3850 C   0  0  0  0  0  0  0  0  0  0  0  0
   39.9090   25.3210   42.0440 C   0  0  0  0  0  0  0  0  0  0  0  0
   39.0650   26.2180   41.4780 N   0  0  0  0  0  0  0  0  0  0  0  0
   38.5470   27.2660   42.1600 C   0  0  0  0  0  0  0  0  0  0  0  0
   38.8660   27.4510   43.4510 N   0  0  0  0  0  0  0  0  0  0  0  0
   34.5790   29.1790   39.9190 C   0  0  0  0  0  0  0  0  0  0  0  0
   35.8271   27.0045   41.0384 H   0  0  0  0  0  0  0  0  0  0  0  0
   35.8511   31.8412   39.7756 H   0  0  0  0  0  0  0  0  0  0  0  0
   37.8221   33.3049   40.2567 H   0  0  0  0  0  0  0  0  0  0  0  0
   39.8039   32.3813   41.3675 H   0  0  0  0  0  0  0  0  0  0  0  0
   39.9186   30.0031   42.0421 H   0  0  0  0  0  0  0  0  0  0  0  0
   39.9476   26.7618   45.1284 H   0  0  0  0  0  0  0  0  0  0  0  0
   40.9348   24.7965   43.8922 H   0  0  0  0  0  0  0  0  0  0  0  0
   40.3117   24.4789   41.4620 H   0  0  0  0  0  0  0  0  0  0  0  0
   33.8197   29.2155   40.7141 H   0  0  0  0  0  0  0  0  0  0  0  0
   34.5008   30.0819   39.2956 H   0  0  0  0  0  0  0  0  0  0  0  0
   34.4147   28.2877   39.2956 H   0  0  0  0  0  0  0  0  0  0  0  0
  1 14  1  0
  2  1  2  0
  3  4  1  0
  3  2  1  0
  4  9  2  0
  5  6  2  0
  5  4  1  0
  6  7  1  0
  7  8  2  0
  9  1  1  0
  9  8  1  0
 11 10  2  0
 12 11  1  0
 13 12  2  0
 13 14  1  0
 14 15  2  0
 15 10  1  0
 16  3  1  0
  2 17  1  0
  5 18  1  0
  6 19  1  0
  7 20  1  0
  8 21  1  0
 10 22  1  0
 11 23  1  0
 12 24  1  0
 16 25  1  0
 16 26  1  0
 16 27  1  0
M  ISO  8  17  14  18  14  19  14  20  14  21  14  22  14  23  14  24  14
M  ISO  3  25   8  26   8  27   8
M  END
>  <minimizedAffinity>  (1) 
-4.41233492

>  <minimizedRMSD>  (1) 
1.10742533

$$$$
