
     RDKit          3D

 41 44  0  0  0  0  0  0  0  0999 V2000
   37.5880   28.2090   41.3600 C   0  0  0  0  0  0  0  0  0  0  0  0
   36.3690   27.9400   40.7610 C   0  0  0  0  0  0  0  0  0  0  0  0
   35.9220   29.0900   40.2330 N   0  0  0  0  0  0  0  0  0  0  0  0
   36.7810   30.0910   40.4540 C   0  0  0  0  0  0  0  0  0  0  0  0
   36.6890   31.4130   40.0760 C   0  0  0  0  0  0  0  0  0  0  0  0
   37.7380   32.2540   40.4410 C   0  0  0  0  0  0  0  0  0  0  0  0
   38.8300   31.7570   41.1610 C   0  0  0  0  0  0  0  0  0  0  0  0
   38.9050   30.4280   41.5310 C   0  0  0  0  0  0  0  0  0  0  0  0
   37.8610   29.5800   41.1710 C   0  0  0  0  0  0  0  0  0  0  0  0
   39.5410   26.6730   44.0470 C   0  0  0  0  0  0  0  0  0  0  0  0
   40.1030   25.5280   43.4190 C   0  0  0  0  0  0  0  0  0  0  0  0
   39.7910   25.3130   42.0710 C   0  0  0  0  0  0  0  0  0  0  0  0
   38.9790   26.1970   41.4470 N   0  0  0  0  0  0  0  0  0  0  0  0
   38.4610   27.2750   42.0690 C   0  0  0  0  0  0  0  0  0  0  0  0
   38.7380   27.5190   43.3710 N   0  0  0  0  0  0  0  0  0  0  0  0
   34.6570   29.1220   39.5340 C   0  0  0  0  0  0  0  0  0  0  0  0
   34.6630   28.3340   38.2670 C   0  0  0  0  0  0  0  0  0  0  0  0
   33.8020   28.8730   37.2570 N   0  0  0  0  0  0  0  0  0  0  0  0
   32.5440   29.2980   37.4820 C   0  0  0  0  0  0  0  0  0  0  0  0
   31.7040   29.8170   36.5340 C   0  0  0  0  0  0  0  0  0  0  0  0
   32.2320   29.8940   35.2410 C   0  0  0  0  0  0  0  0  0  0  0  0
   31.4660   30.4140   34.1600 N   0  0  0  0  0  0  0  0  0  0  0  0
   33.5050   29.4710   34.9870 N   0  0  0  0  0  0  0  0  0  0  0  0
   34.2720   28.9700   35.9800 C   0  0  0  0  0  0  0  0  0  0  0  0
   35.4510   28.5840   35.7100 O   0  0  0  0  0  0  0  0  0  0  0  0
   35.8613   26.9649   40.7246 H   0  0  0  0  0  0  0  0  0  0  0  0
   35.8238   31.7884   39.5099 H   0  0  0  0  0  0  0  0  0  0  0  0
   37.7075   33.3173   40.1609 H   0  0  0  0  0  0  0  0  0  0  0  0
   39.6468   32.4395   41.4386 H   0  0  0  0  0  0  0  0  0  0  0  0
   39.7689   30.0488   42.0965 H   0  0  0  0  0  0  0  0  0  0  0  0
   39.7658   26.8725   45.1051 H   0  0  0  0  0  0  0  0  0  0  0  0
   40.7578   24.8375   43.9709 H   0  0  0  0  0  0  0  0  0  0  0  0
   40.1971   24.4447   41.5314 H   0  0  0  0  0  0  0  0  0  0  0  0
   33.8812   28.7113   40.1970 H   0  0  0  0  0  0  0  0  0  0  0  0
   34.4597   30.1702   39.2650 H   0  0  0  0  0  0  0  0  0  0  0  0
   35.6903   28.3131   37.8744 H   0  0  0  0  0  0  0  0  0  0  0  0
   34.2894   27.3281   38.5088 H   0  0  0  0  0  0  0  0  0  0  0  0
   32.1607   29.2219   38.5103 H   0  0  0  0  0  0  0  0  0  0  0  0
   30.6834   30.1507   36.7727 H   0  0  0  0  0  0  0  0  0  0  0  0
   31.8743   30.4617   33.2156 H   0  0  0  0  0  0  0  0  0  0  0  0
   30.5034   30.7426   34.3221 H   0  0  0  0  0  0  0  0  0  0  0  0
  1 14  1  0
  2  1  2  0
  3  4  1  0
  3  2  1  0
  4  9  2  0
  5  6  2  0
  5  4  1  0
  6  7  1  0
  7  8  2  0
  9  1  1  0
  9  8  1  0
 11 10  2  0
 12 11  1  0
 13 14  1  0
 13 12  2  0
 14 15  2  0
 15 10  1  0
 16  3  1  0
 17 16  1  0
 18 19  1  0
 18 17  1  0
 20 19  2  0
 21 20  1  0
 22 21  1  0
 23 21  2  0
 23 24  1  0
 24 18  1  0
 25 24  2  0
  2 26  1  0
  5 27  1  0
  6 28  1  0
  7 29  1  0
  8 30  1  0
 10 31  1  0
 11 32  1  0
 12 33  1  0
 16 34  1  0
 16 35  1  0
 17 36  1  0
 17 37  1  0
 19 38  1  0
 20 39  1  0
 22 40  1  0
 22 41  1  0
M  ISO  8  26  14  27  14  28  14  29  14  30  14  31  14  32  14  33  14
M  ISO  6  34   8  35   8  36   8  37   8  38  14  39  14
M  END
>  <minimizedAffinity>  (1) 
-5.16940832

>  <minimizedRMSD>  (1) 
1.26037776

$$$$
