
     RDKit          3D

 30 33  0  0  0  0  0  0  0  0999 V2000
   36.9240   26.8900   41.4380 C   0  0  0  0  0  0  0  0  0  0  0  0
   36.9810   25.9800   40.3870 C   0  0  0  0  0  0  0  0  0  0  0  0
   37.1320   24.7520   40.9890 C   0  0  0  0  0  0  0  0  0  0  0  0
   37.1650   24.8980   42.3300 N   0  0  0  0  0  0  0  0  0  0  0  0
   37.0390   26.1910   42.5740 N   0  0  0  0  0  0  0  0  0  0  0  0
   37.6920   29.2520   41.7490 C   0  0  0  0  0  0  0  0  0  0  0  0
   36.7670   28.3240   41.2480 C   0  0  0  0  0  0  0  0  0  0  0  0
   35.6540   28.7940   40.5410 C   0  0  0  0  0  0  0  0  0  0  0  0
   35.5240   30.1440   40.3730 N   0  0  0  0  0  0  0  0  0  0  0  0
   36.4490   31.0200   40.8770 C   0  0  0  0  0  0  0  0  0  0  0  0
   37.5240   30.5640   41.5600 N   0  0  0  0  0  0  0  0  0  0  0  0
   37.2440   23.4690   40.3830 N   0  0  0  0  0  0  0  0  0  0  0  0
   38.3940   22.7440   40.3740 C   0  0  0  0  0  0  0  0  0  0  0  0
   38.1450   21.5800   39.7160 N   0  0  0  0  0  0  0  0  0  0  0  0
   36.8600   21.5950   39.3300 C   0  0  0  0  0  0  0  0  0  0  0  0
   36.0030   20.7610   38.6500 C   0  0  0  0  0  0  0  0  0  0  0  0
   34.7060   21.0500   38.3960 N   0  0  0  0  0  0  0  0  0  0  0  0
   34.1680   22.2140   38.8130 C   0  0  0  0  0  0  0  0  0  0  0  0
   35.0060   23.0250   39.4740 N   0  0  0  0  0  0  0  0  0  0  0  0
   36.2740   22.7720   39.7380 C   0  0  0  0  0  0  0  0  0  0  0  0
   36.4770   19.5200   38.1750 N   0  0  0  0  0  0  0  0  0  0  0  0
   36.9189   26.1953   39.3101 H   0  0  0  0  0  0  0  0  0  0  0  0
   37.2683   24.1476   43.0280 H   0  0  0  0  0  0  0  0  0  0  0  0
   38.5700   28.8937   42.3065 H   0  0  0  0  0  0  0  0  0  0  0  0
   34.9066   28.0977   40.1330 H   0  0  0  0  0  0  0  0  0  0  0  0
   36.3167   32.1014   40.7253 H   0  0  0  0  0  0  0  0  0  0  0  0
   39.3539   23.0449   40.8191 H   0  0  0  0  0  0  0  0  0  0  0  0
   33.1172   22.4790   38.6244 H   0  0  0  0  0  0  0  0  0  0  0  0
   35.8437   18.8880   37.6647 H   0  0  0  0  0  0  0  0  0  0  0  0
   37.4563   19.2460   38.3386 H   0  0  0  0  0  0  0  0  0  0  0  0
  1  5  2  0
  2  3  2  0
  2  1  1  0
  3  4  1  0
  4  5  1  0
  7  1  1  0
  7  6  2  0
  8  7  1  0
  9  8  2  0
  9 10  1  0
 10 11  2  0
 11  6  1  0
 12  3  1  0
 13 12  1  0
 14 13  2  0
 15 14  1  0
 15 20  2  0
 16 15  1  0
 17 16  2  0
 17 18  1  0
 18 19  2  0
 19 20  1  0
 20 12  1  0
 21 16  1  0
  2 22  1  0
  4 23  1  0
  6 24  1  0
  8 25  1  0
 10 26  1  0
 13 27  1  0
 18 28  1  0
 21 29  1  0
 21 30  1  0
M  ISO  7  22  14  23   9  24  14  25  14  26  14  27  14  28  14
M  END
>  <minimizedAffinity>  (1) 
-4.48706245

>  <minimizedRMSD>  (1) 
0.500327647

$$$$
