
     RDKit          3D

 39 42  0  0  0  0  0  0  0  0999 V2000
   37.5970   28.1990   41.3880 C   0  0  0  0  0  0  0  0  0  0  0  0
   36.3750   27.9420   40.7770 C   0  0  0  0  0  0  0  0  0  0  0  0
   35.9400   29.0970   40.2540 N   0  0  0  0  0  0  0  0  0  0  0  0
   36.7900   30.1010   40.4760 C   0  0  0  0  0  0  0  0  0  0  0  0
   36.7040   31.4210   40.1040 C   0  0  0  0  0  0  0  0  0  0  0  0
   37.7560   32.2590   40.4780 C   0  0  0  0  0  0  0  0  0  0  0  0
   38.8460   31.7540   41.2030 C   0  0  0  0  0  0  0  0  0  0  0  0
   38.9140   30.4320   41.5650 C   0  0  0  0  0  0  0  0  0  0  0  0
   37.8720   29.5760   41.2010 C   0  0  0  0  0  0  0  0  0  0  0  0
   39.5550   26.6680   44.0570 C   0  0  0  0  0  0  0  0  0  0  0  0
   40.1120   25.5210   43.4240 C   0  0  0  0  0  0  0  0  0  0  0  0
   39.7950   25.3010   42.0780 C   0  0  0  0  0  0  0  0  0  0  0  0
   38.9840   26.1900   41.4710 N   0  0  0  0  0  0  0  0  0  0  0  0
   38.4650   27.2740   42.0940 C   0  0  0  0  0  0  0  0  0  0  0  0
   38.7530   27.5090   43.3810 N   0  0  0  0  0  0  0  0  0  0  0  0
   34.6880   29.1400   39.5520 C   0  0  0  0  0  0  0  0  0  0  0  0
   34.6630   28.3150   38.2830 C   0  0  0  0  0  0  0  0  0  0  0  0
   33.5500   28.9170   37.4630 C   0  0  0  0  0  0  0  0  0  0  0  0
   33.7030   29.0400   36.0970 C   0  0  0  0  0  0  0  0  0  0  0  0
   32.7550   29.5720   35.2460 C   0  0  0  0  0  0  0  0  0  0  0  0
   31.5740   30.0030   35.8600 C   0  0  0  0  0  0  0  0  0  0  0  0
   31.4280   29.8770   37.2310 C   0  0  0  0  0  0  0  0  0  0  0  0
   32.3920   29.3460   38.0150 N   0  0  0  0  0  0  0  0  0  0  0  0
   35.8604   26.9708   40.7312 H   0  0  0  0  0  0  0  0  0  0  0  0
   35.8425   31.8013   39.5355 H   0  0  0  0  0  0  0  0  0  0  0  0
   37.7302   33.3235   40.2022 H   0  0  0  0  0  0  0  0  0  0  0  0
   39.6638   32.4325   41.4874 H   0  0  0  0  0  0  0  0  0  0  0  0
   39.7760   30.0523   42.1332 H   0  0  0  0  0  0  0  0  0  0  0  0
   39.7840   26.8690   45.1140 H   0  0  0  0  0  0  0  0  0  0  0  0
   40.7691   24.8310   43.9736 H   0  0  0  0  0  0  0  0  0  0  0  0
   40.1943   24.4321   41.5344 H   0  0  0  0  0  0  0  0  0  0  0  0
   33.9021   28.7645   40.2238 H   0  0  0  0  0  0  0  0  0  0  0  0
   34.5271   30.1865   39.2536 H   0  0  0  0  0  0  0  0  0  0  0  0
   35.6228   28.3909   37.7509 H   0  0  0  0  0  0  0  0  0  0  0  0
   34.5037   27.2451   38.4828 H   0  0  0  0  0  0  0  0  0  0  0  0
   34.6472   28.6893   35.6549 H   0  0  0  0  0  0  0  0  0  0  0  0
   32.9169   29.6515   34.1609 H   0  0  0  0  0  0  0  0  0  0  0  0
   30.7651   30.4400   35.2561 H   0  0  0  0  0  0  0  0  0  0  0  0
   30.4939   30.2215   37.6988 H   0  0  0  0  0  0  0  0  0  0  0  0
  1 14  1  0
  2  1  2  0
  3  4  1  0
  3  2  1  0
  4  9  2  0
  5  4  1  0
  5  6  2  0
  6  7  1  0
  7  8  2  0
  9  1  1  0
  9  8  1  0
 11 10  2  0
 12 11  1  0
 13 12  2  0
 13 14  1  0
 14 15  2  0
 15 10  1  0
 16  3  1  0
 17 16  1  0
 18 23  1  0
 18 17  1  0
 19 18  2  0
 20 21  2  0
 20 19  1  0
 21 22  1  0
 22 23  2  0
  2 24  1  0
  5 25  1  0
  6 26  1  0
  7 27  1  0
  8 28  1  0
 10 29  1  0
 11 30  1  0
 12 31  1  0
 16 32  1  0
 16 33  1  0
 17 34  1  0
 17 35  1  0
 19 36  1  0
 20 37  1  0
 21 38  1  0
 22 39  1  0
M  ISO  8  24  14  25  14  26  14  27  14  28  14  29  14  30  14  31  14
M  ISO  8  32   8  33   8  34   8  35   8  36  14  37  14  38  14  39  14
M  END
>  <minimizedAffinity>  (1) 
-5.0626955

>  <minimizedRMSD>  (1) 
0.915141284

$$$$
