
     RDKit          3D

 37 40  0  0  0  0  0  0  0  0999 V2000
   38.2500   28.0330   41.8200 C   0  0  0  0  0  0  0  0  0  0  0  0
   36.9720   28.2930   41.3200 C   0  0  0  0  0  0  0  0  0  0  0  0
   36.9230   29.6020   41.0220 N   0  0  0  0  0  0  0  0  0  0  0  0
   38.0810   30.2110   41.2940 C   0  0  0  0  0  0  0  0  0  0  0  0
   38.4340   31.5290   41.1350 C   0  0  0  0  0  0  0  0  0  0  0  0
   39.7260   31.8980   41.5050 C   0  0  0  0  0  0  0  0  0  0  0  0
   40.6120   30.9510   42.0160 C   0  0  0  0  0  0  0  0  0  0  0  0
   40.2470   29.6280   42.1720 C   0  0  0  0  0  0  0  0  0  0  0  0
   38.9580   29.2450   41.8070 C   0  0  0  0  0  0  0  0  0  0  0  0
   40.0540   25.5880   43.8500 C   0  0  0  0  0  0  0  0  0  0  0  0
   39.7920   24.3670   43.1710 C   0  0  0  0  0  0  0  0  0  0  0  0
   38.9940   24.4090   42.0190 C   0  0  0  0  0  0  0  0  0  0  0  0
   38.5250   25.6120   41.6300 N   0  0  0  0  0  0  0  0  0  0  0  0
   38.7790   26.7530   42.2780 C   0  0  0  0  0  0  0  0  0  0  0  0
   39.5440   26.7480   43.3920 N   0  0  0  0  0  0  0  0  0  0  0  0
   35.7090   30.1680   40.4780 C   0  0  0  0  0  0  0  0  0  0  0  0
   34.7540   29.1410   39.9700 C   0  0  0  0  0  0  0  0  0  0  0  0
   34.5810   29.0700   38.5580 C   0  0  0  0  0  0  0  0  0  0  0  0
   33.5160   28.8700   37.6990 C   0  0  0  0  0  0  0  0  0  0  0  0
   33.6610   28.8540   36.3550 C   0  0  0  0  0  0  0  0  0  0  0  0
   35.0130   29.0610   35.8930 C   0  0  0  0  0  0  0  0  0  0  0  0
   35.9510   29.2630   37.4890 S   0  0  0  0  0  0  0  0  0  0  0  0
   36.1587   27.5632   41.1940 H   0  0  0  0  0  0  0  0  0  0  0  0
   37.7237   32.2654   40.7309 H   0  0  0  0  0  0  0  0  0  0  0  0
   40.0487   32.9436   41.3930 H   0  0  0  0  0  0  0  0  0  0  0  0
   41.6267   31.2650   42.3020 H   0  0  0  0  0  0  0  0  0  0  0  0
   40.9586   28.8927   42.5757 H   0  0  0  0  0  0  0  0  0  0  0  0
   40.6777   25.5858   44.7561 H   0  0  0  0  0  0  0  0  0  0  0  0
   40.2038   23.4157   43.5391 H   0  0  0  0  0  0  0  0  0  0  0  0
   38.7593   23.4950   41.4537 H   0  0  0  0  0  0  0  0  0  0  0  0
   35.2099   30.7481   41.2681 H   0  0  0  0  0  0  0  0  0  0  0  0
   35.9977   30.7955   39.6219 H   0  0  0  0  0  0  0  0  0  0  0  0
   35.1092   28.1577   40.3120 H   0  0  0  0  0  0  0  0  0  0  0  0
   33.7721   29.4387   40.3665 H   0  0  0  0  0  0  0  0  0  0  0  0
   32.5133   28.7182   38.1252 H   0  0  0  0  0  0  0  0  0  0  0  0
   32.8163   28.6959   35.6683 H   0  0  0  0  0  0  0  0  0  0  0  0
   35.3925   29.0916   34.8610 H   0  0  0  0  0  0  0  0  0  0  0  0
  1 14  1  0
  2  1  2  0
  3  4  1  0
  3  2  1  0
  4  9  2  0
  5  4  1  0
  5  6  2  0
  6  7  1  0
  7  8  2  0
  9  1  1  0
  9  8  1  0
 11 10  2  0
 12 11  1  0
 13 12  2  0
 13 14  1  0
 14 15  2  0
 15 10  1  0
 16  3  1  0
 17 16  1  0
 18 17  1  0
 19 18  2  0
 20 19  1  0
 21 20  2  0
 21 22  1  0
 22 18  1  0
  2 23  1  0
  5 24  1  0
  6 25  1  0
  7 26  1  0
  8 27  1  0
 10 28  1  0
 11 29  1  0
 12 30  1  0
 16 31  1  0
 16 32  1  0
 17 33  1  0
 17 34  1  0
 19 35  1  0
 20 36  1  0
 21 37  1  0
M  ISO  8  23  14  24  14  25  14  26  14  27  14  28  14  29  14  30  14
M  ISO  7  31   8  32   8  33   8  34   8  35  14  36  14  37  14
M  END
>  <minimizedAffinity>  (1) 
-4.9333024

>  <minimizedRMSD>  (1) 
2.07505274

$$$$
