
     RDKit          3D

 32 34  0  0  0  0  0  0  0  0999 V2000
   37.6470   28.2230   41.5430 C   0  0  0  0  0  0  0  0  0  0  0  0
   36.3510   27.9810   41.0800 C   0  0  0  0  0  0  0  0  0  0  0  0
   35.8960   29.1490   40.5850 N   0  0  0  0  0  0  0  0  0  0  0  0
   36.8080   30.1170   40.6990 C   0  0  0  0  0  0  0  0  0  0  0  0
   36.7100   31.4330   40.3100 C   0  0  0  0  0  0  0  0  0  0  0  0
   37.8370   32.2390   40.5550 C   0  0  0  0  0  0  0  0  0  0  0  0
   38.9690   31.7150   41.1550 C   0  0  0  0  0  0  0  0  0  0  0  0
   39.0480   30.3940   41.5360 C   0  0  0  0  0  0  0  0  0  0  0  0
   37.9360   29.5690   41.3030 C   0  0  0  0  0  0  0  0  0  0  0  0
   39.7150   26.5890   44.0740 C   0  0  0  0  0  0  0  0  0  0  0  0
   40.2550   25.4690   43.3570 C   0  0  0  0  0  0  0  0  0  0  0  0
   39.8910   25.3060   42.0160 C   0  0  0  0  0  0  0  0  0  0  0  0
   39.0500   26.2210   41.4880 N   0  0  0  0  0  0  0  0  0  0  0  0
   38.5550   27.2610   42.1680 C   0  0  0  0  0  0  0  0  0  0  0  0
   38.8840   27.4530   43.4680 N   0  0  0  0  0  0  0  0  0  0  0  0
   34.5640   29.2100   40.0270 C   0  0  0  0  0  0  0  0  0  0  0  0
   34.5170   28.8050   38.5680 C   0  0  0  0  0  0  0  0  0  0  0  0
   33.1790   28.7830   38.0330 N   0  0  0  0  0  0  0  0  0  0  0  0
   35.8085   27.0247   41.1131 H   0  0  0  0  0  0  0  0  0  0  0  0
   35.8021   31.8324   39.8344 H   0  0  0  0  0  0  0  0  0  0  0  0
   37.8182   33.3001   40.2657 H   0  0  0  0  0  0  0  0  0  0  0  0
   39.8317   32.3738   41.3329 H   0  0  0  0  0  0  0  0  0  0  0  0
   39.9574   29.9960   42.0099 H   0  0  0  0  0  0  0  0  0  0  0  0
   39.9842   26.7412   45.1296 H   0  0  0  0  0  0  0  0  0  0  0  0
   40.9361   24.7585   43.8482 H   0  0  0  0  0  0  0  0  0  0  0  0
   40.2741   24.4671   41.4165 H   0  0  0  0  0  0  0  0  0  0  0  0
   33.9121   28.5342   40.6000 H   0  0  0  0  0  0  0  0  0  0  0  0
   34.2270   30.2552   40.0905 H   0  0  0  0  0  0  0  0  0  0  0  0
   35.1156   29.5211   37.9859 H   0  0  0  0  0  0  0  0  0  0  0  0
   34.9168   27.7827   38.4970 H   0  0  0  0  0  0  0  0  0  0  0  0
   32.4998   28.7718   38.8072 H   0  0  0  0  0  0  0  0  0  0  0  0
   33.0266   29.6216   37.4547 H   0  0  0  0  0  0  0  0  0  0  0  0
  1 14  1  0
  2  1  2  0
  3  4  1  0
  3  2  1  0
  4  9  2  0
  5  6  2  0
  5  4  1  0
  6  7  1  0
  7  8  2  0
  9  8  1  0
  9  1  1  0
 11 10  2  0
 12 11  1  0
 13 12  2  0
 13 14  1  0
 14 15  2  0
 15 10  1  0
 16  3  1  0
 17 16  1  0
 18 17  1  0
  2 19  1  0
  5 20  1  0
  6 21  1  0
  7 22  1  0
  8 23  1  0
 10 24  1  0
 11 25  1  0
 12 26  1  0
 16 27  1  0
 16 28  1  0
 17 29  1  0
 17 30  1  0
 18 31  1  0
 18 32  1  0
M  ISO  8  19  14  20  14  21  14  22  14  23  14  24  14  25  14  26  14
M  ISO  6  27   8  28   8  29   8  30   8  31   5  32   5
M  END
>  <minimizedAffinity>  (1) 
-4.57018471

>  <minimizedRMSD>  (1) 
0.0303287767

$$$$
