
     RDKit          3D

 28 31  0  0  0  0  0  0  0  0999 V2000
   36.9870   27.0460   41.5410 C   0  0  0  0  0  0  0  0  0  0  0  0
   37.1930   26.1040   40.5350 C   0  0  0  0  0  0  0  0  0  0  0  0
   37.1930   24.9070   41.2100 C   0  0  0  0  0  0  0  0  0  0  0  0
   37.0020   25.0950   42.5210 N   0  0  0  0  0  0  0  0  0  0  0  0
   36.8750   26.4070   42.7270 N   0  0  0  0  0  0  0  0  0  0  0  0
   37.3810   23.6620   40.5000 N   0  0  0  0  0  0  0  0  0  0  0  0
   38.5260   22.9430   40.3130 C   0  0  0  0  0  0  0  0  0  0  0  0
   38.2220   21.8500   39.5880 N   0  0  0  0  0  0  0  0  0  0  0  0
   36.9100   21.8810   39.3240 C   0  0  0  0  0  0  0  0  0  0  0  0
   36.0240   21.0720   38.6450 C   0  0  0  0  0  0  0  0  0  0  0  0
   34.6990   21.3600   38.5330 N   0  0  0  0  0  0  0  0  0  0  0  0
   34.2100   22.4960   39.1130 C   0  0  0  0  0  0  0  0  0  0  0  0
   35.0570   23.3030   39.7820 N   0  0  0  0  0  0  0  0  0  0  0  0
   36.3500   23.0160   39.8880 C   0  0  0  0  0  0  0  0  0  0  0  0
   37.9730   29.3570   41.5430 C   0  0  0  0  0  0  0  0  0  0  0  0
   36.9120   28.4770   41.2920 C   0  0  0  0  0  0  0  0  0  0  0  0
   35.7220   29.0100   40.7750 C   0  0  0  0  0  0  0  0  0  0  0  0
   35.6710   30.3640   40.5460 N   0  0  0  0  0  0  0  0  0  0  0  0
   36.7240   31.1730   40.8050 C   0  0  0  0  0  0  0  0  0  0  0  0
   37.8860   30.6700   41.3070 N   0  0  0  0  0  0  0  0  0  0  0  0
   37.3244   26.2774   39.4567 H   0  0  0  0  0  0  0  0  0  0  0  0
   36.9605   24.3596   43.2410 H   0  0  0  0  0  0  0  0  0  0  0  0
   39.5244   23.2103   40.6895 H   0  0  0  0  0  0  0  0  0  0  0  0
   36.4047   20.1540   38.1734 H   0  0  0  0  0  0  0  0  0  0  0  0
   33.1421   22.7480   39.0352 H   0  0  0  0  0  0  0  0  0  0  0  0
   38.9120   28.9527   41.9491 H   0  0  0  0  0  0  0  0  0  0  0  0
   34.8574   28.3649   40.5598 H   0  0  0  0  0  0  0  0  0  0  0  0
   36.6406   32.2519   40.6074 H   0  0  0  0  0  0  0  0  0  0  0  0
  1  5  2  0
  2  3  2  0
  2  1  1  0
  3  4  1  0
  4  5  1  0
  6  3  1  0
  7  6  1  0
  8  7  2  0
  9  8  1  0
  9 14  2  0
 10  9  1  0
 11 10  2  0
 11 12  1  0
 12 13  2  0
 13 14  1  0
 14  6  1  0
 16  1  1  0
 16 15  2  0
 17 16  1  0
 18 17  2  0
 18 19  1  0
 19 20  2  0
 20 15  1  0
  2 21  1  0
  4 22  1  0
  7 23  1  0
 10 24  1  0
 12 25  1  0
 15 26  1  0
 17 27  1  0
 19 28  1  0
M  ISO  8  21  14  22   9  23  14  24  14  25  14  26  14  27  14  28  14
M  END
>  <minimizedAffinity>  (1) 
-4.3811326

>  <minimizedRMSD>  (1) 
0.777361095

$$$$
