
     RDKit          3D

 31 33  0  0  0  0  0  0  0  0999 V2000
   37.6140   28.1730   41.4200 C   0  0  0  0  0  0  0  0  0  0  0  0
   36.3670   27.9290   40.8370 C   0  0  0  0  0  0  0  0  0  0  0  0
   35.9250   29.0800   40.3330 N   0  0  0  0  0  0  0  0  0  0  0  0
   36.7970   30.0870   40.5400 C   0  0  0  0  0  0  0  0  0  0  0  0
   36.7100   31.4020   40.1780 C   0  0  0  0  0  0  0  0  0  0  0  0
   37.7880   32.2330   40.5320 C   0  0  0  0  0  0  0  0  0  0  0  0
   38.8870   31.7120   41.2220 C   0  0  0  0  0  0  0  0  0  0  0  0
   38.9450   30.3770   41.5730 C   0  0  0  0  0  0  0  0  0  0  0  0
   37.8810   29.5340   41.2290 C   0  0  0  0  0  0  0  0  0  0  0  0
   39.6100   26.6240   44.0510 C   0  0  0  0  0  0  0  0  0  0  0  0
   40.1130   25.4500   43.4060 C   0  0  0  0  0  0  0  0  0  0  0  0
   39.7460   25.2170   42.0580 C   0  0  0  0  0  0  0  0  0  0  0  0
   38.9410   26.1240   41.4690 N   0  0  0  0  0  0  0  0  0  0  0  0
   38.4790   27.2230   42.0920 C   0  0  0  0  0  0  0  0  0  0  0  0
   38.8110   27.4750   43.3830 N   0  0  0  0  0  0  0  0  0  0  0  0
   34.6470   29.1410   39.6620 C   0  0  0  0  0  0  0  0  0  0  0  0
   34.6640   28.4830   38.3060 C   0  0  0  0  0  0  0  0  0  0  0  0
   33.1950   28.9840   37.3920 S   0  0  0  0  0  0  0  0  0  0  0  0
   35.8451   26.9613   40.8010 H   0  0  0  0  0  0  0  0  0  0  0  0
   35.8369   31.7925   39.6347 H   0  0  0  0  0  0  0  0  0  0  0  0
   37.7665   33.2997   40.2644 H   0  0  0  0  0  0  0  0  0  0  0  0
   39.7208   32.3774   41.4903 H   0  0  0  0  0  0  0  0  0  0  0  0
   39.8160   29.9812   42.1159 H   0  0  0  0  0  0  0  0  0  0  0  0
   39.8779   26.8314   45.0975 H   0  0  0  0  0  0  0  0  0  0  0  0
   40.7672   24.7472   43.9427 H   0  0  0  0  0  0  0  0  0  0  0  0
   40.1037   24.3309   41.5131 H   0  0  0  0  0  0  0  0  0  0  0  0
   33.8974   28.6350   40.2882 H   0  0  0  0  0  0  0  0  0  0  0  0
   34.4044   30.2031   39.5103 H   0  0  0  0  0  0  0  0  0  0  0  0
   35.5644   28.7945   37.7563 H   0  0  0  0  0  0  0  0  0  0  0  0
   34.6731   27.3894   38.4239 H   0  0  0  0  0  0  0  0  0  0  0  0
   32.2022   29.3226   38.2733 H   0  0  0  0  0  0  0  0  0  0  0  0
  1 14  1  0
  2  1  2  0
  3  4  1  0
  3  2  1  0
  4  9  2  0
  5  6  2  0
  5  4  1  0
  6  7  1  0
  7  8  2  0
  9  1  1  0
  9  8  1  0
 11 10  2  0
 12 11  1  0
 13 12  2  0
 13 14  1  0
 14 15  2  0
 15 10  1  0
 16  3  1  0
 17 16  1  0
 18 17  1  0
  2 19  1  0
  5 20  1  0
  6 21  1  0
  7 22  1  0
  8 23  1  0
 10 24  1  0
 11 25  1  0
 12 26  1  0
 16 27  1  0
 16 28  1  0
 17 29  1  0
 17 30  1  0
 18 31  1  0
M  ISO  8  19  14  20  14  21  14  22  14  23  14  24  14  25  14  26  14
M  ISO  5  27   8  28   8  29   8  30   8  31  11
M  END
>  <minimizedAffinity>  (1) 
-4.30960941

>  <minimizedRMSD>  (1) 
0.250856429

$$$$
