
     RDKit          3D

 40 43  0  0  0  0  0  0  0  0999 V2000
   36.7940   29.8300   39.8580 C   0  0  0  0  0  0  0  0  0  0  0  0
   37.6550   30.9300   39.9040 C   0  0  0  0  0  0  0  0  0  0  0  0
   38.2760   30.8810   41.0750 N   0  0  0  0  0  0  0  0  0  0  0  0
   37.8830   29.8250   41.8040 C   0  0  0  0  0  0  0  0  0  0  0  0
   38.2850   29.4180   43.0670 C   0  0  0  0  0  0  0  0  0  0  0  0
   37.6980   28.2650   43.5770 C   0  0  0  0  0  0  0  0  0  0  0  0
   36.7410   27.5530   42.8390 C   0  0  0  0  0  0  0  0  0  0  0  0
   36.3600   27.9780   41.5880 C   0  0  0  0  0  0  0  0  0  0  0  0
   36.9330   29.1230   41.0610 C   0  0  0  0  0  0  0  0  0  0  0  0
   33.7780   28.8010   38.0690 C   0  0  0  0  0  0  0  0  0  0  0  0
   34.1980   28.7720   36.7190 C   0  0  0  0  0  0  0  0  0  0  0  0
   35.5180   29.1070   36.4420 C   0  0  0  0  0  0  0  0  0  0  0  0
   36.3060   29.4360   37.4840 N   0  0  0  0  0  0  0  0  0  0  0  0
   35.8920   29.4600   38.7630 C   0  0  0  0  0  0  0  0  0  0  0  0
   34.6330   29.1420   39.0440 N   0  0  0  0  0  0  0  0  0  0  0  0
   39.2330   31.8890   41.4270 C   0  0  0  0  0  0  0  0  0  0  0  0
   38.9150   33.2570   40.9030 C   0  0  0  0  0  0  0  0  0  0  0  0
   40.0680   33.5980   40.0370 N   0  0  0  0  0  0  0  0  0  0  0  0
   40.8620   32.6890   39.4660 N   0  0  0  0  0  0  0  0  0  0  0  0
   41.8100   33.3070   38.7460 C   0  0  0  0  0  0  0  0  0  0  0  0
   41.6100   34.6820   38.8610 C   0  0  0  0  0  0  0  0  0  0  0  0
   40.5030   34.8100   39.6840 C   0  0  0  0  0  0  0  0  0  0  0  0
   39.8990   36.1200   40.1030 C   0  0  0  0  0  0  0  0  0  0  0  0
   40.5810   37.1600   39.4970 F   0  0  0  0  0  0  0  0  0  0  0  0
   40.0710   36.3030   41.4800 F   0  0  0  0  0  0  0  0  0  0  0  0
   38.5760   36.2230   39.8010 F   0  0  0  0  0  0  0  0  0  0  0  0
   37.7913   31.6898   39.1203 H   0  0  0  0  0  0  0  0  0  0  0  0
   39.0352   29.9823   43.6404 H   0  0  0  0  0  0  0  0  0  0  0  0
   37.9889   27.9056   44.5751 H   0  0  0  0  0  0  0  0  0  0  0  0
   36.2904   26.6448   43.2656 H   0  0  0  0  0  0  0  0  0  0  0  0
   35.6095   27.4155   41.0132 H   0  0  0  0  0  0  0  0  0  0  0  0
   32.7394   28.5412   38.3218 H   0  0  0  0  0  0  0  0  0  0  0  0
   33.5022   28.4932   35.9139 H   0  0  0  0  0  0  0  0  0  0  0  0
   35.9043   29.1037   35.4121 H   0  0  0  0  0  0  0  0  0  0  0  0
   39.2855   31.9449   42.5243 H   0  0  0  0  0  0  0  0  0  0  0  0
   40.1861   31.5907   40.9658 H   0  0  0  0  0  0  0  0  0  0  0  0
   37.9817   33.2435   40.3209 H   0  0  0  0  0  0  0  0  0  0  0  0
   38.7653   33.9901   41.7093 H   0  0  0  0  0  0  0  0  0  0  0  0
   42.6054   32.8154   38.1666 H   0  0  0  0  0  0  0  0  0  0  0  0
   42.2007   35.4873   38.4000 H   0  0  0  0  0  0  0  0  0  0  0  0
  1  2  2  0
  1  9  1  0
  2  3  1  0
  3 16  1  0
  3  4  1  0
  4  5  2  0
  5  6  1  0
  7  6  2  0
  8  7  1  0
  9  8  2  0
  9  4  1  0
 10 15  2  0
 11 10  1  0
 12 11  2  0
 12 13  1  0
 13 14  2  0
 14 15  1  0
 14  1  1  0
 17 16  1  0
 18 17  1  0
 19 18  1  0
 20 21  1  0
 20 19  2  0
 21 22  2  0
 22 18  1  0
 22 23  1  0
 23 25  1  0
 24 23  1  0
 26 23  1  0
  2 27  1  0
  5 28  1  0
  6 29  1  0
  7 30  1  0
  8 31  1  0
 10 32  1  0
 11 33  1  0
 12 34  1  0
 16 35  1  0
 16 36  1  0
 17 37  1  0
 17 38  1  0
 20 39  1  0
 21 40  1  0
M  ISO  8  27  14  28  14  29  14  30  14  31  14  32  14  33  14  34  14
M  ISO  6  35   8  36   8  37   8  38   8  39  14  40  14
M  END
>  <minimizedAffinity>  (1) 
-6.63119936

>  <minimizedRMSD>  (1) 
1.30831587

$$$$
