
     RDKit          3D

 46 49  0  0  0  0  0  0  0  0999 V2000
   36.7090   29.8700   39.7730 C   0  0  0  0  0  0  0  0  0  0  0  0
   37.5540   30.9740   39.7950 C   0  0  0  0  0  0  0  0  0  0  0  0
   38.2000   30.9400   40.9570 N   0  0  0  0  0  0  0  0  0  0  0  0
   37.8360   29.8860   41.7040 C   0  0  0  0  0  0  0  0  0  0  0  0
   38.2700   29.4990   42.9580 C   0  0  0  0  0  0  0  0  0  0  0  0
   37.7090   28.3460   43.4910 C   0  0  0  0  0  0  0  0  0  0  0  0
   36.7470   27.6150   42.7800 C   0  0  0  0  0  0  0  0  0  0  0  0
   36.3330   28.0220   41.5330 C   0  0  0  0  0  0  0  0  0  0  0  0
   36.8810   29.1700   40.9840 C   0  0  0  0  0  0  0  0  0  0  0  0
   33.6670   28.7980   38.0710 C   0  0  0  0  0  0  0  0  0  0  0  0
   34.0720   28.7380   36.6960 C   0  0  0  0  0  0  0  0  0  0  0  0
   35.4000   29.0730   36.3910 C   0  0  0  0  0  0  0  0  0  0  0  0
   36.2050   29.4280   37.4070 N   0  0  0  0  0  0  0  0  0  0  0  0
   35.7880   29.4730   38.6980 C   0  0  0  0  0  0  0  0  0  0  0  0
   34.5400   29.1640   39.0270 N   0  0  0  0  0  0  0  0  0  0  0  0
   39.1560   31.9580   41.2790 C   0  0  0  0  0  0  0  0  0  0  0  0
   38.7760   33.3330   40.8320 C   0  0  0  0  0  0  0  0  0  0  0  0
   39.9090   33.7790   39.9830 N   0  0  0  0  0  0  0  0  0  0  0  0
   40.4900   33.0140   39.0580 N   0  0  0  0  0  0  0  0  0  0  0  0
   41.4720   33.7140   38.4670 C   0  0  0  0  0  0  0  0  0  0  0  0
   41.5100   34.9950   39.0560 C   0  0  0  0  0  0  0  0  0  0  0  0
   40.5060   34.9850   40.0050 C   0  0  0  0  0  0  0  0  0  0  0  0
   40.1890   36.1280   40.8650 C   0  0  0  0  0  0  0  0  0  0  0  0
   41.4410   36.6280   41.5880 C   0  0  0  0  0  0  0  0  0  0  0  0
   39.6810   37.3220   40.0780 C   0  0  0  0  0  0  0  0  0  0  0  0
   37.6665   31.7299   39.0038 H   0  0  0  0  0  0  0  0  0  0  0  0
   39.0257   30.0782   43.5088 H   0  0  0  0  0  0  0  0  0  0  0  0
   38.0244   28.0008   44.4867 H   0  0  0  0  0  0  0  0  0  0  0  0
   36.3181   26.7049   43.2247 H   0  0  0  0  0  0  0  0  0  0  0  0
   35.5778   27.4444   40.9797 H   0  0  0  0  0  0  0  0  0  0  0  0
   32.6331   28.5424   38.3462 H   0  0  0  0  0  0  0  0  0  0  0  0
   33.3654   28.4395   35.9076 H   0  0  0  0  0  0  0  0  0  0  0  0
   35.7697   29.0460   35.3553 H   0  0  0  0  0  0  0  0  0  0  0  0
   39.2836   31.9755   42.3714 H   0  0  0  0  0  0  0  0  0  0  0  0
   40.0797   31.6995   40.7405 H   0  0  0  0  0  0  0  0  0  0  0  0
   37.8422   33.3080   40.2511 H   0  0  0  0  0  0  0  0  0  0  0  0
   38.5978   34.0119   41.6790 H   0  0  0  0  0  0  0  0  0  0  0  0
   42.1311   33.3518   37.6643 H   0  0  0  0  0  0  0  0  0  0  0  0
   42.1918   35.8232   38.8124 H   0  0  0  0  0  0  0  0  0  0  0  0
   39.4197   35.7615   41.5606 H   0  0  0  0  0  0  0  0  0  0  0  0
   41.2859   36.5661   42.6752 H   0  0  0  0  0  0  0  0  0  0  0  0
   42.3018   36.0046   41.3043 H   0  0  0  0  0  0  0  0  0  0  0  0
   41.6356   37.6728   41.3043 H   0  0  0  0  0  0  0  0  0  0  0  0
   39.3477   38.1054   40.7746 H   0  0  0  0  0  0  0  0  0  0  0  0
   40.4900   37.7147   39.4445 H   0  0  0  0  0  0  0  0  0  0  0  0
   38.8371   37.0114   39.4445 H   0  0  0  0  0  0  0  0  0  0  0  0
  1  2  2  0
  1  9  1  0
  2  3  1  0
  3 16  1  0
  3  4  1  0
  4  5  2  0
  5  6  1  0
  7  6  2  0
  8  7  1  0
  9  8  2  0
  9  4  1  0
 10 15  2  0
 11 10  1  0
 12 11  2  0
 12 13  1  0
 13 14  2  0
 14 15  1  0
 14  1  1  0
 17 16  1  0
 18 22  1  0
 18 17  1  0
 19 18  1  0
 20 21  1  0
 20 19  2  0
 21 22  2  0
 22 23  1  0
 23 24  1  0
 25 23  1  0
  2 26  1  0
  5 27  1  0
  6 28  1  0
  7 29  1  0
  8 30  1  0
 10 31  1  0
 11 32  1  0
 12 33  1  0
 16 34  1  0
 16 35  1  0
 17 36  1  0
 17 37  1  0
 20 38  1  0
 21 39  1  0
 23 40  1  0
 24 41  1  0
 24 42  1  0
 24 43  1  0
 25 44  1  0
 25 45  1  0
 25 46  1  0
M  ISO  8  26  14  27  14  28  14  29  14  30  14  31  14  32  14  33  14
M  ISO  8  34   8  35   8  36   8  37   8  38  14  39  14  40   8  41   8
M  ISO  5  42   8  43   8  44   8  45   8  46   8
M  END
>  <minimizedAffinity>  (1) 
-6.39362717

>  <minimizedRMSD>  (1) 
1.24006903

$$$$
