
     RDKit          3D

 38 41  0  0  0  0  0  0  0  0999 V2000
   36.7040   29.9320   39.7630 C   0  0  0  0  0  0  0  0  0  0  0  0
   37.5380   31.0520   39.7680 C   0  0  0  0  0  0  0  0  0  0  0  0
   38.1950   31.0310   40.9310 N   0  0  0  0  0  0  0  0  0  0  0  0
   37.8490   29.9810   41.6790 C   0  0  0  0  0  0  0  0  0  0  0  0
   38.2940   29.6010   42.9320 C   0  0  0  0  0  0  0  0  0  0  0  0
   37.7540   28.4440   43.4760 C   0  0  0  0  0  0  0  0  0  0  0  0
   36.7970   27.7000   42.7740 C   0  0  0  0  0  0  0  0  0  0  0  0
   36.3620   28.0870   41.5300 C   0  0  0  0  0  0  0  0  0  0  0  0
   36.8960   29.2490   40.9700 C   0  0  0  0  0  0  0  0  0  0  0  0
   33.6650   28.8040   38.0660 C   0  0  0  0  0  0  0  0  0  0  0  0
   34.0620   28.7430   36.7110 C   0  0  0  0  0  0  0  0  0  0  0  0
   35.3720   29.0910   36.4010 C   0  0  0  0  0  0  0  0  0  0  0  0
   36.1860   29.4650   37.4110 N   0  0  0  0  0  0  0  0  0  0  0  0
   35.7810   29.5160   38.7040 C   0  0  0  0  0  0  0  0  0  0  0  0
   34.5330   29.1860   39.0140 N   0  0  0  0  0  0  0  0  0  0  0  0
   39.1360   32.0700   41.2300 C   0  0  0  0  0  0  0  0  0  0  0  0
   38.7930   33.4150   40.6750 C   0  0  0  0  0  0  0  0  0  0  0  0
   39.9470   33.7670   39.8140 N   0  0  0  0  0  0  0  0  0  0  0  0
   40.4390   32.9680   38.8650 N   0  0  0  0  0  0  0  0  0  0  0  0
   41.4780   33.5690   38.2640 C   0  0  0  0  0  0  0  0  0  0  0  0
   41.6560   34.8210   38.8650 C   0  0  0  0  0  0  0  0  0  0  0  0
   40.6640   34.9010   39.8400 C   0  0  0  0  0  0  0  0  0  0  0  0
   40.4190   36.2970   40.9230 S   0  0  0  0  0  0  0  0  0  0  0  0
   37.6349   31.8038   38.9709 H   0  0  0  0  0  0  0  0  0  0  0  0
   39.0458   30.1920   43.4757 H   0  0  0  0  0  0  0  0  0  0  0  0
   38.0815   28.1071   44.4706 H   0  0  0  0  0  0  0  0  0  0  0  0
   36.3853   26.7868   43.2285 H   0  0  0  0  0  0  0  0  0  0  0  0
   35.6102   27.4950   40.9875 H   0  0  0  0  0  0  0  0  0  0  0  0
   32.6354   28.5359   38.3453 H   0  0  0  0  0  0  0  0  0  0  0  0
   33.3571   28.4302   35.9266 H   0  0  0  0  0  0  0  0  0  0  0  0
   35.7346   29.0624   35.3629 H   0  0  0  0  0  0  0  0  0  0  0  0
   39.2072   32.1608   42.3239 H   0  0  0  0  0  0  0  0  0  0  0  0
   40.0816   31.7736   40.7526 H   0  0  0  0  0  0  0  0  0  0  0  0
   37.8670   33.3667   40.0833 H   0  0  0  0  0  0  0  0  0  0  0  0
   38.6175   34.1607   41.4644 H   0  0  0  0  0  0  0  0  0  0  0  0
   42.0822   33.1520   37.4449 H   0  0  0  0  0  0  0  0  0  0  0  0
   42.4154   35.5782   38.6202 H   0  0  0  0  0  0  0  0  0  0  0  0
   40.4918   35.8820   42.2266 H   0  0  0  0  0  0  0  0  0  0  0  0
  1  2  2  0
  1  9  1  0
  2  3  1  0
  3 16  1  0
  3  4  1  0
  4  5  2  0
  5  6  1  0
  7  6  2  0
  8  7  1  0
  9  8  2  0
  9  4  1  0
 10 15  2  0
 11 10  1  0
 12 11  2  0
 12 13  1  0
 13 14  2  0
 14 15  1  0
 14  1  1  0
 17 16  1  0
 18 22  1  0
 18 17  1  0
 19 18  1  0
 20 21  1  0
 20 19  2  0
 21 22  2  0
 22 23  1  0
  2 24  1  0
  5 25  1  0
  6 26  1  0
  7 27  1  0
  8 28  1  0
 10 29  1  0
 11 30  1  0
 12 31  1  0
 16 32  1  0
 16 33  1  0
 17 34  1  0
 17 35  1  0
 20 36  1  0
 21 37  1  0
 23 38  1  0
M  ISO  8  24  14  25  14  26  14  27  14  28  14  29  14  30  14  31  14
M  ISO  7  32   8  33   8  34   8  35   8  36  14  37  14  38  11
M  END
>  <minimizedAffinity>  (1) 
-5.83739853

>  <minimizedRMSD>  (1) 
1.10913885

$$$$
