
     RDKit          3D

 25 27  0  0  0  0  0  0  0  0999 V2000
   36.9060   26.9190   41.4660 C   0  0  0  0  0  0  0  0  0  0  0  0
   36.8220   26.0090   40.3930 C   0  0  0  0  0  0  0  0  0  0  0  0
   36.9510   24.7820   41.0220 C   0  0  0  0  0  0  0  0  0  0  0  0
   37.1000   24.9340   42.3600 N   0  0  0  0  0  0  0  0  0  0  0  0
   37.0700   26.2240   42.6070 N   0  0  0  0  0  0  0  0  0  0  0  0
   37.8420   29.2330   41.6480 C   0  0  0  0  0  0  0  0  0  0  0  0
   36.8180   28.3520   41.2780 C   0  0  0  0  0  0  0  0  0  0  0  0
   35.6620   28.8960   40.6980 C   0  0  0  0  0  0  0  0  0  0  0  0
   35.5950   30.2510   40.5270 N   0  0  0  0  0  0  0  0  0  0  0  0
   36.6110   31.0600   40.9010 C   0  0  0  0  0  0  0  0  0  0  0  0
   37.7480   30.5540   41.4680 N   0  0  0  0  0  0  0  0  0  0  0  0
   36.9340   23.4750   40.3650 C   0  0  0  0  0  0  0  0  0  0  0  0
   35.8990   23.1290   39.5200 C   0  0  0  0  0  0  0  0  0  0  0  0
   35.9010   21.9010   38.9160 C   0  0  0  0  0  0  0  0  0  0  0  0
   36.9270   21.0690   39.1720 N   0  0  0  0  0  0  0  0  0  0  0  0
   37.9510   21.3990   40.0010 C   0  0  0  0  0  0  0  0  0  0  0  0
   37.9200   22.6050   40.5770 N   0  0  0  0  0  0  0  0  0  0  0  0
   36.6874   26.2208   39.3220 H   0  0  0  0  0  0  0  0  0  0  0  0
   37.2151   24.1805   43.0527 H   0  0  0  0  0  0  0  0  0  0  0  0
   38.7559   28.8232   42.1028 H   0  0  0  0  0  0  0  0  0  0  0  0
   34.8292   28.2477   40.3881 H   0  0  0  0  0  0  0  0  0  0  0  0
   36.5217   32.1454   40.7465 H   0  0  0  0  0  0  0  0  0  0  0  0
   35.0774   23.8361   39.3331 H   0  0  0  0  0  0  0  0  0  0  0  0
   35.0863   21.6024   38.2399 H   0  0  0  0  0  0  0  0  0  0  0  0
   38.7772   20.6983   40.1918 H   0  0  0  0  0  0  0  0  0  0  0  0
  1  5  2  0
  2  3  2  0
  2  1  1  0
  3  4  1  0
  4  5  1  0
  7  1  1  0
  7  6  2  0
  8  7  1  0
  9  8  2  0
  9 10  1  0
 10 11  2  0
 11  6  1  0
 12 17  1  0
 12  3  1  0
 13 12  2  0
 14 15  2  0
 14 13  1  0
 15 16  1  0
 16 17  2  0
  2 18  1  0
  4 19  1  0
  6 20  1  0
  8 21  1  0
 10 22  1  0
 13 23  1  0
 14 24  1  0
 16 25  1  0
M  ISO  8  18  14  19   9  20  14  21  14  22  14  23  14  24  14  25  14
M  END
>  <minimizedAffinity>  (1) 
-4.25573635

>  <minimizedRMSD>  (1) 
0.536710501

$$$$
