
     RDKit          3D

 31 33  0  0  1  0  0  0  0  0999 V2000
   37.1170   27.7850   42.5510 C   0  0  1  0  0  0  0  0  0  0  0  0
   37.6030   29.0800   43.1140 C   0  0  0  0  0  0  0  0  0  0  0  0
   37.6590   28.9020   41.6390 C   0  0  2  0  0  0  0  0  0  0  0  0
   39.9330   25.6980   43.7250 C   0  0  0  0  0  0  0  0  0  0  0  0
   39.6370   24.4510   43.1190 C   0  0  0  0  0  0  0  0  0  0  0  0
   38.4770   24.3550   42.3110 C   0  0  0  0  0  0  0  0  0  0  0  0
   37.7070   25.4570   42.1550 N   0  0  0  0  0  0  0  0  0  0  0  0
   38.0250   26.6340   42.7520 C   0  0  0  0  0  0  0  0  0  0  0  0
   39.1260   26.7490   43.5290 N   0  0  0  0  0  0  0  0  0  0  0  0
   36.6390   29.4660   40.7790 N   0  0  0  0  0  0  0  0  0  0  0  0
   36.3300   30.8110   41.1410 C   0  0  0  0  0  0  0  0  0  0  0  0
   37.0780   31.8140   40.3070 C   0  0  0  0  0  0  0  0  0  0  0  0
   36.8660   31.6550   38.9030 N   0  0  0  0  0  0  0  0  0  0  0  0
   36.5330   30.3260   38.4800 C   0  0  0  0  0  0  0  0  0  0  0  0
   37.0090   29.2450   39.4200 C   0  0  0  0  0  0  0  0  0  0  0  0
   36.1879   27.1989   42.6080 H   0  0  0  0  0  0  0  0  0  0  0  0
   36.8825   29.7881   43.5492 H   0  0  0  0  0  0  0  0  0  0  0  0
   38.3449   29.3500   43.8800 H   0  0  0  0  0  0  0  0  0  0  0  0
   38.4658   29.0613   40.9084 H   0  0  0  0  0  0  0  0  0  0  0  0
   40.8270   25.8027   44.3573 H   0  0  0  0  0  0  0  0  0  0  0  0
   40.2913   23.5801   43.2722 H   0  0  0  0  0  0  0  0  0  0  0  0
   38.2086   23.4070   41.8220 H   0  0  0  0  0  0  0  0  0  0  0  0
   35.2505   30.9742   41.0065 H   0  0  0  0  0  0  0  0  0  0  0  0
   36.6311   30.9544   42.1892 H   0  0  0  0  0  0  0  0  0  0  0  0
   36.7497   32.8230   40.5972 H   0  0  0  0  0  0  0  0  0  0  0  0
   38.1505   31.6562   40.4935 H   0  0  0  0  0  0  0  0  0  0  0  0
   36.0959   32.2798   38.6247 H   0  0  0  0  0  0  0  0  0  0  0  0
   35.4386   30.2539   38.3958 H   0  0  0  0  0  0  0  0  0  0  0  0
   37.0436   30.1603   37.5199 H   0  0  0  0  0  0  0  0  0  0  0  0
   36.5787   28.2866   39.0940 H   0  0  0  0  0  0  0  0  0  0  0  0
   38.1083   29.2452   39.3811 H   0  0  0  0  0  0  0  0  0  0  0  0
  1  8  1  0
  1  2  1  0
  3  1  1  0
  3  2  1  0
  5  4  2  0
  6  5  1  0
  7  6  2  0
  7  8  1  0
  8  9  2  0
  9  4  1  0
 10 11  1  0
 10  3  1  0
 12 11  1  0
 13 12  1  0
 14 13  1  0
 14 15  1  0
 15 10  1  0
  1 16  1  6
  2 17  1  0
  2 18  1  0
  3 19  1  6
  4 20  1  0
  5 21  1  0
  6 22  1  0
 11 23  1  0
 11 24  1  0
 12 25  1  0
 12 26  1  0
 13 27  1  0
 14 28  1  0
 14 29  1  0
 15 30  1  0
 15 31  1  0
M  ISO  8  16  13  17  13  18  13  19  13  20  14  21  14  22  14  23  13
M  ISO  8  24  13  25  13  26  13  27   5  28  13  29  13  30  13  31  13
M  END
>  <minimizedAffinity>  (1) 
-4.54246378

>  <minimizedRMSD>  (1) 
3.55333996

$$$$
