
     RDKit          3D

 30 32  0  0  0  0  0  0  0  0999 V2000
   36.9650   27.8640   41.1740 C   0  0  0  0  0  0  0  0  0  0  0  0
   36.9350   26.6930   40.3910 C   0  0  0  0  0  0  0  0  0  0  0  0
   36.9680   25.6870   41.3420 C   0  0  0  0  0  0  0  0  0  0  0  0
   37.0150   26.1980   42.5970 N   0  0  0  0  0  0  0  0  0  0  0  0
   37.0120   27.5060   42.4630 N   0  0  0  0  0  0  0  0  0  0  0  0
   36.6870   30.3450   41.3360 C   0  0  0  0  0  0  0  0  0  0  0  0
   36.9440   29.1860   40.5800 C   0  0  0  0  0  0  0  0  0  0  0  0
   37.1810   29.3540   39.2270 C   0  0  0  0  0  0  0  0  0  0  0  0
   37.1540   30.6130   38.6990 N   0  0  0  0  0  0  0  0  0  0  0  0
   36.9030   31.6970   39.4640 C   0  0  0  0  0  0  0  0  0  0  0  0
   36.6680   31.5590   40.7840 N   0  0  0  0  0  0  0  0  0  0  0  0
   36.9570   24.2370   41.0560 C   0  0  0  0  0  0  0  0  0  0  0  0
   36.5850   23.9400   39.5980 C   0  0  0  0  0  0  0  0  0  0  0  0
   36.8340   22.4260   39.6040 C   0  0  0  0  0  0  0  0  0  0  0  0
   38.1860   22.3380   40.2840 C   0  0  0  0  0  0  0  0  0  0  0  0
   38.3060   23.5920   41.1430 C   0  0  0  0  0  0  0  0  0  0  0  0
   36.8952   26.6008   39.2956 H   0  0  0  0  0  0  0  0  0  0  0  0
   37.0467   25.6674   43.4793 H   0  0  0  0  0  0  0  0  0  0  0  0
   36.4960   30.2466   42.4148 H   0  0  0  0  0  0  0  0  0  0  0  0
   37.3884   28.4849   38.5854 H   0  0  0  0  0  0  0  0  0  0  0  0
   36.8902   32.6978   39.0076 H   0  0  0  0  0  0  0  0  0  0  0  0
   36.2455   23.8556   41.8032 H   0  0  0  0  0  0  0  0  0  0  0  0
   37.2406   24.4651   38.8877 H   0  0  0  0  0  0  0  0  0  0  0  0
   35.5786   24.2575   39.2875 H   0  0  0  0  0  0  0  0  0  0  0  0
   36.0610   21.8950   40.1789 H   0  0  0  0  0  0  0  0  0  0  0  0
   36.8063   21.9656   38.6054 H   0  0  0  0  0  0  0  0  0  0  0  0
   38.2397   21.4371   40.9130 H   0  0  0  0  0  0  0  0  0  0  0  0
   39.0029   22.2722   39.5502 H   0  0  0  0  0  0  0  0  0  0  0  0
   39.0834   24.2618   40.7467 H   0  0  0  0  0  0  0  0  0  0  0  0
   38.5939   23.3628   42.1796 H   0  0  0  0  0  0  0  0  0  0  0  0
  1  5  2  0
  2  1  1  0
  2  3  2  0
  3  4  1  0
  5  4  1  0
  7  1  1  0
  7  6  2  0
  8  7  1  0
  9  8  2  0
  9 10  1  0
 10 11  2  0
 11  6  1  0
 12 16  1  0
 12  3  1  0
 13 14  1  0
 13 12  1  0
 14 15  1  0
 15 16  1  0
  2 17  1  0
  4 18  1  0
  6 19  1  0
  8 20  1  0
 10 21  1  0
 12 22  1  0
 13 23  1  0
 13 24  1  0
 14 25  1  0
 14 26  1  0
 15 27  1  0
 15 28  1  0
 16 29  1  0
 16 30  1  0
M  ISO  8  17  14  18   9  19  14  20  14  21  14  22  13  23  13  24  13
M  ISO  6  25  13  26  13  27  13  28  13  29  13  30  13
M  END
>  <minimizedAffinity>  (1) 
-4.22163248

>  <minimizedRMSD>  (1) 
1.83784938

$$$$
