
     RDKit          3D

 23 25  0  0  1  0  0  0  0  0999 V2000
   36.1730   30.6910   40.8540 C   0  0  1  0  0  0  0  0  0  0  0  0
   37.0600   31.8230   40.4550 C   0  0  0  0  0  0  0  0  0  0  0  0
   36.6980   30.8280   39.4090 C   0  0  1  0  0  0  0  0  0  0  0  0
   38.5580   28.9750   43.0940 C   0  0  0  0  0  0  0  0  0  0  0  0
   37.9810   27.6810   43.1900 C   0  0  0  0  0  0  0  0  0  0  0  0
   36.7860   27.4220   42.4740 C   0  0  0  0  0  0  0  0  0  0  0  0
   36.2490   28.4180   41.7340 N   0  0  0  0  0  0  0  0  0  0  0  0
   36.8290   29.6450   41.6650 C   0  0  0  0  0  0  0  0  0  0  0  0
   37.9710   29.9100   42.3420 N   0  0  0  0  0  0  0  0  0  0  0  0
   37.6830   29.8700   38.9670 N   0  0  0  0  0  0  0  0  0  0  0  0
   37.5520   28.6460   38.4240 C   0  0  0  0  0  0  0  0  0  0  0  0
   38.7910   28.1610   38.1890 N   0  0  0  0  0  0  0  0  0  0  0  0
   39.6930   29.0940   38.5890 C   0  0  0  0  0  0  0  0  0  0  0  0
   38.9890   30.1300   39.0610 N   0  0  0  0  0  0  0  0  0  0  0  0
   35.1834   30.5911   41.3238 H   0  0  0  0  0  0  0  0  0  0  0  0
   36.6493   32.8420   40.4009 H   0  0  0  0  0  0  0  0  0  0  0  0
   38.0134   32.2172   40.8366 H   0  0  0  0  0  0  0  0  0  0  0  0
   36.2563   30.8913   38.4036 H   0  0  0  0  0  0  0  0  0  0  0  0
   39.4859   29.2068   43.6375 H   0  0  0  0  0  0  0  0  0  0  0  0
   38.4502   26.8990   43.8051 H   0  0  0  0  0  0  0  0  0  0  0  0
   36.3062   26.4332   42.5192 H   0  0  0  0  0  0  0  0  0  0  0  0
   36.6039   28.1312   38.2093 H   0  0  0  0  0  0  0  0  0  0  0  0
   40.7888   29.0140   38.5355 H   0  0  0  0  0  0  0  0  0  0  0  0
  1  8  1  0
  2  1  1  0
  3  2  1  0
  3  1  1  0
  4  5  2  0
  6  5  1  0
  7  6  2  0
  8  7  1  0
  8  9  2  0
  9  4  1  0
 10 14  1  0
 10  3  1  0
 11 10  1  0
 12 11  2  0
 12 13  1  0
 13 14  2  0
  1 15  1  6
  2 16  1  0
  2 17  1  0
  3 18  1  6
  4 19  1  0
  5 20  1  0
  6 21  1  0
 11 22  1  0
 13 23  1  0
M  ISO  8  15  13  16  13  17  13  18  13  19  14  20  14  21  14  22  14
M  ISO  1  23  14
M  END
>  <minimizedAffinity>  (1) 
-3.7749269

>  <minimizedRMSD>  (1) 
0.202794001

$$$$
